0:0
     RDKit          3D

 73 77  0  0  1  0  0  0  0  0999 V2000
   56.2900   23.2780   43.0110 C   0  0  0  0  0  0  0  0  0  0  0  0
   55.6940   23.9880   44.0770 O   0  0  0  0  0  0  0  0  0  0  0  0
   56.4950   24.7820   44.8770 C   0  0  0  0  0  0  0  0  0  0  0  0
   57.8630   24.6210   44.9140 C   0  0  0  0  0  0  0  0  0  0  0  0
   58.6410   25.4220   45.7190 C   0  0  0  0  0  0  0  0  0  0  0  0
   58.1360   26.4240   46.5310 C   0  0  0  0  0  0  0  0  0  0  0  0
   58.9760   27.2770   47.4130 C   0  0  0  0  0  0  0  0  0  0  0  0
   59.7630   28.2350   46.7830 N   0  0  0  0  0  0  0  0  0  0  0  0
   59.8380   29.4750   46.8020 C   0  0  0  0  0  0  0  0  0  0  0  0
   60.7890   30.0740   47.5450 N   0  0  0  0  0  0  0  0  0  0  0  0
   60.9570   31.4040   47.5970 C   0  0  0  0  0  0  0  0  0  0  0  0
   61.9470   32.0760   48.3500 N   0  0  0  0  0  0  0  0  0  0  0  0
   62.6090   33.2470   47.7710 C   0  0  0  0  0  0  0  0  0  0  0  0
   64.1440   33.1240   47.8950 C   0  0  0  0  0  0  0  0  0  0  0  0
   64.4310   32.9750   49.3320 C   0  0  0  0  0  0  0  0  0  0  0  0
   65.7000   33.2610   49.8560 N   0  0  0  0  0  0  0  0  0  0  0  0
   66.1530   32.6670   51.0430 C   0  0  0  0  0  0  0  0  0  0  0  0
   67.1460   31.5460   50.9060 C   0  0  0  0  0  0  0  0  0  0  0  0
   66.6050   30.1850   51.9780 S   0  0  0  0  0  0  0  0  0  0  0  0
   67.0120   28.6350   51.2270 C   0  0  0  0  0  0  0  0  0  0  0  0
   66.3100   27.5450   51.6470 N   0  0  0  0  0  0  0  0  0  0  0  0
   66.5550   26.3410   51.1070 C   0  0  0  0  0  0  0  0  0  0  0  0
   67.5070   26.2030   50.1350 C   0  0  0  0  0  0  0  0  0  0  0  0
   68.2110   27.2910   49.7120 C   0  0  0  0  0  0  0  0  0  0  0  0
   67.9430   28.4770   50.2710 N   0  0  0  0  0  0  0  0  0  0  0  0
   63.8990   31.6080   49.7540 C   0  0  0  0  0  0  0  0  0  0  0  0
   62.3880   31.6950   49.6720 C   0  0  0  0  0  0  0  0  0  0  0  0
   60.1030   32.1420   46.8470 N   0  0  0  0  0  0  0  0  0  0  0  0
   59.1420   31.5800   46.0960 C   0  0  0  0  0  0  0  0  0  0  0  0
   58.3200   32.3950   45.3650 C   0  0  0  0  0  0  0  0  0  0  0  0
   57.3520   31.7660   44.6110 C   0  0  0  0  0  0  0  0  0  0  0  0
   57.1610   30.4230   44.5470 C   0  0  0  0  0  0  0  0  0  0  0  0
   56.1270   29.8890   43.7340 N   0  0  0  0  0  0  0  0  0  0  0  0
   56.2330   29.9110   42.4990 O   0  0  0  0  0  0  0  0  0  0  0  0
   54.9810   29.3330   44.2990 O   0  0  0  0  0  0  0  0  0  0  0  0
   58.0100   29.5830   45.3010 C   0  0  0  0  0  0  0  0  0  0  0  0
   58.9630   30.2100   46.0380 C   0  0  0  0  0  0  0  0  0  0  0  0
   56.7410   26.5650   46.4730 C   0  0  0  0  0  0  0  0  0  0  0  0
   55.9580   25.7630   45.6690 C   0  0  0  0  0  0  0  0  0  0  0  0
   54.5580   25.9300   45.6320 O   0  0  0  0  0  0  0  0  0  0  0  0
   53.7660   24.7490   45.6160 C   0  0  0  0  0  0  0  0  0  0  0  0
   56.9478   22.4943   43.4149 H   0  0  0  0  0  0  0  0  0  0  0  0
   55.5052   22.8160   42.3940 H   0  0  0  0  0  0  0  0  0  0  0  0
   56.8810   23.9709   42.3940 H   0  0  0  0  0  0  0  0  0  0  0  0
   58.3376   23.8455   44.2948 H   0  0  0  0  0  0  0  0  0  0  0  0
   59.7285   25.2564   45.7173 H   0  0  0  0  0  0  0  0  0  0  0  0
   58.3046   27.8011   48.1090 H   0  0  0  0  0  0  0  0  0  0  0  0
   59.6856   26.5880   47.8944 H   0  0  0  0  0  0  0  0  0  0  0  0
   61.4270   29.4750   48.1100 H   0  0  0  0  0  0  0  0  0  0  0  0
   62.3379   33.3261   46.7079 H   0  0  0  0  0  0  0  0  0  0  0  0
   62.2811   34.1442   48.3165 H   0  0  0  0  0  0  0  0  0  0  0  0
   64.5016   32.2432   47.3416 H   0  0  0  0  0  0  0  0  0  0  0  0
   64.6514   34.0049   47.4748 H   0  0  0  0  0  0  0  0  0  0  0  0
   63.9112   33.8240   49.8000 H   0  0  0  0  0  0  0  0  0  0  0  0
   65.8630   34.2900   49.8340 H   0  0  0  0  0  0  0  0  0  0  0  0
   66.6224   33.4545   51.6508 H   0  0  0  0  0  0  0  0  0  0  0  0
   65.2607   32.2068   51.4925 H   0  0  0  0  0  0  0  0  0  0  0  0
   67.1833   31.2058   49.8606 H   0  0  0  0  0  0  0  0  0  0  0  0
   68.1503   31.8868   51.1978 H   0  0  0  0  0  0  0  0  0  0  0  0
   65.9880   25.4620   51.4475 H   0  0  0  0  0  0  0  0  0  0  0  0
   67.7046   25.2145   49.6947 H   0  0  0  0  0  0  0  0  0  0  0  0
   68.9798   27.1965   48.9310 H   0  0  0  0  0  0  0  0  0  0  0  0
   64.2729   30.8277   49.0748 H   0  0  0  0  0  0  0  0  0  0  0  0
   64.2296   31.3469   50.7701 H   0  0  0  0  0  0  0  0  0  0  0  0
   61.9600   30.7129   49.9216 H   0  0  0  0  0  0  0  0  0  0  0  0
   62.0491   32.4638   50.3820 H   0  0  0  0  0  0  0  0  0  0  0  0
   58.4258   33.4898   45.3784 H   0  0  0  0  0  0  0  0  0  0  0  0
   56.6817   32.4021   44.0143 H   0  0  0  0  0  0  0  0  0  0  0  0
   57.9057   28.4880   45.2919 H   0  0  0  0  0  0  0  0  0  0  0  0
   56.2572   27.3386   47.0874 H   0  0  0  0  0  0  0  0  0  0  0  0
   53.5553   24.4348   46.6489 H   0  0  0  0  0  0  0  0  0  0  0  0
   52.8191   24.9496   45.0934 H   0  0  0  0  0  0  0  0  0  0  0  0
   54.3110   23.9491   45.0934 H   0  0  0  0  0  0  0  0  0  0  0  0
  1  2  1  0
  2  3  1  0
  3  4  2  0
  4  5  1  0
  5  6  2  0
  6  7  1  0
  7  8  1  0
  8  9  2  0
  9 10  1  0
 10 11  1  0
 11 12  1  0
 12 13  1  0
 13 14  1  0
 14 15  1  0
 15 16  1  0
 16 17  1  0
 17 18  1  0
 18 19  1  0
 19 20  1  0
 20 21  2  0
 21 22  1  0
 22 23  2  0
 23 24  1  0
 24 25  2  0
 15 26  1  0
 26 27  1  0
 11 28  2  0
 28 29  1  0
 29 30  2  0
 30 31  1  0
 31 32  2  0
 32 33  1  0
 33 34  2  0
 33 35  1  0
 32 36  1  0
 36 37  2  0
  6 38  1  0
 38 39  2  0
 39 40  1  0
 40 41  1  0
 39  3  1  0
 37  9  1  0
 27 12  1  0
 37 29  1  0
 25 20  1  0
  1 42  1  0
  1 43  1  0
  1 44  1  0
  4 45  1  0
  5 46  1  0
  7 47  1  0
  7 48  1  0
 10 49  1  0
 13 50  1  0
 13 51  1  0
 14 52  1  0
 14 53  1  0
 15 54  1  0
 16 55  1  0
 17 56  1  0
 17 57  1  0
 18 58  1  0
 18 59  1  0
 22 60  1  0
 23 61  1  0
 24 62  1  0
 26 63  1  0
 26 64  1  0
 27 65  1  0
 27 66  1  0
 30 67  1  0
 31 68  1  0
 36 69  1  0
 38 70  1  0
 41 71  1  0
 41 72  1  0
 41 73  1  0
M  CHG  2  33   1  35  -1
M  END
>  <smiles>  (1) 
COc1ccc(CN=c2[nH]c(N3CCC(NCCSc4ncccn4)CC3)nc3ccc([N+](=O)[O-])cc23)cc1OC

>  <score_type>  (1) 
oracle

>  <origin>  (1) 
adg

>  <m_score__min__energy>  (1) 
-10.109999999999999

>  <m_primary>  (1) 
energy

$$$$
1:0
     RDKit          3D

 30 32  0  0  0  0  0  0  0  0999 V2000
   58.2397   33.5923   48.0286 H   0  0  0  0  0  0  0  0  0  0  0  0
   58.8610   33.3760   47.1470 C   0  0  0  0  0  0  0  0  0  0  0  0
   59.8890   34.2180   46.9050 C   0  0  0  0  0  0  0  0  0  0  0  0
   59.7570   35.3440   46.0080 C   0  0  0  0  0  0  0  0  0  0  0  0
   59.6420   36.2410   45.2860 N   0  0  0  0  0  0  0  0  0  0  0  0
   61.2220   33.9640   47.5130 C   0  0  0  0  0  0  0  0  0  0  0  0
   62.3040   33.5220   46.7260 C   0  0  0  0  0  0  0  0  0  0  0  0
   62.1660   33.3677   45.6457 H   0  0  0  0  0  0  0  0  0  0  0  0
   63.5520   33.2780   47.3080 C   0  0  0  0  0  0  0  0  0  0  0  0
   64.3913   32.9372   46.6840 H   0  0  0  0  0  0  0  0  0  0  0  0
   63.7350   33.4660   48.6790 C   0  0  0  0  0  0  0  0  0  0  0  0
   64.9460   33.2280   49.2400 F   0  0  0  0  0  0  0  0  0  0  0  0
   62.6700   33.8970   49.4730 C   0  0  0  0  0  0  0  0  0  0  0  0
   62.8146   34.0439   50.5535 H   0  0  0  0  0  0  0  0  0  0  0  0
   61.4200   34.1420   48.8960 C   0  0  0  0  0  0  0  0  0  0  0  0
   60.5840   34.4767   49.5278 H   0  0  0  0  0  0  0  0  0  0  0  0
   58.4880   32.1900   46.3420 C   0  0  0  0  0  0  0  0  0  0  0  0
   59.0910   30.6080   46.4770 S   0  0  0  0  0  0  0  0  0  0  0  0
   58.2300   29.9980   45.1750 C   0  0  0  0  0  0  0  0  0  0  0  0
   58.2250   28.6990   44.6730 C   0  0  0  0  0  0  0  0  0  0  0  0
   58.8343   27.9103   45.1384 H   0  0  0  0  0  0  0  0  0  0  0  0
   57.4200   28.4250   43.5560 C   0  0  0  0  0  0  0  0  0  0  0  0
   57.3935   27.4083   43.1369 H   0  0  0  0  0  0  0  0  0  0  0  0
   56.6460   29.4450   42.9690 C   0  0  0  0  0  0  0  0  0  0  0  0
   56.0186   29.2198   42.0940 H   0  0  0  0  0  0  0  0  0  0  0  0
   56.6700   30.7490   43.4940 C   0  0  0  0  0  0  0  0  0  0  0  0
   56.0681   31.5484   43.0372 H   0  0  0  0  0  0  0  0  0  0  0  0
   57.4730   31.0100   44.6070 C   0  0  0  0  0  0  0  0  0  0  0  0
   57.6180   32.2450   45.2500 C   0  0  0  0  0  0  0  0  0  0  0  0
   57.1016   33.1618   44.9295 H   0  0  0  0  0  0  0  0  0  0  0  0
  1  2  1  0
  2  3  2  0
  3  4  1  0
  4  5  3  0
  3  6  1  0
  6  7  2  0
  7  8  1  0
  7  9  1  0
  9 10  1  0
  9 11  2  0
 11 12  1  0
 11 13  1  0
 13 14  1  0
 13 15  2  0
 15 16  1  0
  2 17  1  0
 17 18  1  0
 18 19  1  0
 19 20  2  0
 20 21  1  0
 20 22  1  0
 22 23  1  0
 22 24  2  0
 24 25  1  0
 24 26  1  0
 26 27  1  0
 26 28  2  0
 28 29  1  0
 29 30  1  0
 15  6  1  0
 29 17  2  0
 28 19  1  0
M  END
>  <UniqueID>  (2) 
1

>  <SMILES>  (2) 
N#C/C(=C\c1cc2ccccc2s1)c1ccc(F)cc1

>  <Energy>  (2) 
71.6343735474043

>  <Genealogy>  (2) 
N#C/C(=C\c1cc2ccccc2s1)c1ccc(F)cc1 (cis-trans isomerization)
N#C/C(=C\c1cc2ccccc2s1)c1ccc(F)cc1 (3D coordinates assigned)
N#C/C(=C\c1cc2ccccc2s1)c1ccc(F)cc1 (optimized conformer: 71.6343735474043 kcal/mol)

>  <smiles>  (2) 
N#CC(=Cc1cc2ccccc2s1)c1ccc(F)cc1

>  <score_type>  (2) 
oracle

>  <origin>  (2) 
adg

>  <m_score__min__energy>  (2) 
-7.46

>  <m_primary>  (2) 
energy

$$$$
2:0
     RDKit          3D

 42 44  0  0  0  0  0  0  0  0999 V2000
   58.8660   30.6600   47.5060 C   0  0  0  0  0  0  0  0  0  0  0  0
   58.6090   31.3680   46.2500 N   0  0  0  0  0  0  0  0  0  0  0  0
   58.9560   32.7650   46.1130 C   0  0  0  0  0  0  0  0  0  0  0  0
   58.4590   33.5260   45.0350 C   0  0  0  0  0  0  0  0  0  0  0  0
   58.8050   34.8740   44.8970 C   0  0  0  0  0  0  0  0  0  0  0  0
   59.6510   35.4800   45.8280 C   0  0  0  0  0  0  0  0  0  0  0  0
   60.1540   34.7390   46.8980 C   0  0  0  0  0  0  0  0  0  0  0  0
   59.8120   33.3900   47.0410 C   0  0  0  0  0  0  0  0  0  0  0  0
   57.8810   30.4960   44.9270 S   0  0  0  0  0  0  0  0  0  0  0  0
   58.5480   30.8710   43.6340 O   0  0  0  0  0  0  0  0  0  0  0  0
   56.4270   30.8700   44.8400 O   0  0  0  0  0  0  0  0  0  0  0  0
   58.0460   28.7600   45.1850 C   0  0  0  0  0  0  0  0  0  0  0  0
   59.2990   28.1520   45.1040 C   0  0  0  0  0  0  0  0  0  0  0  0
   59.4300   26.7750   45.2900 C   0  0  0  0  0  0  0  0  0  0  0  0
   58.2990   25.9670   45.5660 C   0  0  0  0  0  0  0  0  0  0  0  0
   57.0350   26.5920   45.6570 C   0  0  0  0  0  0  0  0  0  0  0  0
   56.9200   27.9850   45.4670 C   0  0  0  0  0  0  0  0  0  0  0  0
   55.9110   25.8040   45.9330 C   0  0  0  0  0  0  0  0  0  0  0  0
   54.7690   26.3430   45.9990 O   0  0  0  0  0  0  0  0  0  0  0  0
   56.0450   24.4570   46.1280 N   0  0  0  0  0  0  0  0  0  0  0  0
   54.8540   23.6290   46.3950 C   0  0  0  0  0  0  0  0  0  0  0  0
   57.2730   23.8590   46.0030 C   0  0  0  0  0  0  0  0  0  0  0  0
   57.3650   22.6040   46.1320 O   0  0  0  0  0  0  0  0  0  0  0  0
   58.4010   24.6020   45.7360 N   0  0  0  0  0  0  0  0  0  0  0  0
   59.7130   23.9320   45.6270 C   0  0  0  0  0  0  0  0  0  0  0  0
   58.6269   31.3188   48.3538 H   0  0  0  0  0  0  0  0  0  0  0  0
   58.2378   29.7583   47.5538 H   0  0  0  0  0  0  0  0  0  0  0  0
   59.9263   30.3712   47.5538 H   0  0  0  0  0  0  0  0  0  0  0  0
   57.7935   33.0554   44.2963 H   0  0  0  0  0  0  0  0  0  0  0  0
   58.4097   35.4583   44.0530 H   0  0  0  0  0  0  0  0  0  0  0  0
   59.9207   36.5407   45.7180 H   0  0  0  0  0  0  0  0  0  0  0  0
   60.8210   35.2166   47.6308 H   0  0  0  0  0  0  0  0  0  0  0  0
   60.2151   32.8121   47.8857 H   0  0  0  0  0  0  0  0  0  0  0  0
   60.1896   28.7619   44.8921 H   0  0  0  0  0  0  0  0  0  0  0  0
   60.4248   26.3105   45.2214 H   0  0  0  0  0  0  0  0  0  0  0  0
   55.9332   28.4652   45.5418 H   0  0  0  0  0  0  0  0  0  0  0  0
   54.7121   23.5303   47.4813 H   0  0  0  0  0  0  0  0  0  0  0  0
   53.9682   24.1070   45.9514 H   0  0  0  0  0  0  0  0  0  0  0  0
   54.9935   22.6321   45.9514 H   0  0  0  0  0  0  0  0  0  0  0  0
   60.1068   23.7309   46.6342 H   0  0  0  0  0  0  0  0  0  0  0  0
   59.5961   22.9832   45.0828 H   0  0  0  0  0  0  0  0  0  0  0  0
   60.4131   24.5830   45.0828 H   0  0  0  0  0  0  0  0  0  0  0  0
  1  2  1  0
  2  3  1  0
  3  4  2  0
  4  5  1  0
  5  6  2  0
  6  7  1  0
  7  8  2  0
  2  9  1  0
  9 10  2  0
  9 11  2  0
  9 12  1  0
 12 13  2  0
 13 14  1  0
 14 15  2  0
 15 16  1  0
 16 17  2  0
 16 18  1  0
 18 19  2  0
 18 20  1  0
 20 21  1  0
 20 22  1  0
 22 23  2  0
 22 24  1  0
 24 25  1  0
  8  3  1  0
 17 12  1  0
 24 15  1  0
  1 26  1  0
  1 27  1  0
  1 28  1  0
  4 29  1  0
  5 30  1  0
  6 31  1  0
  7 32  1  0
  8 33  1  0
 13 34  1  0
 14 35  1  0
 17 36  1  0
 21 37  1  0
 21 38  1  0
 21 39  1  0
 25 40  1  0
 25 41  1  0
 25 42  1  0
M  END
>  <UniqueID>  (3) 
2

>  <SMILES>  (3) 
CN(c1ccccc1)S(=O)(=O)c1ccc2c(c1)c(=O)n(C)c(=O)n2C

>  <Energy>  (3) 
63.333860849404836

>  <Genealogy>  (3) 
CN(c1ccccc1)S(=O)(=O)c1ccc2c(c1)c(=O)n(C)c(=O)n2C (3D coordinates assigned)
CN(c1ccccc1)S(=O)(=O)c1ccc2c(c1)c(=O)n(C)c(=O)n2C (optimized conformer: 63.333860849404836 kcal/mol)

>  <smiles>  (3) 
CN(c1ccccc1)S(=O)(=O)c1ccc2c(c1)c(=O)n(C)c(=O)n2C

>  <score_type>  (3) 
oracle

>  <origin>  (3) 
adg

>  <m_score__min__energy>  (3) 
-8.3300000000000001

>  <m_primary>  (3) 
energy

$$$$
3:0
     RDKit          3D

 55 57  0  0  0  0  0  0  0  0999 V2000
   63.4180   31.5830   50.1050 C   0  0  0  0  0  0  0  0  0  0  0  0
   64.3280   32.8080   49.8970 C   0  0  0  0  0  0  0  0  0  0  0  0
   64.0990   33.8310   51.0250 C   0  0  0  0  0  0  0  0  0  0  0  0
   65.7950   32.3550   49.9180 C   0  0  0  0  0  0  0  0  0  0  0  0
   64.0770   33.4070   48.6180 O   0  0  0  0  0  0  0  0  0  0  0  0
   62.8090   33.7920   48.1700 C   0  0  0  0  0  0  0  0  0  0  0  0
   61.8290   34.1890   49.0880 C   0  0  0  0  0  0  0  0  0  0  0  0
   60.5630   34.5770   48.6410 C   0  0  0  0  0  0  0  0  0  0  0  0
   60.2700   34.5900   47.2670 C   0  0  0  0  0  0  0  0  0  0  0  0
   58.8950   34.9620   46.7850 C   0  0  0  0  0  0  0  0  0  0  0  0
   58.2020   33.7540   46.2340 C   0  0  0  0  0  0  0  0  0  0  0  0
   57.0390   33.4740   46.6280 O   0  0  0  0  0  0  0  0  0  0  0  0
   58.8320   32.9680   45.2130 N   0  0  0  0  0  0  0  0  0  0  0  0
   58.2460   31.7680   44.6930 C   0  0  0  0  0  0  0  0  0  0  0  0
   57.5630   31.8240   43.4690 C   0  0  0  0  0  0  0  0  0  0  0  0
   56.9430   30.6840   42.9510 C   0  0  0  0  0  0  0  0  0  0  0  0
   57.0100   29.4750   43.6450 C   0  0  0  0  0  0  0  0  0  0  0  0
   57.7100   29.3990   44.8520 C   0  0  0  0  0  0  0  0  0  0  0  0
   58.3410   30.5360   45.3830 C   0  0  0  0  0  0  0  0  0  0  0  0
   59.1400   30.4040   46.5740 N   0  0  0  0  0  0  0  0  0  0  0  0
   58.6810   31.0060   47.8310 C   0  0  0  0  0  0  0  0  0  0  0  0
   59.8640   31.2080   48.7780 C   0  0  0  0  0  0  0  0  0  0  0  0
   60.9740   31.6770   48.0420 O   0  0  0  0  0  0  0  0  0  0  0  0
   61.5210   30.6340   47.2490 C   0  0  0  0  0  0  0  0  0  0  0  0
   60.4640   29.7740   46.5160 C   0  0  0  0  0  0  0  0  0  0  0  0
   61.2580   34.1990   46.3490 C   0  0  0  0  0  0  0  0  0  0  0  0
   62.5240   33.8120   46.7990 C   0  0  0  0  0  0  0  0  0  0  0  0
   63.2849   31.4038   51.1821 H   0  0  0  0  0  0  0  0  0  0  0  0
   62.4386   31.7707   49.6407 H   0  0  0  0  0  0  0  0  0  0  0  0
   63.8806   30.6996   49.6407 H   0  0  0  0  0  0  0  0  0  0  0  0
   64.2104   33.3333   51.9996 H   0  0  0  0  0  0  0  0  0  0  0  0
   64.8379   34.6414   50.9406 H   0  0  0  0  0  0  0  0  0  0  0  0
   63.0850   34.2491   50.9406 H   0  0  0  0  0  0  0  0  0  0  0  0
   66.1318   32.2510   50.9600 H   0  0  0  0  0  0  0  0  0  0  0  0
   65.8871   31.3866   49.4045 H   0  0  0  0  0  0  0  0  0  0  0  0
   66.4171   33.1029   49.4045 H   0  0  0  0  0  0  0  0  0  0  0  0
   62.0563   34.1955   50.1642 H   0  0  0  0  0  0  0  0  0  0  0  0
   59.7926   34.8735   49.3681 H   0  0  0  0  0  0  0  0  0  0  0  0
   58.3110   35.3655   47.6253 H   0  0  0  0  0  0  0  0  0  0  0  0
   58.9825   35.7209   45.9935 H   0  0  0  0  0  0  0  0  0  0  0  0
   59.6570   33.3710   44.7130 H   0  0  0  0  0  0  0  0  0  0  0  0
   57.5152   32.7720   42.9131 H   0  0  0  0  0  0  0  0  0  0  0  0
   56.4015   30.7395   41.9951 H   0  0  0  0  0  0  0  0  0  0  0  0
   56.5114   28.5813   43.2416 H   0  0  0  0  0  0  0  0  0  0  0  0
   57.7673   28.4415   45.3904 H   0  0  0  0  0  0  0  0  0  0  0  0
   58.2138   31.9791   47.6193 H   0  0  0  0  0  0  0  0  0  0  0  0
   57.9494   30.3357   48.3058 H   0  0  0  0  0  0  0  0  0  0  0  0
   59.5960   31.9452   49.5492 H   0  0  0  0  0  0  0  0  0  0  0  0
   60.1179   30.2527   49.2606 H   0  0  0  0  0  0  0  0  0  0  0  0
   62.1825   31.0848   46.4945 H   0  0  0  0  0  0  0  0  0  0  0  0
   62.0549   29.9611   47.9361 H   0  0  0  0  0  0  0  0  0  0  0  0
   60.7615   29.6587   45.4633 H   0  0  0  0  0  0  0  0  0  0  0  0
   60.4068   28.7931   47.0105 H   0  0  0  0  0  0  0  0  0  0  0  0
   61.0352   34.1972   45.2718 H   0  0  0  0  0  0  0  0  0  0  0  0
   63.2987   33.5223   46.0738 H   0  0  0  0  0  0  0  0  0  0  0  0
  1  2  1  0
  2  3  1  0
  2  4  1  0
  2  5  1  0
  5  6  1  0
  6  7  2  0
  7  8  1  0
  8  9  2  0
  9 10  1  0
 10 11  1  0
 11 12  2  0
 11 13  1  0
 13 14  1  0
 14 15  2  0
 15 16  1  0
 16 17  2  0
 17 18  1  0
 18 19  2  0
 19 20  1  0
 20 21  1  0
 21 22  1  0
 22 23  1  0
 23 24  1  0
 24 25  1  0
  9 26  1  0
 26 27  2  0
 27  6  1  0
 19 14  1  0
 25 20  1  0
  1 28  1  0
  1 29  1  0
  1 30  1  0
  3 31  1  0
  3 32  1  0
  3 33  1  0
  4 34  1  0
  4 35  1  0
  4 36  1  0
  7 37  1  0
  8 38  1  0
 10 39  1  0
 10 40  1  0
 13 41  1  0
 15 42  1  0
 16 43  1  0
 17 44  1  0
 18 45  1  0
 21 46  1  0
 21 47  1  0
 22 48  1  0
 22 49  1  0
 24 50  1  0
 24 51  1  0
 25 52  1  0
 25 53  1  0
 26 54  1  0
 27 55  1  0
M  END
>  <UniqueID>  (4) 
3

>  <SMILES>  (4) 
CC(C)(C)Oc1ccc(CC(=O)Nc2ccccc2N2CCOCC2)cc1

>  <Energy>  (4) 
71.67790878988296

>  <Genealogy>  (4) 
CC(C)(C)Oc1ccc(CC(=O)Nc2ccccc2N2CCOCC2)cc1 (3D coordinates assigned)
CC(C)(C)Oc1ccc(CC(=O)Nc2ccccc2N2CCOCC2)cc1 (nonaromatic ring conformer: 71.67790878988296 kcal/mol)

>  <smiles>  (4) 
CC(C)(C)Oc1ccc(CC(=O)Nc2ccccc2N2CCOCC2)cc1

>  <score_type>  (4) 
oracle

>  <origin>  (4) 
adg

>  <m_score__min__energy>  (4) 
-7.71

>  <m_primary>  (4) 
energy

$$$$
4:0
     RDKit          3D

 51 53  0  0  0  0  0  0  0  0999 V2000
   59.2950   34.7800   45.0560 C   0  0  0  0  0  0  0  0  0  0  0  0
   58.5390   33.5150   44.7760 C   0  0  0  0  0  0  0  0  0  0  0  0
   58.0800   32.7170   45.8360 C   0  0  0  0  0  0  0  0  0  0  0  0
   57.4060   31.5200   45.5760 C   0  0  0  0  0  0  0  0  0  0  0  0
   57.1970   31.1000   44.2550 C   0  0  0  0  0  0  0  0  0  0  0  0
   56.3290   29.6060   43.9120 S   0  0  0  0  0  0  0  0  0  0  0  0
   54.8740   29.9220   43.7160 O   0  0  0  0  0  0  0  0  0  0  0  0
   56.8550   28.9730   42.6520 O   0  0  0  0  0  0  0  0  0  0  0  0
   56.5000   28.4990   45.2390 N   0  0  0  0  0  0  0  0  0  0  0  0
   57.8180   27.8690   45.1930 C   0  0  0  0  0  0  0  0  0  0  0  0
   58.7310   28.5710   46.1550 C   0  0  0  0  0  0  0  0  0  0  0  0
   59.8480   29.2770   45.6850 C   0  0  0  0  0  0  0  0  0  0  0  0
   60.7180   29.9010   46.5830 C   0  0  0  0  0  0  0  0  0  0  0  0
   60.4870   29.8270   47.9670 C   0  0  0  0  0  0  0  0  0  0  0  0
   61.4140   30.4750   48.9250 C   0  0  0  0  0  0  0  0  0  0  0  0
   61.8910   29.7960   49.8760 O   0  0  0  0  0  0  0  0  0  0  0  0
   61.8010   31.8540   48.7810 N   0  0  0  0  0  0  0  0  0  0  0  0
   60.7940   32.8970   48.5650 C   0  0  0  0  0  0  0  0  0  0  0  0
   61.2920   33.9350   47.5400 C   0  0  0  0  0  0  0  0  0  0  0  0
   62.7640   34.1380   47.5440 N   0  0  0  0  0  0  0  0  0  0  0  0
   63.4110   33.5100   46.3790 C   0  0  0  0  0  0  0  0  0  0  0  0
   63.4070   33.7360   48.8130 C   0  0  0  0  0  0  0  0  0  0  0  0
   63.1680   32.2510   49.1300 C   0  0  0  0  0  0  0  0  0  0  0  0
   59.3840   29.0920   48.4360 C   0  0  0  0  0  0  0  0  0  0  0  0
   58.5150   28.4680   47.5370 C   0  0  0  0  0  0  0  0  0  0  0  0
   57.6650   31.8890   43.1970 C   0  0  0  0  0  0  0  0  0  0  0  0
   58.3390   33.0870   43.4550 C   0  0  0  0  0  0  0  0  0  0  0  0
   59.3805   34.9230   46.1433 H   0  0  0  0  0  0  0  0  0  0  0  0
   60.3004   34.7116   44.6150 H   0  0  0  0  0  0  0  0  0  0  0  0
   58.7585   35.6330   44.6150 H   0  0  0  0  0  0  0  0  0  0  0  0
   58.2513   33.0348   46.8751 H   0  0  0  0  0  0  0  0  0  0  0  0
   57.0384   30.9056   46.4111 H   0  0  0  0  0  0  0  0  0  0  0  0
   57.7299   26.8094   45.4750 H   0  0  0  0  0  0  0  0  0  0  0  0
   58.2274   27.9396   44.1745 H   0  0  0  0  0  0  0  0  0  0  0  0
   60.0402   29.3399   44.6038 H   0  0  0  0  0  0  0  0  0  0  0  0
   61.5899   30.4541   46.2037 H   0  0  0  0  0  0  0  0  0  0  0  0
   59.8699   32.4337   48.1891 H   0  0  0  0  0  0  0  0  0  0  0  0
   60.6050   33.4079   49.5207 H   0  0  0  0  0  0  0  0  0  0  0  0
   60.9929   33.5993   46.5361 H   0  0  0  0  0  0  0  0  0  0  0  0
   60.8396   34.8977   47.8201 H   0  0  0  0  0  0  0  0  0  0  0  0
   64.1605   32.7825   46.7238 H   0  0  0  0  0  0  0  0  0  0  0  0
   62.6522   32.9948   45.7717 H   0  0  0  0  0  0  0  0  0  0  0  0
   63.9033   34.2838   45.7717 H   0  0  0  0  0  0  0  0  0  0  0  0
   64.4898   33.9134   48.7351 H   0  0  0  0  0  0  0  0  0  0  0  0
   62.9652   34.3336   49.6239 H   0  0  0  0  0  0  0  0  0  0  0  0
   63.8784   31.6409   48.5529 H   0  0  0  0  0  0  0  0  0  0  0  0
   63.3143   32.0945   50.2089 H   0  0  0  0  0  0  0  0  0  0  0  0
   59.2039   29.0076   49.5179 H   0  0  0  0  0  0  0  0  0  0  0  0
   57.6569   27.8929   47.9152 H   0  0  0  0  0  0  0  0  0  0  0  0
   57.5018   31.5651   42.1585 H   0  0  0  0  0  0  0  0  0  0  0  0
   58.7137   33.6959   42.6190 H   0  0  0  0  0  0  0  0  0  0  0  0
  1  2  1  0
  2  3  2  0
  3  4  1  0
  4  5  2  0
  5  6  1  0
  6  7  2  0
  6  8  2  0
  6  9  1  0
  9 10  1  0
 10 11  1  0
 11 12  2  0
 12 13  1  0
 13 14  2  0
 14 15  1  0
 15 16  2  0
 15 17  1  0
 17 18  1  0
 18 19  1  0
 19 20  1  0
 20 21  1  0
 20 22  1  0
 22 23  1  0
 14 24  1  0
 24 25  2  0
  5 26  1  0
 26 27  2  0
 27  2  1  0
 25 11  1  0
 23 17  1  0
  1 28  1  0
  1 29  1  0
  1 30  1  0
  3 31  1  0
  4 32  1  0
 10 33  1  0
 10 34  1  0
 12 35  1  0
 13 36  1  0
 18 37  1  0
 18 38  1  0
 19 39  1  0
 19 40  1  0
 21 41  1  0
 21 42  1  0
 21 43  1  0
 22 44  1  0
 22 45  1  0
 23 46  1  0
 23 47  1  0
 24 48  1  0
 25 49  1  0
 26 50  1  0
 27 51  1  0
M  CHG  1   9  -1
M  END
>  <UniqueID>  (5) 
4

>  <SMILES>  (5) 
Cc1ccc(S(=O)(=O)[N-]Cc2ccc(C(=O)N3CCN(C)CC3)cc2)cc1

>  <Energy>  (5) 
60.41751551647882

>  <Genealogy>  (5) 
Cc1ccc(S(=O)(=O)[N-]Cc2ccc(C(=O)N3CCN(C)CC3)cc2)cc1 (protonated)
Cc1ccc(S(=O)(=O)[N-]Cc2ccc(C(=O)N3CCN(C)CC3)cc2)cc1 (3D coordinates assigned)
Cc1ccc(S(=O)(=O)[N-]Cc2ccc(C(=O)N3CCN(C)CC3)cc2)cc1 (nonaromatic ring conformer: 60.41751551647882 kcal/mol)

>  <smiles>  (5) 
Cc1ccc(S(=O)(=O)NCc2ccc(C(=O)N3CCN(C)CC3)cc2)cc1

>  <score_type>  (5) 
oracle

>  <origin>  (5) 
adg

>  <m_score__min__energy>  (5) 
-10.289999999999999

>  <m_primary>  (5) 
energy

$$$$
5:0
     RDKit          3D

 40 42  0  0  0  0  0  0  0  0999 V2000
   57.5840   27.3610   44.7470 O   0  0  0  0  0  0  0  0  0  0  0  0
   56.4770   27.6840   45.2570 C   0  0  0  0  0  0  0  0  0  0  0  0
   55.7350   26.7330   46.0290 N   0  0  0  0  0  0  0  0  0  0  0  0
   55.9510   25.3140   46.0270 C   0  0  0  0  0  0  0  0  0  0  0  0
   55.0850   24.5110   45.2750 C   0  0  0  0  0  0  0  0  0  0  0  0
   55.2610   23.1270   45.2290 C   0  0  0  0  0  0  0  0  0  0  0  0
   56.3250   22.5360   45.9100 C   0  0  0  0  0  0  0  0  0  0  0  0
   57.2170   23.3280   46.6360 C   0  0  0  0  0  0  0  0  0  0  0  0
   57.0360   24.7210   46.7120 C   0  0  0  0  0  0  0  0  0  0  0  0
   58.0040   25.5520   47.3740 N   0  0  0  0  0  0  0  0  0  0  0  0
   59.2510   26.0100   46.8340 C   0  0  0  0  0  0  0  0  0  0  0  0
   60.0380   25.1610   46.3380 O   0  0  0  0  0  0  0  0  0  0  0  0
   59.6150   27.4480   46.7920 C   0  0  0  0  0  0  0  0  0  0  0  0
   59.2320   28.3230   47.8250 C   0  0  0  0  0  0  0  0  0  0  0  0
   59.5770   29.6760   47.7700 C   0  0  0  0  0  0  0  0  0  0  0  0
   60.2980   30.1720   46.6810 C   0  0  0  0  0  0  0  0  0  0  0  0
   60.6310   31.4860   46.6300 F   0  0  0  0  0  0  0  0  0  0  0  0
   60.6690   29.3160   45.6420 C   0  0  0  0  0  0  0  0  0  0  0  0
   60.3270   27.9610   45.6940 C   0  0  0  0  0  0  0  0  0  0  0  0
   55.9490   29.0050   45.0790 N   0  0  0  0  0  0  0  0  0  0  0  0
   56.6740   30.0880   44.4700 C   0  0  0  0  0  0  0  0  0  0  0  0
   57.3960   31.0110   45.2500 C   0  0  0  0  0  0  0  0  0  0  0  0
   58.0760   32.0700   44.6410 C   0  0  0  0  0  0  0  0  0  0  0  0
   58.0320   32.2260   43.2530 C   0  0  0  0  0  0  0  0  0  0  0  0
   57.3010   31.3280   42.4730 C   0  0  0  0  0  0  0  0  0  0  0  0
   56.6180   30.2660   43.0760 C   0  0  0  0  0  0  0  0  0  0  0  0
   55.9160   29.4020   42.3020 F   0  0  0  0  0  0  0  0  0  0  0  0
   54.2590   24.9746   44.7157 H   0  0  0  0  0  0  0  0  0  0  0  0
   54.5603   22.5024   44.6555 H   0  0  0  0  0  0  0  0  0  0  0  0
   56.4617   21.4451   45.8752 H   0  0  0  0  0  0  0  0  0  0  0  0
   58.0676   22.8591   47.1524 H   0  0  0  0  0  0  0  0  0  0  0  0
   58.6575   27.9397   48.6812 H   0  0  0  0  0  0  0  0  0  0  0  0
   59.2803   30.3518   48.5857 H   0  0  0  0  0  0  0  0  0  0  0  0
   61.2310   29.7080   44.7815 H   0  0  0  0  0  0  0  0  0  0  0  0
   60.6171   27.2923   44.8702 H   0  0  0  0  0  0  0  0  0  0  0  0
   54.9450   29.1570   45.3250 H   0  0  0  0  0  0  0  0  0  0  0  0
   57.4253   30.8985   46.3438 H   0  0  0  0  0  0  0  0  0  0  0  0
   58.6467   32.7817   45.2556 H   0  0  0  0  0  0  0  0  0  0  0  0
   58.5731   33.0560   42.7752 H   0  0  0  0  0  0  0  0  0  0  0  0
   57.2619   31.4557   41.3811 H   0  0  0  0  0  0  0  0  0  0  0  0
  1  2  2  0
  2  3  1  0
  3  4  1  0
  4  5  2  0
  5  6  1  0
  6  7  2  0
  7  8  1  0
  8  9  2  0
  9 10  1  0
 10 11  1  0
 11 12  2  0
 11 13  1  0
 13 14  2  0
 14 15  1  0
 15 16  2  0
 16 17  1  0
 16 18  1  0
 18 19  2  0
  2 20  1  0
 20 21  1  0
 21 22  2  0
 22 23  1  0
 23 24  2  0
 24 25  1  0
 25 26  2  0
 26 27  1  0
  9  4  1  0
 19 13  1  0
 26 21  1  0
  5 28  1  0
  6 29  1  0
  7 30  1  0
  8 31  1  0
 14 32  1  0
 15 33  1  0
 18 34  1  0
 19 35  1  0
 20 36  1  0
 22 37  1  0
 23 38  1  0
 24 39  1  0
 25 40  1  0
M  CHG  2   3  -1  10  -1
M  END
>  <UniqueID>  (6) 
5

>  <SMILES>  (6) 
O=C([N-]c1ccccc1[N-]C(=O)c1ccc(F)cc1)Nc1ccccc1F

>  <Energy>  (6) 
59.009738999523215

>  <Genealogy>  (6) 
O=C([N-]c1ccccc1[N-]C(=O)c1ccc(F)cc1)Nc1ccccc1F (protonated)
O=C([N-]c1ccccc1[N-]C(=O)c1ccc(F)cc1)Nc1ccccc1F (3D coordinates assigned)
O=C([N-]c1ccccc1[N-]C(=O)c1ccc(F)cc1)Nc1ccccc1F (optimized conformer: 59.009738999523215 kcal/mol)

>  <smiles>  (6) 
O=C(Nc1ccccc1F)Nc1ccccc1NC(=O)c1ccc(F)cc1

>  <score_type>  (6) 
oracle

>  <origin>  (6) 
adg

>  <m_score__min__energy>  (6) 
-11.73

>  <m_primary>  (6) 
energy

$$$$
6:0
     RDKit          3D

 37 39  0  0  0  0  0  0  0  0999 V2000
   55.0530   29.3240   44.0510 O   0  0  0  0  0  0  0  0  0  0  0  0
   55.9100   29.0700   44.9420 C   0  0  0  0  0  0  0  0  0  0  0  0
   56.9300   30.0220   45.2540 N   0  0  0  0  0  0  0  0  0  0  0  0
   57.4380   31.0000   44.2990 C   0  0  0  0  0  0  0  0  0  0  0  0
   57.7460   32.2890   44.9920 C   0  0  0  0  0  0  0  0  0  0  0  0
   58.4360   33.3550   44.4510 C   0  0  0  0  0  0  0  0  0  0  0  0
   58.4950   34.3020   45.4510 C   0  0  0  0  0  0  0  0  0  0  0  0
   57.8430   33.7540   46.5370 C   0  0  0  0  0  0  0  0  0  0  0  0
   57.4080   32.5530   46.2330 O   0  0  0  0  0  0  0  0  0  0  0  0
   55.9000   27.8110   45.6210 N   0  0  0  0  0  0  0  0  0  0  0  0
   57.0380   26.9560   45.8020 C   0  0  0  0  0  0  0  0  0  0  0  0
   57.1530   25.8190   44.9920 C   0  0  0  0  0  0  0  0  0  0  0  0
   58.2440   24.9590   45.1300 C   0  0  0  0  0  0  0  0  0  0  0  0
   59.2360   25.2330   46.0720 C   0  0  0  0  0  0  0  0  0  0  0  0
   59.1510   26.3820   46.8620 C   0  0  0  0  0  0  0  0  0  0  0  0
   58.0700   27.2720   46.7130 C   0  0  0  0  0  0  0  0  0  0  0  0
   57.9960   28.4530   47.4660 O   0  0  0  0  0  0  0  0  0  0  0  0
   58.9360   29.4930   47.4520 C   0  0  0  0  0  0  0  0  0  0  0  0
   59.9540   29.4650   46.4910 C   0  0  0  0  0  0  0  0  0  0  0  0
   60.9210   30.4750   46.4530 C   0  0  0  0  0  0  0  0  0  0  0  0
   60.8840   31.5140   47.3880 C   0  0  0  0  0  0  0  0  0  0  0  0
   62.0990   32.7790   47.3420 Cl  0  0  0  0  0  0  0  0  0  0  0  0
   59.8830   31.5390   48.3640 C   0  0  0  0  0  0  0  0  0  0  0  0
   58.9150   30.5310   48.4020 C   0  0  0  0  0  0  0  0  0  0  0  0
   58.3550   30.6101   43.8331 H   0  0  0  0  0  0  0  0  0  0  0  0
   56.6727   31.1807   43.5298 H   0  0  0  0  0  0  0  0  0  0  0  0
   58.8515   33.4326   43.4354 H   0  0  0  0  0  0  0  0  0  0  0  0
   58.9666   35.2942   45.3948 H   0  0  0  0  0  0  0  0  0  0  0  0
   57.7081   34.2487   47.5102 H   0  0  0  0  0  0  0  0  0  0  0  0
   56.3782   25.6022   44.2419 H   0  0  0  0  0  0  0  0  0  0  0  0
   58.3216   24.0641   44.4951 H   0  0  0  0  0  0  0  0  0  0  0  0
   60.0851   24.5442   46.1927 H   0  0  0  0  0  0  0  0  0  0  0  0
   59.9338   26.5929   47.6055 H   0  0  0  0  0  0  0  0  0  0  0  0
   59.9936   28.6431   45.7609 H   0  0  0  0  0  0  0  0  0  0  0  0
   61.7106   30.4519   45.6875 H   0  0  0  0  0  0  0  0  0  0  0  0
   59.8571   32.3532   49.1032 H   0  0  0  0  0  0  0  0  0  0  0  0
   58.1345   30.5493   49.1769 H   0  0  0  0  0  0  0  0  0  0  0  0
  1  2  2  0
  2  3  1  0
  3  4  1  0
  4  5  1  0
  5  6  2  0
  6  7  1  0
  7  8  2  0
  8  9  1  0
  2 10  1  0
 10 11  1  0
 11 12  2  0
 12 13  1  0
 13 14  2  0
 14 15  1  0
 15 16  2  0
 16 17  1  0
 17 18  1  0
 18 19  2  0
 19 20  1  0
 20 21  2  0
 21 22  1  0
 21 23  1  0
 23 24  2  0
  9  5  1  0
 16 11  1  0
 24 18  1  0
  4 25  1  0
  4 26  1  0
  6 27  1  0
  7 28  1  0
  8 29  1  0
 12 30  1  0
 13 31  1  0
 14 32  1  0
 15 33  1  0
 19 34  1  0
 20 35  1  0
 23 36  1  0
 24 37  1  0
M  CHG  2   3  -1  10  -1
M  END
>  <UniqueID>  (7) 
6

>  <SMILES>  (7) 
O=C([N-]Cc1ccco1)[N-]c1ccccc1Oc1ccc(Cl)cc1

>  <Energy>  (7) 
73.86948890728031

>  <Genealogy>  (7) 
O=C([N-]Cc1ccco1)[N-]c1ccccc1Oc1ccc(Cl)cc1 (protonated)
O=C([N-]Cc1ccco1)[N-]c1ccccc1Oc1ccc(Cl)cc1 (3D coordinates assigned)
O=C([N-]Cc1ccco1)[N-]c1ccccc1Oc1ccc(Cl)cc1 (optimized conformer: 73.86948890728031 kcal/mol)

>  <smiles>  (7) 
O=C(NCc1ccco1)Nc1ccccc1Oc1ccc(Cl)cc1

>  <score_type>  (7) 
oracle

>  <origin>  (7) 
adg

>  <m_score__min__energy>  (7) 
-11.699999999999999

>  <m_primary>  (7) 
energy

$$$$
7:0
     RDKit          3D

 42 44  0  0  0  0  0  0  0  0999 V2000
   54.6530   21.3430   47.5110 C   0  0  0  0  0  0  0  0  0  0  0  0
   55.7060   22.2710   47.0830 N   0  0  0  0  0  0  0  0  0  0  0  0
   56.4010   23.0610   48.1110 C   0  0  0  0  0  0  0  0  0  0  0  0
   56.8520   24.3780   47.5530 C   0  0  0  0  0  0  0  0  0  0  0  0
   55.9920   25.1390   46.8120 N   0  0  0  0  0  0  0  0  0  0  0  0
   56.3570   26.3520   46.3110 C   0  0  0  0  0  0  0  0  0  0  0  0
   55.5200   27.0350   45.6670 O   0  0  0  0  0  0  0  0  0  0  0  0
   57.6570   26.8210   46.5530 C   0  0  0  0  0  0  0  0  0  0  0  0
   58.2670   28.0310   46.1600 C   0  0  0  0  0  0  0  0  0  0  0  0
   57.6790   29.0540   45.2740 C   0  0  0  0  0  0  0  0  0  0  0  0
   57.7560   30.2670   45.6180 O   0  0  0  0  0  0  0  0  0  0  0  0
   57.1910   28.7000   43.9580 N   0  0  0  0  0  0  0  0  0  0  0  0
   56.9880   29.8980   43.1260 C   0  0  0  0  0  0  0  0  0  0  0  0
   58.1420   27.7810   43.3130 C   0  0  0  0  0  0  0  0  0  0  0  0
   59.5580   28.1710   46.6780 C   0  0  0  0  0  0  0  0  0  0  0  0
   59.9560   26.8010   47.5840 S   0  0  0  0  0  0  0  0  0  0  0  0
   58.4870   26.0380   47.3330 C   0  0  0  0  0  0  0  0  0  0  0  0
   58.1040   24.8390   47.8290 N   0  0  0  0  0  0  0  0  0  0  0  0
   56.0350   22.3970   45.6750 C   0  0  0  0  0  0  0  0  0  0  0  0
   55.2210   23.1600   44.8110 C   0  0  0  0  0  0  0  0  0  0  0  0
   55.5400   23.2860   43.4550 C   0  0  0  0  0  0  0  0  0  0  0  0
   56.6750   22.6590   42.9400 C   0  0  0  0  0  0  0  0  0  0  0  0
   57.4950   21.9050   43.7790 C   0  0  0  0  0  0  0  0  0  0  0  0
   57.1810   21.7730   45.1360 C   0  0  0  0  0  0  0  0  0  0  0  0
   54.6168   21.3111   48.6099 H   0  0  0  0  0  0  0  0  0  0  0  0
   53.6826   21.6849   47.1220 H   0  0  0  0  0  0  0  0  0  0  0  0
   54.8702   20.3373   47.1220 H   0  0  0  0  0  0  0  0  0  0  0  0
   55.7158   23.2410   48.9525 H   0  0  0  0  0  0  0  0  0  0  0  0
   57.2841   22.5001   48.4509 H   0  0  0  0  0  0  0  0  0  0  0  0
   56.2740   28.2010   44.0420 H   0  0  0  0  0  0  0  0  0  0  0  0
   56.8396   30.7740   43.7746 H   0  0  0  0  0  0  0  0  0  0  0  0
   57.8719   30.0575   42.4910 H   0  0  0  0  0  0  0  0  0  0  0  0
   56.1009   29.7574   42.4910 H   0  0  0  0  0  0  0  0  0  0  0  0
   58.7059   27.2361   44.0844 H   0  0  0  0  0  0  0  0  0  0  0  0
   57.5914   27.0641   42.6862 H   0  0  0  0  0  0  0  0  0  0  0  0
   58.8397   28.3558   42.6862 H   0  0  0  0  0  0  0  0  0  0  0  0
   60.2141   29.0397   46.5201 H   0  0  0  0  0  0  0  0  0  0  0  0
   54.3259   23.6611   45.2082 H   0  0  0  0  0  0  0  0  0  0  0  0
   54.8941   23.8812   42.7927 H   0  0  0  0  0  0  0  0  0  0  0  0
   56.9229   22.7593   41.8730 H   0  0  0  0  0  0  0  0  0  0  0  0
   58.3910   21.4128   43.3728 H   0  0  0  0  0  0  0  0  0  0  0  0
   57.8341   21.1766   45.7900 H   0  0  0  0  0  0  0  0  0  0  0  0
  1  2  1  0
  2  3  1  0
  3  4  1  0
  4  5  2  0
  5  6  1  0
  6  7  2  0
  6  8  1  0
  8  9  1  0
  9 10  1  0
 10 11  2  0
 10 12  1  0
 12 13  1  0
 12 14  1  0
  9 15  2  0
 15 16  1  0
 16 17  1  0
 17 18  1  0
  2 19  1  0
 19 20  2  0
 20 21  1  0
 21 22  2  0
 22 23  1  0
 23 24  2  0
 18  4  1  0
 24 19  1  0
 17  8  2  0
  1 25  1  0
  1 26  1  0
  1 27  1  0
  3 28  1  0
  3 29  1  0
 12 30  1  0
 13 31  1  0
 13 32  1  0
 13 33  1  0
 14 34  1  0
 14 35  1  0
 14 36  1  0
 15 37  1  0
 20 38  1  0
 21 39  1  0
 22 40  1  0
 23 41  1  0
 24 42  1  0
M  CHG  2  12   1  18  -1
M  END
>  <UniqueID>  (8) 
7

>  <SMILES>  (8) 
CN(Cc1nc(=O)c2c(C(=O)[NH+](C)C)csc2[n-]1)c1ccccc1

>  <Energy>  (8) 
87.3464976429309

>  <Genealogy>  (8) 
CN(Cc1nc(=O)c2c(C(=O)[NH+](C)C)csc2[n-]1)c1ccccc1 (protonated)
CN(Cc1nc(=O)c2c(C(=O)[NH+](C)C)csc2[n-]1)c1ccccc1 (3D coordinates assigned)
CN(Cc1nc(=O)c2c(C(=O)[NH+](C)C)csc2[n-]1)c1ccccc1 (optimized conformer: 87.3464976429309 kcal/mol)

>  <smiles>  (8) 
CN(C)C(=O)c1csc2[nH]c(CN(C)c3ccccc3)nc(=O)c12

>  <score_type>  (8) 
oracle

>  <origin>  (8) 
adg

>  <m_score__min__energy>  (8) 
-7.5599999999999996

>  <m_primary>  (8) 
energy

$$$$
8:0
     RDKit          3D

 64 67  0  0  0  0  0  0  0  0999 V2000
   56.9280   20.9310   46.9530 C   0  0  0  0  0  0  0  0  0  0  0  0
   57.8790   21.2620   45.8040 C   0  0  0  0  0  0  0  0  0  0  0  0
   57.2100   22.1010   44.8090 C   0  0  0  0  0  0  0  0  0  0  0  0
   57.3030   23.4650   44.8620 C   0  0  0  0  0  0  0  0  0  0  0  0
   58.0380   24.1800   45.8610 N   0  0  0  0  0  0  0  0  0  0  0  0
   59.4260   24.5530   45.7000 C   0  0  0  0  0  0  0  0  0  0  0  0
   59.7670   25.7830   46.5150 C   0  0  0  0  0  0  0  0  0  0  0  0
   58.5000   26.6300   46.5570 C   0  0  0  0  0  0  0  0  0  0  0  0
   58.9200   28.0100   46.6850 C   0  0  0  0  0  0  0  0  0  0  0  0
   59.9460   28.4120   47.5010 N   0  0  0  0  0  0  0  0  0  0  0  0
   60.0970   29.7190   47.4190 C   0  0  0  0  0  0  0  0  0  0  0  0
   61.0780   30.5410   48.1280 C   0  0  0  0  0  0  0  0  0  0  0  0
   61.4880   30.2130   49.4120 C   0  0  0  0  0  0  0  0  0  0  0  0
   62.4010   30.9820   50.0700 C   0  0  0  0  0  0  0  0  0  0  0  0
   62.9630   32.1180   49.5000 C   0  0  0  0  0  0  0  0  0  0  0  0
   63.8680   32.8600   50.1860 F   0  0  0  0  0  0  0  0  0  0  0  0
   62.5530   32.4450   48.2210 C   0  0  0  0  0  0  0  0  0  0  0  0
   63.1610   33.6700   47.6140 C   0  0  0  0  0  0  0  0  0  0  0  0
   63.1280   34.6920   48.5540 F   0  0  0  0  0  0  0  0  0  0  0  0
   62.5040   34.0790   46.4940 F   0  0  0  0  0  0  0  0  0  0  0  0
   64.5050   33.4490   47.3570 F   0  0  0  0  0  0  0  0  0  0  0  0
   61.6310   31.6670   47.5550 C   0  0  0  0  0  0  0  0  0  0  0  0
   59.1760   30.2050   46.5500 C   0  0  0  0  0  0  0  0  0  0  0  0
   58.4510   29.1360   46.0990 N   0  0  0  0  0  0  0  0  0  0  0  0
   57.3890   29.2430   45.1550 C   0  0  0  0  0  0  0  0  0  0  0  0
   57.7470   28.6860   43.7720 C   0  0  0  0  0  0  0  0  0  0  0  0
   57.7750   27.2600   43.7550 N   0  0  0  0  0  0  0  0  0  0  0  0
   58.1380   26.7150   42.4680 C   0  0  0  0  0  0  0  0  0  0  0  0
   57.5890   26.0060   47.4910 C   0  0  0  0  0  0  0  0  0  0  0  0
   57.3890   24.5580   47.0920 C   0  0  0  0  0  0  0  0  0  0  0  0
   56.6830   24.2380   43.9360 N   0  0  0  0  0  0  0  0  0  0  0  0
   55.9540   23.7210   42.9310 C   0  0  0  0  0  0  0  0  0  0  0  0
   55.8450   22.3850   42.8560 N   0  0  0  0  0  0  0  0  0  0  0  0
   56.4550   21.5680   43.7690 C   0  0  0  0  0  0  0  0  0  0  0  0
   56.2800   20.3150   43.5850 N   0  0  0  0  0  0  0  0  0  0  0  0
   57.4364   21.1079   47.9123 H   0  0  0  0  0  0  0  0  0  0  0  0
   56.0362   21.5716   46.8870 H   0  0  0  0  0  0  0  0  0  0  0  0
   56.6267   19.8751   46.8870 H   0  0  0  0  0  0  0  0  0  0  0  0
   58.7531   21.7989   46.2011 H   0  0  0  0  0  0  0  0  0  0  0  0
   58.1953   20.3245   45.3233 H   0  0  0  0  0  0  0  0  0  0  0  0
   60.0614   23.7179   46.0299 H   0  0  0  0  0  0  0  0  0  0  0  0
   59.6015   24.7821   44.6385 H   0  0  0  0  0  0  0  0  0  0  0  0
   60.0669   25.4947   47.5333 H   0  0  0  0  0  0  0  0  0  0  0  0
   60.6060   26.3385   46.0705 H   0  0  0  0  0  0  0  0  0  0  0  0
   57.8727   26.6735   45.6544 H   0  0  0  0  0  0  0  0  0  0  0  0
   61.0715   29.3221   49.9048 H   0  0  0  0  0  0  0  0  0  0  0  0
   62.7034   30.6934   51.0875 H   0  0  0  0  0  0  0  0  0  0  0  0
   61.3273   31.9523   46.5370 H   0  0  0  0  0  0  0  0  0  0  0  0
   59.0382   31.2578   46.2626 H   0  0  0  0  0  0  0  0  0  0  0  0
   56.5216   28.6875   45.5411 H   0  0  0  0  0  0  0  0  0  0  0  0
   57.1730   30.3141   45.0284 H   0  0  0  0  0  0  0  0  0  0  0  0
   56.9980   29.0341   43.0454 H   0  0  0  0  0  0  0  0  0  0  0  0
   58.7538   29.0461   43.5137 H   0  0  0  0  0  0  0  0  0  0  0  0
   56.8290   26.9230   44.0330 H   0  0  0  0  0  0  0  0  0  0  0  0
   58.7426   25.8073   42.6115 H   0  0  0  0  0  0  0  0  0  0  0  0
   57.2265   26.4634   41.9061 H   0  0  0  0  0  0  0  0  0  0  0  0
   58.7215   27.4591   41.9061 H   0  0  0  0  0  0  0  0  0  0  0  0
   58.0109   26.0541   48.5057 H   0  0  0  0  0  0  0  0  0  0  0  0
   56.6233   26.5324   47.4764 H   0  0  0  0  0  0  0  0  0  0  0  0
   57.7845   23.9222   47.8978 H   0  0  0  0  0  0  0  0  0  0  0  0
   56.3092   24.4256   46.9289 H   0  0  0  0  0  0  0  0  0  0  0  0
   56.7400   25.2910   43.9530 H   0  0  0  0  0  0  0  0  0  0  0  0
   55.4624   24.3725   42.1935 H   0  0  0  0  0  0  0  0  0  0  0  0
   56.9420   19.5680   43.7420 H   0  0  0  0  0  0  0  0  0  0  0  0
  1  2  1  0
  2  3  1  0
  3  4  2  0
  4  5  1  0
  5  6  1  0
  6  7  1  0
  7  8  1  0
  8  9  1  0
  9 10  2  0
 10 11  1  0
 11 12  1  0
 12 13  2  0
 13 14  1  0
 14 15  2  0
 15 16  1  0
 15 17  1  0
 17 18  1  0
 18 19  1  0
 18 20  1  0
 18 21  1  0
 17 22  2  0
 11 23  2  0
 23 24  1  0
 24 25  1  0
 25 26  1  0
 26 27  1  0
 27 28  1  0
  8 29  1  0
 29 30  1  0
  4 31  1  0
 31 32  1  0
 32 33  2  0
 33 34  1  0
 34 35  2  3
 34  3  1  0
 30  5  1  0
 24  9  1  0
 22 12  1  0
  1 36  1  0
  1 37  1  0
  1 38  1  0
  2 39  1  0
  2 40  1  0
  6 41  1  0
  6 42  1  0
  7 43  1  0
  7 44  1  0
  8 45  1  0
 13 46  1  0
 14 47  1  0
 22 48  1  0
 23 49  1  0
 25 50  1  0
 25 51  1  0
 26 52  1  0
 26 53  1  0
 27 54  1  0
 28 55  1  0
 28 56  1  0
 28 57  1  0
 29 58  1  0
 29 59  1  0
 30 60  1  0
 30 61  1  0
 31 62  1  0
 32 63  1  0
 35 64  1  0
M  END
>  <smiles>  (9) 
CCc1c(N2CCC(c3nc(-c4ccc(F)c(C(F)(F)F)c4)cn3CCNC)CC2)[nH]cnc1=N

>  <score_type>  (9) 
oracle

>  <origin>  (9) 
adg

>  <m_score__min__energy>  (9) 
-8.3800000000000008

>  <m_primary>  (9) 
energy

$$$$
9:0
     RDKit          3D

 66 71  0  0  0  0  0  0  0  0999 V2000
   55.6220   28.5980   45.1410 O   0  0  0  0  0  0  0  0  0  0  0  0
   56.6300   28.0040   45.6120 C   0  0  0  0  0  0  0  0  0  0  0  0
   56.5690   26.5970   45.8690 N   0  0  0  0  0  0  0  0  0  0  0  0
   57.9450   25.5510   45.7620 S   0  0  0  0  0  0  0  0  0  0  0  0
   59.0820   26.3210   45.1550 O   0  0  0  0  0  0  0  0  0  0  0  0
   58.3350   25.1110   47.1420 O   0  0  0  0  0  0  0  0  0  0  0  0
   57.5820   24.1230   44.7910 C   0  0  0  0  0  0  0  0  0  0  0  0
   56.5230   24.1450   43.8720 C   0  0  0  0  0  0  0  0  0  0  0  0
   56.2350   23.0120   43.1020 C   0  0  0  0  0  0  0  0  0  0  0  0
   57.0000   21.8510   43.2490 C   0  0  0  0  0  0  0  0  0  0  0  0
   58.0590   21.8240   44.1630 C   0  0  0  0  0  0  0  0  0  0  0  0
   58.3550   22.9600   44.9290 C   0  0  0  0  0  0  0  0  0  0  0  0
   57.8680   28.7630   45.9130 C   0  0  0  0  0  0  0  0  0  0  0  0
   58.3240   29.7600   45.0330 C   0  0  0  0  0  0  0  0  0  0  0  0
   59.5050   30.4590   45.3030 C   0  0  0  0  0  0  0  0  0  0  0  0
   60.2640   30.1510   46.4340 C   0  0  0  0  0  0  0  0  0  0  0  0
   59.8400   29.1490   47.3220 C   0  0  0  0  0  0  0  0  0  0  0  0
   60.7030   28.7620   48.5090 C   0  0  1  0  0  0  0  0  0  0  0  0
   60.2470   29.7780   49.9730 S   0  0  0  0  0  0  0  0  0  0  0  0
   61.9150   29.9210   50.6460 C   0  0  0  0  0  0  0  0  0  0  0  0
   62.3170   28.9500   51.5710 C   0  0  0  0  0  0  0  0  0  0  0  0
   63.6120   28.9510   52.0930 C   0  0  0  0  0  0  0  0  0  0  0  0
   64.5210   29.9300   51.7020 C   0  0  0  0  0  0  0  0  0  0  0  0
   64.1380   30.9270   50.7930 C   0  0  0  0  0  0  0  0  0  0  0  0
   65.0570   31.9100   50.4090 C   0  0  0  0  0  0  0  0  0  0  0  0
   64.6830   32.9150   49.5160 C   0  0  0  0  0  0  0  0  0  0  0  0
   63.3750   32.9600   49.0010 C   0  0  0  0  0  0  0  0  0  0  0  0
   62.9410   33.9780   48.1330 O   0  0  0  0  0  0  0  0  0  0  0  0
   62.1410   33.7850   46.9660 C   0  0  0  0  0  0  0  0  0  0  0  0
   60.6900   33.6490   47.3160 C   0  0  0  0  0  0  0  0  0  0  0  0
   60.2080   33.4550   48.5680 N   0  0  0  0  0  0  0  0  0  0  0  0
   58.9060   33.3740   48.4850 O   0  0  0  0  0  0  0  0  0  0  0  0
   58.5260   33.5010   47.2360 C   0  0  0  0  0  0  0  0  0  0  0  0
   57.2370   33.4740   46.7140 C   0  0  0  0  0  0  0  0  0  0  0  0
   57.0950   33.6290   45.3200 C   0  0  0  0  0  0  0  0  0  0  0  0
   58.2320   33.8090   44.4980 C   0  0  0  0  0  0  0  0  0  0  0  0
   59.5230   33.8310   45.0610 C   0  0  0  0  0  0  0  0  0  0  0  0
   59.6230   33.6770   46.4440 C   0  0  0  0  0  0  0  0  0  0  0  0
   62.4560   31.9680   49.3710 C   0  0  0  0  0  0  0  0  0  0  0  0
   62.8210   30.9420   50.2640 C   0  0  0  0  0  0  0  0  0  0  0  0
   60.6120   27.2770   48.7710 C   0  0  0  0  0  0  0  0  0  0  0  0
   60.6800   26.4490   47.8240 O   0  0  0  0  0  0  0  0  0  0  0  0
   60.4450   26.8180   50.0730 O   0  0  0  0  0  0  0  0  0  0  0  0
   58.6230   28.4810   47.0680 C   0  0  0  0  0  0  0  0  0  0  0  0
   55.9167   25.0554   43.7558 H   0  0  0  0  0  0  0  0  0  0  0  0
   55.4054   23.0352   42.3800 H   0  0  0  0  0  0  0  0  0  0  0  0
   56.7696   20.9598   42.6468 H   0  0  0  0  0  0  0  0  0  0  0  0
   58.6600   20.9102   44.2806 H   0  0  0  0  0  0  0  0  0  0  0  0
   59.1946   22.9398   45.6394 H   0  0  0  0  0  0  0  0  0  0  0  0
   57.7477   29.9921   44.1253 H   0  0  0  0  0  0  0  0  0  0  0  0
   59.8376   31.2554   44.6210 H   0  0  0  0  0  0  0  0  0  0  0  0
   61.1990   30.6961   46.6304 H   0  0  0  0  0  0  0  0  0  0  0  0
   61.7587   28.9735   48.2835 H   0  0  0  0  0  0  0  0  0  0  0  0
   61.6034   28.1763   51.8907 H   0  0  0  0  0  0  0  0  0  0  0  0
   63.9143   28.1772   52.8141 H   0  0  0  0  0  0  0  0  0  0  0  0
   65.5435   29.9216   52.1075 H   0  0  0  0  0  0  0  0  0  0  0  0
   66.0798   31.8904   50.8133 H   0  0  0  0  0  0  0  0  0  0  0  0
   65.4160   33.6771   49.2129 H   0  0  0  0  0  0  0  0  0  0  0  0
   62.2687   34.6490   46.2973 H   0  0  0  0  0  0  0  0  0  0  0  0
   62.4669   32.8581   46.4714 H   0  0  0  0  0  0  0  0  0  0  0  0
   56.3609   33.3368   47.3648 H   0  0  0  0  0  0  0  0  0  0  0  0
   56.0923   33.6098   44.8681 H   0  0  0  0  0  0  0  0  0  0  0  0
   58.1072   33.9326   43.4121 H   0  0  0  0  0  0  0  0  0  0  0  0
   60.4174   33.9644   44.4347 H   0  0  0  0  0  0  0  0  0  0  0  0
   61.4366   31.9914   48.9584 H   0  0  0  0  0  0  0  0  0  0  0  0
   58.2586   27.7287   47.7830 H   0  0  0  0  0  0  0  0  0  0  0  0
  1  2  2  0
  2  3  1  0
  3  4  1  0
  4  5  2  0
  4  6  2  0
  4  7  1  0
  7  8  2  0
  8  9  1  0
  9 10  2  0
 10 11  1  0
 11 12  2  0
  2 13  1  0
 13 14  2  0
 14 15  1  0
 15 16  2  0
 16 17  1  0
 17 18  1  0
 18 19  1  0
 19 20  1  0
 20 21  2  0
 21 22  1  0
 22 23  2  0
 23 24  1  0
 24 25  2  0
 25 26  1  0
 26 27  2  0
 27 28  1  0
 28 29  1  0
 29 30  1  0
 30 31  2  0
 31 32  1  0
 32 33  1  0
 33 34  2  0
 34 35  1  0
 35 36  2  0
 36 37  1  0
 37 38  2  0
 27 39  1  0
 39 40  2  0
 18 41  1  0
 41 42  2  0
 41 43  1  0
 17 44  2  0
 12  7  1  0
 44 13  1  0
 40 20  1  0
 40 24  1  0
 38 30  1  0
 38 33  1  0
  8 45  1  0
  9 46  1  0
 10 47  1  0
 11 48  1  0
 12 49  1  0
 14 50  1  0
 15 51  1  0
 16 52  1  0
 18 53  1  6
 21 54  1  0
 22 55  1  0
 23 56  1  0
 25 57  1  0
 26 58  1  0
 29 59  1  0
 29 60  1  0
 34 61  1  0
 35 62  1  0
 36 63  1  0
 37 64  1  0
 39 65  1  0
 44 66  1  0
M  CHG  2   3  -1  43  -1
M  END
>  <UniqueID>  (10) 
8

>  <SMILES>  (10) 
O=C([N-]S(=O)(=O)c1ccccc1)c1cccc([C@@H](Sc2cccc3ccc(OCc4noc5ccccc45)cc23)C(=O)[O-])c1

>  <Energy>  (10) 
121.7181000343374

>  <Genealogy>  (10) 
O=C([N-]S(=O)(=O)c1ccccc1)c1cccc(C(Sc2cccc3ccc(OCc4noc5ccccc45)cc23)C(=O)[O-])c1 (protonated)
O=C([N-]S(=O)(=O)c1ccccc1)c1cccc([C@@H](Sc2cccc3ccc(OCc4noc5ccccc45)cc23)C(=O)[O-])c1 (chirality)
O=C([N-]S(=O)(=O)c1ccccc1)c1cccc([C@@H](Sc2cccc3ccc(OCc4noc5ccccc45)cc23)C(=O)[O-])c1 (3D coordinates assigned)
O=C([N-]S(=O)(=O)c1ccccc1)c1cccc([C@@H](Sc2cccc3ccc(OCc4noc5ccccc45)cc23)C(=O)[O-])c1 (optimized conformer: 121.7181000343374 kcal/mol)

>  <smiles>  (10) 
O=C(NS(=O)(=O)c1ccccc1)c1cccc(C(Sc2cccc3ccc(OCc4noc5ccccc45)cc23)C(=O)O)c1

>  <score_type>  (10) 
oracle

>  <origin>  (10) 
adg

>  <m_score__min__energy>  (10) 
-16.100000000000001

>  <m_primary>  (10) 
energy

$$$$
10:0
     RDKit          3D

 27 27  0  0  0  0  0  0  0  0999 V2000
   56.7030   29.8060   42.7320 C   0  0  0  0  0  0  0  0  0  0  0  0
   56.4360   30.0600   44.4720 S   0  0  0  0  0  0  0  0  0  0  0  0
   55.1410   29.4110   44.8740 O   0  0  0  0  0  0  0  0  0  0  0  0
   56.3780   31.5350   44.7530 O   0  0  0  0  0  0  0  0  0  0  0  0
   57.7450   29.3480   45.3520 N   0  0  0  0  0  0  0  0  0  0  0  0
   58.9430   28.8940   44.7210 C   0  0  0  0  0  0  0  0  0  0  0  0
   59.9430   29.6580   44.6590 O   0  0  0  0  0  0  0  0  0  0  0  0
   59.0520   27.5410   44.1300 C   0  0  0  0  0  0  0  0  0  0  0  0
   58.1700   26.5380   44.2580 C   0  0  0  0  0  0  0  0  0  0  0  0
   57.9540   25.7290   45.5090 C   0  0  0  0  0  0  0  0  0  0  0  0
   56.6920   24.9770   45.4180 N   0  0  0  0  0  0  0  0  0  0  0  0
   56.7120   23.6880   44.9600 C   0  0  0  0  0  0  0  0  0  0  0  0
   55.5360   22.9440   44.8870 C   0  0  0  0  0  0  0  0  0  0  0  0
   55.5580   21.6690   44.4240 F   0  0  0  0  0  0  0  0  0  0  0  0
   54.3460   23.5360   45.3000 C   0  0  0  0  0  0  0  0  0  0  0  0
   53.2630   22.8970   45.2470 O   0  0  0  0  0  0  0  0  0  0  0  0
   54.3550   24.8100   45.7670 N   0  0  0  0  0  0  0  0  0  0  0  0
   55.5060   25.5290   45.8350 C   0  0  0  0  0  0  0  0  0  0  0  0
   55.4670   26.7050   46.2890 O   0  0  0  0  0  0  0  0  0  0  0  0
   57.4931   29.0543   42.5882 H   0  0  0  0  0  0  0  0  0  0  0  0
   55.7714   29.4526   42.2658 H   0  0  0  0  0  0  0  0  0  0  0  0
   57.0095   30.7540   42.2658 H   0  0  0  0  0  0  0  0  0  0  0  0
   59.9473   27.3372   43.5242 H   0  0  0  0  0  0  0  0  0  0  0  0
   57.5567   26.2872   43.3800 H   0  0  0  0  0  0  0  0  0  0  0  0
   58.7888   25.0237   45.6339 H   0  0  0  0  0  0  0  0  0  0  0  0
   57.9042   26.4096   46.3717 H   0  0  0  0  0  0  0  0  0  0  0  0
   57.6643   23.2351   44.6468 H   0  0  0  0  0  0  0  0  0  0  0  0
  1  2  1  0
  2  3  2  0
  2  4  2  0
  2  5  1  0
  5  6  1  0
  6  7  2  0
  6  8  1  0
  8  9  2  3
  9 10  1  0
 10 11  1  0
 11 12  1  0
 12 13  2  0
 13 14  1  0
 13 15  1  0
 15 16  2  0
 15 17  1  0
 17 18  1  0
 18 19  2  0
 18 11  1  0
  1 20  1  0
  1 21  1  0
  1 22  1  0
  8 23  1  0
  9 24  1  0
 10 25  1  0
 10 26  1  0
 12 27  1  0
M  CHG  2   5  -1  17  -1
M  END
>  <UniqueID>  (11) 
9

>  <SMILES>  (11) 
CS(=O)(=O)[N-]C(=O)C=CCn1cc(F)c(=O)[n-]c1=O

>  <Energy>  (11) 
25.80918135556221

>  <Genealogy>  (11) 
CS(=O)(=O)[N-]C(=O)C=CCn1cc(F)c(=O)[n-]c1=O (protonated)
CS(=O)(=O)[N-]C(=O)C=CCn1cc(F)c(=O)[n-]c1=O (3D coordinates assigned)
CS(=O)(=O)[N-]C(=O)C=CCn1cc(F)c(=O)[n-]c1=O (optimized conformer: 25.80918135556221 kcal/mol)

>  <smiles>  (11) 
CS(=O)(=O)NC(=O)C=CCn1cc(F)c(=O)[nH]c1=O

>  <score_type>  (11) 
oracle

>  <origin>  (11) 
adg

>  <m_score__min__energy>  (11) 
-9.6600000000000001

>  <m_primary>  (11) 
energy

$$$$
11:0
     RDKit          3D

 43 46  0  0  0  0  0  0  0  0999 V2000
   54.4710   26.3320   45.9910 N   0  0  0  0  0  0  0  0  0  0  0  0
   55.4710   24.9510   45.7110 S   0  0  0  0  0  0  0  0  0  0  0  0
   54.8390   24.0900   44.6540 O   0  0  0  0  0  0  0  0  0  0  0  0
   55.6090   24.1740   46.9910 O   0  0  0  0  0  0  0  0  0  0  0  0
   57.0310   25.4850   45.1760 N   0  0  0  0  0  0  0  0  0  0  0  0
   57.7710   26.5710   45.7480 C   0  0  0  0  0  0  0  0  0  0  0  0
   58.0580   26.6400   47.1220 C   0  0  0  0  0  0  0  0  0  0  0  0
   58.7830   27.7170   47.6390 C   0  0  0  0  0  0  0  0  0  0  0  0
   59.2380   28.7470   46.7930 C   0  0  0  0  0  0  0  0  0  0  0  0
   60.0120   29.8860   47.3430 C   0  0  0  0  0  0  0  0  0  0  0  0
   61.1540   29.6750   48.0520 N   0  0  0  0  0  0  0  0  0  0  0  0
   61.8570   30.6920   48.5500 N   0  0  0  0  0  0  0  0  0  0  0  0
   61.4530   31.9780   48.3730 C   0  0  0  0  0  0  0  0  0  0  0  0
   62.2100   33.0540   48.8700 C   0  0  0  0  0  0  0  0  0  0  0  0
   63.3890   32.8460   49.5860 O   0  0  0  0  0  0  0  0  0  0  0  0
   61.7780   34.3630   48.6350 C   0  0  0  0  0  0  0  0  0  0  0  0
   60.6000   34.6050   47.9240 C   0  0  0  0  0  0  0  0  0  0  0  0
   59.8180   33.5420   47.4550 C   0  0  0  0  0  0  0  0  0  0  0  0
   58.6210   33.8360   46.7210 N   0  0  0  0  0  0  0  0  0  0  0  0
   58.5180   33.8840   45.2920 C   0  0  0  0  0  0  0  0  0  0  0  0
   58.9810   34.8760   44.6640 O   0  0  0  0  0  0  0  0  0  0  0  0
   57.9020   32.7620   44.5500 C   0  0  0  0  0  0  0  0  0  0  0  0
   58.0520   32.6530   43.1560 C   0  0  0  0  0  0  0  0  0  0  0  0
   57.4560   31.5960   42.4660 C   0  0  0  0  0  0  0  0  0  0  0  0
   56.7110   30.6520   43.1730 C   0  0  0  0  0  0  0  0  0  0  0  0
   56.5700   30.7670   44.5190 N   0  0  0  0  0  0  0  0  0  0  0  0
   57.1390   31.7870   45.2160 C   0  0  0  0  0  0  0  0  0  0  0  0
   60.2650   32.2200   47.6600 C   0  0  0  0  0  0  0  0  0  0  0  0
   59.5840   31.1620   47.1510 N   0  0  0  0  0  0  0  0  0  0  0  0
   58.9480   28.6710   45.4190 C   0  0  0  0  0  0  0  0  0  0  0  0
   58.2220   27.5940   44.9050 C   0  0  0  0  0  0  0  0  0  0  0  0
   53.7260   26.3240   45.2570 H   0  0  0  0  0  0  0  0  0  0  0  0
   57.7100   25.8418   47.7942 H   0  0  0  0  0  0  0  0  0  0  0  0
   59.0003   27.7607   48.7164 H   0  0  0  0  0  0  0  0  0  0  0  0
   63.7580   31.9190   49.7640 H   0  0  0  0  0  0  0  0  0  0  0  0
   62.3706   35.2091   49.0131 H   0  0  0  0  0  0  0  0  0  0  0  0
   60.2836   35.6406   47.7306 H   0  0  0  0  0  0  0  0  0  0  0  0
   58.6408   33.4030   42.6076 H   0  0  0  0  0  0  0  0  0  0  0  0
   57.5726   31.5083   41.3757 H   0  0  0  0  0  0  0  0  0  0  0  0
   56.2375   29.8142   42.6402 H   0  0  0  0  0  0  0  0  0  0  0  0
   57.0016   31.8493   46.3056 H   0  0  0  0  0  0  0  0  0  0  0  0
   59.2958   29.4663   44.7434 H   0  0  0  0  0  0  0  0  0  0  0  0
   58.0026   27.5491   43.8280 H   0  0  0  0  0  0  0  0  0  0  0  0
  1  2  1  0
  2  3  2  0
  2  4  2  0
  2  5  1  0
  5  6  1  0
  6  7  2  0
  7  8  1  0
  8  9  2  0
  9 10  1  0
 10 11  2  0
 11 12  1  0
 12 13  2  0
 13 14  1  0
 14 15  1  0
 14 16  2  0
 16 17  1  0
 17 18  2  0
 18 19  1  0
 19 20  1  0
 20 21  2  0
 20 22  1  0
 22 23  2  0
 23 24  1  0
 24 25  2  0
 25 26  1  0
 26 27  2  0
 18 28  1  0
 28 29  2  0
  9 30  1  0
 30 31  2  0
 31  6  1  0
 29 10  1  0
 28 13  1  0
 27 22  1  0
  1 32  1  0
  7 33  1  0
  8 34  1  0
 15 35  1  0
 16 36  1  0
 17 37  1  0
 23 38  1  0
 24 39  1  0
 25 40  1  0
 27 41  1  0
 30 42  1  0
 31 43  1  0
M  CHG  3   1  -1   5  -1  19  -1
M  END
>  <UniqueID>  (12) 
10

>  <SMILES>  (12) 
[NH-]S(=O)(=O)[N-]c1ccc(-c2nnc3c(O)ccc([N-]C(=O)c4cccnc4)c3n2)cc1

>  <Energy>  (12) 
61.371173057545874

>  <Genealogy>  (12) 
[NH-]S(=O)(=O)[N-]c1ccc(-c2nnc3c(O)ccc([N-]C(=O)c4cccnc4)c3n2)cc1 (protonated)
[NH-]S(=O)(=O)[N-]c1ccc(-c2nnc3c(O)ccc([N-]C(=O)c4cccnc4)c3n2)cc1 (3D coordinates assigned)
[NH-]S(=O)(=O)[N-]c1ccc(-c2nnc3c(O)ccc([N-]C(=O)c4cccnc4)c3n2)cc1 (optimized conformer: 61.371173057545874 kcal/mol)

>  <smiles>  (12) 
NS(=O)(=O)Nc1ccc(-c2nnc3c(O)ccc(NC(=O)c4cccnc4)c3n2)cc1

>  <score_type>  (12) 
oracle

>  <origin>  (12) 
adg

>  <m_score__min__energy>  (12) 
-13.83

>  <m_primary>  (12) 
energy

$$$$
12:0
     RDKit          3D

 78 81  0  0  0  0  0  0  0  0999 V2000
   63.3290   29.9130   51.3210 C   0  0  0  0  0  0  0  0  0  0  0  0
   62.1050   30.2120   50.4580 C   0  0  0  0  0  0  0  0  0  0  0  0
   61.2100   28.9850   50.2200 C   0  0  0  0  0  0  0  0  0  0  0  0
   59.7190   29.2120   50.5480 C   0  0  0  0  0  0  0  0  0  0  0  0
   58.8650   29.7380   49.3770 C   0  0  0  0  0  0  0  0  0  0  0  0
   58.8350   31.2720   49.2890 C   0  0  0  0  0  0  0  0  0  0  0  0
   58.2870   31.8880   50.5860 C   0  0  0  0  0  0  0  0  0  0  0  0
   58.9800   33.2080   50.9640 C   0  0  0  0  0  0  0  0  0  0  0  0
   60.5150   33.1930   50.8510 C   0  0  0  0  0  0  0  0  0  0  0  0
   61.2140   33.5270   52.1790 C   0  0  0  0  0  0  0  0  0  0  0  0
   62.7480   33.5110   52.0620 C   0  0  0  0  0  0  0  0  0  0  0  0
   63.2460   34.0200   50.6980 C   0  0  0  0  0  0  0  0  0  0  0  0
   63.9710   32.9380   49.8830 C   0  0  0  0  0  0  0  0  0  0  0  0
   64.4820   33.4600   48.5310 C   0  0  0  0  0  0  0  0  0  0  0  0
   63.5940   33.0400   47.3460 C   0  0  0  0  0  0  0  0  0  0  0  0
   62.2840   32.3440   47.7680 C   0  0  0  0  0  0  0  0  0  0  0  0
   61.0460   32.9560   47.1630 C   0  0  0  0  0  0  0  0  0  0  0  0
   60.7500   34.2780   47.2050 N   0  0  0  0  0  0  0  0  0  0  0  0
   59.5740   34.4500   46.6110 N   0  0  0  0  0  0  0  0  0  0  0  0
   59.1650   33.2250   46.2280 C   0  0  0  0  0  0  0  0  0  0  0  0
   57.9840   32.9290   45.5960 N   0  0  0  0  0  0  0  0  0  0  0  0
   57.0500   33.9980   45.2180 C   0  0  0  0  0  0  0  0  0  0  0  0
   57.7230   31.6130   45.2660 C   0  0  0  0  0  0  0  0  0  0  0  0
   56.6580   31.3110   44.6600 O   0  0  0  0  0  0  0  0  0  0  0  0
   58.6500   30.6040   45.6220 C   0  0  0  0  0  0  0  0  0  0  0  0
   58.5670   29.2120   45.4140 C   0  0  0  0  0  0  0  0  0  0  0  0
   59.6480   28.5300   45.9800 C   0  0  0  0  0  0  0  0  0  0  0  0
   60.7370   29.6210   46.6690 S   0  0  0  0  0  0  0  0  0  0  0  0
   59.8100   30.9710   46.2860 C   0  0  0  0  0  0  0  0  0  0  0  0
   60.0500   32.2740   46.5630 N   0  0  0  0  0  0  0  0  0  0  0  0
   59.8420   27.0470   45.8990 C   0  0  0  0  0  0  0  0  0  0  0  0
   58.5050   26.3440   45.6250 C   0  0  0  0  0  0  0  0  0  0  0  0
   57.7630   27.0150   44.4570 C   0  0  0  0  0  0  0  0  0  0  0  0
   57.4150   28.4820   44.7680 C   0  0  0  0  0  0  0  0  0  0  0  0
   63.0536   29.9803   52.3838 H   0  0  0  0  0  0  0  0  0  0  0  0
   63.6944   28.8992   51.1004 H   0  0  0  0  0  0  0  0  0  0  0  0
   64.1207   30.6442   51.1004 H   0  0  0  0  0  0  0  0  0  0  0  0
   61.5069   30.9878   50.9584 H   0  0  0  0  0  0  0  0  0  0  0  0
   62.4737   30.5400   49.4749 H   0  0  0  0  0  0  0  0  0  0  0  0
   61.2900   28.7008   49.1604 H   0  0  0  0  0  0  0  0  0  0  0  0
   61.5660   28.1989   50.9021 H   0  0  0  0  0  0  0  0  0  0  0  0
   59.2925   28.2529   50.8770 H   0  0  0  0  0  0  0  0  0  0  0  0
   59.6909   29.9924   51.3227 H   0  0  0  0  0  0  0  0  0  0  0  0
   59.2785   29.3422   48.4377 H   0  0  0  0  0  0  0  0  0  0  0  0
   57.8322   29.4008   49.5491 H   0  0  0  0  0  0  0  0  0  0  0  0
   59.8566   31.6425   49.1186 H   0  0  0  0  0  0  0  0  0  0  0  0
   58.1758   31.5623   48.4576 H   0  0  0  0  0  0  0  0  0  0  0  0
   57.2120   32.0814   50.4553 H   0  0  0  0  0  0  0  0  0  0  0  0
   58.4796   31.1711   51.3977 H   0  0  0  0  0  0  0  0  0  0  0  0
   58.5968   33.9968   50.3000 H   0  0  0  0  0  0  0  0  0  0  0  0
   58.7518   33.3816   52.0260 H   0  0  0  0  0  0  0  0  0  0  0  0
   60.8338   32.1908   50.5285 H   0  0  0  0  0  0  0  0  0  0  0  0
   60.8008   33.9664   50.1229 H   0  0  0  0  0  0  0  0  0  0  0  0
   60.8960   34.5293   52.5019 H   0  0  0  0  0  0  0  0  0  0  0  0
   60.9280   32.7552   52.9087 H   0  0  0  0  0  0  0  0  0  0  0  0
   63.1676   34.1522   52.8512 H   0  0  0  0  0  0  0  0  0  0  0  0
   63.0779   32.4669   52.1670 H   0  0  0  0  0  0  0  0  0  0  0  0
   62.3807   34.3746   50.1187 H   0  0  0  0  0  0  0  0  0  0  0  0
   63.9685   34.8266   50.8911 H   0  0  0  0  0  0  0  0  0  0  0  0
   64.8288   32.5728   50.4667 H   0  0  0  0  0  0  0  0  0  0  0  0
   63.2481   32.1345   49.6784 H   0  0  0  0  0  0  0  0  0  0  0  0
   64.5163   34.5588   48.5704 H   0  0  0  0  0  0  0  0  0  0  0  0
   65.4775   33.0221   48.3658 H   0  0  0  0  0  0  0  0  0  0  0  0
   63.3382   33.9401   46.7678 H   0  0  0  0  0  0  0  0  0  0  0  0
   64.1692   32.3112   46.7562 H   0  0  0  0  0  0  0  0  0  0  0  0
   62.3363   31.2898   47.4582 H   0  0  0  0  0  0  0  0  0  0  0  0
   62.1975   32.4593   48.8585 H   0  0  0  0  0  0  0  0  0  0  0  0
   56.6413   34.4658   46.1258 H   0  0  0  0  0  0  0  0  0  0  0  0
   57.5810   34.7553   44.6226 H   0  0  0  0  0  0  0  0  0  0  0  0
   56.2283   33.5734   44.6226 H   0  0  0  0  0  0  0  0  0  0  0  0
   60.5450   26.8178   45.0846 H   0  0  0  0  0  0  0  0  0  0  0  0
   60.2428   26.6877   46.8583 H   0  0  0  0  0  0  0  0  0  0  0  0
   58.6968   25.2907   45.3726 H   0  0  0  0  0  0  0  0  0  0  0  0
   57.8789   26.4145   46.5267 H   0  0  0  0  0  0  0  0  0  0  0  0
   58.4031   26.9827   43.5630 H   0  0  0  0  0  0  0  0  0  0  0  0
   56.8230   26.4686   44.2901 H   0  0  0  0  0  0  0  0  0  0  0  0
   57.1535   28.9917   43.8289 H   0  0  0  0  0  0  0  0  0  0  0  0
   56.5706   28.4886   45.4730 H   0  0  0  0  0  0  0  0  0  0  0  0
  1  2  1  0
  2  3  1  0
  3  4  1  0
  4  5  1  0
  5  6  1  0
  6  7  1  0
  7  8  1  0
  8  9  1  0
  9 10  1  0
 10 11  1  0
 11 12  1  0
 12 13  1  0
 13 14  1  0
 14 15  1  0
 15 16  1  0
 16 17  1  0
 17 18  2  0
 18 19  1  0
 19 20  2  0
 20 21  1  0
 21 22  1  0
 21 23  1  0
 23 24  2  0
 23 25  1  0
 25 26  1  0
 26 27  2  0
 27 28  1  0
 28 29  1  0
 29 30  1  0
 27 31  1  0
 31 32  1  0
 32 33  1  0
 33 34  1  0
 30 17  1  0
 30 20  1  0
 29 25  2  0
 34 26  1  0
  1 35  1  0
  1 36  1  0
  1 37  1  0
  2 38  1  0
  2 39  1  0
  3 40  1  0
  3 41  1  0
  4 42  1  0
  4 43  1  0
  5 44  1  0
  5 45  1  0
  6 46  1  0
  6 47  1  0
  7 48  1  0
  7 49  1  0
  8 50  1  0
  8 51  1  0
  9 52  1  0
  9 53  1  0
 10 54  1  0
 10 55  1  0
 11 56  1  0
 11 57  1  0
 12 58  1  0
 12 59  1  0
 13 60  1  0
 13 61  1  0
 14 62  1  0
 14 63  1  0
 15 64  1  0
 15 65  1  0
 16 66  1  0
 16 67  1  0
 22 68  1  0
 22 69  1  0
 22 70  1  0
 31 71  1  0
 31 72  1  0
 32 73  1  0
 32 74  1  0
 33 75  1  0
 33 76  1  0
 34 77  1  0
 34 78  1  0
M  END
>  <UniqueID>  (13) 
11

>  <SMILES>  (13) 
CCCCCCCCCCCCCCCCc1nnc2n(C)c(=O)c3c4c(sc3n12)CCCC4

>  <Energy>  (13) 
139.15966494890333

>  <Genealogy>  (13) 
CCCCCCCCCCCCCCCCc1nnc2n(C)c(=O)c3c4c(sc3n12)CCCC4 (3D coordinates assigned)
CCCCCCCCCCCCCCCCc1nnc2n(C)c(=O)c3c4c(sc3n12)CCCC4 (nonaromatic ring conformer: 139.15966494890333 kcal/mol)

>  <smiles>  (13) 
CCCCCCCCCCCCCCCCc1nnc2n(C)c(=O)c3c4c(sc3n12)CCCC4

>  <score_type>  (13) 
oracle

>  <origin>  (13) 
adg

>  <m_score__min__energy>  (13) 
-8.4800000000000004

>  <m_primary>  (13) 
energy

$$$$
13:0
     RDKit          3D

 58 61  0  0  0  0  0  0  0  0999 V2000
   55.8800   31.0150   52.5540 C   0  0  0  0  0  0  0  0  0  0  0  0
   57.0480   30.2030   52.5360 O   0  0  0  0  0  0  0  0  0  0  0  0
   57.9890   30.1880   51.4950 C   0  0  0  0  0  0  0  0  0  0  0  0
   57.8770   31.1500   50.4870 C   0  0  0  0  0  0  0  0  0  0  0  0
   58.7810   31.1770   49.4270 C   0  0  0  0  0  0  0  0  0  0  0  0
   59.8090   30.2230   49.3450 C   0  0  0  0  0  0  0  0  0  0  0  0
   60.6920   30.1920   48.2040 N   0  0  0  0  0  0  0  0  0  0  0  0
   60.7470   29.0080   47.3280 C   0  0  0  0  0  0  0  0  0  0  0  0
   59.3680   28.6050   46.8570 C   0  0  0  0  0  0  0  0  0  0  0  0
   58.7880   27.4080   47.3200 C   0  0  0  0  0  0  0  0  0  0  0  0
   57.5070   27.0350   46.8990 C   0  0  0  0  0  0  0  0  0  0  0  0
   56.7900   27.8540   46.0210 C   0  0  0  0  0  0  0  0  0  0  0  0
   55.5210   27.4770   45.6040 O   0  0  0  0  0  0  0  0  0  0  0  0
   57.3510   29.0540   45.5680 C   0  0  0  0  0  0  0  0  0  0  0  0
   58.6310   29.4300   45.9880 C   0  0  0  0  0  0  0  0  0  0  0  0
   61.5870   31.2990   48.0010 C   0  0  0  0  0  0  0  0  0  0  0  0
   62.9350   31.2260   48.3900 C   0  0  0  0  0  0  0  0  0  0  0  0
   63.7800   32.3060   48.1270 C   0  0  0  0  0  0  0  0  0  0  0  0
   63.2840   33.4390   47.4780 C   0  0  0  0  0  0  0  0  0  0  0  0
   61.9400   33.4750   47.0900 C   0  0  0  0  0  0  0  0  0  0  0  0
   61.4740   34.5190   46.4760 N   0  0  0  0  0  0  0  0  0  0  0  0
   59.8120   35.0160   46.5440 S   0  0  0  0  0  0  0  0  0  0  0  0
   59.3590   34.9980   47.9760 O   0  0  0  0  0  0  0  0  0  0  0  0
   59.6740   36.4230   46.0360 O   0  0  0  0  0  0  0  0  0  0  0  0
   58.8210   33.8950   45.6010 C   0  0  0  0  0  0  0  0  0  0  0  0
   59.0250   33.7770   44.2120 C   0  0  0  0  0  0  0  0  0  0  0  0
   59.9770   34.5130   43.5840 F   0  0  0  0  0  0  0  0  0  0  0  0
   58.2410   32.9000   43.4550 C   0  0  0  0  0  0  0  0  0  0  0  0
   57.2400   32.1440   44.0740 C   0  0  0  0  0  0  0  0  0  0  0  0
   57.0190   32.2630   45.4510 C   0  0  0  0  0  0  0  0  0  0  0  0
   57.8040   33.1340   46.2170 C   0  0  0  0  0  0  0  0  0  0  0  0
   57.5640   33.2290   47.5500 F   0  0  0  0  0  0  0  0  0  0  0  0
   61.1370   32.4100   47.3580 N   0  0  0  0  0  0  0  0  0  0  0  0
   59.9300   29.2450   50.3510 C   0  0  0  0  0  0  0  0  0  0  0  0
   60.9630   28.2920   50.2480 O   0  0  0  0  0  0  0  0  0  0  0  0
   60.9540   27.0130   50.8720 C   0  0  0  0  0  0  0  0  0  0  0  0
   59.0250   29.2410   51.4290 C   0  0  0  0  0  0  0  0  0  0  0  0
   55.5897   31.2168   53.5956 H   0  0  0  0  0  0  0  0  0  0  0  0
   56.0863   31.9655   52.0401 H   0  0  0  0  0  0  0  0  0  0  0  0
   55.0609   30.4906   52.0401 H   0  0  0  0  0  0  0  0  0  0  0  0
   57.0671   31.8931   50.5310 H   0  0  0  0  0  0  0  0  0  0  0  0
   58.6892   31.9499   48.6497 H   0  0  0  0  0  0  0  0  0  0  0  0
   61.3707   29.2397   46.4521 H   0  0  0  0  0  0  0  0  0  0  0  0
   61.1744   28.1726   47.9019 H   0  0  0  0  0  0  0  0  0  0  0  0
   59.3448   26.7633   48.0159 H   0  0  0  0  0  0  0  0  0  0  0  0
   57.0628   26.0954   47.2594 H   0  0  0  0  0  0  0  0  0  0  0  0
   56.7851   29.7012   44.8817 H   0  0  0  0  0  0  0  0  0  0  0  0
   59.0646   30.3778   45.6362 H   0  0  0  0  0  0  0  0  0  0  0  0
   63.3203   30.3284   48.8959 H   0  0  0  0  0  0  0  0  0  0  0  0
   64.8364   32.2645   48.4309 H   0  0  0  0  0  0  0  0  0  0  0  0
   63.9438   34.2951   47.2738 H   0  0  0  0  0  0  0  0  0  0  0  0
   58.4117   32.8048   42.3725 H   0  0  0  0  0  0  0  0  0  0  0  0
   56.6251   31.4543   43.4772 H   0  0  0  0  0  0  0  0  0  0  0  0
   56.2269   31.6710   45.9327 H   0  0  0  0  0  0  0  0  0  0  0  0
   60.9549   27.1382   51.9649 H   0  0  0  0  0  0  0  0  0  0  0  0
   60.0520   26.4624   50.5667 H   0  0  0  0  0  0  0  0  0  0  0  0
   61.8482   26.4498   50.5667 H   0  0  0  0  0  0  0  0  0  0  0  0
   59.1296   28.4904   52.2263 H   0  0  0  0  0  0  0  0  0  0  0  0
  1  2  1  0
  2  3  1  0
  3  4  2  0
  4  5  1  0
  5  6  2  0
  6  7  1  0
  7  8  1  0
  8  9  1  0
  9 10  2  0
 10 11  1  0
 11 12  2  0
 12 13  1  0
 12 14  1  0
 14 15  2  0
  7 16  1  0
 16 17  2  0
 17 18  1  0
 18 19  2  0
 19 20  1  0
 20 21  2  3
 21 22  1  0
 22 23  2  0
 22 24  2  0
 22 25  1  0
 25 26  2  0
 26 27  1  0
 26 28  1  0
 28 29  2  0
 29 30  1  0
 30 31  2  0
 31 32  1  0
 20 33  1  0
  6 34  1  0
 34 35  1  0
 35 36  1  0
 34 37  2  0
 37  3  1  0
 15  9  1  0
 33 16  1  0
 31 25  1  0
  1 38  1  0
  1 39  1  0
  1 40  1  0
  4 41  1  0
  5 42  1  0
  8 43  1  0
  8 44  1  0
 10 45  1  0
 11 46  1  0
 14 47  1  0
 15 48  1  0
 17 49  1  0
 18 50  1  0
 19 51  1  0
 28 52  1  0
 29 53  1  0
 30 54  1  0
 36 55  1  0
 36 56  1  0
 36 57  1  0
 37 58  1  0
M  CHG  2  13  -1  33  -1
M  END
>  <UniqueID>  (14) 
12

>  <SMILES>  (14) 
COc1ccc(N(Cc2ccc([O-])cc2)c2cccc(=NS(=O)(=O)c3c(F)cccc3F)[n-]2)c(OC)c1

>  <Energy>  (14) 
71.88805930104576

>  <Genealogy>  (14) 
COc1ccc(N(Cc2ccc([O-])cc2)c2cccc(=NS(=O)(=O)c3c(F)cccc3F)[n-]2)c(OC)c1 (protonated)
COc1ccc(N(Cc2ccc([O-])cc2)c2cccc(=NS(=O)(=O)c3c(F)cccc3F)[n-]2)c(OC)c1 (3D coordinates assigned)
COc1ccc(N(Cc2ccc([O-])cc2)c2cccc(=NS(=O)(=O)c3c(F)cccc3F)[n-]2)c(OC)c1 (optimized conformer: 71.88805930104576 kcal/mol)

>  <smiles>  (14) 
COc1ccc(N(Cc2ccc(O)cc2)c2cccc(=NS(=O)(=O)c3c(F)cccc3F)[nH]2)c(OC)c1

>  <score_type>  (14) 
oracle

>  <origin>  (14) 
adg

>  <m_score__min__energy>  (14) 
-11.69

>  <m_primary>  (14) 
energy

$$$$
14:0
     RDKit          3D

 60 63  0  0  0  0  0  0  0  0999 V2000
   55.7840   23.8710   44.3810 C   0  0  0  0  0  0  0  0  0  0  0  0
   55.6350   24.7550   45.9160 S   0  0  0  0  0  0  0  0  0  0  0  0
   54.5700   24.1020   46.7470 O   0  0  0  0  0  0  0  0  0  0  0  0
   55.2390   26.1780   45.6420 O   0  0  0  0  0  0  0  0  0  0  0  0
   57.1430   24.6960   46.7800 N   0  0  0  0  0  0  0  0  0  0  0  0
   58.1260   25.6080   46.1880 C   0  0  1  0  0  0  0  0  0  0  0  0
   58.1260   25.5090   44.6560 C   0  0  0  0  0  0  0  0  0  0  0  0
   57.7050   26.8010   44.1130 N   0  0  0  0  0  0  0  0  0  0  0  0
   57.9870   27.7760   45.1700 C   0  0  1  0  0  0  0  0  0  0  0  0
   57.1440   29.0350   45.0430 C   0  0  0  0  0  0  0  0  0  0  0  0
   56.3370   29.1490   44.0810 O   0  0  0  0  0  0  0  0  0  0  0  0
   57.1950   30.0940   46.0140 N   0  0  0  0  0  0  0  0  0  0  0  0
   57.7720   31.2550   45.8870 C   0  0  0  0  0  0  0  0  0  0  0  0
   58.7610   31.6290   46.8020 C   0  0  0  0  0  0  0  0  0  0  0  0
   59.3940   32.8770   46.6830 C   0  0  0  0  0  0  0  0  0  0  0  0
   60.4630   33.2250   47.6440 C   0  0  0  0  0  0  0  0  0  0  0  0
   61.8010   33.3370   47.2390 C   0  0  0  0  0  0  0  0  0  0  0  0
   62.7820   33.6270   48.1850 C   0  0  0  0  0  0  0  0  0  0  0  0
   62.4320   33.7900   49.5270 C   0  0  0  0  0  0  0  0  0  0  0  0
   61.0850   33.6480   49.9140 C   0  0  0  0  0  0  0  0  0  0  0  0
   60.6860   33.7690   51.1480 N   0  0  0  0  0  0  0  0  0  0  0  0
   59.3170   33.8800   51.6620 C   0  0  0  0  0  0  0  0  0  0  0  0
   58.5020   32.5900   51.4300 C   0  0  0  0  0  0  0  0  0  0  0  0
   57.2640   32.4860   52.3330 C   0  0  0  0  0  0  0  0  0  0  0  0
   56.4830   31.1830   52.0400 C   0  0  0  0  0  0  0  0  0  0  0  0
   57.2140   30.2460   51.2620 O   0  0  0  0  0  0  0  0  0  0  0  0
   58.5090   30.0690   51.7990 C   0  0  0  0  0  0  0  0  0  0  0  0
   59.3730   31.3230   51.5710 C   0  0  0  0  0  0  0  0  0  0  0  0
   60.1530   33.3710   48.9620 N   0  0  0  0  0  0  0  0  0  0  0  0
   58.9800   33.7570   45.6600 C   0  0  0  0  0  0  0  0  0  0  0  0
   59.6070   35.3950   45.5070 Cl  0  0  0  0  0  0  0  0  0  0  0  0
   57.9800   33.3480   44.7740 C   0  0  0  0  0  0  0  0  0  0  0  0
   57.4070   32.1240   44.9050 N   0  0  0  0  0  0  0  0  0  0  0  0
   57.7490   27.0480   46.4870 C   0  0  0  0  0  0  0  0  0  0  0  0
   55.9636   22.8056   44.5874 H   0  0  0  0  0  0  0  0  0  0  0  0
   54.8547   23.9809   43.8029 H   0  0  0  0  0  0  0  0  0  0  0  0
   56.6260   24.2795   43.8029 H   0  0  0  0  0  0  0  0  0  0  0  0
   59.1029   25.3297   46.6102 H   0  0  0  0  0  0  0  0  0  0  0  0
   59.1379   25.2671   44.2987 H   0  0  0  0  0  0  0  0  0  0  0  0
   57.4375   24.7167   44.3270 H   0  0  0  0  0  0  0  0  0  0  0  0
   56.6690   26.7420   43.9710 H   0  0  0  0  0  0  0  0  0  0  0  0
   59.0236   28.1377   45.1016 H   0  0  0  0  0  0  0  0  0  0  0  0
   59.0435   30.9450   47.6158 H   0  0  0  0  0  0  0  0  0  0  0  0
   62.0739   33.1970   46.1826 H   0  0  0  0  0  0  0  0  0  0  0  0
   63.8325   33.7276   47.8746 H   0  0  0  0  0  0  0  0  0  0  0  0
   63.2019   34.0274   50.2759 H   0  0  0  0  0  0  0  0  0  0  0  0
   59.3594   34.0831   52.7423 H   0  0  0  0  0  0  0  0  0  0  0  0
   58.8178   34.6973   51.1209 H   0  0  0  0  0  0  0  0  0  0  0  0
   58.1440   32.6557   50.3920 H   0  0  0  0  0  0  0  0  0  0  0  0
   57.5834   32.4869   53.3856 H   0  0  0  0  0  0  0  0  0  0  0  0
   56.6069   33.3453   52.1335 H   0  0  0  0  0  0  0  0  0  0  0  0
   56.2218   30.7108   52.9986 H   0  0  0  0  0  0  0  0  0  0  0  0
   55.5937   31.4636   51.4565 H   0  0  0  0  0  0  0  0  0  0  0  0
   58.4282   29.8786   52.8794 H   0  0  0  0  0  0  0  0  0  0  0  0
   58.9860   29.2162   51.2938 H   0  0  0  0  0  0  0  0  0  0  0  0
   60.0528   31.4495   52.4265 H   0  0  0  0  0  0  0  0  0  0  0  0
   59.9400   31.1875   50.6382 H   0  0  0  0  0  0  0  0  0  0  0  0
   57.6554   34.0208   43.9665 H   0  0  0  0  0  0  0  0  0  0  0  0
   58.3866   27.4614   47.2824 H   0  0  0  0  0  0  0  0  0  0  0  0
   56.7130   27.1478   46.8431 H   0  0  0  0  0  0  0  0  0  0  0  0
  1  2  1  0
  2  3  2  0
  2  4  2  0
  2  5  1  0
  5  6  1  0
  6  7  1  0
  7  8  1  0
  8  9  1  0
  9 10  1  0
 10 11  2  0
 10 12  1  0
 12 13  2  3
 13 14  1  0
 14 15  2  0
 15 16  1  0
 16 17  2  0
 17 18  1  0
 18 19  2  0
 19 20  1  0
 20 21  2  3
 21 22  1  0
 22 23  1  0
 23 24  1  0
 24 25  1  0
 25 26  1  0
 26 27  1  0
 27 28  1  0
 20 29  1  0
 15 30  1  0
 30 31  1  0
 30 32  2  0
 32 33  1  0
  9 34  1  0
 34  6  1  0
 33 13  1  0
 29 16  1  0
 28 23  1  0
  1 35  1  0
  1 36  1  0
  1 37  1  0
  6 38  1  1
  7 39  1  0
  7 40  1  0
  8 41  1  0
  9 42  1  1
 14 43  1  0
 17 44  1  0
 18 45  1  0
 19 46  1  0
 22 47  1  0
 22 48  1  0
 23 49  1  0
 24 50  1  0
 24 51  1  0
 25 52  1  0
 25 53  1  0
 27 54  1  0
 27 55  1  0
 28 56  1  0
 28 57  1  0
 32 58  1  0
 34 59  1  0
 34 60  1  0
M  CHG  3   5  -1  29  -1  33  -1
M  END
>  <UniqueID>  (15) 
13

>  <SMILES>  (15) 
CS(=O)(=O)[N-][C@H]1CN[C@@H](C(=O)N=c2cc(-c3cccc(=NCC4CCOCC4)[n-]3)c(Cl)c[n-]2)C1

>  <Energy>  (15) 
82.98783620105688

>  <Genealogy>  (15) 
CS(=O)(=O)[N-]C1CNC(C(=O)N=c2cc(-c3cccc(=NCC4CCOCC4)[n-]3)c(Cl)c[n-]2)C1 (protonated)
CS(=O)(=O)[N-][C@H]1CN[C@@H](C(=O)N=c2cc(-c3cccc(=NCC4CCOCC4)[n-]3)c(Cl)c[n-]2)C1 (chirality)
CS(=O)(=O)[N-][C@H]1CN[C@@H](C(=O)N=c2cc(-c3cccc(=NCC4CCOCC4)[n-]3)c(Cl)c[n-]2)C1 (3D coordinates assigned)
CS(=O)(=O)[N-][C@H]1CN[C@@H](C(=O)N=c2cc(-c3cccc(=NCC4CCOCC4)[n-]3)c(Cl)c[n-]2)C1 (nonaromatic ring conformer: 82.98783620105688 kcal/mol)

>  <smiles>  (15) 
CS(=O)(=O)NC1CNC(C(=O)N=c2cc(-c3cccc(=NCC4CCOCC4)[nH]3)c(Cl)c[nH]2)C1

>  <score_type>  (15) 
oracle

>  <origin>  (15) 
adg

>  <m_score__min__energy>  (15) 
-14.119999999999999

>  <m_primary>  (15) 
energy

$$$$
15:0
     RDKit          3D

 62 66  0  0  0  0  0  0  0  0999 V2000
   59.6680   35.5410   45.7950 C   0  0  0  0  0  0  0  0  0  0  0  0
   58.9340   34.2710   45.4720 C   0  0  0  0  0  0  0  0  0  0  0  0
   58.3680   33.4950   46.4970 C   0  0  0  0  0  0  0  0  0  0  0  0
   57.7040   32.3020   46.1940 C   0  0  0  0  0  0  0  0  0  0  0  0
   57.6160   31.8620   44.8650 C   0  0  0  0  0  0  0  0  0  0  0  0
   56.7560   30.3770   44.4720 S   0  0  0  0  0  0  0  0  0  0  0  0
   55.3320   30.7150   44.1100 O   0  0  0  0  0  0  0  0  0  0  0  0
   57.3970   29.6990   43.2890 O   0  0  0  0  0  0  0  0  0  0  0  0
   56.7550   29.2900   45.8240 N   0  0  0  0  0  0  0  0  0  0  0  0
   57.8730   28.4420   46.1050 C   0  0  0  0  0  0  0  0  0  0  0  0
   58.0800   27.2850   45.3390 C   0  0  0  0  0  0  0  0  0  0  0  0
   59.1640   26.4480   45.5970 C   0  0  0  0  0  0  0  0  0  0  0  0
   60.0650   26.7580   46.6160 C   0  0  0  0  0  0  0  0  0  0  0  0
   59.8880   27.9160   47.3880 C   0  0  0  0  0  0  0  0  0  0  0  0
   60.7880   28.2260   48.4190 C   0  0  0  0  0  0  0  0  0  0  0  0
   60.5990   29.3690   49.2000 C   0  0  0  0  0  0  0  0  0  0  0  0
   59.5120   30.2170   48.9590 C   0  0  0  0  0  0  0  0  0  0  0  0
   59.2750   31.6350   49.9770 S   0  0  0  0  0  0  0  0  0  0  0  0
   59.9060   31.3840   51.3160 O   0  0  0  0  0  0  0  0  0  0  0  0
   57.8120   31.9100   50.1810 O   0  0  0  0  0  0  0  0  0  0  0  0
   60.0180   33.0210   49.2450 N   0  0  0  0  0  0  0  0  0  0  0  0
   61.3520   33.0180   48.7130 C   0  0  0  0  0  0  0  0  0  0  0  0
   61.6260   33.4270   47.3950 C   0  0  0  0  0  0  0  0  0  0  0  0
   62.9390   33.4380   46.9170 C   0  0  0  0  0  0  0  0  0  0  0  0
   63.9920   33.0430   47.7460 C   0  0  0  0  0  0  0  0  0  0  0  0
   63.7370   32.6090   49.0550 C   0  0  0  0  0  0  0  0  0  0  0  0
   64.8260   32.2290   49.9180 N   0  0  0  0  0  0  0  0  0  0  0  0
   65.9890   33.1200   50.0260 C   0  0  0  0  0  0  0  0  0  0  0  0
   67.1380   32.4360   50.7790 C   0  0  0  0  0  0  0  0  0  0  0  0
   66.6660   31.9040   52.0000 O   0  0  0  0  0  0  0  0  0  0  0  0
   65.8390   30.7790   51.7500 C   0  0  0  0  0  0  0  0  0  0  0  0
   64.6960   31.1220   50.8310 C   0  0  0  0  0  0  0  0  0  0  0  0
   63.6700   30.3850   50.8120 O   0  0  0  0  0  0  0  0  0  0  0  0
   62.4150   32.5940   49.5310 C   0  0  0  0  0  0  0  0  0  0  0  0
   58.6140   29.9230   47.9250 C   0  0  0  0  0  0  0  0  0  0  0  0
   58.7880   28.7730   47.1310 C   0  0  0  0  0  0  0  0  0  0  0  0
   58.1930   32.6270   43.8420 C   0  0  0  0  0  0  0  0  0  0  0  0
   58.8540   33.8220   44.1450 C   0  0  0  0  0  0  0  0  0  0  0  0
   59.7356   35.6579   46.8867 H   0  0  0  0  0  0  0  0  0  0  0  0
   60.6806   35.4982   45.3674 H   0  0  0  0  0  0  0  0  0  0  0  0
   59.1254   36.3970   45.3674 H   0  0  0  0  0  0  0  0  0  0  0  0
   58.4474   33.8271   47.5427 H   0  0  0  0  0  0  0  0  0  0  0  0
   57.2496   31.7072   47.0000 H   0  0  0  0  0  0  0  0  0  0  0  0
   57.3804   27.0362   44.5274 H   0  0  0  0  0  0  0  0  0  0  0  0
   59.3098   25.5392   44.9947 H   0  0  0  0  0  0  0  0  0  0  0  0
   60.9175   26.0919   46.8149 H   0  0  0  0  0  0  0  0  0  0  0  0
   61.6463   27.5660   48.6132 H   0  0  0  0  0  0  0  0  0  0  0  0
   61.3077   29.6034   50.0079 H   0  0  0  0  0  0  0  0  0  0  0  0
   59.4040   33.8500   49.0700 H   0  0  0  0  0  0  0  0  0  0  0  0
   60.8019   33.7399   46.7370 H   0  0  0  0  0  0  0  0  0  0  0  0
   63.1442   33.7586   45.8850 H   0  0  0  0  0  0  0  0  0  0  0  0
   65.0255   33.0725   47.3704 H   0  0  0  0  0  0  0  0  0  0  0  0
   66.3309   33.3892   49.0157 H   0  0  0  0  0  0  0  0  0  0  0  0
   65.6906   34.0195   50.5844 H   0  0  0  0  0  0  0  0  0  0  0  0
   67.5458   31.6228   50.1606 H   0  0  0  0  0  0  0  0  0  0  0  0
   67.9245   33.1762   50.9875 H   0  0  0  0  0  0  0  0  0  0  0  0
   66.4449   29.9872   51.2854 H   0  0  0  0  0  0  0  0  0  0  0  0
   65.4190   30.4419   52.7091 H   0  0  0  0  0  0  0  0  0  0  0  0
   62.2091   32.2470   50.5543 H   0  0  0  0  0  0  0  0  0  0  0  0
   57.7657   30.5961   47.7315 H   0  0  0  0  0  0  0  0  0  0  0  0
   58.1258   32.2867   42.7981 H   0  0  0  0  0  0  0  0  0  0  0  0
   59.3134   34.4128   43.3388 H   0  0  0  0  0  0  0  0  0  0  0  0
  1  2  1  0
  2  3  2  0
  3  4  1  0
  4  5  2  0
  5  6  1  0
  6  7  2  0
  6  8  2  0
  6  9  1  0
  9 10  1  0
 10 11  2  0
 11 12  1  0
 12 13  2  0
 13 14  1  0
 14 15  2  0
 15 16  1  0
 16 17  2  0
 17 18  1  0
 18 19  2  0
 18 20  2  0
 18 21  1  0
 21 22  1  0
 22 23  2  0
 23 24  1  0
 24 25  2  0
 25 26  1  0
 26 27  1  0
 27 28  1  0
 28 29  1  0
 29 30  1  0
 30 31  1  0
 31 32  1  0
 32 33  2  0
 26 34  2  0
 17 35  1  0
 35 36  2  0
  5 37  1  0
 37 38  2  0
 38  2  1  0
 36 10  1  0
 36 14  1  0
 34 22  1  0
 32 27  1  0
  1 39  1  0
  1 40  1  0
  1 41  1  0
  3 42  1  0
  4 43  1  0
 11 44  1  0
 12 45  1  0
 13 46  1  0
 15 47  1  0
 16 48  1  0
 21 49  1  0
 23 50  1  0
 24 51  1  0
 25 52  1  0
 28 53  1  0
 28 54  1  0
 29 55  1  0
 29 56  1  0
 31 57  1  0
 31 58  1  0
 34 59  1  0
 35 60  1  0
 37 61  1  0
 38 62  1  0
M  CHG  1   9  -1
M  END
>  <UniqueID>  (16) 
14

>  <SMILES>  (16) 
Cc1ccc(S(=O)(=O)[N-]c2cccc3ccc(S(=O)(=O)Nc4cccc(N5CCOCC5=O)c4)cc23)cc1

>  <Energy>  (16) 
91.57535023315151

>  <Genealogy>  (16) 
Cc1ccc(S(=O)(=O)[N-]c2cccc3ccc(S(=O)(=O)Nc4cccc(N5CCOCC5=O)c4)cc23)cc1 (protonated)
Cc1ccc(S(=O)(=O)[N-]c2cccc3ccc(S(=O)(=O)Nc4cccc(N5CCOCC5=O)c4)cc23)cc1 (3D coordinates assigned)
Cc1ccc(S(=O)(=O)[N-]c2cccc3ccc(S(=O)(=O)Nc4cccc(N5CCOCC5=O)c4)cc23)cc1 (nonaromatic ring conformer: 91.57535023315151 kcal/mol)

>  <smiles>  (16) 
Cc1ccc(S(=O)(=O)Nc2cccc3ccc(S(=O)(=O)Nc4cccc(N5CCOCC5=O)c4)cc23)cc1

>  <score_type>  (16) 
oracle

>  <origin>  (16) 
adg

>  <m_score__min__energy>  (16) 
-13.050000000000001

>  <m_primary>  (16) 
energy

$$$$
16:0
     RDKit          3D

 78 82  0  0  0  0  0  0  0  0999 V2000
   59.1180   33.5650   51.9510 C   0  0  0  0  0  0  0  0  0  0  0  0
   58.9610   33.0030   50.6520 O   0  0  0  0  0  0  0  0  0  0  0  0
   59.3730   31.7090   50.2900 C   0  0  0  0  0  0  0  0  0  0  0  0
   58.4560   30.6540   50.1110 C   0  0  0  0  0  0  0  0  0  0  0  0
   58.9060   29.3850   49.7410 C   0  0  0  0  0  0  0  0  0  0  0  0
   60.2730   29.1470   49.5440 C   0  0  0  0  0  0  0  0  0  0  0  0
   60.7440   27.7990   49.0830 C   0  0  0  0  0  0  0  0  0  0  0  0
   61.1860   30.1990   49.7020 C   0  0  0  0  0  0  0  0  0  0  0  0
   60.7450   31.4700   50.1070 C   0  0  0  0  0  0  0  0  0  0  0  0
   61.6700   32.5540   50.2490 N   0  0  0  0  0  0  0  0  0  0  0  0
   62.5230   33.0780   49.2210 C   0  0  0  0  0  0  0  0  0  0  0  0
   63.6780   32.5930   49.0980 O   0  0  0  0  0  0  0  0  0  0  0  0
   61.9990   34.0410   48.1710 C   0  0  0  0  0  0  0  0  0  0  0  0
   62.0260   33.4260   46.7460 C   0  0  0  0  0  0  0  0  0  0  0  0
   60.6590   32.8430   46.3670 C   0  0  0  0  0  0  0  0  0  0  0  0
   59.6020   33.8820   46.3470 N   0  0  0  0  0  0  0  0  0  0  0  0
   58.0300   33.1380   46.5190 S   0  0  0  0  0  0  0  0  0  0  0  0
   56.9620   34.0920   46.0600 O   0  0  0  0  0  0  0  0  0  0  0  0
   57.7690   32.7930   47.9600 O   0  0  0  0  0  0  0  0  0  0  0  0
   57.9460   31.6790   45.5340 C   0  0  0  0  0  0  0  0  0  0  0  0
   57.6500   31.7680   44.1670 C   0  0  0  0  0  0  0  0  0  0  0  0
   57.5660   30.6120   43.3890 C   0  0  0  0  0  0  0  0  0  0  0  0
   57.7790   29.3570   43.9680 C   0  0  0  0  0  0  0  0  0  0  0  0
   57.7000   28.2380   43.2030 N   0  0  0  0  0  0  0  0  0  0  0  0
   57.9100   26.9990   43.7160 C   0  0  0  0  0  0  0  0  0  0  0  0
   58.2250   26.8360   45.0740 C   0  0  0  0  0  0  0  0  0  0  0  0
   58.4480   25.4770   45.6200 C   0  0  0  0  0  0  0  0  0  0  0  0
   59.4690   25.2610   46.3280 O   0  0  0  0  0  0  0  0  0  0  0  0
   57.5280   24.3980   45.3520 N   0  0  0  0  0  0  0  0  0  0  0  0
   57.0000   24.2730   43.9780 C   0  0  0  0  0  0  0  0  0  0  0  0
   56.1770   22.9970   43.7540 C   0  0  1  0  0  0  0  0  0  0  0  0
   57.0590   21.7910   43.3880 C   0  0  0  0  0  0  0  0  0  0  0  0
   55.2940   22.7400   44.9780 C   0  0  0  0  0  0  0  0  0  0  0  0
   56.1290   22.4530   46.2390 C   0  0  2  0  0  0  0  0  0  0  0  0
   55.2460   22.5580   47.4940 C   0  0  0  0  0  0  0  0  0  0  0  0
   57.4080   23.3330   46.3650 C   0  0  0  0  0  0  0  0  0  0  0  0
   58.2980   27.9760   45.8980 C   0  0  0  0  0  0  0  0  0  0  0  0
   58.5790   27.8530   47.1240 O   0  0  0  0  0  0  0  0  0  0  0  0
   58.0770   29.2530   45.3460 C   0  0  0  0  0  0  0  0  0  0  0  0
   58.1510   30.4240   46.1240 C   0  0  0  0  0  0  0  0  0  0  0  0
   59.7880   34.9690   47.3410 C   0  0  0  0  0  0  0  0  0  0  0  0
   60.5840   34.5150   48.5710 C   0  0  0  0  0  0  0  0  0  0  0  0
   58.9039   32.7986   52.7104 H   0  0  0  0  0  0  0  0  0  0  0  0
   60.1507   33.9236   52.0730 H   0  0  0  0  0  0  0  0  0  0  0  0
   58.4207   34.4069   52.0730 H   0  0  0  0  0  0  0  0  0  0  0  0
   57.3811   30.8310   50.2634 H   0  0  0  0  0  0  0  0  0  0  0  0
   58.1833   28.5673   49.6033 H   0  0  0  0  0  0  0  0  0  0  0  0
   60.9642   27.1688   49.9573 H   0  0  0  0  0  0  0  0  0  0  0  0
   59.9587   27.3237   48.4769 H   0  0  0  0  0  0  0  0  0  0  0  0
   61.6544   27.9162   48.4769 H   0  0  0  0  0  0  0  0  0  0  0  0
   62.2551   30.0282   49.5075 H   0  0  0  0  0  0  0  0  0  0  0  0
   62.6667   34.9143   48.1317 H   0  0  0  0  0  0  0  0  0  0  0  0
   62.2950   34.2094   46.0222 H   0  0  0  0  0  0  0  0  0  0  0  0
   62.7672   32.6133   46.7316 H   0  0  0  0  0  0  0  0  0  0  0  0
   60.7306   32.3890   45.3676 H   0  0  0  0  0  0  0  0  0  0  0  0
   60.3861   32.0932   47.1242 H   0  0  0  0  0  0  0  0  0  0  0  0
   57.4833   32.7524   43.7054 H   0  0  0  0  0  0  0  0  0  0  0  0
   57.3315   30.6885   42.3170 H   0  0  0  0  0  0  0  0  0  0  0  0
   57.8328   26.1170   43.0632 H   0  0  0  0  0  0  0  0  0  0  0  0
   56.3586   25.1423   43.7707 H   0  0  0  0  0  0  0  0  0  0  0  0
   57.8657   24.2236   43.3011 H   0  0  0  0  0  0  0  0  0  0  0  0
   55.5213   23.1453   42.8833 H   0  0  0  0  0  0  0  0  0  0  0  0
   57.4149   21.3044   44.3081 H   0  0  0  0  0  0  0  0  0  0  0  0
   56.4714   21.0729   42.7971 H   0  0  0  0  0  0  0  0  0  0  0  0
   57.9214   22.1333   42.7971 H   0  0  0  0  0  0  0  0  0  0  0  0
   54.6703   23.6278   45.1591 H   0  0  0  0  0  0  0  0  0  0  0  0
   54.6743   21.8550   44.7711 H   0  0  0  0  0  0  0  0  0  0  0  0
   56.5004   21.4222   46.1413 H   0  0  0  0  0  0  0  0  0  0  0  0
   55.8758   22.4831   48.3928 H   0  0  0  0  0  0  0  0  0  0  0  0
   54.7214   23.5249   47.4934 H   0  0  0  0  0  0  0  0  0  0  0  0
   54.5093   21.7411   47.4934 H   0  0  0  0  0  0  0  0  0  0  0  0
   57.4022   23.8049   47.3586 H   0  0  0  0  0  0  0  0  0  0  0  0
   58.2638   22.6597   46.2094 H   0  0  0  0  0  0  0  0  0  0  0  0
   58.3706   30.3539   47.1996 H   0  0  0  0  0  0  0  0  0  0  0  0
   60.3268   35.7982   46.8593 H   0  0  0  0  0  0  0  0  0  0  0  0
   58.7905   35.2787   47.6860 H   0  0  0  0  0  0  0  0  0  0  0  0
   60.6719   35.3569   49.2734 H   0  0  0  0  0  0  0  0  0  0  0  0
   60.0528   33.6744   49.0414 H   0  0  0  0  0  0  0  0  0  0  0  0
  1  2  1  0
  2  3  1  0
  3  4  2  0
  4  5  1  0
  5  6  2  0
  6  7  1  0
  6  8  1  0
  8  9  2  0
  9 10  1  0
 10 11  1  0
 11 12  2  0
 11 13  1  0
 13 14  1  0
 14 15  1  0
 15 16  1  0
 16 17  1  0
 17 18  2  0
 17 19  2  0
 17 20  1  0
 20 21  2  0
 21 22  1  0
 22 23  2  0
 23 24  1  0
 24 25  1  0
 25 26  2  0
 26 27  1  0
 27 28  2  0
 27 29  1  0
 29 30  1  0
 30 31  1  0
 31 32  1  0
 31 33  1  0
 33 34  1  0
 34 35  1  0
 34 36  1  0
 26 37  1  0
 37 38  2  0
 37 39  1  0
 39 40  2  0
 16 41  1  0
 41 42  1  0
  9  3  1  0
 42 13  1  0
 40 20  1  0
 39 23  1  0
 36 29  1  0
  1 43  1  0
  1 44  1  0
  1 45  1  0
  4 46  1  0
  5 47  1  0
  7 48  1  0
  7 49  1  0
  7 50  1  0
  8 51  1  0
 13 52  1  0
 14 53  1  0
 14 54  1  0
 15 55  1  0
 15 56  1  0
 21 57  1  0
 22 58  1  0
 25 59  1  0
 30 60  1  0
 30 61  1  0
 31 62  1  6
 32 63  1  0
 32 64  1  0
 32 65  1  0
 33 66  1  0
 33 67  1  0
 34 68  1  6
 35 69  1  0
 35 70  1  0
 35 71  1  0
 36 72  1  0
 36 73  1  0
 40 74  1  0
 41 75  1  0
 41 76  1  0
 42 77  1  0
 42 78  1  0
M  CHG  2  10  -1  24  -1
M  END
>  <UniqueID>  (17) 
15

>  <SMILES>  (17) 
COc1ccc(C)cc1[N-]C(=O)C1CCN(S(=O)(=O)c2ccc3[n-]cc(C(=O)N4C[C@@H](C)C[C@H](C)C4)c(=O)c3c2)CC1

>  <Energy>  (17) 
106.06950753116206

>  <Genealogy>  (17) 
COc1ccc(C)cc1[N-]C(=O)C1CCN(S(=O)(=O)c2ccc3[n-]cc(C(=O)N4CC(C)CC(C)C4)c(=O)c3c2)CC1 (protonated)
COc1ccc(C)cc1[N-]C(=O)C1CCN(S(=O)(=O)c2ccc3[n-]cc(C(=O)N4C[C@@H](C)C[C@H](C)C4)c(=O)c3c2)CC1 (chirality)
COc1ccc(C)cc1[N-]C(=O)C1CCN(S(=O)(=O)c2ccc3[n-]cc(C(=O)N4C[C@@H](C)C[C@H](C)C4)c(=O)c3c2)CC1 (3D coordinates assigned)
COc1ccc(C)cc1[N-]C(=O)C1CCN(S(=O)(=O)c2ccc3[n-]cc(C(=O)N4C[C@@H](C)C[C@H](C)C4)c(=O)c3c2)CC1 (nonaromatic ring conformer: 106.06950753116206 kcal/mol)

>  <smiles>  (17) 
COc1ccc(C)cc1NC(=O)C1CCN(S(=O)(=O)c2ccc3[nH]cc(C(=O)N4CC(C)CC(C)C4)c(=O)c3c2)CC1

>  <score_type>  (17) 
oracle

>  <origin>  (17) 
adg

>  <m_score__min__energy>  (17) 
-14.960000000000001

>  <m_primary>  (17) 
energy

$$$$
17:0
     RDKit          3D

 34 35  0  0  0  0  0  0  0  0999 V2000
   55.1550   26.7040   45.9690 N   0  0  0  0  0  0  0  0  0  0  0  0
   56.3060   25.4170   46.0300 S   0  0  0  0  0  0  0  0  0  0  0  0
   55.8390   24.3720   47.0060 O   0  0  0  0  0  0  0  0  0  0  0  0
   56.4260   24.7880   44.6710 O   0  0  0  0  0  0  0  0  0  0  0  0
   57.8700   26.0500   46.5340 C   0  0  0  0  0  0  0  0  0  0  0  0
   59.0510   25.5120   46.0070 C   0  0  0  0  0  0  0  0  0  0  0  0
   60.2910   25.9900   46.4340 C   0  0  0  0  0  0  0  0  0  0  0  0
   60.3590   27.0120   47.3840 C   0  0  0  0  0  0  0  0  0  0  0  0
   59.1870   27.5740   47.9070 C   0  0  0  0  0  0  0  0  0  0  0  0
   59.3010   28.6030   48.9010 N   0  0  0  0  0  0  0  0  0  0  0  0
   58.9900   29.9900   48.7300 C   0  0  0  0  0  0  0  0  0  0  0  0
   58.1950   30.5780   49.5120 O   0  0  0  0  0  0  0  0  0  0  0  0
   59.6020   30.7420   47.5950 C   0  0  0  0  0  0  0  0  0  0  0  0
   58.6410   31.6440   47.0610 O   0  0  0  0  0  0  0  0  0  0  0  0
   57.9330   31.3890   45.8820 C   0  0  0  0  0  0  0  0  0  0  0  0
   57.1410   32.2600   45.4260 O   0  0  0  0  0  0  0  0  0  0  0  0
   58.1200   30.0950   45.1770 C   0  0  0  0  0  0  0  0  0  0  0  0
   59.4180   29.6740   44.8330 C   0  0  0  0  0  0  0  0  0  0  0  0
   59.6160   28.4620   44.1720 C   0  0  0  0  0  0  0  0  0  0  0  0
   58.5160   27.6690   43.8530 C   0  0  0  0  0  0  0  0  0  0  0  0
   57.2640   28.0790   44.1860 N   0  0  0  0  0  0  0  0  0  0  0  0
   57.0360   29.2550   44.8300 C   0  0  0  0  0  0  0  0  0  0  0  0
   55.8500   29.5750   45.1100 O   0  0  0  0  0  0  0  0  0  0  0  0
   57.9400   27.0710   47.4940 C   0  0  0  0  0  0  0  0  0  0  0  0
   55.5320   27.4190   45.3080 H   0  0  0  0  0  0  0  0  0  0  0  0
   59.0012   24.7109   45.2548 H   0  0  0  0  0  0  0  0  0  0  0  0
   61.2163   25.5612   46.0217 H   0  0  0  0  0  0  0  0  0  0  0  0
   61.3392   27.3779   47.7237 H   0  0  0  0  0  0  0  0  0  0  0  0
   60.4755   31.3054   47.9551 H   0  0  0  0  0  0  0  0  0  0  0  0
   59.9220   30.0369   46.8137 H   0  0  0  0  0  0  0  0  0  0  0  0
   60.2823   30.3052   45.0872 H   0  0  0  0  0  0  0  0  0  0  0  0
   60.6318   28.1351   43.9049 H   0  0  0  0  0  0  0  0  0  0  0  0
   58.6609   26.7113   43.3317 H   0  0  0  0  0  0  0  0  0  0  0  0
   57.0148   27.4802   47.9259 H   0  0  0  0  0  0  0  0  0  0  0  0
  1  2  1  0
  2  3  2  0
  2  4  2  0
  2  5  1  0
  5  6  2  0
  6  7  1  0
  7  8  2  0
  8  9  1  0
  9 10  1  0
 10 11  1  0
 11 12  2  0
 11 13  1  0
 13 14  1  0
 14 15  1  0
 15 16  2  0
 15 17  1  0
 17 18  2  0
 18 19  1  0
 19 20  2  0
 20 21  1  0
 21 22  1  0
 22 23  2  0
  9 24  2  0
 24  5  1  0
 22 17  1  0
  1 25  1  0
  6 26  1  0
  7 27  1  0
  8 28  1  0
 13 29  1  0
 13 30  1  0
 18 31  1  0
 19 32  1  0
 20 33  1  0
 24 34  1  0
M  CHG  3   1  -1  10  -1  21  -1
M  END
>  <UniqueID>  (18) 
16

>  <SMILES>  (18) 
[NH-]S(=O)(=O)c1cccc([N-]C(=O)COC(=O)c2ccc[n-]c2=O)c1

>  <Energy>  (18) 
37.68559256714043

>  <Genealogy>  (18) 
[NH-]S(=O)(=O)c1cccc([N-]C(=O)COC(=O)c2ccc[n-]c2=O)c1 (protonated)
[NH-]S(=O)(=O)c1cccc([N-]C(=O)COC(=O)c2ccc[n-]c2=O)c1 (3D coordinates assigned)
[NH-]S(=O)(=O)c1cccc([N-]C(=O)COC(=O)c2ccc[n-]c2=O)c1 (optimized conformer: 37.68559256714043 kcal/mol)

>  <smiles>  (18) 
NS(=O)(=O)c1cccc(NC(=O)COC(=O)c2ccc[nH]c2=O)c1

>  <score_type>  (18) 
oracle

>  <origin>  (18) 
adg

>  <m_score__min__energy>  (18) 
-12.84

>  <m_primary>  (18) 
energy

$$$$
18:0
     RDKit          3D

 42 44  0  0  0  0  0  0  0  0999 V2000
   55.1810   29.7170   44.8530 O   0  0  0  0  0  0  0  0  0  0  0  0
   56.4180   29.7370   44.6220 C   0  0  0  0  0  0  0  0  0  0  0  0
   56.9030   30.3010   43.3200 C   0  0  0  0  0  0  0  0  0  0  0  0
   58.0180   31.1550   43.5610 O   0  0  0  0  0  0  0  0  0  0  0  0
   58.0890   32.0920   44.6020 C   0  0  0  0  0  0  0  0  0  0  0  0
   57.4220   33.3330   44.5510 C   0  0  0  0  0  0  0  0  0  0  0  0
   57.5290   34.2330   45.6170 C   0  0  0  0  0  0  0  0  0  0  0  0
   58.2970   33.9050   46.7370 C   0  0  0  0  0  0  0  0  0  0  0  0
   58.9600   32.6760   46.7940 C   0  0  0  0  0  0  0  0  0  0  0  0
   58.8560   31.7740   45.7310 C   0  0  0  0  0  0  0  0  0  0  0  0
   57.3140   29.1650   45.5860 N   0  0  0  0  0  0  0  0  0  0  0  0
   57.4250   27.7770   45.9320 C   0  0  0  0  0  0  0  0  0  0  0  0
   58.6590   27.2000   46.2740 C   0  0  0  0  0  0  0  0  0  0  0  0
   58.7310   25.8480   46.6190 C   0  0  0  0  0  0  0  0  0  0  0  0
   57.5720   25.0700   46.6520 C   0  0  0  0  0  0  0  0  0  0  0  0
   56.3280   25.6450   46.3670 C   0  0  0  0  0  0  0  0  0  0  0  0
   55.1550   24.8180   46.4140 N   0  0  0  0  0  0  0  0  0  0  0  0
   54.7170   23.9110   45.3940 C   0  0  0  0  0  0  0  0  0  0  0  0
   53.5020   23.9250   45.0580 O   0  0  0  0  0  0  0  0  0  0  0  0
   55.6540   23.0050   44.6910 C   0  0  0  0  0  0  0  0  0  0  0  0
   56.4660   22.1070   45.4090 C   0  0  0  0  0  0  0  0  0  0  0  0
   57.3490   21.2570   44.7350 C   0  0  0  0  0  0  0  0  0  0  0  0
   57.4380   21.3030   43.3410 C   0  0  0  0  0  0  0  0  0  0  0  0
   56.6490   22.2010   42.6200 C   0  0  0  0  0  0  0  0  0  0  0  0
   55.7650   23.0530   43.2890 C   0  0  0  0  0  0  0  0  0  0  0  0
   56.2620   27.0000   45.9960 C   0  0  0  0  0  0  0  0  0  0  0  0
   57.2068   29.4795   42.6545 H   0  0  0  0  0  0  0  0  0  0  0  0
   56.0949   30.8765   42.8447 H   0  0  0  0  0  0  0  0  0  0  0  0
   56.8160   33.5944   43.6710 H   0  0  0  0  0  0  0  0  0  0  0  0
   57.0075   35.2005   45.5731 H   0  0  0  0  0  0  0  0  0  0  0  0
   58.3799   34.6140   47.5739 H   0  0  0  0  0  0  0  0  0  0  0  0
   59.5643   32.4181   47.6762 H   0  0  0  0  0  0  0  0  0  0  0  0
   59.3798   30.8080   45.7811 H   0  0  0  0  0  0  0  0  0  0  0  0
   59.5715   27.8143   46.2702 H   0  0  0  0  0  0  0  0  0  0  0  0
   59.7029   25.3955   46.8652 H   0  0  0  0  0  0  0  0  0  0  0  0
   57.6368   24.0010   46.9030 H   0  0  0  0  0  0  0  0  0  0  0  0
   56.4058   22.0735   46.5068 H   0  0  0  0  0  0  0  0  0  0  0  0
   57.9739   20.5518   45.3026 H   0  0  0  0  0  0  0  0  0  0  0  0
   58.1300   20.6314   42.8118 H   0  0  0  0  0  0  0  0  0  0  0  0
   56.7229   22.2384   41.5231 H   0  0  0  0  0  0  0  0  0  0  0  0
   55.1527   23.7650   42.7161 H   0  0  0  0  0  0  0  0  0  0  0  0
   55.2891   27.4529   45.7542 H   0  0  0  0  0  0  0  0  0  0  0  0
  1  2  2  0
  2  3  1  0
  3  4  1  0
  4  5  1  0
  5  6  2  0
  6  7  1  0
  7  8  2  0
  8  9  1  0
  9 10  2  0
  2 11  1  0
 11 12  1  0
 12 13  2  0
 13 14  1  0
 14 15  2  0
 15 16  1  0
 16 17  1  0
 17 18  1  0
 18 19  2  0
 18 20  1  0
 20 21  2  0
 21 22  1  0
 22 23  2  0
 23 24  1  0
 24 25  2  0
 16 26  2  0
 10  5  1  0
 26 12  1  0
 25 20  1  0
  3 27  1  0
  3 28  1  0
  6 29  1  0
  7 30  1  0
  8 31  1  0
  9 32  1  0
 10 33  1  0
 13 34  1  0
 14 35  1  0
 15 36  1  0
 21 37  1  0
 22 38  1  0
 23 39  1  0
 24 40  1  0
 25 41  1  0
 26 42  1  0
M  CHG  2  11  -1  17  -1
M  END
>  <UniqueID>  (19) 
17

>  <SMILES>  (19) 
O=C(COc1ccccc1)[N-]c1cccc([N-]C(=O)c2ccccc2)c1

>  <Energy>  (19) 
54.75687629485517

>  <Genealogy>  (19) 
O=C(COc1ccccc1)[N-]c1cccc([N-]C(=O)c2ccccc2)c1 (protonated)
O=C(COc1ccccc1)[N-]c1cccc([N-]C(=O)c2ccccc2)c1 (3D coordinates assigned)
O=C(COc1ccccc1)[N-]c1cccc([N-]C(=O)c2ccccc2)c1 (optimized conformer: 54.75687629485517 kcal/mol)

>  <smiles>  (19) 
O=C(COc1ccccc1)Nc1cccc(NC(=O)c2ccccc2)c1

>  <score_type>  (19) 
oracle

>  <origin>  (19) 
adg

>  <m_score__min__energy>  (19) 
-12.16

>  <m_primary>  (19) 
energy

$$$$
19:0
     RDKit          3D

 47 51  0  0  0  0  0  0  0  0999 V2000
   55.9600   27.0100   46.5380 H   0  0  0  0  0  0  0  0  0  0  0  0
   55.1440   26.7110   46.0200 O   0  0  0  0  0  0  0  0  0  0  0  0
   54.9610   25.3880   45.6270 C   0  0  0  0  0  0  0  0  0  0  0  0
   53.8230   24.7090   45.8530 N   0  0  0  0  0  0  0  0  0  0  0  0
   54.0830   23.4990   45.3180 C   0  0  0  0  0  0  0  0  0  0  0  0
   53.2470   22.5600   45.3290 O   0  0  0  0  0  0  0  0  0  0  0  0
   55.3090   23.3760   44.7710 N   0  0  0  0  0  0  0  0  0  0  0  0
   55.8710   24.5830   44.9670 C   0  0  0  0  0  0  0  0  0  0  0  0
   57.2350   24.9710   44.5400 C   0  0  0  0  0  0  0  0  0  0  0  0
   57.5233   24.7459   43.5026 H   0  0  0  0  0  0  0  0  0  0  0  0
   58.1490   25.5760   45.3180 C   0  0  0  0  0  0  0  0  0  0  0  0
   59.2360   25.0480   46.0110 C   0  0  0  0  0  0  0  0  0  0  0  0
   59.5257   23.9869   46.0222 H   0  0  0  0  0  0  0  0  0  0  0  0
   59.8810   26.0390   46.6680 N   0  0  0  0  0  0  0  0  0  0  0  0
   59.2510   27.1740   46.4210 N   0  0  0  0  0  0  0  0  0  0  0  0
   59.5150   28.4490   46.8510 C   0  0  0  0  0  0  0  0  0  0  0  0
   60.5000   28.8080   47.6410 N   0  0  0  0  0  0  0  0  0  0  0  0
   60.7810   29.3490   48.9850 C   0  0  0  0  0  0  0  0  0  0  0  0
   61.2950   28.4313   49.3071 H   0  0  0  0  0  0  0  0  0  0  0  0
   61.0800   30.8260   49.0980 C   0  0  0  0  0  0  0  0  0  0  0  0
   61.8354   31.1827   49.8137 H   0  0  0  0  0  0  0  0  0  0  0  0
   61.3744   31.6194   48.3953 H   0  0  0  0  0  0  0  0  0  0  0  0
   59.7440   30.2570   49.6060 C   0  0  0  0  0  0  0  0  0  0  0  0
   59.5413   30.2055   50.6859 H   0  0  0  0  0  0  0  0  0  0  0  0
   58.6816   30.4723   49.4193 H   0  0  0  0  0  0  0  0  0  0  0  0
   58.6780   29.4330   46.4240 N   0  0  0  0  0  0  0  0  0  0  0  0
   57.6150   29.1730   45.6050 C   0  0  0  0  0  0  0  0  0  0  0  0
   56.8220   30.1260   45.2170 N   0  0  0  0  0  0  0  0  0  0  0  0
   57.1720   31.1610   44.2430 C   0  0  0  0  0  0  0  0  0  0  0  0
   56.2564   31.5145   43.7463 H   0  0  0  0  0  0  0  0  0  0  0  0
   57.8647   30.7327   43.5036 H   0  0  0  0  0  0  0  0  0  0  0  0
   57.8460   32.3230   44.9240 C   0  0  0  0  0  0  0  0  0  0  0  0
   58.2210   33.4500   44.1780 C   0  0  0  0  0  0  0  0  0  0  0  0
   58.0385   33.4749   43.0935 H   0  0  0  0  0  0  0  0  0  0  0  0
   58.8260   34.5420   44.8080 C   0  0  0  0  0  0  0  0  0  0  0  0
   59.1265   35.4192   44.2162 H   0  0  0  0  0  0  0  0  0  0  0  0
   59.0500   34.5220   46.1880 C   0  0  0  0  0  0  0  0  0  0  0  0
   59.6440   35.5900   46.7790 F   0  0  0  0  0  0  0  0  0  0  0  0
   58.6610   33.4090   46.9500 C   0  0  0  0  0  0  0  0  0  0  0  0
   58.9170   33.3770   48.4300 C   0  0  0  0  0  0  0  0  0  0  0  0
   57.9657   33.4959   48.9693 H   0  0  0  0  0  0  0  0  0  0  0  0
   59.3750   32.4146   48.7022 H   0  0  0  0  0  0  0  0  0  0  0  0
   59.5978   34.1970   48.7022 H   0  0  0  0  0  0  0  0  0  0  0  0
   58.0720   32.3060   46.3110 C   0  0  0  0  0  0  0  0  0  0  0  0
   57.7855   31.4224   46.9002 H   0  0  0  0  0  0  0  0  0  0  0  0
   57.3760   27.9010   45.1920 N   0  0  0  0  0  0  0  0  0  0  0  0
   58.2090   26.9210   45.6140 C   0  0  0  0  0  0  0  0  0  0  0  0
  1  2  1  0
  2  3  1  0
  3  4  1  0
  4  5  1  0
  5  6  2  0
  5  7  1  0
  7  8  1  0
  8  9  1  0
  9 10  1  0
  9 11  2  0
 11 12  1  0
 12 13  1  0
 12 14  2  0
 14 15  1  0
 15 16  1  0
 16 17  2  3
 17 18  1  0
 18 19  1  0
 18 20  1  0
 20 21  1  0
 20 22  1  0
 20 23  1  0
 23 24  1  0
 23 25  1  0
 16 26  1  0
 26 27  1  0
 27 28  2  3
 28 29  1  0
 29 30  1  0
 29 31  1  0
 29 32  1  0
 32 33  2  0
 33 34  1  0
 33 35  1  0
 35 36  1  0
 35 37  2  0
 37 38  1  0
 37 39  1  0
 39 40  1  0
 40 41  1  0
 40 42  1  0
 40 43  1  0
 39 44  2  0
 44 45  1  0
 27 46  1  0
 46 47  2  0
  8  3  2  0
 47 11  1  0
 47 15  1  0
 23 18  1  0
 44 32  1  0
M  CHG  3   4  -1   7  -1  26  -1
M  END
>  <UniqueID>  (20) 
18

>  <SMILES>  (20) 
Cc1cc(CN=c2nc3/c(=C/c4[n-]c(=O)[n-]c4O)cnn3c(=NC3CC3)[n-]2)ccc1F

>  <Energy>  (20) 
411.6444127276279

>  <Genealogy>  (20) 
Cc1cc(CN=c2nc3c(=Cc4[n-]c(=O)[n-]c4O)cnn3c(=NC3CC3)[n-]2)ccc1F (protonated)
Cc1cc(CN=c2nc3/c(=C/c4[n-]c(=O)[n-]c4O)cnn3c(=NC3CC3)[n-]2)ccc1F (cis-trans isomerization)
Cc1cc(CN=c2nc3/c(=C/c4[n-]c(=O)[n-]c4O)cnn3c(=NC3CC3)[n-]2)ccc1F (3D coordinates assigned)
Cc1cc(CN=c2nc3/c(=C/c4[n-]c(=O)[n-]c4O)cnn3c(=NC3CC3)[n-]2)ccc1F (nonaromatic ring conformer: 411.6444127276279 kcal/mol)

>  <smiles>  (20) 
Cc1cc(CN=c2nc3c(=Cc4[nH]c(=O)[nH]c4O)cnn3c(=NC3CC3)[nH]2)ccc1F

>  <score_type>  (20) 
oracle

>  <origin>  (20) 
adg

>  <m_score__min__energy>  (20) 
-14.619999999999999

>  <m_primary>  (20) 
energy

$$$$
20:0
     RDKit          3D

 63 65  0  0  0  0  0  0  0  0999 V2000
   57.9860   23.5530   44.8640 C   0  0  0  0  0  0  0  0  0  0  0  0
   58.7140   23.9500   45.9120 C   0  0  0  0  0  0  0  0  0  0  0  0
   58.1510   24.8410   46.9880 C   0  0  0  0  0  0  0  0  0  0  0  0
   57.6810   26.1350   46.4370 N   0  0  0  0  0  0  0  0  0  0  0  0
   58.5280   27.2250   46.3590 C   0  0  0  0  0  0  0  0  0  0  0  0
   59.9210   27.1130   46.7060 N   0  0  0  0  0  0  0  0  0  0  0  0
   58.0290   28.4700   45.9070 C   0  0  0  0  0  0  0  0  0  0  0  0
   58.8640   29.6500   45.9090 N   0  0  0  0  0  0  0  0  0  0  0  0
   59.2420   30.2290   44.6010 C   0  0  0  0  0  0  0  0  0  0  0  0
   58.4040   31.4660   44.1740 C   0  0  0  0  0  0  0  0  0  0  0  0
   57.6970   32.1600   45.3460 C   0  0  0  0  0  0  0  0  0  0  0  0
   57.4050   31.1570   43.0560 C   0  0  0  0  0  0  0  0  0  0  0  0
   59.6210   29.9620   47.1010 C   0  0  0  0  0  0  0  0  0  0  0  0
   60.8790   29.9050   47.0880 O   0  0  0  0  0  0  0  0  0  0  0  0
   58.9570   30.3920   48.3750 C   0  0  0  0  0  0  0  0  0  0  0  0
   60.0480   30.0340   49.7920 S   0  0  0  0  0  0  0  0  0  0  0  0
   59.6600   31.5720   50.6410 C   0  0  0  0  0  0  0  0  0  0  0  0
   59.1160   31.6060   51.8750 N   0  0  0  0  0  0  0  0  0  0  0  0
   58.8820   32.9170   52.0970 C   0  0  0  0  0  0  0  0  0  0  0  0
   59.2870   33.6500   51.0040 C   0  0  0  0  0  0  0  0  0  0  0  0
   59.7850   32.7990   50.0910 N   0  0  0  0  0  0  0  0  0  0  0  0
   60.3950   33.1560   48.8380 C   0  0  0  0  0  0  0  0  0  0  0  0
   59.6540   33.8420   47.8630 C   0  0  0  0  0  0  0  0  0  0  0  0
   60.2350   34.1760   46.6310 C   0  0  0  0  0  0  0  0  0  0  0  0
   59.4460   34.9370   45.6040 C   0  0  0  0  0  0  0  0  0  0  0  0
   61.5760   33.8490   46.3890 C   0  0  0  0  0  0  0  0  0  0  0  0
   62.3300   33.1710   47.3620 C   0  0  0  0  0  0  0  0  0  0  0  0
   63.7660   32.8410   47.0880 C   0  0  0  0  0  0  0  0  0  0  0  0
   61.7260   32.8000   48.5730 C   0  0  0  0  0  0  0  0  0  0  0  0
   56.6770   28.5610   45.5740 C   0  0  0  0  0  0  0  0  0  0  0  0
   56.1720   29.6600   45.2370 O   0  0  0  0  0  0  0  0  0  0  0  0
   55.8930   27.4610   45.6300 N   0  0  0  0  0  0  0  0  0  0  0  0
   56.3720   26.2630   46.0380 C   0  0  0  0  0  0  0  0  0  0  0  0
   55.5870   25.2750   46.0510 O   0  0  0  0  0  0  0  0  0  0  0  0
   58.4334   22.9019   44.0986 H   0  0  0  0  0  0  0  0  0  0  0  0
   56.9394   23.8773   44.7668 H   0  0  0  0  0  0  0  0  0  0  0  0
   59.7588   23.6151   45.9914 H   0  0  0  0  0  0  0  0  0  0  0  0
   57.3040   24.3290   47.4680 H   0  0  0  0  0  0  0  0  0  0  0  0
   58.9498   25.0475   47.7155 H   0  0  0  0  0  0  0  0  0  0  0  0
   60.5990   27.8680   46.4700 H   0  0  0  0  0  0  0  0  0  0  0  0
   60.3510   26.2450   47.0910 H   0  0  0  0  0  0  0  0  0  0  0  0
   60.2984   30.5314   44.6522 H   0  0  0  0  0  0  0  0  0  0  0  0
   59.0521   29.4493   43.8486 H   0  0  0  0  0  0  0  0  0  0  0  0
   59.1470   32.1723   43.7751 H   0  0  0  0  0  0  0  0  0  0  0  0
   58.0933   31.7710   46.2955 H   0  0  0  0  0  0  0  0  0  0  0  0
   57.8746   33.2442   45.2913 H   0  0  0  0  0  0  0  0  0  0  0  0
   56.6163   31.9623   45.2913 H   0  0  0  0  0  0  0  0  0  0  0  0
   56.4421   30.8592   43.4966 H   0  0  0  0  0  0  0  0  0  0  0  0
   57.2621   32.0529   42.4340 H   0  0  0  0  0  0  0  0  0  0  0  0
   57.7929   30.3369   42.4340 H   0  0  0  0  0  0  0  0  0  0  0  0
   58.7539   31.4723   48.3343 H   0  0  0  0  0  0  0  0  0  0  0  0
   58.0124   29.8415   48.4959 H   0  0  0  0  0  0  0  0  0  0  0  0
   58.4360   33.3356   53.0113 H   0  0  0  0  0  0  0  0  0  0  0  0
   59.2153   34.7424   50.8968 H   0  0  0  0  0  0  0  0  0  0  0  0
   58.6094   34.1198   48.0668 H   0  0  0  0  0  0  0  0  0  0  0  0
   58.7431   35.6150   46.1101 H   0  0  0  0  0  0  0  0  0  0  0  0
   60.1321   35.5231   44.9749 H   0  0  0  0  0  0  0  0  0  0  0  0
   58.8851   34.2302   44.9749 H   0  0  0  0  0  0  0  0  0  0  0  0
   62.0415   34.1248   45.4312 H   0  0  0  0  0  0  0  0  0  0  0  0
   64.3021   32.7178   48.0406 H   0  0  0  0  0  0  0  0  0  0  0  0
   63.8238   31.9062   46.5112 H   0  0  0  0  0  0  0  0  0  0  0  0
   64.2261   33.6568   46.5112 H   0  0  0  0  0  0  0  0  0  0  0  0
   62.2985   32.2276   49.3177 H   0  0  0  0  0  0  0  0  0  0  0  0
  1  2  2  0
  2  3  1  0
  3  4  1  0
  4  5  1  0
  5  6  1  0
  5  7  2  0
  7  8  1  0
  8  9  1  0
  9 10  1  0
 10 11  1  0
 10 12  1  0
  8 13  1  0
 13 14  2  0
 13 15  1  0
 15 16  1  0
 16 17  1  0
 17 18  2  0
 18 19  1  0
 19 20  2  0
 20 21  1  0
 21 22  1  0
 22 23  2  0
 23 24  1  0
 24 25  1  0
 24 26  2  0
 26 27  1  0
 27 28  1  0
 27 29  2  0
  7 30  1  0
 30 31  2  0
 30 32  1  0
 32 33  1  0
 33 34  2  0
 33  4  1  0
 21 17  1  0
 29 22  1  0
  1 35  1  0
  1 36  1  0
  2 37  1  0
  3 38  1  0
  3 39  1  0
  6 40  1  0
  6 41  1  0
  9 42  1  0
  9 43  1  0
 10 44  1  0
 11 45  1  0
 11 46  1  0
 11 47  1  0
 12 48  1  0
 12 49  1  0
 12 50  1  0
 15 51  1  0
 15 52  1  0
 19 53  1  0
 20 54  1  0
 23 55  1  0
 25 56  1  0
 25 57  1  0
 25 58  1  0
 26 59  1  0
 28 60  1  0
 28 61  1  0
 28 62  1  0
 29 63  1  0
M  CHG  1  32  -1
M  END
>  <UniqueID>  (21) 
19

>  <SMILES>  (21) 
C=CCn1c(N)c(N(CC(C)C)C(=O)CSc2nccn2-c2cc(C)cc(C)c2)c(=O)[n-]c1=O

>  <Energy>  (21) 
102.33791357951131

>  <Genealogy>  (21) 
C=CCn1c(N)c(N(CC(C)C)C(=O)CSc2nccn2-c2cc(C)cc(C)c2)c(=O)[n-]c1=O (protonated)
C=CCn1c(N)c(N(CC(C)C)C(=O)CSc2nccn2-c2cc(C)cc(C)c2)c(=O)[n-]c1=O (3D coordinates assigned)
C=CCn1c(N)c(N(CC(C)C)C(=O)CSc2nccn2-c2cc(C)cc(C)c2)c(=O)[n-]c1=O (optimized conformer: 102.33791357951131 kcal/mol)

>  <smiles>  (21) 
C=CCn1c(N)c(N(CC(C)C)C(=O)CSc2nccn2-c2cc(C)cc(C)c2)c(=O)[nH]c1=O

>  <score_type>  (21) 
oracle

>  <origin>  (21) 
adg

>  <m_score__min__energy>  (21) 
-11.050000000000001

>  <m_primary>  (21) 
energy

$$$$
21:0
     RDKit          3D

 51 54  0  0  0  0  0  0  0  0999 V2000
   55.2770   23.3650   43.1390 C   0  0  0  0  0  0  0  0  0  0  0  0
   55.9380   22.1080   43.0500 O   0  0  0  0  0  0  0  0  0  0  0  0
   56.4370   21.3880   44.1490 C   0  0  0  0  0  0  0  0  0  0  0  0
   55.9390   20.1130   44.4900 C   0  0  0  0  0  0  0  0  0  0  0  0
   56.4430   19.4300   45.6000 C   0  0  0  0  0  0  0  0  0  0  0  0
   57.4410   20.0080   46.3840 C   0  0  0  0  0  0  0  0  0  0  0  0
   57.9450   21.2680   46.0580 C   0  0  0  0  0  0  0  0  0  0  0  0
   57.4600   21.9600   44.9350 C   0  0  0  0  0  0  0  0  0  0  0  0
   58.0020   23.3310   44.6150 C   0  0  0  0  0  0  0  0  0  0  0  0
   59.0240   23.7680   45.6690 C   0  0  0  0  0  0  0  0  0  0  0  0
   58.6310   25.0590   46.2550 N   0  0  0  0  0  0  0  0  0  0  0  0
   57.4150   25.1460   47.0600 C   0  0  0  0  0  0  0  0  0  0  0  0
   56.3240   25.7070   46.2150 C   0  0  0  0  0  0  0  0  0  0  0  0
   55.1800   25.1830   46.2400 O   0  0  0  0  0  0  0  0  0  0  0  0
   56.5580   26.8420   45.3830 N   0  0  0  0  0  0  0  0  0  0  0  0
   57.5280   27.8730   45.6250 C   0  0  0  0  0  0  0  0  0  0  0  0
   57.0870   29.1630   45.6350 N   0  0  0  0  0  0  0  0  0  0  0  0
   57.9100   30.2190   45.8730 C   0  0  0  0  0  0  0  0  0  0  0  0
   57.3770   31.5180   45.8310 O   0  0  0  0  0  0  0  0  0  0  0  0
   58.1130   32.7060   45.9480 C   0  0  0  0  0  0  0  0  0  0  0  0
   58.4390   33.4100   44.7840 C   0  0  0  0  0  0  0  0  0  0  0  0
   59.1600   34.6070   44.8590 C   0  0  0  0  0  0  0  0  0  0  0  0
   59.5450   35.1140   46.1030 C   0  0  0  0  0  0  0  0  0  0  0  0
   59.2060   34.4280   47.2720 C   0  0  0  0  0  0  0  0  0  0  0  0
   58.4880   33.2310   47.1990 C   0  0  0  0  0  0  0  0  0  0  0  0
   59.2710   29.9910   46.1050 C   0  0  0  0  0  0  0  0  0  0  0  0
   59.7520   28.6850   46.1350 C   0  0  0  0  0  0  0  0  0  0  0  0
   58.8950   27.5970   45.9000 C   0  0  0  0  0  0  0  0  0  0  0  0
   59.4570   26.2270   46.0520 C   0  0  0  0  0  0  0  0  0  0  0  0
   60.7080   26.0850   45.9570 O   0  0  0  0  0  0  0  0  0  0  0  0
   55.1369   23.6315   44.1970 H   0  0  0  0  0  0  0  0  0  0  0  0
   55.8865   24.1356   42.6444 H   0  0  0  0  0  0  0  0  0  0  0  0
   54.2966   23.2996   42.6444 H   0  0  0  0  0  0  0  0  0  0  0  0
   55.1488   19.6534   43.8781 H   0  0  0  0  0  0  0  0  0  0  0  0
   56.0517   18.4343   45.8559 H   0  0  0  0  0  0  0  0  0  0  0  0
   57.8315   19.4701   47.2605 H   0  0  0  0  0  0  0  0  0  0  0  0
   58.7270   21.7224   46.6841 H   0  0  0  0  0  0  0  0  0  0  0  0
   58.4885   23.3059   43.6287 H   0  0  0  0  0  0  0  0  0  0  0  0
   57.1686   24.0490   44.6110 H   0  0  0  0  0  0  0  0  0  0  0  0
   59.0737   23.0087   46.4634 H   0  0  0  0  0  0  0  0  0  0  0  0
   60.0084   23.8765   45.1903 H   0  0  0  0  0  0  0  0  0  0  0  0
   57.1319   24.1434   47.4130 H   0  0  0  0  0  0  0  0  0  0  0  0
   57.5870   25.7954   47.9311 H   0  0  0  0  0  0  0  0  0  0  0  0
   56.0760   29.3530   45.4490 H   0  0  0  0  0  0  0  0  0  0  0  0
   58.1267   33.0204   43.8039 H   0  0  0  0  0  0  0  0  0  0  0  0
   59.4237   35.1488   43.9387 H   0  0  0  0  0  0  0  0  0  0  0  0
   60.1149   36.0530   46.1619 H   0  0  0  0  0  0  0  0  0  0  0  0
   59.5046   34.8305   48.2512 H   0  0  0  0  0  0  0  0  0  0  0  0
   58.2153   32.6978   48.1217 H   0  0  0  0  0  0  0  0  0  0  0  0
   59.9557   30.8374   46.2625 H   0  0  0  0  0  0  0  0  0  0  0  0
   60.8162   28.5027   46.3453 H   0  0  0  0  0  0  0  0  0  0  0  0
  1  2  1  0
  2  3  1  0
  3  4  2  0
  4  5  1  0
  5  6  2  0
  6  7  1  0
  7  8  2  0
  8  9  1  0
  9 10  1  0
 10 11  1  0
 11 12  1  0
 12 13  1  0
 13 14  2  0
 13 15  1  0
 15 16  1  0
 16 17  2  0
 17 18  1  0
 18 19  1  0
 19 20  1  0
 20 21  2  0
 21 22  1  0
 22 23  2  0
 23 24  1  0
 24 25  2  0
 18 26  2  0
 26 27  1  0
 27 28  2  0
 28 29  1  0
 29 30  2  0
  8  3  1  0
 29 11  1  0
 28 16  1  0
 25 20  1  0
  1 31  1  0
  1 32  1  0
  1 33  1  0
  4 34  1  0
  5 35  1  0
  6 36  1  0
  7 37  1  0
  9 38  1  0
  9 39  1  0
 10 40  1  0
 10 41  1  0
 12 42  1  0
 12 43  1  0
 17 44  1  0
 21 45  1  0
 22 46  1  0
 23 47  1  0
 24 48  1  0
 25 49  1  0
 26 50  1  0
 27 51  1  0
M  CHG  2  15  -1  17   1
M  END
>  <UniqueID>  (22) 
20

>  <SMILES>  (22) 
COc1ccccc1CCN1CC(=O)[N-]c2[nH+]c(Oc3ccccc3)ccc2C1=O

>  <Energy>  (22) 
68.34090761026312

>  <Genealogy>  (22) 
COc1ccccc1CCN1CC(=O)[N-]c2[nH+]c(Oc3ccccc3)ccc2C1=O (protonated)
COc1ccccc1CCN1CC(=O)[N-]c2[nH+]c(Oc3ccccc3)ccc2C1=O (3D coordinates assigned)
COc1ccccc1CCN1CC(=O)[N-]c2[nH+]c(Oc3ccccc3)ccc2C1=O (nonaromatic ring conformer: 68.34090761026312 kcal/mol)

>  <smiles>  (22) 
COc1ccccc1CCN1CC(=O)Nc2nc(Oc3ccccc3)ccc2C1=O

>  <score_type>  (22) 
oracle

>  <origin>  (22) 
adg

>  <m_score__min__energy>  (22) 
-6.96

>  <m_primary>  (22) 
energy

$$$$
22:0
     RDKit          3D

 37 39  0  0  0  0  0  0  0  0999 V2000
   57.5420   23.4790   47.4330 O   0  0  0  0  0  0  0  0  0  0  0  0
   56.6570   24.1460   46.8330 C   0  0  0  0  0  0  0  0  0  0  0  0
   55.2970   24.0380   47.2780 N   0  0  0  0  0  0  0  0  0  0  0  0
   54.2170   23.6510   46.4570 N   0  0  0  0  0  0  0  0  0  0  0  0
   53.6520   24.5800   45.6310 C   0  0  0  0  0  0  0  0  0  0  0  0
   54.0740   25.7680   45.6190 O   0  0  0  0  0  0  0  0  0  0  0  0
   52.5890   24.2160   44.8060 C   0  0  0  0  0  0  0  0  0  0  0  0
   52.1500   22.9350   44.8290 N   0  0  0  0  0  0  0  0  0  0  0  0
   52.7270   22.0270   45.6150 N   0  0  0  0  0  0  0  0  0  0  0  0
   53.7650   22.3590   46.4250 C   0  0  0  0  0  0  0  0  0  0  0  0
   54.3130   21.4630   47.1200 O   0  0  0  0  0  0  0  0  0  0  0  0
   57.0380   24.9800   45.6700 C   0  0  0  0  0  0  0  0  0  0  0  0
   57.1240   24.4250   44.3820 C   0  0  0  0  0  0  0  0  0  0  0  0
   57.4890   25.2190   43.2940 C   0  0  0  0  0  0  0  0  0  0  0  0
   57.7850   26.5710   43.4800 C   0  0  0  0  0  0  0  0  0  0  0  0
   57.7240   27.1400   44.7570 C   0  0  0  0  0  0  0  0  0  0  0  0
   58.0540   28.5280   44.9030 N   0  0  0  0  0  0  0  0  0  0  0  0
   57.0490   29.8510   44.4060 S   0  0  0  0  0  0  0  0  0  0  0  0
   55.6680   29.6560   44.9660 O   0  0  0  0  0  0  0  0  0  0  0  0
   56.9710   29.8730   42.9060 O   0  0  0  0  0  0  0  0  0  0  0  0
   57.7390   31.3730   44.9620 C   0  0  0  0  0  0  0  0  0  0  0  0
   57.7600   32.4840   44.1080 C   0  0  0  0  0  0  0  0  0  0  0  0
   58.3240   33.6900   44.5360 C   0  0  0  0  0  0  0  0  0  0  0  0
   58.8660   33.7920   45.8230 C   0  0  0  0  0  0  0  0  0  0  0  0
   59.5730   35.3040   46.3600 Cl  0  0  0  0  0  0  0  0  0  0  0  0
   58.8420   32.6860   46.6800 C   0  0  0  0  0  0  0  0  0  0  0  0
   58.2800   31.4800   46.2510 C   0  0  0  0  0  0  0  0  0  0  0  0
   57.3490   26.3400   45.8510 C   0  0  0  0  0  0  0  0  0  0  0  0
   52.1142   24.9575   44.1467 H   0  0  0  0  0  0  0  0  0  0  0  0
   56.9023   23.3583   44.2304 H   0  0  0  0  0  0  0  0  0  0  0  0
   57.5437   24.7788   42.2874 H   0  0  0  0  0  0  0  0  0  0  0  0
   58.0678   27.1924   42.6175 H   0  0  0  0  0  0  0  0  0  0  0  0
   57.3315   32.4072   43.0978 H   0  0  0  0  0  0  0  0  0  0  0  0
   58.3418   34.5587   43.8614 H   0  0  0  0  0  0  0  0  0  0  0  0
   59.2657   32.7656   47.6920 H   0  0  0  0  0  0  0  0  0  0  0  0
   58.2622   30.6123   46.9269 H   0  0  0  0  0  0  0  0  0  0  0  0
   57.2984   26.7815   46.8572 H   0  0  0  0  0  0  0  0  0  0  0  0
  1  2  2  0
  2  3  1  0
  3  4  1  0
  4  5  1  0
  5  6  2  0
  5  7  1  0
  7  8  2  0
  8  9  1  0
  9 10  1  0
 10 11  2  0
  2 12  1  0
 12 13  2  0
 13 14  1  0
 14 15  2  0
 15 16  1  0
 16 17  1  0
 17 18  1  0
 18 19  2  0
 18 20  2  0
 18 21  1  0
 21 22  2  0
 22 23  1  0
 23 24  2  0
 24 25  1  0
 24 26  1  0
 26 27  2  0
 16 28  2  0
 10  4  1  0
 28 12  1  0
 27 21  1  0
  7 29  1  0
 13 30  1  0
 14 31  1  0
 15 32  1  0
 22 33  1  0
 23 34  1  0
 26 35  1  0
 27 36  1  0
 28 37  1  0
M  CHG  3   3  -1   9  -1  17  -1
M  END
>  <UniqueID>  (23) 
21

>  <SMILES>  (23) 
O=C([N-]n1c(=O)cn[n-]c1=O)c1cccc([N-]S(=O)(=O)c2ccc(Cl)cc2)c1

>  <Energy>  (23) 
54.86732018565452

>  <Genealogy>  (23) 
O=C([N-]n1c(=O)cn[n-]c1=O)c1cccc([N-]S(=O)(=O)c2ccc(Cl)cc2)c1 (protonated)
O=C([N-]n1c(=O)cn[n-]c1=O)c1cccc([N-]S(=O)(=O)c2ccc(Cl)cc2)c1 (3D coordinates assigned)
O=C([N-]n1c(=O)cn[n-]c1=O)c1cccc([N-]S(=O)(=O)c2ccc(Cl)cc2)c1 (optimized conformer: 54.86732018565452 kcal/mol)

>  <smiles>  (23) 
O=C(Nn1c(=O)cn[nH]c1=O)c1cccc(NS(=O)(=O)c2ccc(Cl)cc2)c1

>  <score_type>  (23) 
oracle

>  <origin>  (23) 
adg

>  <m_score__min__energy>  (23) 
-14.16

>  <m_primary>  (23) 
energy

$$$$
23:0
     RDKit          3D

 52 55  0  0  0  0  0  0  0  0999 V2000
   59.6860   34.5690   45.5890 C   0  0  0  0  0  0  0  0  0  0  0  0
   58.8940   33.3410   45.2500 C   0  0  0  0  0  0  0  0  0  0  0  0
   58.5480   32.4230   46.2540 C   0  0  0  0  0  0  0  0  0  0  0  0
   57.8410   31.2600   45.9320 C   0  0  0  0  0  0  0  0  0  0  0  0
   57.4870   30.9940   44.6030 C   0  0  0  0  0  0  0  0  0  0  0  0
   56.5810   29.5340   44.2190 S   0  0  0  0  0  0  0  0  0  0  0  0
   55.9400   29.7080   42.8700 O   0  0  0  0  0  0  0  0  0  0  0  0
   55.5000   29.3220   45.2430 O   0  0  0  0  0  0  0  0  0  0  0  0
   57.6780   28.1690   44.1980 N   0  0  0  0  0  0  0  0  0  0  0  0
   59.0960   28.6050   44.1240 C   0  0  0  0  0  0  0  0  0  0  0  0
   59.9040   28.3350   45.4050 C   0  0  0  0  0  0  0  0  0  0  0  0
   59.0550   28.5190   46.5840 N   0  0  0  0  0  0  0  0  0  0  0  0
   59.4820   29.3520   47.6800 C   0  0  0  0  0  0  0  0  0  0  0  0
   58.8180   29.2910   48.9050 C   0  0  0  0  0  0  0  0  0  0  0  0
   59.2340   30.1090   49.9490 C   0  0  0  0  0  0  0  0  0  0  0  0
   60.2810   30.9550   49.7680 N   0  0  0  0  0  0  0  0  0  0  0  0
   60.9330   31.0320   48.5990 N   0  0  0  0  0  0  0  0  0  0  0  0
   62.0320   31.9570   48.4750 C   0  0  0  0  0  0  0  0  0  0  0  0
   62.0310   32.9210   47.4540 C   0  0  0  0  0  0  0  0  0  0  0  0
   63.0900   33.8280   47.3380 C   0  0  0  0  0  0  0  0  0  0  0  0
   64.1530   33.7820   48.2430 C   0  0  0  0  0  0  0  0  0  0  0  0
   64.1580   32.8320   49.2670 C   0  0  0  0  0  0  0  0  0  0  0  0
   63.1020   31.9240   49.3870 C   0  0  0  0  0  0  0  0  0  0  0  0
   60.5460   30.2570   47.5340 C   0  0  0  0  0  0  0  0  0  0  0  0
   61.1190   30.3740   46.4150 O   0  0  0  0  0  0  0  0  0  0  0  0
   57.7900   27.7840   46.6680 C   0  0  0  0  0  0  0  0  0  0  0  0
   57.3920   27.2210   45.2950 C   0  0  0  0  0  0  0  0  0  0  0  0
   57.8430   31.9030   43.5970 C   0  0  0  0  0  0  0  0  0  0  0  0
   58.5490   33.0670   43.9180 C   0  0  0  0  0  0  0  0  0  0  0  0
   59.7526   34.6722   46.6821 H   0  0  0  0  0  0  0  0  0  0  0  0
   60.6979   34.4809   45.1667 H   0  0  0  0  0  0  0  0  0  0  0  0
   59.1883   35.4544   45.1667 H   0  0  0  0  0  0  0  0  0  0  0  0
   58.8340   32.6191   47.2979 H   0  0  0  0  0  0  0  0  0  0  0  0
   57.5618   30.5513   46.7256 H   0  0  0  0  0  0  0  0  0  0  0  0
   59.5786   28.0710   43.2922 H   0  0  0  0  0  0  0  0  0  0  0  0
   59.0854   29.6954   43.9797 H   0  0  0  0  0  0  0  0  0  0  0  0
   60.2814   27.3019   45.3861 H   0  0  0  0  0  0  0  0  0  0  0  0
   60.7465   29.0405   45.4545 H   0  0  0  0  0  0  0  0  0  0  0  0
   57.9723   28.6014   49.0438 H   0  0  0  0  0  0  0  0  0  0  0  0
   58.7167   30.0713   50.9190 H   0  0  0  0  0  0  0  0  0  0  0  0
   60.5790   31.5450   50.5780 H   0  0  0  0  0  0  0  0  0  0  0  0
   61.1936   32.9633   46.7420 H   0  0  0  0  0  0  0  0  0  0  0  0
   63.0855   34.5780   46.5334 H   0  0  0  0  0  0  0  0  0  0  0  0
   64.9863   34.4940   48.1493 H   0  0  0  0  0  0  0  0  0  0  0  0
   64.9946   32.7983   49.9804 H   0  0  0  0  0  0  0  0  0  0  0  0
   63.1080   31.1808   50.1979 H   0  0  0  0  0  0  0  0  0  0  0  0
   57.9029   26.9526   47.3794 H   0  0  0  0  0  0  0  0  0  0  0  0
   57.0036   28.4746   47.0065 H   0  0  0  0  0  0  0  0  0  0  0  0
   57.9544   26.2926   45.1164 H   0  0  0  0  0  0  0  0  0  0  0  0
   56.3076   27.0365   45.3074 H   0  0  0  0  0  0  0  0  0  0  0  0
   57.5663   31.7002   42.5519 H   0  0  0  0  0  0  0  0  0  0  0  0
   58.8350   33.7708   43.1225 H   0  0  0  0  0  0  0  0  0  0  0  0
  1  2  1  0
  2  3  2  0
  3  4  1  0
  4  5  2  0
  5  6  1  0
  6  7  2  0
  6  8  2  0
  6  9  1  0
  9 10  1  0
 10 11  1  0
 11 12  1  0
 12 13  1  0
 13 14  2  0
 14 15  1  0
 15 16  2  0
 16 17  1  0
 17 18  1  0
 18 19  2  0
 19 20  1  0
 20 21  2  0
 21 22  1  0
 22 23  2  0
 17 24  1  0
 24 25  2  0
 12 26  1  0
 26 27  1  0
  5 28  1  0
 28 29  2  0
 29  2  1  0
 27  9  1  0
 24 13  1  0
 23 18  1  0
  1 30  1  0
  1 31  1  0
  1 32  1  0
  3 33  1  0
  4 34  1  0
 10 35  1  0
 10 36  1  0
 11 37  1  0
 11 38  1  0
 14 39  1  0
 15 40  1  0
 16 41  1  0
 19 42  1  0
 20 43  1  0
 21 44  1  0
 22 45  1  0
 23 46  1  0
 26 47  1  0
 26 48  1  0
 27 49  1  0
 27 50  1  0
 28 51  1  0
 29 52  1  0
M  CHG  1  16   1
M  END
>  <UniqueID>  (24) 
22

>  <SMILES>  (24) 
Cc1ccc(S(=O)(=O)N2CCN(c3cc[nH+]n(-c4ccccc4)c3=O)CC2)cc1

>  <Energy>  (24) 
74.32036620742574

>  <Genealogy>  (24) 
Cc1ccc(S(=O)(=O)N2CCN(c3cc[nH+]n(-c4ccccc4)c3=O)CC2)cc1 (protonated)
Cc1ccc(S(=O)(=O)N2CCN(c3cc[nH+]n(-c4ccccc4)c3=O)CC2)cc1 (3D coordinates assigned)
Cc1ccc(S(=O)(=O)N2CCN(c3cc[nH+]n(-c4ccccc4)c3=O)CC2)cc1 (nonaromatic ring conformer: 74.32036620742574 kcal/mol)

>  <smiles>  (24) 
Cc1ccc(S(=O)(=O)N2CCN(c3ccnn(-c4ccccc4)c3=O)CC2)cc1

>  <score_type>  (24) 
oracle

>  <origin>  (24) 
adg

>  <m_score__min__energy>  (24) 
-8.0199999999999996

>  <m_primary>  (24) 
energy

$$$$
24:0
     RDKit          3D

 49 52  0  0  0  0  0  0  0  0999 V2000
   57.0240   29.4430   43.0150 O   0  0  0  0  0  0  0  0  0  0  0  0
   55.9500   29.6890   44.0390 S   0  0  0  0  0  0  0  0  0  0  0  0
   54.6070   29.7010   43.3660 O   0  0  0  0  0  0  0  0  0  0  0  0
   55.9740   28.4490   45.2500 N   0  0  0  0  0  0  0  0  0  0  0  0
   57.1450   27.8880   45.8560 C   0  0  0  0  0  0  0  0  0  0  0  0
   58.3750   28.5720   45.8810 C   0  0  0  0  0  0  0  0  0  0  0  0
   59.4900   27.9910   46.4950 C   0  0  0  0  0  0  0  0  0  0  0  0
   60.6730   28.6530   46.5180 F   0  0  0  0  0  0  0  0  0  0  0  0
   59.3890   26.7260   47.0810 C   0  0  0  0  0  0  0  0  0  0  0  0
   58.1730   26.0370   47.0500 C   0  0  0  0  0  0  0  0  0  0  0  0
   57.0560   26.6150   46.4390 C   0  0  0  0  0  0  0  0  0  0  0  0
   55.8840   25.9310   46.4050 F   0  0  0  0  0  0  0  0  0  0  0  0
   56.2070   31.2240   44.8070 N   0  0  0  0  0  0  0  0  0  0  0  0
   57.6880   31.9540   44.2550 S   0  0  0  0  0  0  0  0  0  0  0  0
   57.7030   31.9000   42.7540 O   0  0  0  0  0  0  0  0  0  0  0  0
   58.8990   31.2220   44.7710 O   0  0  0  0  0  0  0  0  0  0  0  0
   57.7240   33.6290   44.7650 N   0  0  0  0  0  0  0  0  0  0  0  0
   56.9650   33.8630   46.0050 C   0  0  0  0  0  0  0  0  0  0  0  0
   57.6110   33.2210   47.2450 C   0  0  0  0  0  0  0  0  0  0  0  0
   59.1230   33.2690   47.2460 C   0  0  0  0  0  0  0  0  0  0  0  0
   59.8260   33.6710   46.0890 C   0  0  0  0  0  0  0  0  0  0  0  0
   61.2280   33.6750   46.0880 C   0  0  0  0  0  0  0  0  0  0  0  0
   61.9370   33.2310   47.2030 C   0  0  0  0  0  0  0  0  0  0  0  0
   61.2530   32.7790   48.3300 C   0  0  0  0  0  0  0  0  0  0  0  0
   59.8520   32.7900   48.3640 C   0  0  0  0  0  0  0  0  0  0  0  0
   59.1740   32.2480   49.5600 C   0  0  0  0  0  0  0  0  0  0  0  0
   58.8940   33.0830   50.6530 C   0  0  0  0  0  0  0  0  0  0  0  0
   58.2640   32.5660   51.7890 C   0  0  0  0  0  0  0  0  0  0  0  0
   57.9200   31.2120   51.8450 C   0  0  0  0  0  0  0  0  0  0  0  0
   57.3070   30.7130   52.9460 F   0  0  0  0  0  0  0  0  0  0  0  0
   58.2060   30.3720   50.7630 C   0  0  0  0  0  0  0  0  0  0  0  0
   58.8300   30.8870   49.6220 C   0  0  0  0  0  0  0  0  0  0  0  0
   59.0880   30.0620   48.5750 F   0  0  0  0  0  0  0  0  0  0  0  0
   59.0950   34.1560   44.8600 C   0  0  0  0  0  0  0  0  0  0  0  0
   58.4598   29.5656   45.4167 H   0  0  0  0  0  0  0  0  0  0  0  0
   60.2660   26.2728   47.5664 H   0  0  0  0  0  0  0  0  0  0  0  0
   58.0949   25.0393   47.5067 H   0  0  0  0  0  0  0  0  0  0  0  0
   56.8935   34.9481   46.1710 H   0  0  0  0  0  0  0  0  0  0  0  0
   55.9770   33.3973   45.8747 H   0  0  0  0  0  0  0  0  0  0  0  0
   57.2476   33.7510   48.1378 H   0  0  0  0  0  0  0  0  0  0  0  0
   57.3265   32.1585   47.2378 H   0  0  0  0  0  0  0  0  0  0  0  0
   61.7724   34.0311   45.2010 H   0  0  0  0  0  0  0  0  0  0  0  0
   63.0369   33.2374   47.1934 H   0  0  0  0  0  0  0  0  0  0  0  0
   61.8171   32.4108   49.1996 H   0  0  0  0  0  0  0  0  0  0  0  0
   59.1710   34.1469   50.6157 H   0  0  0  0  0  0  0  0  0  0  0  0
   58.0386   33.2255   52.6400 H   0  0  0  0  0  0  0  0  0  0  0  0
   57.9399   29.3057   50.8098 H   0  0  0  0  0  0  0  0  0  0  0  0
   59.0476   35.2546   44.8902 H   0  0  0  0  0  0  0  0  0  0  0  0
   59.6496   33.7947   43.9814 H   0  0  0  0  0  0  0  0  0  0  0  0
  1  2  2  0
  2  3  2  0
  2  4  1  0
  4  5  1  0
  5  6  2  0
  6  7  1  0
  7  8  1  0
  7  9  2  0
  9 10  1  0
 10 11  2  0
 11 12  1  0
  2 13  1  0
 13 14  1  0
 14 15  2  0
 14 16  2  0
 14 17  1  0
 17 18  1  0
 18 19  1  0
 19 20  1  0
 20 21  2  0
 21 22  1  0
 22 23  2  0
 23 24  1  0
 24 25  2  0
 25 26  1  0
 26 27  2  0
 27 28  1  0
 28 29  2  0
 29 30  1  0
 29 31  1  0
 31 32  2  0
 32 33  1  0
 21 34  1  0
 11  5  1  0
 34 17  1  0
 25 20  1  0
 32 26  1  0
  6 35  1  0
  9 36  1  0
 10 37  1  0
 18 38  1  0
 18 39  1  0
 19 40  1  0
 19 41  1  0
 22 42  1  0
 23 43  1  0
 24 44  1  0
 27 45  1  0
 28 46  1  0
 31 47  1  0
 34 48  1  0
 34 49  1  0
M  CHG  2   4  -1  13  -1
M  END
>  <UniqueID>  (25) 
23

>  <SMILES>  (25) 
O=S(=O)([N-]c1cc(F)ccc1F)[N-]S(=O)(=O)N1CCc2c(cccc2-c2ccc(F)cc2F)C1

>  <Energy>  (25) 
63.99199353369091

>  <Genealogy>  (25) 
O=S(=O)([N-]c1cc(F)ccc1F)[N-]S(=O)(=O)N1CCc2c(cccc2-c2ccc(F)cc2F)C1 (protonated)
O=S(=O)([N-]c1cc(F)ccc1F)[N-]S(=O)(=O)N1CCc2c(cccc2-c2ccc(F)cc2F)C1 (3D coordinates assigned)
O=S(=O)([N-]c1cc(F)ccc1F)[N-]S(=O)(=O)N1CCc2c(cccc2-c2ccc(F)cc2F)C1 (nonaromatic ring conformer: 63.99199353369091 kcal/mol)

>  <smiles>  (25) 
O=S(=O)(Nc1cc(F)ccc1F)NS(=O)(=O)N1CCc2c(cccc2-c2ccc(F)cc2F)C1

>  <score_type>  (25) 
oracle

>  <origin>  (25) 
adg

>  <m_score__min__energy>  (25) 
-13.5

>  <m_primary>  (25) 
energy

$$$$
25:0
     RDKit          3D

 46 49  0  0  0  0  0  0  0  0999 V2000
   52.1460   23.6210   45.6310 C   0  0  0  0  0  0  0  0  0  0  0  0
   53.1200   24.2040   44.7720 O   0  0  0  0  0  0  0  0  0  0  0  0
   54.5060   24.1350   44.9820 C   0  0  0  0  0  0  0  0  0  0  0  0
   55.2690   23.0170   44.6000 C   0  0  0  0  0  0  0  0  0  0  0  0
   56.6480   22.9890   44.8280 C   0  0  0  0  0  0  0  0  0  0  0  0
   57.2930   24.0780   45.4420 C   0  0  0  0  0  0  0  0  0  0  0  0
   58.7550   24.0510   45.6840 C   0  0  0  0  0  0  0  0  0  0  0  0
   59.3410   22.9490   45.8630 O   0  0  0  0  0  0  0  0  0  0  0  0
   59.5090   25.2710   45.6620 N   0  0  0  0  0  0  0  0  0  0  0  0
   59.1570   26.5060   46.3050 C   0  0  0  0  0  0  0  0  0  0  0  0
   59.6370   26.7500   47.5950 C   0  0  0  0  0  0  0  0  0  0  0  0
   59.3280   27.9440   48.2510 C   0  0  0  0  0  0  0  0  0  0  0  0
   58.5540   28.9150   47.6110 C   0  0  0  0  0  0  0  0  0  0  0  0
   58.0980   28.7090   46.2990 C   0  0  0  0  0  0  0  0  0  0  0  0
   57.2840   29.7530   45.6260 C   0  0  0  0  0  0  0  0  0  0  0  0
   56.1320   29.4520   45.2110 O   0  0  0  0  0  0  0  0  0  0  0  0
   57.7790   31.1360   45.4250 C   0  0  0  0  0  0  0  0  0  0  0  0
   57.6890   31.7340   44.1550 C   0  0  0  0  0  0  0  0  0  0  0  0
   58.1420   33.0410   43.9490 C   0  0  0  0  0  0  0  0  0  0  0  0
   58.6830   33.7710   45.0120 C   0  0  0  0  0  0  0  0  0  0  0  0
   59.1260   35.0410   44.8130 N   0  0  0  0  0  0  0  0  0  0  0  0
   59.6540   35.7810   45.8250 C   0  0  0  0  0  0  0  0  0  0  0  0
   59.7510   35.2430   47.1100 C   0  0  0  0  0  0  0  0  0  0  0  0
   59.3030   33.9420   47.3470 C   0  0  0  0  0  0  0  0  0  0  0  0
   58.7640   33.1890   46.2960 C   0  0  0  0  0  0  0  0  0  0  0  0
   58.3050   31.8800   46.4980 C   0  0  0  0  0  0  0  0  0  0  0  0
   58.3960   27.4950   45.6530 C   0  0  0  0  0  0  0  0  0  0  0  0
   56.5270   25.1940   45.8210 C   0  0  0  0  0  0  0  0  0  0  0  0
   55.1470   25.2210   45.5930 C   0  0  0  0  0  0  0  0  0  0  0  0
   54.4110   26.3360   45.9770 O   0  0  0  0  0  0  0  0  0  0  0  0
   52.4321   23.7922   46.6792 H   0  0  0  0  0  0  0  0  0  0  0  0
   51.1654   24.0808   45.4388 H   0  0  0  0  0  0  0  0  0  0  0  0
   52.0879   22.5395   45.4388 H   0  0  0  0  0  0  0  0  0  0  0  0
   54.7774   22.1588   44.1186 H   0  0  0  0  0  0  0  0  0  0  0  0
   57.2334   22.1084   44.5249 H   0  0  0  0  0  0  0  0  0  0  0  0
   60.2622   25.9968   48.0969 H   0  0  0  0  0  0  0  0  0  0  0  0
   59.6947   28.1199   49.2731 H   0  0  0  0  0  0  0  0  0  0  0  0
   58.3002   29.8466   48.1380 H   0  0  0  0  0  0  0  0  0  0  0  0
   57.2582   31.1682   43.3158 H   0  0  0  0  0  0  0  0  0  0  0  0
   58.0727   33.4953   42.9496 H   0  0  0  0  0  0  0  0  0  0  0  0
   60.0052   36.8052   45.6307 H   0  0  0  0  0  0  0  0  0  0  0  0
   60.1773   35.8400   47.9297 H   0  0  0  0  0  0  0  0  0  0  0  0
   59.3731   33.5096   48.3560 H   0  0  0  0  0  0  0  0  0  0  0  0
   58.3562   31.4315   47.5011 H   0  0  0  0  0  0  0  0  0  0  0  0
   58.0315   27.3172   44.6305 H   0  0  0  0  0  0  0  0  0  0  0  0
   57.0170   26.0538   46.3012 H   0  0  0  0  0  0  0  0  0  0  0  0
  1  2  1  0
  2  3  1  0
  3  4  2  0
  4  5  1  0
  5  6  2  0
  6  7  1  0
  7  8  2  0
  7  9  1  0
  9 10  1  0
 10 11  2  0
 11 12  1  0
 12 13  2  0
 13 14  1  0
 14 15  1  0
 15 16  2  0
 15 17  1  0
 17 18  2  0
 18 19  1  0
 19 20  2  0
 20 21  1  0
 21 22  2  0
 22 23  1  0
 23 24  2  0
 24 25  1  0
 25 26  2  0
 14 27  2  0
  6 28  1  0
 28 29  2  0
 29 30  1  0
 29  3  1  0
 27 10  1  0
 26 17  1  0
 25 20  1  0
  1 31  1  0
  1 32  1  0
  1 33  1  0
  4 34  1  0
  5 35  1  0
 11 36  1  0
 12 37  1  0
 13 38  1  0
 18 39  1  0
 19 40  1  0
 22 41  1  0
 23 42  1  0
 24 43  1  0
 26 44  1  0
 27 45  1  0
 28 46  1  0
M  CHG  2   9  -1  30  -1
M  END
>  <UniqueID>  (26) 
24

>  <SMILES>  (26) 
COc1ccc(C(=O)[N-]c2cccc(C(=O)c3ccc4ncccc4c3)c2)cc1[O-]

>  <Energy>  (26) 
64.3544897544859

>  <Genealogy>  (26) 
COc1ccc(C(=O)[N-]c2cccc(C(=O)c3ccc4ncccc4c3)c2)cc1[O-] (protonated)
COc1ccc(C(=O)[N-]c2cccc(C(=O)c3ccc4ncccc4c3)c2)cc1[O-] (3D coordinates assigned)
COc1ccc(C(=O)[N-]c2cccc(C(=O)c3ccc4ncccc4c3)c2)cc1[O-] (optimized conformer: 64.3544897544859 kcal/mol)

>  <smiles>  (26) 
COc1ccc(C(=O)Nc2cccc(C(=O)c3ccc4ncccc4c3)c2)cc1O

>  <score_type>  (26) 
oracle

>  <origin>  (26) 
adg

>  <m_score__min__energy>  (26) 
-14.470000000000001

>  <m_primary>  (26) 
energy

$$$$
26:0
     RDKit          3D

 22 23  0  0  0  0  0  0  0  0999 V2000
   59.4900   25.0880   46.3990 O   0  0  0  0  0  0  0  0  0  0  0  0
   58.5990   25.9120   46.0670 C   0  0  0  0  0  0  0  0  0  0  0  0
   57.2860   25.7270   46.3210 N   0  0  0  0  0  0  0  0  0  0  0  0
   56.5350   26.7600   45.8580 C   0  0  0  0  0  0  0  0  0  0  0  0
   55.1530   26.7880   45.9970 O   0  0  0  0  0  0  0  0  0  0  0  0
   57.2600   27.7730   45.2390 C   0  0  0  0  0  0  0  0  0  0  0  0
   56.5940   29.2240   44.5140 S   0  0  0  0  0  0  0  0  0  0  0  0
   56.6800   29.1190   43.0160 O   0  0  0  0  0  0  0  0  0  0  0  0
   55.1470   29.3660   44.8970 O   0  0  0  0  0  0  0  0  0  0  0  0
   57.4920   30.6240   45.0870 C   0  0  0  0  0  0  0  0  0  0  0  0
   57.3670   31.8620   44.4410 C   0  0  0  0  0  0  0  0  0  0  0  0
   58.0990   32.9660   44.8910 C   0  0  0  0  0  0  0  0  0  0  0  0
   58.9590   32.8370   45.9860 C   0  0  0  0  0  0  0  0  0  0  0  0
   59.0910   31.6020   46.6290 C   0  0  0  0  0  0  0  0  0  0  0  0
   58.3610   30.4970   46.1800 C   0  0  0  0  0  0  0  0  0  0  0  0
   58.8950   27.3590   45.2610 S   0  0  0  0  0  0  0  0  0  0  0  0
   56.8940   24.8910   46.8080 H   0  0  0  0  0  0  0  0  0  0  0  0
   56.6920   31.9655   43.5786 H   0  0  0  0  0  0  0  0  0  0  0  0
   57.9979   33.9364   44.3830 H   0  0  0  0  0  0  0  0  0  0  0  0
   59.5314   33.7064   46.3415 H   0  0  0  0  0  0  0  0  0  0  0  0
   59.7696   31.4998   47.4887 H   0  0  0  0  0  0  0  0  0  0  0  0
   58.4688   29.5260   46.6854 H   0  0  0  0  0  0  0  0  0  0  0  0
  1  2  2  0
  2  3  1  0
  3  4  1  0
  4  5  1  0
  4  6  2  0
  6  7  1  0
  7  8  2  0
  7  9  2  0
  7 10  1  0
 10 11  2  0
 11 12  1  0
 12 13  2  0
 13 14  1  0
 14 15  2  0
  6 16  1  0
 16  2  1  0
 15 10  1  0
  3 17  1  0
 11 18  1  0
 12 19  1  0
 13 20  1  0
 14 21  1  0
 15 22  1  0
M  CHG  1   5  -1
M  END
>  <UniqueID>  (27) 
25

>  <SMILES>  (27) 
O=c1[nH]c([O-])c(S(=O)(=O)c2ccccc2)s1

>  <Energy>  (27) 
55.78596514303447

>  <Genealogy>  (27) 
O=c1[nH]c([O-])c(S(=O)(=O)c2ccccc2)s1 (protonated)
O=c1[nH]c([O-])c(S(=O)(=O)c2ccccc2)s1 (3D coordinates assigned)
O=c1[nH]c([O-])c(S(=O)(=O)c2ccccc2)s1 (optimized conformer: 55.78596514303447 kcal/mol)

>  <smiles>  (27) 
O=c1[nH]c(O)c(S(=O)(=O)c2ccccc2)s1

>  <score_type>  (27) 
oracle

>  <origin>  (27) 
adg

>  <m_score__min__energy>  (27) 
-10.380000000000001

>  <m_primary>  (27) 
energy

$$$$
27:0
     RDKit          3D

 40 42  0  0  0  0  0  0  0  0999 V2000
   61.3460   33.1870   51.3070 C   0  0  0  0  0  0  0  0  0  0  0  0
   60.0400   33.0310   50.7610 O   0  0  0  0  0  0  0  0  0  0  0  0
   59.6950   33.3190   49.4330 C   0  0  0  0  0  0  0  0  0  0  0  0
   59.9790   34.5970   48.9370 C   0  0  0  0  0  0  0  0  0  0  0  0
   59.6590   34.9390   47.6200 C   0  0  0  0  0  0  0  0  0  0  0  0
   59.0480   34.0030   46.7770 C   0  0  0  0  0  0  0  0  0  0  0  0
   58.7250   34.3360   45.4540 C   0  0  0  0  0  0  0  0  0  0  0  0
   58.1200   33.3920   44.6200 C   0  0  0  0  0  0  0  0  0  0  0  0
   57.8300   32.1070   45.0970 C   0  0  0  0  0  0  0  0  0  0  0  0
   57.0980   30.9240   44.0180 S   0  0  0  0  0  0  0  0  0  0  0  0
   57.0100   31.5130   42.6390 O   0  0  0  0  0  0  0  0  0  0  0  0
   55.7140   30.5580   44.4820 O   0  0  0  0  0  0  0  0  0  0  0  0
   58.0750   29.4930   43.9670 N   0  0  0  0  0  0  0  0  0  0  0  0
   58.0890   28.4650   44.9670 C   0  0  0  0  0  0  0  0  0  0  0  0
   59.2120   28.3510   45.7950 C   0  0  0  0  0  0  0  0  0  0  0  0
   59.2650   27.3660   46.7830 C   0  0  0  0  0  0  0  0  0  0  0  0
   58.1930   26.4880   46.9580 C   0  0  0  0  0  0  0  0  0  0  0  0
   57.0540   26.5960   46.1460 C   0  0  0  0  0  0  0  0  0  0  0  0
   55.9110   25.6320   46.3100 C   0  0  0  0  0  0  0  0  0  0  0  0
   54.7070   26.2470   45.9400 O   0  0  0  0  0  0  0  0  0  0  0  0
   57.0130   27.5750   45.1390 C   0  0  0  0  0  0  0  0  0  0  0  0
   58.1440   31.7680   46.4200 C   0  0  0  0  0  0  0  0  0  0  0  0
   58.7550   32.7070   47.2660 C   0  0  0  0  0  0  0  0  0  0  0  0
   59.0800   32.3720   48.5900 C   0  0  0  0  0  0  0  0  0  0  0  0
   61.2874   33.1800   52.4054 H   0  0  0  0  0  0  0  0  0  0  0  0
   61.9862   32.3589   50.9687 H   0  0  0  0  0  0  0  0  0  0  0  0
   61.7731   34.1426   50.9687 H   0  0  0  0  0  0  0  0  0  0  0  0
   60.4591   35.3400   49.5907 H   0  0  0  0  0  0  0  0  0  0  0  0
   59.8881   35.9472   47.2446 H   0  0  0  0  0  0  0  0  0  0  0  0
   58.9484   35.3429   45.0715 H   0  0  0  0  0  0  0  0  0  0  0  0
   57.8699   33.6594   43.5827 H   0  0  0  0  0  0  0  0  0  0  0  0
   60.0582   29.0420   45.6663 H   0  0  0  0  0  0  0  0  0  0  0  0
   60.1538   27.2812   47.4256 H   0  0  0  0  0  0  0  0  0  0  0  0
   58.2418   25.7101   47.7342 H   0  0  0  0  0  0  0  0  0  0  0  0
   56.0819   24.7527   45.6716 H   0  0  0  0  0  0  0  0  0  0  0  0
   55.8488   25.3223   47.3637 H   0  0  0  0  0  0  0  0  0  0  0  0
   54.3600   26.7020   46.7510 H   0  0  0  0  0  0  0  0  0  0  0  0
   56.1343   27.6460   44.4811 H   0  0  0  0  0  0  0  0  0  0  0  0
   57.9106   30.7614   46.7973 H   0  0  0  0  0  0  0  0  0  0  0  0
   58.8535   31.3653   48.9712 H   0  0  0  0  0  0  0  0  0  0  0  0
  1  2  1  0
  2  3  1  0
  3  4  2  0
  4  5  1  0
  5  6  2  0
  6  7  1  0
  7  8  2  0
  8  9  1  0
  9 10  1  0
 10 11  2  0
 10 12  2  0
 10 13  1  0
 13 14  1  0
 14 15  2  0
 15 16  1  0
 16 17  2  0
 17 18  1  0
 18 19  1  0
 19 20  1  0
 18 21  2  0
  9 22  2  0
 22 23  1  0
 23 24  2  0
 24  3  1  0
 23  6  1  0
 21 14  1  0
  1 25  1  0
  1 26  1  0
  1 27  1  0
  4 28  1  0
  5 29  1  0
  7 30  1  0
  8 31  1  0
 15 32  1  0
 16 33  1  0
 17 34  1  0
 19 35  1  0
 19 36  1  0
 20 37  1  0
 21 38  1  0
 22 39  1  0
 24 40  1  0
M  CHG  1  13  -1
M  END
>  <UniqueID>  (28) 
26

>  <SMILES>  (28) 
COc1ccc2ccc(S(=O)(=O)[N-]c3cccc(CO)c3)cc2c1

>  <Energy>  (28) 
46.74909227429785

>  <Genealogy>  (28) 
COc1ccc2ccc(S(=O)(=O)[N-]c3cccc(CO)c3)cc2c1 (protonated)
COc1ccc2ccc(S(=O)(=O)[N-]c3cccc(CO)c3)cc2c1 (3D coordinates assigned)
COc1ccc2ccc(S(=O)(=O)[N-]c3cccc(CO)c3)cc2c1 (optimized conformer: 46.74909227429785 kcal/mol)

>  <smiles>  (28) 
COc1ccc2ccc(S(=O)(=O)Nc3cccc(CO)c3)cc2c1

>  <score_type>  (28) 
oracle

>  <origin>  (28) 
adg

>  <m_score__min__energy>  (28) 
-10.44

>  <m_primary>  (28) 
energy

$$$$
28:0
     RDKit          3D

 28 29  0  0  0  0  0  0  0  0999 V2000
   61.7520   33.8150   50.7460 C   0  0  0  0  0  0  0  0  0  0  0  0
   62.2860   33.6690   49.3430 C   0  0  0  0  0  0  0  0  0  0  0  0
   63.6140   33.2380   49.1760 C   0  0  0  0  0  0  0  0  0  0  0  0
   64.1440   33.1010   47.8960 C   0  0  0  0  0  0  0  0  0  0  0  0
   63.3570   33.3930   46.7900 C   0  0  0  0  0  0  0  0  0  0  0  0
   62.0440   33.8220   46.9760 C   0  0  0  0  0  0  0  0  0  0  0  0
   61.5160   33.9590   48.2340 N   0  0  0  0  0  0  0  0  0  0  0  0
   60.1240   34.4360   48.3560 C   0  0  0  0  0  0  0  0  0  0  0  0
   59.3140   34.0800   47.1310 C   0  0  0  0  0  0  0  0  0  0  0  0
   58.5340   32.9100   47.1210 C   0  0  0  0  0  0  0  0  0  0  0  0
   57.7690   32.5790   45.9990 C   0  0  0  0  0  0  0  0  0  0  0  0
   57.7670   33.4140   44.8810 C   0  0  0  0  0  0  0  0  0  0  0  0
   58.5250   34.5880   44.8840 C   0  0  0  0  0  0  0  0  0  0  0  0
   59.2920   34.9280   46.0040 C   0  0  0  0  0  0  0  0  0  0  0  0
   60.0120   36.0770   45.9820 F   0  0  0  0  0  0  0  0  0  0  0  0
   62.5527   33.5961   51.4677 H   0  0  0  0  0  0  0  0  0  0  0  0
   61.3938   34.8441   50.8967 H   0  0  0  0  0  0  0  0  0  0  0  0
   60.9200   33.1114   50.8967 H   0  0  0  0  0  0  0  0  0  0  0  0
   64.2334   33.0093   50.0558 H   0  0  0  0  0  0  0  0  0  0  0  0
   65.1820   32.7628   47.7614 H   0  0  0  0  0  0  0  0  0  0  0  0
   63.7667   33.2866   45.7747 H   0  0  0  0  0  0  0  0  0  0  0  0
   61.4213   34.0544   46.0995 H   0  0  0  0  0  0  0  0  0  0  0  0
   59.6617   33.9710   49.2392 H   0  0  0  0  0  0  0  0  0  0  0  0
   60.1391   35.5313   48.4569 H   0  0  0  0  0  0  0  0  0  0  0  0
   58.5258   32.2511   48.0018 H   0  0  0  0  0  0  0  0  0  0  0  0
   57.1672   31.6582   45.9973 H   0  0  0  0  0  0  0  0  0  0  0  0
   57.1686   33.1481   43.9971 H   0  0  0  0  0  0  0  0  0  0  0  0
   58.5187   35.2469   44.0032 H   0  0  0  0  0  0  0  0  0  0  0  0
  1  2  1  0
  2  3  2  0
  3  4  1  0
  4  5  2  0
  5  6  1  0
  6  7  2  0
  7  8  1  0
  8  9  1  0
  9 10  2  0
 10 11  1  0
 11 12  2  0
 12 13  1  0
 13 14  2  0
 14 15  1  0
  7  2  1  0
 14  9  1  0
  1 16  1  0
  1 17  1  0
  1 18  1  0
  3 19  1  0
  4 20  1  0
  5 21  1  0
  6 22  1  0
  8 23  1  0
  8 24  1  0
 10 25  1  0
 11 26  1  0
 12 27  1  0
 13 28  1  0
M  CHG  1   7   1
M  END
>  <UniqueID>  (29) 
27

>  <SMILES>  (29) 
Cc1cccc[n+]1Cc1ccccc1F

>  <Energy>  (29) 
31.517935215516875

>  <Genealogy>  (29) 
Cc1cccc[n+]1Cc1ccccc1F (3D coordinates assigned)
Cc1cccc[n+]1Cc1ccccc1F (optimized conformer: 31.517935215516875 kcal/mol)

>  <smiles>  (29) 
Cc1cccc[n+]1Cc1ccccc1F

>  <score_type>  (29) 
oracle

>  <origin>  (29) 
adg

>  <m_score__min__energy>  (29) 
-4.3899999999999997

>  <m_primary>  (29) 
energy

$$$$
29:0
     RDKit          3D

 49 52  0  0  0  0  0  0  0  0999 V2000
   60.5910   29.4000   47.5140 C   0  0  0  0  0  0  0  0  0  0  0  0
   59.5360   30.0460   46.7430 N   0  0  0  0  0  0  0  0  0  0  0  0
   59.4770   31.3520   46.3880 C   0  0  0  0  0  0  0  0  0  0  0  0
   58.3640   31.5820   45.5820 C   0  0  0  0  0  0  0  0  0  0  0  0
   58.0040   32.8870   45.0030 C   0  0  0  0  0  0  0  0  0  0  0  0
   58.0860   34.0240   45.7040 C   0  0  0  0  0  0  0  0  0  0  0  0
   59.3610   34.7560   45.8750 C   0  0  0  0  0  0  0  0  0  0  0  0
   59.5730   35.8030   45.2010 O   0  0  0  0  0  0  0  0  0  0  0  0
   60.3920   34.3000   46.8420 C   0  0  0  0  0  0  0  0  0  0  0  0
   60.1130   34.3140   48.2220 C   0  0  0  0  0  0  0  0  0  0  0  0
   61.0750   33.8940   49.1450 C   0  0  0  0  0  0  0  0  0  0  0  0
   62.3280   33.4630   48.7050 C   0  0  0  0  0  0  0  0  0  0  0  0
   62.6220   33.4560   47.3400 C   0  0  0  0  0  0  0  0  0  0  0  0
   61.6640   33.8740   46.4120 C   0  0  0  0  0  0  0  0  0  0  0  0
   57.7220   30.3540   45.4650 C   0  0  0  0  0  0  0  0  0  0  0  0
   56.5330   29.9280   44.8720 C   0  0  0  0  0  0  0  0  0  0  0  0
   55.7630   30.7280   44.2790 O   0  0  0  0  0  0  0  0  0  0  0  0
   56.2010   28.6090   44.9730 N   0  0  0  0  0  0  0  0  0  0  0  0
   56.9900   27.7180   45.6530 C   0  0  0  0  0  0  0  0  0  0  0  0
   56.5960   26.2960   45.7260 C   0  0  0  0  0  0  0  0  0  0  0  0
   55.4110   26.0160   46.0620 O   0  0  0  0  0  0  0  0  0  0  0  0
   57.5290   25.2420   45.3640 N   0  0  0  0  0  0  0  0  0  0  0  0
   57.4230   24.0500   46.2450 C   0  0  0  0  0  0  0  0  0  0  0  0
   56.4590   22.9830   45.6860 C   0  0  0  0  0  0  0  0  0  0  0  0
   55.4780   23.5760   44.8660 O   0  0  0  0  0  0  0  0  0  0  0  0
   56.0710   24.0810   43.6830 C   0  0  0  0  0  0  0  0  0  0  0  0
   57.3740   24.8760   43.9410 C   0  0  0  0  0  0  0  0  0  0  0  0
   58.1340   28.1480   46.2660 N   0  0  0  0  0  0  0  0  0  0  0  0
   58.4750   29.4560   46.1670 C   0  0  0  0  0  0  0  0  0  0  0  0
   60.3886   29.5240   48.5881 H   0  0  0  0  0  0  0  0  0  0  0  0
   60.6213   28.3283   47.2679 H   0  0  0  0  0  0  0  0  0  0  0  0
   61.5593   29.8602   47.2679 H   0  0  0  0  0  0  0  0  0  0  0  0
   60.2032   32.1202   46.6922 H   0  0  0  0  0  0  0  0  0  0  0  0
   57.6563   32.9287   43.9602 H   0  0  0  0  0  0  0  0  0  0  0  0
   57.1748   34.4283   46.1690 H   0  0  0  0  0  0  0  0  0  0  0  0
   59.1302   34.6582   48.5766 H   0  0  0  0  0  0  0  0  0  0  0  0
   60.8443   33.9031   50.2205 H   0  0  0  0  0  0  0  0  0  0  0  0
   63.0825   33.1294   49.4326 H   0  0  0  0  0  0  0  0  0  0  0  0
   63.6107   33.1204   46.9939 H   0  0  0  0  0  0  0  0  0  0  0  0
   61.9050   33.8703   45.3387 H   0  0  0  0  0  0  0  0  0  0  0  0
   58.4990   25.6180   45.4880 H   0  0  0  0  0  0  0  0  0  0  0  0
   58.4215   23.6012   46.3521 H   0  0  0  0  0  0  0  0  0  0  0  0
   57.0232   24.3858   47.2132 H   0  0  0  0  0  0  0  0  0  0  0  0
   57.0318   22.2542   45.0937 H   0  0  0  0  0  0  0  0  0  0  0  0
   55.9592   22.4829   46.5287 H   0  0  0  0  0  0  0  0  0  0  0  0
   56.3042   23.2343   43.0207 H   0  0  0  0  0  0  0  0  0  0  0  0
   55.3499   24.7767   43.2291 H   0  0  0  0  0  0  0  0  0  0  0  0
   58.2323   24.2583   43.6381 H   0  0  0  0  0  0  0  0  0  0  0  0
   57.3252   25.8059   43.3554 H   0  0  0  0  0  0  0  0  0  0  0  0
  1  2  1  0
  2  3  1  0
  3  4  2  0
  4  5  1  0
  5  6  2  3
  6  7  1  0
  7  8  2  0
  7  9  1  0
  9 10  2  0
 10 11  1  0
 11 12  2  0
 12 13  1  0
 13 14  2  0
  4 15  1  0
 15 16  1  0
 16 17  2  0
 16 18  1  0
 18 19  2  0
 19 20  1  0
 20 21  2  0
 20 22  1  0
 22 23  1  0
 23 24  1  0
 24 25  1  0
 25 26  1  0
 26 27  1  0
 19 28  1  0
 28 29  1  0
 29  2  1  0
 14  9  1  0
 29 15  2  0
 27 22  1  0
  1 30  1  0
  1 31  1  0
  1 32  1  0
  3 33  1  0
  5 34  1  0
  6 35  1  0
 10 36  1  0
 11 37  1  0
 12 38  1  0
 13 39  1  0
 14 40  1  0
 22 41  1  0
 23 42  1  0
 23 43  1  0
 24 44  1  0
 24 45  1  0
 26 46  1  0
 26 47  1  0
 27 48  1  0
 27 49  1  0
M  CHG  2  22   1  28  -1
M  END
>  <UniqueID>  (30) 
28

>  <SMILES>  (30) 
Cn1cc(C=CC(=O)c2ccccc2)c2c(=O)nc(C(=O)[NH+]3CCOCC3)[n-]c21

>  <Energy>  (30) 
108.69766207806093

>  <Genealogy>  (30) 
Cn1cc(C=CC(=O)c2ccccc2)c2c(=O)nc(C(=O)[NH+]3CCOCC3)[n-]c21 (protonated)
Cn1cc(C=CC(=O)c2ccccc2)c2c(=O)nc(C(=O)[NH+]3CCOCC3)[n-]c21 (3D coordinates assigned)
Cn1cc(C=CC(=O)c2ccccc2)c2c(=O)nc(C(=O)[NH+]3CCOCC3)[n-]c21 (nonaromatic ring conformer: 108.69766207806093 kcal/mol)

>  <smiles>  (30) 
Cn1cc(C=CC(=O)c2ccccc2)c2c(=O)nc(C(=O)N3CCOCC3)[nH]c21

>  <score_type>  (30) 
oracle

>  <origin>  (30) 
adg

>  <m_score__min__energy>  (30) 
-9.1600000000000001

>  <m_primary>  (30) 
energy

$$$$
30:0
     RDKit          3D

 39 40  0  0  0  0  0  0  0  0999 V2000
   55.0000   26.1960   45.9810 N   0  0  0  0  0  0  0  0  0  0  0  0
   56.7270   26.1510   45.8550 S   0  0  0  0  0  0  0  0  0  0  0  0
   57.1210   25.3450   44.6490 O   0  0  0  0  0  0  0  0  0  0  0  0
   57.3020   25.5000   47.0830 O   0  0  0  0  0  0  0  0  0  0  0  0
   57.3360   27.8000   45.7140 C   0  0  0  0  0  0  0  0  0  0  0  0
   58.5080   28.1770   46.3900 C   0  0  0  0  0  0  0  0  0  0  0  0
   58.9770   29.4940   46.3120 C   0  0  0  0  0  0  0  0  0  0  0  0
   58.2840   30.4510   45.5460 C   0  0  0  0  0  0  0  0  0  0  0  0
   58.7480   31.8110   45.4360 N   0  0  0  0  0  0  0  0  0  0  0  0
   58.4160   32.6910   44.3410 C   0  0  0  0  0  0  0  0  0  0  0  0
   58.1090   32.2310   43.2060 O   0  0  0  0  0  0  0  0  0  0  0  0
   58.4710   34.1750   44.5240 C   0  0  0  0  0  0  0  0  0  0  0  0
   58.0630   34.5490   45.8780 N   0  0  0  0  0  0  0  0  0  0  0  0
   58.7110   34.1720   47.1040 C   0  0  0  0  0  0  0  0  0  0  0  0
   58.1160   33.3710   47.8740 O   0  0  0  0  0  0  0  0  0  0  0  0
   60.0640   34.7040   47.5140 C   0  0  0  0  0  0  0  0  0  0  0  0
   61.1180   33.6180   47.5180 C   0  0  0  0  0  0  0  0  0  0  0  0
   62.3760   33.8440   46.9170 C   0  0  0  0  0  0  0  0  0  0  0  0
   63.3490   32.8380   46.9240 C   0  0  0  0  0  0  0  0  0  0  0  0
   63.0690   31.5940   47.5040 C   0  0  0  0  0  0  0  0  0  0  0  0
   61.8090   31.3460   48.0650 C   0  0  0  0  0  0  0  0  0  0  0  0
   60.8340   32.3470   48.0620 C   0  0  0  0  0  0  0  0  0  0  0  0
   57.0940   30.0810   44.9010 C   0  0  0  0  0  0  0  0  0  0  0  0
   56.6250   28.7610   44.9770 C   0  0  0  0  0  0  0  0  0  0  0  0
   54.7470   27.0940   46.4550 H   0  0  0  0  0  0  0  0  0  0  0  0
   59.0603   27.4338   46.9838 H   0  0  0  0  0  0  0  0  0  0  0  0
   59.8911   29.7824   46.8516 H   0  0  0  0  0  0  0  0  0  0  0  0
   59.1030   32.2540   46.3120 H   0  0  0  0  0  0  0  0  0  0  0  0
   59.5002   34.5216   44.3492 H   0  0  0  0  0  0  0  0  0  0  0  0
   57.7810   34.6436   43.8068 H   0  0  0  0  0  0  0  0  0  0  0  0
   60.3662   35.4907   46.8071 H   0  0  0  0  0  0  0  0  0  0  0  0
   59.9793   35.1016   48.5361 H   0  0  0  0  0  0  0  0  0  0  0  0
   62.5915   34.8127   46.4424 H   0  0  0  0  0  0  0  0  0  0  0  0
   64.3350   33.0244   46.4734 H   0  0  0  0  0  0  0  0  0  0  0  0
   63.8402   30.8098   47.5191 H   0  0  0  0  0  0  0  0  0  0  0  0
   61.5875   30.3636   48.5076 H   0  0  0  0  0  0  0  0  0  0  0  0
   59.8396   32.1433   48.4860 H   0  0  0  0  0  0  0  0  0  0  0  0
   56.5251   30.8310   44.3320 H   0  0  0  0  0  0  0  0  0  0  0  0
   55.6975   28.4779   44.4577 H   0  0  0  0  0  0  0  0  0  0  0  0
  1  2  1  0
  2  3  2  0
  2  4  2  0
  2  5  1  0
  5  6  2  0
  6  7  1  0
  7  8  2  0
  8  9  1  0
  9 10  1  0
 10 11  2  0
 10 12  1  0
 12 13  1  0
 13 14  1  0
 14 15  2  0
 14 16  1  0
 16 17  1  0
 17 18  2  0
 18 19  1  0
 19 20  2  0
 20 21  1  0
 21 22  2  0
  8 23  1  0
 23 24  2  0
 24  5  1  0
 22 17  1  0
  1 25  1  0
  6 26  1  0
  7 27  1  0
  9 28  1  0
 12 29  1  0
 12 30  1  0
 16 31  1  0
 16 32  1  0
 18 33  1  0
 19 34  1  0
 20 35  1  0
 21 36  1  0
 22 37  1  0
 23 38  1  0
 24 39  1  0
M  CHG  2   1  -1  13  -1
M  END
>  <UniqueID>  (31) 
29

>  <SMILES>  (31) 
[NH-]S(=O)(=O)c1ccc(NC(=O)C[N-]C(=O)Cc2ccccc2)cc1

>  <Energy>  (31) 
36.477417125958716

>  <Genealogy>  (31) 
[NH-]S(=O)(=O)c1ccc(NC(=O)C[N-]C(=O)Cc2ccccc2)cc1 (protonated)
[NH-]S(=O)(=O)c1ccc(NC(=O)C[N-]C(=O)Cc2ccccc2)cc1 (3D coordinates assigned)
[NH-]S(=O)(=O)c1ccc(NC(=O)C[N-]C(=O)Cc2ccccc2)cc1 (optimized conformer: 36.477417125958716 kcal/mol)

>  <smiles>  (31) 
NS(=O)(=O)c1ccc(NC(=O)CNC(=O)Cc2ccccc2)cc1

>  <score_type>  (31) 
oracle

>  <origin>  (31) 
adg

>  <m_score__min__energy>  (31) 
-11.6

>  <m_primary>  (31) 
energy

$$$$
31:0
     RDKit          3D

 40 42  0  0  0  0  0  0  0  0999 V2000
   55.7460   28.5730   45.1220 O   0  0  0  0  0  0  0  0  0  0  0  0
   56.2710   27.5480   45.6370 C   0  0  0  0  0  0  0  0  0  0  0  0
   57.7490   27.5070   45.8600 C   0  0  0  0  0  0  0  0  0  0  0  0
   58.6470   28.0340   44.3600 S   0  0  0  0  0  0  0  0  0  0  0  0
   58.2760   29.7730   44.5700 C   0  0  0  0  0  0  0  0  0  0  0  0
   57.7730   30.4880   43.5350 N   0  0  0  0  0  0  0  0  0  0  0  0
   57.5070   31.8110   43.6660 C   0  0  0  0  0  0  0  0  0  0  0  0
   57.7470   32.4610   44.8800 C   0  0  0  0  0  0  0  0  0  0  0  0
   57.3810   34.1810   44.9750 Cl  0  0  0  0  0  0  0  0  0  0  0  0
   58.2640   31.7020   45.9560 C   0  0  0  0  0  0  0  0  0  0  0  0
   58.5610   32.2680   47.2920 C   0  0  0  0  0  0  0  0  0  0  0  0
   57.7500   33.0410   47.8680 O   0  0  0  0  0  0  0  0  0  0  0  0
   59.7760   31.8820   47.9530 N   0  0  0  0  0  0  0  0  0  0  0  0
   61.1000   32.3450   47.6480 C   0  0  0  0  0  0  0  0  0  0  0  0
   62.1940   31.6640   48.1990 C   0  0  0  0  0  0  0  0  0  0  0  0
   63.4990   32.0730   47.9110 C   0  0  0  0  0  0  0  0  0  0  0  0
   63.7220   33.1560   47.0560 C   0  0  0  0  0  0  0  0  0  0  0  0
   62.6380   33.8240   46.4800 C   0  0  0  0  0  0  0  0  0  0  0  0
   61.3310   33.4190   46.7680 C   0  0  0  0  0  0  0  0  0  0  0  0
   58.5110   30.3780   45.7620 N   0  0  0  0  0  0  0  0  0  0  0  0
   55.4700   26.4130   45.9890 N   0  0  0  0  0  0  0  0  0  0  0  0
   55.6410   25.0770   45.4980 C   0  0  0  0  0  0  0  0  0  0  0  0
   54.7100   24.0980   45.8680 C   0  0  0  0  0  0  0  0  0  0  0  0
   54.8300   22.7890   45.3900 C   0  0  0  0  0  0  0  0  0  0  0  0
   55.8710   22.4540   44.5200 C   0  0  0  0  0  0  0  0  0  0  0  0
   56.7910   23.4290   44.1240 C   0  0  0  0  0  0  0  0  0  0  0  0
   56.6750   24.7380   44.6040 C   0  0  0  0  0  0  0  0  0  0  0  0
   58.0071   28.1810   46.6901 H   0  0  0  0  0  0  0  0  0  0  0  0
   58.0404   26.4739   46.1002 H   0  0  0  0  0  0  0  0  0  0  0  0
   57.1007   32.3751   42.8135 H   0  0  0  0  0  0  0  0  0  0  0  0
   62.0246   30.8027   48.8619 H   0  0  0  0  0  0  0  0  0  0  0  0
   64.3522   31.5417   48.3580 H   0  0  0  0  0  0  0  0  0  0  0  0
   64.7494   33.4821   46.8368 H   0  0  0  0  0  0  0  0  0  0  0  0
   62.8133   34.6698   45.7989 H   0  0  0  0  0  0  0  0  0  0  0  0
   60.4806   33.9414   46.3054 H   0  0  0  0  0  0  0  0  0  0  0  0
   53.8788   24.3604   46.5391 H   0  0  0  0  0  0  0  0  0  0  0  0
   54.1042   22.0225   45.6992 H   0  0  0  0  0  0  0  0  0  0  0  0
   55.9664   21.4236   44.1470 H   0  0  0  0  0  0  0  0  0  0  0  0
   57.6069   23.1669   43.4344 H   0  0  0  0  0  0  0  0  0  0  0  0
   57.3942   25.5054   44.2819 H   0  0  0  0  0  0  0  0  0  0  0  0
  1  2  2  0
  2  3  1  0
  3  4  1  0
  4  5  1  0
  5  6  2  0
  6  7  1  0
  7  8  2  0
  8  9  1  0
  8 10  1  0
 10 11  1  0
 11 12  2  0
 11 13  1  0
 13 14  1  0
 14 15  2  0
 15 16  1  0
 16 17  2  0
 17 18  1  0
 18 19  2  0
 10 20  2  0
  2 21  1  0
 21 22  1  0
 22 23  2  0
 23 24  1  0
 24 25  2  0
 25 26  1  0
 26 27  2  0
 20  5  1  0
 27 22  1  0
 19 14  1  0
  3 28  1  0
  3 29  1  0
  7 30  1  0
 15 31  1  0
 16 32  1  0
 17 33  1  0
 18 34  1  0
 19 35  1  0
 23 36  1  0
 24 37  1  0
 25 38  1  0
 26 39  1  0
 27 40  1  0
M  CHG  2  13  -1  21  -1
M  END
>  <UniqueID>  (32) 
30

>  <SMILES>  (32) 
O=C(CSc1ncc(Cl)c(C(=O)[N-]c2ccccc2)n1)[N-]c1ccccc1

>  <Energy>  (32) 
48.227256317440805

>  <Genealogy>  (32) 
O=C(CSc1ncc(Cl)c(C(=O)[N-]c2ccccc2)n1)[N-]c1ccccc1 (protonated)
O=C(CSc1ncc(Cl)c(C(=O)[N-]c2ccccc2)n1)[N-]c1ccccc1 (3D coordinates assigned)
O=C(CSc1ncc(Cl)c(C(=O)[N-]c2ccccc2)n1)[N-]c1ccccc1 (optimized conformer: 48.227256317440805 kcal/mol)

>  <smiles>  (32) 
O=C(CSc1ncc(Cl)c(C(=O)Nc2ccccc2)n1)Nc1ccccc1

>  <score_type>  (32) 
oracle

>  <origin>  (32) 
adg

>  <m_score__min__energy>  (32) 
-11.619999999999999

>  <m_primary>  (32) 
energy

$$$$
32:0
     RDKit          3D

 18 19  0  0  0  0  0  0  0  0999 V2000
   60.0000   26.9180   46.4350 C   0  0  0  0  0  0  0  0  0  0  0  0
   58.7490   27.5160   45.9310 N   0  0  0  0  0  0  0  0  0  0  0  0
   57.5410   26.8500   46.0930 C   0  0  0  0  0  0  0  0  0  0  0  0
   57.4500   25.3880   46.8410 S   0  0  0  0  0  0  0  0  0  0  0  0
   56.3780   27.3960   45.6290 N   0  0  0  0  0  0  0  0  0  0  0  0
   56.4180   28.5950   45.0100 C   0  0  0  0  0  0  0  0  0  0  0  0
   55.3720   29.2620   44.5010 N   0  0  0  0  0  0  0  0  0  0  0  0
   55.8910   30.4020   43.9870 C   0  0  0  0  0  0  0  0  0  0  0  0
   57.2720   30.4460   44.1750 C   0  0  0  0  0  0  0  0  0  0  0  0
   57.5780   29.2730   44.8340 C   0  0  0  0  0  0  0  0  0  0  0  0
   58.7730   28.7420   45.2950 C   0  0  0  0  0  0  0  0  0  0  0  0
   59.8500   29.3800   45.1280 O   0  0  0  0  0  0  0  0  0  0  0  0
   59.9913   26.9222   47.5350 H   0  0  0  0  0  0  0  0  0  0  0  0
   60.0834   25.8827   46.0729 H   0  0  0  0  0  0  0  0  0  0  0  0
   60.8581   27.5033   46.0729 H   0  0  0  0  0  0  0  0  0  0  0  0
   54.3710   28.9680   44.5010 H   0  0  0  0  0  0  0  0  0  0  0  0
   55.3031   31.1869   43.4887 H   0  0  0  0  0  0  0  0  0  0  0  0
   57.9656   31.2417   43.8656 H   0  0  0  0  0  0  0  0  0  0  0  0
  1  2  1  0
  2  3  1  0
  3  4  2  0
  3  5  1  0
  5  6  1  0
  6  7  1  0
  7  8  1  0
  8  9  2  0
  9 10  1  0
 10 11  1  0
 11 12  2  0
 11  2  1  0
 10  6  2  0
  1 13  1  0
  1 14  1  0
  1 15  1  0
  7 16  1  0
  8 17  1  0
  9 18  1  0
M  CHG  1   5  -1
M  END
>  <UniqueID>  (33) 
31

>  <SMILES>  (33) 
Cn1c(=S)[n-]c2[nH]ccc2c1=O

>  <Energy>  (33) 
59.17466844569994

>  <Genealogy>  (33) 
Cn1c(=S)[n-]c2[nH]ccc2c1=O (protonated)
Cn1c(=S)[n-]c2[nH]ccc2c1=O (3D coordinates assigned)
Cn1c(=S)[n-]c2[nH]ccc2c1=O (optimized conformer: 59.17466844569994 kcal/mol)

>  <smiles>  (33) 
Cn1c(=S)[nH]c2[nH]ccc2c1=O

>  <score_type>  (33) 
oracle

>  <origin>  (33) 
adg

>  <m_score__min__energy>  (33) 
-6.8899999999999997

>  <m_primary>  (33) 
energy

$$$$
33:0
     RDKit          3D

 42 44  0  0  0  0  0  0  0  0999 V2000
   60.2110   34.3160   48.3390 C   0  0  0  0  0  0  0  0  0  0  0  0
   59.1170   34.4550   47.4380 O   0  0  0  0  0  0  0  0  0  0  0  0
   58.6740   33.4630   46.5480 C   0  0  0  0  0  0  0  0  0  0  0  0
   58.4680   33.7530   45.1860 C   0  0  0  0  0  0  0  0  0  0  0  0
   58.0340   32.7650   44.3000 C   0  0  0  0  0  0  0  0  0  0  0  0
   57.8180   33.0860   42.9980 N   0  0  0  0  0  0  0  0  0  0  0  0
   57.3840   32.1720   42.0940 C   0  0  0  0  0  0  0  0  0  0  0  0
   57.1240   32.6550   40.4300 Cl  0  0  0  0  0  0  0  0  0  0  0  0
   57.1550   30.8550   42.4880 C   0  0  0  0  0  0  0  0  0  0  0  0
   57.3780   30.4700   43.8190 C   0  0  0  0  0  0  0  0  0  0  0  0
   57.1810   29.0460   44.1750 C   0  0  0  0  0  0  0  0  0  0  0  0
   56.4190   28.7390   45.1320 O   0  0  0  0  0  0  0  0  0  0  0  0
   57.8880   28.0200   43.4650 N   0  0  0  0  0  0  0  0  0  0  0  0
   57.7860   26.6140   43.8540 C   0  0  0  0  0  0  0  0  0  0  0  0
   58.1520   26.4390   45.3130 C   0  0  0  0  0  0  0  0  0  0  0  0
   59.2720   27.1140   45.8550 C   0  0  0  0  0  0  0  0  0  0  0  0
   60.2840   28.1780   44.8820 Cl  0  0  0  0  0  0  0  0  0  0  0  0
   59.6190   26.9310   47.1990 C   0  0  0  0  0  0  0  0  0  0  0  0
   58.8790   26.0690   48.0070 C   0  0  0  0  0  0  0  0  0  0  0  0
   57.7930   25.3740   47.4760 C   0  0  0  0  0  0  0  0  0  0  0  0
   57.4300   25.5430   46.1360 C   0  0  0  0  0  0  0  0  0  0  0  0
   56.0790   24.5920   45.5240 Cl  0  0  0  0  0  0  0  0  0  0  0  0
   57.8110   31.4450   44.7540 C   0  0  0  0  0  0  0  0  0  0  0  0
   57.9910   31.1650   46.1220 C   0  0  0  0  0  0  0  0  0  0  0  0
   58.4230   32.1490   47.0200 C   0  0  0  0  0  0  0  0  0  0  0  0
   58.5770   31.7510   48.3610 O   0  0  0  0  0  0  0  0  0  0  0  0
   59.2510   30.5880   48.8280 C   0  0  0  0  0  0  0  0  0  0  0  0
   59.8417   34.3629   49.3741 H   0  0  0  0  0  0  0  0  0  0  0  0
   60.7049   33.3479   48.1694 H   0  0  0  0  0  0  0  0  0  0  0  0
   60.9314   35.1298   48.1694 H   0  0  0  0  0  0  0  0  0  0  0  0
   58.6515   34.7720   44.8146 H   0  0  0  0  0  0  0  0  0  0  0  0
   56.7990   30.1163   41.7548 H   0  0  0  0  0  0  0  0  0  0  0  0
   58.4730   28.2890   42.6410 H   0  0  0  0  0  0  0  0  0  0  0  0
   56.7536   26.2687   43.6959 H   0  0  0  0  0  0  0  0  0  0  0  0
   58.4818   26.0237   43.2396 H   0  0  0  0  0  0  0  0  0  0  0  0
   60.4804   27.4704   47.6198 H   0  0  0  0  0  0  0  0  0  0  0  0
   59.1521   25.9370   49.0644 H   0  0  0  0  0  0  0  0  0  0  0  0
   57.2179   24.6882   48.1154 H   0  0  0  0  0  0  0  0  0  0  0  0
   57.7876   30.1500   46.4940 H   0  0  0  0  0  0  0  0  0  0  0  0
   59.2540   30.5828   49.9280 H   0  0  0  0  0  0  0  0  0  0  0  0
   58.7329   29.6907   48.4585 H   0  0  0  0  0  0  0  0  0  0  0  0
   60.2871   30.5914   48.4585 H   0  0  0  0  0  0  0  0  0  0  0  0
  1  2  1  0
  2  3  1  0
  3  4  2  0
  4  5  1  0
  5  6  2  0
  6  7  1  0
  7  8  1  0
  7  9  2  0
  9 10  1  0
 10 11  1  0
 11 12  2  0
 11 13  1  0
 13 14  1  0
 14 15  1  0
 15 16  2  0
 16 17  1  0
 16 18  1  0
 18 19  2  0
 19 20  1  0
 20 21  2  0
 21 22  1  0
 10 23  2  0
 23 24  1  0
 24 25  2  0
 25 26  1  0
 26 27  1  0
 25  3  1  0
 23  5  1  0
 21 15  1  0
  1 28  1  0
  1 29  1  0
  1 30  1  0
  4 31  1  0
  9 32  1  0
 13 33  1  0
 14 34  1  0
 14 35  1  0
 18 36  1  0
 19 37  1  0
 20 38  1  0
 24 39  1  0
 27 40  1  0
 27 41  1  0
 27 42  1  0
M  END
>  <UniqueID>  (34) 
32

>  <SMILES>  (34) 
COc1cc2nc(Cl)cc(C(=O)NCc3c(Cl)cccc3Cl)c2cc1OC

>  <Energy>  (34) 
57.03887727444877

>  <Genealogy>  (34) 
COc1cc2nc(Cl)cc(C(=O)NCc3c(Cl)cccc3Cl)c2cc1OC (3D coordinates assigned)
COc1cc2nc(Cl)cc(C(=O)NCc3c(Cl)cccc3Cl)c2cc1OC (optimized conformer: 57.03887727444877 kcal/mol)

>  <smiles>  (34) 
COc1cc2nc(Cl)cc(C(=O)NCc3c(Cl)cccc3Cl)c2cc1OC

>  <score_type>  (34) 
oracle

>  <origin>  (34) 
adg

>  <m_score__min__energy>  (34) 
-7.9100000000000001

>  <m_primary>  (34) 
energy

$$$$
34:0
     RDKit          3D

 38 39  0  0  0  0  0  0  0  0999 V2000
   62.9690   33.2450   47.1150 C   0  0  0  0  0  0  0  0  0  0  0  0
   63.2050   31.7890   47.5000 C   0  0  0  0  0  0  0  0  0  0  0  0
   61.9030   31.0830   47.7160 C   0  0  0  0  0  0  0  0  0  0  0  0
   61.1420   30.4670   46.7390 C   0  0  0  0  0  0  0  0  0  0  0  0
   60.0700   29.9290   47.4270 C   0  0  0  0  0  0  0  0  0  0  0  0
   58.9530   29.1840   46.8210 C   0  0  0  0  0  0  0  0  0  0  0  0
   59.0490   27.9370   46.6840 O   0  0  0  0  0  0  0  0  0  0  0  0
   57.7620   29.8400   46.3740 N   0  0  0  0  0  0  0  0  0  0  0  0
   57.6930   30.9470   45.0400 S   0  0  0  0  0  0  0  0  0  0  0  0
   58.4590   30.3710   43.8830 O   0  0  0  0  0  0  0  0  0  0  0  0
   56.2600   31.1290   44.6210 O   0  0  0  0  0  0  0  0  0  0  0  0
   58.4050   32.4910   45.4900 C   0  0  0  0  0  0  0  0  0  0  0  0
   58.5140   33.5290   44.5510 C   0  0  0  0  0  0  0  0  0  0  0  0
   59.0480   34.7640   44.9300 C   0  0  0  0  0  0  0  0  0  0  0  0
   59.4810   34.9670   46.2430 C   0  0  0  0  0  0  0  0  0  0  0  0
   59.3820   33.9330   47.1800 C   0  0  0  0  0  0  0  0  0  0  0  0
   59.9710   34.2120   48.9760 Br  0  0  0  0  0  0  0  0  0  0  0  0
   58.8460   32.6970   46.8040 C   0  0  0  0  0  0  0  0  0  0  0  0
   60.2220   30.1840   48.7470 N   0  0  0  0  0  0  0  0  0  0  0  0
   59.2950   29.8520   49.8300 C   0  0  0  0  0  0  0  0  0  0  0  0
   58.5170   31.0890   50.2610 C   0  0  0  0  0  0  0  0  0  0  0  0
   61.3270   30.8920   48.9170 N   0  0  0  0  0  0  0  0  0  0  0  0
   62.8703   33.8538   48.0259 H   0  0  0  0  0  0  0  0  0  0  0  0
   63.8198   33.6096   46.5207 H   0  0  0  0  0  0  0  0  0  0  0  0
   62.0466   33.3222   46.5207 H   0  0  0  0  0  0  0  0  0  0  0  0
   63.7588   31.2870   46.6930 H   0  0  0  0  0  0  0  0  0  0  0  0
   63.7838   31.7590   48.4349 H   0  0  0  0  0  0  0  0  0  0  0  0
   61.3439   30.4165   45.6589 H   0  0  0  0  0  0  0  0  0  0  0  0
   58.1787   33.3702   43.5155 H   0  0  0  0  0  0  0  0  0  0  0  0
   59.1275   35.5772   44.1936 H   0  0  0  0  0  0  0  0  0  0  0  0
   59.8997   35.9399   46.5398 H   0  0  0  0  0  0  0  0  0  0  0  0
   58.7705   31.8846   47.5417 H   0  0  0  0  0  0  0  0  0  0  0  0
   58.5896   29.0837   49.4806 H   0  0  0  0  0  0  0  0  0  0  0  0
   59.8698   29.4748   50.6887 H   0  0  0  0  0  0  0  0  0  0  0  0
   58.4860   31.1384   51.3595 H   0  0  0  0  0  0  0  0  0  0  0  0
   59.0119   31.9890   49.8674 H   0  0  0  0  0  0  0  0  0  0  0  0
   57.4914   31.0327   49.8674 H   0  0  0  0  0  0  0  0  0  0  0  0
   61.6810   31.2400   49.8370 H   0  0  0  0  0  0  0  0  0  0  0  0
  1  2  1  0
  2  3  1  0
  3  4  1  0
  4  5  2  0
  5  6  1  0
  6  7  2  0
  6  8  1  0
  8  9  1  0
  9 10  2  0
  9 11  2  0
  9 12  1  0
 12 13  2  0
 13 14  1  0
 14 15  2  0
 15 16  1  0
 16 17  1  0
 16 18  2  0
  5 19  1  0
 19 20  1  0
 20 21  1  0
 19 22  1  0
 22  3  2  0
 18 12  1  0
  1 23  1  0
  1 24  1  0
  1 25  1  0
  2 26  1  0
  2 27  1  0
  4 28  1  0
 13 29  1  0
 14 30  1  0
 15 31  1  0
 18 32  1  0
 20 33  1  0
 20 34  1  0
 21 35  1  0
 21 36  1  0
 21 37  1  0
 22 38  1  0
M  CHG  2   8  -1  22   1
M  END
>  <UniqueID>  (35) 
33

>  <SMILES>  (35) 
CCc1cc(C(=O)[N-]S(=O)(=O)c2cccc(Br)c2)n(CC)[nH+]1

>  <Energy>  (35) 
66.79977619213362

>  <Genealogy>  (35) 
CCc1cc(C(=O)[N-]S(=O)(=O)c2cccc(Br)c2)n(CC)[nH+]1 (protonated)
CCc1cc(C(=O)[N-]S(=O)(=O)c2cccc(Br)c2)n(CC)[nH+]1 (3D coordinates assigned)
CCc1cc(C(=O)[N-]S(=O)(=O)c2cccc(Br)c2)n(CC)[nH+]1 (optimized conformer: 66.79977619213362 kcal/mol)

>  <smiles>  (35) 
CCc1cc(C(=O)NS(=O)(=O)c2cccc(Br)c2)n(CC)n1

>  <score_type>  (35) 
oracle

>  <origin>  (35) 
adg

>  <m_score__min__energy>  (35) 
-7.7800000000000002

>  <m_primary>  (35) 
energy

$$$$
35:0
     RDKit          3D

 45 47  0  0  0  0  0  0  0  0999 V2000
   57.7900   28.4930   43.7310 C   0  0  0  0  0  0  0  0  0  0  0  0
   56.9540   29.2560   44.7680 C   0  0  0  0  0  0  0  0  0  0  0  0
   55.5870   29.6980   44.2190 C   0  0  0  0  0  0  0  0  0  0  0  0
   57.7260   30.3760   45.3880 N   0  0  0  0  0  0  0  0  0  0  0  0
   58.2980   30.2780   46.6460 C   0  0  0  0  0  0  0  0  0  0  0  0
   58.3060   28.7630   47.6250 S   0  0  0  0  0  0  0  0  0  0  0  0
   60.0970   28.4380   47.4170 C   0  0  0  0  0  0  0  0  0  0  0  0
   60.3320   27.6020   46.2000 C   0  0  0  0  0  0  0  0  0  0  0  0
   60.5570   28.1680   45.0950 O   0  0  0  0  0  0  0  0  0  0  0  0
   60.3680   26.1720   46.3080 N   0  0  0  0  0  0  0  0  0  0  0  0
   59.2750   25.2780   46.0410 C   0  0  0  0  0  0  0  0  0  0  0  0
   59.4860   23.9510   45.6250 C   0  0  0  0  0  0  0  0  0  0  0  0
   58.3970   23.1200   45.3500 C   0  0  0  0  0  0  0  0  0  0  0  0
   57.0920   23.6040   45.4700 C   0  0  0  0  0  0  0  0  0  0  0  0
   56.8600   24.9360   45.8560 C   0  0  0  0  0  0  0  0  0  0  0  0
   55.5140   25.4380   45.9650 N   0  0  0  0  0  0  0  0  0  0  0  0
   55.2940   26.6680   46.0030 O   0  0  0  0  0  0  0  0  0  0  0  0
   54.4480   24.5700   46.0370 O   0  0  0  0  0  0  0  0  0  0  0  0
   57.9650   25.7690   46.1340 C   0  0  0  0  0  0  0  0  0  0  0  0
   58.9200   31.3480   47.2050 N   0  0  0  0  0  0  0  0  0  0  0  0
   59.0280   32.5340   46.5650 C   0  0  0  0  0  0  0  0  0  0  0  0
   59.6880   33.6050   47.1800 C   0  0  0  0  0  0  0  0  0  0  0  0
   59.8120   34.8270   46.5110 C   0  0  0  0  0  0  0  0  0  0  0  0
   59.2750   34.9810   45.2300 C   0  0  0  0  0  0  0  0  0  0  0  0
   58.6130   33.9140   44.6130 C   0  0  0  0  0  0  0  0  0  0  0  0
   58.4860   32.6770   45.2800 C   0  0  0  0  0  0  0  0  0  0  0  0
   57.8290   31.5750   44.7060 C   0  0  0  0  0  0  0  0  0  0  0  0
   57.3320   31.7020   43.5500 O   0  0  0  0  0  0  0  0  0  0  0  0
   58.5072   27.8385   44.2480 H   0  0  0  0  0  0  0  0  0  0  0  0
   57.1255   27.8835   43.1010 H   0  0  0  0  0  0  0  0  0  0  0  0
   58.3364   29.2103   43.1010 H   0  0  0  0  0  0  0  0  0  0  0  0
   56.7280   28.5478   45.5788 H   0  0  0  0  0  0  0  0  0  0  0  0
   54.9089   29.9173   45.0569 H   0  0  0  0  0  0  0  0  0  0  0  0
   55.7135   30.6010   43.6037 H   0  0  0  0  0  0  0  0  0  0  0  0
   55.1609   28.8918   43.6037 H   0  0  0  0  0  0  0  0  0  0  0  0
   60.6297   29.3943   47.3093 H   0  0  0  0  0  0  0  0  0  0  0  0
   60.4689   27.8984   48.3005 H   0  0  0  0  0  0  0  0  0  0  0  0
   60.5108   23.5666   45.5159 H   0  0  0  0  0  0  0  0  0  0  0  0
   58.5680   22.0793   45.0374 H   0  0  0  0  0  0  0  0  0  0  0  0
   56.2409   22.9391   45.2613 H   0  0  0  0  0  0  0  0  0  0  0  0
   57.7964   26.8158   46.4271 H   0  0  0  0  0  0  0  0  0  0  0  0
   60.1089   33.4852   48.1892 H   0  0  0  0  0  0  0  0  0  0  0  0
   60.3325   35.6674   46.9935 H   0  0  0  0  0  0  0  0  0  0  0  0
   59.3730   35.9431   44.7058 H   0  0  0  0  0  0  0  0  0  0  0  0
   58.1904   34.0397   43.6052 H   0  0  0  0  0  0  0  0  0  0  0  0
  1  2  1  0
  2  3  1  0
  2  4  1  0
  4  5  1  0
  5  6  1  0
  6  7  1  0
  7  8  1  0
  8  9  2  0
  8 10  1  0
 10 11  1  0
 11 12  2  0
 12 13  1  0
 13 14  2  0
 14 15  1  0
 15 16  1  0
 16 17  2  0
 16 18  1  0
 15 19  2  0
  5 20  2  0
 20 21  1  0
 21 22  2  0
 22 23  1  0
 23 24  2  0
 24 25  1  0
 25 26  2  0
 26 27  1  0
 27 28  2  0
 27  4  1  0
 19 11  1  0
 26 21  1  0
  1 29  1  0
  1 30  1  0
  1 31  1  0
  2 32  1  0
  3 33  1  0
  3 34  1  0
  3 35  1  0
  7 36  1  0
  7 37  1  0
 12 38  1  0
 13 39  1  0
 14 40  1  0
 19 41  1  0
 22 42  1  0
 23 43  1  0
 24 44  1  0
 25 45  1  0
M  CHG  3  10  -1  16   1  18  -1
M  END
>  <UniqueID>  (36) 
34

>  <SMILES>  (36) 
CC(C)n1c(SCC(=O)[N-]c2cccc([N+](=O)[O-])c2)nc2ccccc2c1=O

>  <Energy>  (36) 
60.44412626733656

>  <Genealogy>  (36) 
CC(C)n1c(SCC(=O)[N-]c2cccc([N+](=O)[O-])c2)nc2ccccc2c1=O (protonated)
CC(C)n1c(SCC(=O)[N-]c2cccc([N+](=O)[O-])c2)nc2ccccc2c1=O (3D coordinates assigned)
CC(C)n1c(SCC(=O)[N-]c2cccc([N+](=O)[O-])c2)nc2ccccc2c1=O (optimized conformer: 60.44412626733656 kcal/mol)

>  <smiles>  (36) 
CC(C)n1c(SCC(=O)Nc2cccc([N+](=O)[O-])c2)nc2ccccc2c1=O

>  <score_type>  (36) 
oracle

>  <origin>  (36) 
adg

>  <m_score__min__energy>  (36) 
-10.27

>  <m_primary>  (36) 
energy

$$$$
36:0
     RDKit          3D

 49 52  0  0  0  0  0  0  0  0999 V2000
   57.4400   34.1860   45.0070 O   0  0  0  0  0  0  0  0  0  0  0  0
   58.5760   33.9260   45.4890 C   0  0  0  0  0  0  0  0  0  0  0  0
   59.3930   35.0290   46.0860 C   0  0  0  0  0  0  0  0  0  0  0  0
   60.1060   34.5310   47.3050 C   0  0  0  0  0  0  0  0  0  0  0  0
   59.6460   34.5900   48.6180 C   0  0  0  0  0  0  0  0  0  0  0  0
   60.5880   34.1220   49.4690 N   0  0  0  0  0  0  0  0  0  0  0  0
   61.6430   33.7830   48.7060 C   0  0  0  0  0  0  0  0  0  0  0  0
   62.8670   33.2710   49.1370 C   0  0  0  0  0  0  0  0  0  0  0  0
   63.8480   33.0070   48.1620 C   0  0  0  0  0  0  0  0  0  0  0  0
   63.5880   33.2630   46.7970 C   0  0  0  0  0  0  0  0  0  0  0  0
   62.3440   33.7810   46.3930 C   0  0  0  0  0  0  0  0  0  0  0  0
   61.3890   34.0250   47.3810 C   0  0  0  0  0  0  0  0  0  0  0  0
   59.0820   32.5830   45.4800 N   0  0  0  0  0  0  0  0  0  0  0  0
   58.2780   31.4440   45.1300 C   0  0  0  0  0  0  0  0  0  0  0  0
   57.4100   31.5220   44.0280 C   0  0  0  0  0  0  0  0  0  0  0  0
   56.5560   30.4640   43.7180 C   0  0  0  0  0  0  0  0  0  0  0  0
   56.5470   29.3180   44.5110 C   0  0  0  0  0  0  0  0  0  0  0  0
   57.3990   29.2250   45.6150 C   0  0  0  0  0  0  0  0  0  0  0  0
   58.2770   30.2760   45.9380 C   0  0  0  0  0  0  0  0  0  0  0  0
   59.2030   30.1070   47.0830 C   0  0  0  0  0  0  0  0  0  0  0  0
   60.2720   30.7750   47.1440 O   0  0  0  0  0  0  0  0  0  0  0  0
   58.9010   29.1560   48.1100 N   0  0  0  0  0  0  0  0  0  0  0  0
   59.6680   29.0270   49.3430 C   0  0  0  0  0  0  0  0  0  0  0  0
   59.4690   30.2450   50.2120 C   0  0  0  0  0  0  0  0  0  0  0  0
   58.1870   30.8070   50.3350 C   0  0  0  0  0  0  0  0  0  0  0  0
   57.9880   31.9490   51.1160 C   0  0  0  0  0  0  0  0  0  0  0  0
   59.0640   32.5430   51.7780 C   0  0  0  0  0  0  0  0  0  0  0  0
   58.8670   33.6510   52.5340 F   0  0  0  0  0  0  0  0  0  0  0  0
   60.3430   31.9950   51.6610 C   0  0  0  0  0  0  0  0  0  0  0  0
   60.5550   30.8520   50.8800 C   0  0  0  0  0  0  0  0  0  0  0  0
   62.1910   30.2110   50.7590 Cl  0  0  0  0  0  0  0  0  0  0  0  0
   60.1309   35.3770   45.3482 H   0  0  0  0  0  0  0  0  0  0  0  0
   58.7297   35.8600   46.3679 H   0  0  0  0  0  0  0  0  0  0  0  0
   58.6568   34.9641   48.9205 H   0  0  0  0  0  0  0  0  0  0  0  0
   60.5130   34.0550   50.5090 H   0  0  0  0  0  0  0  0  0  0  0  0
   63.0594   33.0799   50.2031 H   0  0  0  0  0  0  0  0  0  0  0  0
   64.8234   32.5987   48.4651 H   0  0  0  0  0  0  0  0  0  0  0  0
   64.3636   33.0558   46.0450 H   0  0  0  0  0  0  0  0  0  0  0  0
   62.1311   33.9869   45.3336 H   0  0  0  0  0  0  0  0  0  0  0  0
   60.0820   32.4280   45.7400 H   0  0  0  0  0  0  0  0  0  0  0  0
   57.4040   32.4272   43.4031 H   0  0  0  0  0  0  0  0  0  0  0  0
   55.8886   30.5341   42.8464 H   0  0  0  0  0  0  0  0  0  0  0  0
   55.8692   28.4865   44.2680 H   0  0  0  0  0  0  0  0  0  0  0  0
   57.3830   28.3192   46.2389 H   0  0  0  0  0  0  0  0  0  0  0  0
   59.3313   28.1330   49.8883 H   0  0  0  0  0  0  0  0  0  0  0  0
   60.7353   28.9355   49.0932 H   0  0  0  0  0  0  0  0  0  0  0  0
   57.3353   30.3456   49.8137 H   0  0  0  0  0  0  0  0  0  0  0  0
   56.9807   32.3809   51.2093 H   0  0  0  0  0  0  0  0  0  0  0  0
   61.1888   32.4637   52.1852 H   0  0  0  0  0  0  0  0  0  0  0  0
  1  2  2  0
  2  3  1  0
  3  4  1  0
  4  5  2  0
  5  6  1  0
  6  7  1  0
  7  8  2  0
  8  9  1  0
  9 10  2  0
 10 11  1  0
 11 12  2  0
  2 13  1  0
 13 14  1  0
 14 15  2  0
 15 16  1  0
 16 17  2  0
 17 18  1  0
 18 19  2  0
 19 20  1  0
 20 21  2  0
 20 22  1  0
 22 23  1  0
 23 24  1  0
 24 25  2  0
 25 26  1  0
 26 27  2  0
 27 28  1  0
 27 29  1  0
 29 30  2  0
 30 31  1  0
 12  4  1  0
 19 14  1  0
 30 24  1  0
 12  7  1  0
  3 32  1  0
  3 33  1  0
  5 34  1  0
  6 35  1  0
  8 36  1  0
  9 37  1  0
 10 38  1  0
 11 39  1  0
 13 40  1  0
 15 41  1  0
 16 42  1  0
 17 43  1  0
 18 44  1  0
 23 45  1  0
 23 46  1  0
 25 47  1  0
 26 48  1  0
 29 49  1  0
M  CHG  1  22  -1
M  END
>  <UniqueID>  (37) 
35

>  <SMILES>  (37) 
O=C(Cc1c[nH]c2ccccc12)Nc1ccccc1C(=O)[N-]Cc1ccc(F)cc1Cl

>  <Energy>  (37) 
89.96676990419559

>  <Genealogy>  (37) 
O=C(Cc1c[nH]c2ccccc12)Nc1ccccc1C(=O)[N-]Cc1ccc(F)cc1Cl (protonated)
O=C(Cc1c[nH]c2ccccc12)Nc1ccccc1C(=O)[N-]Cc1ccc(F)cc1Cl (3D coordinates assigned)
O=C(Cc1c[nH]c2ccccc12)Nc1ccccc1C(=O)[N-]Cc1ccc(F)cc1Cl (optimized conformer: 89.96676990419559 kcal/mol)

>  <smiles>  (37) 
O=C(Cc1c[nH]c2ccccc12)Nc1ccccc1C(=O)NCc1ccc(F)cc1Cl

>  <score_type>  (37) 
oracle

>  <origin>  (37) 
adg

>  <m_score__min__energy>  (37) 
-10.69

>  <m_primary>  (37) 
energy

$$$$
37:0
     RDKit          3D

 53 55  0  0  1  0  0  0  0  0999 V2000
   62.5100   30.5690   51.1450 O   0  0  0  0  0  0  0  0  0  0  0  0
   62.2350   31.7500   50.8220 C   0  0  0  0  0  0  0  0  0  0  0  0
   61.5680   32.6240   51.7810 C   0  0  0  0  0  0  0  0  0  0  0  0
   60.3650   33.0850   51.5220 C   0  0  0  0  0  0  0  0  0  0  0  0
   59.7610   33.0980   50.1970 C   0  0  0  0  0  0  0  0  0  0  0  0
   59.0620   32.0430   49.6730 C   0  0  0  0  0  0  0  0  0  0  0  0
   58.4960   32.0900   48.3950 C   0  0  0  0  0  0  0  0  0  0  0  0
   58.6170   33.2060   47.6050 C   0  0  0  0  0  0  0  0  0  0  0  0
   58.0490   33.3170   46.2640 C   0  0  0  0  0  0  0  0  0  0  0  0
   56.9490   33.9590   46.1440 O   0  0  0  0  0  0  0  0  0  0  0  0
   58.6400   32.7600   45.1110 N   0  0  0  0  0  0  0  0  0  0  0  0
   58.0990   32.8590   43.7730 C   0  0  0  0  0  0  0  0  0  0  0  0
   58.2280   31.5810   43.0690 C   0  0  0  0  0  0  0  0  0  0  0  0
   57.8330   30.3770   43.8250 C   0  0  0  0  0  0  0  0  0  0  0  0
   56.5110   30.1780   44.1710 C   0  0  0  0  0  0  0  0  0  0  0  0
   56.1090   29.0650   44.8750 C   0  0  0  0  0  0  0  0  0  0  0  0
   57.0130   28.0750   45.2800 C   0  0  0  0  0  0  0  0  0  0  0  0
   56.5090   26.9420   46.0140 C   0  0  0  0  0  0  0  0  0  0  0  0
   55.1120   26.7090   45.9730 O   0  0  0  0  0  0  0  0  0  0  0  0
   57.1680   26.1030   46.7090 N   0  0  0  0  0  0  0  0  0  0  0  0
   56.5400   25.2310   47.5330 O   0  0  0  0  0  0  0  0  0  0  0  0
   58.3180   28.2960   44.9250 C   0  0  0  0  0  0  0  0  0  0  0  0
   58.7310   29.4230   44.2090 C   0  0  0  0  0  0  0  0  0  0  0  0
   59.3280   34.2700   48.1490 C   0  0  0  0  0  0  0  0  0  0  0  0
   59.8870   34.2250   49.4070 C   0  0  0  0  0  0  0  0  0  0  0  0
   62.6070   32.1820   49.4820 C   0  0  0  0  0  0  0  0  0  0  0  0
   63.3380   33.3460   49.3610 C   0  0  0  0  0  0  0  0  0  0  0  0
   63.7340   33.8270   48.1100 C   0  0  0  0  0  0  0  0  0  0  0  0
   63.3930   33.1320   46.9650 C   0  0  0  0  0  0  0  0  0  0  0  0
   62.6540   31.9580   47.1060 C   0  0  0  0  0  0  0  0  0  0  0  0
   62.2690   31.4910   48.3380 C   0  0  0  0  0  0  0  0  0  0  0  0
   62.0717   32.8969   52.7201 H   0  0  0  0  0  0  0  0  0  0  0  0
   59.7764   33.4869   52.3599 H   0  0  0  0  0  0  0  0  0  0  0  0
   58.9422   31.1308   50.2759 H   0  0  0  0  0  0  0  0  0  0  0  0
   57.9441   31.2172   48.0162 H   0  0  0  0  0  0  0  0  0  0  0  0
   59.5530   32.2350   45.2680 H   0  0  0  0  0  0  0  0  0  0  0  0
   57.0354   33.1332   43.8325 H   0  0  0  0  0  0  0  0  0  0  0  0
   58.6595   33.6269   43.2197 H   0  0  0  0  0  0  0  0  0  0  0  0
   57.6016   31.6307   42.1662 H   0  0  0  0  0  0  0  0  0  0  0  0
   59.3032   31.4629   42.8689 H   0  0  0  0  0  0  0  0  0  0  0  0
   55.7608   30.9269   43.8770 H   0  0  0  0  0  0  0  0  0  0  0  0
   55.0445   28.9498   45.1272 H   0  0  0  0  0  0  0  0  0  0  0  0
   54.7400   25.8480   46.3960 H   0  0  0  0  0  0  0  0  0  0  0  0
   55.5510   25.2370   47.7420 H   0  0  0  0  0  0  0  0  0  0  0  0
   59.0747   27.5528   45.2167 H   0  0  0  0  0  0  0  0  0  0  0  0
   59.7937   29.5430   43.9514 H   0  0  0  0  0  0  0  0  0  0  0  0
   59.4489   35.1848   47.5503 H   0  0  0  0  0  0  0  0  0  0  0  0
   60.4402   35.0963   49.7874 H   0  0  0  0  0  0  0  0  0  0  0  0
   63.6144   33.9061   50.2665 H   0  0  0  0  0  0  0  0  0  0  0  0
   64.3162   34.7574   48.0367 H   0  0  0  0  0  0  0  0  0  0  0  0
   63.6958   33.4944   45.9715 H   0  0  0  0  0  0  0  0  0  0  0  0
   62.3722   31.3912   46.2064 H   0  0  0  0  0  0  0  0  0  0  0  0
   61.6876   30.5602   48.4129 H   0  0  0  0  0  0  0  0  0  0  0  0
  1  2  2  0
  2  3  1  0
  3  4  2  0
  4  5  1  0
  5  6  2  0
  6  7  1  0
  7  8  2  0
  8  9  1  0
  9 10  2  0
  9 11  1  0
 11 12  1  0
 12 13  1  0
 13 14  1  0
 14 15  2  0
 15 16  1  0
 16 17  2  0
 17 18  1  0
 18 19  1  0
 18 20  2  0
 20 21  1  0
 17 22  1  0
 22 23  2  0
  8 24  1  0
 24 25  2  0
  2 26  1  0
 26 27  2  0
 27 28  1  0
 28 29  2  0
 29 30  1  0
 30 31  2  0
 25  5  1  0
 31 26  1  0
 23 14  1  0
  3 32  1  0
  4 33  1  0
  6 34  1  0
  7 35  1  0
 11 36  1  0
 12 37  1  0
 12 38  1  0
 13 39  1  0
 13 40  1  0
 15 41  1  0
 16 42  1  0
 19 43  1  0
 21 44  1  0
 22 45  1  0
 23 46  1  0
 24 47  1  0
 25 48  1  0
 27 49  1  0
 28 50  1  0
 29 51  1  0
 30 52  1  0
 31 53  1  0
M  END
>  <smiles>  (38) 
O=C(C=Cc1ccc(C(=O)NCCc2ccc(C(O)=NO)cc2)cc1)c1ccccc1

>  <score_type>  (38) 
oracle

>  <origin>  (38) 
adg

>  <m_score__min__energy>  (38) 
-9.5399999999999991

>  <m_primary>  (38) 
energy

$$$$
38:0
     RDKit          3D

 29 31  0  0  0  0  0  0  0  0999 V2000
   54.7440   26.1350   45.9570 N   0  0  0  0  0  0  0  0  0  0  0  0
   56.3000   25.4180   46.1850 S   0  0  0  0  0  0  0  0  0  0  0  0
   56.2400   24.4200   47.3060 O   0  0  0  0  0  0  0  0  0  0  0  0
   56.6930   24.7010   44.9240 O   0  0  0  0  0  0  0  0  0  0  0  0
   57.4820   26.6760   46.5680 C   0  0  0  0  0  0  0  0  0  0  0  0
   58.5270   26.3940   47.4530 C   0  0  0  0  0  0  0  0  0  0  0  0
   59.4310   27.3880   47.8100 C   0  0  0  0  0  0  0  0  0  0  0  0
   59.3380   28.6630   47.2490 C   0  0  0  0  0  0  0  0  0  0  0  0
   60.2020   29.6220   47.6650 N   0  0  0  0  0  0  0  0  0  0  0  0
   60.1640   30.8890   47.1910 C   0  0  0  0  0  0  0  0  0  0  0  0
   60.9760   31.7390   47.6440 O   0  0  0  0  0  0  0  0  0  0  0  0
   59.2360   31.2400   46.1970 C   0  0  0  0  0  0  0  0  0  0  0  0
   58.3880   30.2460   45.6620 C   0  0  0  0  0  0  0  0  0  0  0  0
   58.3500   28.9560   46.2730 C   0  0  0  0  0  0  0  0  0  0  0  0
   57.3670   27.9610   46.0020 C   0  0  0  0  0  0  0  0  0  0  0  0
   56.2360   28.2420   45.2450 O   0  0  0  0  0  0  0  0  0  0  0  0
   57.6360   30.6340   44.4060 C   0  0  0  0  0  0  0  0  0  0  0  0
   56.6570   31.7650   44.7100 C   0  0  0  0  0  0  0  0  0  0  0  0
   57.4320   33.2270   45.5220 S   0  0  0  0  0  0  0  0  0  0  0  0
   59.1690   32.6470   45.6470 C   0  0  0  0  0  0  0  0  0  0  0  0
   54.7740   27.0830   46.3940 H   0  0  0  0  0  0  0  0  0  0  0  0
   58.6344   25.3812   47.8686 H   0  0  0  0  0  0  0  0  0  0  0  0
   60.2247   27.1685   48.5393 H   0  0  0  0  0  0  0  0  0  0  0  0
   58.3526   30.9686   43.6414 H   0  0  0  0  0  0  0  0  0  0  0  0
   57.0760   29.7619   44.0374 H   0  0  0  0  0  0  0  0  0  0  0  0
   56.2040   32.0945   43.7633 H   0  0  0  0  0  0  0  0  0  0  0  0
   55.9155   31.3637   45.4165 H   0  0  0  0  0  0  0  0  0  0  0  0
   59.6260   32.6636   44.6465 H   0  0  0  0  0  0  0  0  0  0  0  0
   59.7116   33.3155   46.3316 H   0  0  0  0  0  0  0  0  0  0  0  0
  1  2  1  0
  2  3  2  0
  2  4  2  0
  2  5  1  0
  5  6  2  0
  6  7  1  0
  7  8  2  0
  8  9  1  0
  9 10  1  0
 10 11  2  0
 10 12  1  0
 12 13  2  0
 13 14  1  0
 14 15  2  0
 15 16  1  0
 13 17  1  0
 17 18  1  0
 18 19  1  0
 19 20  1  0
 15  5  1  0
 14  8  1  0
 20 12  1  0
  1 21  1  0
  6 22  1  0
  7 23  1  0
 17 24  1  0
 17 25  1  0
 18 26  1  0
 18 27  1  0
 20 28  1  0
 20 29  1  0
M  CHG  3   1  -1   9  -1  16  -1
M  END
>  <UniqueID>  (39) 
36

>  <SMILES>  (39) 
[NH-]S(=O)(=O)c1ccc2[n-]c(=O)c3c(c2c1[O-])CCSC3

>  <Energy>  (39) 
51.1274636032568

>  <Genealogy>  (39) 
[NH-]S(=O)(=O)c1ccc2[n-]c(=O)c3c(c2c1[O-])CCSC3 (protonated)
[NH-]S(=O)(=O)c1ccc2[n-]c(=O)c3c(c2c1[O-])CCSC3 (3D coordinates assigned)
[NH-]S(=O)(=O)c1ccc2[n-]c(=O)c3c(c2c1[O-])CCSC3 (nonaromatic ring conformer: 51.1274636032568 kcal/mol)

>  <smiles>  (39) 
NS(=O)(=O)c1ccc2[nH]c(=O)c3c(c2c1O)CCSC3

>  <score_type>  (39) 
oracle

>  <origin>  (39) 
adg

>  <m_score__min__energy>  (39) 
-13.49

>  <m_primary>  (39) 
energy

$$$$
39:0
     RDKit          3D

 52 55  0  0  0  0  0  0  0  0999 V2000
   57.4378   28.1645   42.5714 H   0  0  0  0  0  0  0  0  0  0  0  0
   57.3170   28.9850   43.2940 C   0  0  0  0  0  0  0  0  0  0  0  0
   57.0020   30.5930   42.9150 S   0  0  0  0  0  0  0  0  0  0  0  0
   57.0020   31.0730   44.5200 C   0  0  0  0  0  0  0  0  0  0  0  0
   56.7870   32.2950   44.9050 N   0  0  0  0  0  0  0  0  0  0  0  0
   57.3490   32.9050   46.0760 C   0  0  0  0  0  0  0  0  0  0  0  0
   56.5940   33.5780   46.8260 O   0  0  0  0  0  0  0  0  0  0  0  0
   58.8000   32.8330   46.3810 C   0  0  0  0  0  0  0  0  0  0  0  0
   59.3750   31.6470   46.8720 C   0  0  0  0  0  0  0  0  0  0  0  0
   58.7394   30.7688   47.0588 H   0  0  0  0  0  0  0  0  0  0  0  0
   60.7460   31.5760   47.1240 C   0  0  0  0  0  0  0  0  0  0  0  0
   61.1836   30.6435   47.5100 H   0  0  0  0  0  0  0  0  0  0  0  0
   61.5680   32.6860   46.8880 C   0  0  0  0  0  0  0  0  0  0  0  0
   63.3040   32.5790   47.1860 S   0  0  0  0  0  0  0  0  0  0  0  0
   63.7700   31.2160   46.7600 O   0  0  0  0  0  0  0  0  0  0  0  0
   64.0060   33.5880   46.3200 O   0  0  0  0  0  0  0  0  0  0  0  0
   63.7510   32.8130   48.8650 N   0  0  0  0  0  0  0  0  0  0  0  0
   63.5890   31.6140   49.7090 C   0  0  0  0  0  0  0  0  0  0  0  0
   64.3079   31.6746   50.5393 H   0  0  0  0  0  0  0  0  0  0  0  0
   63.7648   30.7412   49.0630 H   0  0  0  0  0  0  0  0  0  0  0  0
   62.1750   31.4570   50.3010 C   0  0  0  0  0  0  0  0  0  0  0  0
   62.1987   30.6637   51.0626 H   0  0  0  0  0  0  0  0  0  0  0  0
   61.4947   31.2071   49.4735 H   0  0  0  0  0  0  0  0  0  0  0  0
   61.6570   32.7490   50.9530 C   0  0  0  0  0  0  0  0  0  0  0  0
   60.5827   32.6241   51.1539 H   0  0  0  0  0  0  0  0  0  0  0  0
   62.3160   33.0080   52.3180 C   0  0  0  0  0  0  0  0  0  0  0  0
   61.6163   32.7330   53.1210 H   0  0  0  0  0  0  0  0  0  0  0  0
   63.2301   32.4022   52.4047 H   0  0  0  0  0  0  0  0  0  0  0  0
   62.5730   34.0740   52.4047 H   0  0  0  0  0  0  0  0  0  0  0  0
   61.8150   33.9360   49.9920 C   0  0  0  0  0  0  0  0  0  0  0  0
   61.5489   34.8614   50.5238 H   0  0  0  0  0  0  0  0  0  0  0  0
   61.1513   33.7670   49.1312 H   0  0  0  0  0  0  0  0  0  0  0  0
   63.2480   34.0620   49.4670 C   0  0  0  0  0  0  0  0  0  0  0  0
   63.9056   34.3375   50.3046 H   0  0  0  0  0  0  0  0  0  0  0  0
   63.2445   34.8298   48.6793 H   0  0  0  0  0  0  0  0  0  0  0  0
   61.0060   33.8600   46.3710 C   0  0  0  0  0  0  0  0  0  0  0  0
   61.6486   34.7274   46.1599 H   0  0  0  0  0  0  0  0  0  0  0  0
   59.6330   33.9350   46.1220 C   0  0  0  0  0  0  0  0  0  0  0  0
   59.2009   34.8634   45.7203 H   0  0  0  0  0  0  0  0  0  0  0  0
   57.2160   30.0380   45.3620 N   0  0  0  0  0  0  0  0  0  0  0  0
   57.3990   28.8700   44.6840 C   0  0  0  0  0  0  0  0  0  0  0  0
   57.6250   27.5890   45.3890 C   0  0  0  0  0  0  0  0  0  0  0  0
   58.3120   27.5740   46.6140 C   0  0  0  0  0  0  0  0  0  0  0  0
   58.7080   28.5085   47.0381 H   0  0  0  0  0  0  0  0  0  0  0  0
   58.4890   26.3650   47.2900 C   0  0  0  0  0  0  0  0  0  0  0  0
   59.0056   26.3478   48.2610 H   0  0  0  0  0  0  0  0  0  0  0  0
   58.0110   25.1810   46.7340 C   0  0  0  0  0  0  0  0  0  0  0  0
   58.1572   24.2231   47.2546 H   0  0  0  0  0  0  0  0  0  0  0  0
   57.3440   25.2240   45.5080 C   0  0  0  0  0  0  0  0  0  0  0  0
   56.9647   24.2946   45.0581 H   0  0  0  0  0  0  0  0  0  0  0  0
   57.1610   26.4110   44.8670 N   0  0  0  0  0  0  0  0  0  0  0  0
   56.6680   26.3980   43.9470 H   0  0  0  0  0  0  0  0  0  0  0  0
  1  2  1  0
  2  3  1  0
  3  4  1  0
  4  5  2  0
  5  6  1  0
  6  7  2  0
  6  8  1  0
  8  9  2  0
  9 10  1  0
  9 11  1  0
 11 12  1  0
 11 13  2  0
 13 14  1  0
 14 15  2  0
 14 16  2  0
 14 17  1  0
 17 18  1  0
 18 19  1  0
 18 20  1  0
 18 21  1  0
 21 22  1  0
 21 23  1  0
 21 24  1  0
 24 25  1  0
 24 26  1  0
 26 27  1  0
 26 28  1  0
 26 29  1  0
 24 30  1  0
 30 31  1  0
 30 32  1  0
 30 33  1  0
 33 34  1  0
 33 35  1  0
 13 36  1  0
 36 37  1  0
 36 38  2  0
 38 39  1  0
  4 40  1  0
 40 41  1  0
 41 42  1  0
 42 43  2  0
 43 44  1  0
 43 45  1  0
 45 46  1  0
 45 47  2  0
 47 48  1  0
 47 49  1  0
 49 50  1  0
 49 51  2  0
 51 52  1  0
 41  2  2  0
 51 42  1  0
 38  8  1  0
 33 17  1  0
M  CHG  2  40  -1  51   1
M  END
>  <UniqueID>  (40) 
37

>  <SMILES>  (40) 
CC1CCN(S(=O)(=O)c2ccc(C(=O)/N=c3\[n-]c(-c4cccc[nH+]4)cs3)cc2)CC1

>  <Energy>  (40) 
92.41883948462622

>  <Genealogy>  (40) 
CC1CCN(S(=O)(=O)c2ccc(C(=O)N=c3[n-]c(-c4cccc[nH+]4)cs3)cc2)CC1 (protonated)
CC1CCN(S(=O)(=O)c2ccc(C(=O)/N=c3\[n-]c(-c4cccc[nH+]4)cs3)cc2)CC1 (cis-trans isomerization)
CC1CCN(S(=O)(=O)c2ccc(C(=O)/N=c3\[n-]c(-c4cccc[nH+]4)cs3)cc2)CC1 (3D coordinates assigned)
CC1CCN(S(=O)(=O)c2ccc(C(=O)/N=c3\[n-]c(-c4cccc[nH+]4)cs3)cc2)CC1 (nonaromatic ring conformer: 92.41883948462622 kcal/mol)

>  <smiles>  (40) 
CC1CCN(S(=O)(=O)c2ccc(C(=O)N=c3[nH]c(-c4ccccn4)cs3)cc2)CC1

>  <score_type>  (40) 
oracle

>  <origin>  (40) 
adg

>  <m_score__min__energy>  (40) 
-9.9000000000000004

>  <m_primary>  (40) 
energy

$$$$
40:0
     RDKit          3D

 45 46  0  0  0  0  0  0  0  0999 V2000
   57.9880   32.5410   41.1310 C   0  0  0  0  0  0  0  0  0  0  0  0
   57.7790   31.7620   42.4280 C   0  0  0  0  0  0  0  0  0  0  0  0
   56.6800   30.6930   42.3150 C   0  0  0  0  0  0  0  0  0  0  0  0
   56.2880   30.0640   43.6710 C   0  0  0  0  0  0  0  0  0  0  0  0
   56.6950   30.9190   44.8460 C   0  0  0  0  0  0  0  0  0  0  0  0
   56.4500   32.1540   44.8230 O   0  0  0  0  0  0  0  0  0  0  0  0
   57.3850   30.3840   45.9850 N   0  0  0  0  0  0  0  0  0  0  0  0
   58.5020   29.4810   46.0150 C   0  0  0  0  0  0  0  0  0  0  0  0
   58.5800   28.3810   45.1400 C   0  0  0  0  0  0  0  0  0  0  0  0
   59.6290   27.4630   45.2460 C   0  0  0  0  0  0  0  0  0  0  0  0
   60.5840   27.6070   46.2510 C   0  0  0  0  0  0  0  0  0  0  0  0
   60.4900   28.6630   47.1590 C   0  0  0  0  0  0  0  0  0  0  0  0
   59.4640   29.6110   47.0400 C   0  0  0  0  0  0  0  0  0  0  0  0
   59.3180   30.9120   48.2780 S   0  0  0  0  0  0  0  0  0  0  0  0
   60.8020   31.8040   47.7700 C   0  0  0  0  0  0  0  0  0  0  0  0
   61.9820   31.5570   48.4880 C   0  0  0  0  0  0  0  0  0  0  0  0
   63.1580   32.2430   48.1850 C   0  0  0  0  0  0  0  0  0  0  0  0
   63.1650   33.2010   47.1720 C   0  0  0  0  0  0  0  0  0  0  0  0
   61.9960   33.4740   46.4610 C   0  0  0  0  0  0  0  0  0  0  0  0
   60.8030   32.7830   46.7440 C   0  0  0  0  0  0  0  0  0  0  0  0
   59.5710   33.1250   45.9380 C   0  0  0  0  0  0  0  0  0  0  0  0
   58.5840   33.8960   46.7680 C   0  0  0  0  0  0  0  0  0  0  0  0
   57.3290   33.3140   47.1230 N   0  0  0  0  0  0  0  0  0  0  0  0
   58.8510   35.0720   47.1370 O   0  0  0  0  0  0  0  0  0  0  0  0
   58.2664   33.5786   41.3673 H   0  0  0  0  0  0  0  0  0  0  0  0
   58.7915   32.0700   40.5458 H   0  0  0  0  0  0  0  0  0  0  0  0
   57.0566   32.5354   40.5458 H   0  0  0  0  0  0  0  0  0  0  0  0
   58.7239   31.2666   42.6957 H   0  0  0  0  0  0  0  0  0  0  0  0
   57.4610   32.4815   43.1969 H   0  0  0  0  0  0  0  0  0  0  0  0
   55.7854   31.1588   41.8760 H   0  0  0  0  0  0  0  0  0  0  0  0
   57.0804   29.8833   41.6872 H   0  0  0  0  0  0  0  0  0  0  0  0
   55.1965   29.9292   43.6946 H   0  0  0  0  0  0  0  0  0  0  0  0
   56.8171   29.1036   43.7584 H   0  0  0  0  0  0  0  0  0  0  0  0
   57.8097   28.2427   44.3670 H   0  0  0  0  0  0  0  0  0  0  0  0
   59.7008   26.6262   44.5356 H   0  0  0  0  0  0  0  0  0  0  0  0
   61.4126   26.8877   46.3287 H   0  0  0  0  0  0  0  0  0  0  0  0
   61.2251   28.7519   47.9725 H   0  0  0  0  0  0  0  0  0  0  0  0
   61.9795   30.8139   49.2990 H   0  0  0  0  0  0  0  0  0  0  0  0
   64.0800   32.0282   48.7452 H   0  0  0  0  0  0  0  0  0  0  0  0
   64.0926   33.7418   46.9332 H   0  0  0  0  0  0  0  0  0  0  0  0
   62.0069   34.2383   45.6700 H   0  0  0  0  0  0  0  0  0  0  0  0
   59.8657   33.7341   45.0707 H   0  0  0  0  0  0  0  0  0  0  0  0
   59.0967   32.1893   45.6071 H   0  0  0  0  0  0  0  0  0  0  0  0
   57.0730   32.3550   46.7990 H   0  0  0  0  0  0  0  0  0  0  0  0
   56.6530   33.8440   47.7160 H   0  0  0  0  0  0  0  0  0  0  0  0
  1  2  1  0
  2  3  1  0
  3  4  1  0
  4  5  1  0
  5  6  2  0
  5  7  1  0
  7  8  1  0
  8  9  2  0
  9 10  1  0
 10 11  2  0
 11 12  1  0
 12 13  2  0
 13 14  1  0
 14 15  1  0
 15 16  2  0
 16 17  1  0
 17 18  2  0
 18 19  1  0
 19 20  2  0
 20 21  1  0
 21 22  1  0
 22 23  1  0
 22 24  2  0
 13  8  1  0
 20 15  1  0
  1 25  1  0
  1 26  1  0
  1 27  1  0
  2 28  1  0
  2 29  1  0
  3 30  1  0
  3 31  1  0
  4 32  1  0
  4 33  1  0
  9 34  1  0
 10 35  1  0
 11 36  1  0
 12 37  1  0
 16 38  1  0
 17 39  1  0
 18 40  1  0
 19 41  1  0
 21 42  1  0
 21 43  1  0
 23 44  1  0
 23 45  1  0
M  CHG  1   7  -1
M  END
>  <UniqueID>  (41) 
38

>  <SMILES>  (41) 
CCCCC(=O)[N-]c1ccccc1Sc1ccccc1CC(N)=O

>  <Energy>  (41) 
42.29202608456915

>  <Genealogy>  (41) 
CCCCC(=O)[N-]c1ccccc1Sc1ccccc1CC(N)=O (protonated)
CCCCC(=O)[N-]c1ccccc1Sc1ccccc1CC(N)=O (3D coordinates assigned)
CCCCC(=O)[N-]c1ccccc1Sc1ccccc1CC(N)=O (optimized conformer: 42.29202608456915 kcal/mol)

>  <smiles>  (41) 
CCCCC(=O)Nc1ccccc1Sc1ccccc1CC(N)=O

>  <score_type>  (41) 
oracle

>  <origin>  (41) 
adg

>  <m_score__min__energy>  (41) 
-10.02

>  <m_primary>  (41) 
energy

$$$$
41:0
     RDKit          3D

 43 46  0  0  0  0  0  0  0  0999 V2000
   57.8220   27.0500   47.6460 O   0  0  0  0  0  0  0  0  0  0  0  0
   57.1790   26.4250   46.7590 C   0  0  0  0  0  0  0  0  0  0  0  0
   56.8610   24.9760   46.9690 C   0  0  0  0  0  0  0  0  0  0  0  0
   56.3430   24.3990   45.7320 N   0  0  0  0  0  0  0  0  0  0  0  0
   55.1480   24.6700   45.2160 N   0  0  0  0  0  0  0  0  0  0  0  0
   54.9200   23.9370   44.1260 N   0  0  0  0  0  0  0  0  0  0  0  0
   56.0150   23.1730   43.9660 C   0  0  0  0  0  0  0  0  0  0  0  0
   56.2750   22.2150   42.9920 C   0  0  0  0  0  0  0  0  0  0  0  0
   57.5030   21.5280   43.0710 C   0  0  0  0  0  0  0  0  0  0  0  0
   58.4220   21.8150   44.1110 C   0  0  0  0  0  0  0  0  0  0  0  0
   58.1220   22.7910   45.0810 C   0  0  0  0  0  0  0  0  0  0  0  0
   56.8980   23.4510   44.9620 C   0  0  0  0  0  0  0  0  0  0  0  0
   56.6660   27.1090   45.6050 N   0  0  0  0  0  0  0  0  0  0  0  0
   57.0350   28.4480   45.2320 C   0  0  0  0  0  0  0  0  0  0  0  0
   56.1240   29.3130   44.6000 C   0  0  0  0  0  0  0  0  0  0  0  0
   56.5010   30.6180   44.2720 C   0  0  0  0  0  0  0  0  0  0  0  0
   57.7910   31.0820   44.5650 C   0  0  0  0  0  0  0  0  0  0  0  0
   58.1450   32.4390   44.2420 N   0  0  0  0  0  0  0  0  0  0  0  0
   58.5630   33.4220   45.2040 C   0  0  0  0  0  0  0  0  0  0  0  0
   58.3840   33.2180   46.5860 C   0  0  0  0  0  0  0  0  0  0  0  0
   58.8220   34.1780   47.5030 C   0  0  0  0  0  0  0  0  0  0  0  0
   59.4550   35.3390   47.0530 C   0  0  0  0  0  0  0  0  0  0  0  0
   59.6570   35.5390   45.6840 C   0  0  0  0  0  0  0  0  0  0  0  0
   59.2210   34.5810   44.7650 C   0  0  0  0  0  0  0  0  0  0  0  0
   58.6870   30.2320   45.2370 C   0  0  0  0  0  0  0  0  0  0  0  0
   58.3100   28.9270   45.5660 C   0  0  0  0  0  0  0  0  0  0  0  0
   57.7748   24.4410   47.2668 H   0  0  0  0  0  0  0  0  0  0  0  0
   56.1019   24.8816   47.7595 H   0  0  0  0  0  0  0  0  0  0  0  0
   55.5510   22.0019   42.1918 H   0  0  0  0  0  0  0  0  0  0  0  0
   57.7500   20.7633   42.3198 H   0  0  0  0  0  0  0  0  0  0  0  0
   59.3769   21.2713   44.1610 H   0  0  0  0  0  0  0  0  0  0  0  0
   58.8221   23.0231   45.8971 H   0  0  0  0  0  0  0  0  0  0  0  0
   55.9160   26.6340   45.0550 H   0  0  0  0  0  0  0  0  0  0  0  0
   55.1094   28.9605   44.3626 H   0  0  0  0  0  0  0  0  0  0  0  0
   55.7795   31.2867   43.7798 H   0  0  0  0  0  0  0  0  0  0  0  0
   58.0940   32.7300   43.2390 H   0  0  0  0  0  0  0  0  0  0  0  0
   57.8974   32.2993   46.9454 H   0  0  0  0  0  0  0  0  0  0  0  0
   58.6679   34.0189   48.5805 H   0  0  0  0  0  0  0  0  0  0  0  0
   59.7945   36.0958   47.7755 H   0  0  0  0  0  0  0  0  0  0  0  0
   60.1596   36.4513   45.3302 H   0  0  0  0  0  0  0  0  0  0  0  0
   59.3948   34.7365   43.6900 H   0  0  0  0  0  0  0  0  0  0  0  0
   59.6898   30.5959   45.5052 H   0  0  0  0  0  0  0  0  0  0  0  0
   59.0192   28.2703   46.0912 H   0  0  0  0  0  0  0  0  0  0  0  0
  1  2  2  0
  2  3  1  0
  3  4  1  0
  4  5  1  0
  5  6  2  0
  6  7  1  0
  7  8  2  0
  8  9  1  0
  9 10  2  0
 10 11  1  0
 11 12  2  0
  2 13  1  0
 13 14  1  0
 14 15  2  0
 15 16  1  0
 16 17  2  0
 17 18  1  0
 18 19  1  0
 19 20  2  0
 20 21  1  0
 21 22  2  0
 22 23  1  0
 23 24  2  0
 17 25  1  0
 25 26  2  0
 12  4  1  0
 26 14  1  0
 12  7  1  0
 24 19  1  0
  3 27  1  0
  3 28  1  0
  8 29  1  0
  9 30  1  0
 10 31  1  0
 11 32  1  0
 13 33  1  0
 15 34  1  0
 16 35  1  0
 18 36  1  0
 20 37  1  0
 21 38  1  0
 22 39  1  0
 23 40  1  0
 24 41  1  0
 25 42  1  0
 26 43  1  0
M  END
>  <UniqueID>  (42) 
39

>  <SMILES>  (42) 
O=C(Cn1nnc2ccccc21)Nc1ccc(Nc2ccccc2)cc1

>  <Energy>  (42) 
98.71508511245207

>  <Genealogy>  (42) 
O=C(Cn1nnc2ccccc21)Nc1ccc(Nc2ccccc2)cc1 (3D coordinates assigned)
O=C(Cn1nnc2ccccc21)Nc1ccc(Nc2ccccc2)cc1 (optimized conformer: 98.71508511245207 kcal/mol)

>  <smiles>  (42) 
O=C(Cn1nnc2ccccc21)Nc1ccc(Nc2ccccc2)cc1

>  <score_type>  (42) 
oracle

>  <origin>  (42) 
adg

>  <m_score__min__energy>  (42) 
-8.4499999999999993

>  <m_primary>  (42) 
energy

$$$$
42:0
     RDKit          3D

 20 20  0  0  0  0  0  0  0  0999 V2000
   55.9390   31.2600   52.5600 C   0  0  0  0  0  0  0  0  0  0  0  0
   55.1540   30.0490   52.0720 C   0  0  0  0  0  0  0  0  0  0  0  0
   54.2520   29.5930   53.0780 O   0  0  0  0  0  0  0  0  0  0  0  0
   53.1460   30.3310   53.5160 C   0  0  0  0  0  0  0  0  0  0  0  0
   52.8600   30.3800   54.7430 O   0  0  0  0  0  0  0  0  0  0  0  0
   52.3180   31.0400   52.5250 C   0  0  0  0  0  0  0  0  0  0  0  0
   52.5280   30.9020   50.8580 S   0  0  0  0  0  0  0  0  0  0  0  0
   51.2700   31.9570   50.5200 C   0  0  0  0  0  0  0  0  0  0  0  0
   50.9080   32.2840   49.3590 O   0  0  0  0  0  0  0  0  0  0  0  0
   50.6760   32.4280   51.6350 N   0  0  0  0  0  0  0  0  0  0  0  0
   51.2530   31.9230   52.7600 C   0  0  0  0  0  0  0  0  0  0  0  0
   50.7560   32.3100   54.1170 C   0  0  0  0  0  0  0  0  0  0  0  0
   55.9472   31.2727   53.6599 H   0  0  0  0  0  0  0  0  0  0  0  0
   56.9719   31.2023   52.1862 H   0  0  0  0  0  0  0  0  0  0  0  0
   55.4646   32.1794   52.1862 H   0  0  0  0  0  0  0  0  0  0  0  0
   54.5826   30.3272   51.1742 H   0  0  0  0  0  0  0  0  0  0  0  0
   55.8617   29.2398   51.8391 H   0  0  0  0  0  0  0  0  0  0  0  0
   51.3764   31.8269   54.8862 H   0  0  0  0  0  0  0  0  0  0  0  0
   50.8149   33.4025   54.2313 H   0  0  0  0  0  0  0  0  0  0  0  0
   49.7113   31.9852   54.2313 H   0  0  0  0  0  0  0  0  0  0  0  0
  1  2  1  0
  2  3  1  0
  3  4  1  0
  4  5  2  0
  4  6  1  0
  6  7  1  0
  7  8  1  0
  8  9  2  0
  8 10  1  0
 10 11  1  0
 11 12  1  0
 11  6  2  0
  1 13  1  0
  1 14  1  0
  1 15  1  0
  2 16  1  0
  2 17  1  0
 12 18  1  0
 12 19  1  0
 12 20  1  0
M  CHG  1  10  -1
M  END
>  <UniqueID>  (43) 
40

>  <SMILES>  (43) 
CCOC(=O)c1sc(=O)[n-]c1C

>  <Energy>  (43) 
43.72526646926803

>  <Genealogy>  (43) 
CCOC(=O)c1sc(=O)[n-]c1C (protonated)
CCOC(=O)c1sc(=O)[n-]c1C (3D coordinates assigned)
CCOC(=O)c1sc(=O)[n-]c1C (optimized conformer: 43.72526646926803 kcal/mol)

>  <smiles>  (43) 
CCOC(=O)c1sc(=O)[nH]c1C

>  <score_type>  (43) 
oracle

>  <origin>  (43) 
adg

>  <m_score__min__energy>  (43) 
-6.75

>  <m_primary>  (43) 
energy

$$$$
43:0
     RDKit          3D

 35 37  0  0  0  0  0  0  0  0999 V2000
   56.1830   29.9270   42.5810 O   0  0  0  0  0  0  0  0  0  0  0  0
   56.6220   29.7760   44.0110 S   0  0  0  0  0  0  0  0  0  0  0  0
   55.4060   29.5520   44.8690 O   0  0  0  0  0  0  0  0  0  0  0  0
   57.6890   28.4100   44.1450 N   0  0  0  0  0  0  0  0  0  0  0  0
   58.4160   28.4730   45.4160 C   0  0  0  0  0  0  0  0  0  0  0  0
   57.6380   27.7500   46.5190 C   0  0  0  0  0  0  0  0  0  0  0  0
   56.8600   26.5920   45.9750 C   0  0  0  0  0  0  0  0  0  0  0  0
   55.5600   26.3620   46.3040 N   0  0  0  0  0  0  0  0  0  0  0  0
   55.2930   25.2280   45.6430 C   0  0  0  0  0  0  0  0  0  0  0  0
   54.0930   24.5180   45.6160 C   0  0  0  0  0  0  0  0  0  0  0  0
   54.0490   23.3380   44.8500 C   0  0  0  0  0  0  0  0  0  0  0  0
   55.1930   22.9030   44.1420 C   0  0  0  0  0  0  0  0  0  0  0  0
   56.3880   23.6460   44.1940 C   0  0  0  0  0  0  0  0  0  0  0  0
   56.3930   24.8080   44.9610 C   0  0  0  0  0  0  0  0  0  0  0  0
   57.4120   25.6570   45.1580 N   0  0  0  0  0  0  0  0  0  0  0  0
   57.4620   31.2420   44.5070 C   0  0  0  0  0  0  0  0  0  0  0  0
   57.8150   32.2210   43.5670 C   0  0  0  0  0  0  0  0  0  0  0  0
   58.4690   33.3860   43.9780 C   0  0  0  0  0  0  0  0  0  0  0  0
   58.7750   33.5830   45.3310 C   0  0  0  0  0  0  0  0  0  0  0  0
   59.5980   35.0610   45.8110 Cl  0  0  0  0  0  0  0  0  0  0  0  0
   58.4200   32.6060   46.2770 C   0  0  0  0  0  0  0  0  0  0  0  0
   58.7790   32.8160   47.9850 Cl  0  0  0  0  0  0  0  0  0  0  0  0
   57.7640   31.4410   45.8610 C   0  0  0  0  0  0  0  0  0  0  0  0
   57.0800   27.5600   44.1550 H   0  0  0  0  0  0  0  0  0  0  0  0
   59.3990   27.9947   45.2941 H   0  0  0  0  0  0  0  0  0  0  0  0
   58.5387   29.5280   45.7021 H   0  0  0  0  0  0  0  0  0  0  0  0
   58.3481   27.3804   47.2734 H   0  0  0  0  0  0  0  0  0  0  0  0
   56.9285   28.4630   46.9642 H   0  0  0  0  0  0  0  0  0  0  0  0
   53.2118   24.8679   46.1738 H   0  0  0  0  0  0  0  0  0  0  0  0
   53.1198   22.7512   44.8019 H   0  0  0  0  0  0  0  0  0  0  0  0
   55.1492   21.9788   43.5471 H   0  0  0  0  0  0  0  0  0  0  0  0
   57.2856   23.3200   43.6481 H   0  0  0  0  0  0  0  0  0  0  0  0
   57.5766   32.0717   42.5036 H   0  0  0  0  0  0  0  0  0  0  0  0
   58.7443   34.1507   43.2367 H   0  0  0  0  0  0  0  0  0  0  0  0
   57.4840   30.6773   46.6015 H   0  0  0  0  0  0  0  0  0  0  0  0
  1  2  2  0
  2  3  2  0
  2  4  1  0
  4  5  1  0
  5  6  1  0
  6  7  1  0
  7  8  2  0
  8  9  1  0
  9 10  2  0
 10 11  1  0
 11 12  2  0
 12 13  1  0
 13 14  2  0
 14 15  1  0
  2 16  1  0
 16 17  2  0
 17 18  1  0
 18 19  2  0
 19 20  1  0
 19 21  1  0
 21 22  1  0
 21 23  2  0
 15  7  1  0
 23 16  1  0
 14  9  1  0
  4 24  1  0
  5 25  1  0
  5 26  1  0
  6 27  1  0
  6 28  1  0
 10 29  1  0
 11 30  1  0
 12 31  1  0
 13 32  1  0
 17 33  1  0
 18 34  1  0
 23 35  1  0
M  CHG  1  15  -1
M  END
>  <UniqueID>  (44) 
41

>  <SMILES>  (44) 
O=S(=O)(NCCc1nc2ccccc2[n-]1)c1ccc(Cl)c(Cl)c1

>  <Energy>  (44) 
67.64033750594348

>  <Genealogy>  (44) 
O=S(=O)(NCCc1nc2ccccc2[n-]1)c1ccc(Cl)c(Cl)c1 (protonated)
O=S(=O)(NCCc1nc2ccccc2[n-]1)c1ccc(Cl)c(Cl)c1 (3D coordinates assigned)
O=S(=O)(NCCc1nc2ccccc2[n-]1)c1ccc(Cl)c(Cl)c1 (optimized conformer: 67.64033750594348 kcal/mol)

>  <smiles>  (44) 
O=S(=O)(NCCc1nc2ccccc2[nH]1)c1ccc(Cl)c(Cl)c1

>  <score_type>  (44) 
oracle

>  <origin>  (44) 
adg

>  <m_score__min__energy>  (44) 
-10.710000000000001

>  <m_primary>  (44) 
energy

$$$$
44:0
     RDKit          3D

 60 64  0  0  0  0  0  0  0  0999 V2000
   50.1340   22.8820   46.2330 C   0  0  0  0  0  0  0  0  0  0  0  0
   51.5970   22.7610   45.9520 C   0  0  0  0  0  0  0  0  0  0  0  0
   52.5270   22.1100   46.7380 C   0  0  0  0  0  0  0  0  0  0  0  0
   53.6920   22.2630   46.0190 C   0  0  0  0  0  0  0  0  0  0  0  0
   54.8480   21.7910   46.3770 N   0  0  0  0  0  0  0  0  0  0  0  0
   55.8300   22.5190   47.6090 S   0  0  0  0  0  0  0  0  0  0  0  0
   57.0080   21.6330   47.8930 O   0  0  0  0  0  0  0  0  0  0  0  0
   55.0120   22.6660   48.8650 O   0  0  0  0  0  0  0  0  0  0  0  0
   56.4110   24.0910   47.0590 C   0  0  0  0  0  0  0  0  0  0  0  0
   57.5580   24.6660   47.6260 C   0  0  0  0  0  0  0  0  0  0  0  0
   57.9840   25.9350   47.2180 C   0  0  0  0  0  0  0  0  0  0  0  0
   57.2580   26.6490   46.2470 C   0  0  0  0  0  0  0  0  0  0  0  0
   57.6800   27.9510   45.8070 N   0  0  0  0  0  0  0  0  0  0  0  0
   57.9160   28.3200   44.4350 C   0  0  0  0  0  0  0  0  0  0  0  0
   58.2080   27.1720   43.2900 S   0  0  0  0  0  0  0  0  0  0  0  0
   58.1380   29.7090   44.1130 N   0  0  0  0  0  0  0  0  0  0  0  0
   58.9160   30.4470   45.1010 C   0  0  0  0  0  0  0  0  0  0  0  0
   60.0120   29.8580   45.7730 C   0  0  0  0  0  0  0  0  0  0  0  0
   60.7310   30.5580   46.7350 C   0  0  0  0  0  0  0  0  0  0  0  0
   60.4080   31.8770   47.0620 C   0  0  0  0  0  0  0  0  0  0  0  0
   61.1710   32.5120   48.1620 C   0  0  0  0  0  0  0  0  0  0  0  0
   62.3250   32.9720   47.9420 O   0  0  0  0  0  0  0  0  0  0  0  0
   60.5910   32.5670   49.4770 N   0  0  0  0  0  0  0  0  0  0  0  0
   59.6700   31.8100   50.0070 C   0  0  0  0  0  0  0  0  0  0  0  0
   58.5290   32.3220   50.6590 C   0  0  0  0  0  0  0  0  0  0  0  0
   57.5880   31.4380   51.1970 C   0  0  0  0  0  0  0  0  0  0  0  0
   57.7670   30.0950   51.0820 N   0  0  0  0  0  0  0  0  0  0  0  0
   58.8470   29.5730   50.4470 C   0  0  0  0  0  0  0  0  0  0  0  0
   59.8050   30.4200   49.8860 C   0  0  0  0  0  0  0  0  0  0  0  0
   59.3730   32.5350   46.3480 C   0  0  0  0  0  0  0  0  0  0  0  0
   59.0950   33.9060   46.5520 C   0  0  0  0  0  0  0  0  0  0  0  0
   58.0870   34.5480   45.8340 C   0  0  0  0  0  0  0  0  0  0  0  0
   57.3550   33.8480   44.8800 C   0  0  0  0  0  0  0  0  0  0  0  0
   57.6270   32.5030   44.6340 C   0  0  0  0  0  0  0  0  0  0  0  0
   58.6280   31.8180   45.3600 C   0  0  0  0  0  0  0  0  0  0  0  0
   56.1340   26.0510   45.6540 C   0  0  0  0  0  0  0  0  0  0  0  0
   55.7100   24.7820   46.0600 C   0  0  0  0  0  0  0  0  0  0  0  0
   53.4680   22.9550   44.8860 N   0  0  0  0  0  0  0  0  0  0  0  0
   52.1940   23.2340   44.8780 O   0  0  0  0  0  0  0  0  0  0  0  0
   49.9694   22.8956   47.3205 H   0  0  0  0  0  0  0  0  0  0  0  0
   49.7520   23.8148   45.7926 H   0  0  0  0  0  0  0  0  0  0  0  0
   49.6039   22.0246   45.7926 H   0  0  0  0  0  0  0  0  0  0  0  0
   52.3754   21.5969   47.6991 H   0  0  0  0  0  0  0  0  0  0  0  0
   58.1242   24.1179   48.3935 H   0  0  0  0  0  0  0  0  0  0  0  0
   58.8904   26.3762   47.6583 H   0  0  0  0  0  0  0  0  0  0  0  0
   57.8960   28.6630   46.5400 H   0  0  0  0  0  0  0  0  0  0  0  0
   57.1840   30.1350   44.0400 H   0  0  0  0  0  0  0  0  0  0  0  0
   58.6090   29.7890   43.1800 H   0  0  0  0  0  0  0  0  0  0  0  0
   60.3014   28.8251   45.5296 H   0  0  0  0  0  0  0  0  0  0  0  0
   61.5695   30.0642   47.2480 H   0  0  0  0  0  0  0  0  0  0  0  0
   58.3802   33.4086   50.7438 H   0  0  0  0  0  0  0  0  0  0  0  0
   56.7004   31.8305   51.7148 H   0  0  0  0  0  0  0  0  0  0  0  0
   58.9677   28.4821   50.3742 H   0  0  0  0  0  0  0  0  0  0  0  0
   60.6662   29.9962   49.3487 H   0  0  0  0  0  0  0  0  0  0  0  0
   59.6825   34.4745   47.2879 H   0  0  0  0  0  0  0  0  0  0  0  0
   57.8700   35.6099   46.0221 H   0  0  0  0  0  0  0  0  0  0  0  0
   56.5587   34.3577   44.3178 H   0  0  0  0  0  0  0  0  0  0  0  0
   57.0540   31.9666   43.8633 H   0  0  0  0  0  0  0  0  0  0  0  0
   55.5837   26.5845   44.8650 H   0  0  0  0  0  0  0  0  0  0  0  0
   54.8244   24.3245   45.5947 H   0  0  0  0  0  0  0  0  0  0  0  0
  1  2  1  0
  2  3  2  0
  3  4  1  0
  4  5  2  3
  5  6  1  0
  6  7  2  0
  6  8  2  0
  6  9  1  0
  9 10  2  0
 10 11  1  0
 11 12  2  0
 12 13  1  0
 13 14  1  0
 14 15  2  0
 14 16  1  0
 16 17  1  0
 17 18  2  0
 18 19  1  0
 19 20  2  0
 20 21  1  0
 21 22  2  0
 21 23  1  0
 23 24  2  3
 24 25  1  0
 25 26  2  0
 26 27  1  0
 27 28  1  0
 28 29  2  0
 20 30  1  0
 30 31  2  0
 31 32  1  0
 32 33  2  0
 33 34  1  0
 34 35  2  0
 12 36  1  0
 36 37  2  0
  4 38  1  0
 38 39  1  0
 39  2  1  0
 37  9  1  0
 35 17  1  0
 29 24  1  0
 35 30  1  0
  1 40  1  0
  1 41  1  0
  1 42  1  0
  3 43  1  0
 10 44  1  0
 11 45  1  0
 13 46  1  0
 16 47  1  0
 16 48  1  0
 18 49  1  0
 19 50  1  0
 25 51  1  0
 26 52  1  0
 28 53  1  0
 29 54  1  0
 31 55  1  0
 32 56  1  0
 33 57  1  0
 34 58  1  0
 36 59  1  0
 37 60  1  0
M  CHG  3  16   1  27  -1  38  -1
M  END
>  <UniqueID>  (45) 
42

>  <SMILES>  (45) 
Cc1cc(=NS(=O)(=O)c2ccc(NC(=S)[NH2+]c3ccc(C(=O)N=c4cc[n-]cc4)c4ccccc34)cc2)[n-]o1

>  <Energy>  (45) 
132.44476626564824

>  <Genealogy>  (45) 
Cc1cc(=NS(=O)(=O)c2ccc(NC(=S)[NH2+]c3ccc(C(=O)N=c4cc[n-]cc4)c4ccccc34)cc2)[n-]o1 (protonated)
Cc1cc(=NS(=O)(=O)c2ccc(NC(=S)[NH2+]c3ccc(C(=O)N=c4cc[n-]cc4)c4ccccc34)cc2)[n-]o1 (3D coordinates assigned)
Cc1cc(=NS(=O)(=O)c2ccc(NC(=S)[NH2+]c3ccc(C(=O)N=c4cc[n-]cc4)c4ccccc34)cc2)[n-]o1 (optimized conformer: 132.44476626564824 kcal/mol)

>  <smiles>  (45) 
Cc1cc(=NS(=O)(=O)c2ccc(NC(=S)Nc3ccc(C(=O)N=c4cc[nH]cc4)c4ccccc34)cc2)[nH]o1

>  <score_type>  (45) 
oracle

>  <origin>  (45) 
adg

>  <m_score__min__energy>  (45) 
-13.07

>  <m_primary>  (45) 
energy

$$$$
45:0
     RDKit          3D

 44 46  0  0  0  0  0  0  0  0999 V2000
   54.9550   26.3240   45.9790 N   0  0  0  0  0  0  0  0  0  0  0  0
   55.4860   24.6830   46.1170 S   0  0  0  0  0  0  0  0  0  0  0  0
   56.7930   24.6390   46.8570 O   0  0  0  0  0  0  0  0  0  0  0  0
   54.4590   23.8990   46.8830 O   0  0  0  0  0  0  0  0  0  0  0  0
   55.6810   23.9600   44.4960 C   0  0  0  0  0  0  0  0  0  0  0  0
   56.8920   24.5530   43.7720 C   0  0  0  0  0  0  0  0  0  0  0  0
   57.2630   25.8360   44.3660 N   0  0  0  0  0  0  0  0  0  0  0  0
   57.9430   26.8610   43.6220 C   0  0  0  0  0  0  0  0  0  0  0  0
   58.1480   26.7020   42.3860 O   0  0  0  0  0  0  0  0  0  0  0  0
   58.3950   28.1140   44.2750 C   0  0  0  0  0  0  0  0  0  0  0  0
   59.6890   28.2260   44.8160 C   0  0  0  0  0  0  0  0  0  0  0  0
   60.1060   29.4140   45.4240 C   0  0  0  0  0  0  0  0  0  0  0  0
   59.2350   30.5160   45.4960 C   0  0  0  0  0  0  0  0  0  0  0  0
   59.6070   31.7310   46.0970 C   0  0  0  0  0  0  0  0  0  0  0  0
   60.7610   31.8510   46.5970 O   0  0  0  0  0  0  0  0  0  0  0  0
   58.7210   32.7810   46.1410 N   0  0  0  0  0  0  0  0  0  0  0  0
   59.1280   34.0680   46.7430 C   0  0  0  0  0  0  0  0  0  0  0  0
   59.6500   33.8550   48.1400 C   0  0  0  0  0  0  0  0  0  0  0  0
   58.9220   33.0830   49.0620 C   0  0  0  0  0  0  0  0  0  0  0  0
   59.4230   32.8610   50.3480 C   0  0  0  0  0  0  0  0  0  0  0  0
   60.6540   33.4050   50.7240 C   0  0  0  0  0  0  0  0  0  0  0  0
   61.3860   34.1720   49.8130 C   0  0  0  0  0  0  0  0  0  0  0  0
   60.8880   34.3960   48.5250 C   0  0  0  0  0  0  0  0  0  0  0  0
   57.4700   32.6390   45.5890 C   0  0  0  0  0  0  0  0  0  0  0  0
   56.6410   33.5880   45.6140 O   0  0  0  0  0  0  0  0  0  0  0  0
   57.1040   31.4690   45.0070 N   0  0  0  0  0  0  0  0  0  0  0  0
   57.9470   30.4120   44.9470 C   0  0  0  0  0  0  0  0  0  0  0  0
   57.5330   29.2220   44.3380 C   0  0  0  0  0  0  0  0  0  0  0  0
   54.1520   26.3330   45.3110 H   0  0  0  0  0  0  0  0  0  0  0  0
   55.8212   22.8741   44.6012 H   0  0  0  0  0  0  0  0  0  0  0  0
   54.7790   24.1771   43.9050 H   0  0  0  0  0  0  0  0  0  0  0  0
   57.7398   23.8570   43.8540 H   0  0  0  0  0  0  0  0  0  0  0  0
   56.6334   24.7109   42.7146 H   0  0  0  0  0  0  0  0  0  0  0  0
   57.0000   26.0010   45.3630 H   0  0  0  0  0  0  0  0  0  0  0  0
   60.3789   27.3711   44.7601 H   0  0  0  0  0  0  0  0  0  0  0  0
   61.1186   29.4870   45.8474 H   0  0  0  0  0  0  0  0  0  0  0  0
   59.9178   34.5223   46.1267 H   0  0  0  0  0  0  0  0  0  0  0  0
   58.2526   34.7326   46.7876 H   0  0  0  0  0  0  0  0  0  0  0  0
   57.9532   32.6514   48.7701 H   0  0  0  0  0  0  0  0  0  0  0  0
   58.8474   32.2572   51.0650 H   0  0  0  0  0  0  0  0  0  0  0  0
   61.0468   33.2297   51.7364 H   0  0  0  0  0  0  0  0  0  0  0  0
   62.3550   34.6001   50.1093 H   0  0  0  0  0  0  0  0  0  0  0  0
   61.4683   34.9984   47.8106 H   0  0  0  0  0  0  0  0  0  0  0  0
   56.5242   29.1534   43.9049 H   0  0  0  0  0  0  0  0  0  0  0  0
  1  2  1  0
  2  3  2  0
  2  4  2  0
  2  5  1  0
  5  6  1  0
  6  7  1  0
  7  8  1  0
  8  9  2  0
  8 10  1  0
 10 11  2  0
 11 12  1  0
 12 13  2  0
 13 14  1  0
 14 15  2  0
 14 16  1  0
 16 17  1  0
 17 18  1  0
 18 19  2  0
 19 20  1  0
 20 21  2  0
 21 22  1  0
 22 23  2  0
 16 24  1  0
 24 25  2  0
 24 26  1  0
 26 27  1  0
 27 28  2  0
 28 10  1  0
 27 13  1  0
 23 18  1  0
  1 29  1  0
  5 30  1  0
  5 31  1  0
  6 32  1  0
  6 33  1  0
  7 34  1  0
 11 35  1  0
 12 36  1  0
 17 37  1  0
 17 38  1  0
 19 39  1  0
 20 40  1  0
 21 41  1  0
 22 42  1  0
 23 43  1  0
 28 44  1  0
M  CHG  2   1  -1  26  -1
M  END
>  <UniqueID>  (46) 
43

>  <SMILES>  (46) 
[NH-]S(=O)(=O)CCNC(=O)c1ccc2c(=O)n(Cc3ccccc3)c(=O)[n-]c2c1

>  <Energy>  (46) 
47.816263953954326

>  <Genealogy>  (46) 
[NH-]S(=O)(=O)CCNC(=O)c1ccc2c(=O)n(Cc3ccccc3)c(=O)[n-]c2c1 (protonated)
[NH-]S(=O)(=O)CCNC(=O)c1ccc2c(=O)n(Cc3ccccc3)c(=O)[n-]c2c1 (3D coordinates assigned)
[NH-]S(=O)(=O)CCNC(=O)c1ccc2c(=O)n(Cc3ccccc3)c(=O)[n-]c2c1 (optimized conformer: 47.816263953954326 kcal/mol)

>  <smiles>  (46) 
NS(=O)(=O)CCNC(=O)c1ccc2c(=O)n(Cc3ccccc3)c(=O)[nH]c2c1

>  <score_type>  (46) 
oracle

>  <origin>  (46) 
adg

>  <m_score__min__energy>  (46) 
-12.82

>  <m_primary>  (46) 
energy

$$$$
46:0
     RDKit          3D

 33 36  0  0  0  0  0  0  0  0999 V2000
   57.1370   25.0580   47.7290 N   0  0  0  0  0  0  0  0  0  0  0  0
   56.2520   25.0460   46.2430 S   0  0  0  0  0  0  0  0  0  0  0  0
   55.0210   24.1950   46.3790 O   0  0  0  0  0  0  0  0  0  0  0  0
   57.1220   24.4670   45.1650 O   0  0  0  0  0  0  0  0  0  0  0  0
   55.8140   26.6640   45.7970 N   0  0  0  0  0  0  0  0  0  0  0  0
   56.6660   27.8180   45.8530 C   0  0  0  0  0  0  0  0  0  0  0  0
   57.8940   27.8030   46.5300 C   0  0  0  0  0  0  0  0  0  0  0  0
   58.6990   28.9410   46.5730 C   0  0  0  0  0  0  0  0  0  0  0  0
   58.2900   30.1360   45.9560 C   0  0  0  0  0  0  0  0  0  0  0  0
   57.0640   30.1410   45.2210 C   0  0  0  0  0  0  0  0  0  0  0  0
   56.6700   31.3000   44.5080 C   0  0  0  0  0  0  0  0  0  0  0  0
   57.4690   32.4470   44.5040 C   0  0  0  0  0  0  0  0  0  0  0  0
   58.6450   32.4390   45.2430 C   0  0  0  0  0  0  0  0  0  0  0  0
   59.4990   33.4730   45.3610 N   0  0  0  0  0  0  0  0  0  0  0  0
   60.4530   33.0450   46.2060 C   0  0  0  0  0  0  0  0  0  0  0  0
   61.5390   33.7900   46.6620 C   0  0  0  0  0  0  0  0  0  0  0  0
   62.4040   33.1980   47.5940 C   0  0  0  0  0  0  0  0  0  0  0  0
   62.1570   31.8940   48.0650 C   0  0  0  0  0  0  0  0  0  0  0  0
   63.0060   31.3340   49.0120 O   0  0  0  0  0  0  0  0  0  0  0  0
   61.0540   31.1590   47.5950 C   0  0  0  0  0  0  0  0  0  0  0  0
   60.2180   31.7470   46.6320 C   0  0  0  0  0  0  0  0  0  0  0  0
   59.0480   31.3340   45.9830 C   0  0  0  0  0  0  0  0  0  0  0  0
   56.2600   28.9840   45.1920 C   0  0  0  0  0  0  0  0  0  0  0  0
   55.0510   28.9840   44.4990 O   0  0  0  0  0  0  0  0  0  0  0  0
   57.3210   24.0660   47.9950 H   0  0  0  0  0  0  0  0  0  0  0  0
   58.2262   26.8829   47.0330 H   0  0  0  0  0  0  0  0  0  0  0  0
   59.6659   28.9030   47.0962 H   0  0  0  0  0  0  0  0  0  0  0  0
   55.7222   31.2973   43.9498 H   0  0  0  0  0  0  0  0  0  0  0  0
   57.1729   33.3363   43.9283 H   0  0  0  0  0  0  0  0  0  0  0  0
   59.4210   34.4150   44.9160 H   0  0  0  0  0  0  0  0  0  0  0  0
   61.7130   34.8143   46.3008 H   0  0  0  0  0  0  0  0  0  0  0  0
   63.2796   33.7550   47.9588 H   0  0  0  0  0  0  0  0  0  0  0  0
   60.8507   30.1463   47.9732 H   0  0  0  0  0  0  0  0  0  0  0  0
  1  2  1  0
  2  3  2  0
  2  4  2  0
  2  5  1  0
  5  6  1  0
  6  7  2  0
  7  8  1  0
  8  9  2  0
  9 10  1  0
 10 11  1  0
 11 12  2  0
 12 13  1  0
 13 14  1  0
 14 15  1  0
 15 16  2  0
 16 17  1  0
 17 18  2  0
 18 19  1  0
 18 20  1  0
 20 21  2  0
 21 22  1  0
 10 23  2  0
 23 24  1  0
 23  6  1  0
 22  9  1  0
 22 13  2  0
 21 15  1  0
  1 25  1  0
  7 26  1  0
  8 27  1  0
 11 28  1  0
 12 29  1  0
 14 30  1  0
 16 31  1  0
 17 32  1  0
 20 33  1  0
M  CHG  4   1  -1   5  -1  19  -1  24  -1
M  END
>  <UniqueID>  (47) 
44

>  <SMILES>  (47) 
[NH-]S(=O)(=O)[N-]c1ccc2c(ccc3[nH]c4ccc([O-])cc4c32)c1[O-]

>  <Energy>  (47) 
89.9512062890787

>  <Genealogy>  (47) 
[NH-]S(=O)(=O)[N-]c1ccc2c(ccc3[nH]c4ccc([O-])cc4c32)c1[O-] (protonated)
[NH-]S(=O)(=O)[N-]c1ccc2c(ccc3[nH]c4ccc([O-])cc4c32)c1[O-] (3D coordinates assigned)
[NH-]S(=O)(=O)[N-]c1ccc2c(ccc3[nH]c4ccc([O-])cc4c32)c1[O-] (optimized conformer: 89.9512062890787 kcal/mol)

>  <smiles>  (47) 
NS(=O)(=O)Nc1ccc2c(ccc3[nH]c4ccc(O)cc4c32)c1O

>  <score_type>  (47) 
oracle

>  <origin>  (47) 
adg

>  <m_score__min__energy>  (47) 
-14.640000000000001

>  <m_primary>  (47) 
energy

$$$$
47:0
     RDKit          3D

 39 40  0  0  0  0  0  0  0  0999 V2000
   55.5630   20.4590   45.3800 C   0  0  0  0  0  0  0  0  0  0  0  0
   55.9170   20.6710   43.9830 N   0  0  0  0  0  0  0  0  0  0  0  0
   56.2950   21.9320   43.4160 C   0  0  0  0  0  0  0  0  0  0  0  0
   55.8870   22.2230   42.2610 O   0  0  0  0  0  0  0  0  0  0  0  0
   57.1140   22.9140   44.1550 C   0  0  0  0  0  0  0  0  0  0  0  0
   56.7230   24.2590   44.2400 C   0  0  0  0  0  0  0  0  0  0  0  0
   57.4980   25.1760   44.9550 C   0  0  0  0  0  0  0  0  0  0  0  0
   58.6690   24.7610   45.6150 C   0  0  0  0  0  0  0  0  0  0  0  0
   59.5060   25.7260   46.3670 C   0  0  0  0  0  0  0  0  0  0  0  0
   60.7260   25.8470   46.0720 O   0  0  0  0  0  0  0  0  0  0  0  0
   58.9540   26.5140   47.4340 N   0  0  0  0  0  0  0  0  0  0  0  0
   59.6680   27.6480   48.0170 C   0  0  0  0  0  0  0  0  0  0  0  0
   59.3630   28.9030   47.2460 C   0  0  0  0  0  0  0  0  0  0  0  0
   60.1230   30.0590   47.4650 C   0  0  0  0  0  0  0  0  0  0  0  0
   59.8280   31.2370   46.7780 C   0  0  0  0  0  0  0  0  0  0  0  0
   58.7650   31.2790   45.8690 C   0  0  0  0  0  0  0  0  0  0  0  0
   58.4420   32.7960   45.0360 Cl  0  0  0  0  0  0  0  0  0  0  0  0
   57.9840   30.1250   45.6460 C   0  0  0  0  0  0  0  0  0  0  0  0
   56.6300   30.1440   44.5120 S   0  0  0  0  0  0  0  0  0  0  0  0
   55.5210   28.8820   44.9190 N   0  0  0  0  0  0  0  0  0  0  0  0
   57.1420   29.9410   43.1140 O   0  0  0  0  0  0  0  0  0  0  0  0
   55.9090   31.4620   44.5770 O   0  0  0  0  0  0  0  0  0  0  0  0
   58.2920   28.9430   46.3400 C   0  0  0  0  0  0  0  0  0  0  0  0
   59.0500   23.4110   45.5360 C   0  0  0  0  0  0  0  0  0  0  0  0
   58.2730   22.4940   44.8220 C   0  0  0  0  0  0  0  0  0  0  0  0
   56.3272   20.9167   46.0254 H   0  0  0  0  0  0  0  0  0  0  0  0
   54.5858   20.9207   45.5848 H   0  0  0  0  0  0  0  0  0  0  0  0
   55.5087   19.3796   45.5848 H   0  0  0  0  0  0  0  0  0  0  0  0
   55.8014   24.5933   43.7411 H   0  0  0  0  0  0  0  0  0  0  0  0
   57.1899   26.2309   45.0021 H   0  0  0  0  0  0  0  0  0  0  0  0
   58.0300   26.2540   47.8470 H   0  0  0  0  0  0  0  0  0  0  0  0
   59.3525   27.7778   49.0628 H   0  0  0  0  0  0  0  0  0  0  0  0
   60.7497   27.4530   47.9737 H   0  0  0  0  0  0  0  0  0  0  0  0
   60.9567   30.0380   48.1823 H   0  0  0  0  0  0  0  0  0  0  0  0
   60.4346   32.1380   46.9520 H   0  0  0  0  0  0  0  0  0  0  0  0
   54.6280   29.3400   45.2070 H   0  0  0  0  0  0  0  0  0  0  0  0
   57.6875   28.0396   46.1715 H   0  0  0  0  0  0  0  0  0  0  0  0
   59.9673   23.0727   46.0401 H   0  0  0  0  0  0  0  0  0  0  0  0
   58.5730   21.4364   44.7834 H   0  0  0  0  0  0  0  0  0  0  0  0
  1  2  1  0
  2  3  1  0
  3  4  2  0
  3  5  1  0
  5  6  2  0
  6  7  1  0
  7  8  2  0
  8  9  1  0
  9 10  2  0
  9 11  1  0
 11 12  1  0
 12 13  1  0
 13 14  2  0
 14 15  1  0
 15 16  2  0
 16 17  1  0
 16 18  1  0
 18 19  1  0
 19 20  1  0
 19 21  2  0
 19 22  2  0
 18 23  2  0
  8 24  1  0
 24 25  2  0
 25  5  1  0
 23 13  1  0
  1 26  1  0
  1 27  1  0
  1 28  1  0
  6 29  1  0
  7 30  1  0
 11 31  1  0
 12 32  1  0
 12 33  1  0
 14 34  1  0
 15 35  1  0
 20 36  1  0
 23 37  1  0
 24 38  1  0
 25 39  1  0
M  CHG  2   2  -1  20  -1
M  END
>  <UniqueID>  (48) 
45

>  <SMILES>  (48) 
C[N-]C(=O)c1ccc(C(=O)NCc2ccc(Cl)c(S([NH-])(=O)=O)c2)cc1

>  <Energy>  (48) 
44.187106246963516

>  <Genealogy>  (48) 
C[N-]C(=O)c1ccc(C(=O)NCc2ccc(Cl)c(S([NH-])(=O)=O)c2)cc1 (protonated)
C[N-]C(=O)c1ccc(C(=O)NCc2ccc(Cl)c(S([NH-])(=O)=O)c2)cc1 (3D coordinates assigned)
C[N-]C(=O)c1ccc(C(=O)NCc2ccc(Cl)c(S([NH-])(=O)=O)c2)cc1 (optimized conformer: 44.187106246963516 kcal/mol)

>  <smiles>  (48) 
CNC(=O)c1ccc(C(=O)NCc2ccc(Cl)c(S(N)(=O)=O)c2)cc1

>  <score_type>  (48) 
oracle

>  <origin>  (48) 
adg

>  <m_score__min__energy>  (48) 
-12.06

>  <m_primary>  (48) 
energy

$$$$
48:0
     RDKit          3D

 49 51  0  0  0  0  0  0  0  0999 V2000
   57.8030   32.0140   42.5340 C   0  0  0  0  0  0  0  0  0  0  0  0
   57.1230   30.6710   42.7680 C   0  0  0  0  0  0  0  0  0  0  0  0
   56.6160   30.5020   44.4730 S   0  0  0  0  0  0  0  0  0  0  0  0
   56.8640   31.7980   45.1950 O   0  0  0  0  0  0  0  0  0  0  0  0
   55.1440   30.1950   44.5070 O   0  0  0  0  0  0  0  0  0  0  0  0
   57.5100   29.2110   45.2430 N   0  0  0  0  0  0  0  0  0  0  0  0
   58.0970   28.2880   44.2370 C   0  0  0  0  0  0  0  0  0  0  0  0
   59.6300   28.2840   44.2240 C   0  0  0  0  0  0  0  0  0  0  0  0
   60.2000   27.9810   45.6170 C   0  0  0  0  0  0  0  0  0  0  0  0
   59.4310   28.6930   46.7770 C   0  0  1  0  0  0  0  0  0  0  0  0
   58.5810   27.6690   47.5690 C   0  0  0  0  0  0  0  0  0  0  0  0
   60.4340   29.3140   47.7440 C   0  0  0  0  0  0  0  0  0  0  0  0
   60.8510   28.6590   48.7390 O   0  0  0  0  0  0  0  0  0  0  0  0
   60.8700   30.6730   47.5530 N   0  0  0  0  0  0  0  0  0  0  0  0
   62.0040   31.2540   48.2200 C   0  0  0  0  0  0  0  0  0  0  0  0
   62.2270   30.9690   49.5730 C   0  0  0  0  0  0  0  0  0  0  0  0
   63.3070   31.5410   50.2510 C   0  0  0  0  0  0  0  0  0  0  0  0
   64.1780   32.4260   49.5910 C   0  0  0  0  0  0  0  0  0  0  0  0
   65.2890   33.0230   50.2910 N   0  0  0  0  0  0  0  0  0  0  0  0
   66.6050   32.7770   50.1330 C   0  0  0  0  0  0  0  0  0  0  0  0
   67.3430   33.5300   50.9710 N   0  0  0  0  0  0  0  0  0  0  0  0
   66.5000   34.2660   51.6780 N   0  0  0  0  0  0  0  0  0  0  0  0
   65.2570   33.9570   51.2620 C   0  0  0  0  0  0  0  0  0  0  0  0
   63.9400   32.7270   48.2380 C   0  0  0  0  0  0  0  0  0  0  0  0
   62.8600   32.1520   47.5600 C   0  0  0  0  0  0  0  0  0  0  0  0
   58.4850   29.7830   46.1970 C   0  0  0  0  0  0  0  0  0  0  0  0
   58.0386   32.4794   43.5025 H   0  0  0  0  0  0  0  0  0  0  0  0
   58.7320   31.8605   41.9653 H   0  0  0  0  0  0  0  0  0  0  0  0
   57.1294   32.6719   41.9653 H   0  0  0  0  0  0  0  0  0  0  0  0
   56.2372   30.5980   42.1199 H   0  0  0  0  0  0  0  0  0  0  0  0
   57.8382   29.8690   42.5327 H   0  0  0  0  0  0  0  0  0  0  0  0
   57.7490   27.2679   44.4570 H   0  0  0  0  0  0  0  0  0  0  0  0
   57.7683   28.6397   43.2479 H   0  0  0  0  0  0  0  0  0  0  0  0
   59.9801   27.5157   43.5189 H   0  0  0  0  0  0  0  0  0  0  0  0
   59.9767   29.2818   43.9170 H   0  0  0  0  0  0  0  0  0  0  0  0
   60.1521   26.8947   45.7835 H   0  0  0  0  0  0  0  0  0  0  0  0
   61.2318   28.3619   45.6329 H   0  0  0  0  0  0  0  0  0  0  0  0
   58.7185   27.8347   48.6477 H   0  0  0  0  0  0  0  0  0  0  0  0
   57.5193   27.7962   47.3109 H   0  0  0  0  0  0  0  0  0  0  0  0
   58.9015   26.6489   47.3109 H   0  0  0  0  0  0  0  0  0  0  0  0
   60.2880   31.2960   46.9490 H   0  0  0  0  0  0  0  0  0  0  0  0
   61.5464   30.2892   50.1065 H   0  0  0  0  0  0  0  0  0  0  0  0
   63.4772   31.2968   51.3100 H   0  0  0  0  0  0  0  0  0  0  0  0
   67.0214   32.0560   49.4141 H   0  0  0  0  0  0  0  0  0  0  0  0
   64.3367   34.4076   51.6621 H   0  0  0  0  0  0  0  0  0  0  0  0
   64.6092   33.4209   47.7081 H   0  0  0  0  0  0  0  0  0  0  0  0
   62.6798   32.4041   46.5046 H   0  0  0  0  0  0  0  0  0  0  0  0
   57.9374   30.2568   47.0250 H   0  0  0  0  0  0  0  0  0  0  0  0
   59.1000   30.5189   45.6583 H   0  0  0  0  0  0  0  0  0  0  0  0
  1  2  1  0
  2  3  1  0
  3  4  2  0
  3  5  2  0
  3  6  1  0
  6  7  1  0
  7  8  1  0
  8  9  1  0
  9 10  1  0
 10 11  1  1
 10 12  1  0
 12 13  2  0
 12 14  1  0
 14 15  1  0
 15 16  2  0
 16 17  1  0
 17 18  2  0
 18 19  1  0
 19 20  1  0
 20 21  2  0
 21 22  1  0
 22 23  2  0
 18 24  1  0
 24 25  2  0
 10 26  1  0
 26  6  1  0
 25 15  1  0
 23 19  1  0
  1 27  1  0
  1 28  1  0
  1 29  1  0
  2 30  1  0
  2 31  1  0
  7 32  1  0
  7 33  1  0
  8 34  1  0
  8 35  1  0
  9 36  1  0
  9 37  1  0
 11 38  1  0
 11 39  1  0
 11 40  1  0
 14 41  1  0
 16 42  1  0
 17 43  1  0
 20 44  1  0
 23 45  1  0
 24 46  1  0
 25 47  1  0
 26 48  1  0
 26 49  1  0
M  END
>  <UniqueID>  (49) 
46

>  <SMILES>  (49) 
CCS(=O)(=O)N1CCC[C@@](C)(C(=O)Nc2ccc(-n3cnnc3)cc2)C1

>  <Energy>  (49) 
92.2101953902135

>  <Genealogy>  (49) 
CCS(=O)(=O)N1CCC[C@@](C)(C(=O)Nc2ccc(-n3cnnc3)cc2)C1 (chirality)
CCS(=O)(=O)N1CCC[C@@](C)(C(=O)Nc2ccc(-n3cnnc3)cc2)C1 (3D coordinates assigned)
CCS(=O)(=O)N1CCC[C@@](C)(C(=O)Nc2ccc(-n3cnnc3)cc2)C1 (nonaromatic ring conformer: 92.2101953902135 kcal/mol)

>  <smiles>  (49) 
CCS(=O)(=O)N1CCCC(C)(C(=O)Nc2ccc(-n3cnnc3)cc2)C1

>  <score_type>  (49) 
oracle

>  <origin>  (49) 
adg

>  <m_score__min__energy>  (49) 
-8.3300000000000001

>  <m_primary>  (49) 
energy

$$$$
49:0
     RDKit          3D

 48 50  0  0  0  0  0  0  0  0999 V2000
   60.9430   29.7080   45.6330 O   0  0  0  0  0  0  0  0  0  0  0  0
   59.8670   29.1090   45.9160 C   0  0  0  0  0  0  0  0  0  0  0  0
   59.8820   28.0100   46.7820 O   0  0  0  0  0  0  0  0  0  0  0  0
   59.8490   28.1300   48.2000 C   0  0  0  0  0  0  0  0  0  0  0  0
   59.2300   29.4410   48.6080 C   0  0  0  0  0  0  0  0  0  0  0  0
   58.1850   29.4320   49.2480 O   0  0  0  0  0  0  0  0  0  0  0  0
   59.9090   30.6940   48.3220 N   0  0  0  0  0  0  0  0  0  0  0  0
   59.0470   31.8590   48.6460 C   0  0  0  0  0  0  0  0  0  0  0  0
   58.8530   32.7710   47.4570 C   0  0  0  0  0  0  0  0  0  0  0  0
   59.9690   33.3060   46.7920 C   0  0  0  0  0  0  0  0  0  0  0  0
   59.7950   34.1810   45.7160 C   0  0  0  0  0  0  0  0  0  0  0  0
   58.5080   34.5180   45.2890 C   0  0  0  0  0  0  0  0  0  0  0  0
   57.3920   33.9760   45.9340 C   0  0  0  0  0  0  0  0  0  0  0  0
   57.5620   33.1050   47.0140 C   0  0  0  0  0  0  0  0  0  0  0  0
   61.1760   30.7330   49.0890 C   0  0  0  0  0  0  0  0  0  0  0  0
   62.0700   31.8720   48.6500 C   0  0  0  0  0  0  0  0  0  0  0  0
   62.8590   31.7550   47.4920 C   0  0  0  0  0  0  0  0  0  0  0  0
   63.7060   32.7990   47.1090 C   0  0  0  0  0  0  0  0  0  0  0  0
   63.7710   33.9670   47.8750 C   0  0  0  0  0  0  0  0  0  0  0  0
   62.9880   34.0930   49.0260 C   0  0  0  0  0  0  0  0  0  0  0  0
   62.1400   33.0500   49.4130 C   0  0  0  0  0  0  0  0  0  0  0  0
   58.5850   29.5690   45.3390 C   0  0  0  0  0  0  0  0  0  0  0  0
   58.4950   30.8210   44.7110 C   0  0  0  0  0  0  0  0  0  0  0  0
   57.2710   31.2520   44.1950 C   0  0  0  0  0  0  0  0  0  0  0  0
   56.1730   30.4560   44.2910 N   0  0  0  0  0  0  0  0  0  0  0  0
   56.2280   29.2370   44.8890 C   0  0  0  0  0  0  0  0  0  0  0  0
   57.4310   28.7730   45.4300 C   0  0  0  0  0  0  0  0  0  0  0  0
   59.2551   27.3042   48.6187 H   0  0  0  0  0  0  0  0  0  0  0  0
   60.8795   28.0906   48.5828 H   0  0  0  0  0  0  0  0  0  0  0  0
   60.1410   30.7210   47.3000 H   0  0  0  0  0  0  0  0  0  0  0  0
   58.0638   31.4919   48.9755 H   0  0  0  0  0  0  0  0  0  0  0  0
   59.5435   32.4375   49.4390 H   0  0  0  0  0  0  0  0  0  0  0  0
   60.9836   33.0352   47.1194 H   0  0  0  0  0  0  0  0  0  0  0  0
   60.6721   34.6047   45.2049 H   0  0  0  0  0  0  0  0  0  0  0  0
   58.3726   35.2102   44.4449 H   0  0  0  0  0  0  0  0  0  0  0  0
   56.3794   34.2353   45.5912 H   0  0  0  0  0  0  0  0  0  0  0  0
   56.6821   32.6796   47.5188 H   0  0  0  0  0  0  0  0  0  0  0  0
   60.9412   30.8571   50.1565 H   0  0  0  0  0  0  0  0  0  0  0  0
   61.7126   29.7903   48.9064 H   0  0  0  0  0  0  0  0  0  0  0  0
   62.8095   30.8387   46.8854 H   0  0  0  0  0  0  0  0  0  0  0  0
   64.3226   32.7015   46.2033 H   0  0  0  0  0  0  0  0  0  0  0  0
   64.4386   34.7870   47.5717 H   0  0  0  0  0  0  0  0  0  0  0  0
   63.0387   35.0125   49.6276 H   0  0  0  0  0  0  0  0  0  0  0  0
   61.5249   33.1524   50.3191 H   0  0  0  0  0  0  0  0  0  0  0  0
   59.3858   31.4607   44.6255 H   0  0  0  0  0  0  0  0  0  0  0  0
   57.1952   32.2366   43.7104 H   0  0  0  0  0  0  0  0  0  0  0  0
   55.3236   28.6135   44.9476 H   0  0  0  0  0  0  0  0  0  0  0  0
   57.4735   27.7909   45.9237 H   0  0  0  0  0  0  0  0  0  0  0  0
  1  2  2  0
  2  3  1  0
  3  4  1  0
  4  5  1  0
  5  6  2  0
  5  7  1  0
  7  8  1  0
  8  9  1  0
  9 10  2  0
 10 11  1  0
 11 12  2  0
 12 13  1  0
 13 14  2  0
  7 15  1  0
 15 16  1  0
 16 17  2  0
 17 18  1  0
 18 19  2  0
 19 20  1  0
 20 21  2  0
  2 22  1  0
 22 23  2  0
 23 24  1  0
 24 25  2  0
 25 26  1  0
 26 27  2  0
 14  9  1  0
 21 16  1  0
 27 22  1  0
  4 28  1  0
  4 29  1  0
  7 30  1  0
  8 31  1  0
  8 32  1  0
 10 33  1  0
 11 34  1  0
 12 35  1  0
 13 36  1  0
 14 37  1  0
 15 38  1  0
 15 39  1  0
 17 40  1  0
 18 41  1  0
 19 42  1  0
 20 43  1  0
 21 44  1  0
 23 45  1  0
 24 46  1  0
 26 47  1  0
 27 48  1  0
M  CHG  1   7   1
M  END
>  <UniqueID>  (50) 
47

>  <SMILES>  (50) 
O=C(OCC(=O)[NH+](Cc1ccccc1)Cc1ccccc1)c1ccncc1

>  <Energy>  (50) 
47.39450560366593

>  <Genealogy>  (50) 
O=C(OCC(=O)[NH+](Cc1ccccc1)Cc1ccccc1)c1ccncc1 (protonated)
O=C(OCC(=O)[NH+](Cc1ccccc1)Cc1ccccc1)c1ccncc1 (3D coordinates assigned)
O=C(OCC(=O)[NH+](Cc1ccccc1)Cc1ccccc1)c1ccncc1 (optimized conformer: 47.39450560366593 kcal/mol)

>  <smiles>  (50) 
O=C(OCC(=O)N(Cc1ccccc1)Cc1ccccc1)c1ccncc1

>  <score_type>  (50) 
oracle

>  <origin>  (50) 
adg

>  <m_score__min__energy>  (50) 
-5.79

>  <m_primary>  (50) 
energy

$$$$
50:0
     RDKit          3D

 82 84  0  0  0  0  0  0  0  0999 V2000
   58.0580   27.0240   42.4750 C   0  0  0  0  0  0  0  0  0  0  0  0
   57.7630   26.1230   43.6770 C   0  0  0  0  0  0  0  0  0  0  0  0
   57.0890   24.7950   43.2870 C   0  0  0  0  0  0  0  0  0  0  0  0
   57.4510   23.6000   44.1860 C   0  0  0  0  0  0  0  0  0  0  0  0
   56.4570   22.4310   44.0540 C   0  0  0  0  0  0  0  0  0  0  0  0
   55.3500   22.4740   45.1210 C   0  0  0  0  0  0  0  0  0  0  0  0
   54.8380   23.8910   45.4210 C   0  0  0  0  0  0  0  0  0  0  0  0
   55.5990   24.5190   46.4960 N   0  0  0  0  0  0  0  0  0  0  0  0
   55.9160   25.9120   46.5200 C   0  0  0  0  0  0  0  0  0  0  0  0
   55.1480   26.7210   45.9410 O   0  0  0  0  0  0  0  0  0  0  0  0
   57.0740   26.3470   47.1840 O   0  0  0  0  0  0  0  0  0  0  0  0
   58.1640   27.0250   46.6220 C   0  0  0  0  0  0  0  0  0  0  0  0
   59.4350   26.4430   46.4630 C   0  0  0  0  0  0  0  0  0  0  0  0
   60.4750   27.1760   45.8870 C   0  0  0  0  0  0  0  0  0  0  0  0
   60.2620   28.4890   45.4660 C   0  0  0  0  0  0  0  0  0  0  0  0
   59.0040   29.0920   45.6290 C   0  0  0  0  0  0  0  0  0  0  0  0
   58.7760   30.5280   45.1900 C   0  0  0  0  0  0  0  0  0  0  0  0
   57.3600   30.9700   45.2470 N   0  0  0  0  0  0  0  0  0  0  0  0
   56.5330   30.3740   44.1850 C   0  0  0  0  0  0  0  0  0  0  0  0
   57.1880   32.4380   45.3230 C   0  0  0  0  0  0  0  0  0  0  0  0
   58.2400   33.1610   44.4620 C   0  0  0  0  0  0  0  0  0  0  0  0
   58.4890   34.6290   44.8640 C   0  0  0  0  0  0  0  0  0  0  0  0
   59.4810   34.8090   46.0300 C   0  0  0  0  0  0  0  0  0  0  0  0
   58.9840   34.2400   47.2430 O   0  0  0  0  0  0  0  0  0  0  0  0
   59.4330   33.0600   47.8570 C   0  0  0  0  0  0  0  0  0  0  0  0
   58.6920   32.5570   48.9320 C   0  0  0  0  0  0  0  0  0  0  0  0
   59.0380   31.3440   49.5320 C   0  0  0  0  0  0  0  0  0  0  0  0
   60.1520   30.6200   49.0790 C   0  0  0  0  0  0  0  0  0  0  0  0
   60.5040   29.3150   49.6910 C   0  0  0  0  0  0  0  0  0  0  0  0
   61.0280   29.2550   50.9940 C   0  0  0  0  0  0  0  0  0  0  0  0
   61.3680   28.0250   51.5630 C   0  0  0  0  0  0  0  0  0  0  0  0
   61.1940   26.8360   50.8490 C   0  0  0  0  0  0  0  0  0  0  0  0
   61.5420   25.6290   51.4740 O   0  0  0  0  0  0  0  0  0  0  0  0
   62.8450   25.3210   51.9570 C   0  0  0  0  0  0  0  0  0  0  0  0
   60.6760   26.8890   49.5420 C   0  0  0  0  0  0  0  0  0  0  0  0
   60.3340   28.1190   48.9710 C   0  0  0  0  0  0  0  0  0  0  0  0
   60.9230   31.1470   48.0280 C   0  0  0  0  0  0  0  0  0  0  0  0
   60.5720   32.3580   47.4240 C   0  0  0  0  0  0  0  0  0  0  0  0
   57.9730   28.3580   46.2380 C   0  0  0  0  0  0  0  0  0  0  0  0
   58.3820   28.0137   42.8294 H   0  0  0  0  0  0  0  0  0  0  0  0
   58.8555   26.5734   41.8660 H   0  0  0  0  0  0  0  0  0  0  0  0
   57.1484   27.1323   41.8660 H   0  0  0  0  0  0  0  0  0  0  0  0
   58.7115   25.8975   44.1863 H   0  0  0  0  0  0  0  0  0  0  0  0
   57.0633   26.6661   44.3293 H   0  0  0  0  0  0  0  0  0  0  0  0
   55.9993   24.9384   43.3306 H   0  0  0  0  0  0  0  0  0  0  0  0
   57.4537   24.5465   42.2794 H   0  0  0  0  0  0  0  0  0  0  0  0
   58.4533   23.2421   43.9081 H   0  0  0  0  0  0  0  0  0  0  0  0
   57.4165   23.9478   45.2290 H   0  0  0  0  0  0  0  0  0  0  0  0
   55.9897   22.4762   43.0592 H   0  0  0  0  0  0  0  0  0  0  0  0
   57.0202   21.4967   44.1950 H   0  0  0  0  0  0  0  0  0  0  0  0
   54.5037   21.8661   44.7685 H   0  0  0  0  0  0  0  0  0  0  0  0
   55.7858   22.0850   46.0531 H   0  0  0  0  0  0  0  0  0  0  0  0
   54.9305   24.5041   44.5124 H   0  0  0  0  0  0  0  0  0  0  0  0
   53.7876   23.8178   45.7393 H   0  0  0  0  0  0  0  0  0  0  0  0
   59.6100   25.4084   46.7931 H   0  0  0  0  0  0  0  0  0  0  0  0
   61.4667   26.7160   45.7647 H   0  0  0  0  0  0  0  0  0  0  0  0
   61.0840   29.0552   45.0038 H   0  0  0  0  0  0  0  0  0  0  0  0
   59.3681   31.1855   45.8435 H   0  0  0  0  0  0  0  0  0  0  0  0
   59.0801   30.5852   44.1344 H   0  0  0  0  0  0  0  0  0  0  0  0
   55.7200   29.7881   44.6386 H   0  0  0  0  0  0  0  0  0  0  0  0
   56.1054   31.1729   43.5614 H   0  0  0  0  0  0  0  0  0  0  0  0
   57.1556   29.7156   43.5614 H   0  0  0  0  0  0  0  0  0  0  0  0
   56.1834   32.7019   44.9608 H   0  0  0  0  0  0  0  0  0  0  0  0
   57.3147   32.7525   46.3695 H   0  0  0  0  0  0  0  0  0  0  0  0
   59.1906   32.6142   44.5482 H   0  0  0  0  0  0  0  0  0  0  0  0
   57.8483   33.1779   43.4343 H   0  0  0  0  0  0  0  0  0  0  0  0
   58.8864   35.1631   43.9883 H   0  0  0  0  0  0  0  0  0  0  0  0
   57.5237   35.0291   45.2077 H   0  0  0  0  0  0  0  0  0  0  0  0
   60.4300   34.3177   45.7690 H   0  0  0  0  0  0  0  0  0  0  0  0
   59.6253   35.8873   46.1924 H   0  0  0  0  0  0  0  0  0  0  0  0
   57.8274   33.1231   49.3088 H   0  0  0  0  0  0  0  0  0  0  0  0
   58.4339   30.9538   50.3644 H   0  0  0  0  0  0  0  0  0  0  0  0
   61.1712   30.1817   51.5690 H   0  0  0  0  0  0  0  0  0  0  0  0
   61.7769   27.9920   52.5836 H   0  0  0  0  0  0  0  0  0  0  0  0
   62.8382   25.3226   53.0570 H   0  0  0  0  0  0  0  0  0  0  0  0
   63.1453   24.3271   51.5936 H   0  0  0  0  0  0  0  0  0  0  0  0
   63.5585   26.0752   51.5936 H   0  0  0  0  0  0  0  0  0  0  0  0
   60.5397   25.9607   48.9678 H   0  0  0  0  0  0  0  0  0  0  0  0
   59.9282   28.1512   47.9491 H   0  0  0  0  0  0  0  0  0  0  0  0
   61.8113   30.6010   47.6775 H   0  0  0  0  0  0  0  0  0  0  0  0
   61.1884   32.7628   46.6078 H   0  0  0  0  0  0  0  0  0  0  0  0
   56.9995   28.8381   46.4162 H   0  0  0  0  0  0  0  0  0  0  0  0
  1  2  1  0
  2  3  1  0
  3  4  1  0
  4  5  1  0
  5  6  1  0
  6  7  1  0
  7  8  1  0
  8  9  1  0
  9 10  2  0
  9 11  1  0
 11 12  1  0
 12 13  2  0
 13 14  1  0
 14 15  2  0
 15 16  1  0
 16 17  1  0
 17 18  1  0
 18 19  1  0
 18 20  1  0
 20 21  1  0
 21 22  1  0
 22 23  1  0
 23 24  1  0
 24 25  1  0
 25 26  2  0
 26 27  1  0
 27 28  2  0
 28 29  1  0
 29 30  2  0
 30 31  1  0
 31 32  2  0
 32 33  1  0
 33 34  1  0
 32 35  1  0
 35 36  2  0
 28 37  1  0
 37 38  2  0
 16 39  2  0
 39 12  1  0
 38 25  1  0
 36 29  1  0
  1 40  1  0
  1 41  1  0
  1 42  1  0
  2 43  1  0
  2 44  1  0
  3 45  1  0
  3 46  1  0
  4 47  1  0
  4 48  1  0
  5 49  1  0
  5 50  1  0
  6 51  1  0
  6 52  1  0
  7 53  1  0
  7 54  1  0
 13 55  1  0
 14 56  1  0
 15 57  1  0
 17 58  1  0
 17 59  1  0
 19 60  1  0
 19 61  1  0
 19 62  1  0
 20 63  1  0
 20 64  1  0
 21 65  1  0
 21 66  1  0
 22 67  1  0
 22 68  1  0
 23 69  1  0
 23 70  1  0
 26 71  1  0
 27 72  1  0
 30 73  1  0
 31 74  1  0
 34 75  1  0
 34 76  1  0
 34 77  1  0
 35 78  1  0
 36 79  1  0
 37 80  1  0
 38 81  1  0
 39 82  1  0
M  CHG  1   8  -1
M  END
>  <UniqueID>  (51) 
48

>  <SMILES>  (51) 
CCCCCCC[N-]C(=O)Oc1cccc(CN(C)CCCCOc2ccc(-c3ccc(OC)cc3)cc2)c1

>  <Energy>  (51) 
82.23402430009851

>  <Genealogy>  (51) 
CCCCCCC[N-]C(=O)Oc1cccc(CN(C)CCCCOc2ccc(-c3ccc(OC)cc3)cc2)c1 (protonated)
CCCCCCC[N-]C(=O)Oc1cccc(CN(C)CCCCOc2ccc(-c3ccc(OC)cc3)cc2)c1 (3D coordinates assigned)
CCCCCCC[N-]C(=O)Oc1cccc(CN(C)CCCCOc2ccc(-c3ccc(OC)cc3)cc2)c1 (optimized conformer: 82.23402430009851 kcal/mol)

>  <smiles>  (51) 
CCCCCCCNC(=O)Oc1cccc(CN(C)CCCCOc2ccc(-c3ccc(OC)cc3)cc2)c1

>  <score_type>  (51) 
oracle

>  <origin>  (51) 
adg

>  <m_score__min__energy>  (51) 
-10.07

>  <m_primary>  (51) 
energy

$$$$
51:0
     RDKit          3D

 52 54  0  0  0  0  0  0  0  0999 V2000
   58.5510   29.6720   44.4740 C   0  0  0  0  0  0  0  0  0  0  0  0
   57.1140   30.2370   44.4400 C   0  0  0  0  0  0  0  0  0  0  0  0
   56.7870   30.6710   43.0040 C   0  0  0  0  0  0  0  0  0  0  0  0
   57.0250   31.3970   45.2790 O   0  0  0  0  0  0  0  0  0  0  0  0
   58.1380   32.0860   45.7760 C   0  0  0  0  0  0  0  0  0  0  0  0
   58.4590   33.3470   45.2580 C   0  0  0  0  0  0  0  0  0  0  0  0
   59.5690   34.0450   45.7430 C   0  0  0  0  0  0  0  0  0  0  0  0
   60.3710   33.4900   46.7480 C   0  0  0  0  0  0  0  0  0  0  0  0
   61.4720   34.2220   47.2130 O   0  0  0  0  0  0  0  0  0  0  0  0
   62.4220   33.7650   48.1390 C   0  0  0  0  0  0  0  0  0  0  0  0
   62.4310   34.3220   49.4240 C   0  0  0  0  0  0  0  0  0  0  0  0
   63.3670   33.9010   50.3730 C   0  0  0  0  0  0  0  0  0  0  0  0
   64.3210   32.9250   50.0410 C   0  0  0  0  0  0  0  0  0  0  0  0
   65.3110   32.4430   51.0660 C   0  0  0  0  0  0  0  0  0  0  0  0
   65.4880   30.9960   50.9520 N   0  0  0  0  0  0  0  0  0  0  0  0
   66.7480   30.3540   51.2080 C   0  0  0  0  0  0  0  0  0  0  0  0
   67.7240   31.0400   51.6150 O   0  0  0  0  0  0  0  0  0  0  0  0
   66.9200   28.8920   51.0190 C   0  0  0  0  0  0  0  0  0  0  0  0
   67.9370   28.4080   50.1740 C   0  0  0  0  0  0  0  0  0  0  0  0
   68.1030   27.0330   49.9770 C   0  0  0  0  0  0  0  0  0  0  0  0
   67.2530   26.1270   50.6150 C   0  0  0  0  0  0  0  0  0  0  0  0
   66.2350   26.5950   51.4480 C   0  0  0  0  0  0  0  0  0  0  0  0
   66.0640   27.9690   51.6490 C   0  0  0  0  0  0  0  0  0  0  0  0
   64.3250   32.3800   48.7490 C   0  0  0  0  0  0  0  0  0  0  0  0
   63.3900   32.8020   47.8010 C   0  0  0  0  0  0  0  0  0  0  0  0
   60.0230   32.2410   47.2950 C   0  0  0  0  0  0  0  0  0  0  0  0
   58.9140   31.5420   46.8070 C   0  0  0  0  0  0  0  0  0  0  0  0
   56.0950   29.2050   44.8760 C   0  0  0  0  0  0  0  0  0  0  0  0
   56.4310   28.2080   45.5720 O   0  0  0  0  0  0  0  0  0  0  0  0
   54.7700   29.3360   44.4780 O   0  0  0  0  0  0  0  0  0  0  0  0
   58.8709   29.5462   45.5189 H   0  0  0  0  0  0  0  0  0  0  0  0
   58.5741   28.6978   43.9637 H   0  0  0  0  0  0  0  0  0  0  0  0
   59.2314   30.3695   43.9637 H   0  0  0  0  0  0  0  0  0  0  0  0
   56.1252   31.5493   43.0281 H   0  0  0  0  0  0  0  0  0  0  0  0
   57.7181   30.9278   42.4775 H   0  0  0  0  0  0  0  0  0  0  0  0
   56.2834   29.8468   42.4775 H   0  0  0  0  0  0  0  0  0  0  0  0
   57.8358   33.7896   44.4670 H   0  0  0  0  0  0  0  0  0  0  0  0
   59.8138   35.0359   45.3328 H   0  0  0  0  0  0  0  0  0  0  0  0
   61.6960   35.0965   49.6884 H   0  0  0  0  0  0  0  0  0  0  0  0
   63.3564   34.3356   51.3834 H   0  0  0  0  0  0  0  0  0  0  0  0
   66.2774   32.9419   50.9012 H   0  0  0  0  0  0  0  0  0  0  0  0
   64.9334   32.6815   52.0713 H   0  0  0  0  0  0  0  0  0  0  0  0
   64.6380   30.4220   50.7640 H   0  0  0  0  0  0  0  0  0  0  0  0
   68.6064   29.1168   49.6646 H   0  0  0  0  0  0  0  0  0  0  0  0
   68.9039   26.6650   49.3189 H   0  0  0  0  0  0  0  0  0  0  0  0
   67.3854   25.0459   50.4614 H   0  0  0  0  0  0  0  0  0  0  0  0
   65.5647   25.8806   51.9483 H   0  0  0  0  0  0  0  0  0  0  0  0
   65.2564   28.3299   52.3028 H   0  0  0  0  0  0  0  0  0  0  0  0
   65.0689   31.6155   48.4804 H   0  0  0  0  0  0  0  0  0  0  0  0
   63.4107   32.3794   46.7856 H   0  0  0  0  0  0  0  0  0  0  0  0
   60.6255   31.8127   48.1096 H   0  0  0  0  0  0  0  0  0  0  0  0
   58.6509   30.5630   47.2340 H   0  0  0  0  0  0  0  0  0  0  0  0
  1  2  1  0
  2  3  1  0
  2  4  1  0
  4  5  1  0
  5  6  2  0
  6  7  1  0
  7  8  2  0
  8  9  1  0
  9 10  1  0
 10 11  2  0
 11 12  1  0
 12 13  2  0
 13 14  1  0
 14 15  1  0
 15 16  1  0
 16 17  2  0
 16 18  1  0
 18 19  2  0
 19 20  1  0
 20 21  2  0
 21 22  1  0
 22 23  2  0
 13 24  1  0
 24 25  2  0
  8 26  1  0
 26 27  2  0
  2 28  1  0
 28 29  2  0
 28 30  1  0
 27  5  1  0
 25 10  1  0
 23 18  1  0
  1 31  1  0
  1 32  1  0
  1 33  1  0
  3 34  1  0
  3 35  1  0
  3 36  1  0
  6 37  1  0
  7 38  1  0
 11 39  1  0
 12 40  1  0
 14 41  1  0
 14 42  1  0
 15 43  1  0
 19 44  1  0
 20 45  1  0
 21 46  1  0
 22 47  1  0
 23 48  1  0
 24 49  1  0
 25 50  1  0
 26 51  1  0
 27 52  1  0
M  CHG  1  30  -1
M  END
>  <UniqueID>  (52) 
49

>  <SMILES>  (52) 
CC(C)(Oc1ccc(Oc2ccc(CNC(=O)c3ccccc3)cc2)cc1)C(=O)[O-]

>  <Energy>  (52) 
66.20813305758895

>  <Genealogy>  (52) 
CC(C)(Oc1ccc(Oc2ccc(CNC(=O)c3ccccc3)cc2)cc1)C(=O)[O-] (protonated)
CC(C)(Oc1ccc(Oc2ccc(CNC(=O)c3ccccc3)cc2)cc1)C(=O)[O-] (3D coordinates assigned)
CC(C)(Oc1ccc(Oc2ccc(CNC(=O)c3ccccc3)cc2)cc1)C(=O)[O-] (optimized conformer: 66.20813305758895 kcal/mol)

>  <smiles>  (52) 
CC(C)(Oc1ccc(Oc2ccc(CNC(=O)c3ccccc3)cc2)cc1)C(=O)O

>  <score_type>  (52) 
oracle

>  <origin>  (52) 
adg

>  <m_score__min__energy>  (52) 
-11.279999999999999

>  <m_primary>  (52) 
energy

$$$$
52:0
     RDKit          3D

 45 48  0  0  0  0  0  0  0  0999 V2000
   55.6180   26.9540   45.9300 O   0  0  0  0  0  0  0  0  0  0  0  0
   56.8470   27.1250   45.7060 C   0  0  0  0  0  0  0  0  0  0  0  0
   57.8360   26.3380   46.3910 N   0  0  0  0  0  0  0  0  0  0  0  0
   58.4860   25.3060   45.9320 C   0  0  0  0  0  0  0  0  0  0  0  0
   57.8620   24.2000   45.1780 C   0  0  0  0  0  0  0  0  0  0  0  0
   57.2950   24.4180   43.8940 C   0  0  0  0  0  0  0  0  0  0  0  0
   56.6610   23.3670   43.2050 C   0  0  0  0  0  0  0  0  0  0  0  0
   56.5900   22.1290   43.8340 C   0  0  0  0  0  0  0  0  0  0  0  0
   57.1050   21.9210   45.0720 C   0  0  0  0  0  0  0  0  0  0  0  0
   57.7420   22.9330   45.7870 C   0  0  0  0  0  0  0  0  0  0  0  0
   56.8830   20.6110   45.4490 O   0  0  0  0  0  0  0  0  0  0  0  0
   56.1840   19.9540   44.3810 C   0  0  0  0  0  0  0  0  0  0  0  0
   56.0180   20.9590   43.3700 O   0  0  0  0  0  0  0  0  0  0  0  0
   57.2900   28.1450   44.6910 C   0  0  2  0  0  0  0  0  0  0  0  0
   58.5040   27.6430   43.9110 C   0  0  0  0  0  0  0  0  0  0  0  0
   59.6990   28.3700   44.4940 C   0  0  0  0  0  0  0  0  0  0  0  0
   59.1380   29.3630   45.5030 C   0  0  0  0  0  0  0  0  0  0  0  0
   57.6750   29.3870   45.3780 N   0  0  0  0  0  0  0  0  0  0  0  0
   57.1440   30.7970   44.4840 S   0  0  0  0  0  0  0  0  0  0  0  0
   57.5810   30.6670   43.0510 O   0  0  0  0  0  0  0  0  0  0  0  0
   55.6420   30.8650   44.5060 O   0  0  0  0  0  0  0  0  0  0  0  0
   57.8010   32.2890   45.1620 C   0  0  0  0  0  0  0  0  0  0  0  0
   58.0660   33.3880   44.3300 C   0  0  0  0  0  0  0  0  0  0  0  0
   58.6120   34.5590   44.8640 C   0  0  0  0  0  0  0  0  0  0  0  0
   58.8910   34.6400   46.2320 C   0  0  0  0  0  0  0  0  0  0  0  0
   58.6210   33.5520   47.0680 C   0  0  0  0  0  0  0  0  0  0  0  0
   58.0740   32.3800   46.5360 C   0  0  0  0  0  0  0  0  0  0  0  0
   59.5690   25.2554   46.1181 H   0  0  0  0  0  0  0  0  0  0  0  0
   57.3518   25.4158   43.4346 H   0  0  0  0  0  0  0  0  0  0  0  0
   56.2358   23.5200   42.2021 H   0  0  0  0  0  0  0  0  0  0  0  0
   58.1395   22.7497   46.7962 H   0  0  0  0  0  0  0  0  0  0  0  0
   56.7746   19.1106   43.9940 H   0  0  0  0  0  0  0  0  0  0  0  0
   55.2206   19.5391   44.7123 H   0  0  0  0  0  0  0  0  0  0  0  0
   56.4536   28.3222   43.9988 H   0  0  0  0  0  0  0  0  0  0  0  0
   58.6178   26.5562   44.0373 H   0  0  0  0  0  0  0  0  0  0  0  0
   58.4000   27.8348   42.8328 H   0  0  0  0  0  0  0  0  0  0  0  0
   60.3728   27.6580   44.9931 H   0  0  0  0  0  0  0  0  0  0  0  0
   60.2815   28.8780   43.7113 H   0  0  0  0  0  0  0  0  0  0  0  0
   59.4173   29.0537   46.5210 H   0  0  0  0  0  0  0  0  0  0  0  0
   59.5468   30.3655   45.3087 H   0  0  0  0  0  0  0  0  0  0  0  0
   57.8434   33.3277   43.2545 H   0  0  0  0  0  0  0  0  0  0  0  0
   58.8222   35.4167   44.2081 H   0  0  0  0  0  0  0  0  0  0  0  0
   59.3234   35.5606   46.6509 H   0  0  0  0  0  0  0  0  0  0  0  0
   58.8389   33.6180   48.1442 H   0  0  0  0  0  0  0  0  0  0  0  0
   57.8571   31.5271   47.1960 H   0  0  0  0  0  0  0  0  0  0  0  0
  1  2  2  0
  2  3  1  0
  3  4  2  3
  4  5  1  0
  5  6  2  0
  6  7  1  0
  7  8  2  0
  8  9  1  0
  9 10  2  0
  9 11  1  0
 11 12  1  0
 12 13  1  0
  2 14  1  0
 14 15  1  0
 15 16  1  0
 16 17  1  0
 17 18  1  0
 18 19  1  0
 19 20  2  0
 19 21  2  0
 19 22  1  0
 22 23  2  0
 23 24  1  0
 24 25  2  0
 25 26  1  0
 26 27  2  0
 10  5  1  0
 18 14  1  0
 27 22  1  0
 13  8  1  0
  4 28  1  0
  6 29  1  0
  7 30  1  0
 10 31  1  0
 12 32  1  0
 12 33  1  0
 14 34  1  6
 15 35  1  0
 15 36  1  0
 16 37  1  0
 16 38  1  0
 17 39  1  0
 17 40  1  0
 23 41  1  0
 24 42  1  0
 25 43  1  0
 26 44  1  0
 27 45  1  0
M  END
>  <UniqueID>  (53) 
50

>  <SMILES>  (53) 
O=C(N=Cc1ccc2c(c1)OCO2)[C@@H]1CCCN1S(=O)(=O)c1ccccc1

>  <Energy>  (53) 
85.52946569888026

>  <Genealogy>  (53) 
O=C(N=Cc1ccc2c(c1)OCO2)[C@@H]1CCCN1S(=O)(=O)c1ccccc1 (chirality)
O=C(N=Cc1ccc2c(c1)OCO2)[C@@H]1CCCN1S(=O)(=O)c1ccccc1 (3D coordinates assigned)
O=C(N=Cc1ccc2c(c1)OCO2)[C@@H]1CCCN1S(=O)(=O)c1ccccc1 (nonaromatic ring conformer: 85.52946569888026 kcal/mol)

>  <smiles>  (53) 
O=C(N=Cc1ccc2c(c1)OCO2)C1CCCN1S(=O)(=O)c1ccccc1

>  <score_type>  (53) 
oracle

>  <origin>  (53) 
adg

>  <m_score__min__energy>  (53) 
-9.5

>  <m_primary>  (53) 
energy

$$$$
53:0
     RDKit          3D

 45 47  0  0  0  0  0  0  0  0999 V2000
   65.3220   33.2940   49.8220 C   0  0  0  0  0  0  0  0  0  0  0  0
   64.0410   32.6640   49.3810 C   0  0  0  0  0  0  0  0  0  0  0  0
   63.3000   32.1090   50.2360 O   0  0  0  0  0  0  0  0  0  0  0  0
   63.7130   32.6120   47.9840 N   0  0  0  0  0  0  0  0  0  0  0  0
   62.4370   32.1960   47.4680 C   0  0  0  0  0  0  0  0  0  0  0  0
   61.5370   33.1160   46.9050 C   0  0  0  0  0  0  0  0  0  0  0  0
   60.3120   32.6840   46.3880 C   0  0  0  0  0  0  0  0  0  0  0  0
   59.9640   31.3200   46.4140 C   0  0  0  0  0  0  0  0  0  0  0  0
   58.6720   30.8370   45.8630 C   0  0  0  0  0  0  0  0  0  0  0  0
   57.7080   31.7140   45.3430 C   0  0  0  0  0  0  0  0  0  0  0  0
   56.5430   31.2160   44.8560 N   0  0  0  0  0  0  0  0  0  0  0  0
   56.2760   29.8830   44.8560 C   0  0  0  0  0  0  0  0  0  0  0  0
   55.1510   29.4580   44.3740 N   0  0  0  0  0  0  0  0  0  0  0  0
   57.2330   28.9900   45.3880 C   0  0  0  0  0  0  0  0  0  0  0  0
   57.0390   27.5230   45.4440 C   0  0  0  0  0  0  0  0  0  0  0  0
   57.9710   26.7350   45.1260 O   0  0  0  0  0  0  0  0  0  0  0  0
   55.7540   27.0060   45.8150 N   0  0  0  0  0  0  0  0  0  0  0  0
   55.3900   25.6230   45.9420 C   0  0  0  0  0  0  0  0  0  0  0  0
   56.3680   24.7070   46.3480 C   0  0  0  0  0  0  0  0  0  0  0  0
   56.0620   23.3470   46.4640 C   0  0  0  0  0  0  0  0  0  0  0  0
   54.7740   22.8870   46.1640 C   0  0  0  0  0  0  0  0  0  0  0  0
   54.3870   21.1750   46.2940 S   0  0  0  0  0  0  0  0  0  0  0  0
   52.7200   20.9180   45.9120 N   0  0  0  0  0  0  0  0  0  0  0  0
   54.6390   20.6970   47.6970 O   0  0  0  0  0  0  0  0  0  0  0  0
   55.2460   20.3940   45.3400 O   0  0  0  0  0  0  0  0  0  0  0  0
   53.8000   23.7950   45.7280 C   0  0  0  0  0  0  0  0  0  0  0  0
   54.1050   25.1550   45.6120 C   0  0  0  0  0  0  0  0  0  0  0  0
   58.3960   29.5050   45.8720 N   0  0  0  0  0  0  0  0  0  0  0  0
   60.8850   30.4000   46.9470 C   0  0  0  0  0  0  0  0  0  0  0  0
   62.1080   30.8350   47.4640 C   0  0  0  0  0  0  0  0  0  0  0  0
   65.3617   33.3135   50.9211 H   0  0  0  0  0  0  0  0  0  0  0  0
   66.1701   32.7102   49.4348 H   0  0  0  0  0  0  0  0  0  0  0  0
   65.3773   34.3221   49.4348 H   0  0  0  0  0  0  0  0  0  0  0  0
   64.4760   32.8170   47.2990 H   0  0  0  0  0  0  0  0  0  0  0  0
   61.7980   34.1840   46.8707 H   0  0  0  0  0  0  0  0  0  0  0  0
   59.6137   33.4165   45.9570 H   0  0  0  0  0  0  0  0  0  0  0  0
   57.8951   32.7979   45.3301 H   0  0  0  0  0  0  0  0  0  0  0  0
   54.8360   28.4710   44.5070 H   0  0  0  0  0  0  0  0  0  0  0  0
   57.3844   25.0594   46.5774 H   0  0  0  0  0  0  0  0  0  0  0  0
   56.8355   22.6369   46.7918 H   0  0  0  0  0  0  0  0  0  0  0  0
   52.6920   20.3290   45.0500 H   0  0  0  0  0  0  0  0  0  0  0  0
   52.7910   23.4366   45.4758 H   0  0  0  0  0  0  0  0  0  0  0  0
   53.3377   25.8610   45.2616 H   0  0  0  0  0  0  0  0  0  0  0  0
   60.6400   29.3277   46.9569 H   0  0  0  0  0  0  0  0  0  0  0  0
   62.8190   30.1014   47.8717 H   0  0  0  0  0  0  0  0  0  0  0  0
  1  2  1  0
  2  3  2  0
  2  4  1  0
  4  5  1  0
  5  6  2  0
  6  7  1  0
  7  8  2  0
  8  9  1  0
  9 10  2  0
 10 11  1  0
 11 12  1  0
 12 13  2  3
 12 14  1  0
 14 15  1  0
 15 16  2  0
 15 17  1  0
 17 18  1  0
 18 19  2  0
 19 20  1  0
 20 21  2  0
 21 22  1  0
 22 23  1  0
 22 24  2  0
 22 25  2  0
 21 26  1  0
 26 27  2  0
 14 28  2  0
  8 29  1  0
 29 30  2  0
 30  5  1  0
 28  9  1  0
 27 18  1  0
  1 31  1  0
  1 32  1  0
  1 33  1  0
  4 34  1  0
  6 35  1  0
  7 36  1  0
 10 37  1  0
 13 38  1  0
 19 39  1  0
 20 40  1  0
 23 41  1  0
 26 42  1  0
 27 43  1  0
 29 44  1  0
 30 45  1  0
M  CHG  3  11  -1  17  -1  23  -1
M  END
>  <UniqueID>  (54) 
51

>  <SMILES>  (54) 
CC(=O)Nc1ccc(-c2c[n-]c(=N)c(C(=O)[N-]c3ccc(S([NH-])(=O)=O)cc3)n2)cc1

>  <Energy>  (54) 
59.819568096619854

>  <Genealogy>  (54) 
CC(=O)Nc1ccc(-c2c[n-]c(=N)c(C(=O)[N-]c3ccc(S([NH-])(=O)=O)cc3)n2)cc1 (protonated)
CC(=O)Nc1ccc(-c2c[n-]c(=N)c(C(=O)[N-]c3ccc(S([NH-])(=O)=O)cc3)n2)cc1 (3D coordinates assigned)
CC(=O)Nc1ccc(-c2c[n-]c(=N)c(C(=O)[N-]c3ccc(S([NH-])(=O)=O)cc3)n2)cc1 (optimized conformer: 59.819568096619854 kcal/mol)

>  <smiles>  (54) 
CC(=O)Nc1ccc(-c2c[nH]c(=N)c(C(=O)Nc3ccc(S(N)(=O)=O)cc3)n2)cc1

>  <score_type>  (54) 
oracle

>  <origin>  (54) 
adg

>  <m_score__min__energy>  (54) 
-12.98

>  <m_primary>  (54) 
energy

$$$$
54:0
     RDKit          3D

 64 68  0  0  0  0  0  0  0  0999 V2000
   61.9660   32.3380   47.3980 C   0  0  0  0  0  0  0  0  0  0  0  0
   61.6110   31.2290   48.3430 C   0  0  0  0  0  0  0  0  0  0  0  0
   61.6700   31.4350   49.7290 C   0  0  0  0  0  0  0  0  0  0  0  0
   61.2910   30.4170   50.6090 C   0  0  0  0  0  0  0  0  0  0  0  0
   60.8410   29.1910   50.1110 C   0  0  0  0  0  0  0  0  0  0  0  0
   60.7650   28.9790   48.7280 C   0  0  0  0  0  0  0  0  0  0  0  0
   60.1430   27.4610   48.0930 S   0  0  0  0  0  0  0  0  0  0  0  0
   61.0610   26.9540   47.0150 O   0  0  0  0  0  0  0  0  0  0  0  0
   60.0740   26.4230   49.1800 O   0  0  0  0  0  0  0  0  0  0  0  0
   58.5670   27.7200   47.4150 N   0  0  0  0  0  0  0  0  0  0  0  0
   58.2850   28.6430   46.5430 C   0  0  0  0  0  0  0  0  0  0  0  0
   58.5110   29.9510   46.8470 N   0  0  0  0  0  0  0  0  0  0  0  0
   58.1600   30.9550   46.0060 C   0  0  0  0  0  0  0  0  0  0  0  0
   58.4090   32.2890   46.3430 C   0  0  0  0  0  0  0  0  0  0  0  0
   58.0280   33.3100   45.4660 C   0  0  0  0  0  0  0  0  0  0  0  0
   57.3980   32.9990   44.2550 C   0  0  0  0  0  0  0  0  0  0  0  0
   57.1460   31.6650   43.9170 C   0  0  0  0  0  0  0  0  0  0  0  0
   57.5280   30.6420   44.7910 C   0  0  0  0  0  0  0  0  0  0  0  0
   57.3070   29.3410   44.4750 N   0  0  0  0  0  0  0  0  0  0  0  0
   57.6840   28.3200   45.2920 C   0  0  0  0  0  0  0  0  0  0  0  0
   57.4610   27.1010   44.8780 N   0  0  0  0  0  0  0  0  0  0  0  0
   57.4770   25.8850   45.6400 C   0  0  0  0  0  0  0  0  0  0  0  0
   56.7380   25.8010   46.8240 C   0  0  0  0  0  0  0  0  0  0  0  0
   56.7160   24.6090   47.5510 C   0  0  0  0  0  0  0  0  0  0  0  0
   57.4030   23.4820   47.0870 C   0  0  0  0  0  0  0  0  0  0  0  0
   57.3940   22.3290   47.8630 O   0  0  0  0  0  0  0  0  0  0  0  0
   58.1070   23.5370   45.8620 C   0  0  0  0  0  0  0  0  0  0  0  0
   58.8190   22.3600   45.2980 C   0  0  0  0  0  0  0  0  0  0  0  0
   60.0800   22.3860   45.2600 O   0  0  0  0  0  0  0  0  0  0  0  0
   58.1010   21.2390   44.7170 N   0  0  0  0  0  0  0  0  0  0  0  0
   57.7960   21.4750   43.2870 C   0  0  0  0  0  0  0  0  0  0  0  0
   56.6840   22.5280   43.0640 C   0  0  0  0  0  0  0  0  0  0  0  0
   55.8210   22.7080   44.2500 N   0  0  0  0  0  0  0  0  0  0  0  0
   54.5470   23.3390   43.8690 C   0  0  0  0  0  0  0  0  0  0  0  0
   55.5800   21.4240   44.9200 C   0  0  0  0  0  0  0  0  0  0  0  0
   56.8960   20.8860   45.5160 C   0  0  0  0  0  0  0  0  0  0  0  0
   58.1410   24.7500   45.1520 C   0  0  0  0  0  0  0  0  0  0  0  0
   61.1440   30.0010   47.8470 C   0  0  0  0  0  0  0  0  0  0  0  0
   62.2520   33.2316   47.9722 H   0  0  0  0  0  0  0  0  0  0  0  0
   62.8086   32.0241   46.7643 H   0  0  0  0  0  0  0  0  0  0  0  0
   61.0978   32.5718   46.7643 H   0  0  0  0  0  0  0  0  0  0  0  0
   62.0158   32.4012   50.1251 H   0  0  0  0  0  0  0  0  0  0  0  0
   61.3470   30.5811   51.6952 H   0  0  0  0  0  0  0  0  0  0  0  0
   60.5460   28.3911   50.8061 H   0  0  0  0  0  0  0  0  0  0  0  0
   58.9029   32.5348   47.2947 H   0  0  0  0  0  0  0  0  0  0  0  0
   58.2239   34.3601   45.7285 H   0  0  0  0  0  0  0  0  0  0  0  0
   57.1006   33.8050   43.5680 H   0  0  0  0  0  0  0  0  0  0  0  0
   56.6488   31.4213   42.9665 H   0  0  0  0  0  0  0  0  0  0  0  0
   56.1737   26.6743   47.1829 H   0  0  0  0  0  0  0  0  0  0  0  0
   56.1544   24.5557   48.4954 H   0  0  0  0  0  0  0  0  0  0  0  0
   58.7270   20.4000   44.7560 H   0  0  0  0  0  0  0  0  0  0  0  0
   58.7120   21.8234   42.7875 H   0  0  0  0  0  0  0  0  0  0  0  0
   57.4326   20.5241   42.8701 H   0  0  0  0  0  0  0  0  0  0  0  0
   57.1558   23.4920   42.8229 H   0  0  0  0  0  0  0  0  0  0  0  0
   56.0473   22.1689   42.2420 H   0  0  0  0  0  0  0  0  0  0  0  0
   53.9891   23.6153   44.7758 H   0  0  0  0  0  0  0  0  0  0  0  0
   54.7485   24.2415   43.2732 H   0  0  0  0  0  0  0  0  0  0  0  0
   53.9513   22.6318   43.2732 H   0  0  0  0  0  0  0  0  0  0  0  0
   54.8458   21.5661   45.7267 H   0  0  0  0  0  0  0  0  0  0  0  0
   55.1930   20.7009   44.1870 H   0  0  0  0  0  0  0  0  0  0  0  0
   57.0153   21.3021   46.5273 H   0  0  0  0  0  0  0  0  0  0  0  0
   56.8227   19.7885   45.5207 H   0  0  0  0  0  0  0  0  0  0  0  0
   58.6945   24.8096   44.2033 H   0  0  0  0  0  0  0  0  0  0  0  0
   61.0753   29.8403   46.7610 H   0  0  0  0  0  0  0  0  0  0  0  0
  1  2  1  0
  2  3  2  0
  3  4  1  0
  4  5  2  0
  5  6  1  0
  6  7  1  0
  7  8  2  0
  7  9  2  0
  7 10  1  0
 10 11  2  3
 11 12  1  0
 12 13  1  0
 13 14  2  0
 14 15  1  0
 15 16  2  0
 16 17  1  0
 17 18  2  0
 18 19  1  0
 19 20  1  0
 20 21  2  3
 21 22  1  0
 22 23  2  0
 23 24  1  0
 24 25  2  0
 25 26  1  0
 25 27  1  0
 27 28  1  0
 28 29  2  0
 28 30  1  0
 30 31  1  0
 31 32  1  0
 32 33  1  0
 33 34  1  0
 33 35  1  0
 35 36  1  0
 27 37  2  0
  6 38  2  0
 38  2  1  0
 20 11  1  0
 37 22  1  0
 18 13  1  0
 36 30  1  0
  1 39  1  0
  1 40  1  0
  1 41  1  0
  3 42  1  0
  4 43  1  0
  5 44  1  0
 14 45  1  0
 15 46  1  0
 16 47  1  0
 17 48  1  0
 23 49  1  0
 24 50  1  0
 30 51  1  0
 31 52  1  0
 31 53  1  0
 32 54  1  0
 32 55  1  0
 34 56  1  0
 34 57  1  0
 34 58  1  0
 35 59  1  0
 35 60  1  0
 36 61  1  0
 36 62  1  0
 37 63  1  0
 38 64  1  0
M  CHG  4  12  -1  19  -1  26  -1  30   1
M  END
>  <UniqueID>  (55) 
52

>  <SMILES>  (55) 
Cc1cccc(S(=O)(=O)N=c2[n-]c3ccccc3[n-]c2=Nc2ccc([O-])c(C(=O)[NH+]3CCN(C)CC3)c2)c1

>  <Energy>  (55) 
103.36695995214684

>  <Genealogy>  (55) 
Cc1cccc(S(=O)(=O)N=c2[n-]c3ccccc3[n-]c2=Nc2ccc([O-])c(C(=O)[NH+]3CCN(C)CC3)c2)c1 (protonated)
Cc1cccc(S(=O)(=O)N=c2[n-]c3ccccc3[n-]c2=Nc2ccc([O-])c(C(=O)[NH+]3CCN(C)CC3)c2)c1 (3D coordinates assigned)
Cc1cccc(S(=O)(=O)N=c2[n-]c3ccccc3[n-]c2=Nc2ccc([O-])c(C(=O)[NH+]3CCN(C)CC3)c2)c1 (nonaromatic ring conformer: 103.36695995214684 kcal/mol)

>  <smiles>  (55) 
Cc1cccc(S(=O)(=O)N=c2[nH]c3ccccc3[nH]c2=Nc2ccc(O)c(C(=O)N3CCN(C)CC3)c2)c1

>  <score_type>  (55) 
oracle

>  <origin>  (55) 
adg

>  <m_score__min__energy>  (55) 
-12.789999999999999

>  <m_primary>  (55) 
energy

$$$$
55:0
     RDKit          3D

 37 40  0  0  0  0  0  0  0  0999 V2000
   53.8320   22.9090   44.7850 O   0  0  0  0  0  0  0  0  0  0  0  0
   54.6130   23.8140   45.1680 C   0  0  0  0  0  0  0  0  0  0  0  0
   54.1520   25.0260   45.5750 N   0  0  0  0  0  0  0  0  0  0  0  0
   54.9620   25.9880   45.9830 N   0  0  0  0  0  0  0  0  0  0  0  0
   56.2800   25.8180   46.0160 C   0  0  0  0  0  0  0  0  0  0  0  0
   57.2530   26.8420   46.4570 C   0  0  0  0  0  0  0  0  0  0  0  0
   57.0130   28.1810   45.8910 C   0  0  0  0  0  0  0  0  0  0  0  0
   57.8940   29.2080   46.0530 N   0  0  0  0  0  0  0  0  0  0  0  0
   57.4100   30.2920   45.4310 C   0  0  0  0  0  0  0  0  0  0  0  0
   58.0500   31.6060   45.3660 C   0  0  0  0  0  0  0  0  0  0  0  0
   57.5320   32.6430   44.5980 C   0  0  0  0  0  0  0  0  0  0  0  0
   58.1600   33.8830   44.5530 C   0  0  0  0  0  0  0  0  0  0  0  0
   59.3170   34.1240   45.2680 C   0  0  0  0  0  0  0  0  0  0  0  0
   59.8310   33.0900   46.0310 C   0  0  0  0  0  0  0  0  0  0  0  0
   59.2020   31.8440   46.0780 C   0  0  0  0  0  0  0  0  0  0  0  0
   56.2000   29.9500   44.8630 C   0  0  0  0  0  0  0  0  0  0  0  0
   55.9710   28.6410   45.1580 N   0  0  0  0  0  0  0  0  0  0  0  0
   56.8080   24.5920   45.6090 C   0  0  0  0  0  0  0  0  0  0  0  0
   58.1620   24.3590   45.6220 C   0  0  0  0  0  0  0  0  0  0  0  0
   58.7190   23.1470   45.2230 C   0  0  0  0  0  0  0  0  0  0  0  0
   57.8490   22.1500   44.7980 C   0  0  0  0  0  0  0  0  0  0  0  0
   56.4860   22.3570   44.7750 C   0  0  0  0  0  0  0  0  0  0  0  0
   55.9760   23.5790   45.1810 C   0  0  0  0  0  0  0  0  0  0  0  0
   53.1160   25.1660   45.5510 H   0  0  0  0  0  0  0  0  0  0  0  0
   57.2038   26.9162   47.5534 H   0  0  0  0  0  0  0  0  0  0  0  0
   58.2408   26.5175   46.0979 H   0  0  0  0  0  0  0  0  0  0  0  0
   56.6119   32.4801   44.0175 H   0  0  0  0  0  0  0  0  0  0  0  0
   57.7279   34.6857   43.9374 H   0  0  0  0  0  0  0  0  0  0  0  0
   59.8133   35.1050   45.2322 H   0  0  0  0  0  0  0  0  0  0  0  0
   60.7515   33.2525   46.6108 H   0  0  0  0  0  0  0  0  0  0  0  0
   59.6344   31.0414   46.6935 H   0  0  0  0  0  0  0  0  0  0  0  0
   55.5427   30.6120   44.2802 H   0  0  0  0  0  0  0  0  0  0  0  0
   55.1450   28.0820   44.8760 H   0  0  0  0  0  0  0  0  0  0  0  0
   58.8327   25.1621   45.9612 H   0  0  0  0  0  0  0  0  0  0  0  0
   59.8068   22.9846   45.2434 H   0  0  0  0  0  0  0  0  0  0  0  0
   58.2544   21.1799   44.4747 H   0  0  0  0  0  0  0  0  0  0  0  0
   55.8094   21.5583   44.4370 H   0  0  0  0  0  0  0  0  0  0  0  0
  1  2  2  0
  2  3  1  0
  3  4  1  0
  4  5  2  0
  5  6  1  0
  6  7  1  0
  7  8  2  0
  8  9  1  0
  9 10  1  0
 10 11  2  0
 11 12  1  0
 12 13  2  0
 13 14  1  0
 14 15  2  0
  9 16  2  0
 16 17  1  0
  5 18  1  0
 18 19  2  0
 19 20  1  0
 20 21  2  0
 21 22  1  0
 22 23  2  0
 23  2  1  0
 17  7  1  0
 23 18  1  0
 15 10  1  0
  3 24  1  0
  6 25  1  0
  6 26  1  0
 11 27  1  0
 12 28  1  0
 13 29  1  0
 14 30  1  0
 15 31  1  0
 16 32  1  0
 17 33  1  0
 19 34  1  0
 20 35  1  0
 21 36  1  0
 22 37  1  0
M  END
>  <smiles>  (56) 
O=c1[nH]nc(Cc2nc(-c3ccccc3)c[nH]2)c2ccccc12

>  <score_type>  (56) 
oracle

>  <origin>  (56) 
adg

>  <m_score__min__energy>  (56) 
-8.6799999999999997

>  <m_primary>  (56) 
energy

$$$$
56:0
     RDKit          3D

 43 45  0  0  0  0  0  0  0  0999 V2000
   62.2550   31.2610   47.5950 C   0  0  0  0  0  0  0  0  0  0  0  0
   60.8210   30.9100   47.8540 C   0  0  0  0  0  0  0  0  0  0  0  0
   60.2130   31.5130   48.7810 O   0  0  0  0  0  0  0  0  0  0  0  0
   60.1330   29.9130   47.0660 N   0  0  0  0  0  0  0  0  0  0  0  0
   60.4830   29.7080   45.6570 C   0  0  0  0  0  0  0  0  0  0  0  0
   60.2490   28.2510   45.2400 C   0  0  0  0  0  0  0  0  0  0  0  0
   58.9410   27.7230   45.6720 N   0  0  0  0  0  0  0  0  0  0  0  0
   57.8340   27.8090   44.6950 C   0  0  0  0  0  0  0  0  0  0  0  0
   57.3830   29.2130   44.4350 C   0  0  0  0  0  0  0  0  0  0  0  0
   58.1050   30.1400   43.7850 N   0  0  0  0  0  0  0  0  0  0  0  0
   57.3280   31.2340   43.8780 C   0  0  0  0  0  0  0  0  0  0  0  0
   57.7860   32.6100   43.5150 C   0  0  0  0  0  0  0  0  0  0  0  0
   58.2460   33.3210   44.7580 C   0  0  0  0  0  0  0  0  0  0  0  0
   57.7550   32.9330   46.0160 C   0  0  0  0  0  0  0  0  0  0  0  0
   58.2430   33.5350   47.1800 C   0  0  0  0  0  0  0  0  0  0  0  0
   59.2270   34.5230   47.0970 C   0  0  0  0  0  0  0  0  0  0  0  0
   59.7300   34.9060   45.8510 C   0  0  0  0  0  0  0  0  0  0  0  0
   59.2450   34.3050   44.6840 C   0  0  0  0  0  0  0  0  0  0  0  0
   56.1810   30.9780   44.5400 N   0  0  0  0  0  0  0  0  0  0  0  0
   56.2470   29.7180   44.8550 O   0  0  0  0  0  0  0  0  0  0  0  0
   58.5960   27.9790   47.0850 C   0  0  0  0  0  0  0  0  0  0  0  0
   58.8160   29.4390   47.5030 C   0  0  0  0  0  0  0  0  0  0  0  0
   62.7799   31.3895   48.5531 H   0  0  0  0  0  0  0  0  0  0  0  0
   62.7323   30.4532   47.0209 H   0  0  0  0  0  0  0  0  0  0  0  0
   62.3052   32.1980   47.0209 H   0  0  0  0  0  0  0  0  0  0  0  0
   59.8607   30.3655   45.0322 H   0  0  0  0  0  0  0  0  0  0  0  0
   61.5487   29.9447   45.5222 H   0  0  0  0  0  0  0  0  0  0  0  0
   60.3058   28.1884   44.1433 H   0  0  0  0  0  0  0  0  0  0  0  0
   61.0236   27.6434   45.7307 H   0  0  0  0  0  0  0  0  0  0  0  0
   58.1714   27.3688   43.7450 H   0  0  0  0  0  0  0  0  0  0  0  0
   56.9786   27.2652   45.1223 H   0  0  0  0  0  0  0  0  0  0  0  0
   59.0600   30.0510   43.3710 H   0  0  0  0  0  0  0  0  0  0  0  0
   58.6187   32.5439   42.7992 H   0  0  0  0  0  0  0  0  0  0  0  0
   56.9561   33.1671   43.0558 H   0  0  0  0  0  0  0  0  0  0  0  0
   56.9833   32.1522   46.0855 H   0  0  0  0  0  0  0  0  0  0  0  0
   57.8517   33.2303   48.1618 H   0  0  0  0  0  0  0  0  0  0  0  0
   59.6060   34.9997   48.0130 H   0  0  0  0  0  0  0  0  0  0  0  0
   60.5082   35.6809   45.7873 H   0  0  0  0  0  0  0  0  0  0  0  0
   59.6478   34.6045   43.7052 H   0  0  0  0  0  0  0  0  0  0  0  0
   57.5363   27.7269   47.2379 H   0  0  0  0  0  0  0  0  0  0  0  0
   59.2604   27.3571   47.7029 H   0  0  0  0  0  0  0  0  0  0  0  0
   58.0369   30.0664   47.0455 H   0  0  0  0  0  0  0  0  0  0  0  0
   58.7643   29.5033   48.5999 H   0  0  0  0  0  0  0  0  0  0  0  0
  1  2  1  0
  2  3  2  0
  2  4  1  0
  4  5  1  0
  5  6  1  0
  6  7  1  0
  7  8  1  0
  8  9  1  0
  9 10  2  0
 10 11  1  0
 11 12  1  0
 12 13  1  0
 13 14  2  0
 14 15  1  0
 15 16  2  0
 16 17  1  0
 17 18  2  0
 11 19  2  0
 19 20  1  0
  7 21  1  0
 21 22  1  0
 22  4  1  0
 20  9  1  0
 18 13  1  0
  1 23  1  0
  1 24  1  0
  1 25  1  0
  5 26  1  0
  5 27  1  0
  6 28  1  0
  6 29  1  0
  8 30  1  0
  8 31  1  0
 10 32  1  0
 12 33  1  0
 12 34  1  0
 14 35  1  0
 15 36  1  0
 16 37  1  0
 17 38  1  0
 18 39  1  0
 21 40  1  0
 21 41  1  0
 22 42  1  0
 22 43  1  0
M  CHG  1  10   1
M  END
>  <UniqueID>  (57) 
53

>  <SMILES>  (57) 
CC(=O)N1CCN(Cc2[nH+]c(Cc3ccccc3)no2)CC1

>  <Energy>  (57) 
80.87825159603803

>  <Genealogy>  (57) 
CC(=O)N1CCN(Cc2[nH+]c(Cc3ccccc3)no2)CC1 (protonated)
CC(=O)N1CCN(Cc2[nH+]c(Cc3ccccc3)no2)CC1 (3D coordinates assigned)
CC(=O)N1CCN(Cc2[nH+]c(Cc3ccccc3)no2)CC1 (nonaromatic ring conformer: 80.87825159603803 kcal/mol)

>  <smiles>  (57) 
CC(=O)N1CCN(Cc2nc(Cc3ccccc3)no2)CC1

>  <score_type>  (57) 
oracle

>  <origin>  (57) 
adg

>  <m_score__min__energy>  (57) 
-6.8099999999999996

>  <m_primary>  (57) 
energy

$$$$
57:0
     RDKit          3D

 42 44  0  0  0  0  0  0  0  0999 V2000
   59.4420   34.7430   45.6370 C   0  0  0  0  0  0  0  0  0  0  0  0
   58.7280   33.4470   45.3890 C   0  0  0  0  0  0  0  0  0  0  0  0
   58.0750   33.2220   44.1690 C   0  0  0  0  0  0  0  0  0  0  0  0
   57.4410   32.0000   43.9240 C   0  0  0  0  0  0  0  0  0  0  0  0
   57.4500   30.9900   44.8950 C   0  0  0  0  0  0  0  0  0  0  0  0
   56.6250   29.4620   44.5800 S   0  0  0  0  0  0  0  0  0  0  0  0
   55.1460   29.7200   44.6480 O   0  0  0  0  0  0  0  0  0  0  0  0
   56.9360   28.9890   43.1870 O   0  0  0  0  0  0  0  0  0  0  0  0
   57.0090   28.2130   45.7470 N   0  0  0  0  0  0  0  0  0  0  0  0
   57.8560   27.0970   45.2790 C   0  0  1  0  0  0  0  0  0  0  0  0
   59.1730   27.5420   44.6260 C   0  0  0  0  0  0  0  0  0  0  0  0
   58.0730   26.0360   46.3820 C   0  0  0  0  0  0  0  0  0  0  0  0
   58.5120   24.7210   45.8000 C   0  0  0  0  0  0  0  0  0  0  0  0
   59.7640   24.1330   45.9540 C   0  0  0  0  0  0  0  0  0  0  0  0
   59.8380   22.9840   45.2460 N   0  0  0  0  0  0  0  0  0  0  0  0
   58.6480   22.8460   44.6370 C   0  0  0  0  0  0  0  0  0  0  0  0
   58.2510   21.8190   43.7810 C   0  0  0  0  0  0  0  0  0  0  0  0
   56.9570   21.8820   43.2340 C   0  0  0  0  0  0  0  0  0  0  0  0
   56.1000   22.9590   43.5480 C   0  0  0  0  0  0  0  0  0  0  0  0
   56.5280   23.9820   44.4120 C   0  0  0  0  0  0  0  0  0  0  0  0
   57.8130   23.8910   44.9450 C   0  0  0  0  0  0  0  0  0  0  0  0
   58.1410   31.1980   46.0970 C   0  0  0  0  0  0  0  0  0  0  0  0
   58.7770   32.4190   46.3430 C   0  0  0  0  0  0  0  0  0  0  0  0
   59.5338   34.9096   46.7204 H   0  0  0  0  0  0  0  0  0  0  0  0
   60.4445   34.7014   45.1862 H   0  0  0  0  0  0  0  0  0  0  0  0
   58.8712   35.5682   45.1862 H   0  0  0  0  0  0  0  0  0  0  0  0
   58.0613   34.0099   43.4015 H   0  0  0  0  0  0  0  0  0  0  0  0
   56.9323   31.8307   42.9635 H   0  0  0  0  0  0  0  0  0  0  0  0
   57.2878   26.6166   44.4688 H   0  0  0  0  0  0  0  0  0  0  0  0
   59.9051   27.7894   45.4088 H   0  0  0  0  0  0  0  0  0  0  0  0
   59.5661   26.7268   44.0008 H   0  0  0  0  0  0  0  0  0  0  0  0
   58.9910   28.4285   44.0008 H   0  0  0  0  0  0  0  0  0  0  0  0
   58.8460   26.3955   47.0772 H   0  0  0  0  0  0  0  0  0  0  0  0
   57.1182   25.8811   46.9058 H   0  0  0  0  0  0  0  0  0  0  0  0
   60.5793   24.5457   46.5663 H   0  0  0  0  0  0  0  0  0  0  0  0
   60.6590   22.3420   45.1780 H   0  0  0  0  0  0  0  0  0  0  0  0
   58.9285   20.9862   43.5413 H   0  0  0  0  0  0  0  0  0  0  0  0
   56.6104   21.0871   42.5572 H   0  0  0  0  0  0  0  0  0  0  0  0
   55.0902   22.9980   43.1135 H   0  0  0  0  0  0  0  0  0  0  0  0
   55.8697   24.8277   44.6597 H   0  0  0  0  0  0  0  0  0  0  0  0
   58.1831   30.3972   46.8500 H   0  0  0  0  0  0  0  0  0  0  0  0
   59.3179   32.5742   47.2882 H   0  0  0  0  0  0  0  0  0  0  0  0
  1  2  1  0
  2  3  2  0
  3  4  1  0
  4  5  2  0
  5  6  1  0
  6  7  2  0
  6  8  2  0
  6  9  1  0
  9 10  1  0
 10 11  1  0
 10 12  1  0
 12 13  1  0
 13 14  2  0
 14 15  1  0
 15 16  1  0
 16 17  2  0
 17 18  1  0
 18 19  2  0
 19 20  1  0
 20 21  2  0
  5 22  1  0
 22 23  2  0
 23  2  1  0
 21 13  1  0
 21 16  1  0
  1 24  1  0
  1 25  1  0
  1 26  1  0
  3 27  1  0
  4 28  1  0
 10 29  1  6
 11 30  1  0
 11 31  1  0
 11 32  1  0
 12 33  1  0
 12 34  1  0
 14 35  1  0
 15 36  1  0
 17 37  1  0
 18 38  1  0
 19 39  1  0
 20 40  1  0
 22 41  1  0
 23 42  1  0
M  CHG  1   9  -1
M  END
>  <UniqueID>  (58) 
54

>  <SMILES>  (58) 
Cc1ccc(S(=O)(=O)[N-][C@@H](C)Cc2c[nH]c3ccccc23)cc1

>  <Energy>  (58) 
78.77298388366647

>  <Genealogy>  (58) 
Cc1ccc(S(=O)(=O)[N-]C(C)Cc2c[nH]c3ccccc23)cc1 (protonated)
Cc1ccc(S(=O)(=O)[N-][C@@H](C)Cc2c[nH]c3ccccc23)cc1 (chirality)
Cc1ccc(S(=O)(=O)[N-][C@@H](C)Cc2c[nH]c3ccccc23)cc1 (3D coordinates assigned)
Cc1ccc(S(=O)(=O)[N-][C@@H](C)Cc2c[nH]c3ccccc23)cc1 (optimized conformer: 78.77298388366647 kcal/mol)

>  <smiles>  (58) 
Cc1ccc(S(=O)(=O)NC(C)Cc2c[nH]c3ccccc23)cc1

>  <score_type>  (58) 
oracle

>  <origin>  (58) 
adg

>  <m_score__min__energy>  (58) 
-9.9499999999999993

>  <m_primary>  (58) 
energy

$$$$
58:0
     RDKit          3D

 39 42  0  0  0  0  0  0  0  0999 V2000
   56.8190   34.8770   44.9270 O   0  0  0  0  0  0  0  0  0  0  0  0
   57.5120   33.8960   45.3030 C   0  0  0  0  0  0  0  0  0  0  0  0
   58.8910   34.1190   45.8780 C   0  0  0  0  0  0  0  0  0  0  0  0
   59.2800   33.0190   46.9000 C   0  0  2  0  0  0  0  0  0  0  0  0
   60.7700   33.0460   47.1640 C   0  0  0  0  0  0  0  0  0  0  0  0
   61.3370   32.2420   48.1710 C   0  0  0  0  0  0  0  0  0  0  0  0
   62.7160   32.2570   48.3960 C   0  0  0  0  0  0  0  0  0  0  0  0
   63.5450   33.0660   47.6130 C   0  0  0  0  0  0  0  0  0  0  0  0
   62.9950   33.8580   46.6030 C   0  0  0  0  0  0  0  0  0  0  0  0
   61.6150   33.8470   46.3750 C   0  0  0  0  0  0  0  0  0  0  0  0
   58.8460   31.6960   46.4330 N   0  0  0  0  0  0  0  0  0  0  0  0
   59.3140   30.5300   46.8540 N   0  0  0  0  0  0  0  0  0  0  0  0
   58.5460   29.5620   46.3050 C   0  0  0  0  0  0  0  0  0  0  0  0
   57.5320   30.1400   45.5510 C   0  0  0  0  0  0  0  0  0  0  0  0
   56.4740   29.4360   44.8020 C   0  0  0  0  0  0  0  0  0  0  0  0
   56.0300   29.9510   43.7420 O   0  0  0  0  0  0  0  0  0  0  0  0
   55.9030   28.2060   45.2640 N   0  0  0  0  0  0  0  0  0  0  0  0
   56.6280   27.0130   45.5970 C   0  0  0  0  0  0  0  0  0  0  0  0
   55.9960   26.0300   46.3690 C   0  0  0  0  0  0  0  0  0  0  0  0
   56.6750   24.8570   46.7120 C   0  0  0  0  0  0  0  0  0  0  0  0
   57.9860   24.6530   46.2710 C   0  0  0  0  0  0  0  0  0  0  0  0
   58.6150   25.6180   45.4800 C   0  0  0  0  0  0  0  0  0  0  0  0
   57.9380   26.7910   45.1350 C   0  0  0  0  0  0  0  0  0  0  0  0
   57.7680   31.4930   45.6670 C   0  0  0  0  0  0  0  0  0  0  0  0
   57.0250   32.5670   45.1010 N   0  0  0  0  0  0  0  0  0  0  0  0
   59.6229   34.1154   45.0568 H   0  0  0  0  0  0  0  0  0  0  0  0
   58.8873   35.0851   46.4040 H   0  0  0  0  0  0  0  0  0  0  0  0
   58.7621   33.2245   47.8485 H   0  0  0  0  0  0  0  0  0  0  0  0
   60.6902   31.5978   48.7847 H   0  0  0  0  0  0  0  0  0  0  0  0
   63.1499   31.6316   49.1901 H   0  0  0  0  0  0  0  0  0  0  0  0
   64.6302   33.0786   47.7925 H   0  0  0  0  0  0  0  0  0  0  0  0
   63.6483   34.4918   45.9854 H   0  0  0  0  0  0  0  0  0  0  0  0
   61.1882   34.4684   45.5740 H   0  0  0  0  0  0  0  0  0  0  0  0
   58.7005   28.4808   46.4355 H   0  0  0  0  0  0  0  0  0  0  0  0
   54.9603   26.1816   46.7071 H   0  0  0  0  0  0  0  0  0  0  0  0
   56.1776   24.0943   47.3291 H   0  0  0  0  0  0  0  0  0  0  0  0
   58.5222   23.7330   46.5467 H   0  0  0  0  0  0  0  0  0  0  0  0
   59.6443   25.4542   45.1284 H   0  0  0  0  0  0  0  0  0  0  0  0
   58.4308   27.5425   44.5006 H   0  0  0  0  0  0  0  0  0  0  0  0
  1  2  2  0
  2  3  1  0
  3  4  1  0
  4  5  1  0
  5  6  2  0
  6  7  1  0
  7  8  2  0
  8  9  1  0
  9 10  2  0
  4 11  1  0
 11 12  1  0
 12 13  2  0
 13 14  1  0
 14 15  1  0
 15 16  2  0
 15 17  1  0
 17 18  1  0
 18 19  2  0
 19 20  1  0
 20 21  2  0
 21 22  1  0
 22 23  2  0
 14 24  2  0
 24 25  1  0
 25  2  1  0
 10  5  1  0
 24 11  1  0
 23 18  1  0
  3 26  1  0
  3 27  1  0
  4 28  1  1
  6 29  1  0
  7 30  1  0
  8 31  1  0
  9 32  1  0
 10 33  1  0
 13 34  1  0
 19 35  1  0
 20 36  1  0
 21 37  1  0
 22 38  1  0
 23 39  1  0
M  CHG  2  17  -1  25  -1
M  END
>  <UniqueID>  (59) 
55

>  <SMILES>  (59) 
O=C1C[C@H](c2ccccc2)n2ncc(C(=O)[N-]c3ccccc3)c2[N-]1

>  <Energy>  (59) 
82.87876829924141

>  <Genealogy>  (59) 
O=C1CC(c2ccccc2)n2ncc(C(=O)[N-]c3ccccc3)c2[N-]1 (protonated)
O=C1C[C@H](c2ccccc2)n2ncc(C(=O)[N-]c3ccccc3)c2[N-]1 (chirality)
O=C1C[C@H](c2ccccc2)n2ncc(C(=O)[N-]c3ccccc3)c2[N-]1 (3D coordinates assigned)
O=C1C[C@H](c2ccccc2)n2ncc(C(=O)[N-]c3ccccc3)c2[N-]1 (nonaromatic ring conformer: 82.87876829924141 kcal/mol)

>  <smiles>  (59) 
O=C1CC(c2ccccc2)n2ncc(C(=O)Nc3ccccc3)c2N1

>  <score_type>  (59) 
oracle

>  <origin>  (59) 
adg

>  <m_score__min__energy>  (59) 
-11.25

>  <m_primary>  (59) 
energy

$$$$
59:0
     RDKit          3D

 44 46  0  0  0  0  0  0  0  0999 V2000
   57.4630   34.0080   44.9080 C   0  0  0  0  0  0  0  0  0  0  0  0
   58.1840   33.7240   46.1920 C   0  0  0  0  0  0  0  0  0  0  0  0
   58.9460   34.7240   46.8090 C   0  0  0  0  0  0  0  0  0  0  0  0
   59.6490   34.4510   47.9830 C   0  0  0  0  0  0  0  0  0  0  0  0
   59.6080   33.1700   48.5550 C   0  0  0  0  0  0  0  0  0  0  0  0
   60.3770   32.8890   49.8170 C   0  0  0  0  0  0  0  0  0  0  0  0
   58.8620   32.1490   47.9310 C   0  0  0  0  0  0  0  0  0  0  0  0
   58.8410   30.8380   48.5170 N   0  0  0  0  0  0  0  0  0  0  0  0
   60.1860   29.7480   48.5960 S   0  0  0  0  0  0  0  0  0  0  0  0
   61.3770   30.3500   47.9050 O   0  0  0  0  0  0  0  0  0  0  0  0
   60.5340   29.4680   50.0320 O   0  0  0  0  0  0  0  0  0  0  0  0
   59.7410   28.2450   47.7940 C   0  0  0  0  0  0  0  0  0  0  0  0
   60.7230   27.2960   47.4890 C   0  0  0  0  0  0  0  0  0  0  0  0
   60.3740   26.1100   46.8400 C   0  0  0  0  0  0  0  0  0  0  0  0
   59.0440   25.8660   46.4870 C   0  0  0  0  0  0  0  0  0  0  0  0
   58.0440   26.8130   46.7770 C   0  0  0  0  0  0  0  0  0  0  0  0
   56.6330   26.5590   46.4020 C   0  0  0  0  0  0  0  0  0  0  0  0
   56.0500   25.5270   46.8310 O   0  0  0  0  0  0  0  0  0  0  0  0
   55.9110   27.5350   45.6300 N   0  0  0  0  0  0  0  0  0  0  0  0
   56.3600   28.5970   45.0190 C   0  0  0  0  0  0  0  0  0  0  0  0
   57.6850   28.7090   44.5410 C   0  0  0  0  0  0  0  0  0  0  0  0
   58.0880   29.8870   43.9070 C   0  0  0  0  0  0  0  0  0  0  0  0
   57.1900   30.9430   43.7600 C   0  0  0  0  0  0  0  0  0  0  0  0
   55.8960   30.8110   44.2610 C   0  0  0  0  0  0  0  0  0  0  0  0
   55.5190   29.6580   44.8750 N   0  0  0  0  0  0  0  0  0  0  0  0
   58.4070   28.0050   47.4330 C   0  0  0  0  0  0  0  0  0  0  0  0
   58.1580   32.4360   46.7450 C   0  0  0  0  0  0  0  0  0  0  0  0
   56.4606   34.4028   45.1300 H   0  0  0  0  0  0  0  0  0  0  0  0
   58.0290   34.7504   44.3261 H   0  0  0  0  0  0  0  0  0  0  0  0
   57.3706   33.0791   44.3261 H   0  0  0  0  0  0  0  0  0  0  0  0
   58.9905   35.7298   46.3659 H   0  0  0  0  0  0  0  0  0  0  0  0
   60.2393   35.2452   48.4635 H   0  0  0  0  0  0  0  0  0  0  0  0
   59.7472   33.1191   50.6890 H   0  0  0  0  0  0  0  0  0  0  0  0
   60.6648   31.8276   49.8424 H   0  0  0  0  0  0  0  0  0  0  0  0
   61.2813   33.5148   49.8424 H   0  0  0  0  0  0  0  0  0  0  0  0
   61.7720   27.4847   47.7611 H   0  0  0  0  0  0  0  0  0  0  0  0
   61.1487   25.3650   46.6057 H   0  0  0  0  0  0  0  0  0  0  0  0
   58.7769   24.9275   45.9791 H   0  0  0  0  0  0  0  0  0  0  0  0
   58.3927   27.8764   44.6669 H   0  0  0  0  0  0  0  0  0  0  0  0
   59.1147   29.9812   43.5236 H   0  0  0  0  0  0  0  0  0  0  0  0
   57.4990   31.8698   43.2544 H   0  0  0  0  0  0  0  0  0  0  0  0
   55.1798   31.6397   44.1596 H   0  0  0  0  0  0  0  0  0  0  0  0
   57.6368   28.7554   47.6646 H   0  0  0  0  0  0  0  0  0  0  0  0
   57.5821   31.6415   46.2478 H   0  0  0  0  0  0  0  0  0  0  0  0
  1  2  1  0
  2  3  2  0
  3  4  1  0
  4  5  2  0
  5  6  1  0
  5  7  1  0
  7  8  1  0
  8  9  1  0
  9 10  2  0
  9 11  2  0
  9 12  1  0
 12 13  2  0
 13 14  1  0
 14 15  2  0
 15 16  1  0
 16 17  1  0
 17 18  2  0
 17 19  1  0
 19 20  2  3
 20 21  1  0
 21 22  2  0
 22 23  1  0
 23 24  2  0
 24 25  1  0
 16 26  2  0
  7 27  2  0
 27  2  1  0
 26 12  1  0
 25 20  1  0
  1 28  1  0
  1 29  1  0
  1 30  1  0
  3 31  1  0
  4 32  1  0
  6 33  1  0
  6 34  1  0
  6 35  1  0
 13 36  1  0
 14 37  1  0
 15 38  1  0
 21 39  1  0
 22 40  1  0
 23 41  1  0
 24 42  1  0
 26 43  1  0
 27 44  1  0
M  CHG  2   8  -1  25  -1
M  END
>  <UniqueID>  (60) 
56

>  <SMILES>  (60) 
Cc1ccc(C)c([N-]S(=O)(=O)c2cccc(C(=O)N=c3cccc[n-]3)c2)c1

>  <Energy>  (60) 
59.21469422559714

>  <Genealogy>  (60) 
Cc1ccc(C)c([N-]S(=O)(=O)c2cccc(C(=O)N=c3cccc[n-]3)c2)c1 (protonated)
Cc1ccc(C)c([N-]S(=O)(=O)c2cccc(C(=O)N=c3cccc[n-]3)c2)c1 (3D coordinates assigned)
Cc1ccc(C)c([N-]S(=O)(=O)c2cccc(C(=O)N=c3cccc[n-]3)c2)c1 (optimized conformer: 59.21469422559714 kcal/mol)

>  <smiles>  (60) 
Cc1ccc(C)c(NS(=O)(=O)c2cccc(C(=O)N=c3cccc[nH]3)c2)c1

>  <score_type>  (60) 
oracle

>  <origin>  (60) 
adg

>  <m_score__min__energy>  (60) 
-12.56

>  <m_primary>  (60) 
energy

$$$$
60:0
     RDKit          3D

 32 33  0  0  0  0  0  0  0  0999 V2000
   59.5270   26.6780   46.8710 C   0  0  0  0  0  0  0  0  0  0  0  0
   58.2230   25.9420   46.7980 C   0  0  0  0  0  0  0  0  0  0  0  0
   58.1830   24.6370   47.1790 N   0  0  0  0  0  0  0  0  0  0  0  0
   57.0290   23.9230   47.1350 C   0  0  0  0  0  0  0  0  0  0  0  0
   57.0240   22.7160   47.4870 O   0  0  0  0  0  0  0  0  0  0  0  0
   55.8820   24.5120   46.7170 N   0  0  0  0  0  0  0  0  0  0  0  0
   55.8610   25.8130   46.3300 C   0  0  0  0  0  0  0  0  0  0  0  0
   54.7680   26.3350   45.9820 O   0  0  0  0  0  0  0  0  0  0  0  0
   57.0470   26.5700   46.3440 C   0  0  0  0  0  0  0  0  0  0  0  0
   57.0540   27.9570   45.9590 N   0  0  0  0  0  0  0  0  0  0  0  0
   57.3970   28.3990   44.6360 C   0  0  0  0  0  0  0  0  0  0  0  0
   57.9910   27.6200   43.8440 O   0  0  0  0  0  0  0  0  0  0  0  0
   57.1530   29.7490   44.2270 N   0  0  0  0  0  0  0  0  0  0  0  0
   57.7390   30.9220   44.8080 C   0  0  0  0  0  0  0  0  0  0  0  0
   57.1830   32.1990   44.6150 C   0  0  0  0  0  0  0  0  0  0  0  0
   57.7960   33.3250   45.1720 C   0  0  0  0  0  0  0  0  0  0  0  0
   58.9750   33.1910   45.9170 C   0  0  0  0  0  0  0  0  0  0  0  0
   59.7530   34.6130   46.6040 S   0  0  0  0  0  0  0  0  0  0  0  0
   61.4000   34.2460   46.9780 N   0  0  0  0  0  0  0  0  0  0  0  0
   59.0380   35.0300   47.8580 O   0  0  0  0  0  0  0  0  0  0  0  0
   59.7020   35.7470   45.6200 O   0  0  0  0  0  0  0  0  0  0  0  0
   59.5490   31.9230   46.0810 C   0  0  0  0  0  0  0  0  0  0  0  0
   58.9360   30.7970   45.5230 C   0  0  0  0  0  0  0  0  0  0  0  0
   59.8020   26.8332   47.9247 H   0  0  0  0  0  0  0  0  0  0  0  0
   60.3094   26.0883   46.3709 H   0  0  0  0  0  0  0  0  0  0  0  0
   59.4265   27.6526   46.3709 H   0  0  0  0  0  0  0  0  0  0  0  0
   56.9280   28.6810   46.7000 H   0  0  0  0  0  0  0  0  0  0  0  0
   56.2624   32.3123   44.0236 H   0  0  0  0  0  0  0  0  0  0  0  0
   57.3510   34.3202   45.0248 H   0  0  0  0  0  0  0  0  0  0  0  0
   61.4160   33.2720   47.3570 H   0  0  0  0  0  0  0  0  0  0  0  0
   60.4840   31.8134   46.6500 H   0  0  0  0  0  0  0  0  0  0  0  0
   59.3975   29.8062   45.6467 H   0  0  0  0  0  0  0  0  0  0  0  0
  1  2  1  0
  2  3  1  0
  3  4  1  0
  4  5  2  0
  4  6  1  0
  6  7  1  0
  7  8  2  0
  7  9  1  0
  9 10  1  0
 10 11  1  0
 11 12  2  0
 11 13  1  0
 13 14  1  0
 14 15  2  0
 15 16  1  0
 16 17  2  0
 17 18  1  0
 18 19  1  0
 18 20  2  0
 18 21  2  0
 17 22  1  0
 22 23  2  0
  9  2  2  0
 23 14  1  0
  1 24  1  0
  1 25  1  0
  1 26  1  0
 10 27  1  0
 15 28  1  0
 16 29  1  0
 19 30  1  0
 22 31  1  0
 23 32  1  0
M  CHG  4   3  -1   6  -1  13  -1  19  -1
M  END
>  <UniqueID>  (61) 
57

>  <SMILES>  (61) 
Cc1[n-]c(=O)[n-]c(=O)c1NC(=O)[N-]c1ccc(S([NH-])(=O)=O)cc1

>  <Energy>  (61) 
41.81356197023559

>  <Genealogy>  (61) 
Cc1[n-]c(=O)[n-]c(=O)c1NC(=O)[N-]c1ccc(S([NH-])(=O)=O)cc1 (protonated)
Cc1[n-]c(=O)[n-]c(=O)c1NC(=O)[N-]c1ccc(S([NH-])(=O)=O)cc1 (3D coordinates assigned)
Cc1[n-]c(=O)[n-]c(=O)c1NC(=O)[N-]c1ccc(S([NH-])(=O)=O)cc1 (optimized conformer: 41.81356197023559 kcal/mol)

>  <smiles>  (61) 
Cc1[nH]c(=O)[nH]c(=O)c1NC(=O)Nc1ccc(S(N)(=O)=O)cc1

>  <score_type>  (61) 
oracle

>  <origin>  (61) 
adg

>  <m_score__min__energy>  (61) 
-13.279999999999999

>  <m_primary>  (61) 
energy

$$$$
61:0
     RDKit          3D

 46 47  0  0  0  0  0  0  0  0999 V2000
   56.6410   24.0270   43.3730 C   0  0  0  0  0  0  0  0  0  0  0  0
   57.5680   23.7690   44.4040 O   0  0  0  0  0  0  0  0  0  0  0  0
   57.0330   22.8360   45.3220 C   0  0  0  0  0  0  0  0  0  0  0  0
   56.7260   23.4820   46.6450 C   0  0  0  0  0  0  0  0  0  0  0  0
   57.2470   22.9990   47.6850 O   0  0  0  0  0  0  0  0  0  0  0  0
   55.9020   24.6480   46.7710 N   0  0  0  0  0  0  0  0  0  0  0  0
   56.1380   25.9710   46.2680 C   0  0  0  0  0  0  0  0  0  0  0  0
   55.1440   26.6920   45.9910 O   0  0  0  0  0  0  0  0  0  0  0  0
   57.5090   26.4720   45.9140 C   0  0  0  0  0  0  0  0  0  0  0  0
   57.8600   28.0120   46.8370 S   0  0  0  0  0  0  0  0  0  0  0  0
   57.5590   29.1230   45.4470 C   0  0  0  0  0  0  0  0  0  0  0  0
   56.3380   29.0170   44.7630 C   0  0  0  0  0  0  0  0  0  0  0  0
   56.0250   29.8990   43.7270 C   0  0  0  0  0  0  0  0  0  0  0  0
   56.9160   30.9150   43.3830 C   0  0  0  0  0  0  0  0  0  0  0  0
   58.1210   31.0530   44.0760 C   0  0  0  0  0  0  0  0  0  0  0  0
   58.4590   30.1610   45.1070 C   0  0  0  0  0  0  0  0  0  0  0  0
   59.7090   30.3870   45.8570 C   0  0  0  0  0  0  0  0  0  0  0  0
   60.6460   29.5490   45.7640 O   0  0  0  0  0  0  0  0  0  0  0  0
   59.8340   31.5080   46.7410 N   0  0  0  0  0  0  0  0  0  0  0  0
   61.0970   32.0640   47.1420 C   0  0  0  0  0  0  0  0  0  0  0  0
   61.5660   33.2680   46.5910 C   0  0  0  0  0  0  0  0  0  0  0  0
   62.7660   33.8250   47.0370 C   0  0  0  0  0  0  0  0  0  0  0  0
   63.5010   33.1950   48.0430 C   0  0  0  0  0  0  0  0  0  0  0  0
   63.0430   32.0040   48.6160 C   0  0  0  0  0  0  0  0  0  0  0  0
   63.8050   31.4200   49.6390 O   0  0  0  0  0  0  0  0  0  0  0  0
   65.0010   31.9810   50.1700 C   0  0  0  0  0  0  0  0  0  0  0  0
   61.8370   31.4380   48.1560 C   0  0  0  0  0  0  0  0  0  0  0  0
   55.6696   24.2974   43.8126 H   0  0  0  0  0  0  0  0  0  0  0  0
   57.0060   24.8577   42.7511 H   0  0  0  0  0  0  0  0  0  0  0  0
   56.5244   23.1272   42.7511 H   0  0  0  0  0  0  0  0  0  0  0  0
   56.1059   22.4154   44.9054 H   0  0  0  0  0  0  0  0  0  0  0  0
   57.7802   22.0459   45.4877 H   0  0  0  0  0  0  0  0  0  0  0  0
   58.2564   25.7092   46.1777 H   0  0  0  0  0  0  0  0  0  0  0  0
   57.5547   26.6761   44.8341 H   0  0  0  0  0  0  0  0  0  0  0  0
   55.6212   28.2319   45.0457 H   0  0  0  0  0  0  0  0  0  0  0  0
   55.0754   29.7924   43.1821 H   0  0  0  0  0  0  0  0  0  0  0  0
   56.6698   31.6083   42.5653 H   0  0  0  0  0  0  0  0  0  0  0  0
   58.8114   31.8676   43.8119 H   0  0  0  0  0  0  0  0  0  0  0  0
   58.9600   31.8840   47.1730 H   0  0  0  0  0  0  0  0  0  0  0  0
   60.9857   33.7738   45.8053 H   0  0  0  0  0  0  0  0  0  0  0  0
   63.1333   34.7627   46.5946 H   0  0  0  0  0  0  0  0  0  0  0  0
   64.4469   33.6384   48.3874 H   0  0  0  0  0  0  0  0  0  0  0  0
   64.9588   31.9612   51.2690 H   0  0  0  0  0  0  0  0  0  0  0  0
   65.8655   31.3945   49.8256 H   0  0  0  0  0  0  0  0  0  0  0  0
   65.1027   33.0207   49.8256 H   0  0  0  0  0  0  0  0  0  0  0  0
   61.4731   30.4977   48.5957 H   0  0  0  0  0  0  0  0  0  0  0  0
  1  2  1  0
  2  3  1  0
  3  4  1  0
  4  5  2  0
  4  6  1  0
  6  7  1  0
  7  8  2  0
  7  9  1  0
  9 10  1  0
 10 11  1  0
 11 12  2  0
 12 13  1  0
 13 14  2  0
 14 15  1  0
 15 16  2  0
 16 17  1  0
 17 18  2  0
 17 19  1  0
 19 20  1  0
 20 21  2  0
 21 22  1  0
 22 23  2  0
 23 24  1  0
 24 25  1  0
 25 26  1  0
 24 27  2  0
 16 11  1  0
 27 20  1  0
  1 28  1  0
  1 29  1  0
  1 30  1  0
  3 31  1  0
  3 32  1  0
  9 33  1  0
  9 34  1  0
 12 35  1  0
 13 36  1  0
 14 37  1  0
 15 38  1  0
 19 39  1  0
 21 40  1  0
 22 41  1  0
 23 42  1  0
 26 43  1  0
 26 44  1  0
 26 45  1  0
 27 46  1  0
M  CHG  1   6  -1
M  END
>  <UniqueID>  (62) 
58

>  <SMILES>  (62) 
COCC(=O)[N-]C(=O)CSc1ccccc1C(=O)Nc1cccc(OC)c1

>  <Energy>  (62) 
54.02278600112019

>  <Genealogy>  (62) 
COCC(=O)[N-]C(=O)CSc1ccccc1C(=O)Nc1cccc(OC)c1 (protonated)
COCC(=O)[N-]C(=O)CSc1ccccc1C(=O)Nc1cccc(OC)c1 (3D coordinates assigned)
COCC(=O)[N-]C(=O)CSc1ccccc1C(=O)Nc1cccc(OC)c1 (optimized conformer: 54.02278600112019 kcal/mol)

>  <smiles>  (62) 
COCC(=O)NC(=O)CSc1ccccc1C(=O)Nc1cccc(OC)c1

>  <score_type>  (62) 
oracle

>  <origin>  (62) 
adg

>  <m_score__min__energy>  (62) 
-9.1199999999999992

>  <m_primary>  (62) 
energy

$$$$
62:0
     RDKit          3D

 34 36  0  0  0  0  0  0  0  0999 V2000
   54.7700   26.7600   45.2770 H   0  0  0  0  0  0  0  0  0  0  0  0
   54.9250   26.0180   45.9960 N   0  0  0  0  0  0  0  0  0  0  0  0
   56.6340   25.8020   46.1430 S   0  0  0  0  0  0  0  0  0  0  0  0
   57.0470   24.5470   45.4270 O   0  0  0  0  0  0  0  0  0  0  0  0
   56.9910   25.6710   47.5970 O   0  0  0  0  0  0  0  0  0  0  0  0
   57.4630   27.1840   45.4330 C   0  0  0  0  0  0  0  0  0  0  0  0
   58.6630   27.0130   44.7290 C   0  0  0  0  0  0  0  0  0  0  0  0
   59.0996   26.0088   44.6239 H   0  0  0  0  0  0  0  0  0  0  0  0
   59.3050   28.1150   44.1610 C   0  0  0  0  0  0  0  0  0  0  0  0
   60.2387   27.9754   43.5965 H   0  0  0  0  0  0  0  0  0  0  0  0
   58.7640   29.3950   44.3080 C   0  0  0  0  0  0  0  0  0  0  0  0
   59.2672   30.2571   43.8458 H   0  0  0  0  0  0  0  0  0  0  0  0
   57.5850   29.5880   45.0400 C   0  0  0  0  0  0  0  0  0  0  0  0
   57.0600   30.9210   45.1590 N   0  0  0  0  0  0  0  0  0  0  0  0
   57.6950   31.9560   45.6230 C   0  0  0  0  0  0  0  0  0  0  0  0
   58.8200   31.9000   46.2970 O   0  0  0  0  0  0  0  0  0  0  0  0
   59.1610   33.1380   46.5780 C   0  0  0  0  0  0  0  0  0  0  0  0
   60.3740   33.5100   47.3400 C   0  0  0  0  0  0  0  0  0  0  0  0
   61.6300   33.4590   46.7110 C   0  0  0  0  0  0  0  0  0  0  0  0
   61.7016   33.1455   45.6591 H   0  0  0  0  0  0  0  0  0  0  0  0
   62.7890   33.8040   47.4130 C   0  0  0  0  0  0  0  0  0  0  0  0
   63.7676   33.7602   46.9127 H   0  0  0  0  0  0  0  0  0  0  0  0
   62.7060   34.2040   48.7480 C   0  0  0  0  0  0  0  0  0  0  0  0
   63.6185   34.4748   49.2993 H   0  0  0  0  0  0  0  0  0  0  0  0
   61.4630   34.2600   49.3830 C   0  0  0  0  0  0  0  0  0  0  0  0
   61.3983   34.5757   50.4347 H   0  0  0  0  0  0  0  0  0  0  0  0
   60.3010   33.9160   48.6860 C   0  0  0  0  0  0  0  0  0  0  0  0
   59.3252   33.9628   49.1916 H   0  0  0  0  0  0  0  0  0  0  0  0
   58.2000   33.9800   46.0420 C   0  0  0  0  0  0  0  0  0  0  0  0
   58.1964   35.0783   46.1029 H   0  0  0  0  0  0  0  0  0  0  0  0
   57.2720   33.2190   45.4340 N   0  0  0  0  0  0  0  0  0  0  0  0
   56.4170   33.5420   44.9290 H   0  0  0  0  0  0  0  0  0  0  0  0
   56.9220   28.4680   45.5820 C   0  0  0  0  0  0  0  0  0  0  0  0
   55.9748   28.6029   46.1248 H   0  0  0  0  0  0  0  0  0  0  0  0
  1  2  1  0
  2  3  1  0
  3  4  2  0
  3  5  2  0
  3  6  1  0
  6  7  2  0
  7  8  1  0
  7  9  1  0
  9 10  1  0
  9 11  2  0
 11 12  1  0
 11 13  1  0
 13 14  1  0
 14 15  2  0
 15 16  1  0
 16 17  1  0
 17 18  1  0
 18 19  2  0
 19 20  1  0
 19 21  1  0
 21 22  1  0
 21 23  2  0
 23 24  1  0
 23 25  1  0
 25 26  1  0
 25 27  2  0
 27 28  1  0
 17 29  2  0
 29 30  1  0
 29 31  1  0
 31 32  1  0
 13 33  2  0
 33 34  1  0
 33  6  1  0
 31 15  1  0
 27 18  1  0
M  CHG  1   2  -1
M  END
>  <UniqueID>  (63) 
59

>  <SMILES>  (63) 
[NH-]S(=O)(=O)c1cccc(/N=c2/[nH]cc(-c3ccccc3)o2)c1

>  <Energy>  (63) 
73.01114430943201

>  <Genealogy>  (63) 
[NH-]S(=O)(=O)c1cccc(N=c2[nH]cc(-c3ccccc3)o2)c1 (protonated)
[NH-]S(=O)(=O)c1cccc(/N=c2/[nH]cc(-c3ccccc3)o2)c1 (cis-trans isomerization)
[NH-]S(=O)(=O)c1cccc(/N=c2/[nH]cc(-c3ccccc3)o2)c1 (3D coordinates assigned)
[NH-]S(=O)(=O)c1cccc(/N=c2/[nH]cc(-c3ccccc3)o2)c1 (optimized conformer: 73.01114430943201 kcal/mol)

>  <smiles>  (63) 
NS(=O)(=O)c1cccc(N=c2[nH]cc(-c3ccccc3)o2)c1

>  <score_type>  (63) 
oracle

>  <origin>  (63) 
adg

>  <m_score__min__energy>  (63) 
-11.01

>  <m_primary>  (63) 
energy

$$$$
63:0
     RDKit          3D

 58 61  0  0  1  0  0  0  0  0999 V2000
   60.7160   29.6860   47.7160 C   0  0  0  0  0  0  0  0  0  0  0  0
   60.9740   29.7230   49.0770 C   0  0  0  0  0  0  0  0  0  0  0  0
   60.1890   30.5600   49.8330 C   0  0  0  0  0  0  0  0  0  0  0  0
   59.1840   31.3380   49.2910 C   0  0  0  0  0  0  0  0  0  0  0  0
   58.4210   32.1950   50.2310 C   0  0  0  0  0  0  0  0  0  0  0  0
   57.5570   34.1490   45.3130 C   0  0  0  0  0  0  0  0  0  0  0  0
   58.7560   34.9190   45.5630 N   0  0  0  0  0  0  0  0  0  0  0  0
   59.6140   34.5700   46.4870 C   0  0  0  0  0  0  0  0  0  0  0  0
   59.3040   34.5630   47.7910 N   0  0  0  0  0  0  0  0  0  0  0  0
   60.1430   34.2140   48.7780 C   0  0  0  0  0  0  0  0  0  0  0  0
   59.7710   34.2750   49.9500 N   0  0  0  0  0  0  0  0  0  0  0  0
   59.2290   33.3350   50.8140 C   0  0  0  0  0  0  0  0  0  0  0  0
   57.9200   33.0820   44.2830 C   0  0  0  0  0  0  0  0  0  0  0  0
   57.6290   31.7380   44.8680 C   0  0  0  0  0  0  0  0  0  0  0  0
   57.8590   30.7000   43.9070 N   0  0  0  0  0  0  0  0  0  0  0  0
   56.6590   30.4860   43.0850 C   0  0  0  0  0  0  0  0  0  0  0  0
   55.5350   30.0210   43.9600 C   0  0  0  0  0  0  0  0  0  0  0  0
   55.9320   29.3610   45.1070 O   0  0  0  0  0  0  0  0  0  0  0  0
   57.0330   28.5800   44.8400 C   0  0  0  0  0  0  0  0  0  0  0  0
   58.2380   29.4280   44.4580 C   0  0  0  0  0  0  0  0  0  0  0  0
   60.8600   34.1970   46.1530 N   0  0  0  0  0  0  0  0  0  0  0  0
   61.7310   33.8380   47.1120 C   0  0  0  0  0  0  0  0  0  0  0  0
   62.9910   33.4610   46.7000 C   0  0  0  0  0  0  0  0  0  0  0  0
   63.8620   33.0920   47.6990 C   0  0  0  0  0  0  0  0  0  0  0  0
   63.5760   33.0710   49.0260 C   0  0  0  0  0  0  0  0  0  0  0  0
   62.2820   33.4590   49.4400 C   0  0  0  0  0  0  0  0  0  0  0  0
   61.4180   33.8280   48.4600 C   0  0  0  0  0  0  0  0  0  0  0  0
   58.9380   31.2910   47.9340 C   0  0  0  0  0  0  0  0  0  0  0  0
   59.7220   30.4470   47.1430 C   0  0  0  0  0  0  0  0  0  0  0  0
   61.3229   29.0297   47.0750 H   0  0  0  0  0  0  0  0  0  0  0  0
   61.7686   29.1120   49.5302 H   0  0  0  0  0  0  0  0  0  0  0  0
   60.3686   30.6129   50.9170 H   0  0  0  0  0  0  0  0  0  0  0  0
   57.5610   32.6197   49.6925 H   0  0  0  0  0  0  0  0  0  0  0  0
   58.1175   31.5551   51.0726 H   0  0  0  0  0  0  0  0  0  0  0  0
   57.2117   33.6744   46.2433 H   0  0  0  0  0  0  0  0  0  0  0  0
   56.7461   34.7934   44.9424 H   0  0  0  0  0  0  0  0  0  0  0  0
   58.3100   34.8630   48.0200 H   0  0  0  0  0  0  0  0  0  0  0  0
   58.5710   33.8759   51.5101 H   0  0  0  0  0  0  0  0  0  0  0  0
   60.1063   32.8420   51.2581 H   0  0  0  0  0  0  0  0  0  0  0  0
   57.3212   33.2273   43.3718 H   0  0  0  0  0  0  0  0  0  0  0  0
   58.9864   33.1567   44.0236 H   0  0  0  0  0  0  0  0  0  0  0  0
   58.2827   31.5747   45.7375 H   0  0  0  0  0  0  0  0  0  0  0  0
   56.5718   31.7083   45.1704 H   0  0  0  0  0  0  0  0  0  0  0  0
   56.3767   31.4293   42.5946 H   0  0  0  0  0  0  0  0  0  0  0  0
   56.8684   29.7249   42.3189 H   0  0  0  0  0  0  0  0  0  0  0  0
   54.9456   30.9009   44.2574 H   0  0  0  0  0  0  0  0  0  0  0  0
   54.9592   29.2951   43.3671 H   0  0  0  0  0  0  0  0  0  0  0  0
   57.2796   27.9913   45.7359 H   0  0  0  0  0  0  0  0  0  0  0  0
   56.7919   27.9209   43.9930 H   0  0  0  0  0  0  0  0  0  0  0  0
   58.8484   29.5999   45.3568 H   0  0  0  0  0  0  0  0  0  0  0  0
   58.8017   28.8825   43.6868 H   0  0  0  0  0  0  0  0  0  0  0  0
   61.1730   34.1810   45.1360 H   0  0  0  0  0  0  0  0  0  0  0  0
   63.2819   33.4555   45.6392 H   0  0  0  0  0  0  0  0  0  0  0  0
   64.8753   32.7885   47.3972 H   0  0  0  0  0  0  0  0  0  0  0  0
   64.3330   32.7596   49.7608 H   0  0  0  0  0  0  0  0  0  0  0  0
   61.9900   33.4619   50.5005 H   0  0  0  0  0  0  0  0  0  0  0  0
   58.1427   31.9041   47.4850 H   0  0  0  0  0  0  0  0  0  0  0  0
   59.5444   30.3904   46.0589 H   0  0  0  0  0  0  0  0  0  0  0  0
  1  2  2  0
  2  3  1  0
  3  4  2  0
  4  5  1  0
  5  6  1  0
  6  7  1  0
  7  8  2  0
  8  9  1  0
  9 10  1  0
 10 11  2  0
 11 12  1  0
 12 13  1  0
 13 14  1  0
 14 15  1  0
 15 16  1  0
 16 17  1  0
 17 18  1  0
 18 19  1  0
 19 20  1  0
 10 21  1  0
 21 22  1  0
 22 23  2  0
 23 24  1  0
 24 25  2  0
 25 26  1  0
 26 27  2  0
  4 28  1  0
 28 29  2  0
 29  1  1  0
 27  8  1  0
 20 15  1  0
 27 22  1  0
  1 30  1  0
  2 31  1  0
  3 32  1  0
  5 33  1  0
  5 34  1  0
  6 35  1  0
  6 36  1  0
  9 37  1  0
 12 38  1  0
 12 39  1  0
 13 40  1  0
 13 41  1  0
 14 42  1  0
 14 43  1  0
 16 44  1  0
 16 45  1  0
 17 46  1  0
 17 47  1  0
 19 48  1  0
 19 49  1  0
 20 50  1  0
 20 51  1  0
 21 52  1  0
 23 53  1  0
 24 54  1  0
 25 55  1  0
 26 56  1  0
 28 57  1  0
 29 58  1  0
M  END
>  <smiles>  (64) 
c1ccc(CCN=c2[nH]c(=NCCCN3CCOCC3)[nH]c3ccccc23)cc1

>  <score_type>  (64) 
oracle

>  <origin>  (64) 
adg

>  <m_score__min__energy>  (64) 
-9.5999999999999996

>  <m_primary>  (64) 
energy

$$$$
64:0
     RDKit          3D

 44 47  0  0  0  0  0  0  0  0999 V2000
   54.5950   27.0640   46.7320 H   0  0  0  0  0  0  0  0  0  0  0  0
   54.7770   26.3420   46.0000 N   0  0  0  0  0  0  0  0  0  0  0  0
   56.0830   25.8020   45.8100 C   0  0  0  0  0  0  0  0  0  0  0  0
   56.2440   24.8740   44.9710 O   0  0  0  0  0  0  0  0  0  0  0  0
   57.2400   26.3170   46.5800 C   0  0  0  0  0  0  0  0  0  0  0  0
   57.9170   25.5010   47.5090 C   0  0  0  0  0  0  0  0  0  0  0  0
   57.5818   24.4657   47.6698 H   0  0  0  0  0  0  0  0  0  0  0  0
   58.9840   25.9820   48.2110 N   0  0  0  0  0  0  0  0  0  0  0  0
   59.4360   27.2550   48.0460 C   0  0  0  0  0  0  0  0  0  0  0  0
   60.4850   27.6360   48.7230 N   0  0  0  0  0  0  0  0  0  0  0  0
   60.5620   28.5020   49.9000 C   0  0  0  0  0  0  0  0  0  0  0  0
   61.5901   28.4817   50.2907 H   0  0  0  0  0  0  0  0  0  0  0  0
   59.8480   28.1273   50.6482 H   0  0  0  0  0  0  0  0  0  0  0  0
   60.1910   29.9330   49.5690 C   0  0  0  0  0  0  0  0  0  0  0  0
   61.0400   30.6820   48.7360 C   0  0  0  0  0  0  0  0  0  0  0  0
   61.9580   30.2234   48.3398 H   0  0  0  0  0  0  0  0  0  0  0  0
   60.7290   32.0020   48.4070 C   0  0  0  0  0  0  0  0  0  0  0  0
   61.4115   32.5854   47.7715 H   0  0  0  0  0  0  0  0  0  0  0  0
   59.5540   32.5820   48.8830 C   0  0  0  0  0  0  0  0  0  0  0  0
   59.3169   33.6267   48.6333 H   0  0  0  0  0  0  0  0  0  0  0  0
   58.6780   31.8390   49.6760 C   0  0  0  0  0  0  0  0  0  0  0  0
   57.7471   32.2989   50.0392 H   0  0  0  0  0  0  0  0  0  0  0  0
   58.9770   30.5040   50.0150 C   0  0  0  0  0  0  0  0  0  0  0  0
   58.0940   29.7230   50.7820 O   0  0  0  0  0  0  0  0  0  0  0  0
   57.9120   29.8540   52.1880 C   0  0  0  0  0  0  0  0  0  0  0  0
   58.6963   29.2894   52.7134 H   0  0  0  0  0  0  0  0  0  0  0  0
   57.9742   30.9158   52.4684 H   0  0  0  0  0  0  0  0  0  0  0  0
   56.9248   29.4579   52.4684 H   0  0  0  0  0  0  0  0  0  0  0  0
   58.7740   28.0560   47.1610 N   0  0  0  0  0  0  0  0  0  0  0  0
   58.9870   29.3230   46.8640 N   0  0  0  0  0  0  0  0  0  0  0  0
   58.0460   29.6350   45.9420 C   0  0  0  0  0  0  0  0  0  0  0  0
   57.9140   30.9710   45.3240 C   0  0  0  0  0  0  0  0  0  0  0  0
   57.8220   32.1240   46.1240 C   0  0  0  0  0  0  0  0  0  0  0  0
   57.8430   32.0320   47.2199 H   0  0  0  0  0  0  0  0  0  0  0  0
   57.7040   33.3860   45.5350 C   0  0  0  0  0  0  0  0  0  0  0  0
   57.6362   34.2834   46.1676 H   0  0  0  0  0  0  0  0  0  0  0  0
   57.6720   33.5090   44.1430 C   0  0  0  0  0  0  0  0  0  0  0  0
   57.5822   34.5031   43.6807 H   0  0  0  0  0  0  0  0  0  0  0  0
   57.7540   32.3700   43.3390 C   0  0  0  0  0  0  0  0  0  0  0  0
   57.7258   32.4676   42.2437 H   0  0  0  0  0  0  0  0  0  0  0  0
   57.8720   31.1050   43.9250 C   0  0  0  0  0  0  0  0  0  0  0  0
   57.9322   30.2104   43.2877 H   0  0  0  0  0  0  0  0  0  0  0  0
   57.2310   28.5910   45.6500 N   0  0  0  0  0  0  0  0  0  0  0  0
   57.7260   27.6240   46.4460 C   0  0  0  0  0  0  0  0  0  0  0  0
  1  2  1  0
  2  3  1  0
  3  4  2  0
  3  5  1  0
  5  6  2  0
  6  7  1  0
  6  8  1  0
  8  9  1  0
  9 10  2  0
 10 11  1  0
 11 12  1  0
 11 13  1  0
 11 14  1  0
 14 15  2  0
 15 16  1  0
 15 17  1  0
 17 18  1  0
 17 19  2  0
 19 20  1  0
 19 21  1  0
 21 22  1  0
 21 23  2  0
 23 24  1  0
 24 25  1  0
 25 26  1  0
 25 27  1  0
 25 28  1  0
  9 29  1  0
 29 30  1  0
 30 31  2  0
 31 32  1  0
 32 33  2  0
 33 34  1  0
 33 35  1  0
 35 36  1  0
 35 37  2  0
 37 38  1  0
 37 39  1  0
 39 40  1  0
 39 41  2  0
 41 42  1  0
 31 43  1  0
 43 44  2  0
 44  5  1  0
 23 14  1  0
 44 29  1  0
 41 32  1  0
M  CHG  2   2  -1   8  -1
M  END
>  <UniqueID>  (65) 
60

>  <SMILES>  (65) 
COc1ccccc1C/N=c1/[n-]cc(C([NH-])=O)c2nc(-c3ccccc3)nn12

>  <Energy>  (65) 
92.27336111118854

>  <Genealogy>  (65) 
COc1ccccc1CN=c1[n-]cc(C([NH-])=O)c2nc(-c3ccccc3)nn12 (protonated)
COc1ccccc1C/N=c1/[n-]cc(C([NH-])=O)c2nc(-c3ccccc3)nn12 (cis-trans isomerization)
COc1ccccc1C/N=c1/[n-]cc(C([NH-])=O)c2nc(-c3ccccc3)nn12 (3D coordinates assigned)
COc1ccccc1C/N=c1/[n-]cc(C([NH-])=O)c2nc(-c3ccccc3)nn12 (optimized conformer: 92.27336111118854 kcal/mol)

>  <smiles>  (65) 
COc1ccccc1CN=c1[nH]cc(C(N)=O)c2nc(-c3ccccc3)nn12

>  <score_type>  (65) 
oracle

>  <origin>  (65) 
adg

>  <m_score__min__energy>  (65) 
-11.800000000000001

>  <m_primary>  (65) 
energy

$$$$
65:0
     RDKit          3D

 57 60  0  0  0  0  0  0  0  0999 V2000
   56.0200   27.4340   45.5660 O   0  0  0  0  0  0  0  0  0  0  0  0
   56.6400   28.5300   45.6090 C   0  0  0  0  0  0  0  0  0  0  0  0
   56.0510   29.6820   44.9990 N   0  0  0  0  0  0  0  0  0  0  0  0
   56.6800   30.5740   44.0640 C   0  0  0  0  0  0  0  0  0  0  0  0
   56.4090   30.4950   42.6840 C   0  0  0  0  0  0  0  0  0  0  0  0
   56.9910   31.4020   41.7960 C   0  0  0  0  0  0  0  0  0  0  0  0
   57.8510   32.3920   42.2690 C   0  0  0  0  0  0  0  0  0  0  0  0
   58.1530   32.4630   43.6310 C   0  0  0  0  0  0  0  0  0  0  0  0
   57.5980   31.5410   44.5310 C   0  0  0  0  0  0  0  0  0  0  0  0
   57.9330   31.6450   45.9240 N   0  0  0  0  0  0  0  0  0  0  0  0
   58.0100   32.9010   46.6180 C   0  0  0  0  0  0  0  0  0  0  0  0
   57.4780   33.9260   46.1060 O   0  0  0  0  0  0  0  0  0  0  0  0
   58.6730   33.0040   47.9400 C   0  0  0  0  0  0  0  0  0  0  0  0
   58.4510   32.0390   48.9400 C   0  0  0  0  0  0  0  0  0  0  0  0
   59.0860   32.1450   50.1810 C   0  0  0  0  0  0  0  0  0  0  0  0
   59.9530   33.2090   50.4370 C   0  0  0  0  0  0  0  0  0  0  0  0
   60.1910   34.1680   49.4500 C   0  0  0  0  0  0  0  0  0  0  0  0
   59.5590   34.0660   48.2070 C   0  0  0  0  0  0  0  0  0  0  0  0
   57.9120   28.6040   46.1880 O   0  0  0  0  0  0  0  0  0  0  0  0
   58.2110   28.1310   47.5010 C   0  0  0  0  0  0  0  0  0  0  0  0
   59.7130   28.2690   47.8240 C   0  0  0  0  0  0  0  0  0  0  0  0
   60.4870   28.8380   46.6060 C   0  0  0  0  0  0  0  0  0  0  0  0
   60.7360   30.3460   46.7200 C   0  0  0  0  0  0  0  0  0  0  0  0
   61.4600   30.6570   47.9630 N   0  0  0  0  0  0  0  0  0  0  0  0
   62.3330   31.8060   48.0270 C   0  0  0  0  0  0  0  0  0  0  0  0
   63.1740   32.0070   49.1360 C   0  0  0  0  0  0  0  0  0  0  0  0
   64.0110   33.1240   49.1770 C   0  0  0  0  0  0  0  0  0  0  0  0
   64.0130   34.0140   48.1520 N   0  0  0  0  0  0  0  0  0  0  0  0
   63.2110   33.8500   47.0660 C   0  0  0  0  0  0  0  0  0  0  0  0
   62.3590   32.7460   46.9830 C   0  0  0  0  0  0  0  0  0  0  0  0
   61.2940   29.7890   49.1390 C   0  0  0  0  0  0  0  0  0  0  0  0
   59.9260   29.1020   49.1120 C   0  0  0  0  0  0  0  0  0  0  0  0
   55.7346   29.7138   42.3034 H   0  0  0  0  0  0  0  0  0  0  0  0
   56.7703   31.3351   40.7204 H   0  0  0  0  0  0  0  0  0  0  0  0
   58.2919   33.1175   41.5695 H   0  0  0  0  0  0  0  0  0  0  0  0
   58.8305   33.2470   44.0003 H   0  0  0  0  0  0  0  0  0  0  0  0
   57.9320   30.7670   46.4920 H   0  0  0  0  0  0  0  0  0  0  0  0
   57.7730   31.1953   48.7438 H   0  0  0  0  0  0  0  0  0  0  0  0
   58.9021   31.3882   50.9578 H   0  0  0  0  0  0  0  0  0  0  0  0
   60.4484   33.2919   51.4156 H   0  0  0  0  0  0  0  0  0  0  0  0
   60.8765   35.0045   49.6508 H   0  0  0  0  0  0  0  0  0  0  0  0
   59.7552   34.8210   47.4315 H   0  0  0  0  0  0  0  0  0  0  0  0
   57.6332   28.7160   48.2317 H   0  0  0  0  0  0  0  0  0  0  0  0
   57.9437   27.0652   47.5528 H   0  0  0  0  0  0  0  0  0  0  0  0
   60.1265   27.2694   48.0237 H   0  0  0  0  0  0  0  0  0  0  0  0
   61.4573   28.3249   46.5338 H   0  0  0  0  0  0  0  0  0  0  0  0
   59.8715   28.6681   45.7103 H   0  0  0  0  0  0  0  0  0  0  0  0
   61.3343   30.6801   45.8595 H   0  0  0  0  0  0  0  0  0  0  0  0
   59.7669   30.8663   46.7334 H   0  0  0  0  0  0  0  0  0  0  0  0
   63.1725   31.2872   49.9678 H   0  0  0  0  0  0  0  0  0  0  0  0
   64.6708   33.2832   50.0426 H   0  0  0  0  0  0  0  0  0  0  0  0
   63.2332   34.5884   46.2510 H   0  0  0  0  0  0  0  0  0  0  0  0
   61.7112   32.6132   46.1040 H   0  0  0  0  0  0  0  0  0  0  0  0
   62.0835   29.0230   49.1374 H   0  0  0  0  0  0  0  0  0  0  0  0
   61.3639   30.4051   50.0476 H   0  0  0  0  0  0  0  0  0  0  0  0
   59.8482   28.4339   49.9824 H   0  0  0  0  0  0  0  0  0  0  0  0
   59.1548   29.8859   49.1376 H   0  0  0  0  0  0  0  0  0  0  0  0
  1  2  2  0
  2  3  1  0
  3  4  1  0
  4  5  2  0
  5  6  1  0
  6  7  2  0
  7  8  1  0
  8  9  2  0
  9 10  1  0
 10 11  1  0
 11 12  2  0
 11 13  1  0
 13 14  2  0
 14 15  1  0
 15 16  2  0
 16 17  1  0
 17 18  2  0
  2 19  1  0
 19 20  1  0
 20 21  1  0
 21 22  1  0
 22 23  1  0
 23 24  1  0
 24 25  1  0
 25 26  2  0
 26 27  1  0
 27 28  2  0
 28 29  1  0
 29 30  2  0
 24 31  1  0
 31 32  1  0
  9  4  1  0
 18 13  1  0
 32 21  1  0
 30 25  1  0
  5 33  1  0
  6 34  1  0
  7 35  1  0
  8 36  1  0
 10 37  1  0
 14 38  1  0
 15 39  1  0
 16 40  1  0
 17 41  1  0
 18 42  1  0
 20 43  1  0
 20 44  1  0
 21 45  1  0
 22 46  1  0
 22 47  1  0
 23 48  1  0
 23 49  1  0
 26 50  1  0
 27 51  1  0
 29 52  1  0
 30 53  1  0
 31 54  1  0
 31 55  1  0
 32 56  1  0
 32 57  1  0
M  CHG  1   3  -1
M  END
>  <UniqueID>  (66) 
61

>  <SMILES>  (66) 
O=C([N-]c1ccccc1NC(=O)c1ccccc1)OCC1CCN(c2ccncc2)CC1

>  <Energy>  (66) 
73.8732307453601

>  <Genealogy>  (66) 
O=C([N-]c1ccccc1NC(=O)c1ccccc1)OCC1CCN(c2ccncc2)CC1 (protonated)
O=C([N-]c1ccccc1NC(=O)c1ccccc1)OCC1CCN(c2ccncc2)CC1 (3D coordinates assigned)
O=C([N-]c1ccccc1NC(=O)c1ccccc1)OCC1CCN(c2ccncc2)CC1 (nonaromatic ring conformer: 73.8732307453601 kcal/mol)

>  <smiles>  (66) 
O=C(Nc1ccccc1NC(=O)c1ccccc1)OCC1CCN(c2ccncc2)CC1

>  <score_type>  (66) 
oracle

>  <origin>  (66) 
adg

>  <m_score__min__energy>  (66) 
-11.380000000000001

>  <m_primary>  (66) 
energy

$$$$
66:0
     RDKit          3D

 61 64  0  0  0  0  0  0  0  0999 V2000
   55.9410   29.8550   43.7560 C   0  0  0  0  0  0  0  0  0  0  0  0
   56.9710   30.8590   42.6420 S   0  0  0  0  0  0  0  0  0  0  0  0
   57.6950   31.8060   43.9770 C   0  0  0  0  0  0  0  0  0  0  0  0
   57.3920   33.1200   44.1170 N   0  0  0  0  0  0  0  0  0  0  0  0
   57.9400   33.8590   45.1140 C   0  0  0  0  0  0  0  0  0  0  0  0
   58.8230   33.2690   46.0280 C   0  0  0  0  0  0  0  0  0  0  0  0
   59.4750   34.1140   47.0530 C   0  0  0  0  0  0  0  0  0  0  0  0
   59.7510   35.3610   46.7950 N   0  0  0  0  0  0  0  0  0  0  0  0
   59.8330   33.5140   48.3140 N   0  0  0  0  0  0  0  0  0  0  0  0
   60.5490   34.2250   49.3750 C   0  0  0  0  0  0  0  0  0  0  0  0
   62.0150   33.8830   49.3430 C   0  0  0  0  0  0  0  0  0  0  0  0
   62.7580   33.8390   50.5360 C   0  0  0  0  0  0  0  0  0  0  0  0
   64.1080   33.4740   50.5100 C   0  0  0  0  0  0  0  0  0  0  0  0
   64.7200   33.1390   49.2980 C   0  0  0  0  0  0  0  0  0  0  0  0
   63.9820   33.1650   48.1100 C   0  0  0  0  0  0  0  0  0  0  0  0
   62.6320   33.5290   48.1320 C   0  0  0  0  0  0  0  0  0  0  0  0
   59.1220   31.9020   45.8640 C   0  0  0  0  0  0  0  0  0  0  0  0
   60.2960   31.0490   46.9260 S   0  0  0  0  0  0  0  0  0  0  0  0
   60.6130   29.7130   45.7230 C   0  0  0  0  0  0  0  0  0  0  0  0
   59.4880   28.7220   45.7720 C   0  0  0  0  0  0  0  0  0  0  0  0
   59.0340   28.1080   44.5940 C   0  0  0  0  0  0  0  0  0  0  0  0
   57.9680   27.2040   44.6350 C   0  0  0  0  0  0  0  0  0  0  0  0
   57.3270   26.9160   45.8510 C   0  0  0  0  0  0  0  0  0  0  0  0
   56.2120   25.9420   45.9070 C   0  0  0  0  0  0  0  0  0  0  0  0
   55.0290   26.3700   45.9910 O   0  0  0  0  0  0  0  0  0  0  0  0
   56.4480   24.5210   45.8710 N   0  0  0  0  0  0  0  0  0  0  0  0
   56.4670   23.8100   44.5810 C   0  0  0  0  0  0  0  0  0  0  0  0
   55.7830   22.4530   44.7160 C   0  0  0  0  0  0  0  0  0  0  0  0
   56.4330   21.6900   45.7710 N   0  0  0  0  0  0  0  0  0  0  0  0
   56.8470   22.3340   46.9750 C   0  0  0  0  0  0  0  0  0  0  0  0
   57.3500   21.6490   47.9050 O   0  0  0  0  0  0  0  0  0  0  0  0
   56.6640   23.8160   47.1500 C   0  0  0  0  0  0  0  0  0  0  0  0
   57.7840   27.5320   47.0290 C   0  0  0  0  0  0  0  0  0  0  0  0
   58.8480   28.4360   46.9870 C   0  0  0  0  0  0  0  0  0  0  0  0
   58.5590   31.2120   44.8380 N   0  0  0  0  0  0  0  0  0  0  0  0
   56.1882   30.0959   44.8005 H   0  0  0  0  0  0  0  0  0  0  0  0
   54.8791   30.0742   43.5706 H   0  0  0  0  0  0  0  0  0  0  0  0
   56.1330   28.7879   43.5706 H   0  0  0  0  0  0  0  0  0  0  0  0
   57.6900   34.9263   45.2053 H   0  0  0  0  0  0  0  0  0  0  0  0
   60.4060   35.6400   46.0330 H   0  0  0  0  0  0  0  0  0  0  0  0
   59.3020   36.1330   47.3330 H   0  0  0  0  0  0  0  0  0  0  0  0
   59.5540   32.5180   48.4720 H   0  0  0  0  0  0  0  0  0  0  0  0
   60.4269   35.3086   49.2307 H   0  0  0  0  0  0  0  0  0  0  0  0
   60.1345   33.9228   50.3481 H   0  0  0  0  0  0  0  0  0  0  0  0
   62.2764   34.0922   51.4920 H   0  0  0  0  0  0  0  0  0  0  0  0
   64.6889   33.4504   51.4438 H   0  0  0  0  0  0  0  0  0  0  0  0
   65.7825   32.8548   49.2789 H   0  0  0  0  0  0  0  0  0  0  0  0
   64.4640   32.8989   47.1577 H   0  0  0  0  0  0  0  0  0  0  0  0
   62.0514   33.5381   47.1978 H   0  0  0  0  0  0  0  0  0  0  0  0
   60.6831   30.1390   44.7113 H   0  0  0  0  0  0  0  0  0  0  0  0
   61.5581   29.2091   45.9737 H   0  0  0  0  0  0  0  0  0  0  0  0
   59.5191   28.3391   43.6342 H   0  0  0  0  0  0  0  0  0  0  0  0
   57.6295   26.7155   43.7094 H   0  0  0  0  0  0  0  0  0  0  0  0
   55.9366   24.4107   43.8274 H   0  0  0  0  0  0  0  0  0  0  0  0
   57.5114   23.6558   44.2720 H   0  0  0  0  0  0  0  0  0  0  0  0
   54.7224   22.5995   44.9685 H   0  0  0  0  0  0  0  0  0  0  0  0
   55.8589   21.9057   43.7649 H   0  0  0  0  0  0  0  0  0  0  0  0
   55.7919   23.9883   47.7979 H   0  0  0  0  0  0  0  0  0  0  0  0
   57.5881   24.2134   47.5951 H   0  0  0  0  0  0  0  0  0  0  0  0
   57.3008   27.3007   47.9897 H   0  0  0  0  0  0  0  0  0  0  0  0
   59.1859   28.9264   47.9119 H   0  0  0  0  0  0  0  0  0  0  0  0
  1  2  1  0
  2  3  1  0
  3  4  2  0
  4  5  1  0
  5  6  2  0
  6  7  1  0
  7  8  2  0
  7  9  1  0
  9 10  1  0
 10 11  1  0
 11 12  2  0
 12 13  1  0
 13 14  2  0
 14 15  1  0
 15 16  2  0
  6 17  1  0
 17 18  1  0
 18 19  1  0
 19 20  1  0
 20 21  2  0
 21 22  1  0
 22 23  2  0
 23 24  1  0
 24 25  2  0
 24 26  1  0
 26 27  1  0
 27 28  1  0
 28 29  1  0
 29 30  1  0
 30 31  2  0
 30 32  1  0
 23 33  1  0
 33 34  2  0
 17 35  2  0
 35  3  1  0
 16 11  1  0
 34 20  1  0
 32 26  1  0
  1 36  1  0
  1 37  1  0
  1 38  1  0
  5 39  1  0
  8 40  1  0
  8 41  1  0
  9 42  1  0
 10 43  1  0
 10 44  1  0
 12 45  1  0
 13 46  1  0
 14 47  1  0
 15 48  1  0
 16 49  1  0
 19 50  1  0
 19 51  1  0
 21 52  1  0
 22 53  1  0
 27 54  1  0
 27 55  1  0
 28 56  1  0
 28 57  1  0
 32 58  1  0
 32 59  1  0
 33 60  1  0
 34 61  1  0
M  CHG  2   8   1  29  -1
M  END
>  <UniqueID>  (67) 
62

>  <SMILES>  (67) 
CSc1ncc(C(=[NH2+])NCc2ccccc2)c(SCc2ccc(C(=O)N3CC[N-]C(=O)C3)cc2)n1

>  <Energy>  (67) 
66.56326446269613

>  <Genealogy>  (67) 
CSc1ncc(C(=[NH2+])NCc2ccccc2)c(SCc2ccc(C(=O)N3CC[N-]C(=O)C3)cc2)n1 (protonated)
CSc1ncc(C(=[NH2+])NCc2ccccc2)c(SCc2ccc(C(=O)N3CC[N-]C(=O)C3)cc2)n1 (3D coordinates assigned)
CSc1ncc(C(=[NH2+])NCc2ccccc2)c(SCc2ccc(C(=O)N3CC[N-]C(=O)C3)cc2)n1 (nonaromatic ring conformer: 66.56326446269613 kcal/mol)

>  <smiles>  (67) 
CSc1ncc(C(=N)NCc2ccccc2)c(SCc2ccc(C(=O)N3CCNC(=O)C3)cc2)n1

>  <score_type>  (67) 
oracle

>  <origin>  (67) 
adg

>  <m_score__min__energy>  (67) 
-10.109999999999999

>  <m_primary>  (67) 
energy

$$$$
67:0
     RDKit          3D

 55 59  0  0  0  0  0  0  0  0999 V2000
   56.3675   29.3231   42.9604 H   0  0  0  0  0  0  0  0  0  0  0  0
   56.8770   30.2650   43.2120 C   0  0  0  0  0  0  0  0  0  0  0  0
   57.0090   31.2420   42.2590 N   0  0  0  0  0  0  0  0  0  0  0  0
   57.6320   32.4280   42.5230 C   0  0  0  0  0  0  0  0  0  0  0  0
   57.7256   33.2034   41.7484 H   0  0  0  0  0  0  0  0  0  0  0  0
   58.1440   32.6260   43.7990 C   0  0  0  0  0  0  0  0  0  0  0  0
   58.0390   31.6680   44.7640 C   0  0  0  0  0  0  0  0  0  0  0  0
   57.3880   30.4570   44.5100 C   0  0  0  0  0  0  0  0  0  0  0  0
   57.2798   29.6884   45.2895 H   0  0  0  0  0  0  0  0  0  0  0  0
   58.5940   32.1310   45.9070 N   0  0  0  0  0  0  0  0  0  0  0  0
   58.7100   31.4560   47.1740 C   0  0  0  0  0  0  0  0  0  0  0  0
   58.9630   30.1230   47.2210 N   0  0  0  0  0  0  0  0  0  0  0  0
   59.0680   29.4840   48.4120 C   0  0  0  0  0  0  0  0  0  0  0  0
   59.2950   28.2050   48.4300 N   0  0  0  0  0  0  0  0  0  0  0  0
   60.4840   27.5540   47.8770 C   0  0  0  0  0  0  0  0  0  0  0  0
   61.2229   28.3249   47.6130 H   0  0  0  0  0  0  0  0  0  0  0  0
   60.8862   26.8686   48.6375 H   0  0  0  0  0  0  0  0  0  0  0  0
   60.1480   26.7360   46.6230 C   0  0  0  0  0  0  0  0  0  0  0  0
   60.5862   27.2322   45.7445 H   0  0  0  0  0  0  0  0  0  0  0  0
   60.5627   25.7250   46.7491 H   0  0  0  0  0  0  0  0  0  0  0  0
   58.6580   26.6150   46.4250 C   0  0  0  0  0  0  0  0  0  0  0  0
   57.9460   27.6340   45.7730 C   0  0  0  0  0  0  0  0  0  0  0  0
   58.4811   28.5104   45.3786 H   0  0  0  0  0  0  0  0  0  0  0  0
   56.5590   27.5390   45.6230 C   0  0  0  0  0  0  0  0  0  0  0  0
   56.0069   28.3381   45.1067 H   0  0  0  0  0  0  0  0  0  0  0  0
   55.8720   26.4300   46.1280 C   0  0  0  0  0  0  0  0  0  0  0  0
   54.4940   26.3380   45.9800 O   0  0  0  0  0  0  0  0  0  0  0  0
   56.5750   25.4160   46.7870 C   0  0  0  0  0  0  0  0  0  0  0  0
   56.0354   24.5450   47.1872 H   0  0  0  0  0  0  0  0  0  0  0  0
   57.9610   25.5070   46.9380 C   0  0  0  0  0  0  0  0  0  0  0  0
   58.5089   24.7088   47.4602 H   0  0  0  0  0  0  0  0  0  0  0  0
   58.9290   30.1880   49.5660 N   0  0  0  0  0  0  0  0  0  0  0  0
   58.6800   31.5240   49.5350 C   0  0  0  0  0  0  0  0  0  0  0  0
   58.5320   32.2670   50.7630 N   0  0  0  0  0  0  0  0  0  0  0  0
   57.3950   31.9860   51.6520 C   0  0  0  0  0  0  0  0  0  0  0  0
   56.5069   32.5202   51.2834 H   0  0  0  0  0  0  0  0  0  0  0  0
   57.2097   30.9017   51.6601 H   0  0  0  0  0  0  0  0  0  0  0  0
   57.7030   32.4460   53.0800 C   0  0  0  0  0  0  0  0  0  0  0  0
   56.7883   32.3747   53.6868 H   0  0  0  0  0  0  0  0  0  0  0  0
   58.4904   31.8001   53.4957 H   0  0  0  0  0  0  0  0  0  0  0  0
   58.1620   33.7820   53.0900 O   0  0  0  0  0  0  0  0  0  0  0  0
   59.4110   33.8550   52.4340 C   0  0  0  0  0  0  0  0  0  0  0  0
   59.8157   34.8722   52.5415 H   0  0  0  0  0  0  0  0  0  0  0  0
   60.0919   33.1214   52.8902 H   0  0  0  0  0  0  0  0  0  0  0  0
   59.2640   33.5280   50.9450 C   0  0  0  0  0  0  0  0  0  0  0  0
   58.7132   34.3407   50.4489 H   0  0  0  0  0  0  0  0  0  0  0  0
   60.2663   33.4235   50.5039 H   0  0  0  0  0  0  0  0  0  0  0  0
   58.5720   32.1490   48.3340 N   0  0  0  0  0  0  0  0  0  0  0  0
   59.0280   33.3840   45.5820 C   0  0  0  0  0  0  0  0  0  0  0  0
   59.7280   34.3170   46.5220 C   0  0  0  0  0  0  0  0  0  0  0  0
   59.5088   34.0248   47.5596 H   0  0  0  0  0  0  0  0  0  0  0  0
   60.8130   34.2666   46.3483 H   0  0  0  0  0  0  0  0  0  0  0  0
   59.3762   35.3447   46.3483 H   0  0  0  0  0  0  0  0  0  0  0  0
   58.7600   33.7110   44.2930 N   0  0  0  0  0  0  0  0  0  0  0  0
   58.9790   34.6040   43.7970 H   0  0  0  0  0  0  0  0  0  0  0  0
  1  2  1  0
  2  3  2  0
  3  4  1  0
  4  5  1  0
  4  6  2  0
  6  7  1  0
  7  8  2  0
  8  9  1  0
  7 10  1  0
 10 11  1  0
 11 12  2  0
 12 13  1  0
 13 14  2  0
 14 15  1  0
 15 16  1  0
 15 17  1  0
 15 18  1  0
 18 19  1  0
 18 20  1  0
 18 21  1  0
 21 22  2  0
 22 23  1  0
 22 24  1  0
 24 25  1  0
 24 26  2  0
 26 27  1  0
 26 28  1  0
 28 29  1  0
 28 30  2  0
 30 31  1  0
 13 32  1  0
 32 33  2  0
 33 34  1  0
 34 35  1  0
 35 36  1  0
 35 37  1  0
 35 38  1  0
 38 39  1  0
 38 40  1  0
 38 41  1  0
 41 42  1  0
 42 43  1  0
 42 44  1  0
 42 45  1  0
 45 46  1  0
 45 47  1  0
 33 48  1  0
 10 49  1  0
 49 50  1  0
 50 51  1  0
 50 52  1  0
 50 53  1  0
 49 54  2  0
 54 55  1  0
  8  2  1  0
 48 11  1  0
 54  6  1  0
 30 21  1  0
 45 34  1  0
M  CHG  3  27  -1  48  -1  54   1
M  END
>  <UniqueID>  (68) 
63

>  <SMILES>  (68) 
Cc1[nH+]c2cnccc2n1-c1n/c(=N/CCc2ccc([O-])cc2)nc(N2CCOCC2)[n-]1

>  <Energy>  (68) 
101.86291760782534

>  <Genealogy>  (68) 
Cc1[nH+]c2cnccc2n1-c1nc(=NCCc2ccc([O-])cc2)nc(N2CCOCC2)[n-]1 (protonated)
Cc1[nH+]c2cnccc2n1-c1n/c(=N/CCc2ccc([O-])cc2)nc(N2CCOCC2)[n-]1 (cis-trans isomerization)
Cc1[nH+]c2cnccc2n1-c1n/c(=N/CCc2ccc([O-])cc2)nc(N2CCOCC2)[n-]1 (3D coordinates assigned)
Cc1[nH+]c2cnccc2n1-c1n/c(=N/CCc2ccc([O-])cc2)nc(N2CCOCC2)[n-]1 (nonaromatic ring conformer: 101.86291760782534 kcal/mol)

>  <smiles>  (68) 
Cc1nc2cnccc2n1-c1nc(=NCCc2ccc(O)cc2)nc(N2CCOCC2)[nH]1

>  <score_type>  (68) 
oracle

>  <origin>  (68) 
adg

>  <m_score__min__energy>  (68) 
-11.699999999999999

>  <m_primary>  (68) 
energy

$$$$
68:0
     RDKit          3D

 26 26  0  0  0  0  0  0  0  0999 V2000
   58.7680   34.3130   45.2290 C   0  0  0  0  0  0  0  0  0  0  0  0
   57.4870   33.5300   44.9420 C   0  0  0  0  0  0  0  0  0  0  0  0
   57.7480   32.2750   44.1000 C   0  0  0  0  0  0  0  0  0  0  0  0
   57.2120   31.0460   44.7650 C   0  0  0  0  0  0  0  0  0  0  0  0
   56.0350   30.6650   44.5170 O   0  0  0  0  0  0  0  0  0  0  0  0
   58.0390   30.3170   45.6290 O   0  0  0  0  0  0  0  0  0  0  0  0
   58.1550   28.9200   45.6510 C   0  0  0  0  0  0  0  0  0  0  0  0
   59.3480   28.2610   45.3080 C   0  0  0  0  0  0  0  0  0  0  0  0
   59.4120   26.8670   45.3320 C   0  0  0  0  0  0  0  0  0  0  0  0
   58.2890   26.1170   45.6880 C   0  0  0  0  0  0  0  0  0  0  0  0
   57.0810   26.7560   46.0160 C   0  0  0  0  0  0  0  0  0  0  0  0
   55.9220   25.9820   46.3730 N   0  0  0  0  0  0  0  0  0  0  0  0
   54.7830   26.3280   45.9950 O   0  0  0  0  0  0  0  0  0  0  0  0
   56.0480   24.8450   47.1380 O   0  0  0  0  0  0  0  0  0  0  0  0
   57.0260   28.1630   45.9880 C   0  0  0  0  0  0  0  0  0  0  0  0
   58.9091   34.3993   46.3165 H   0  0  0  0  0  0  0  0  0  0  0  0
   59.6268   33.7853   44.7885 H   0  0  0  0  0  0  0  0  0  0  0  0
   58.6900   35.3179   44.7885 H   0  0  0  0  0  0  0  0  0  0  0  0
   57.0360   33.2268   45.8984 H   0  0  0  0  0  0  0  0  0  0  0  0
   56.8134   34.1849   44.3698 H   0  0  0  0  0  0  0  0  0  0  0  0
   57.2599   32.3935   43.1214 H   0  0  0  0  0  0  0  0  0  0  0  0
   58.8356   32.1577   43.9840 H   0  0  0  0  0  0  0  0  0  0  0  0
   60.2340   28.8457   45.0197 H   0  0  0  0  0  0  0  0  0  0  0  0
   60.3506   26.3571   45.0695 H   0  0  0  0  0  0  0  0  0  0  0  0
   58.3504   25.0190   45.7118 H   0  0  0  0  0  0  0  0  0  0  0  0
   56.0836   28.6742   46.2341 H   0  0  0  0  0  0  0  0  0  0  0  0
  1  2  1  0
  2  3  1  0
  3  4  1  0
  4  5  2  0
  4  6  1  0
  6  7  1  0
  7  8  2  0
  8  9  1  0
  9 10  2  0
 10 11  1  0
 11 12  1  0
 12 13  2  0
 12 14  1  0
 11 15  2  0
 15  7  1  0
  1 16  1  0
  1 17  1  0
  1 18  1  0
  2 19  1  0
  2 20  1  0
  3 21  1  0
  3 22  1  0
  8 23  1  0
  9 24  1  0
 10 25  1  0
 15 26  1  0
M  CHG  2  12   1  14  -1
M  END
>  <UniqueID>  (69) 
64

>  <SMILES>  (69) 
CCCC(=O)Oc1cccc([N+](=O)[O-])c1

>  <Energy>  (69) 
24.073811496849416

>  <Genealogy>  (69) 
CCCC(=O)Oc1cccc([N+](=O)[O-])c1 (3D coordinates assigned)
CCCC(=O)Oc1cccc([N+](=O)[O-])c1 (optimized conformer: 24.073811496849416 kcal/mol)

>  <smiles>  (69) 
CCCC(=O)Oc1cccc([N+](=O)[O-])c1

>  <score_type>  (69) 
oracle

>  <origin>  (69) 
adg

>  <m_score__min__energy>  (69) 
-6.21

>  <m_primary>  (69) 
energy

$$$$
69:0
     RDKit          3D

 36 37  0  0  0  0  0  0  0  0999 V2000
   60.1180   34.3900   46.0470 C   0  0  0  0  0  0  0  0  0  0  0  0
   60.1230   33.0710   46.7630 C   0  0  0  0  0  0  0  0  0  0  0  0
   58.9190   32.3860   46.9860 C   0  0  0  0  0  0  0  0  0  0  0  0
   58.9230   31.1380   47.6180 C   0  0  0  0  0  0  0  0  0  0  0  0
   60.1330   30.5560   48.0220 C   0  0  0  0  0  0  0  0  0  0  0  0
   60.1330   28.9810   48.8120 S   0  0  0  0  0  0  0  0  0  0  0  0
   61.4640   28.7220   49.4590 O   0  0  0  0  0  0  0  0  0  0  0  0
   59.0630   28.9690   49.8660 O   0  0  0  0  0  0  0  0  0  0  0  0
   59.8040   27.7250   47.6630 N   0  0  0  0  0  0  0  0  0  0  0  0
   58.5110   27.4050   47.1310 C   0  0  0  0  0  0  0  0  0  0  0  0
   57.9290   26.1810   47.4790 C   0  0  0  0  0  0  0  0  0  0  0  0
   56.6790   25.8260   46.9730 C   0  0  0  0  0  0  0  0  0  0  0  0
   55.9930   26.6930   46.1190 C   0  0  0  0  0  0  0  0  0  0  0  0
   54.7480   26.3210   45.6210 O   0  0  0  0  0  0  0  0  0  0  0  0
   56.5530   27.9290   45.7670 C   0  0  0  0  0  0  0  0  0  0  0  0
   55.8200   28.7940   44.8870 N   0  0  0  0  0  0  0  0  0  0  0  0
   56.4580   30.1640   44.0430 S   0  0  0  0  0  0  0  0  0  0  0  0
   58.2370   30.1260   44.0730 C   0  0  0  0  0  0  0  0  0  0  0  0
   55.9870   31.4150   44.7320 O   0  0  0  0  0  0  0  0  0  0  0  0
   55.9610   30.1770   42.6230 O   0  0  0  0  0  0  0  0  0  0  0  0
   57.8170   28.2820   46.2750 C   0  0  0  0  0  0  0  0  0  0  0  0
   61.3390   31.2290   47.7820 C   0  0  0  0  0  0  0  0  0  0  0  0
   61.3340   32.4780   47.1530 C   0  0  0  0  0  0  0  0  0  0  0  0
   60.1149   35.2070   46.7835 H   0  0  0  0  0  0  0  0  0  0  0  0
   61.0159   34.4683   45.4163 H   0  0  0  0  0  0  0  0  0  0  0  0
   59.2196   34.4615   45.4163 H   0  0  0  0  0  0  0  0  0  0  0  0
   57.9672   32.8325   46.6623 H   0  0  0  0  0  0  0  0  0  0  0  0
   57.9741   30.6117   47.7985 H   0  0  0  0  0  0  0  0  0  0  0  0
   58.4603   25.4952   48.1553 H   0  0  0  0  0  0  0  0  0  0  0  0
   56.2313   24.8594   47.2474 H   0  0  0  0  0  0  0  0  0  0  0  0
   58.5860   30.1185   45.1161 H   0  0  0  0  0  0  0  0  0  0  0  0
   58.5931   29.2200   43.5607 H   0  0  0  0  0  0  0  0  0  0  0  0
   58.6315   31.0159   43.5607 H   0  0  0  0  0  0  0  0  0  0  0  0
   58.2656   29.2485   46.0019 H   0  0  0  0  0  0  0  0  0  0  0  0
   62.2919   30.7734   48.0893 H   0  0  0  0  0  0  0  0  0  0  0  0
   62.2842   32.9985   46.9628 H   0  0  0  0  0  0  0  0  0  0  0  0
  1  2  1  0
  2  3  2  0
  3  4  1  0
  4  5  2  0
  5  6  1  0
  6  7  2  0
  6  8  2  0
  6  9  1  0
  9 10  1  0
 10 11  2  0
 11 12  1  0
 12 13  2  0
 13 14  1  0
 13 15  1  0
 15 16  1  0
 16 17  1  0
 17 18  1  0
 17 19  2  0
 17 20  2  0
 15 21  2  0
  5 22  1  0
 22 23  2  0
 23  2  1  0
 21 10  1  0
  1 24  1  0
  1 25  1  0
  1 26  1  0
  3 27  1  0
  4 28  1  0
 11 29  1  0
 12 30  1  0
 18 31  1  0
 18 32  1  0
 18 33  1  0
 21 34  1  0
 22 35  1  0
 23 36  1  0
M  CHG  3   9  -1  14  -1  16  -1
M  END
>  <UniqueID>  (70) 
65

>  <SMILES>  (70) 
Cc1ccc(S(=O)(=O)[N-]c2ccc([O-])c([N-]S(C)(=O)=O)c2)cc1

>  <Energy>  (70) 
35.74911730541605

>  <Genealogy>  (70) 
Cc1ccc(S(=O)(=O)[N-]c2ccc([O-])c([N-]S(C)(=O)=O)c2)cc1 (protonated)
Cc1ccc(S(=O)(=O)[N-]c2ccc([O-])c([N-]S(C)(=O)=O)c2)cc1 (3D coordinates assigned)
Cc1ccc(S(=O)(=O)[N-]c2ccc([O-])c([N-]S(C)(=O)=O)c2)cc1 (optimized conformer: 35.74911730541605 kcal/mol)

>  <smiles>  (70) 
Cc1ccc(S(=O)(=O)Nc2ccc(O)c(NS(C)(=O)=O)c2)cc1

>  <score_type>  (70) 
oracle

>  <origin>  (70) 
adg

>  <m_score__min__energy>  (70) 
-13.550000000000001

>  <m_primary>  (70) 
energy

$$$$
70:0
     RDKit          3D

 43 46  0  0  1  0  0  0  0  0999 V2000
   63.3690   33.7740   46.3910 C   0  0  0  0  0  0  0  0  0  0  0  0
   62.8980   32.7780   47.3560 N   0  0  0  0  0  0  0  0  0  0  0  0
   61.8490   31.9450   47.1320 C   0  0  0  0  0  0  0  0  0  0  0  0
   61.6830   31.1560   48.2210 C   0  0  0  0  0  0  0  0  0  0  0  0
   60.7290   30.0840   48.5760 C   0  0  0  0  0  0  0  0  0  0  0  0
   60.5870   29.0540   47.6050 N   0  0  0  0  0  0  0  0  0  0  0  0
   59.6780   28.9910   46.5390 C   0  0  0  0  0  0  0  0  0  0  0  0
   59.5800   27.9140   45.7060 C   0  0  0  0  0  0  0  0  0  0  0  0
   58.7290   27.7970   44.6390 C   0  0  0  0  0  0  0  0  0  0  0  0
   57.8930   28.8390   44.3650 C   0  0  0  0  0  0  0  0  0  0  0  0
   57.0620   28.7150   43.3170 N   0  0  0  0  0  0  0  0  0  0  0  0
   56.2180   29.7100   43.0030 C   0  0  0  0  0  0  0  0  0  0  0  0
   56.2540   30.8060   43.7780 N   0  0  0  0  0  0  0  0  0  0  0  0
   57.0710   30.9630   44.8320 C   0  0  0  0  0  0  0  0  0  0  0  0
   57.0250   32.0160   45.4860 N   0  0  0  0  0  0  0  0  0  0  0  0
   57.8940   33.0400   45.7410 C   0  0  0  0  0  0  0  0  0  0  0  0
   58.4040   33.9130   44.7450 C   0  0  0  0  0  0  0  0  0  0  0  0
   59.3570   34.8460   45.0650 C   0  0  0  0  0  0  0  0  0  0  0  0
   59.8550   34.9780   46.3560 C   0  0  0  0  0  0  0  0  0  0  0  0
   59.3460   34.1180   47.3210 C   0  0  0  0  0  0  0  0  0  0  0  0
   59.9430   34.2400   48.9810 Cl  0  0  0  0  0  0  0  0  0  0  0  0
   58.3970   33.1680   47.0620 C   0  0  0  0  0  0  0  0  0  0  0  0
   57.9360   29.9680   45.1720 C   0  0  0  0  0  0  0  0  0  0  0  0
   58.7990   30.0560   46.2320 C   0  0  0  0  0  0  0  0  0  0  0  0
   62.6890   31.5580   49.1150 C   0  0  0  0  0  0  0  0  0  0  0  0
   63.4100   32.5480   48.5560 N   0  0  0  0  0  0  0  0  0  0  0  0
   63.7790   34.6411   46.9296 H   0  0  0  0  0  0  0  0  0  0  0  0
   64.1528   33.3305   45.7593 H   0  0  0  0  0  0  0  0  0  0  0  0
   62.5289   34.0984   45.7593 H   0  0  0  0  0  0  0  0  0  0  0  0
   61.2364   31.9157   46.2189 H   0  0  0  0  0  0  0  0  0  0  0  0
   61.0696   29.6224   49.5146 H   0  0  0  0  0  0  0  0  0  0  0  0
   59.7436   30.5663   48.6560 H   0  0  0  0  0  0  0  0  0  0  0  0
   61.2550   28.2230   47.6980 H   0  0  0  0  0  0  0  0  0  0  0  0
   60.2453   27.0621   45.9103 H   0  0  0  0  0  0  0  0  0  0  0  0
   58.7202   26.8876   44.0202 H   0  0  0  0  0  0  0  0  0  0  0  0
   57.0480   27.8440   42.7190 H   0  0  0  0  0  0  0  0  0  0  0  0
   55.5282   29.6313   42.1498 H   0  0  0  0  0  0  0  0  0  0  0  0
   58.0333   33.8410   43.7118 H   0  0  0  0  0  0  0  0  0  0  0  0
   59.7390   35.5102   44.2758 H   0  0  0  0  0  0  0  0  0  0  0  0
   60.6186   35.7304   46.6027 H   0  0  0  0  0  0  0  0  0  0  0  0
   58.0290   32.5129   47.8654 H   0  0  0  0  0  0  0  0  0  0  0  0
   58.8087   30.9649   46.8515 H   0  0  0  0  0  0  0  0  0  0  0  0
   62.8606   31.1313   50.1142 H   0  0  0  0  0  0  0  0  0  0  0  0
  1  2  1  0
  2  3  1  0
  3  4  2  0
  4  5  1  0
  5  6  1  0
  6  7  1  0
  7  8  2  0
  8  9  1  0
  9 10  2  0
 10 11  1  0
 11 12  1  0
 12 13  2  0
 13 14  1  0
 14 15  2  0
 15 16  1  0
 16 17  2  0
 17 18  1  0
 18 19  2  0
 19 20  1  0
 20 21  1  0
 20 22  2  0
 14 23  1  0
 23 24  2  0
  4 25  1  0
 25 26  2  0
 26  2  1  0
 24  7  1  0
 23 10  1  0
 22 16  1  0
  1 27  1  0
  1 28  1  0
  1 29  1  0
  3 30  1  0
  5 31  1  0
  5 32  1  0
  6 33  1  0
  8 34  1  0
  9 35  1  0
 11 36  1  0
 12 37  1  0
 17 38  1  0
 18 39  1  0
 19 40  1  0
 22 41  1  0
 24 42  1  0
 25 43  1  0
M  END
>  <smiles>  (71) 
Cn1cc(CNc2ccc3[nH]cnc(=Nc4cccc(Cl)c4)c3c2)cn1

>  <score_type>  (71) 
oracle

>  <origin>  (71) 
adg

>  <m_score__min__energy>  (71) 
-8.7100000000000009

>  <m_primary>  (71) 
energy

$$$$
71:0
     RDKit          3D

 35 37  0  0  0  0  0  0  0  0999 V2000
   54.8230   26.1230   45.9790 N   0  0  0  0  0  0  0  0  0  0  0  0
   56.4880   25.7510   46.2540 S   0  0  0  0  0  0  0  0  0  0  0  0
   56.6220   24.9780   47.5360 O   0  0  0  0  0  0  0  0  0  0  0  0
   57.0070   24.9060   45.1250 O   0  0  0  0  0  0  0  0  0  0  0  0
   57.4160   27.2440   46.3570 C   0  0  0  0  0  0  0  0  0  0  0  0
   57.0530   28.3540   45.5860 C   0  0  0  0  0  0  0  0  0  0  0  0
   57.7980   29.5360   45.6570 C   0  0  0  0  0  0  0  0  0  0  0  0
   58.9230   29.6240   46.4980 C   0  0  0  0  0  0  0  0  0  0  0  0
   59.7220   30.8750   46.5830 C   0  0  0  0  0  0  0  0  0  0  0  0
   59.3030   32.1630   46.2440 C   0  0  0  0  0  0  0  0  0  0  0  0
   60.2830   33.1450   46.4380 C   0  0  0  0  0  0  0  0  0  0  0  0
   61.4890   32.6440   46.9160 C   0  0  0  0  0  0  0  0  0  0  0  0
   62.6740   33.4530   47.2630 C   0  0  0  0  0  0  0  0  0  0  0  0
   63.2300   34.1350   46.3610 O   0  0  0  0  0  0  0  0  0  0  0  0
   63.2180   33.5080   48.6390 C   0  0  0  0  0  0  0  0  0  0  0  0
   64.4510   32.9110   48.9580 C   0  0  0  0  0  0  0  0  0  0  0  0
   64.9590   32.9880   50.2590 C   0  0  0  0  0  0  0  0  0  0  0  0
   64.2480   33.6680   51.2500 C   0  0  0  0  0  0  0  0  0  0  0  0
   64.7420   33.7430   52.5100 F   0  0  0  0  0  0  0  0  0  0  0  0
   63.0310   34.2820   50.9390 C   0  0  0  0  0  0  0  0  0  0  0  0
   62.5200   34.2080   49.6390 C   0  0  0  0  0  0  0  0  0  0  0  0
   61.3170   30.9820   47.1220 S   0  0  0  0  0  0  0  0  0  0  0  0
   59.2810   28.5000   47.2650 C   0  0  0  0  0  0  0  0  0  0  0  0
   58.5360   27.3200   47.1910 C   0  0  0  0  0  0  0  0  0  0  0  0
   54.7810   26.7170   45.1210 H   0  0  0  0  0  0  0  0  0  0  0  0
   56.1783   28.2969   44.9214 H   0  0  0  0  0  0  0  0  0  0  0  0
   57.5018   30.4043   45.0501 H   0  0  0  0  0  0  0  0  0  0  0  0
   58.2966   32.3860   45.8601 H   0  0  0  0  0  0  0  0  0  0  0  0
   60.1144   34.2122   46.2316 H   0  0  0  0  0  0  0  0  0  0  0  0
   65.0191   32.3804   48.1797 H   0  0  0  0  0  0  0  0  0  0  0  0
   65.9204   32.5120   50.5019 H   0  0  0  0  0  0  0  0  0  0  0  0
   62.4745   34.8241   51.7178 H   0  0  0  0  0  0  0  0  0  0  0  0
   61.5664   34.7003   49.3975 H   0  0  0  0  0  0  0  0  0  0  0  0
   60.1561   28.5506   47.9296 H   0  0  0  0  0  0  0  0  0  0  0  0
   58.8318   26.4471   47.7914 H   0  0  0  0  0  0  0  0  0  0  0  0
  1  2  1  0
  2  3  2  0
  2  4  2  0
  2  5  1  0
  5  6  2  0
  6  7  1  0
  7  8  2  0
  8  9  1  0
  9 10  2  0
 10 11  1  0
 11 12  2  0
 12 13  1  0
 13 14  2  0
 13 15  1  0
 15 16  2  0
 16 17  1  0
 17 18  2  0
 18 19  1  0
 18 20  1  0
 20 21  2  0
 12 22  1  0
  8 23  1  0
 23 24  2  0
 24  5  1  0
 22  9  1  0
 21 15  1  0
  1 25  1  0
  6 26  1  0
  7 27  1  0
 10 28  1  0
 11 29  1  0
 16 30  1  0
 17 31  1  0
 20 32  1  0
 21 33  1  0
 23 34  1  0
 24 35  1  0
M  CHG  1   1  -1
M  END
>  <UniqueID>  (72) 
66

>  <SMILES>  (72) 
[NH-]S(=O)(=O)c1ccc(-c2ccc(C(=O)c3ccc(F)cc3)s2)cc1

>  <Energy>  (72) 
70.61313236561716

>  <Genealogy>  (72) 
[NH-]S(=O)(=O)c1ccc(-c2ccc(C(=O)c3ccc(F)cc3)s2)cc1 (protonated)
[NH-]S(=O)(=O)c1ccc(-c2ccc(C(=O)c3ccc(F)cc3)s2)cc1 (3D coordinates assigned)
[NH-]S(=O)(=O)c1ccc(-c2ccc(C(=O)c3ccc(F)cc3)s2)cc1 (optimized conformer: 70.61313236561716 kcal/mol)

>  <smiles>  (72) 
NS(=O)(=O)c1ccc(-c2ccc(C(=O)c3ccc(F)cc3)s2)cc1

>  <score_type>  (72) 
oracle

>  <origin>  (72) 
adg

>  <m_score__min__energy>  (72) 
-10.9

>  <m_primary>  (72) 
energy

$$$$
72:0
     RDKit          3D

 34 35  0  0  0  0  0  0  0  0999 V2000
   56.2900   30.1420   43.5480 C   0  0  0  0  0  0  0  0  0  0  0  0
   56.4140   30.6440   44.8690 O   0  0  0  0  0  0  0  0  0  0  0  0
   57.7700   30.7500   45.3070 C   0  0  0  0  0  0  0  0  0  0  0  0
   58.1260   32.2080   45.6510 C   0  0  0  0  0  0  0  0  0  0  0  0
   58.2010   33.1730   44.6260 C   0  0  0  0  0  0  0  0  0  0  0  0
   58.5790   34.4890   44.9080 C   0  0  0  0  0  0  0  0  0  0  0  0
   58.9150   34.8570   46.2100 C   0  0  0  0  0  0  0  0  0  0  0  0
   58.8870   33.9080   47.2320 C   0  0  0  0  0  0  0  0  0  0  0  0
   58.5090   32.5890   46.9560 C   0  0  0  0  0  0  0  0  0  0  0  0
   58.0470   29.7460   46.4630 C   0  0  0  0  0  0  0  0  0  0  0  0
   59.3790   29.2740   46.4180 O   0  0  0  0  0  0  0  0  0  0  0  0
   59.6150   28.5000   45.2410 C   0  0  0  0  0  0  0  0  0  0  0  0
   61.1150   28.5770   44.9100 C   0  0  0  0  0  0  0  0  0  0  0  0
   59.2640   27.0300   45.5220 C   0  0  0  0  0  0  0  0  0  0  0  0
   58.8560   28.9300   44.1100 O   0  0  0  0  0  0  0  0  0  0  0  0
   58.6670   30.3300   44.1230 C   0  0  0  0  0  0  0  0  0  0  0  0
   56.0264   29.0747   43.5846 H   0  0  0  0  0  0  0  0  0  0  0  0
   55.5018   30.6964   43.0175 H   0  0  0  0  0  0  0  0  0  0  0  0
   57.2457   30.2656   43.0175 H   0  0  0  0  0  0  0  0  0  0  0  0
   57.9591   32.8870   43.5917 H   0  0  0  0  0  0  0  0  0  0  0  0
   58.6114   35.2357   44.1009 H   0  0  0  0  0  0  0  0  0  0  0  0
   59.2021   35.8955   46.4314 H   0  0  0  0  0  0  0  0  0  0  0  0
   59.1626   34.1969   48.2570 H   0  0  0  0  0  0  0  0  0  0  0  0
   58.5102   31.8418   47.7633 H   0  0  0  0  0  0  0  0  0  0  0  0
   57.8768   30.2504   47.4256 H   0  0  0  0  0  0  0  0  0  0  0  0
   57.3679   28.8879   46.3512 H   0  0  0  0  0  0  0  0  0  0  0  0
   61.6955   28.6068   45.8439 H   0  0  0  0  0  0  0  0  0  0  0  0
   61.4072   27.6927   44.3247 H   0  0  0  0  0  0  0  0  0  0  0  0
   61.3151   29.4866   44.3247 H   0  0  0  0  0  0  0  0  0  0  0  0
   59.2243   26.8638   46.6086 H   0  0  0  0  0  0  0  0  0  0  0  0
   58.2847   26.7958   45.0792 H   0  0  0  0  0  0  0  0  0  0  0  0
   60.0318   26.3786   45.0792 H   0  0  0  0  0  0  0  0  0  0  0  0
   59.6447   30.8252   44.2176 H   0  0  0  0  0  0  0  0  0  0  0  0
   58.1762   30.6287   43.1850 H   0  0  0  0  0  0  0  0  0  0  0  0
  1  2  1  0
  2  3  1  0
  3  4  1  0
  4  5  2  0
  5  6  1  0
  6  7  2  0
  7  8  1  0
  8  9  2  0
  3 10  1  0
 10 11  1  0
 11 12  1  0
 12 13  1  0
 12 14  1  0
 12 15  1  0
 15 16  1  0
 16  3  1  0
  9  4  1  0
  1 17  1  0
  1 18  1  0
  1 19  1  0
  5 20  1  0
  6 21  1  0
  7 22  1  0
  8 23  1  0
  9 24  1  0
 10 25  1  0
 10 26  1  0
 13 27  1  0
 13 28  1  0
 13 29  1  0
 14 30  1  0
 14 31  1  0
 14 32  1  0
 16 33  1  0
 16 34  1  0
M  END
>  <UniqueID>  (73) 
67

>  <SMILES>  (73) 
COC1(c2ccccc2)COC(C)(C)OC1

>  <Energy>  (73) 
52.29057212906337

>  <Genealogy>  (73) 
COC1(c2ccccc2)COC(C)(C)OC1 (3D coordinates assigned)
COC1(c2ccccc2)COC(C)(C)OC1 (nonaromatic ring conformer: 52.29057212906337 kcal/mol)

>  <smiles>  (73) 
COC1(c2ccccc2)COC(C)(C)OC1

>  <score_type>  (73) 
oracle

>  <origin>  (73) 
adg

>  <m_score__min__energy>  (73) 
-6.0599999999999996

>  <m_primary>  (73) 
energy

$$$$
73:0
     RDKit          3D

 36 37  0  0  0  0  0  0  0  0999 V2000
   58.3007   33.7930   47.9650 H   0  0  0  0  0  0  0  0  0  0  0  0
   59.1960   34.3540   47.6590 C   0  0  0  0  0  0  0  0  0  0  0  0
   59.2840   34.9440   45.9630 S   0  0  0  0  0  0  0  0  0  0  0  0
   58.6660   33.4000   45.2970 C   0  0  0  0  0  0  0  0  0  0  0  0
   58.5630   32.2730   46.1170 C   0  0  0  0  0  0  0  0  0  0  0  0
   58.8851   32.3281   47.1673 H   0  0  0  0  0  0  0  0  0  0  0  0
   58.0520   31.0760   45.6070 C   0  0  0  0  0  0  0  0  0  0  0  0
   57.9706   30.1946   46.2600 H   0  0  0  0  0  0  0  0  0  0  0  0
   57.6410   30.9910   44.2640 C   0  0  0  0  0  0  0  0  0  0  0  0
   57.0470   29.6990   43.7330 C   0  0  0  0  0  0  0  0  0  0  0  0
   57.3240   29.6143   42.6718 H   0  0  0  0  0  0  0  0  0  0  0  0
   57.6250   28.4870   44.4730 C   0  0  0  0  0  0  0  0  0  0  0  0
   57.5478   28.6490   45.5583 H   0  0  0  0  0  0  0  0  0  0  0  0
   57.0603   27.5846   44.1958 H   0  0  0  0  0  0  0  0  0  0  0  0
   58.6816   28.3578   44.1958 H   0  0  0  0  0  0  0  0  0  0  0  0
   55.5150   29.7140   43.8100 C   0  0  0  0  0  0  0  0  0  0  0  0
   55.2009   29.7171   44.8642 H   0  0  0  0  0  0  0  0  0  0  0  0
   55.1316   30.6159   43.3105 H   0  0  0  0  0  0  0  0  0  0  0  0
   55.1140   28.8197   43.3105 H   0  0  0  0  0  0  0  0  0  0  0  0
   57.7630   32.1280   43.4420 C   0  0  0  0  0  0  0  0  0  0  0  0
   57.4538   32.0752   42.3877 H   0  0  0  0  0  0  0  0  0  0  0  0
   58.2740   33.3230   43.9560 C   0  0  0  0  0  0  0  0  0  0  0  0
   58.3682   34.2047   43.3051 H   0  0  0  0  0  0  0  0  0  0  0  0
   60.1540   34.5560   48.5720 C   0  0  0  0  0  0  0  0  0  0  0  0
   59.8951   35.1431   49.4655 H   0  0  0  0  0  0  0  0  0  0  0  0
   61.5350   34.0440   48.4610 C   0  0  0  0  0  0  0  0  0  0  0  0
   61.9790   33.5410   47.2280 C   0  0  0  0  0  0  0  0  0  0  0  0
   61.3037   33.5433   46.3597 H   0  0  0  0  0  0  0  0  0  0  0  0
   63.2770   33.0370   47.1000 C   0  0  0  0  0  0  0  0  0  0  0  0
   63.6243   32.6567   46.1280 H   0  0  0  0  0  0  0  0  0  0  0  0
   64.1340   33.0150   48.2030 C   0  0  0  0  0  0  0  0  0  0  0  0
   65.1577   32.6267   48.0973 H   0  0  0  0  0  0  0  0  0  0  0  0
   63.6890   33.4870   49.4410 C   0  0  0  0  0  0  0  0  0  0  0  0
   64.3601   33.4595   50.3121 H   0  0  0  0  0  0  0  0  0  0  0  0
   62.3930   33.9940   49.5750 C   0  0  0  0  0  0  0  0  0  0  0  0
   62.0433   34.3546   50.5536 H   0  0  0  0  0  0  0  0  0  0  0  0
  1  2  1  0
  2  3  1  0
  3  4  1  0
  4  5  2  0
  5  6  1  0
  5  7  1  0
  7  8  1  0
  7  9  2  0
  9 10  1  0
 10 11  1  0
 10 12  1  0
 12 13  1  0
 12 14  1  0
 12 15  1  0
 10 16  1  0
 16 17  1  0
 16 18  1  0
 16 19  1  0
  9 20  1  0
 20 21  1  0
 20 22  2  0
 22 23  1  0
  2 24  2  0
 24 25  1  0
 24 26  1  0
 26 27  2  0
 27 28  1  0
 27 29  1  0
 29 30  1  0
 29 31  2  0
 31 32  1  0
 31 33  1  0
 33 34  1  0
 33 35  2  0
 35 36  1  0
 22  4  1  0
 35 26  1  0
M  END
>  <UniqueID>  (74) 
68

>  <SMILES>  (74) 
CC(C)c1ccc(S/C=C\c2ccccc2)cc1

>  <Energy>  (74) 
32.94568667557693

>  <Genealogy>  (74) 
CC(C)c1ccc(S/C=C\c2ccccc2)cc1 (cis-trans isomerization)
CC(C)c1ccc(S/C=C\c2ccccc2)cc1 (3D coordinates assigned)
CC(C)c1ccc(S/C=C\c2ccccc2)cc1 (optimized conformer: 32.94568667557693 kcal/mol)

>  <smiles>  (74) 
CC(C)c1ccc(SC=Cc2ccccc2)cc1

>  <score_type>  (74) 
oracle

>  <origin>  (74) 
adg

>  <m_score__min__energy>  (74) 
-7.3200000000000003

>  <m_primary>  (74) 
energy

$$$$
74:0
     RDKit          3D

 34 35  0  0  0  0  0  0  0  0999 V2000
   66.3580   32.7300   50.1570 C   0  0  0  0  0  0  0  0  0  0  0  0
   64.7680   32.3500   50.8610 S   0  0  0  0  0  0  0  0  0  0  0  0
   64.6980   32.8220   52.2870 O   0  0  0  0  0  0  0  0  0  0  0  0
   64.5730   30.8610   50.8360 O   0  0  0  0  0  0  0  0  0  0  0  0
   63.5080   33.0930   49.9290 N   0  0  0  0  0  0  0  0  0  0  0  0
   62.5160   32.4020   49.1550 C   0  0  0  0  0  0  0  0  0  0  0  0
   62.7400   32.0120   47.8230 C   0  0  0  0  0  0  0  0  0  0  0  0
   61.7460   31.3390   47.1090 C   0  0  0  0  0  0  0  0  0  0  0  0
   60.5160   31.0340   47.7140 C   0  0  0  0  0  0  0  0  0  0  0  0
   59.4640   30.3390   46.9380 C   0  0  0  0  0  0  0  0  0  0  0  0
   58.2800   31.1260   46.0340 S   0  0  0  0  0  0  0  0  0  0  0  0
   57.5080   29.7480   45.4640 C   0  0  0  0  0  0  0  0  0  0  0  0
   56.4120   29.7620   44.4850 C   0  0  0  0  0  0  0  0  0  0  0  0
   56.5950   30.1980   43.3180 O   0  0  0  0  0  0  0  0  0  0  0  0
   55.1440   29.3330   44.8590 O   0  0  0  0  0  0  0  0  0  0  0  0
   58.1750   28.6350   45.9860 C   0  0  0  0  0  0  0  0  0  0  0  0
   57.8020   27.3090   45.7380 O   0  0  0  0  0  0  0  0  0  0  0  0
   57.3700   26.4310   46.7740 C   0  0  0  0  0  0  0  0  0  0  0  0
   55.9920   25.9250   46.4860 C   0  0  0  0  0  0  0  0  0  0  0  0
   55.1200   26.6960   46.0040 O   0  0  0  0  0  0  0  0  0  0  0  0
   55.6630   24.6050   46.7650 O   0  0  0  0  0  0  0  0  0  0  0  0
   59.2790   28.9600   46.7880 C   0  0  0  0  0  0  0  0  0  0  0  0
   60.4450   27.6100   47.4920 Br  0  0  0  0  0  0  0  0  0  0  0  0
   60.2870   31.4430   49.0370 C   0  0  0  0  0  0  0  0  0  0  0  0
   61.2830   32.1150   49.7520 C   0  0  0  0  0  0  0  0  0  0  0  0
   67.0845   32.9036   50.9645 H   0  0  0  0  0  0  0  0  0  0  0  0
   66.6948   31.8871   49.5357 H   0  0  0  0  0  0  0  0  0  0  0  0
   66.2773   33.6342   49.5357 H   0  0  0  0  0  0  0  0  0  0  0  0
   63.7026   32.2379   47.3409 H   0  0  0  0  0  0  0  0  0  0  0  0
   61.9281   31.0456   46.0646 H   0  0  0  0  0  0  0  0  0  0  0  0
   58.0628   25.5791   46.8398 H   0  0  0  0  0  0  0  0  0  0  0  0
   57.3569   26.9812   47.7264 H   0  0  0  0  0  0  0  0  0  0  0  0
   59.3182   31.2336   49.5141 H   0  0  0  0  0  0  0  0  0  0  0  0
   61.0961   32.4206   50.7920 H   0  0  0  0  0  0  0  0  0  0  0  0
  1  2  1  0
  2  3  2  0
  2  4  2  0
  2  5  1  0
  5  6  1  0
  6  7  2  0
  7  8  1  0
  8  9  2  0
  9 10  1  0
 10 11  1  0
 11 12  1  0
 12 13  1  0
 13 14  2  0
 13 15  1  0
 12 16  2  0
 16 17  1  0
 17 18  1  0
 18 19  1  0
 19 20  2  0
 19 21  1  0
 16 22  1  0
 22 23  1  0
  9 24  1  0
 24 25  2  0
 25  6  1  0
 22 10  2  0
  1 26  1  0
  1 27  1  0
  1 28  1  0
  7 29  1  0
  8 30  1  0
 18 31  1  0
 18 32  1  0
 24 33  1  0
 25 34  1  0
M  CHG  3   5  -1  15  -1  21  -1
M  END
>  <UniqueID>  (75) 
69

>  <SMILES>  (75) 
CS(=O)(=O)[N-]c1ccc(-c2sc(C(=O)[O-])c(OCC(=O)[O-])c2Br)cc1

>  <Energy>  (75) 
70.490495982084

>  <Genealogy>  (75) 
CS(=O)(=O)[N-]c1ccc(-c2sc(C(=O)[O-])c(OCC(=O)[O-])c2Br)cc1 (protonated)
CS(=O)(=O)[N-]c1ccc(-c2sc(C(=O)[O-])c(OCC(=O)[O-])c2Br)cc1 (3D coordinates assigned)
CS(=O)(=O)[N-]c1ccc(-c2sc(C(=O)[O-])c(OCC(=O)[O-])c2Br)cc1 (optimized conformer: 70.490495982084 kcal/mol)

>  <smiles>  (75) 
CS(=O)(=O)Nc1ccc(-c2sc(C(=O)O)c(OCC(=O)O)c2Br)cc1

>  <score_type>  (75) 
oracle

>  <origin>  (75) 
adg

>  <m_score__min__energy>  (75) 
-13.029999999999999

>  <m_primary>  (75) 
energy

$$$$
75:0
     RDKit          3D

 59 63  0  0  0  0  0  0  0  0999 V2000
   57.3530   34.3800   46.2990 O   0  0  0  0  0  0  0  0  0  0  0  0
   58.3580   33.8850   45.7200 C   0  0  0  0  0  0  0  0  0  0  0  0
   59.6820   34.5980   45.8010 C   0  0  0  0  0  0  0  0  0  0  0  0
   60.6660   33.8110   46.6120 C   0  0  0  0  0  0  0  0  0  0  0  0
   62.0000   33.9770   46.4120 N   0  0  0  0  0  0  0  0  0  0  0  0
   62.9060   33.3030   47.1640 C   0  0  0  0  0  0  0  0  0  0  0  0
   64.1370   33.4720   46.9600 O   0  0  0  0  0  0  0  0  0  0  0  0
   62.4730   32.4310   48.1640 C   0  0  0  0  0  0  0  0  0  0  0  0
   61.0900   32.2650   48.3690 C   0  0  0  0  0  0  0  0  0  0  0  0
   60.5670   31.3900   49.4020 N   0  0  0  0  0  0  0  0  0  0  0  0
   61.4210   30.3580   50.0100 C   0  0  0  0  0  0  0  0  0  0  0  0
   60.6120   29.3310   50.8100 C   0  0  0  0  0  0  0  0  0  0  0  0
   59.6570   29.9660   51.6300 O   0  0  0  0  0  0  0  0  0  0  0  0
   58.6860   30.5780   50.8120 C   0  0  0  0  0  0  0  0  0  0  0  0
   59.2900   31.7520   50.0440 C   0  0  0  0  0  0  0  0  0  0  0  0
   60.2270   32.9690   47.5850 N   0  0  0  0  0  0  0  0  0  0  0  0
   58.2100   32.7040   44.9090 N   0  0  0  0  0  0  0  0  0  0  0  0
   57.7780   32.7200   43.5080 C   0  0  0  0  0  0  0  0  0  0  0  0
   57.4600   31.2530   43.1360 C   0  0  0  0  0  0  0  0  0  0  0  0
   57.8110   30.5030   44.3700 C   0  0  0  0  0  0  0  0  0  0  0  0
   57.7510   29.1260   44.5760 C   0  0  0  0  0  0  0  0  0  0  0  0
   58.1420   28.6110   45.8260 C   0  0  0  0  0  0  0  0  0  0  0  0
   58.0150   26.8810   46.1280 S   0  0  0  0  0  0  0  0  0  0  0  0
   57.3860   26.6130   47.4670 O   0  0  0  0  0  0  0  0  0  0  0  0
   59.3950   26.2860   46.1090 O   0  0  0  0  0  0  0  0  0  0  0  0
   57.0520   26.1460   44.8830 N   0  0  0  0  0  0  0  0  0  0  0  0
   56.2570   24.9660   45.1000 C   0  0  0  0  0  0  0  0  0  0  0  0
   56.7520   23.6850   44.7830 C   0  0  0  0  0  0  0  0  0  0  0  0
   55.9730   22.5480   45.0110 C   0  0  0  0  0  0  0  0  0  0  0  0
   54.6900   22.6730   45.5470 C   0  0  0  0  0  0  0  0  0  0  0  0
   54.1820   23.9380   45.8540 C   0  0  0  0  0  0  0  0  0  0  0  0
   52.9350   24.0520   46.3730 F   0  0  0  0  0  0  0  0  0  0  0  0
   54.9580   25.0830   45.6300 C   0  0  0  0  0  0  0  0  0  0  0  0
   54.4360   26.3330   45.9480 O   0  0  0  0  0  0  0  0  0  0  0  0
   58.5990   29.4880   46.8340 C   0  0  0  0  0  0  0  0  0  0  0  0
   58.6510   30.8710   46.6000 C   0  0  0  0  0  0  0  0  0  0  0  0
   58.2280   31.3560   45.3550 C   0  0  0  0  0  0  0  0  0  0  0  0
   60.0803   34.7339   44.7847 H   0  0  0  0  0  0  0  0  0  0  0  0
   59.5265   35.5725   46.2870 H   0  0  0  0  0  0  0  0  0  0  0  0
   63.1998   31.8828   48.7814 H   0  0  0  0  0  0  0  0  0  0  0  0
   61.9662   29.8342   49.2110 H   0  0  0  0  0  0  0  0  0  0  0  0
   62.1108   30.8587   50.7054 H   0  0  0  0  0  0  0  0  0  0  0  0
   60.0946   28.6576   50.1109 H   0  0  0  0  0  0  0  0  0  0  0  0
   61.3029   28.7646   51.4518 H   0  0  0  0  0  0  0  0  0  0  0  0
   58.2992   29.8384   50.0955 H   0  0  0  0  0  0  0  0  0  0  0  0
   57.8720   30.9535   51.4495 H   0  0  0  0  0  0  0  0  0  0  0  0
   58.5797   32.0722   49.2675 H   0  0  0  0  0  0  0  0  0  0  0  0
   59.4864   32.5633   50.7604 H   0  0  0  0  0  0  0  0  0  0  0  0
   56.8804   33.3454   43.3932 H   0  0  0  0  0  0  0  0  0  0  0  0
   58.5569   33.1389   42.8538 H   0  0  0  0  0  0  0  0  0  0  0  0
   56.3947   31.1309   42.8904 H   0  0  0  0  0  0  0  0  0  0  0  0
   58.0106   30.9049   42.2497 H   0  0  0  0  0  0  0  0  0  0  0  0
   57.4046   28.4544   43.7767 H   0  0  0  0  0  0  0  0  0  0  0  0
   56.9540   26.6760   43.9880 H   0  0  0  0  0  0  0  0  0  0  0  0
   57.7590   23.5797   44.3530 H   0  0  0  0  0  0  0  0  0  0  0  0
   56.3714   21.5520   44.7677 H   0  0  0  0  0  0  0  0  0  0  0  0
   54.0793   21.7761   45.7276 H   0  0  0  0  0  0  0  0  0  0  0  0
   58.9158   29.0853   47.8074 H   0  0  0  0  0  0  0  0  0  0  0  0
   59.0158   31.5591   47.3768 H   0  0  0  0  0  0  0  0  0  0  0  0
  1  2  2  0
  2  3  1  0
  3  4  1  0
  4  5  2  0
  5  6  1  0
  6  7  2  0
  6  8  1  0
  8  9  2  0
  9 10  1  0
 10 11  1  0
 11 12  1  0
 12 13  1  0
 13 14  1  0
 14 15  1  0
  9 16  1  0
  2 17  1  0
 17 18  1  0
 18 19  1  0
 19 20  1  0
 20 21  2  0
 21 22  1  0
 22 23  1  0
 23 24  2  0
 23 25  2  0
 23 26  1  0
 26 27  1  0
 27 28  2  0
 28 29  1  0
 29 30  2  0
 30 31  1  0
 31 32  1  0
 31 33  2  0
 33 34  1  0
 22 35  2  0
 35 36  1  0
 36 37  2  0
 16  4  1  0
 37 17  1  0
 15 10  1  0
 37 20  1  0
 33 27  1  0
  3 38  1  0
  3 39  1  0
  8 40  1  0
 11 41  1  0
 11 42  1  0
 12 43  1  0
 12 44  1  0
 14 45  1  0
 14 46  1  0
 15 47  1  0
 15 48  1  0
 18 49  1  0
 18 50  1  0
 19 51  1  0
 19 52  1  0
 21 53  1  0
 26 54  1  0
 28 55  1  0
 29 56  1  0
 30 57  1  0
 35 58  1  0
 36 59  1  0
M  CHG  2  16  -1  34  -1
M  END
>  <UniqueID>  (76) 
70

>  <SMILES>  (76) 
O=C(Cc1nc(=O)cc(N2CCOCC2)[n-]1)N1CCc2cc(S(=O)(=O)Nc3cccc(F)c3[O-])ccc21

>  <Energy>  (76) 
88.1332472847087

>  <Genealogy>  (76) 
O=C(Cc1nc(=O)cc(N2CCOCC2)[n-]1)N1CCc2cc(S(=O)(=O)Nc3cccc(F)c3[O-])ccc21 (protonated)
O=C(Cc1nc(=O)cc(N2CCOCC2)[n-]1)N1CCc2cc(S(=O)(=O)Nc3cccc(F)c3[O-])ccc21 (3D coordinates assigned)
O=C(Cc1nc(=O)cc(N2CCOCC2)[n-]1)N1CCc2cc(S(=O)(=O)Nc3cccc(F)c3[O-])ccc21 (nonaromatic ring conformer: 88.1332472847087 kcal/mol)

>  <smiles>  (76) 
O=C(Cc1nc(=O)cc(N2CCOCC2)[nH]1)N1CCc2cc(S(=O)(=O)Nc3cccc(F)c3O)ccc21

>  <score_type>  (76) 
oracle

>  <origin>  (76) 
adg

>  <m_score__min__energy>  (76) 
-14.869999999999999

>  <m_primary>  (76) 
energy

$$$$
76:0
     RDKit          3D

 37 40  0  0  0  0  0  0  0  0999 V2000
   51.1909   29.7592   55.5949 H   0  0  0  0  0  0  0  0  0  0  0  0
   51.9030   29.9340   54.7750 C   0  0  0  0  0  0  0  0  0  0  0  0
   53.2370   29.8520   55.0090 N   0  0  0  0  0  0  0  0  0  0  0  0
   54.1530   30.0680   54.0280 C   0  0  0  0  0  0  0  0  0  0  0  0
   55.5160   29.9770   54.3230 C   0  0  0  0  0  0  0  0  0  0  0  0
   55.8398   29.7159   55.3413 H   0  0  0  0  0  0  0  0  0  0  0  0
   56.4680   30.2160   53.3310 C   0  0  0  0  0  0  0  0  0  0  0  0
   57.5385   30.1266   53.5679 H   0  0  0  0  0  0  0  0  0  0  0  0
   56.0680   30.5700   52.0320 C   0  0  0  0  0  0  0  0  0  0  0  0
   57.0340   30.8080   50.9910 N   0  0  0  0  0  0  0  0  0  0  0  0
   57.0650   30.1420   50.1870 H   0  0  0  0  0  0  0  0  0  0  0  0
   57.8800   31.9640   50.9240 C   0  0  0  0  0  0  0  0  0  0  0  0
   57.6680   32.9510   51.6800 O   0  0  0  0  0  0  0  0  0  0  0  0
   58.9350   31.9920   49.9490 N   0  0  0  0  0  0  0  0  0  0  0  0
   59.0270   31.2920   48.8550 C   0  0  0  0  0  0  0  0  0  0  0  0
   58.7500   29.9720   48.8290 N   0  0  0  0  0  0  0  0  0  0  0  0
   58.9150   29.4440   47.5860 C   0  0  0  0  0  0  0  0  0  0  0  0
   58.7370   28.3805   47.3687 H   0  0  0  0  0  0  0  0  0  0  0  0
   59.3250   30.3460   46.6100 C   0  0  0  0  0  0  0  0  0  0  0  0
   59.5107   30.1128   45.5512 H   0  0  0  0  0  0  0  0  0  0  0  0
   59.4870   31.8560   47.3330 S   0  0  0  0  0  0  0  0  0  0  0  0
   54.7010   30.6390   51.7270 C   0  0  0  0  0  0  0  0  0  0  0  0
   54.3842   30.8943   50.7050 H   0  0  0  0  0  0  0  0  0  0  0  0
   53.7280   30.3850   52.7150 C   0  0  0  0  0  0  0  0  0  0  0  0
   52.3380   30.4550   52.4520 C   0  0  0  0  0  0  0  0  0  0  0  0
   51.7990   30.7430   51.1030 C   0  0  0  0  0  0  0  0  0  0  0  0
   51.9490   29.8010   50.0750 C   0  0  0  0  0  0  0  0  0  0  0  0
   52.4602   28.8476   50.2742 H   0  0  0  0  0  0  0  0  0  0  0  0
   51.4510   30.0710   48.8000 C   0  0  0  0  0  0  0  0  0  0  0  0
   51.5616   29.3322   47.9926 H   0  0  0  0  0  0  0  0  0  0  0  0
   50.8110   31.2880   48.5590 C   0  0  0  0  0  0  0  0  0  0  0  0
   50.4099   31.5093   47.5589 H   0  0  0  0  0  0  0  0  0  0  0  0
   50.6830   32.2000   49.5590 N   0  0  0  0  0  0  0  0  0  0  0  0
   51.1590   31.9640   50.8110 C   0  0  0  0  0  0  0  0  0  0  0  0
   51.0280   32.8480   51.6990 O   0  0  0  0  0  0  0  0  0  0  0  0
   51.4320   30.2390   53.4990 C   0  0  0  0  0  0  0  0  0  0  0  0
   50.3500   30.3101   53.3141 H   0  0  0  0  0  0  0  0  0  0  0  0
  1  2  1  0
  2  3  2  0
  3  4  1  0
  4  5  2  0
  5  6  1  0
  5  7  1  0
  7  8  1  0
  7  9  2  0
  9 10  1  0
 10 11  1  0
 10 12  1  0
 12 13  2  0
 12 14  1  0
 14 15  2  0
 15 16  1  0
 16 17  1  0
 17 18  1  0
 17 19  2  0
 19 20  1  0
 19 21  1  0
  9 22  1  0
 22 23  1  0
 22 24  2  0
 24 25  1  0
 25 26  1  0
 26 27  2  0
 27 28  1  0
 27 29  1  0
 29 30  1  0
 29 31  2  0
 31 32  1  0
 31 33  1  0
 33 34  1  0
 34 35  2  0
 25 36  2  0
 36 37  1  0
 36  2  1  0
 24  4  1  0
 34 26  1  0
 21 15  1  0
M  CHG  2  16  -1  33  -1
M  END
>  <UniqueID>  (77) 
71

>  <SMILES>  (77) 
O=C(/N=c1/[n-]ccs1)Nc1ccc2nccc(-c3ccc[n-]c3=O)c2c1

>  <Energy>  (77) 
92.4052952103036

>  <Genealogy>  (77) 
O=C(N=c1[n-]ccs1)Nc1ccc2nccc(-c3ccc[n-]c3=O)c2c1 (protonated)
O=C(/N=c1/[n-]ccs1)Nc1ccc2nccc(-c3ccc[n-]c3=O)c2c1 (cis-trans isomerization)
O=C(/N=c1/[n-]ccs1)Nc1ccc2nccc(-c3ccc[n-]c3=O)c2c1 (3D coordinates assigned)
O=C(/N=c1/[n-]ccs1)Nc1ccc2nccc(-c3ccc[n-]c3=O)c2c1 (optimized conformer: 92.4052952103036 kcal/mol)

>  <smiles>  (77) 
O=C(N=c1[nH]ccs1)Nc1ccc2nccc(-c3ccc[nH]c3=O)c2c1

>  <score_type>  (77) 
oracle

>  <origin>  (77) 
adg

>  <m_score__min__energy>  (77) 
-11.52

>  <m_primary>  (77) 
energy

$$$$
77:0
     RDKit          3D

 41 43  0  0  1  0  0  0  0  0999 V2000
   58.4030   32.0520   53.4530 C   0  0  0  0  0  0  0  0  0  0  0  0
   58.5440   32.3130   52.0090 C   0  0  0  0  0  0  0  0  0  0  0  0
   59.2130   33.3980   51.5290 C   0  0  0  0  0  0  0  0  0  0  0  0
   59.3200   33.5940   50.1970 N   0  0  0  0  0  0  0  0  0  0  0  0
   58.7910   32.7590   49.2840 C   0  0  0  0  0  0  0  0  0  0  0  0
   58.9170   32.9110   47.8650 C   0  0  0  0  0  0  0  0  0  0  0  0
   57.4070   33.0950   46.8620 S   0  0  0  0  0  0  0  0  0  0  0  0
   58.3490   33.2910   45.3110 C   0  0  0  0  0  0  0  0  0  0  0  0
   57.8420   33.4680   44.1560 N   0  0  0  0  0  0  0  0  0  0  0  0
   57.7720   32.4340   43.1440 C   0  0  0  0  0  0  0  0  0  0  0  0
   57.5650   31.1220   43.8710 C   0  0  0  0  0  0  0  0  0  0  0  0
   56.3240   30.3920   43.4370 C   0  0  0  0  0  0  0  0  0  0  0  0
   55.6390   29.9220   44.5670 F   0  0  0  0  0  0  0  0  0  0  0  0
   59.6380   33.2000   45.6970 N   0  0  0  0  0  0  0  0  0  0  0  0
   59.8940   33.0120   46.9650 C   0  0  0  0  0  0  0  0  0  0  0  0
   61.3440   32.8540   47.3960 C   0  0  0  0  0  0  0  0  0  0  0  0
   62.1580   33.9730   47.2900 C   0  0  0  0  0  0  0  0  0  0  0  0
   63.4820   33.9070   47.6650 C   0  0  0  0  0  0  0  0  0  0  0  0
   63.9610   32.6930   48.1480 C   0  0  0  0  0  0  0  0  0  0  0  0
   63.1370   31.5810   48.2490 C   0  0  0  0  0  0  0  0  0  0  0  0
   61.7910   31.6550   47.8650 C   0  0  0  0  0  0  0  0  0  0  0  0
   60.7710   30.2540   47.9970 Cl  0  0  0  0  0  0  0  0  0  0  0  0
   58.1300   31.6860   49.8170 N   0  0  0  0  0  0  0  0  0  0  0  0
   57.9880   31.4330   51.1060 C   0  0  0  0  0  0  0  0  0  0  0  0
   57.3610   30.4180   51.5060 O   0  0  0  0  0  0  0  0  0  0  0  0
   58.8508   32.8809   54.0209 H   0  0  0  0  0  0  0  0  0  0  0  0
   57.3363   31.9671   53.7078 H   0  0  0  0  0  0  0  0  0  0  0  0
   58.9167   31.1133   53.7078 H   0  0  0  0  0  0  0  0  0  0  0  0
   59.6671   34.1161   52.2277 H   0  0  0  0  0  0  0  0  0  0  0  0
   59.8130   34.4320   49.8880 H   0  0  0  0  0  0  0  0  0  0  0  0
   56.9294   32.6267   42.4636 H   0  0  0  0  0  0  0  0  0  0  0  0
   58.6916   32.4097   42.5409 H   0  0  0  0  0  0  0  0  0  0  0  0
   58.4348   30.4761   43.6806 H   0  0  0  0  0  0  0  0  0  0  0  0
   57.4490   31.3559   44.9396 H   0  0  0  0  0  0  0  0  0  0  0  0
   55.6740   31.0770   42.8728 H   0  0  0  0  0  0  0  0  0  0  0  0
   56.6034   29.5417   42.7975 H   0  0  0  0  0  0  0  0  0  0  0  0
   60.3920   33.2880   44.9340 H   0  0  0  0  0  0  0  0  0  0  0  0
   61.7443   34.9167   46.9049 H   0  0  0  0  0  0  0  0  0  0  0  0
   64.1392   34.7855   47.5852 H   0  0  0  0  0  0  0  0  0  0  0  0
   65.0140   32.6132   48.4559 H   0  0  0  0  0  0  0  0  0  0  0  0
   63.5434   30.6339   48.6335 H   0  0  0  0  0  0  0  0  0  0  0  0
  1  2  1  0
  2  3  2  0
  3  4  1  0
  4  5  1  0
  5  6  1  0
  6  7  1  0
  7  8  1  0
  8  9  2  0
  9 10  1  0
 10 11  1  0
 11 12  1  0
 12 13  1  0
  8 14  1  0
 14 15  1  0
 15 16  1  0
 16 17  2  0
 17 18  1  0
 18 19  2  0
 19 20  1  0
 20 21  2  0
 21 22  1  0
  5 23  2  0
 23 24  1  0
 24 25  2  0
 24  2  1  0
 15  6  2  0
 21 16  1  0
  1 26  1  0
  1 27  1  0
  1 28  1  0
  3 29  1  0
  4 30  1  0
 10 31  1  0
 10 32  1  0
 11 33  1  0
 11 34  1  0
 12 35  1  0
 12 36  1  0
 14 37  1  0
 17 38  1  0
 18 39  1  0
 19 40  1  0
 20 41  1  0
M  END
>  <smiles>  (78) 
Cc1c[nH]c(-c2sc(=NCCCF)[nH]c2-c2ccccc2Cl)nc1=O

>  <score_type>  (78) 
oracle

>  <origin>  (78) 
adg

>  <m_score__min__energy>  (78) 
-7.3099999999999996

>  <m_primary>  (78) 
energy

$$$$
78:0
     RDKit          3D

 76 80  0  0  1  0  0  0  0  0999 V2000
   59.8770   34.5840   45.9240 C   0  0  0  0  0  0  0  0  0  0  0  0
   60.8000   34.2110   47.0220 C   0  0  0  0  0  0  0  0  0  0  0  0
   62.1150   33.8850   46.7470 C   0  0  0  0  0  0  0  0  0  0  0  0
   62.9830   33.5330   47.7830 C   0  0  0  0  0  0  0  0  0  0  0  0
   62.5150   33.5110   49.0830 C   0  0  0  0  0  0  0  0  0  0  0  0
   61.1910   33.8350   49.3860 C   0  0  0  0  0  0  0  0  0  0  0  0
   59.1650   29.6070   51.1850 N   0  0  0  0  0  0  0  0  0  0  0  0
   58.8990   30.8140   51.2620 C   0  0  0  0  0  0  0  0  0  0  0  0
   58.5290   33.5140   51.4630 N   0  0  0  0  0  0  0  0  0  0  0  0
   57.5280   32.6450   51.7750 C   0  0  0  0  0  0  0  0  0  0  0  0
   57.6930   31.2870   51.6810 C   0  0  0  0  0  0  0  0  0  0  0  0
   56.5430   30.4550   52.0120 C   0  0  0  0  0  0  0  0  0  0  0  0
   56.7260   29.2820   52.4830 O   0  0  0  0  0  0  0  0  0  0  0  0
   55.2380   30.9710   51.8090 N   0  0  0  0  0  0  0  0  0  0  0  0
   54.0290   30.3310   52.0750 C   0  0  0  0  0  0  0  0  0  0  0  0
   53.8540   29.0980   52.6360 C   0  0  0  0  0  0  0  0  0  0  0  0
   52.6000   28.5380   52.8820 C   0  0  0  0  0  0  0  0  0  0  0  0
   51.4580   29.2310   52.5570 C   0  0  0  0  0  0  0  0  0  0  0  0
   51.6090   30.4750   51.9890 C   0  0  0  0  0  0  0  0  0  0  0  0
   52.8550   31.0210   51.7490 C   0  0  0  0  0  0  0  0  0  0  0  0
   52.8880   32.2870   51.1710 O   0  0  0  0  0  0  0  0  0  0  0  0
   59.7070   33.0370   51.0520 C   0  0  0  0  0  0  0  0  0  0  0  0
   60.7220   33.7990   50.7390 N   0  0  0  0  0  0  0  0  0  0  0  0
   60.3940   28.9570   51.3820 C   0  0  1  0  0  0  0  0  0  0  0  0
   60.3320   27.7390   52.2750 C   0  0  0  0  0  0  0  0  0  0  0  0
   60.4280   28.2650   49.9550 C   0  0  0  0  0  0  0  0  0  0  0  0
   60.1760   29.1790   48.8650 C   0  0  0  0  0  0  0  0  0  0  0  0
   61.1140   30.0580   48.3450 C   0  0  0  0  0  0  0  0  0  0  0  0
   60.8510   30.8990   47.2890 C   0  0  0  0  0  0  0  0  0  0  0  0
   59.5810   30.8350   46.7440 C   0  0  0  0  0  0  0  0  0  0  0  0
   59.2480   31.6700   45.6520 O   0  0  0  0  0  0  0  0  0  0  0  0
   57.9480   31.5570   45.1810 C   0  0  0  0  0  0  0  0  0  0  0  0
   57.1610   32.5260   45.3880 O   0  0  0  0  0  0  0  0  0  0  0  0
   57.4460   30.4230   44.4860 N   0  0  0  0  0  0  0  0  0  0  0  0
   56.0560   30.3850   44.0150 C   0  0  0  0  0  0  0  0  0  0  0  0
   56.2900   29.7400   42.6400 C   0  0  0  0  0  0  0  0  0  0  0  0
   57.2160   28.6060   43.0440 C   0  0  0  0  0  0  0  0  0  0  0  0
   58.1110   29.1890   44.1280 C   0  0  0  0  0  0  0  0  0  0  0  0
   58.6040   29.9830   47.2140 C   0  0  0  0  0  0  0  0  0  0  0  0
   58.9030   29.1560   48.2760 C   0  0  0  0  0  0  0  0  0  0  0  0
   59.8760   31.7110   50.9580 N   0  0  0  0  0  0  0  0  0  0  0  0
   60.3780   34.1760   48.3290 C   0  0  0  0  0  0  0  0  0  0  0  0
   58.9363   34.9641   46.3490 H   0  0  0  0  0  0  0  0  0  0  0  0
   60.3413   35.3651   45.3041 H   0  0  0  0  0  0  0  0  0  0  0  0
   59.6683   33.6996   45.3041 H   0  0  0  0  0  0  0  0  0  0  0  0
   62.4788   33.9029   45.7091 H   0  0  0  0  0  0  0  0  0  0  0  0
   64.0302   33.2755   47.5660 H   0  0  0  0  0  0  0  0  0  0  0  0
   63.2004   33.2322   49.8969 H   0  0  0  0  0  0  0  0  0  0  0  0
   58.4210   34.5470   51.5290 H   0  0  0  0  0  0  0  0  0  0  0  0
   56.5598   33.0437   52.1119 H   0  0  0  0  0  0  0  0  0  0  0  0
   55.2060   31.9560   51.4120 H   0  0  0  0  0  0  0  0  0  0  0  0
   54.7475   28.5168   52.9078 H   0  0  0  0  0  0  0  0  0  0  0  0
   52.5249   27.5394   53.3372 H   0  0  0  0  0  0  0  0  0  0  0  0
   50.4605   28.8067   52.7441 H   0  0  0  0  0  0  0  0  0  0  0  0
   50.7120   31.0512   51.7183 H   0  0  0  0  0  0  0  0  0  0  0  0
   53.6300   32.4890   50.5130 H   0  0  0  0  0  0  0  0  0  0  0  0
   61.1699   29.6326   51.7714 H   0  0  0  0  0  0  0  0  0  0  0  0
   60.3481   28.0554   53.3284 H   0  0  0  0  0  0  0  0  0  0  0  0
   59.4044   27.1833   52.0732 H   0  0  0  0  0  0  0  0  0  0  0  0
   61.1984   27.0919   52.0732 H   0  0  0  0  0  0  0  0  0  0  0  0
   61.4213   27.8153   49.8097 H   0  0  0  0  0  0  0  0  0  0  0  0
   59.6240   27.5144   49.9402 H   0  0  0  0  0  0  0  0  0  0  0  0
   62.1158   30.0839   48.7985 H   0  0  0  0  0  0  0  0  0  0  0  0
   61.6130   31.5887   46.8970 H   0  0  0  0  0  0  0  0  0  0  0  0
   55.4181   29.7628   44.6600 H   0  0  0  0  0  0  0  0  0  0  0  0
   55.5325   31.3524   44.0025 H   0  0  0  0  0  0  0  0  0  0  0  0
   55.3543   29.3670   42.1980 H   0  0  0  0  0  0  0  0  0  0  0  0
   56.6891   30.4161   41.8695 H   0  0  0  0  0  0  0  0  0  0  0  0
   56.6375   27.7568   43.4367 H   0  0  0  0  0  0  0  0  0  0  0  0
   57.7974   28.2261   42.1910 H   0  0  0  0  0  0  0  0  0  0  0  0
   58.1746   28.5114   44.9922 H   0  0  0  0  0  0  0  0  0  0  0  0
   59.1473   29.3420   43.7922 H   0  0  0  0  0  0  0  0  0  0  0  0
   57.6063   29.9635   46.7511 H   0  0  0  0  0  0  0  0  0  0  0  0
   58.1354   28.4711   48.6654 H   0  0  0  0  0  0  0  0  0  0  0  0
   60.8150   31.3420   50.6280 H   0  0  0  0  0  0  0  0  0  0  0  0
   59.3306   34.4353   48.5429 H   0  0  0  0  0  0  0  0  0  0  0  0
  1  2  1  0
  2  3  2  0
  3  4  1  0
  4  5  2  0
  5  6  1  0
  6  7  1  0
  7  8  2  0
  8  9  1  0
  9 10  1  0
 10 11  2  0
 11 12  1  0
 12 13  2  0
 12 14  1  0
 14 15  1  0
 15 16  2  0
 16 17  1  0
 17 18  2  0
 18 19  1  0
 19 20  2  0
 20 21  1  0
 11 22  1  0
 22 23  2  0
 23 24  1  0
 24 25  1  0
 24 26  1  0
 26 27  1  0
 27 28  2  0
 28 29  1  0
 29 30  2  0
 30 31  1  0
 31 32  1  0
 32 33  2  0
 32 34  1  0
 34 35  1  0
 35 36  1  0
 36 37  1  0
 37 38  1  0
 30 39  1  0
 39 40  2  0
 22 41  1  0
  6 42  2  0
 42  2  1  0
 41  8  1  0
 20 15  1  0
 40 27  1  0
 38 34  1  0
  1 43  1  0
  1 44  1  0
  1 45  1  0
  3 46  1  0
  4 47  1  0
  5 48  1  0
  9 49  1  0
 10 50  1  0
 14 51  1  0
 16 52  1  0
 17 53  1  0
 18 54  1  0
 19 55  1  0
 21 56  1  0
 24 57  1  1
 25 58  1  0
 25 59  1  0
 25 60  1  0
 26 61  1  0
 26 62  1  0
 28 63  1  0
 29 64  1  0
 35 65  1  0
 35 66  1  0
 36 67  1  0
 36 68  1  0
 37 69  1  0
 37 70  1  0
 38 71  1  0
 38 72  1  0
 39 73  1  0
 40 74  1  0
 41 75  1  0
 42 76  1  0
M  END
>  <smiles>  (79) 
Cc1cccc(N=c2[nH]cc(C(=O)Nc3ccccc3O)c(=NC(C)Cc3ccc(OC(=O)N4CCCC4)cc3)[nH]2)c1

>  <score_type>  (79) 
oracle

>  <origin>  (79) 
adg

>  <m_score__min__energy>  (79) 
-11.65

>  <m_primary>  (79) 
energy

$$$$
79:0
     RDKit          3D

 53 57  0  0  0  0  0  0  0  0999 V2000
   55.3320   23.2910   46.1780 C   0  0  0  0  0  0  0  0  0  0  0  0
   55.7730   24.2980   47.0840 O   0  0  0  0  0  0  0  0  0  0  0  0
   56.4950   25.4410   46.7070 C   0  0  0  0  0  0  0  0  0  0  0  0
   57.8500   25.5120   47.0460 C   0  0  0  0  0  0  0  0  0  0  0  0
   58.6140   26.6230   46.6840 C   0  0  0  0  0  0  0  0  0  0  0  0
   58.0270   27.6820   45.9870 C   0  0  0  0  0  0  0  0  0  0  0  0
   56.6610   27.6390   45.6570 C   0  0  0  0  0  0  0  0  0  0  0  0
   56.0230   28.6910   44.9190 N   0  0  0  0  0  0  0  0  0  0  0  0
   56.5940   29.4440   43.8400 C   0  0  0  0  0  0  0  0  0  0  0  0
   56.6090   28.9640   42.6740 O   0  0  0  0  0  0  0  0  0  0  0  0
   57.2190   30.7640   44.1020 C   0  0  0  0  0  0  0  0  0  0  0  0
   57.2050   31.7600   43.1130 C   0  0  0  0  0  0  0  0  0  0  0  0
   57.7880   33.0020   43.3510 C   0  0  0  0  0  0  0  0  0  0  0  0
   58.3930   33.2780   44.5790 C   0  0  0  0  0  0  0  0  0  0  0  0
   58.9340   34.4740   44.7660 O   0  0  0  0  0  0  0  0  0  0  0  0
   59.5270   34.8330   45.8950 C   0  0  0  0  0  0  0  0  0  0  0  0
   60.0140   35.9920   45.9840 O   0  0  0  0  0  0  0  0  0  0  0  0
   59.6080   33.9330   46.9700 C   0  0  0  0  0  0  0  0  0  0  0  0
   60.2300   34.2910   48.1770 C   0  0  0  0  0  0  0  0  0  0  0  0
   60.2920   33.3800   49.2350 C   0  0  0  0  0  0  0  0  0  0  0  0
   60.9910   33.7430   50.5170 C   0  0  0  0  0  0  0  0  0  0  0  0
   62.4700   33.4990   50.3880 C   0  0  0  0  0  0  0  0  0  0  0  0
   62.9740   32.7440   49.3160 C   0  0  0  0  0  0  0  0  0  0  0  0
   64.3510   32.5500   49.1790 C   0  0  0  0  0  0  0  0  0  0  0  0
   65.2360   33.1140   50.1010 C   0  0  0  0  0  0  0  0  0  0  0  0
   66.5710   32.9190   49.9550 F   0  0  0  0  0  0  0  0  0  0  0  0
   64.7430   33.8790   51.1660 C   0  0  0  0  0  0  0  0  0  0  0  0
   65.8460   34.5990   52.3260 Cl  0  0  0  0  0  0  0  0  0  0  0  0
   63.3640   34.0730   51.3070 C   0  0  0  0  0  0  0  0  0  0  0  0
   59.7460   32.1060   49.0580 C   0  0  0  0  0  0  0  0  0  0  0  0
   59.1450   31.7630   47.8870 N   0  0  0  0  0  0  0  0  0  0  0  0
   59.0530   32.6380   46.8320 C   0  0  0  0  0  0  0  0  0  0  0  0
   58.4240   32.2960   45.6010 C   0  0  0  0  0  0  0  0  0  0  0  0
   57.8280   31.0380   45.3420 C   0  0  0  0  0  0  0  0  0  0  0  0
   55.9060   26.5090   46.0020 C   0  0  0  0  0  0  0  0  0  0  0  0
   54.9539   22.4276   46.7451 H   0  0  0  0  0  0  0  0  0  0  0  0
   54.5281   23.6942   45.5446 H   0  0  0  0  0  0  0  0  0  0  0  0
   56.1735   22.9736   45.5446 H   0  0  0  0  0  0  0  0  0  0  0  0
   58.3174   24.6860   47.6022 H   0  0  0  0  0  0  0  0  0  0  0  0
   59.6810   26.6647   46.9483 H   0  0  0  0  0  0  0  0  0  0  0  0
   58.6349   28.5513   45.6958 H   0  0  0  0  0  0  0  0  0  0  0  0
   56.7296   31.5577   42.1419 H   0  0  0  0  0  0  0  0  0  0  0  0
   57.7718   33.7718   42.5655 H   0  0  0  0  0  0  0  0  0  0  0  0
   60.6703   35.2927   48.2902 H   0  0  0  0  0  0  0  0  0  0  0  0
   60.8158   34.8062   50.7382 H   0  0  0  0  0  0  0  0  0  0  0  0
   60.5936   33.1201   51.3319 H   0  0  0  0  0  0  0  0  0  0  0  0
   62.2826   32.3042   48.5822 H   0  0  0  0  0  0  0  0  0  0  0  0
   64.7395   31.9510   48.3422 H   0  0  0  0  0  0  0  0  0  0  0  0
   62.9786   34.6777   52.1412 H   0  0  0  0  0  0  0  0  0  0  0  0
   59.8029   31.3719   49.8752 H   0  0  0  0  0  0  0  0  0  0  0  0
   58.7650   30.7970   47.8430 H   0  0  0  0  0  0  0  0  0  0  0  0
   57.8408   30.2623   46.1218 H   0  0  0  0  0  0  0  0  0  0  0  0
   54.8442   26.4559   45.7196 H   0  0  0  0  0  0  0  0  0  0  0  0
  1  2  1  0
  2  3  1  0
  3  4  2  0
  4  5  1  0
  5  6  2  0
  6  7  1  0
  7  8  1  0
  8  9  1  0
  9 10  2  0
  9 11  1  0
 11 12  2  0
 12 13  1  0
 13 14  2  0
 14 15  1  0
 15 16  1  0
 16 17  2  0
 16 18  1  0
 18 19  2  0
 19 20  1  0
 20 21  1  0
 21 22  1  0
 22 23  2  0
 23 24  1  0
 24 25  2  0
 25 26  1  0
 25 27  1  0
 27 28  1  0
 27 29  2  0
 20 30  2  0
 30 31  1  0
 31 32  2  0
 32 33  1  0
 33 34  2  0
  7 35  2  0
 35  3  1  0
 34 11  1  0
 33 14  1  0
 32 18  1  0
 29 22  1  0
  1 36  1  0
  1 37  1  0
  1 38  1  0
  4 39  1  0
  5 40  1  0
  6 41  1  0
 12 42  1  0
 13 43  1  0
 19 44  1  0
 21 45  1  0
 21 46  1  0
 23 47  1  0
 24 48  1  0
 29 49  1  0
 30 50  1  0
 31 51  1  0
 34 52  1  0
 35 53  1  0
M  CHG  2   8  -1  31   1
M  END
>  <UniqueID>  (80) 
72

>  <SMILES>  (80) 
COc1cccc([N-]C(=O)c2ccc3oc(=O)c4cc(Cc5ccc(F)c(Cl)c5)c[nH+]c4c3c2)c1

>  <Energy>  (80) 
75.11181634525866

>  <Genealogy>  (80) 
COc1cccc([N-]C(=O)c2ccc3oc(=O)c4cc(Cc5ccc(F)c(Cl)c5)c[nH+]c4c3c2)c1 (protonated)
COc1cccc([N-]C(=O)c2ccc3oc(=O)c4cc(Cc5ccc(F)c(Cl)c5)c[nH+]c4c3c2)c1 (3D coordinates assigned)
COc1cccc([N-]C(=O)c2ccc3oc(=O)c4cc(Cc5ccc(F)c(Cl)c5)c[nH+]c4c3c2)c1 (optimized conformer: 75.11181634525866 kcal/mol)

>  <smiles>  (80) 
COc1cccc(NC(=O)c2ccc3oc(=O)c4cc(Cc5ccc(F)c(Cl)c5)cnc4c3c2)c1

>  <score_type>  (80) 
oracle

>  <origin>  (80) 
adg

>  <m_score__min__energy>  (80) 
-10.199999999999999

>  <m_primary>  (80) 
energy

$$$$
80:0
     RDKit          3D

 51 53  0  0  0  0  0  0  0  0999 V2000
   60.1740   28.6890   44.4760 C   0  0  0  0  0  0  0  0  0  0  0  0
   59.3080   27.8120   45.3410 C   0  0  0  0  0  0  0  0  0  0  0  0
   59.8380   27.2870   46.5340 C   0  0  0  0  0  0  0  0  0  0  0  0
   59.0640   26.4580   47.3480 C   0  0  0  0  0  0  0  0  0  0  0  0
   57.7540   26.1500   46.9870 C   0  0  0  0  0  0  0  0  0  0  0  0
   57.2090   26.6700   45.8120 C   0  0  0  0  0  0  0  0  0  0  0  0
   57.9750   27.5020   44.9720 C   0  0  0  0  0  0  0  0  0  0  0  0
   57.4010   28.0420   43.7670 N   0  0  0  0  0  0  0  0  0  0  0  0
   56.5440   29.5500   43.7290 S   0  0  0  0  0  0  0  0  0  0  0  0
   55.2110   29.3830   44.4010 O   0  0  0  0  0  0  0  0  0  0  0  0
   56.3190   29.9610   42.3010 O   0  0  0  0  0  0  0  0  0  0  0  0
   57.4640   30.7720   44.6000 C   0  0  0  0  0  0  0  0  0  0  0  0
   57.8110   31.9650   43.9530 C   0  0  0  0  0  0  0  0  0  0  0  0
   58.5170   32.9590   44.6380 C   0  0  0  0  0  0  0  0  0  0  0  0
   58.8790   32.7680   45.9790 C   0  0  0  0  0  0  0  0  0  0  0  0
   59.7690   34.0080   46.8600 S   0  0  0  0  0  0  0  0  0  0  0  0
   60.1470   35.1240   45.9280 O   0  0  0  0  0  0  0  0  0  0  0  0
   58.8700   34.5620   47.9300 O   0  0  0  0  0  0  0  0  0  0  0  0
   61.1910   33.3000   47.5950 N   0  0  0  0  0  0  0  0  0  0  0  0
   61.8180   34.0750   48.6820 C   0  0  0  0  0  0  0  0  0  0  0  0
   63.3380   34.2840   48.5530 C   0  0  0  0  0  0  0  0  0  0  0  0
   64.2280   33.0220   48.5090 C   0  0  0  0  0  0  0  0  0  0  0  0
   63.7010   31.8590   47.6680 C   0  0  0  0  0  0  0  0  0  0  0  0
   62.4500   31.2200   48.2870 C   0  0  0  0  0  0  0  0  0  0  0  0
   61.1390   31.8420   47.7910 C   0  0  0  0  0  0  0  0  0  0  0  0
   58.5290   31.5750   46.6260 C   0  0  0  0  0  0  0  0  0  0  0  0
   57.8270   30.5800   45.9410 C   0  0  0  0  0  0  0  0  0  0  0  0
   60.8035   29.3265   45.1143 H   0  0  0  0  0  0  0  0  0  0  0  0
   60.8147   28.0595   43.8409 H   0  0  0  0  0  0  0  0  0  0  0  0
   59.5365   29.3217   43.8409 H   0  0  0  0  0  0  0  0  0  0  0  0
   60.8696   27.5315   46.8274 H   0  0  0  0  0  0  0  0  0  0  0  0
   59.4890   26.0474   48.2758 H   0  0  0  0  0  0  0  0  0  0  0  0
   57.1475   25.4951   47.6299 H   0  0  0  0  0  0  0  0  0  0  0  0
   56.1712   26.4278   45.5392 H   0  0  0  0  0  0  0  0  0  0  0  0
   57.3820   27.4710   42.8930 H   0  0  0  0  0  0  0  0  0  0  0  0
   57.5270   32.1206   42.9018 H   0  0  0  0  0  0  0  0  0  0  0  0
   58.7889   33.8926   44.1237 H   0  0  0  0  0  0  0  0  0  0  0  0
   61.3406   35.0656   48.7114 H   0  0  0  0  0  0  0  0  0  0  0  0
   61.6701   33.4853   49.5987 H   0  0  0  0  0  0  0  0  0  0  0  0
   63.5161   34.8459   47.6243 H   0  0  0  0  0  0  0  0  0  0  0  0
   63.6302   34.8021   49.4783 H   0  0  0  0  0  0  0  0  0  0  0  0
   65.2072   33.3148   48.1023 H   0  0  0  0  0  0  0  0  0  0  0  0
   64.2635   32.6480   49.5429 H   0  0  0  0  0  0  0  0  0  0  0  0
   63.4491   32.2324   46.6644 H   0  0  0  0  0  0  0  0  0  0  0  0
   64.4867   31.0906   47.6220 H   0  0  0  0  0  0  0  0  0  0  0  0
   62.4448   30.1491   48.0356 H   0  0  0  0  0  0  0  0  0  0  0  0
   62.5008   31.3923   49.3722 H   0  0  0  0  0  0  0  0  0  0  0  0
   60.8794   31.3751   46.8294 H   0  0  0  0  0  0  0  0  0  0  0  0
   60.3893   31.6582   48.5747 H   0  0  0  0  0  0  0  0  0  0  0  0
   58.8085   31.4212   47.6787 H   0  0  0  0  0  0  0  0  0  0  0  0
   57.5587   29.6448   46.4542 H   0  0  0  0  0  0  0  0  0  0  0  0
  1  2  1  0
  2  3  2  0
  3  4  1  0
  4  5  2  0
  5  6  1  0
  6  7  2  0
  7  8  1  0
  8  9  1  0
  9 10  2  0
  9 11  2  0
  9 12  1  0
 12 13  2  0
 13 14  1  0
 14 15  2  0
 15 16  1  0
 16 17  2  0
 16 18  2  0
 16 19  1  0
 19 20  1  0
 20 21  1  0
 21 22  1  0
 22 23  1  0
 23 24  1  0
 24 25  1  0
 15 26  1  0
 26 27  2  0
  7  2  1  0
 27 12  1  0
 25 19  1  0
  1 28  1  0
  1 29  1  0
  1 30  1  0
  3 31  1  0
  4 32  1  0
  5 33  1  0
  6 34  1  0
  8 35  1  0
 13 36  1  0
 14 37  1  0
 20 38  1  0
 20 39  1  0
 21 40  1  0
 21 41  1  0
 22 42  1  0
 22 43  1  0
 23 44  1  0
 23 45  1  0
 24 46  1  0
 24 47  1  0
 25 48  1  0
 25 49  1  0
 26 50  1  0
 27 51  1  0
M  END
>  <UniqueID>  (81) 
73

>  <SMILES>  (81) 
Cc1ccccc1NS(=O)(=O)c1ccc(S(=O)(=O)N2CCCCCC2)cc1

>  <Energy>  (81) 
66.08295487773223

>  <Genealogy>  (81) 
Cc1ccccc1NS(=O)(=O)c1ccc(S(=O)(=O)N2CCCCCC2)cc1 (3D coordinates assigned)
Cc1ccccc1NS(=O)(=O)c1ccc(S(=O)(=O)N2CCCCCC2)cc1 (nonaromatic ring conformer: 66.08295487773223 kcal/mol)

>  <smiles>  (81) 
Cc1ccccc1NS(=O)(=O)c1ccc(S(=O)(=O)N2CCCCCC2)cc1

>  <score_type>  (81) 
oracle

>  <origin>  (81) 
adg

>  <m_score__min__energy>  (81) 
-8.5299999999999994

>  <m_primary>  (81) 
energy

$$$$
81:0
     RDKit          3D

 44 46  0  0  0  0  0  0  0  0999 V2000
   58.7190   29.4630   44.1360 C   0  0  0  0  0  0  0  0  0  0  0  0
   57.6000   30.1580   45.3340 S   0  0  0  0  0  0  0  0  0  0  0  0
   56.1850   30.0010   44.8550 O   0  0  0  0  0  0  0  0  0  0  0  0
   57.7700   29.4090   46.6280 O   0  0  0  0  0  0  0  0  0  0  0  0
   57.9440   31.8690   45.5840 C   0  0  0  0  0  0  0  0  0  0  0  0
   57.5860   32.8130   44.6120 C   0  0  0  0  0  0  0  0  0  0  0  0
   57.8870   34.1640   44.8010 C   0  0  0  0  0  0  0  0  0  0  0  0
   58.5580   34.5790   45.9530 C   0  0  0  0  0  0  0  0  0  0  0  0
   58.9340   33.6440   46.9340 C   0  0  0  0  0  0  0  0  0  0  0  0
   59.6620   34.0680   48.1050 N   0  0  0  0  0  0  0  0  0  0  0  0
   61.0430   33.6510   48.0060 C   0  0  0  0  0  0  0  0  0  0  0  0
   61.7810   33.9410   46.8420 C   0  0  0  0  0  0  0  0  0  0  0  0
   63.1100   33.5290   46.7220 C   0  0  0  0  0  0  0  0  0  0  0  0
   63.7230   32.8300   47.7620 C   0  0  0  0  0  0  0  0  0  0  0  0
   63.0040   32.5270   48.9190 C   0  0  0  0  0  0  0  0  0  0  0  0
   61.6580   32.9110   49.0420 C   0  0  0  0  0  0  0  0  0  0  0  0
   60.9400   32.6350   50.2560 N   0  0  0  0  0  0  0  0  0  0  0  0
   59.9570   31.7910   50.4120 C   0  0  0  0  0  0  0  0  0  0  0  0
   59.9040   30.5520   49.7400 C   0  0  0  0  0  0  0  0  0  0  0  0
   58.8080   29.7100   49.9350 C   0  0  0  0  0  0  0  0  0  0  0  0
   57.7950   30.0850   50.7570 N   0  0  0  0  0  0  0  0  0  0  0  0
   57.8050   31.2790   51.4130 C   0  0  0  0  0  0  0  0  0  0  0  0
   56.6490   31.6640   52.2870 C   0  0  0  0  0  0  0  0  0  0  0  0
   56.5710   33.0420   52.3720 F   0  0  0  0  0  0  0  0  0  0  0  0
   56.8220   31.1380   53.5550 F   0  0  0  0  0  0  0  0  0  0  0  0
   55.4620   31.1800   51.7630 F   0  0  0  0  0  0  0  0  0  0  0  0
   58.8860   32.1550   51.2390 C   0  0  0  0  0  0  0  0  0  0  0  0
   58.6130   32.2880   46.7420 C   0  0  0  0  0  0  0  0  0  0  0  0
   59.5422   28.9517   44.6565 H   0  0  0  0  0  0  0  0  0  0  0  0
   58.1792   28.7410   43.5057 H   0  0  0  0  0  0  0  0  0  0  0  0
   59.1269   30.2669   43.5057 H   0  0  0  0  0  0  0  0  0  0  0  0
   57.0667   32.4893   43.6979 H   0  0  0  0  0  0  0  0  0  0  0  0
   57.5946   34.9028   44.0403 H   0  0  0  0  0  0  0  0  0  0  0  0
   58.7940   35.6441   46.0942 H   0  0  0  0  0  0  0  0  0  0  0  0
   59.5980   35.1090   48.1890 H   0  0  0  0  0  0  0  0  0  0  0  0
   59.2340   33.6750   48.9760 H   0  0  0  0  0  0  0  0  0  0  0  0
   61.3064   34.4970   46.0201 H   0  0  0  0  0  0  0  0  0  0  0  0
   63.6745   33.7561   45.8056 H   0  0  0  0  0  0  0  0  0  0  0  0
   64.7737   32.5175   47.6700 H   0  0  0  0  0  0  0  0  0  0  0  0
   63.4943   31.9838   49.7403 H   0  0  0  0  0  0  0  0  0  0  0  0
   60.7206   30.2515   49.0671 H   0  0  0  0  0  0  0  0  0  0  0  0
   58.7650   28.7387   49.4205 H   0  0  0  0  0  0  0  0  0  0  0  0
   58.8933   33.1281   51.7518 H   0  0  0  0  0  0  0  0  0  0  0  0
   58.8898   31.5491   47.5084 H   0  0  0  0  0  0  0  0  0  0  0  0
  1  2  1  0
  2  3  2  0
  2  4  2  0
  2  5  1  0
  5  6  2  0
  6  7  1  0
  7  8  2  0
  8  9  1  0
  9 10  1  0
 10 11  1  0
 11 12  2  0
 12 13  1  0
 13 14  2  0
 14 15  1  0
 15 16  2  0
 16 17  1  0
 17 18  2  3
 18 19  1  0
 19 20  2  0
 20 21  1  0
 21 22  1  0
 22 23  1  0
 23 24  1  0
 23 25  1  0
 23 26  1  0
 22 27  2  0
  9 28  2  0
 28  5  1  0
 16 11  1  0
 27 18  1  0
  1 29  1  0
  1 30  1  0
  1 31  1  0
  6 32  1  0
  7 33  1  0
  8 34  1  0
 10 35  1  0
 10 36  1  0
 12 37  1  0
 13 38  1  0
 14 39  1  0
 15 40  1  0
 19 41  1  0
 20 42  1  0
 27 43  1  0
 28 44  1  0
M  CHG  2  10   1  21  -1
M  END
>  <UniqueID>  (82) 
74

>  <SMILES>  (82) 
CS(=O)(=O)c1cccc([NH2+]c2ccccc2N=c2cc[n-]c(C(F)(F)F)c2)c1

>  <Energy>  (82) 
52.78565075598251

>  <Genealogy>  (82) 
CS(=O)(=O)c1cccc([NH2+]c2ccccc2N=c2cc[n-]c(C(F)(F)F)c2)c1 (protonated)
CS(=O)(=O)c1cccc([NH2+]c2ccccc2N=c2cc[n-]c(C(F)(F)F)c2)c1 (3D coordinates assigned)
CS(=O)(=O)c1cccc([NH2+]c2ccccc2N=c2cc[n-]c(C(F)(F)F)c2)c1 (optimized conformer: 52.78565075598251 kcal/mol)

>  <smiles>  (82) 
CS(=O)(=O)c1cccc(Nc2ccccc2N=c2cc[nH]c(C(F)(F)F)c2)c1

>  <score_type>  (82) 
oracle

>  <origin>  (82) 
adg

>  <m_score__min__energy>  (82) 
-8.0800000000000001

>  <m_primary>  (82) 
energy

$$$$
82:0
     RDKit          3D

 44 46  0  0  0  0  0  0  0  0999 V2000
   60.0000   35.8510   46.0010 C   0  0  0  0  0  0  0  0  0  0  0  0
   59.2640   34.7990   46.6160 O   0  0  0  0  0  0  0  0  0  0  0  0
   58.6570   33.7360   45.9260 C   0  0  0  0  0  0  0  0  0  0  0  0
   58.3380   33.8360   44.5560 C   0  0  0  0  0  0  0  0  0  0  0  0
   57.7540   32.7610   43.8840 C   0  0  0  0  0  0  0  0  0  0  0  0
   57.4700   31.5750   44.5660 C   0  0  0  0  0  0  0  0  0  0  0  0
   56.7420   30.2180   43.7090 S   0  0  0  0  0  0  0  0  0  0  0  0
   55.4230   29.8510   44.3310 O   0  0  0  0  0  0  0  0  0  0  0  0
   56.5160   30.6200   42.2800 O   0  0  0  0  0  0  0  0  0  0  0  0
   57.7910   28.8350   43.7480 N   0  0  0  0  0  0  0  0  0  0  0  0
   58.3180   28.2590   44.9590 C   0  0  0  0  0  0  0  0  0  0  0  0
   59.6960   28.2860   45.2510 C   0  0  0  0  0  0  0  0  0  0  0  0
   60.1810   27.7060   46.4260 C   0  0  0  0  0  0  0  0  0  0  0  0
   59.3020   27.0980   47.3240 C   0  0  0  0  0  0  0  0  0  0  0  0
   57.9340   27.0710   47.0490 C   0  0  0  0  0  0  0  0  0  0  0  0
   57.4400   27.6480   45.8750 C   0  0  0  0  0  0  0  0  0  0  0  0
   56.1080   27.5990   45.6250 F   0  0  0  0  0  0  0  0  0  0  0  0
   57.7780   31.4680   45.9250 C   0  0  0  0  0  0  0  0  0  0  0  0
   58.3770   32.5360   46.6160 C   0  0  0  0  0  0  0  0  0  0  0  0
   58.6860   32.3940   48.0620 C   0  0  0  0  0  0  0  0  0  0  0  0
   57.8210   32.7200   48.9180 O   0  0  0  0  0  0  0  0  0  0  0  0
   59.9220   31.8290   48.5220 N   0  0  0  0  0  0  0  0  0  0  0  0
   61.2370   32.3290   48.2380 C   0  0  0  0  0  0  0  0  0  0  0  0
   62.1210   31.6410   47.3820 C   0  0  0  0  0  0  0  0  0  0  0  0
   61.7380   30.5040   46.7500 F   0  0  0  0  0  0  0  0  0  0  0  0
   63.4010   32.1530   47.1420 C   0  0  0  0  0  0  0  0  0  0  0  0
   63.8010   33.3520   47.7370 C   0  0  0  0  0  0  0  0  0  0  0  0
   62.9190   34.0510   48.5620 C   0  0  0  0  0  0  0  0  0  0  0  0
   61.6370   33.5470   48.8070 C   0  0  0  0  0  0  0  0  0  0  0  0
   60.7930   34.2300   49.6190 F   0  0  0  0  0  0  0  0  0  0  0  0
   60.4464   36.4891   46.7779 H   0  0  0  0  0  0  0  0  0  0  0  0
   60.7971   35.4235   45.3749 H   0  0  0  0  0  0  0  0  0  0  0  0
   59.3252   36.4533   45.3749 H   0  0  0  0  0  0  0  0  0  0  0  0
   58.5511   34.7684   44.0127 H   0  0  0  0  0  0  0  0  0  0  0  0
   57.5164   32.8478   42.8135 H   0  0  0  0  0  0  0  0  0  0  0  0
   58.1160   28.4690   42.8250 H   0  0  0  0  0  0  0  0  0  0  0  0
   60.3942   28.7665   44.5498 H   0  0  0  0  0  0  0  0  0  0  0  0
   61.2589   27.7285   46.6441 H   0  0  0  0  0  0  0  0  0  0  0  0
   59.6871   26.6407   48.2473 H   0  0  0  0  0  0  0  0  0  0  0  0
   57.2418   26.5940   47.7585 H   0  0  0  0  0  0  0  0  0  0  0  0
   57.5486   30.5354   46.4614 H   0  0  0  0  0  0  0  0  0  0  0  0
   64.0942   31.6098   46.4829 H   0  0  0  0  0  0  0  0  0  0  0  0
   64.8120   33.7454   47.5550 H   0  0  0  0  0  0  0  0  0  0  0  0
   63.2323   35.0004   49.0208 H   0  0  0  0  0  0  0  0  0  0  0  0
  1  2  1  0
  2  3  1  0
  3  4  2  0
  4  5  1  0
  5  6  2  0
  6  7  1  0
  7  8  2  0
  7  9  2  0
  7 10  1  0
 10 11  1  0
 11 12  2  0
 12 13  1  0
 13 14  2  0
 14 15  1  0
 15 16  2  0
 16 17  1  0
  6 18  1  0
 18 19  2  0
 19 20  1  0
 20 21  2  0
 20 22  1  0
 22 23  1  0
 23 24  2  0
 24 25  1  0
 24 26  1  0
 26 27  2  0
 27 28  1  0
 28 29  2  0
 29 30  1  0
 19  3  1  0
 29 23  1  0
 16 11  1  0
  1 31  1  0
  1 32  1  0
  1 33  1  0
  4 34  1  0
  5 35  1  0
 10 36  1  0
 12 37  1  0
 13 38  1  0
 14 39  1  0
 15 40  1  0
 18 41  1  0
 26 42  1  0
 27 43  1  0
 28 44  1  0
M  CHG  1  22  -1
M  END
>  <UniqueID>  (83) 
75

>  <SMILES>  (83) 
COc1ccc(S(=O)(=O)Nc2ccccc2F)cc1C(=O)[N-]c1c(F)cccc1F

>  <Energy>  (83) 
57.826357047632605

>  <Genealogy>  (83) 
COc1ccc(S(=O)(=O)Nc2ccccc2F)cc1C(=O)[N-]c1c(F)cccc1F (protonated)
COc1ccc(S(=O)(=O)Nc2ccccc2F)cc1C(=O)[N-]c1c(F)cccc1F (3D coordinates assigned)
COc1ccc(S(=O)(=O)Nc2ccccc2F)cc1C(=O)[N-]c1c(F)cccc1F (optimized conformer: 57.826357047632605 kcal/mol)

>  <smiles>  (83) 
COc1ccc(S(=O)(=O)Nc2ccccc2F)cc1C(=O)Nc1c(F)cccc1F

>  <score_type>  (83) 
oracle

>  <origin>  (83) 
adg

>  <m_score__min__energy>  (83) 
-9.9700000000000006

>  <m_primary>  (83) 
energy

$$$$
83:0
     RDKit          3D

 42 44  0  0  0  0  0  0  0  0999 V2000
   56.2740   28.9940   42.2230 N   0  0  0  0  0  0  0  0  0  0  0  0
   56.5050   30.0480   43.5750 S   0  0  0  0  0  0  0  0  0  0  0  0
   55.1780   30.3310   44.2240 O   0  0  0  0  0  0  0  0  0  0  0  0
   57.1080   31.3370   43.0900 O   0  0  0  0  0  0  0  0  0  0  0  0
   57.5760   29.2870   44.7470 C   0  0  0  0  0  0  0  0  0  0  0  0
   57.0850   28.3200   45.6320 C   0  0  0  0  0  0  0  0  0  0  0  0
   57.9400   27.7150   46.5590 C   0  0  0  0  0  0  0  0  0  0  0  0
   59.2970   28.0760   46.6160 C   0  0  0  0  0  0  0  0  0  0  0  0
   60.1960   27.4320   47.6040 C   0  0  0  0  0  0  0  0  0  0  0  0
   60.5220   26.2260   47.4470 O   0  0  0  0  0  0  0  0  0  0  0  0
   60.7510   28.1550   48.7110 N   0  0  0  0  0  0  0  0  0  0  0  0
   60.6640   29.5700   48.9270 C   0  0  0  0  0  0  0  0  0  0  0  0
   59.8070   30.1190   49.8990 C   0  0  0  0  0  0  0  0  0  0  0  0
   59.7520   31.5020   50.0890 C   0  0  0  0  0  0  0  0  0  0  0  0
   60.5650   32.3510   49.3260 C   0  0  0  0  0  0  0  0  0  0  0  0
   60.4770   34.0950   49.5510 S   0  0  0  0  0  0  0  0  0  0  0  0
   59.3680   34.4220   50.5100 O   0  0  0  0  0  0  0  0  0  0  0  0
   61.7790   34.5960   50.1130 O   0  0  0  0  0  0  0  0  0  0  0  0
   60.1710   34.8430   48.0170 N   0  0  0  0  0  0  0  0  0  0  0  0
   59.3180   34.3920   47.1520 C   0  0  0  0  0  0  0  0  0  0  0  0
   58.3020   33.5660   47.5330 N   0  0  0  0  0  0  0  0  0  0  0  0
   57.4060   33.0930   46.6280 C   0  0  0  0  0  0  0  0  0  0  0  0
   57.5200   33.4520   45.2860 C   0  0  0  0  0  0  0  0  0  0  0  0
   58.5630   34.2970   44.9110 C   0  0  0  0  0  0  0  0  0  0  0  0
   59.4390   34.7490   45.8450 N   0  0  0  0  0  0  0  0  0  0  0  0
   61.4320   31.8050   48.3710 C   0  0  0  0  0  0  0  0  0  0  0  0
   61.4870   30.4220   48.1800 C   0  0  0  0  0  0  0  0  0  0  0  0
   59.7890   29.0290   45.7070 C   0  0  0  0  0  0  0  0  0  0  0  0
   58.9330   29.6330   44.7820 C   0  0  0  0  0  0  0  0  0  0  0  0
   56.5950   28.0450   42.5180 H   0  0  0  0  0  0  0  0  0  0  0  0
   55.2450   28.9290   42.0590 H   0  0  0  0  0  0  0  0  0  0  0  0
   56.0231   28.0349   45.5983 H   0  0  0  0  0  0  0  0  0  0  0  0
   57.5479   26.9520   47.2476 H   0  0  0  0  0  0  0  0  0  0  0  0
   59.1779   29.4565   50.5116 H   0  0  0  0  0  0  0  0  0  0  0  0
   59.0686   31.9257   50.8396 H   0  0  0  0  0  0  0  0  0  0  0  0
   56.5924   32.4282   46.9536 H   0  0  0  0  0  0  0  0  0  0  0  0
   56.8035   33.0771   44.5403 H   0  0  0  0  0  0  0  0  0  0  0  0
   58.6765   34.5976   43.8590 H   0  0  0  0  0  0  0  0  0  0  0  0
   62.0718   32.4673   47.7693 H   0  0  0  0  0  0  0  0  0  0  0  0
   62.1810   29.9998   47.4383 H   0  0  0  0  0  0  0  0  0  0  0  0
   60.8547   29.3010   45.7239 H   0  0  0  0  0  0  0  0  0  0  0  0
   59.3260   30.3824   44.0792 H   0  0  0  0  0  0  0  0  0  0  0  0
  1  2  1  0
  2  3  2  0
  2  4  2  0
  2  5  1  0
  5  6  2  0
  6  7  1  0
  7  8  2  0
  8  9  1  0
  9 10  2  0
  9 11  1  0
 11 12  1  0
 12 13  2  0
 13 14  1  0
 14 15  2  0
 15 16  1  0
 16 17  2  0
 16 18  2  0
 16 19  1  0
 19 20  2  3
 20 21  1  0
 21 22  2  0
 22 23  1  0
 23 24  2  0
 24 25  1  0
 15 26  1  0
 26 27  2  0
  8 28  1  0
 28 29  2  0
 29  5  1  0
 27 12  1  0
 25 20  1  0
  1 30  1  0
  1 31  1  0
  6 32  1  0
  7 33  1  0
 13 34  1  0
 14 35  1  0
 22 36  1  0
 23 37  1  0
 24 38  1  0
 26 39  1  0
 27 40  1  0
 28 41  1  0
 29 42  1  0
M  CHG  2  11  -1  25  -1
M  END
>  <UniqueID>  (84) 
76

>  <SMILES>  (84) 
NS(=O)(=O)c1ccc(C(=O)[N-]c2ccc(S(=O)(=O)N=c3nccc[n-]3)cc2)cc1

>  <Energy>  (84) 
55.16955204036849

>  <Genealogy>  (84) 
NS(=O)(=O)c1ccc(C(=O)[N-]c2ccc(S(=O)(=O)N=c3nccc[n-]3)cc2)cc1 (protonated)
NS(=O)(=O)c1ccc(C(=O)[N-]c2ccc(S(=O)(=O)N=c3nccc[n-]3)cc2)cc1 (3D coordinates assigned)
NS(=O)(=O)c1ccc(C(=O)[N-]c2ccc(S(=O)(=O)N=c3nccc[n-]3)cc2)cc1 (optimized conformer: 55.16955204036849 kcal/mol)

>  <smiles>  (84) 
NS(=O)(=O)c1ccc(C(=O)Nc2ccc(S(=O)(=O)N=c3nccc[nH]3)cc2)cc1

>  <score_type>  (84) 
oracle

>  <origin>  (84) 
adg

>  <m_score__min__energy>  (84) 
-11.08

>  <m_primary>  (84) 
energy

$$$$
84:0
     RDKit          3D

 53 57  0  0  1  0  0  0  0  0999 V2000
   61.1650   29.4240   48.5410 O   0  0  0  0  0  0  0  0  0  0  0  0
   60.9910   30.3270   47.6770 C   0  0  0  0  0  0  0  0  0  0  0  0
   59.9860   30.0820   46.6510 C   0  0  0  0  0  0  0  0  0  0  0  0
   59.0790   31.0320   46.3330 N   0  0  0  0  0  0  0  0  0  0  0  0
   58.1470   30.8460   45.4020 C   0  0  0  0  0  0  0  0  0  0  0  0
   58.1490   29.6060   44.7570 C   0  0  0  0  0  0  0  0  0  0  0  0
   57.1160   29.6590   43.8590 C   0  0  0  0  0  0  0  0  0  0  0  0
   56.5130   30.8590   43.9440 N   0  0  0  0  0  0  0  0  0  0  0  0
   57.1290   31.5720   44.8680 N   0  0  0  0  0  0  0  0  0  0  0  0
   56.7750   32.8980   45.2430 C   0  0  0  0  0  0  0  0  0  0  0  0
   57.8500   33.7450   45.7450 C   0  0  0  0  0  0  0  0  0  0  0  0
   58.0990   33.7640   47.1210 C   0  0  0  0  0  0  0  0  0  0  0  0
   59.1140   34.5630   47.6080 C   0  0  0  0  0  0  0  0  0  0  0  0
   59.8740   35.3340   46.7420 C   0  0  0  0  0  0  0  0  0  0  0  0
   59.6310   35.3200   45.3730 C   0  0  0  0  0  0  0  0  0  0  0  0
   58.6250   34.5290   44.8810 C   0  0  0  0  0  0  0  0  0  0  0  0
   59.0830   28.6310   45.0860 C   0  0  0  0  0  0  0  0  0  0  0  0
   58.9970   27.5230   44.4320 N   0  0  0  0  0  0  0  0  0  0  0  0
   57.9910   26.6040   44.8330 C   0  0  0  0  0  0  0  0  0  0  0  0
   57.7490   25.5090   43.9950 C   0  0  0  0  0  0  0  0  0  0  0  0
   56.7740   24.6190   44.3890 C   0  0  0  0  0  0  0  0  0  0  0  0
   56.0390   24.7550   45.5460 C   0  0  0  0  0  0  0  0  0  0  0  0
   56.2800   25.8480   46.3830 C   0  0  0  0  0  0  0  0  0  0  0  0
   57.2610   26.7480   45.9930 C   0  0  0  0  0  0  0  0  0  0  0  0
   60.0040   28.8700   46.0340 N   0  0  0  0  0  0  0  0  0  0  0  0
   61.7390   31.5140   47.7150 N   0  0  0  0  0  0  0  0  0  0  0  0
   61.5880   32.5890   46.7540 C   0  0  0  0  0  0  0  0  0  0  0  0
   62.8460   33.4250   46.8350 C   0  0  0  0  0  0  0  0  0  0  0  0
   62.9870   34.0220   48.0890 O   0  0  0  0  0  0  0  0  0  0  0  0
   62.6900   33.1710   49.1330 C   0  0  0  0  0  0  0  0  0  0  0  0
   62.7310   31.7110   48.7610 C   0  0  0  0  0  0  0  0  0  0  0  0
   56.8250   28.8478   43.1755 H   0  0  0  0  0  0  0  0  0  0  0  0
   56.3471   33.3918   44.3581 H   0  0  0  0  0  0  0  0  0  0  0  0
   56.0786   32.7838   46.0868 H   0  0  0  0  0  0  0  0  0  0  0  0
   57.4946   33.1509   47.8057 H   0  0  0  0  0  0  0  0  0  0  0  0
   59.3207   34.5880   48.6881 H   0  0  0  0  0  0  0  0  0  0  0  0
   60.6803   35.9655   47.1434 H   0  0  0  0  0  0  0  0  0  0  0  0
   60.2382   35.9358   44.6933 H   0  0  0  0  0  0  0  0  0  0  0  0
   58.4250   34.5100   43.7995 H   0  0  0  0  0  0  0  0  0  0  0  0
   58.3133   25.3654   43.0617 H   0  0  0  0  0  0  0  0  0  0  0  0
   56.5712   23.7515   43.7437 H   0  0  0  0  0  0  0  0  0  0  0  0
   55.2713   24.0120   45.8081 H   0  0  0  0  0  0  0  0  0  0  0  0
   55.7135   25.9892   47.3153 H   0  0  0  0  0  0  0  0  0  0  0  0
   57.4653   27.6151   46.6383 H   0  0  0  0  0  0  0  0  0  0  0  0
   60.6910   28.1470   46.2730 H   0  0  0  0  0  0  0  0  0  0  0  0
   61.4709   32.1777   45.7405 H   0  0  0  0  0  0  0  0  0  0  0  0
   60.6962   33.1941   46.9744 H   0  0  0  0  0  0  0  0  0  0  0  0
   63.7164   32.7791   46.6473 H   0  0  0  0  0  0  0  0  0  0  0  0
   62.7781   34.2224   46.0803 H   0  0  0  0  0  0  0  0  0  0  0  0
   63.4186   33.3438   49.9387 H   0  0  0  0  0  0  0  0  0  0  0  0
   61.6580   33.3930   49.4423 H   0  0  0  0  0  0  0  0  0  0  0  0
   63.7311   31.4432   48.3893 H   0  0  0  0  0  0  0  0  0  0  0  0
   62.5155   31.0760   49.6330 H   0  0  0  0  0  0  0  0  0  0  0  0
  1  2  2  0
  2  3  1  0
  3  4  2  0
  4  5  1  0
  5  6  2  0
  6  7  1  0
  7  8  2  0
  8  9  1  0
  9 10  1  0
 10 11  1  0
 11 12  2  0
 12 13  1  0
 13 14  2  0
 14 15  1  0
 15 16  2  0
  6 17  1  0
 17 18  2  0
 18 19  1  0
 19 20  2  0
 20 21  1  0
 21 22  2  0
 22 23  1  0
 23 24  2  0
 17 25  1  0
  2 26  1  0
 26 27  1  0
 27 28  1  0
 28 29  1  0
 29 30  1  0
 30 31  1  0
 25  3  1  0
 31 26  1  0
  9  5  1  0
 16 11  1  0
 24 19  1  0
  7 32  1  0
 10 33  1  0
 10 34  1  0
 12 35  1  0
 13 36  1  0
 14 37  1  0
 15 38  1  0
 16 39  1  0
 20 40  1  0
 21 41  1  0
 22 42  1  0
 23 43  1  0
 24 44  1  0
 25 45  1  0
 27 46  1  0
 27 47  1  0
 28 48  1  0
 28 49  1  0
 30 50  1  0
 30 51  1  0
 31 52  1  0
 31 53  1  0
M  END
>  <smiles>  (85) 
O=C(c1nc2c(cnn2Cc2ccccc2)c(=Nc2ccccc2)[nH]1)N1CCOCC1

>  <score_type>  (85) 
oracle

>  <origin>  (85) 
adg

>  <m_score__min__energy>  (85) 
-8.6699999999999999

>  <m_primary>  (85) 
energy

$$$$
85:0
     RDKit          3D

 37 39  0  0  0  0  0  0  0  0999 V2000
   59.6930   33.8890   49.0220 C   0  0  0  0  0  0  0  0  0  0  0  0
   59.4330   33.9380   47.5560 C   0  0  0  0  0  0  0  0  0  0  0  0
   58.8910   32.9160   46.8600 N   0  0  0  0  0  0  0  0  0  0  0  0
   58.6900   33.2320   45.5480 C   0  0  0  0  0  0  0  0  0  0  0  0
   58.1030   32.2490   44.5990 C   0  0  0  0  0  0  0  0  0  0  0  0
   57.8550   32.6280   43.2660 C   0  0  0  0  0  0  0  0  0  0  0  0
   57.3140   31.7170   42.3580 C   0  0  0  0  0  0  0  0  0  0  0  0
   57.0000   30.4200   42.7660 C   0  0  0  0  0  0  0  0  0  0  0  0
   57.2110   30.0260   44.0980 C   0  0  0  0  0  0  0  0  0  0  0  0
   56.9110   28.6910   44.5390 N   0  0  0  0  0  0  0  0  0  0  0  0
   57.7780   27.9110   45.3800 C   0  0  0  0  0  0  0  0  0  0  0  0
   58.9790   28.2600   45.5460 O   0  0  0  0  0  0  0  0  0  0  0  0
   57.2800   26.6760   46.0250 C   0  0  0  0  0  0  0  0  0  0  0  0
   57.9820   26.0670   47.0720 C   0  0  0  0  0  0  0  0  0  0  0  0
   57.4710   24.9090   47.6510 C   0  0  0  0  0  0  0  0  0  0  0  0
   56.2700   24.3800   47.1780 C   0  0  0  0  0  0  0  0  0  0  0  0
   55.8040   23.3310   47.7010 O   0  0  0  0  0  0  0  0  0  0  0  0
   55.6120   25.0060   46.1550 N   0  0  0  0  0  0  0  0  0  0  0  0
   54.3500   24.4750   45.6400 C   0  0  0  0  0  0  0  0  0  0  0  0
   56.1120   26.1180   45.6070 N   0  0  0  0  0  0  0  0  0  0  0  0
   57.7770   30.9390   45.0020 C   0  0  0  0  0  0  0  0  0  0  0  0
   59.0600   34.5360   45.2070 C   0  0  0  0  0  0  0  0  0  0  0  0
   59.6500   35.2920   46.5890 S   0  0  0  0  0  0  0  0  0  0  0  0
   58.7540   34.0660   49.5670 H   0  0  0  0  0  0  0  0  0  0  0  0
   60.0921   32.8998   49.2907 H   0  0  0  0  0  0  0  0  0  0  0  0
   60.4248   34.6650   49.2907 H   0  0  0  0  0  0  0  0  0  0  0  0
   58.0898   33.6512   42.9374 H   0  0  0  0  0  0  0  0  0  0  0  0
   57.1344   32.0224   41.3166 H   0  0  0  0  0  0  0  0  0  0  0  0
   56.5856   29.7032   42.0418 H   0  0  0  0  0  0  0  0  0  0  0  0
   56.0570   28.2310   44.1500 H   0  0  0  0  0  0  0  0  0  0  0  0
   58.9270   26.4989   47.4331 H   0  0  0  0  0  0  0  0  0  0  0  0
   58.0091   24.4156   48.4738 H   0  0  0  0  0  0  0  0  0  0  0  0
   53.6971   24.2003   46.4816 H   0  0  0  0  0  0  0  0  0  0  0  0
   53.8536   25.2406   45.0256 H   0  0  0  0  0  0  0  0  0  0  0  0
   54.5503   23.5849   45.0256 H   0  0  0  0  0  0  0  0  0  0  0  0
   57.9686   30.6272   46.0393 H   0  0  0  0  0  0  0  0  0  0  0  0
   58.9793   34.9893   44.2080 H   0  0  0  0  0  0  0  0  0  0  0  0
  1  2  1  0
  2  3  2  0
  3  4  1  0
  4  5  1  0
  5  6  2  0
  6  7  1  0
  7  8  2  0
  8  9  1  0
  9 10  1  0
 10 11  1  0
 11 12  2  0
 11 13  1  0
 13 14  1  0
 14 15  2  0
 15 16  1  0
 16 17  2  0
 16 18  1  0
 18 19  1  0
 18 20  1  0
  9 21  2  0
  4 22  2  0
 22 23  1  0
 23  2  1  0
 21  5  1  0
 20 13  2  0
  1 24  1  0
  1 25  1  0
  1 26  1  0
  6 27  1  0
  7 28  1  0
  8 29  1  0
 10 30  1  0
 14 31  1  0
 15 32  1  0
 19 33  1  0
 19 34  1  0
 19 35  1  0
 21 36  1  0
 22 37  1  0
M  END
>  <UniqueID>  (86) 
77

>  <SMILES>  (86) 
Cc1nc(-c2cccc(NC(=O)c3ccc(=O)n(C)n3)c2)cs1

>  <Energy>  (86) 
74.39132624004758

>  <Genealogy>  (86) 
Cc1nc(-c2cccc(NC(=O)c3ccc(=O)n(C)n3)c2)cs1 (3D coordinates assigned)
Cc1nc(-c2cccc(NC(=O)c3ccc(=O)n(C)n3)c2)cs1 (optimized conformer: 74.39132624004758 kcal/mol)

>  <smiles>  (86) 
Cc1nc(-c2cccc(NC(=O)c3ccc(=O)n(C)n3)c2)cs1

>  <score_type>  (86) 
oracle

>  <origin>  (86) 
adg

>  <m_score__min__energy>  (86) 
-7.7699999999999996

>  <m_primary>  (86) 
energy

$$$$
86:0
     RDKit          3D

 35 37  0  0  0  0  0  0  0  0999 V2000
   57.4790   32.3610   41.2570 C   0  0  0  0  0  0  0  0  0  0  0  0
   56.6700   31.4240   41.9600 O   0  0  0  0  0  0  0  0  0  0  0  0
   57.0520   30.7810   43.1460 C   0  0  0  0  0  0  0  0  0  0  0  0
   58.1670   31.1890   43.9020 C   0  0  0  0  0  0  0  0  0  0  0  0
   58.5060   30.5170   45.0800 C   0  0  0  0  0  0  0  0  0  0  0  0
   57.7320   29.4340   45.5310 C   0  0  0  0  0  0  0  0  0  0  0  0
   58.0990   28.7280   46.7820 C   0  0  0  0  0  0  0  0  0  0  0  0
   59.0560   29.1570   47.4790 O   0  0  0  0  0  0  0  0  0  0  0  0
   57.4280   27.5330   47.2010 N   0  0  0  0  0  0  0  0  0  0  0  0
   57.1930   26.4280   46.3630 N   0  0  0  0  0  0  0  0  0  0  0  0
   56.0190   26.0300   45.8250 C   0  0  0  0  0  0  0  0  0  0  0  0
   54.8060   26.6870   45.9960 O   0  0  0  0  0  0  0  0  0  0  0  0
   56.1970   24.8490   45.1310 C   0  0  0  0  0  0  0  0  0  0  0  0
   57.5190   24.5010   45.2780 C   0  0  0  0  0  0  0  0  0  0  0  0
   58.1020   25.4830   46.0540 C   0  0  0  0  0  0  0  0  0  0  0  0
   59.4270   25.5080   46.4710 O   0  0  0  0  0  0  0  0  0  0  0  0
   58.1200   23.2470   44.7320 C   0  0  0  0  0  0  0  0  0  0  0  0
   57.1290   22.4780   43.8800 C   0  0  0  0  0  0  0  0  0  0  0  0
   55.8280   22.8170   43.7400 C   0  0  0  0  0  0  0  0  0  0  0  0
   55.1860   24.0120   44.4170 C   0  0  0  0  0  0  0  0  0  0  0  0
   56.6300   29.0190   44.7650 C   0  0  0  0  0  0  0  0  0  0  0  0
   56.2920   29.6930   43.5880 C   0  0  0  0  0  0  0  0  0  0  0  0
   58.0221   32.9900   41.9778 H   0  0  0  0  0  0  0  0  0  0  0  0
   58.1998   31.8216   40.6250 H   0  0  0  0  0  0  0  0  0  0  0  0
   56.8402   32.9955   40.6250 H   0  0  0  0  0  0  0  0  0  0  0  0
   58.7749   32.0412   43.5640 H   0  0  0  0  0  0  0  0  0  0  0  0
   59.3849   30.8382   45.6582 H   0  0  0  0  0  0  0  0  0  0  0  0
   58.9930   23.5084   44.1160 H   0  0  0  0  0  0  0  0  0  0  0  0
   58.4135   22.6091   45.5787 H   0  0  0  0  0  0  0  0  0  0  0  0
   57.4913   21.5892   43.3426 H   0  0  0  0  0  0  0  0  0  0  0  0
   55.1967   22.1875   43.0957 H   0  0  0  0  0  0  0  0  0  0  0  0
   54.6866   24.6282   43.6549 H   0  0  0  0  0  0  0  0  0  0  0  0
   54.4627   23.6401   45.1576 H   0  0  0  0  0  0  0  0  0  0  0  0
   56.0292   28.1581   45.0935 H   0  0  0  0  0  0  0  0  0  0  0  0
   55.4198   29.3646   43.0036 H   0  0  0  0  0  0  0  0  0  0  0  0
  1  2  1  0
  2  3  1  0
  3  4  2  0
  4  5  1  0
  5  6  2  0
  6  7  1  0
  7  8  2  0
  7  9  1  0
  9 10  1  0
 10 11  1  0
 11 12  1  0
 11 13  2  0
 13 14  1  0
 14 15  2  0
 15 16  1  0
 14 17  1  0
 17 18  1  0
 18 19  2  0
 19 20  1  0
  6 21  1  0
 21 22  2  0
 22  3  1  0
 15 10  1  0
 20 13  1  0
  1 23  1  0
  1 24  1  0
  1 25  1  0
  4 26  1  0
  5 27  1  0
 17 28  1  0
 17 29  1  0
 18 30  1  0
 19 31  1  0
 20 32  1  0
 20 33  1  0
 21 34  1  0
 22 35  1  0
M  CHG  3   9  -1  12  -1  16  -1
M  END
>  <UniqueID>  (87) 
78

>  <SMILES>  (87) 
COc1ccc(C(=O)[N-]n2c([O-])c3c(c2[O-])CC=CC3)cc1

>  <Energy>  (87) 
76.86130444711551

>  <Genealogy>  (87) 
COc1ccc(C(=O)[N-]n2c([O-])c3c(c2[O-])CC=CC3)cc1 (protonated)
COc1ccc(C(=O)[N-]n2c([O-])c3c(c2[O-])CC=CC3)cc1 (3D coordinates assigned)
COc1ccc(C(=O)[N-]n2c([O-])c3c(c2[O-])CC=CC3)cc1 (nonaromatic ring conformer: 76.86130444711551 kcal/mol)

>  <smiles>  (87) 
COc1ccc(C(=O)Nn2c(O)c3c(c2O)CC=CC3)cc1

>  <score_type>  (87) 
oracle

>  <origin>  (87) 
adg

>  <m_score__min__energy>  (87) 
-13.619999999999999

>  <m_primary>  (87) 
energy

$$$$
87:0
     RDKit          3D

 34 36  0  0  0  0  0  0  0  0999 V2000
   64.4479   33.2789   48.9922 H   0  0  0  0  0  0  0  0  0  0  0  0
   63.5190   33.4870   48.4410 C   0  0  0  0  0  0  0  0  0  0  0  0
   63.5380   33.5680   47.0480 C   0  0  0  0  0  0  0  0  0  0  0  0
   64.4805   33.4151   46.5019 H   0  0  0  0  0  0  0  0  0  0  0  0
   62.3620   33.8430   46.3460 C   0  0  0  0  0  0  0  0  0  0  0  0
   62.3782   33.8887   45.2471 H   0  0  0  0  0  0  0  0  0  0  0  0
   61.1560   34.0620   47.0390 C   0  0  0  0  0  0  0  0  0  0  0  0
   59.9270   34.3050   46.3350 N   0  0  0  0  0  0  0  0  0  0  0  0
   59.1900   33.4160   45.7370 C   0  0  0  0  0  0  0  0  0  0  0  0
   58.9290   33.4740   44.4150 N   0  0  0  0  0  0  0  0  0  0  0  0
   58.1800   32.4170   43.9940 C   0  0  0  0  0  0  0  0  0  0  0  0
   57.7640   32.2930   42.5610 C   0  0  0  0  0  0  0  0  0  0  0  0
   56.7109   31.9791   42.5108 H   0  0  0  0  0  0  0  0  0  0  0  0
   57.8812   33.2651   42.0597 H   0  0  0  0  0  0  0  0  0  0  0  0
   58.3943   31.5437   42.0597 H   0  0  0  0  0  0  0  0  0  0  0  0
   57.8520   31.4900   44.9940 C   0  0  0  0  0  0  0  0  0  0  0  0
   57.0080   30.2810   44.8530 C   0  0  0  0  0  0  0  0  0  0  0  0
   55.8030   30.4090   44.5070 O   0  0  0  0  0  0  0  0  0  0  0  0
   57.5300   28.9250   45.1390 C   0  0  0  0  0  0  0  0  0  0  0  0
   56.6430   27.8940   45.4980 C   0  0  0  0  0  0  0  0  0  0  0  0
   55.5657   28.1022   45.5755 H   0  0  0  0  0  0  0  0  0  0  0  0
   57.1220   26.6060   45.7570 C   0  0  0  0  0  0  0  0  0  0  0  0
   56.4226   25.8080   46.0470 H   0  0  0  0  0  0  0  0  0  0  0  0
   58.4880   26.3310   45.6480 C   0  0  0  0  0  0  0  0  0  0  0  0
   59.0870   24.7140   45.9710 Cl  0  0  0  0  0  0  0  0  0  0  0  0
   59.3760   27.3440   45.2730 C   0  0  0  0  0  0  0  0  0  0  0  0
   60.4504   27.1264   45.1815 H   0  0  0  0  0  0  0  0  0  0  0  0
   58.9000   28.6340   45.0140 C   0  0  0  0  0  0  0  0  0  0  0  0
   59.6016   29.4251   44.7108 H   0  0  0  0  0  0  0  0  0  0  0  0
   58.5210   32.0380   46.4430 S   0  0  0  0  0  0  0  0  0  0  0  0
   61.1390   33.9450   48.4400 C   0  0  0  0  0  0  0  0  0  0  0  0
   59.6460   34.1640   49.3430 Cl  0  0  0  0  0  0  0  0  0  0  0  0
   62.3210   33.6700   49.1360 C   0  0  0  0  0  0  0  0  0  0  0  0
   62.3071   33.5977   50.2335 H   0  0  0  0  0  0  0  0  0  0  0  0
  1  2  1  0
  2  3  2  0
  3  4  1  0
  3  5  1  0
  5  6  1  0
  5  7  2  0
  7  8  1  0
  8  9  2  0
  9 10  1  0
 10 11  1  0
 11 12  1  0
 12 13  1  0
 12 14  1  0
 12 15  1  0
 11 16  2  0
 16 17  1  0
 17 18  2  0
 17 19  1  0
 19 20  2  0
 20 21  1  0
 20 22  1  0
 22 23  1  0
 22 24  2  0
 24 25  1  0
 24 26  1  0
 26 27  1  0
 26 28  2  0
 28 29  1  0
 16 30  1  0
  7 31  1  0
 31 32  1  0
 31 33  2  0
 33 34  1  0
 33  2  1  0
 30  9  1  0
 28 19  1  0
M  CHG  1  10  -1
M  END
>  <UniqueID>  (88) 
79

>  <SMILES>  (88) 
Cc1[n-]/c(=N/c2ccccc2Cl)sc1C(=O)c1ccc(Cl)cc1

>  <Energy>  (88) 
78.86398407642403

>  <Genealogy>  (88) 
Cc1[n-]c(=Nc2ccccc2Cl)sc1C(=O)c1ccc(Cl)cc1 (protonated)
Cc1[n-]/c(=N/c2ccccc2Cl)sc1C(=O)c1ccc(Cl)cc1 (cis-trans isomerization)
Cc1[n-]/c(=N/c2ccccc2Cl)sc1C(=O)c1ccc(Cl)cc1 (3D coordinates assigned)
Cc1[n-]/c(=N/c2ccccc2Cl)sc1C(=O)c1ccc(Cl)cc1 (optimized conformer: 78.86398407642403 kcal/mol)

>  <smiles>  (88) 
Cc1[nH]c(=Nc2ccccc2Cl)sc1C(=O)c1ccc(Cl)cc1

>  <score_type>  (88) 
oracle

>  <origin>  (88) 
adg

>  <m_score__min__energy>  (88) 
-9.5899999999999999

>  <m_primary>  (88) 
energy

$$$$
88:0
     RDKit          3D

 74 76  0  0  0  0  0  0  0  0999 V2000
   58.9500   33.8510   44.1320 C   0  0  0  0  0  0  0  0  0  0  0  0
   57.6630   34.1430   44.9040 C   0  0  0  0  0  0  0  0  0  0  0  0
   56.9190   32.8660   45.3270 C   0  0  0  0  0  0  0  0  0  0  0  0
   57.1120   31.6800   44.3620 C   0  0  0  0  0  0  0  0  0  0  0  0
   57.3440   30.4120   45.0880 N   0  0  0  0  0  0  0  0  0  0  0  0
   58.4600   30.2350   45.8860 C   0  0  0  0  0  0  0  0  0  0  0  0
   59.4320   31.2870   46.0600 N   0  0  0  0  0  0  0  0  0  0  0  0
   58.6610   29.0020   46.5440 C   0  0  0  0  0  0  0  0  0  0  0  0
   59.8110   28.7720   47.3810 N   0  0  0  0  0  0  0  0  0  0  0  0
   60.4470   27.4470   47.3590 C   0  0  0  0  0  0  0  0  0  0  0  0
   60.3310   26.7720   48.7270 C   0  0  0  0  0  0  0  0  0  0  0  0
   61.0790   27.4900   49.6900 O   0  0  0  0  0  0  0  0  0  0  0  0
   61.1220   26.7820   50.9090 C   0  0  0  0  0  0  0  0  0  0  0  0
   60.3340   29.8230   48.2220 C   0  0  0  0  0  0  0  0  0  0  0  0
   61.5040   30.2550   48.0310 O   0  0  0  0  0  0  0  0  0  0  0  0
   59.4920   30.4460   49.3010 C   0  0  0  0  0  0  0  0  0  0  0  0
   59.1010   31.7620   48.9240 O   0  0  0  0  0  0  0  0  0  0  0  0
   59.8400   32.9000   49.2660 C   0  0  0  0  0  0  0  0  0  0  0  0
   59.3100   33.7950   49.9820 O   0  0  0  0  0  0  0  0  0  0  0  0
   61.2380   33.0610   48.7910 C   0  0  0  0  0  0  0  0  0  0  0  0
   62.3040   32.9200   49.7020 C   0  0  0  0  0  0  0  0  0  0  0  0
   63.6320   33.0670   49.2830 C   0  0  0  0  0  0  0  0  0  0  0  0
   64.9400   32.9160   50.4550 S   0  0  0  0  0  0  0  0  0  0  0  0
   66.2170   32.6250   49.7160 O   0  0  0  0  0  0  0  0  0  0  0  0
   65.1060   34.2090   51.2070 O   0  0  0  0  0  0  0  0  0  0  0  0
   64.5910   31.6170   51.5720 N   0  0  0  0  0  0  0  0  0  0  0  0
   63.9290   30.5020   50.8500 C   0  0  0  0  0  0  0  0  0  0  0  0
   63.1760   29.5760   51.8100 C   0  0  0  0  0  0  0  0  0  0  0  0
   62.0500   30.3330   52.5370 C   0  0  0  0  0  0  0  0  0  0  0  0
   62.3270   31.8420   52.6540 C   0  0  0  0  0  0  0  0  0  0  0  0
   63.8330   32.1220   52.7500 C   0  0  0  0  0  0  0  0  0  0  0  0
   63.9070   33.3690   47.9450 C   0  0  0  0  0  0  0  0  0  0  0  0
   62.8640   33.5110   47.0310 C   0  0  0  0  0  0  0  0  0  0  0  0
   61.5340   33.3590   47.4420 C   0  0  0  0  0  0  0  0  0  0  0  0
   60.5260   33.5080   46.4960 O   0  0  0  0  0  0  0  0  0  0  0  0
   57.7130   27.9920   46.3770 C   0  0  0  0  0  0  0  0  0  0  0  0
   57.8510   26.8830   46.9590 O   0  0  0  0  0  0  0  0  0  0  0  0
   56.6340   28.2040   45.5950 N   0  0  0  0  0  0  0  0  0  0  0  0
   56.4390   29.3820   44.9560 C   0  0  0  0  0  0  0  0  0  0  0  0
   55.4110   29.5120   44.2380 O   0  0  0  0  0  0  0  0  0  0  0  0
   59.7693   33.6651   44.8420 H   0  0  0  0  0  0  0  0  0  0  0  0
   58.8046   32.9630   43.4993 H   0  0  0  0  0  0  0  0  0  0  0  0
   59.2020   34.7148   43.4993 H   0  0  0  0  0  0  0  0  0  0  0  0
   57.9175   34.7169   45.8072 H   0  0  0  0  0  0  0  0  0  0  0  0
   56.9969   34.7082   44.2355 H   0  0  0  0  0  0  0  0  0  0  0  0
   57.2834   32.5664   46.3207 H   0  0  0  0  0  0  0  0  0  0  0  0
   55.8458   33.1071   45.3247 H   0  0  0  0  0  0  0  0  0  0  0  0
   56.2094   31.5751   43.7420 H   0  0  0  0  0  0  0  0  0  0  0  0
   57.9968   31.8851   43.7415 H   0  0  0  0  0  0  0  0  0  0  0  0
   59.9510   31.4500   46.9480 H   0  0  0  0  0  0  0  0  0  0  0  0
   59.6640   31.9480   45.2880 H   0  0  0  0  0  0  0  0  0  0  0  0
   59.9509   26.8203   46.6033 H   0  0  0  0  0  0  0  0  0  0  0  0
   61.5121   27.5686   47.1124 H   0  0  0  0  0  0  0  0  0  0  0  0
   59.2744   26.7474   49.0318 H   0  0  0  0  0  0  0  0  0  0  0  0
   60.7250   25.7474   48.6568 H   0  0  0  0  0  0  0  0  0  0  0  0
   61.0788   27.4927   51.7475 H   0  0  0  0  0  0  0  0  0  0  0  0
   60.2639   26.0961   50.9651 H   0  0  0  0  0  0  0  0  0  0  0  0
   62.0568   26.2050   50.9651 H   0  0  0  0  0  0  0  0  0  0  0  0
   58.5933   29.8319   49.4601 H   0  0  0  0  0  0  0  0  0  0  0  0
   60.0808   30.4993   50.2286 H   0  0  0  0  0  0  0  0  0  0  0  0
   62.0899   32.6914   50.7565 H   0  0  0  0  0  0  0  0  0  0  0  0
   65.5180   31.2690   51.9150 H   0  0  0  0  0  0  0  0  0  0  0  0
   63.2157   30.9203   50.1246 H   0  0  0  0  0  0  0  0  0  0  0  0
   64.7061   29.9120   50.3420 H   0  0  0  0  0  0  0  0  0  0  0  0
   62.7393   28.7437   51.2386 H   0  0  0  0  0  0  0  0  0  0  0  0
   63.8854   29.1976   52.5607 H   0  0  0  0  0  0  0  0  0  0  0  0
   61.1127   30.1896   51.9793 H   0  0  0  0  0  0  0  0  0  0  0  0
   61.9828   29.9278   53.5575 H   0  0  0  0  0  0  0  0  0  0  0  0
   61.9228   32.3512   51.7667 H   0  0  0  0  0  0  0  0  0  0  0  0
   61.8433   32.2159   53.5685 H   0  0  0  0  0  0  0  0  0  0  0  0
   63.9841   33.2090   52.8253 H   0  0  0  0  0  0  0  0  0  0  0  0
   64.2116   31.5944   53.6379 H   0  0  0  0  0  0  0  0  0  0  0  0
   64.9483   33.4947   47.6135 H   0  0  0  0  0  0  0  0  0  0  0  0
   63.0874   33.7441   45.9794 H   0  0  0  0  0  0  0  0  0  0  0  0
  1  2  1  0
  2  3  1  0
  3  4  1  0
  4  5  1  0
  5  6  1  0
  6  7  1  0
  6  8  2  0
  8  9  1  0
  9 10  1  0
 10 11  1  0
 11 12  1  0
 12 13  1  0
  9 14  1  0
 14 15  2  0
 14 16  1  0
 16 17  1  0
 17 18  1  0
 18 19  2  0
 18 20  1  0
 20 21  2  0
 21 22  1  0
 22 23  1  0
 23 24  2  0
 23 25  2  0
 23 26  1  0
 26 27  1  0
 27 28  1  0
 28 29  1  0
 29 30  1  0
 30 31  1  0
 22 32  2  0
 32 33  1  0
 33 34  2  0
 34 35  1  0
  8 36  1  0
 36 37  2  0
 36 38  1  0
 38 39  1  0
 39 40  2  0
 39  5  1  0
 34 20  1  0
 31 26  1  0
  1 41  1  0
  1 42  1  0
  1 43  1  0
  2 44  1  0
  2 45  1  0
  3 46  1  0
  3 47  1  0
  4 48  1  0
  4 49  1  0
  7 50  1  0
  7 51  1  0
 10 52  1  0
 10 53  1  0
 11 54  1  0
 11 55  1  0
 13 56  1  0
 13 57  1  0
 13 58  1  0
 16 59  1  0
 16 60  1  0
 21 61  1  0
 26 62  1  0
 27 63  1  0
 27 64  1  0
 28 65  1  0
 28 66  1  0
 29 67  1  0
 29 68  1  0
 30 69  1  0
 30 70  1  0
 31 71  1  0
 31 72  1  0
 32 73  1  0
 33 74  1  0
M  CHG  3  26   1  35  -1  38  -1
M  END
>  <UniqueID>  (89) 
80

>  <SMILES>  (89) 
CCCCn1c(N)c(N(CCOC)C(=O)COC(=O)c2cc(S(=O)(=O)[NH+]3CCCCC3)ccc2[O-])c(=O)[n-]c1=O

>  <Energy>  (89) 
86.71860318151317

>  <Genealogy>  (89) 
CCCCn1c(N)c(N(CCOC)C(=O)COC(=O)c2cc(S(=O)(=O)[NH+]3CCCCC3)ccc2[O-])c(=O)[n-]c1=O (protonated)
CCCCn1c(N)c(N(CCOC)C(=O)COC(=O)c2cc(S(=O)(=O)[NH+]3CCCCC3)ccc2[O-])c(=O)[n-]c1=O (3D coordinates assigned)
CCCCn1c(N)c(N(CCOC)C(=O)COC(=O)c2cc(S(=O)(=O)[NH+]3CCCCC3)ccc2[O-])c(=O)[n-]c1=O (nonaromatic ring conformer: 86.71860318151317 kcal/mol)

>  <smiles>  (89) 
CCCCn1c(N)c(N(CCOC)C(=O)COC(=O)c2cc(S(=O)(=O)N3CCCCC3)ccc2O)c(=O)[nH]c1=O

>  <score_type>  (89) 
oracle

>  <origin>  (89) 
adg

>  <m_score__min__energy>  (89) 
-11.779999999999999

>  <m_primary>  (89) 
energy

$$$$
89:0
     RDKit          3D

 46 49  0  0  0  0  0  0  0  0999 V2000
   56.3100   34.7000   45.5470 H   0  0  0  0  0  0  0  0  0  0  0  0
   56.9790   34.0990   45.0160 N   0  0  0  0  0  0  0  0  0  0  0  0
   57.3590   32.9490   45.4700 C   0  0  0  0  0  0  0  0  0  0  0  0
   58.1570   32.8780   46.5760 N   0  0  0  0  0  0  0  0  0  0  0  0
   58.5280   31.6560   47.0310 C   0  0  0  0  0  0  0  0  0  0  0  0
   58.1320   30.5010   46.4190 C   0  0  0  0  0  0  0  0  0  0  0  0
   57.3480   30.5670   45.2680 C   0  0  0  0  0  0  0  0  0  0  0  0
   56.9860   29.4120   44.5720 O   0  0  0  0  0  0  0  0  0  0  0  0
   56.6490   29.4180   43.1910 C   0  0  0  0  0  0  0  0  0  0  0  0
   55.5547   29.4375   43.0807 H   0  0  0  0  0  0  0  0  0  0  0  0
   57.0817   30.3086   42.7118 H   0  0  0  0  0  0  0  0  0  0  0  0
   57.0498   28.5126   42.7118 H   0  0  0  0  0  0  0  0  0  0  0  0
   56.9690   31.8050   44.8260 N   0  0  0  0  0  0  0  0  0  0  0  0
   58.7330   29.4580   47.1130 C   0  0  0  0  0  0  0  0  0  0  0  0
   58.6320   28.0070   46.8650 C   0  0  0  0  0  0  0  0  0  0  0  0
   59.7840   27.2360   46.6560 C   0  0  0  0  0  0  0  0  0  0  0  0
   60.7752   27.7117   46.6923 H   0  0  0  0  0  0  0  0  0  0  0  0
   59.6790   25.8670   46.4020 C   0  0  0  0  0  0  0  0  0  0  0  0
   60.5877   25.2661   46.2495 H   0  0  0  0  0  0  0  0  0  0  0  0
   58.4220   25.2580   46.3410 C   0  0  0  0  0  0  0  0  0  0  0  0
   58.3330   23.8940   46.0890 O   0  0  0  0  0  0  0  0  0  0  0  0
   57.2580   26.0150   46.5270 C   0  0  0  0  0  0  0  0  0  0  0  0
   56.0160   25.3650   46.4510 O   0  0  0  0  0  0  0  0  0  0  0  0
   55.5890   24.5720   45.3480 C   0  0  0  0  0  0  0  0  0  0  0  0
   55.0982   23.6605   45.7199 H   0  0  0  0  0  0  0  0  0  0  0  0
   54.8787   25.1473   44.7360 H   0  0  0  0  0  0  0  0  0  0  0  0
   56.4603   24.2956   44.7360 H   0  0  0  0  0  0  0  0  0  0  0  0
   57.3690   27.3970   46.7830 C   0  0  0  0  0  0  0  0  0  0  0  0
   56.4604   28.0019   46.9195 H   0  0  0  0  0  0  0  0  0  0  0  0
   59.4920   30.0620   48.1160 C   0  0  0  0  0  0  0  0  0  0  0  0
   60.1191   29.5225   48.8410 H   0  0  0  0  0  0  0  0  0  0  0  0
   59.3460   31.4080   48.0690 N   0  0  0  0  0  0  0  0  0  0  0  0
   60.0520   32.3850   48.8930 C   0  0  0  0  0  0  0  0  0  0  0  0
   59.4259   33.2814   49.0130 H   0  0  0  0  0  0  0  0  0  0  0  0
   60.2619   31.9437   49.8785 H   0  0  0  0  0  0  0  0  0  0  0  0
   61.3490   32.7670   48.2350 C   0  0  0  0  0  0  0  0  0  0  0  0
   61.3490   33.4880   47.0300 C   0  0  0  0  0  0  0  0  0  0  0  0
   60.3962   33.8064   46.5819 H   0  0  0  0  0  0  0  0  0  0  0  0
   62.5570   33.8030   46.3970 C   0  0  0  0  0  0  0  0  0  0  0  0
   62.5522   34.3755   45.4577 H   0  0  0  0  0  0  0  0  0  0  0  0
   63.7690   33.3910   46.9570 C   0  0  0  0  0  0  0  0  0  0  0  0
   64.7178   33.6408   46.4595 H   0  0  0  0  0  0  0  0  0  0  0  0
   63.7760   32.6610   48.1500 C   0  0  0  0  0  0  0  0  0  0  0  0
   64.7305   32.3352   48.5890 H   0  0  0  0  0  0  0  0  0  0  0  0
   62.5720   32.3450   48.7850 C   0  0  0  0  0  0  0  0  0  0  0  0
   62.5812   31.7638   49.7189 H   0  0  0  0  0  0  0  0  0  0  0  0
  1  2  1  0
  2  3  2  0
  3  4  1  0
  4  5  2  0
  5  6  1  0
  6  7  2  0
  7  8  1  0
  8  9  1  0
  9 10  1  0
  9 11  1  0
  9 12  1  0
  7 13  1  0
  6 14  1  0
 14 15  1  0
 15 16  2  0
 16 17  1  0
 16 18  1  0
 18 19  1  0
 18 20  2  0
 20 21  1  0
 20 22  1  0
 22 23  1  0
 23 24  1  0
 24 25  1  0
 24 26  1  0
 24 27  1  0
 22 28  2  0
 28 29  1  0
 14 30  2  0
 30 31  1  0
 30 32  1  0
 32 33  1  0
 33 34  1  0
 33 35  1  0
 33 36  1  0
 36 37  2  0
 37 38  1  0
 37 39  1  0
 39 40  1  0
 39 41  2  0
 41 42  1  0
 41 43  1  0
 43 44  1  0
 43 45  2  0
 45 46  1  0
 13  3  1  0
 28 15  1  0
 45 36  1  0
 32  5  1  0
M  CHG  2  13  -1  21  -1
M  END
>  <UniqueID>  (90) 
81

>  <SMILES>  (90) 
[H]/N=c1\nc2c(c(-c3ccc([O-])c(OC)c3)cn2Cc2ccccc2)c(OC)[n-]1

>  <Energy>  (90) 
87.30921929926014

>  <Genealogy>  (90) 
COc1cc(-c2cn(Cc3ccccc3)c3nc(=N)[n-]c(OC)c23)ccc1[O-] (protonated)
[H]/N=c1\nc2c(c(-c3ccc([O-])c(OC)c3)cn2Cc2ccccc2)c(OC)[n-]1 (cis-trans isomerization)
[H]/N=c1\nc2c(c(-c3ccc([O-])c(OC)c3)cn2Cc2ccccc2)c(OC)[n-]1 (3D coordinates assigned)
[H]/N=c1\nc2c(c(-c3ccc([O-])c(OC)c3)cn2Cc2ccccc2)c(OC)[n-]1 (optimized conformer: 87.30921929926014 kcal/mol)

>  <smiles>  (90) 
COc1cc(-c2cn(Cc3ccccc3)c3nc(=N)[nH]c(OC)c23)ccc1O

>  <score_type>  (90) 
oracle

>  <origin>  (90) 
adg

>  <m_score__min__energy>  (90) 
-10.07

>  <m_primary>  (90) 
energy

$$$$
90:0
     RDKit          3D

 50 53  0  0  0  0  0  0  0  0999 V2000
   57.6500   33.1870   46.8920 C   0  0  0  0  0  0  0  0  0  0  0  0
   58.7470   32.1670   46.8440 C   0  0  0  0  0  0  0  0  0  0  0  0
   59.7990   31.9800   47.7320 C   0  0  0  0  0  0  0  0  0  0  0  0
   60.1900   32.8580   48.8990 C   0  0  0  0  0  0  0  0  0  0  0  0
   61.2530   33.8430   48.5760 N   0  0  1  0  0  0  0  0  0  0  0  0
   62.6220   33.3370   48.8030 C   0  0  0  0  0  0  0  0  0  0  0  0
   63.2460   33.0210   47.4360 C   0  0  0  0  0  0  0  0  0  0  0  0
   62.4290   33.7960   46.4140 C   0  0  0  0  0  0  0  0  0  0  0  0
   61.2430   34.2150   47.1930 C   0  0  0  0  0  0  0  0  0  0  0  0
   60.3500   34.8940   46.7090 O   0  0  0  0  0  0  0  0  0  0  0  0
   60.4980   30.8850   47.3720 N   0  0  0  0  0  0  0  0  0  0  0  0
   59.9340   30.3750   46.2880 N   0  0  0  0  0  0  0  0  0  0  0  0
   60.4280   29.1650   45.6290 C   0  0  0  0  0  0  0  0  0  0  0  0
   59.3770   28.0880   45.6510 C   0  0  0  0  0  0  0  0  0  0  0  0
   58.8250   27.6670   46.8740 C   0  0  0  0  0  0  0  0  0  0  0  0
   57.8680   26.6490   46.9020 C   0  0  0  0  0  0  0  0  0  0  0  0
   57.4470   26.0500   45.7120 C   0  0  0  0  0  0  0  0  0  0  0  0
   57.9790   26.4720   44.4910 C   0  0  0  0  0  0  0  0  0  0  0  0
   58.9380   27.4890   44.4580 C   0  0  0  0  0  0  0  0  0  0  0  0
   58.8680   31.1290   45.9400 C   0  0  0  0  0  0  0  0  0  0  0  0
   57.9790   30.8730   44.7940 C   0  0  0  0  0  0  0  0  0  0  0  0
   56.9370   29.9400   44.9030 C   0  0  0  0  0  0  0  0  0  0  0  0
   56.0920   29.7030   43.8150 C   0  0  0  0  0  0  0  0  0  0  0  0
   56.2780   30.3990   42.6180 C   0  0  0  0  0  0  0  0  0  0  0  0
   57.3070   31.3400   42.5090 C   0  0  0  0  0  0  0  0  0  0  0  0
   58.1540   31.5800   43.5970 C   0  0  0  0  0  0  0  0  0  0  0  0
   57.4059   33.4139   47.9403 H   0  0  0  0  0  0  0  0  0  0  0  0
   57.9810   34.1056   46.3855 H   0  0  0  0  0  0  0  0  0  0  0  0
   56.7579   32.7901   46.3855 H   0  0  0  0  0  0  0  0  0  0  0  0
   59.2979   33.4074   49.2342 H   0  0  0  0  0  0  0  0  0  0  0  0
   60.5928   32.1950   49.6788 H   0  0  0  0  0  0  0  0  0  0  0  0
   61.1030   34.7030   49.1570 H   0  0  0  0  0  0  0  0  0  0  0  0
   63.2215   34.1016   49.3188 H   0  0  0  0  0  0  0  0  0  0  0  0
   62.5954   32.4324   49.4283 H   0  0  0  0  0  0  0  0  0  0  0  0
   64.2967   33.3456   47.4111 H   0  0  0  0  0  0  0  0  0  0  0  0
   63.2336   31.9411   47.2270 H   0  0  0  0  0  0  0  0  0  0  0  0
   62.9859   34.6679   46.0402 H   0  0  0  0  0  0  0  0  0  0  0  0
   62.1772   33.2066   45.5200 H   0  0  0  0  0  0  0  0  0  0  0  0
   60.6843   29.3998   44.5854 H   0  0  0  0  0  0  0  0  0  0  0  0
   61.3183   28.8052   46.1656 H   0  0  0  0  0  0  0  0  0  0  0  0
   59.1479   28.1410   47.8126 H   0  0  0  0  0  0  0  0  0  0  0  0
   57.4455   26.3188   47.8624 H   0  0  0  0  0  0  0  0  0  0  0  0
   56.6966   25.2461   45.7365 H   0  0  0  0  0  0  0  0  0  0  0  0
   57.6429   26.0035   43.5542 H   0  0  0  0  0  0  0  0  0  0  0  0
   59.3506   27.8216   43.4941 H   0  0  0  0  0  0  0  0  0  0  0  0
   56.7847   29.3943   45.8459 H   0  0  0  0  0  0  0  0  0  0  0  0
   55.2790   28.9671   43.9015 H   0  0  0  0  0  0  0  0  0  0  0  0
   55.6152   30.2069   41.7613 H   0  0  0  0  0  0  0  0  0  0  0  0
   57.4506   31.8915   41.5681 H   0  0  0  0  0  0  0  0  0  0  0  0
   58.9587   32.3252   43.5122 H   0  0  0  0  0  0  0  0  0  0  0  0
  1  2  1  0
  2  3  1  0
  3  4  1  0
  4  5  1  0
  5  6  1  0
  6  7  1  0
  7  8  1  0
  8  9  1  0
  9 10  2  0
  3 11  2  0
 11 12  1  0
 12 13  1  0
 13 14  1  0
 14 15  2  0
 15 16  1  0
 16 17  2  0
 17 18  1  0
 18 19  2  0
 12 20  1  0
 20 21  1  0
 21 22  2  0
 22 23  1  0
 23 24  2  0
 24 25  1  0
 25 26  2  0
 20  2  2  0
 26 21  1  0
  9  5  1  0
 19 14  1  0
  1 27  1  0
  1 28  1  0
  1 29  1  0
  4 30  1  0
  4 31  1  0
  5 32  1  1
  6 33  1  0
  6 34  1  0
  7 35  1  0
  7 36  1  0
  8 37  1  0
  8 38  1  0
 13 39  1  0
 13 40  1  0
 15 41  1  0
 16 42  1  0
 17 43  1  0
 18 44  1  0
 19 45  1  0
 22 46  1  0
 23 47  1  0
 24 48  1  0
 25 49  1  0
 26 50  1  0
M  CHG  1   5   1
M  END
>  <UniqueID>  (91) 
82

>  <SMILES>  (91) 
Cc1c(C[N@H+]2CCCC2=O)nn(Cc2ccccc2)c1-c1ccccc1

>  <Energy>  (91) 
89.59675712324855

>  <Genealogy>  (91) 
Cc1c(C[NH+]2CCCC2=O)nn(Cc2ccccc2)c1-c1ccccc1 (protonated)
Cc1c(C[N@H+]2CCCC2=O)nn(Cc2ccccc2)c1-c1ccccc1 (chirality)
Cc1c(C[N@H+]2CCCC2=O)nn(Cc2ccccc2)c1-c1ccccc1 (3D coordinates assigned)
Cc1c(C[N@H+]2CCCC2=O)nn(Cc2ccccc2)c1-c1ccccc1 (nonaromatic ring conformer: 89.59675712324855 kcal/mol)

>  <smiles>  (91) 
Cc1c(CN2CCCC2=O)nn(Cc2ccccc2)c1-c1ccccc1

>  <score_type>  (91) 
oracle

>  <origin>  (91) 
adg

>  <m_score__min__energy>  (91) 
-6.7699999999999996

>  <m_primary>  (91) 
energy

$$$$
91:0
     RDKit          3D

 65 68  0  0  1  0  0  0  0  0999 V2000
   59.9070   30.1060   49.2440 C   0  0  0  0  0  0  0  0  0  0  0  0
   59.4410   29.3320   48.0670 C   0  0  0  0  0  0  0  0  0  0  0  0
   59.7130   27.9830   48.0110 C   0  0  0  0  0  0  0  0  0  0  0  0
   59.2870   27.2550   46.9200 C   0  0  0  0  0  0  0  0  0  0  0  0
   58.5950   27.8190   45.8720 C   0  0  0  0  0  0  0  0  0  0  0  0
   58.2130   27.0330   44.8260 C   0  0  0  0  0  0  0  0  0  0  0  0
   58.4560   25.8100   44.7720 N   0  0  0  0  0  0  0  0  0  0  0  0
   57.6500   24.6660   44.6500 C   0  0  0  0  0  0  0  0  0  0  0  0
   56.4400   25.1620   45.4260 C   0  0  0  0  0  0  0  0  0  0  0  0
   55.5020   25.5430   46.0490 N   0  0  0  0  0  0  0  0  0  0  0  0
   57.0270   24.2990   43.3550 C   0  0  0  0  0  0  0  0  0  0  0  0
   55.6390   23.6910   43.6890 C   0  0  0  0  0  0  0  0  0  0  0  0
   55.9130   22.5920   44.6610 C   0  0  0  0  0  0  0  0  0  0  0  0
   57.3690   22.2740   44.8730 C   0  0  0  0  0  0  0  0  0  0  0  0
   58.0670   23.4710   45.4760 C   0  0  0  0  0  0  0  0  0  0  0  0
   57.5410   27.5970   43.8060 N   0  0  0  0  0  0  0  0  0  0  0  0
   57.2620   28.9020   43.8310 C   0  0  0  0  0  0  0  0  0  0  0  0
   56.6340   29.4240   42.8770 O   0  0  0  0  0  0  0  0  0  0  0  0
   57.6460   29.6870   44.8820 N   0  0  0  0  0  0  0  0  0  0  0  0
   57.3250   31.1020   44.8710 C   0  0  0  0  0  0  0  0  0  0  0  0
   58.4060   31.9880   44.4060 C   0  0  0  0  0  0  0  0  0  0  0  0
   58.1000   33.4140   44.1420 C   0  0  0  0  0  0  0  0  0  0  0  0
   58.1360   34.3160   45.2400 N   0  0  0  0  0  0  0  0  0  0  0  0
   59.2840   35.0870   45.4670 C   0  0  0  0  0  0  0  0  0  0  0  0
   59.6770   34.9820   46.9460 C   0  0  0  0  0  0  0  0  0  0  0  0
   59.6220   33.5840   47.3310 N   0  0  0  0  0  0  0  0  0  0  0  0
   60.3480   33.3650   48.5460 C   0  0  0  0  0  0  0  0  0  0  0  0
   58.2490   33.1140   47.3680 C   0  0  0  0  0  0  0  0  0  0  0  0
   57.4000   33.8920   46.3730 C   0  0  0  0  0  0  0  0  0  0  0  0
   58.3210   29.1640   45.9230 C   0  0  0  0  0  0  0  0  0  0  0  0
   58.7480   29.8830   47.0130 C   0  0  0  0  0  0  0  0  0  0  0  0
   59.5978   29.5925   50.1663 H   0  0  0  0  0  0  0  0  0  0  0  0
   61.0038   30.1864   49.2191 H   0  0  0  0  0  0  0  0  0  0  0  0
   59.4649   31.1129   49.2191 H   0  0  0  0  0  0  0  0  0  0  0  0
   60.2636   27.4920   48.8270 H   0  0  0  0  0  0  0  0  0  0  0  0
   59.5095   26.1783   46.8857 H   0  0  0  0  0  0  0  0  0  0  0  0
   56.9085   25.1921   42.7239 H   0  0  0  0  0  0  0  0  0  0  0  0
   57.6521   23.5822   42.8024 H   0  0  0  0  0  0  0  0  0  0  0  0
   54.9844   24.4507   44.1411 H   0  0  0  0  0  0  0  0  0  0  0  0
   55.1255   23.3230   42.7885 H   0  0  0  0  0  0  0  0  0  0  0  0
   55.4826   22.8804   45.6313 H   0  0  0  0  0  0  0  0  0  0  0  0
   55.4610   21.6852   44.2328 H   0  0  0  0  0  0  0  0  0  0  0  0
   57.4607   21.4152   45.5543 H   0  0  0  0  0  0  0  0  0  0  0  0
   57.8337   22.0288   43.9066 H   0  0  0  0  0  0  0  0  0  0  0  0
   57.7573   23.6050   46.5230 H   0  0  0  0  0  0  0  0  0  0  0  0
   59.1594   23.3420   45.4693 H   0  0  0  0  0  0  0  0  0  0  0  0
   57.2730   26.9890   43.0320 H   0  0  0  0  0  0  0  0  0  0  0  0
   56.4574   31.2487   44.2109 H   0  0  0  0  0  0  0  0  0  0  0  0
   57.1332   31.3791   45.9181 H   0  0  0  0  0  0  0  0  0  0  0  0
   59.1952   31.9637   45.1719 H   0  0  0  0  0  0  0  0  0  0  0  0
   58.6704   31.5864   43.4167 H   0  0  0  0  0  0  0  0  0  0  0  0
   58.8274   33.7731   43.3990 H   0  0  0  0  0  0  0  0  0  0  0  0
   57.0488   33.4153   43.8181 H   0  0  0  0  0  0  0  0  0  0  0  0
   60.1075   34.7144   44.8400 H   0  0  0  0  0  0  0  0  0  0  0  0
   59.0803   36.1375   45.2121 H   0  0  0  0  0  0  0  0  0  0  0  0
   60.6972   35.3678   47.0886 H   0  0  0  0  0  0  0  0  0  0  0  0
   58.9876   35.5744   47.5656 H   0  0  0  0  0  0  0  0  0  0  0  0
   59.6916   33.5630   49.4062 H   0  0  0  0  0  0  0  0  0  0  0  0
   60.6956   32.3220   48.5825 H   0  0  0  0  0  0  0  0  0  0  0  0
   61.2144   34.0418   48.5825 H   0  0  0  0  0  0  0  0  0  0  0  0
   58.2238   32.0451   47.1094 H   0  0  0  0  0  0  0  0  0  0  0  0
   57.8450   33.2653   48.3799 H   0  0  0  0  0  0  0  0  0  0  0  0
   56.5746   33.2479   46.0355 H   0  0  0  0  0  0  0  0  0  0  0  0
   57.0303   34.7927   46.8849 H   0  0  0  0  0  0  0  0  0  0  0  0
   58.5235   30.9594   47.0453 H   0  0  0  0  0  0  0  0  0  0  0  0
  1  2  1  0
  2  3  2  0
  3  4  1  0
  4  5  2  0
  5  6  1  0
  6  7  2  0
  7  8  1  0
  8  9  1  0
  9 10  3  0
  8 11  1  0
 11 12  1  0
 12 13  1  0
 13 14  1  0
 14 15  1  0
  6 16  1  0
 16 17  1  0
 17 18  2  0
 17 19  1  0
 19 20  1  0
 20 21  1  0
 21 22  1  0
 22 23  1  0
 23 24  1  0
 24 25  1  0
 25 26  1  0
 26 27  1  0
 26 28  1  0
 28 29  1  0
 19 30  1  0
 30 31  2  0
 31  2  1  0
 30  5  1  0
 15  8  1  0
 29 23  1  0
  1 32  1  0
  1 33  1  0
  1 34  1  0
  3 35  1  0
  4 36  1  0
 11 37  1  0
 11 38  1  0
 12 39  1  0
 12 40  1  0
 13 41  1  0
 13 42  1  0
 14 43  1  0
 14 44  1  0
 15 45  1  0
 15 46  1  0
 16 47  1  0
 20 48  1  0
 20 49  1  0
 21 50  1  0
 21 51  1  0
 22 52  1  0
 22 53  1  0
 24 54  1  0
 24 55  1  0
 25 56  1  0
 25 57  1  0
 27 58  1  0
 27 59  1  0
 27 60  1  0
 28 61  1  0
 28 62  1  0
 29 63  1  0
 29 64  1  0
 31 65  1  0
M  END
>  <smiles>  (92) 
Cc1ccc2c(=NC3(C#N)CCCCC3)[nH]c(=O)n(CCCN3CCN(C)CC3)c2c1

>  <score_type>  (92) 
oracle

>  <origin>  (92) 
adg

>  <m_score__min__energy>  (92) 
-9.6500000000000004

>  <m_primary>  (92) 
energy

$$$$
92:0
     RDKit          3D

 35 37  0  0  0  0  0  0  0  0999 V2000
   55.4840   24.5210   46.7490 O   0  0  0  0  0  0  0  0  0  0  0  0
   55.9120   25.6000   46.2640 C   0  0  0  0  0  0  0  0  0  0  0  0
   55.1490   26.6960   46.1180 N   0  0  0  0  0  0  0  0  0  0  0  0
   55.9320   27.6180   45.5880 N   0  0  0  0  0  0  0  0  0  0  0  0
   57.1410   27.0490   45.4200 C   0  0  0  0  0  0  0  0  0  0  0  0
   58.3350   27.7820   44.8970 C   0  0  0  0  0  0  0  0  0  0  0  0
   58.3500   29.1870   45.4290 C   0  0  0  0  0  0  0  0  0  0  0  0
   58.9100   29.4610   46.6860 C   0  0  0  0  0  0  0  0  0  0  0  0
   58.8960   30.7620   47.1980 C   0  0  0  0  0  0  0  0  0  0  0  0
   58.3160   31.8120   46.4600 C   0  0  0  0  0  0  0  0  0  0  0  0
   58.2900   33.1630   46.9530 N   0  0  0  0  0  0  0  0  0  0  0  0
   59.5290   34.3360   46.6370 S   0  0  0  0  0  0  0  0  0  0  0  0
   59.7880   34.3990   45.1590 O   0  0  0  0  0  0  0  0  0  0  0  0
   59.0610   35.6850   47.1100 O   0  0  0  0  0  0  0  0  0  0  0  0
   61.0200   33.8740   47.4530 C   0  0  0  0  0  0  0  0  0  0  0  0
   61.0850   33.8910   48.8530 C   0  0  0  0  0  0  0  0  0  0  0  0
   62.2700   33.5370   49.5070 C   0  0  0  0  0  0  0  0  0  0  0  0
   63.3930   33.1600   48.7640 C   0  0  0  0  0  0  0  0  0  0  0  0
   64.8790   32.7170   49.5850 Cl  0  0  0  0  0  0  0  0  0  0  0  0
   63.3310   33.1360   47.3670 C   0  0  0  0  0  0  0  0  0  0  0  0
   62.1470   33.4910   46.7120 C   0  0  0  0  0  0  0  0  0  0  0  0
   57.7390   31.5270   45.2130 C   0  0  0  0  0  0  0  0  0  0  0  0
   57.7530   30.2260   44.7020 C   0  0  0  0  0  0  0  0  0  0  0  0
   57.1800   25.7700   45.8470 N   0  0  0  0  0  0  0  0  0  0  0  0
   59.2502   27.2619   45.2163 H   0  0  0  0  0  0  0  0  0  0  0  0
   58.2868   27.8127   43.7985 H   0  0  0  0  0  0  0  0  0  0  0  0
   59.3627   28.6476   47.2720 H   0  0  0  0  0  0  0  0  0  0  0  0
   59.3406   30.9667   48.1831 H   0  0  0  0  0  0  0  0  0  0  0  0
   57.4460   33.4970   47.4730 H   0  0  0  0  0  0  0  0  0  0  0  0
   60.2015   34.1836   49.4394 H   0  0  0  0  0  0  0  0  0  0  0  0
   62.3183   33.5552   50.6058 H   0  0  0  0  0  0  0  0  0  0  0  0
   64.2140   32.8377   46.7828 H   0  0  0  0  0  0  0  0  0  0  0  0
   62.1000   33.4696   45.6132 H   0  0  0  0  0  0  0  0  0  0  0  0
   57.2711   32.3353   44.6319 H   0  0  0  0  0  0  0  0  0  0  0  0
   57.2934   30.0167   43.7248 H   0  0  0  0  0  0  0  0  0  0  0  0
  1  2  2  0
  2  3  1  0
  3  4  1  0
  4  5  2  0
  5  6  1  0
  6  7  1  0
  7  8  2  0
  8  9  1  0
  9 10  2  0
 10 11  1  0
 11 12  1  0
 12 13  2  0
 12 14  2  0
 12 15  1  0
 15 16  2  0
 16 17  1  0
 17 18  2  0
 18 19  1  0
 18 20  1  0
 20 21  2  0
 10 22  1  0
 22 23  2  0
  5 24  1  0
 24  2  1  0
 23  7  1  0
 21 15  1  0
  6 25  1  0
  6 26  1  0
  8 27  1  0
  9 28  1  0
 11 29  1  0
 16 30  1  0
 17 31  1  0
 20 32  1  0
 21 33  1  0
 22 34  1  0
 23 35  1  0
M  CHG  2   3  -1  24  -1
M  END
>  <UniqueID>  (93) 
83

>  <SMILES>  (93) 
O=c1[n-]nc(Cc2ccc(NS(=O)(=O)c3ccc(Cl)cc3)cc2)[n-]1

>  <Energy>  (93) 
70.79005556579727

>  <Genealogy>  (93) 
O=c1[n-]nc(Cc2ccc(NS(=O)(=O)c3ccc(Cl)cc3)cc2)[n-]1 (protonated)
O=c1[n-]nc(Cc2ccc(NS(=O)(=O)c3ccc(Cl)cc3)cc2)[n-]1 (3D coordinates assigned)
O=c1[n-]nc(Cc2ccc(NS(=O)(=O)c3ccc(Cl)cc3)cc2)[n-]1 (optimized conformer: 70.79005556579727 kcal/mol)

>  <smiles>  (93) 
O=c1[nH]nc(Cc2ccc(NS(=O)(=O)c3ccc(Cl)cc3)cc2)[nH]1

>  <score_type>  (93) 
oracle

>  <origin>  (93) 
adg

>  <m_score__min__energy>  (93) 
-12.74

>  <m_primary>  (93) 
energy

$$$$
93:0
     RDKit          3D

 55 59  0  0  0  0  0  0  0  0999 V2000
   59.5970   33.5870   46.1740 O   0  0  0  0  0  0  0  0  0  0  0  0
   60.0130   32.4490   46.5160 C   0  0  0  0  0  0  0  0  0  0  0  0
   59.7790   31.3390   45.6370 N   0  0  0  0  0  0  0  0  0  0  0  0
   58.5030   30.7470   45.3420 C   0  0  0  0  0  0  0  0  0  0  0  0
   57.4730   31.5010   44.7370 C   0  0  0  0  0  0  0  0  0  0  0  0
   57.6880   32.8300   44.3760 O   0  0  0  0  0  0  0  0  0  0  0  0
   56.2350   30.9040   44.4690 C   0  0  0  0  0  0  0  0  0  0  0  0
   56.0220   29.5570   44.7620 C   0  0  0  0  0  0  0  0  0  0  0  0
   54.7940   28.9720   44.4860 O   0  0  0  0  0  0  0  0  0  0  0  0
   57.0470   28.7960   45.3270 C   0  0  0  0  0  0  0  0  0  0  0  0
   58.2900   29.3780   45.6240 C   0  0  0  0  0  0  0  0  0  0  0  0
   59.3800   28.5180   46.2190 C   0  0  0  0  0  0  0  0  0  0  0  0
   59.5320   28.8040   47.6890 C   0  0  0  0  0  0  0  0  0  0  0  0
   60.4610   28.0840   48.4620 C   0  0  0  0  0  0  0  0  0  0  0  0
   60.5790   28.3310   49.8330 C   0  0  0  0  0  0  0  0  0  0  0  0
   59.7740   29.2980   50.4430 C   0  0  0  0  0  0  0  0  0  0  0  0
   58.8440   30.0130   49.6840 C   0  0  0  0  0  0  0  0  0  0  0  0
   58.7180   29.7640   48.3130 C   0  0  0  0  0  0  0  0  0  0  0  0
   60.7480   32.2990   47.7960 C   0  0  0  0  0  0  0  0  0  0  0  0
   61.9050   31.5190   47.8260 C   0  0  0  0  0  0  0  0  0  0  0  0
   62.6290   31.3830   49.0020 C   0  0  0  0  0  0  0  0  0  0  0  0
   62.1990   32.0300   50.1740 C   0  0  0  0  0  0  0  0  0  0  0  0
   62.9430   31.9150   51.3750 C   0  0  0  0  0  0  0  0  0  0  0  0
   64.2030   31.1420   51.4580 C   0  0  0  0  0  0  0  0  0  0  0  0
   64.1910   29.8130   51.9300 C   0  0  0  0  0  0  0  0  0  0  0  0
   62.6920   29.0260   52.4150 Cl  0  0  0  0  0  0  0  0  0  0  0  0
   65.3870   29.0890   52.0080 C   0  0  0  0  0  0  0  0  0  0  0  0
   66.5920   29.6770   51.6210 C   0  0  0  0  0  0  0  0  0  0  0  0
   66.6120   30.9920   51.1520 C   0  0  0  0  0  0  0  0  0  0  0  0
   65.4240   31.7290   51.0680 C   0  0  0  0  0  0  0  0  0  0  0  0
   65.4960   33.3830   50.4690 Cl  0  0  0  0  0  0  0  0  0  0  0  0
   62.4840   32.5560   52.5260 C   0  0  0  0  0  0  0  0  0  0  0  0
   61.3130   33.2990   52.4890 C   0  0  0  0  0  0  0  0  0  0  0  0
   60.6010   33.4020   51.2970 C   0  0  0  0  0  0  0  0  0  0  0  0
   61.0340   32.7770   50.1530 N   0  0  0  0  0  0  0  0  0  0  0  0
   60.3030   32.9000   48.9900 C   0  0  0  0  0  0  0  0  0  0  0  0
   59.2110   33.5370   48.9880 O   0  0  0  0  0  0  0  0  0  0  0  0
   58.5290   33.3260   44.6490 H   0  0  0  0  0  0  0  0  0  0  0  0
   55.4252   31.5012   44.0245 H   0  0  0  0  0  0  0  0  0  0  0  0
   56.8794   27.7302   45.5416 H   0  0  0  0  0  0  0  0  0  0  0  0
   59.1208   27.4579   46.0811 H   0  0  0  0  0  0  0  0  0  0  0  0
   60.3294   28.7446   45.7119 H   0  0  0  0  0  0  0  0  0  0  0  0
   61.0972   27.3235   47.9857 H   0  0  0  0  0  0  0  0  0  0  0  0
   61.3061   27.7638   50.4327 H   0  0  0  0  0  0  0  0  0  0  0  0
   59.8729   29.4958   51.5205 H   0  0  0  0  0  0  0  0  0  0  0  0
   58.2101   30.7726   50.1649 H   0  0  0  0  0  0  0  0  0  0  0  0
   57.9781   30.3225   47.7209 H   0  0  0  0  0  0  0  0  0  0  0  0
   62.2448   31.0092   46.9124 H   0  0  0  0  0  0  0  0  0  0  0  0
   63.5409   30.7680   49.0174 H   0  0  0  0  0  0  0  0  0  0  0  0
   65.3767   28.0524   52.3759 H   0  0  0  0  0  0  0  0  0  0  0  0
   67.5282   29.1032   51.6856 H   0  0  0  0  0  0  0  0  0  0  0  0
   67.5642   31.4508   50.8474 H   0  0  0  0  0  0  0  0  0  0  0  0
   63.0516   32.4721   53.4645 H   0  0  0  0  0  0  0  0  0  0  0  0
   60.9492   33.8038   53.3961 H   0  0  0  0  0  0  0  0  0  0  0  0
   59.6747   33.9947   51.2709 H   0  0  0  0  0  0  0  0  0  0  0  0
  1  2  2  0
  2  3  1  0
  3  4  1  0
  4  5  2  0
  5  6  1  0
  5  7  1  0
  7  8  2  0
  8  9  1  0
  8 10  1  0
 10 11  2  0
 11 12  1  0
 12 13  1  0
 13 14  2  0
 14 15  1  0
 15 16  2  0
 16 17  1  0
 17 18  2  0
  2 19  1  0
 19 20  2  0
 20 21  1  0
 21 22  2  0
 22 23  1  0
 23 24  1  0
 24 25  2  0
 25 26  1  0
 25 27  1  0
 27 28  2  0
 28 29  1  0
 29 30  2  0
 30 31  1  0
 23 32  2  0
 32 33  1  0
 33 34  2  0
 34 35  1  0
 35 36  1  0
 36 37  2  0
 11  4  1  0
 18 13  1  0
 36 19  1  0
 35 22  1  0
 30 24  1  0
  6 38  1  0
  7 39  1  0
 10 40  1  0
 12 41  1  0
 12 42  1  0
 14 43  1  0
 15 44  1  0
 16 45  1  0
 17 46  1  0
 18 47  1  0
 20 48  1  0
 21 49  1  0
 27 50  1  0
 28 51  1  0
 29 52  1  0
 32 53  1  0
 33 54  1  0
 34 55  1  0
M  CHG  2   3  -1   9  -1
M  END
>  <UniqueID>  (94) 
84

>  <SMILES>  (94) 
O=C([N-]c1c(O)cc([O-])cc1Cc1ccccc1)c1ccc2c(-c3c(Cl)cccc3Cl)cccn2c1=O

>  <Energy>  (94) 
88.2420035406073

>  <Genealogy>  (94) 
O=C([N-]c1c(O)cc([O-])cc1Cc1ccccc1)c1ccc2c(-c3c(Cl)cccc3Cl)cccn2c1=O (protonated)
O=C([N-]c1c(O)cc([O-])cc1Cc1ccccc1)c1ccc2c(-c3c(Cl)cccc3Cl)cccn2c1=O (3D coordinates assigned)
O=C([N-]c1c(O)cc([O-])cc1Cc1ccccc1)c1ccc2c(-c3c(Cl)cccc3Cl)cccn2c1=O (optimized conformer: 88.2420035406073 kcal/mol)

>  <smiles>  (94) 
O=C(Nc1c(O)cc(O)cc1Cc1ccccc1)c1ccc2c(-c3c(Cl)cccc3Cl)cccn2c1=O

>  <score_type>  (94) 
oracle

>  <origin>  (94) 
adg

>  <m_score__min__energy>  (94) 
-14.77

>  <m_primary>  (94) 
energy

$$$$
94:0
     RDKit          3D

 38 39  0  0  0  0  0  0  0  0999 V2000
   63.7930   33.1010   47.1340 C   0  0  0  0  0  0  0  0  0  0  0  0
   63.1030   31.9920   47.7010 O   0  0  0  0  0  0  0  0  0  0  0  0
   61.7190   31.9530   47.9290 C   0  0  0  0  0  0  0  0  0  0  0  0
   61.1290   31.0570   48.8410 C   0  0  0  0  0  0  0  0  0  0  0  0
   59.7470   31.0670   49.0410 C   0  0  0  0  0  0  0  0  0  0  0  0
   58.9400   31.9590   48.3300 C   0  0  0  0  0  0  0  0  0  0  0  0
   59.5120   32.8370   47.3940 C   0  0  0  0  0  0  0  0  0  0  0  0
   58.7180   33.7880   46.6740 N   0  0  0  0  0  0  0  0  0  0  0  0
   58.6110   33.9220   45.2500 C   0  0  0  0  0  0  0  0  0  0  0  0
   59.2540   34.8460   44.6830 O   0  0  0  0  0  0  0  0  0  0  0  0
   57.8740   32.9160   44.4020 C   0  0  0  0  0  0  0  0  0  0  0  0
   57.2650   31.7870   45.2440 C   0  0  0  0  0  0  0  0  0  0  0  0
   57.0350   30.5920   44.4380 N   0  0  0  0  0  0  0  0  0  0  0  0
   56.3810   29.4140   44.9240 C   0  0  0  0  0  0  0  0  0  0  0  0
   55.1220   29.3360   44.8710 O   0  0  0  0  0  0  0  0  0  0  0  0
   57.1670   28.2790   45.4790 C   0  0  0  0  0  0  0  0  0  0  0  0
   58.5750   28.3550   45.4930 C   0  0  0  0  0  0  0  0  0  0  0  0
   59.3430   27.3080   46.0080 C   0  0  0  0  0  0  0  0  0  0  0  0
   58.7200   26.1680   46.5170 C   0  0  0  0  0  0  0  0  0  0  0  0
   57.3280   26.0720   46.5090 C   0  0  0  0  0  0  0  0  0  0  0  0
   56.5480   27.1140   45.9940 C   0  0  0  0  0  0  0  0  0  0  0  0
   55.1650   26.9690   45.9950 O   0  0  0  0  0  0  0  0  0  0  0  0
   60.9020   32.8440   47.2210 C   0  0  0  0  0  0  0  0  0  0  0  0
   64.1888   33.7372   47.9393 H   0  0  0  0  0  0  0  0  0  0  0  0
   64.6242   32.7368   46.5123 H   0  0  0  0  0  0  0  0  0  0  0  0
   63.0990   33.6857   46.5123 H   0  0  0  0  0  0  0  0  0  0  0  0
   61.7585   30.3471   49.3975 H   0  0  0  0  0  0  0  0  0  0  0  0
   59.2922   30.3704   49.7606 H   0  0  0  0  0  0  0  0  0  0  0  0
   57.8539   31.9739   48.5035 H   0  0  0  0  0  0  0  0  0  0  0  0
   57.0659   33.4314   43.8622 H   0  0  0  0  0  0  0  0  0  0  0  0
   58.5965   32.4666   43.7048 H   0  0  0  0  0  0  0  0  0  0  0  0
   57.9547   31.5392   46.0643 H   0  0  0  0  0  0  0  0  0  0  0  0
   56.2983   32.1309   45.6404 H   0  0  0  0  0  0  0  0  0  0  0  0
   59.0747   29.2498   45.0935 H   0  0  0  0  0  0  0  0  0  0  0  0
   60.4405   27.3824   46.0123 H   0  0  0  0  0  0  0  0  0  0  0  0
   59.3260   25.3453   46.9244 H   0  0  0  0  0  0  0  0  0  0  0  0
   56.8403   25.1713   46.9101 H   0  0  0  0  0  0  0  0  0  0  0  0
   61.3581   33.5585   46.5200 H   0  0  0  0  0  0  0  0  0  0  0  0
  1  2  1  0
  2  3  1  0
  3  4  2  0
  4  5  1  0
  5  6  2  0
  6  7  1  0
  7  8  1  0
  8  9  1  0
  9 10  2  0
  9 11  1  0
 11 12  1  0
 12 13  1  0
 13 14  1  0
 14 15  2  0
 14 16  1  0
 16 17  2  0
 17 18  1  0
 18 19  2  0
 19 20  1  0
 20 21  2  0
 21 22  1  0
  7 23  2  0
 23  3  1  0
 21 16  1  0
  1 24  1  0
  1 25  1  0
  1 26  1  0
  4 27  1  0
  5 28  1  0
  6 29  1  0
 11 30  1  0
 11 31  1  0
 12 32  1  0
 12 33  1  0
 17 34  1  0
 18 35  1  0
 19 36  1  0
 20 37  1  0
 23 38  1  0
M  CHG  3   8  -1  13  -1  22  -1
M  END
>  <UniqueID>  (95) 
85

>  <SMILES>  (95) 
COc1cccc([N-]C(=O)CC[N-]C(=O)c2ccccc2[O-])c1

>  <Energy>  (95) 
42.15151786204589

>  <Genealogy>  (95) 
COc1cccc([N-]C(=O)CC[N-]C(=O)c2ccccc2[O-])c1 (protonated)
COc1cccc([N-]C(=O)CC[N-]C(=O)c2ccccc2[O-])c1 (3D coordinates assigned)
COc1cccc([N-]C(=O)CC[N-]C(=O)c2ccccc2[O-])c1 (optimized conformer: 42.15151786204589 kcal/mol)

>  <smiles>  (95) 
COc1cccc(NC(=O)CCNC(=O)c2ccccc2O)c1

>  <score_type>  (95) 
oracle

>  <origin>  (95) 
adg

>  <m_score__min__energy>  (95) 
-13.529999999999999

>  <m_primary>  (95) 
energy

$$$$
95:0
     RDKit          3D

 36 37  0  0  0  0  0  0  0  0999 V2000
   59.1140   28.7200   48.7270 C   0  0  0  0  0  0  0  0  0  0  0  0
   60.0160   29.0880   47.8130 C   0  0  0  0  0  0  0  0  0  0  0  0
   60.5720   28.1100   46.8180 C   0  0  0  0  0  0  0  0  0  0  0  0
   59.8900   28.4150   45.1500 S   0  0  0  0  0  0  0  0  0  0  0  0
   58.5950   27.1750   45.2780 C   0  0  0  0  0  0  0  0  0  0  0  0
   58.9990   25.8780   45.2750 N   0  0  0  0  0  0  0  0  0  0  0  0
   58.1310   24.8610   45.4620 C   0  0  0  0  0  0  0  0  0  0  0  0
   58.5380   23.6710   45.4310 O   0  0  0  0  0  0  0  0  0  0  0  0
   56.7990   25.1400   45.7200 C   0  0  0  0  0  0  0  0  0  0  0  0
   56.3790   26.4690   45.7440 C   0  0  0  0  0  0  0  0  0  0  0  0
   55.0620   26.7090   46.1480 O   0  0  0  0  0  0  0  0  0  0  0  0
   57.2540   27.4890   45.4090 N   0  0  0  0  0  0  0  0  0  0  0  0
   56.7270   28.8640   45.1640 C   0  0  0  0  0  0  0  0  0  0  0  0
   57.4120   29.9170   46.0830 C   0  0  0  0  0  0  0  0  0  0  0  0
   58.1650   31.0360   45.3640 C   0  0  0  0  0  0  0  0  0  0  0  0
   57.3720   31.5540   44.1730 C   0  0  0  0  0  0  0  0  0  0  0  0
   57.2670   30.4600   43.1200 C   0  0  0  0  0  0  0  0  0  0  0  0
   56.5480   29.2040   43.6430 C   0  0  0  0  0  0  0  0  0  0  0  0
   58.7242   29.4582   49.4434 H   0  0  0  0  0  0  0  0  0  0  0  0
   58.7610   27.6788   48.7633 H   0  0  0  0  0  0  0  0  0  0  0  0
   60.3599   30.1326   47.7885 H   0  0  0  0  0  0  0  0  0  0  0  0
   61.6665   28.2143   46.7839 H   0  0  0  0  0  0  0  0  0  0  0  0
   60.2918   27.0934   47.1311 H   0  0  0  0  0  0  0  0  0  0  0  0
   56.0833   24.3250   45.9032 H   0  0  0  0  0  0  0  0  0  0  0  0
   54.7630   26.7190   47.1140 H   0  0  0  0  0  0  0  0  0  0  0  0
   55.6791   28.9070   45.4958 H   0  0  0  0  0  0  0  0  0  0  0  0
   56.6323   30.3803   46.7054 H   0  0  0  0  0  0  0  0  0  0  0  0
   58.1717   29.3651   46.6560 H   0  0  0  0  0  0  0  0  0  0  0  0
   58.3368   31.8634   46.0682 H   0  0  0  0  0  0  0  0  0  0  0  0
   59.1214   30.6341   44.9982 H   0  0  0  0  0  0  0  0  0  0  0  0
   56.3634   31.8443   44.5022 H   0  0  0  0  0  0  0  0  0  0  0  0
   57.8831   32.4285   43.7440 H   0  0  0  0  0  0  0  0  0  0  0  0
   56.7080   30.8529   42.2579 H   0  0  0  0  0  0  0  0  0  0  0  0
   58.2896   30.1669   42.8402 H   0  0  0  0  0  0  0  0  0  0  0  0
   55.4719   29.3354   43.4565 H   0  0  0  0  0  0  0  0  0  0  0  0
   57.0118   28.3639   43.1053 H   0  0  0  0  0  0  0  0  0  0  0  0
  1  2  2  0
  2  3  1  0
  3  4  1  0
  4  5  1  0
  5  6  2  0
  6  7  1  0
  7  8  2  0
  7  9  1  0
  9 10  2  0
 10 11  1  0
 10 12  1  0
 12 13  1  0
 13 14  1  0
 14 15  1  0
 15 16  1  0
 16 17  1  0
 17 18  1  0
 12  5  1  0
 18 13  1  0
  1 19  1  0
  1 20  1  0
  2 21  1  0
  3 22  1  0
  3 23  1  0
  9 24  1  0
 11 25  1  0
 13 26  1  0
 14 27  1  0
 14 28  1  0
 15 29  1  0
 15 30  1  0
 16 31  1  0
 16 32  1  0
 17 33  1  0
 17 34  1  0
 18 35  1  0
 18 36  1  0
M  END
>  <UniqueID>  (96) 
86

>  <SMILES>  (96) 
C=CCSc1nc(=O)cc(O)n1C1CCCCC1

>  <Energy>  (96) 
49.374863613235455

>  <Genealogy>  (96) 
C=CCSc1nc(=O)cc(O)n1C1CCCCC1 (3D coordinates assigned)
C=CCSc1nc(=O)cc(O)n1C1CCCCC1 (nonaromatic ring conformer: 49.374863613235455 kcal/mol)

>  <smiles>  (96) 
C=CCSc1nc(=O)cc(O)n1C1CCCCC1

>  <score_type>  (96) 
oracle

>  <origin>  (96) 
adg

>  <m_score__min__energy>  (96) 
-6.4400000000000004

>  <m_primary>  (96) 
energy

$$$$
96:0
     RDKit          3D

 60 64  0  0  0  0  0  0  0  0999 V2000
   66.9610   34.0500   53.1180 C   0  0  0  0  0  0  0  0  0  0  0  0
   66.5140   34.1460   51.7200 N   0  0  0  0  0  0  0  0  0  0  0  0
   65.0540   34.3860   51.6340 C   0  0  0  0  0  0  0  0  0  0  0  0
   64.2560   33.0850   51.4230 C   0  0  0  0  0  0  0  0  0  0  0  0
   64.6780   32.3250   50.2090 N   0  0  0  0  0  0  0  0  0  0  0  0
   63.6410   32.3540   49.1360 C   0  0  2  0  0  0  0  0  0  0  0  0
   64.0120   33.4260   48.0870 C   0  0  0  0  0  0  0  0  0  0  0  0
   63.0900   33.3370   46.8700 C   0  0  0  0  0  0  0  0  0  0  0  0
   61.6320   33.3090   47.2530 C   0  0  0  0  0  0  0  0  0  0  0  0
   60.6680   33.5510   46.2650 C   0  0  0  0  0  0  0  0  0  0  0  0
   59.3030   33.4580   46.5600 C   0  0  0  0  0  0  0  0  0  0  0  0
   58.1280   33.6530   45.2630 S   0  0  0  0  0  0  0  0  0  0  0  0
   56.7330   33.7540   45.8130 O   0  0  0  0  0  0  0  0  0  0  0  0
   58.4490   34.9050   44.4970 O   0  0  0  0  0  0  0  0  0  0  0  0
   58.2360   32.2810   44.2120 N   0  0  0  0  0  0  0  0  0  0  0  0
   57.5860   31.0500   44.5590 C   0  0  0  0  0  0  0  0  0  0  0  0
   56.2750   30.8250   44.1140 C   0  0  0  0  0  0  0  0  0  0  0  0
   55.6020   29.6510   44.4480 C   0  0  0  0  0  0  0  0  0  0  0  0
   56.2200   28.6810   45.2380 C   0  0  0  0  0  0  0  0  0  0  0  0
   55.5200   27.5210   45.5540 O   0  0  0  0  0  0  0  0  0  0  0  0
   57.5320   28.8870   45.7100 C   0  0  0  0  0  0  0  0  0  0  0  0
   58.1580   27.9290   46.5270 C   0  0  0  0  0  0  0  0  0  0  0  0
   59.4460   28.1520   47.0180 C   0  0  0  0  0  0  0  0  0  0  0  0
   60.1210   29.3300   46.7040 C   0  0  0  0  0  0  0  0  0  0  0  0
   59.5200   30.2920   45.8900 C   0  0  0  0  0  0  0  0  0  0  0  0
   58.2250   30.0830   45.3710 C   0  0  0  0  0  0  0  0  0  0  0  0
   58.8960   33.1200   47.8540 C   0  0  0  0  0  0  0  0  0  0  0  0
   59.8470   32.8700   48.8460 C   0  0  0  0  0  0  0  0  0  0  0  0
   61.2180   32.9350   48.5520 C   0  0  0  0  0  0  0  0  0  0  0  0
   62.2180   32.6900   49.6600 C   0  0  0  0  0  0  0  0  0  0  0  0
   66.0410   32.6980   49.7510 C   0  0  0  0  0  0  0  0  0  0  0  0
   66.9650   32.9680   50.9440 C   0  0  0  0  0  0  0  0  0  0  0  0
   66.1087   34.2330   53.7889 H   0  0  0  0  0  0  0  0  0  0  0  0
   67.3657   33.0445   53.3053 H   0  0  0  0  0  0  0  0  0  0  0  0
   67.7429   34.8007   53.3053 H   0  0  0  0  0  0  0  0  0  0  0  0
   64.7181   34.8587   52.5687 H   0  0  0  0  0  0  0  0  0  0  0  0
   64.8717   35.0358   50.7653 H   0  0  0  0  0  0  0  0  0  0  0  0
   64.3969   32.4419   52.3043 H   0  0  0  0  0  0  0  0  0  0  0  0
   63.2025   33.3677   51.2811 H   0  0  0  0  0  0  0  0  0  0  0  0
   63.6197   31.3413   48.7070 H   0  0  0  0  0  0  0  0  0  0  0  0
   63.9150   34.4233   48.5407 H   0  0  0  0  0  0  0  0  0  0  0  0
   65.0475   33.2540   47.7582 H   0  0  0  0  0  0  0  0  0  0  0  0
   63.2693   34.2110   46.2266 H   0  0  0  0  0  0  0  0  0  0  0  0
   63.3168   32.3968   46.3461 H   0  0  0  0  0  0  0  0  0  0  0  0
   60.9876   33.8169   45.2466 H   0  0  0  0  0  0  0  0  0  0  0  0
   58.9300   32.3080   43.4320 H   0  0  0  0  0  0  0  0  0  0  0  0
   55.7727   31.5830   43.4950 H   0  0  0  0  0  0  0  0  0  0  0  0
   54.5761   29.4880   44.0861 H   0  0  0  0  0  0  0  0  0  0  0  0
   57.6298   26.9981   46.7809 H   0  0  0  0  0  0  0  0  0  0  0  0
   59.9291   27.3959   47.6543 H   0  0  0  0  0  0  0  0  0  0  0  0
   61.1327   29.5029   47.0996 H   0  0  0  0  0  0  0  0  0  0  0  0
   60.0604   31.2200   45.6515 H   0  0  0  0  0  0  0  0  0  0  0  0
   57.8242   33.0508   48.0915 H   0  0  0  0  0  0  0  0  0  0  0  0
   59.5189   32.6202   49.8658 H   0  0  0  0  0  0  0  0  0  0  0  0
   62.2791   33.5950   50.2823 H   0  0  0  0  0  0  0  0  0  0  0  0
   61.8658   31.8187   50.2317 H   0  0  0  0  0  0  0  0  0  0  0  0
   66.4575   31.8746   49.1522 H   0  0  0  0  0  0  0  0  0  0  0  0
   65.9699   33.6148   49.1474 H   0  0  0  0  0  0  0  0  0  0  0  0
   66.9680   32.0860   51.6013 H   0  0  0  0  0  0  0  0  0  0  0  0
   67.9756   33.1719   50.5604 H   0  0  0  0  0  0  0  0  0  0  0  0
  1  2  1  0
  2  3  1  0
  3  4  1  0
  4  5  1  0
  5  6  1  0
  6  7  1  0
  7  8  1  0
  8  9  1  0
  9 10  2  0
 10 11  1  0
 11 12  1  0
 12 13  2  0
 12 14  2  0
 12 15  1  0
 15 16  1  0
 16 17  2  0
 17 18  1  0
 18 19  2  0
 19 20  1  0
 19 21  1  0
 21 22  2  0
 22 23  1  0
 23 24  2  0
 24 25  1  0
 25 26  2  0
 11 27  2  0
 27 28  1  0
 28 29  2  0
 29 30  1  0
  5 31  1  0
 31 32  1  0
 32  2  1  0
 30  6  1  0
 29  9  1  0
 26 16  1  0
 26 21  1  0
  1 33  1  0
  1 34  1  0
  1 35  1  0
  3 36  1  0
  3 37  1  0
  4 38  1  0
  4 39  1  0
  6 40  1  6
  7 41  1  0
  7 42  1  0
  8 43  1  0
  8 44  1  0
 10 45  1  0
 15 46  1  0
 17 47  1  0
 18 48  1  0
 22 49  1  0
 23 50  1  0
 24 51  1  0
 25 52  1  0
 27 53  1  0
 28 54  1  0
 30 55  1  0
 30 56  1  0
 31 57  1  0
 31 58  1  0
 32 59  1  0
 32 60  1  0
M  CHG  1  20  -1
M  END
>  <UniqueID>  (97) 
87

>  <SMILES>  (97) 
CN1CCN([C@@H]2CCc3cc(S(=O)(=O)Nc4ccc([O-])c5ccccc45)ccc3C2)CC1

>  <Energy>  (97) 
92.62934589126105

>  <Genealogy>  (97) 
CN1CCN(C2CCc3cc(S(=O)(=O)Nc4ccc([O-])c5ccccc45)ccc3C2)CC1 (protonated)
CN1CCN([C@@H]2CCc3cc(S(=O)(=O)Nc4ccc([O-])c5ccccc45)ccc3C2)CC1 (chirality)
CN1CCN([C@@H]2CCc3cc(S(=O)(=O)Nc4ccc([O-])c5ccccc45)ccc3C2)CC1 (3D coordinates assigned)
CN1CCN([C@@H]2CCc3cc(S(=O)(=O)Nc4ccc([O-])c5ccccc45)ccc3C2)CC1 (nonaromatic ring conformer: 92.62934589126105 kcal/mol)

>  <smiles>  (97) 
CN1CCN(C2CCc3cc(S(=O)(=O)Nc4ccc(O)c5ccccc45)ccc3C2)CC1

>  <score_type>  (97) 
oracle

>  <origin>  (97) 
adg

>  <m_score__min__energy>  (97) 
-13.94

>  <m_primary>  (97) 
energy

$$$$
97:0
     RDKit          3D

 41 43  0  0  0  0  0  0  0  0999 V2000
   55.8730   29.9940   44.0900 C   0  0  0  0  0  0  0  0  0  0  0  0
   56.9670   30.8300   43.4340 C   0  0  0  0  0  0  0  0  0  0  0  0
   57.5660   31.7940   44.4210 C   0  0  0  0  0  0  0  0  0  0  0  0
   57.7690   33.1520   44.0620 C   0  0  0  0  0  0  0  0  0  0  0  0
   58.3090   34.0660   44.9850 C   0  0  0  0  0  0  0  0  0  0  0  0
   58.6250   33.5980   46.2570 C   0  0  0  0  0  0  0  0  0  0  0  0
   59.1480   34.2750   47.2520 O   0  0  0  0  0  0  0  0  0  0  0  0
   59.2930   33.4470   48.2710 C   0  0  0  0  0  0  0  0  0  0  0  0
   58.8340   32.1800   47.9250 C   0  0  0  0  0  0  0  0  0  0  0  0
   58.8900   30.9430   48.7680 C   0  0  0  0  0  0  0  0  0  0  0  0
   60.1030   30.1430   48.4170 C   0  0  0  0  0  0  0  0  0  0  0  0
   61.2290   30.7060   48.3720 O   0  0  0  0  0  0  0  0  0  0  0  0
   59.9460   28.7730   48.0270 N   0  0  0  0  0  0  0  0  0  0  0  0
   59.2730   28.2710   46.8640 C   0  0  0  0  0  0  0  0  0  0  0  0
   59.6320   28.6610   45.5600 C   0  0  0  0  0  0  0  0  0  0  0  0
   58.9590   28.1270   44.4580 C   0  0  0  0  0  0  0  0  0  0  0  0
   57.9360   27.1940   44.6430 C   0  0  0  0  0  0  0  0  0  0  0  0
   57.5840   26.7830   45.9340 C   0  0  0  0  0  0  0  0  0  0  0  0
   56.3100   25.5880   46.1530 S   0  0  0  0  0  0  0  0  0  0  0  0
   54.7690   26.3490   45.9640 N   0  0  0  0  0  0  0  0  0  0  0  0
   56.4650   24.4980   45.1280 O   0  0  0  0  0  0  0  0  0  0  0  0
   56.3890   24.9870   47.5290 O   0  0  0  0  0  0  0  0  0  0  0  0
   58.2620   27.3160   47.0400 C   0  0  0  0  0  0  0  0  0  0  0  0
   58.4140   32.2940   46.6160 C   0  0  0  0  0  0  0  0  0  0  0  0
   57.8830   31.3600   45.7270 C   0  0  0  0  0  0  0  0  0  0  0  0
   55.9644   30.0639   45.1840 H   0  0  0  0  0  0  0  0  0  0  0  0
   54.8874   30.3712   43.7796 H   0  0  0  0  0  0  0  0  0  0  0  0
   55.9781   28.9440   43.7796 H   0  0  0  0  0  0  0  0  0  0  0  0
   57.7557   30.1614   43.0586 H   0  0  0  0  0  0  0  0  0  0  0  0
   56.5245   31.4026   42.6056 H   0  0  0  0  0  0  0  0  0  0  0  0
   57.5012   33.4935   43.0512 H   0  0  0  0  0  0  0  0  0  0  0  0
   58.4763   35.1178   44.7099 H   0  0  0  0  0  0  0  0  0  0  0  0
   59.7148   33.7193   49.2497 H   0  0  0  0  0  0  0  0  0  0  0  0
   58.9349   31.2269   49.8298 H   0  0  0  0  0  0  0  0  0  0  0  0
   57.9906   30.3374   48.5829 H   0  0  0  0  0  0  0  0  0  0  0  0
   60.4439   29.3875   45.4082 H   0  0  0  0  0  0  0  0  0  0  0  0
   59.2358   28.4425   43.4412 H   0  0  0  0  0  0  0  0  0  0  0  0
   57.4057   26.7813   43.7721 H   0  0  0  0  0  0  0  0  0  0  0  0
   54.7020   27.0870   46.7000 H   0  0  0  0  0  0  0  0  0  0  0  0
   57.9982   26.9818   48.0543 H   0  0  0  0  0  0  0  0  0  0  0  0
   57.7161   30.3169   46.0337 H   0  0  0  0  0  0  0  0  0  0  0  0
  1  2  1  0
  2  3  1  0
  3  4  2  0
  4  5  1  0
  5  6  2  0
  6  7  1  0
  7  8  1  0
  8  9  2  0
  9 10  1  0
 10 11  1  0
 11 12  2  0
 11 13  1  0
 13 14  1  0
 14 15  2  0
 15 16  1  0
 16 17  2  0
 17 18  1  0
 18 19  1  0
 19 20  1  0
 19 21  2  0
 19 22  2  0
 18 23  2  0
  9 24  1  0
 24 25  2  0
 25  3  1  0
 24  6  1  0
 23 14  1  0
  1 26  1  0
  1 27  1  0
  1 28  1  0
  2 29  1  0
  2 30  1  0
  4 31  1  0
  5 32  1  0
  8 33  1  0
 10 34  1  0
 10 35  1  0
 15 36  1  0
 16 37  1  0
 17 38  1  0
 20 39  1  0
 23 40  1  0
 25 41  1  0
M  CHG  2  13  -1  20  -1
M  END
>  <UniqueID>  (98) 
88

>  <SMILES>  (98) 
CCc1ccc2occ(CC(=O)[N-]c3cccc(S([NH-])(=O)=O)c3)c2c1

>  <Energy>  (98) 
73.99159105477528

>  <Genealogy>  (98) 
CCc1ccc2occ(CC(=O)[N-]c3cccc(S([NH-])(=O)=O)c3)c2c1 (protonated)
CCc1ccc2occ(CC(=O)[N-]c3cccc(S([NH-])(=O)=O)c3)c2c1 (3D coordinates assigned)
CCc1ccc2occ(CC(=O)[N-]c3cccc(S([NH-])(=O)=O)c3)c2c1 (optimized conformer: 73.99159105477528 kcal/mol)

>  <smiles>  (98) 
CCc1ccc2occ(CC(=O)Nc3cccc(S(N)(=O)=O)c3)c2c1

>  <score_type>  (98) 
oracle

>  <origin>  (98) 
adg

>  <m_score__min__energy>  (98) 
-13.01

>  <m_primary>  (98) 
energy

$$$$
