0:0
     RDKit          3D

 38 39  0  0  0  0  0  0  0  0999 V2000
   57.3440   28.5930   44.3190 C   0  0  0  0  0  0  0  0  0  0  0  0
   56.7880   29.7310   45.0700 N   0  0  0  0  0  0  0  0  0  0  0  0
   57.8170   30.2660   45.9780 C   0  0  0  0  0  0  0  0  0  0  0  0
   56.3050   30.7720   44.1360 C   0  0  0  0  0  0  0  0  0  0  0  0
   57.4190   31.2200   43.1800 C   0  0  0  0  0  0  0  0  0  0  0  0
   57.7350   32.6370   43.3580 N   0  0  0  0  0  0  0  0  0  0  0  0
   57.9230   33.1940   44.6600 C   0  0  0  0  0  0  0  0  0  0  0  0
   59.1310   33.5500   45.2200 C   0  0  0  0  0  0  0  0  0  0  0  0
   58.8390   34.0180   46.4460 N   0  0  0  0  0  0  0  0  0  0  0  0
   59.7900   34.4450   47.4670 C   0  0  0  0  0  0  0  0  0  0  0  0
   60.9300   33.4690   47.5420 C   0  0  0  0  0  0  0  0  0  0  0  0
   60.7120   32.1600   48.0040 C   0  0  0  0  0  0  0  0  0  0  0  0
   61.7650   31.2390   48.0350 C   0  0  0  0  0  0  0  0  0  0  0  0
   63.0370   31.6170   47.5960 C   0  0  0  0  0  0  0  0  0  0  0  0
   63.2570   32.9130   47.1200 C   0  0  0  0  0  0  0  0  0  0  0  0
   62.2070   33.8350   47.0880 C   0  0  0  0  0  0  0  0  0  0  0  0
   57.5280   33.9320   46.6180 N   0  0  0  0  0  0  0  0  0  0  0  0
   56.9330   33.4370   45.5430 N   0  0  0  0  0  0  0  0  0  0  0  0
   57.7147   27.8344   45.0241 H   0  0  0  0  0  0  0  0  0  0  0  0
   56.5594   28.1530   43.6860 H   0  0  0  0  0  0  0  0  0  0  0  0
   58.1733   28.9415   43.6860 H   0  0  0  0  0  0  0  0  0  0  0  0
   57.5059   30.1043   47.0206 H   0  0  0  0  0  0  0  0  0  0  0  0
   58.7711   29.7498   45.7957 H   0  0  0  0  0  0  0  0  0  0  0  0
   57.9425   31.3435   45.7957 H   0  0  0  0  0  0  0  0  0  0  0  0
   55.4689   30.3661   43.5476 H   0  0  0  0  0  0  0  0  0  0  0  0
   55.9790   31.6430   44.7235 H   0  0  0  0  0  0  0  0  0  0  0  0
   58.3221   30.6240   43.3780 H   0  0  0  0  0  0  0  0  0  0  0  0
   57.0714   31.0692   42.1473 H   0  0  0  0  0  0  0  0  0  0  0  0
   57.8340   33.2660   42.5270 H   0  0  0  0  0  0  0  0  0  0  0  0
   60.1267   33.4682   44.7597 H   0  0  0  0  0  0  0  0  0  0  0  0
   60.1788   35.4413   47.2098 H   0  0  0  0  0  0  0  0  0  0  0  0
   59.2820   34.4852   48.4419 H   0  0  0  0  0  0  0  0  0  0  0  0
   59.7099   31.8582   48.3426 H   0  0  0  0  0  0  0  0  0  0  0  0
   61.5917   30.2176   48.4048 H   0  0  0  0  0  0  0  0  0  0  0  0
   63.8657   30.8942   47.6251 H   0  0  0  0  0  0  0  0  0  0  0  0
   64.2575   33.2074   46.7703 H   0  0  0  0  0  0  0  0  0  0  0  0
   62.3820   34.8514   46.7056 H   0  0  0  0  0  0  0  0  0  0  0  0
   57.0250   34.2060   47.4910 H   0  0  0  0  0  0  0  0  0  0  0  0
  1  2  1  0
  2  3  1  0
  2  4  1  0
  4  5  1  0
  5  6  1  0
  6  7  1  0
  7  8  2  0
  8  9  1  0
  9 10  1  0
 10 11  1  0
 11 12  2  0
 12 13  1  0
 13 14  2  0
 14 15  1  0
 15 16  2  0
  9 17  1  0
 17 18  2  0
 18  7  1  0
 16 11  1  0
  1 19  1  0
  1 20  1  0
  1 21  1  0
  3 22  1  0
  3 23  1  0
  3 24  1  0
  4 25  1  0
  4 26  1  0
  5 27  1  0
  5 28  1  0
  6 29  1  0
  8 30  1  0
 10 31  1  0
 10 32  1  0
 12 33  1  0
 13 34  1  0
 14 35  1  0
 15 36  1  0
 16 37  1  0
 17 38  1  0
M  CHG  1  17   1
M  END
>  <UniqueID>  (1) 
1

>  <SMILES>  (1) 
CN(C)CCNc1cn(Cc2ccccc2)[nH+]n1

>  <Energy>  (1) 
67.99537834774166

>  <Genealogy>  (1) 
CN(C)CCNc1cn(Cc2ccccc2)[nH+]n1 (protonated)
CN(C)CCNc1cn(Cc2ccccc2)[nH+]n1 (3D coordinates assigned)
CN(C)CCNc1cn(Cc2ccccc2)[nH+]n1 (optimized conformer: 67.99537834774166 kcal/mol)

>  <smiles>  (1) 
CN(C)CCNc1cn(Cc2ccccc2)nn1

>  <score_type>  (1) 
oracle

>  <origin>  (1) 
adg

>  <m_score__min__energy>  (1) 
-5.0499999999999998

>  <m_primary>  (1) 
energy

$$$$
1:0
     RDKit          3D

 27 28  0  0  0  0  0  0  0  0999 V2000
   57.3940   25.5990   44.5390 C   0  0  0  0  0  0  0  0  0  0  0  0
   56.7890   26.4830   45.9580 S   0  0  0  0  0  0  0  0  0  0  0  0
   57.3350   25.8570   47.2110 O   0  0  0  0  0  0  0  0  0  0  0  0
   55.2880   26.4060   45.9950 O   0  0  0  0  0  0  0  0  0  0  0  0
   57.2980   28.1650   45.8600 C   0  0  0  0  0  0  0  0  0  0  0  0
   58.2770   28.6580   46.7320 C   0  0  0  0  0  0  0  0  0  0  0  0
   58.6710   29.9960   46.6640 C   0  0  0  0  0  0  0  0  0  0  0  0
   58.0890   30.8670   45.7250 C   0  0  0  0  0  0  0  0  0  0  0  0
   58.5060   32.2900   45.6510 C   0  0  0  0  0  0  0  0  0  0  0  0
   59.6460   32.7440   46.3370 C   0  0  0  0  0  0  0  0  0  0  0  0
   60.0260   34.0850   46.2590 C   0  0  0  0  0  0  0  0  0  0  0  0
   59.2640   34.9670   45.4930 C   0  0  0  0  0  0  0  0  0  0  0  0
   58.1650   34.5210   44.8320 N   0  0  0  0  0  0  0  0  0  0  0  0
   57.7720   33.2200   44.8930 C   0  0  0  0  0  0  0  0  0  0  0  0
   57.1010   30.3650   44.8560 C   0  0  0  0  0  0  0  0  0  0  0  0
   56.7070   29.0260   44.9280 C   0  0  0  0  0  0  0  0  0  0  0  0
   57.9863   24.7336   44.8712 H   0  0  0  0  0  0  0  0  0  0  0  0
   56.5438   25.2510   43.9339 H   0  0  0  0  0  0  0  0  0  0  0  0
   58.0262   26.2655   43.9339 H   0  0  0  0  0  0  0  0  0  0  0  0
   58.7374   27.9885   47.4734 H   0  0  0  0  0  0  0  0  0  0  0  0
   59.4434   30.3723   47.3509 H   0  0  0  0  0  0  0  0  0  0  0  0
   60.2408   32.0400   46.9375 H   0  0  0  0  0  0  0  0  0  0  0  0
   60.9170   34.4423   46.7960 H   0  0  0  0  0  0  0  0  0  0  0  0
   59.5539   36.0259   45.4242 H   0  0  0  0  0  0  0  0  0  0  0  0
   56.8750   32.8935   44.3464 H   0  0  0  0  0  0  0  0  0  0  0  0
   56.6359   31.0318   44.1150 H   0  0  0  0  0  0  0  0  0  0  0  0
   55.9289   28.6470   44.2491 H   0  0  0  0  0  0  0  0  0  0  0  0
  1  2  1  0
  2  3  2  0
  2  4  2  0
  2  5  1  0
  5  6  2  0
  6  7  1  0
  7  8  2  0
  8  9  1  0
  9 10  2  0
 10 11  1  0
 11 12  2  0
 12 13  1  0
 13 14  2  0
  8 15  1  0
 15 16  2  0
 16  5  1  0
 14  9  1  0
  1 17  1  0
  1 18  1  0
  1 19  1  0
  6 20  1  0
  7 21  1  0
 10 22  1  0
 11 23  1  0
 12 24  1  0
 14 25  1  0
 15 26  1  0
 16 27  1  0
M  END
>  <UniqueID>  (2) 
2

>  <SMILES>  (2) 
CS(=O)(=O)c1ccc(-c2cccnc2)cc1

>  <Energy>  (2) 
30.985465134926184

>  <Genealogy>  (2) 
CS(=O)(=O)c1ccc(-c2cccnc2)cc1 (3D coordinates assigned)
CS(=O)(=O)c1ccc(-c2cccnc2)cc1 (optimized conformer: 30.985465134926184 kcal/mol)

>  <smiles>  (2) 
CS(=O)(=O)c1ccc(-c2cccnc2)cc1

>  <score_type>  (2) 
oracle

>  <origin>  (2) 
adg

>  <m_score__min__energy>  (2) 
-6.5700000000000003

>  <m_primary>  (2) 
energy

$$$$
2:0
     RDKit          3D

 46 48  0  0  0  0  0  0  0  0999 V2000
   56.5660   29.3590   42.9110 C   0  0  0  0  0  0  0  0  0  0  0  0
   56.8740   30.3730   43.9630 C   0  0  0  0  0  0  0  0  0  0  0  0
   55.9350   31.0290   44.4910 O   0  0  0  0  0  0  0  0  0  0  0  0
   58.2260   30.5640   44.3990 N   0  0  0  0  0  0  0  0  0  0  0  0
   58.5650   31.4860   45.4430 C   0  0  0  0  0  0  0  0  0  0  0  0
   58.3250   32.8500   45.2330 C   0  0  0  0  0  0  0  0  0  0  0  0
   58.6610   33.7870   46.2110 C   0  0  0  0  0  0  0  0  0  0  0  0
   59.2430   33.3680   47.4070 C   0  0  0  0  0  0  0  0  0  0  0  0
   59.6840   34.5500   48.6280 Cl  0  0  0  0  0  0  0  0  0  0  0  0
   59.4680   32.0090   47.6390 C   0  0  0  0  0  0  0  0  0  0  0  0
   59.1060   31.0460   46.6780 C   0  0  0  0  0  0  0  0  0  0  0  0
   59.2780   29.5690   47.0030 C   0  0  0  0  0  0  0  0  0  0  0  0
   58.7790   28.6610   45.9450 N   0  0  0  0  0  0  0  0  0  0  0  0
   57.4740   28.0380   46.2590 C   0  0  0  0  0  0  0  0  0  0  0  0
   57.1100   26.9580   45.2380 C   0  0  0  0  0  0  0  0  0  0  0  0
   58.1600   25.9290   45.1940 N   0  0  0  0  0  0  0  0  0  0  0  0
   57.8480   24.5870   44.7590 C   0  0  0  0  0  0  0  0  0  0  0  0
   58.4880   23.4770   45.3410 C   0  0  0  0  0  0  0  0  0  0  0  0
   58.1830   22.1790   44.9190 C   0  0  0  0  0  0  0  0  0  0  0  0
   57.2370   21.9740   43.9120 C   0  0  0  0  0  0  0  0  0  0  0  0
   56.9430   20.7150   43.5030 F   0  0  0  0  0  0  0  0  0  0  0  0
   56.5950   23.0660   43.3260 C   0  0  0  0  0  0  0  0  0  0  0  0
   56.8950   24.3660   43.7450 C   0  0  0  0  0  0  0  0  0  0  0  0
   59.5140   26.2730   45.6490 C   0  0  0  0  0  0  0  0  0  0  0  0
   59.8030   27.7540   45.3710 C   0  0  0  0  0  0  0  0  0  0  0  0
   56.2780   28.4109   43.3887 H   0  0  0  0  0  0  0  0  0  0  0  0
   55.7372   29.7206   42.2847 H   0  0  0  0  0  0  0  0  0  0  0  0
   57.4559   29.1985   42.2847 H   0  0  0  0  0  0  0  0  0  0  0  0
   58.9480   29.8680   44.1020 H   0  0  0  0  0  0  0  0  0  0  0  0
   57.8682   33.1850   44.2901 H   0  0  0  0  0  0  0  0  0  0  0  0
   58.4668   34.8559   46.0385 H   0  0  0  0  0  0  0  0  0  0  0  0
   59.9330   31.6878   48.5827 H   0  0  0  0  0  0  0  0  0  0  0  0
   60.3492   29.3698   47.1538 H   0  0  0  0  0  0  0  0  0  0  0  0
   58.6807   29.3682   47.9047 H   0  0  0  0  0  0  0  0  0  0  0  0
   57.5265   27.5821   47.2587 H   0  0  0  0  0  0  0  0  0  0  0  0
   56.7007   28.8197   46.2262 H   0  0  0  0  0  0  0  0  0  0  0  0
   56.1560   26.4921   45.5258 H   0  0  0  0  0  0  0  0  0  0  0  0
   57.0166   27.4195   44.2439 H   0  0  0  0  0  0  0  0  0  0  0  0
   59.2342   23.6315   46.1343 H   0  0  0  0  0  0  0  0  0  0  0  0
   58.6888   21.3183   45.3808 H   0  0  0  0  0  0  0  0  0  0  0  0
   55.8509   22.9036   42.5323 H   0  0  0  0  0  0  0  0  0  0  0  0
   56.3836   25.2217   43.2799 H   0  0  0  0  0  0  0  0  0  0  0  0
   59.5939   26.0833   46.7296 H   0  0  0  0  0  0  0  0  0  0  0  0
   60.2443   25.6554   45.1056 H   0  0  0  0  0  0  0  0  0  0  0  0
   60.7805   28.0084   45.8065 H   0  0  0  0  0  0  0  0  0  0  0  0
   59.7916   27.8928   44.2798 H   0  0  0  0  0  0  0  0  0  0  0  0
  1  2  1  0
  2  3  2  0
  2  4  1  0
  4  5  1  0
  5  6  2  0
  6  7  1  0
  7  8  2  0
  8  9  1  0
  8 10  1  0
 10 11  2  0
 11 12  1  0
 12 13  1  0
 13 14  1  0
 14 15  1  0
 15 16  1  0
 16 17  1  0
 17 18  2  0
 18 19  1  0
 19 20  2  0
 20 21  1  0
 20 22  1  0
 22 23  2  0
 16 24  1  0
 24 25  1  0
 11  5  1  0
 25 13  1  0
 23 17  1  0
  1 26  1  0
  1 27  1  0
  1 28  1  0
  4 29  1  0
  6 30  1  0
  7 31  1  0
 10 32  1  0
 12 33  1  0
 12 34  1  0
 14 35  1  0
 14 36  1  0
 15 37  1  0
 15 38  1  0
 18 39  1  0
 19 40  1  0
 22 41  1  0
 23 42  1  0
 24 43  1  0
 24 44  1  0
 25 45  1  0
 25 46  1  0
M  END
>  <UniqueID>  (3) 
3

>  <SMILES>  (3) 
CC(=O)Nc1ccc(Cl)cc1CN1CCN(c2ccc(F)cc2)CC1

>  <Energy>  (3) 
65.13946130745117

>  <Genealogy>  (3) 
CC(=O)Nc1ccc(Cl)cc1CN1CCN(c2ccc(F)cc2)CC1 (3D coordinates assigned)
CC(=O)Nc1ccc(Cl)cc1CN1CCN(c2ccc(F)cc2)CC1 (nonaromatic ring conformer: 65.13946130745117 kcal/mol)

>  <smiles>  (3) 
CC(=O)Nc1ccc(Cl)cc1CN1CCN(c2ccc(F)cc2)CC1

>  <score_type>  (3) 
oracle

>  <origin>  (3) 
adg

>  <m_score__min__energy>  (3) 
-8.1199999999999992

>  <m_primary>  (3) 
energy

$$$$
3:0
     RDKit          3D

 60 63  0  0  0  0  0  0  0  0999 V2000
   61.0380   27.7170   50.8180 C   0  0  0  0  0  0  0  0  0  0  0  0
   61.4730   28.9570   50.2680 O   0  0  0  0  0  0  0  0  0  0  0  0
   60.6240   29.8890   49.6510 C   0  0  0  0  0  0  0  0  0  0  0  0
   59.3900   30.1630   50.2500 C   0  0  0  0  0  0  0  0  0  0  0  0
   58.5180   31.1000   49.6860 C   0  0  0  0  0  0  0  0  0  0  0  0
   58.8760   31.7890   48.5160 C   0  0  0  0  0  0  0  0  0  0  0  0
   57.9150   32.7500   47.8650 C   0  0  0  0  0  0  0  0  0  0  0  0
   58.5550   33.4960   46.7770 N   0  0  0  0  0  0  0  0  0  0  0  0
   59.6150   34.3190   46.9170 C   0  0  0  0  0  0  0  0  0  0  0  0
   59.9530   34.8670   45.6980 C   0  0  0  0  0  0  0  0  0  0  0  0
   59.0620   34.3590   44.7740 C   0  0  0  0  0  0  0  0  0  0  0  0
   58.2130   33.5170   45.4680 C   0  0  0  0  0  0  0  0  0  0  0  0
   57.1040   32.7150   44.8430 C   0  0  0  0  0  0  0  0  0  0  0  0
   57.1990   31.2960   45.2430 N   0  0  0  0  0  0  0  0  0  0  0  0
   58.5960   30.8140   45.1890 C   0  0  0  0  0  0  0  0  0  0  0  0
   58.7160   29.4190   45.8330 C   0  0  0  0  0  0  0  0  0  0  0  0
   57.3660   28.6770   45.8740 C   0  0  0  0  0  0  0  0  0  0  0  0
   57.5720   27.2390   46.0680 N   0  0  0  0  0  0  0  0  0  0  0  0
   56.4860   26.3030   46.0520 C   0  0  0  0  0  0  0  0  0  0  0  0
   55.2960   26.7150   45.9830 O   0  0  0  0  0  0  0  0  0  0  0  0
   56.7680   24.9040   46.1610 N   0  0  0  0  0  0  0  0  0  0  0  0
   56.8470   23.9560   45.0860 C   0  0  0  0  0  0  0  0  0  0  0  0
   55.9060   24.0380   44.0500 C   0  0  0  0  0  0  0  0  0  0  0  0
   55.9290   23.1180   42.9970 C   0  0  0  0  0  0  0  0  0  0  0  0
   56.8850   22.1000   42.9790 C   0  0  0  0  0  0  0  0  0  0  0  0
   57.8140   21.9950   44.0160 C   0  0  0  0  0  0  0  0  0  0  0  0
   57.7950   22.9140   45.0710 C   0  0  0  0  0  0  0  0  0  0  0  0
   56.5690   28.9470   44.5890 C   0  0  0  0  0  0  0  0  0  0  0  0
   56.3360   30.4610   44.3750 C   0  0  0  0  0  0  0  0  0  0  0  0
   60.1060   31.5010   47.9050 C   0  0  0  0  0  0  0  0  0  0  0  0
   60.9760   30.5620   48.4660 C   0  0  0  0  0  0  0  0  0  0  0  0
   61.0586   27.7757   51.9162 H   0  0  0  0  0  0  0  0  0  0  0  0
   60.0123   27.5062   50.4812 H   0  0  0  0  0  0  0  0  0  0  0  0
   61.7073   26.9116   50.4812 H   0  0  0  0  0  0  0  0  0  0  0  0
   59.1029   29.6371   51.1725 H   0  0  0  0  0  0  0  0  0  0  0  0
   57.5462   31.2983   50.1617 H   0  0  0  0  0  0  0  0  0  0  0  0
   57.0642   32.1839   47.4580 H   0  0  0  0  0  0  0  0  0  0  0  0
   57.5786   33.4699   48.6257 H   0  0  0  0  0  0  0  0  0  0  0  0
   60.1337   34.5229   47.8653 H   0  0  0  0  0  0  0  0  0  0  0  0
   60.7736   35.5723   45.5000 H   0  0  0  0  0  0  0  0  0  0  0  0
   59.0332   34.5806   43.6969 H   0  0  0  0  0  0  0  0  0  0  0  0
   56.1355   33.1194   45.1724 H   0  0  0  0  0  0  0  0  0  0  0  0
   57.1918   32.7815   43.7485 H   0  0  0  0  0  0  0  0  0  0  0  0
   58.9176   30.7557   44.1387 H   0  0  0  0  0  0  0  0  0  0  0  0
   59.2343   31.5164   45.7451 H   0  0  0  0  0  0  0  0  0  0  0  0
   59.4314   28.8204   45.2500 H   0  0  0  0  0  0  0  0  0  0  0  0
   59.0576   29.5547   46.8698 H   0  0  0  0  0  0  0  0  0  0  0  0
   56.7846   29.0554   46.7277 H   0  0  0  0  0  0  0  0  0  0  0  0
   58.5440   26.8600   46.1440 H   0  0  0  0  0  0  0  0  0  0  0  0
   55.1443   24.8315   44.0655 H   0  0  0  0  0  0  0  0  0  0  0  0
   55.1938   23.1962   42.1825 H   0  0  0  0  0  0  0  0  0  0  0  0
   56.9061   21.3804   42.1473 H   0  0  0  0  0  0  0  0  0  0  0  0
   58.5620   21.1886   44.0036 H   0  0  0  0  0  0  0  0  0  0  0  0
   58.5224   22.8226   45.8911 H   0  0  0  0  0  0  0  0  0  0  0  0
   57.1282   28.5464   43.7306 H   0  0  0  0  0  0  0  0  0  0  0  0
   55.5888   28.4562   44.6809 H   0  0  0  0  0  0  0  0  0  0  0  0
   56.5502   30.7059   43.3242 H   0  0  0  0  0  0  0  0  0  0  0  0
   55.2896   30.6783   44.6356 H   0  0  0  0  0  0  0  0  0  0  0  0
   60.3879   32.0188   46.9764 H   0  0  0  0  0  0  0  0  0  0  0  0
   61.9392   30.3482   47.9797 H   0  0  0  0  0  0  0  0  0  0  0  0
  1  2  1  0
  2  3  1  0
  3  4  2  0
  4  5  1  0
  5  6  2  0
  6  7  1  0
  7  8  1  0
  8  9  1  0
  9 10  2  0
 10 11  1  0
 11 12  2  0
 12 13  1  0
 13 14  1  0
 14 15  1  0
 15 16  1  0
 16 17  1  0
 17 18  1  0
 18 19  1  0
 19 20  2  0
 19 21  1  0
 21 22  1  0
 22 23  2  0
 23 24  1  0
 24 25  2  0
 25 26  1  0
 26 27  2  0
 17 28  1  0
 28 29  1  0
  6 30  1  0
 30 31  2  0
 31  3  1  0
 12  8  1  0
 29 14  1  0
 27 22  1  0
  1 32  1  0
  1 33  1  0
  1 34  1  0
  4 35  1  0
  5 36  1  0
  7 37  1  0
  7 38  1  0
  9 39  1  0
 10 40  1  0
 11 41  1  0
 13 42  1  0
 13 43  1  0
 15 44  1  0
 15 45  1  0
 16 46  1  0
 16 47  1  0
 17 48  1  0
 18 49  1  0
 23 50  1  0
 24 51  1  0
 25 52  1  0
 26 53  1  0
 27 54  1  0
 28 55  1  0
 28 56  1  0
 29 57  1  0
 29 58  1  0
 30 59  1  0
 31 60  1  0
M  CHG  1  21  -1
M  END
>  <UniqueID>  (4) 
4

>  <SMILES>  (4) 
COc1ccc(Cn2cccc2CN2CCC(NC(=O)[N-]c3ccccc3)CC2)cc1

>  <Energy>  (4) 
87.24591317121353

>  <Genealogy>  (4) 
COc1ccc(Cn2cccc2CN2CCC(NC(=O)[N-]c3ccccc3)CC2)cc1 (protonated)
COc1ccc(Cn2cccc2CN2CCC(NC(=O)[N-]c3ccccc3)CC2)cc1 (3D coordinates assigned)
COc1ccc(Cn2cccc2CN2CCC(NC(=O)[N-]c3ccccc3)CC2)cc1 (nonaromatic ring conformer: 87.24591317121353 kcal/mol)

>  <smiles>  (4) 
COc1ccc(Cn2cccc2CN2CCC(NC(=O)Nc3ccccc3)CC2)cc1

>  <score_type>  (4) 
oracle

>  <origin>  (4) 
adg

>  <m_score__min__energy>  (4) 
-11

>  <m_primary>  (4) 
energy

$$$$
4:0
     RDKit          3D

 47 49  0  0  0  0  0  0  0  0999 V2000
   57.9870   26.9800   42.6520 C   0  0  0  0  0  0  0  0  0  0  0  0
   58.3250   27.9900   43.6680 N   0  0  2  0  0  0  0  0  0  0  0  0
   58.6920   27.3200   44.9380 C   0  0  0  0  0  0  0  0  0  0  0  0
   59.3870   28.2420   45.9180 C   0  0  0  0  0  0  0  0  0  0  0  0
   60.3690   29.1400   45.4680 C   0  0  0  0  0  0  0  0  0  0  0  0
   61.0040   30.0040   46.3640 C   0  0  0  0  0  0  0  0  0  0  0  0
   60.6450   29.9990   47.7130 C   0  0  0  0  0  0  0  0  0  0  0  0
   59.6440   29.1350   48.1660 C   0  0  0  0  0  0  0  0  0  0  0  0
   59.0110   28.2660   47.2730 C   0  0  0  0  0  0  0  0  0  0  0  0
   56.9940   29.1180   43.8690 S   0  0  0  0  0  0  0  0  0  0  0  0
   56.0090   28.5910   44.8770 O   0  0  0  0  0  0  0  0  0  0  0  0
   56.2760   29.2490   42.5530 O   0  0  0  0  0  0  0  0  0  0  0  0
   57.5300   30.7150   44.3970 C   0  0  0  0  0  0  0  0  0  0  0  0
   57.7670   30.9680   45.7560 C   0  0  0  0  0  0  0  0  0  0  0  0
   58.1180   32.2510   46.1820 C   0  0  0  0  0  0  0  0  0  0  0  0
   58.2360   33.2980   45.2540 C   0  0  0  0  0  0  0  0  0  0  0  0
   58.5360   34.6370   45.6710 N   0  0  0  0  0  0  0  0  0  0  0  0
   59.7170   35.0390   46.3790 C   0  0  0  0  0  0  0  0  0  0  0  0
   60.3360   36.0660   45.9940 O   0  0  0  0  0  0  0  0  0  0  0  0
   60.1770   34.3170   47.5910 C   0  0  0  0  0  0  0  0  0  0  0  0
   59.2970   34.1840   48.6790 C   0  0  0  0  0  0  0  0  0  0  0  0
   59.6850   33.4940   49.8270 C   0  0  0  0  0  0  0  0  0  0  0  0
   60.9530   32.9230   49.9030 C   0  0  0  0  0  0  0  0  0  0  0  0
   61.8480   33.0470   48.8350 C   0  0  0  0  0  0  0  0  0  0  0  0
   63.4330   32.2990   48.9770 Cl  0  0  0  0  0  0  0  0  0  0  0  0
   61.4690   33.7470   47.6740 C   0  0  0  0  0  0  0  0  0  0  0  0
   62.5910   33.8410   46.3130 Cl  0  0  0  0  0  0  0  0  0  0  0  0
   58.0760   33.0270   43.8900 C   0  0  0  0  0  0  0  0  0  0  0  0
   57.7240   31.7420   43.4620 C   0  0  0  0  0  0  0  0  0  0  0  0
   57.6756   26.0496   43.1493 H   0  0  0  0  0  0  0  0  0  0  0  0
   57.1647   27.3529   42.0237 H   0  0  0  0  0  0  0  0  0  0  0  0
   58.8681   26.7828   42.0237 H   0  0  0  0  0  0  0  0  0  0  0  0
   59.1460   28.5270   43.3060 H   0  0  0  0  0  0  0  0  0  0  0  0
   57.7750   26.9361   45.4088 H   0  0  0  0  0  0  0  0  0  0  0  0
   59.3975   26.5131   44.6907 H   0  0  0  0  0  0  0  0  0  0  0  0
   60.6402   29.1632   44.4022 H   0  0  0  0  0  0  0  0  0  0  0  0
   61.7872   30.6885   46.0061 H   0  0  0  0  0  0  0  0  0  0  0  0
   61.1497   30.6747   48.4192 H   0  0  0  0  0  0  0  0  0  0  0  0
   59.3540   29.1390   49.2271 H   0  0  0  0  0  0  0  0  0  0  0  0
   58.2146   27.5974   47.6318 H   0  0  0  0  0  0  0  0  0  0  0  0
   57.6761   30.1529   46.4891 H   0  0  0  0  0  0  0  0  0  0  0  0
   58.3028   32.4420   47.2494 H   0  0  0  0  0  0  0  0  0  0  0  0
   58.2923   34.6286   48.6243 H   0  0  0  0  0  0  0  0  0  0  0  0
   58.9888   33.4006   50.6735 H   0  0  0  0  0  0  0  0  0  0  0  0
   61.2521   32.3720   50.8069 H   0  0  0  0  0  0  0  0  0  0  0  0
   58.2277   33.8278   43.1512 H   0  0  0  0  0  0  0  0  0  0  0  0
   57.5991   31.5368   42.3886 H   0  0  0  0  0  0  0  0  0  0  0  0
  1  2  1  0
  2  3  1  0
  3  4  1  0
  4  5  2  0
  5  6  1  0
  6  7  2  0
  7  8  1  0
  8  9  2  0
  2 10  1  0
 10 11  2  0
 10 12  2  0
 10 13  1  0
 13 14  2  0
 14 15  1  0
 15 16  2  0
 16 17  1  0
 17 18  1  0
 18 19  2  0
 18 20  1  0
 20 21  2  0
 21 22  1  0
 22 23  2  0
 23 24  1  0
 24 25  1  0
 24 26  2  0
 26 27  1  0
 16 28  1  0
 28 29  2  0
  9  4  1  0
 29 13  1  0
 26 20  1  0
  1 30  1  0
  1 31  1  0
  1 32  1  0
  2 33  1  6
  3 34  1  0
  3 35  1  0
  5 36  1  0
  6 37  1  0
  7 38  1  0
  8 39  1  0
  9 40  1  0
 14 41  1  0
 15 42  1  0
 21 43  1  0
 22 44  1  0
 23 45  1  0
 28 46  1  0
 29 47  1  0
M  CHG  2   2   1  17  -1
M  END
>  <UniqueID>  (5) 
5

>  <SMILES>  (5) 
C[N@H+](Cc1ccccc1)S(=O)(=O)c1ccc([N-]C(=O)c2cccc(Cl)c2Cl)cc1

>  <Energy>  (5) 
57.46513818338767

>  <Genealogy>  (5) 
C[NH+](Cc1ccccc1)S(=O)(=O)c1ccc([N-]C(=O)c2cccc(Cl)c2Cl)cc1 (protonated)
C[N@H+](Cc1ccccc1)S(=O)(=O)c1ccc([N-]C(=O)c2cccc(Cl)c2Cl)cc1 (chirality)
C[N@H+](Cc1ccccc1)S(=O)(=O)c1ccc([N-]C(=O)c2cccc(Cl)c2Cl)cc1 (3D coordinates assigned)
C[N@H+](Cc1ccccc1)S(=O)(=O)c1ccc([N-]C(=O)c2cccc(Cl)c2Cl)cc1 (optimized conformer: 57.46513818338767 kcal/mol)

>  <smiles>  (5) 
CN(Cc1ccccc1)S(=O)(=O)c1ccc(NC(=O)c2cccc(Cl)c2Cl)cc1

>  <score_type>  (5) 
oracle

>  <origin>  (5) 
adg

>  <m_score__min__energy>  (5) 
-9.1300000000000008

>  <m_primary>  (5) 
energy

$$$$
5:0
     RDKit          3D

 19 20  0  0  0  0  0  0  0  0999 V2000
   51.0200   30.7620   48.7730 O   0  0  0  0  0  0  0  0  0  0  0  0
   51.4030   31.0570   49.9340 C   0  0  0  0  0  0  0  0  0  0  0  0
   52.5070   30.4640   50.4550 N   0  0  0  0  0  0  0  0  0  0  0  0
   52.9290   30.7750   51.7100 C   0  0  0  0  0  0  0  0  0  0  0  0
   54.1370   30.1270   52.2800 C   0  0  0  0  0  0  0  0  0  0  0  0
   54.0330   28.9110   52.9830 C   0  0  0  0  0  0  0  0  0  0  0  0
   55.1720   28.3020   53.5200 C   0  0  0  0  0  0  0  0  0  0  0  0
   56.4250   28.8980   53.3610 C   0  0  0  0  0  0  0  0  0  0  0  0
   56.5420   30.1030   52.6660 C   0  0  0  0  0  0  0  0  0  0  0  0
   55.4070   30.7160   52.1280 C   0  0  0  0  0  0  0  0  0  0  0  0
   52.2300   31.6890   52.4370 N   0  0  0  0  0  0  0  0  0  0  0  0
   51.1270   32.2830   51.9180 C   0  0  0  0  0  0  0  0  0  0  0  0
   50.2980   33.3770   52.8010 S   0  0  0  0  0  0  0  0  0  0  0  0
   50.7130   31.9660   50.6660 N   0  0  0  0  0  0  0  0  0  0  0  0
   53.0488   28.4367   53.1107 H   0  0  0  0  0  0  0  0  0  0  0  0
   55.0807   27.3527   54.0681 H   0  0  0  0  0  0  0  0  0  0  0  0
   57.3199   28.4178   53.7835 H   0  0  0  0  0  0  0  0  0  0  0  0
   57.5296   30.5711   52.5415 H   0  0  0  0  0  0  0  0  0  0  0  0
   55.5065   31.6656   51.5818 H   0  0  0  0  0  0  0  0  0  0  0  0
  1  2  2  0
  2  3  1  0
  3  4  2  0
  4  5  1  0
  5  6  2  0
  6  7  1  0
  7  8  2  0
  8  9  1  0
  9 10  2  0
  4 11  1  0
 11 12  1  0
 12 13  2  0
 12 14  1  0
 14  2  1  0
 10  5  1  0
  6 15  1  0
  7 16  1  0
  8 17  1  0
  9 18  1  0
 10 19  1  0
M  CHG  2  11  -1  14  -1
M  END
>  <UniqueID>  (6) 
6

>  <SMILES>  (6) 
O=c1nc(-c2ccccc2)[n-]c(=S)[n-]1

>  <Energy>  (6) 
22.02735899943024

>  <Genealogy>  (6) 
O=c1nc(-c2ccccc2)[n-]c(=S)[n-]1 (protonated)
O=c1nc(-c2ccccc2)[n-]c(=S)[n-]1 (3D coordinates assigned)
O=c1nc(-c2ccccc2)[n-]c(=S)[n-]1 (optimized conformer: 22.02735899943024 kcal/mol)

>  <smiles>  (6) 
O=c1nc(-c2ccccc2)[nH]c(=S)[nH]1

>  <score_type>  (6) 
oracle

>  <origin>  (6) 
adg

>  <m_score__min__energy>  (6) 
-9.3200000000000003

>  <m_primary>  (6) 
energy

$$$$
6:0
     RDKit          3D

 47 49  0  0  0  0  0  0  0  0999 V2000
   55.9730   24.3900   44.8320 C   0  0  0  0  0  0  0  0  0  0  0  0
   56.2770   25.6150   46.0880 S   0  0  0  0  0  0  0  0  0  0  0  0
   56.2340   24.9900   47.4540 O   0  0  0  0  0  0  0  0  0  0  0  0
   55.2080   26.6670   46.0050 O   0  0  0  0  0  0  0  0  0  0  0  0
   57.8170   26.3670   45.8270 N   0  0  0  0  0  0  0  0  0  0  0  0
   58.5820   27.1010   46.7980 C   0  0  0  0  0  0  0  0  0  0  0  0
   59.2460   26.4460   47.8520 C   0  0  0  0  0  0  0  0  0  0  0  0
   60.0400   27.1630   48.7470 C   0  0  0  0  0  0  0  0  0  0  0  0
   60.1890   28.5480   48.6090 C   0  0  0  0  0  0  0  0  0  0  0  0
   61.0800   29.3190   49.5450 C   0  0  0  0  0  0  0  0  0  0  0  0
   60.4810   30.6100   49.8650 N   0  0  0  0  0  0  0  0  0  0  0  0
   60.3660   31.6820   48.9240 C   0  0  0  0  0  0  0  0  0  0  0  0
   61.3910   32.3260   48.5690 O   0  0  0  0  0  0  0  0  0  0  0  0
   59.0710   32.0410   48.4240 N   0  0  0  0  0  0  0  0  0  0  0  0
   58.8500   32.9320   47.3160 C   0  0  0  0  0  0  0  0  0  0  0  0
   57.5990   32.9410   46.6800 C   0  0  0  0  0  0  0  0  0  0  0  0
   57.3660   33.7810   45.5870 C   0  0  0  0  0  0  0  0  0  0  0  0
   58.3870   34.6090   45.1110 C   0  0  0  0  0  0  0  0  0  0  0  0
   59.6420   34.5910   45.7220 C   0  0  0  0  0  0  0  0  0  0  0  0
   59.8790   33.7520   46.8150 C   0  0  0  0  0  0  0  0  0  0  0  0
   59.5290   29.2100   47.5660 C   0  0  0  0  0  0  0  0  0  0  0  0
   58.7110   28.5040   46.6680 C   0  0  0  0  0  0  0  0  0  0  0  0
   58.0300   29.2550   45.5870 C   0  0  0  0  0  0  0  0  0  0  0  0
   58.7230   30.1860   44.7960 C   0  0  0  0  0  0  0  0  0  0  0  0
   58.0480   30.8570   43.7750 C   0  0  0  0  0  0  0  0  0  0  0  0
   56.6980   30.5920   43.5420 C   0  0  0  0  0  0  0  0  0  0  0  0
   56.0390   29.6470   44.3350 C   0  0  0  0  0  0  0  0  0  0  0  0
   54.7890   29.3840   44.1250 N   0  0  0  0  0  0  0  0  0  0  0  0
   56.7150   29.0050   45.3260 N   0  0  0  0  0  0  0  0  0  0  0  0
   55.7342   23.4277   45.3085 H   0  0  0  0  0  0  0  0  0  0  0  0
   55.1268   24.7091   44.2058 H   0  0  0  0  0  0  0  0  0  0  0  0
   56.8702   24.2764   44.2058 H   0  0  0  0  0  0  0  0  0  0  0  0
   59.1377   25.3578   47.9711 H   0  0  0  0  0  0  0  0  0  0  0  0
   60.5521   26.6370   49.5661 H   0  0  0  0  0  0  0  0  0  0  0  0
   61.2177   28.7430   50.4720 H   0  0  0  0  0  0  0  0  0  0  0  0
   62.0519   29.4862   49.0577 H   0  0  0  0  0  0  0  0  0  0  0  0
   58.2390   31.6850   48.9460 H   0  0  0  0  0  0  0  0  0  0  0  0
   56.7964   32.2827   47.0439 H   0  0  0  0  0  0  0  0  0  0  0  0
   56.3790   33.7905   45.1014 H   0  0  0  0  0  0  0  0  0  0  0  0
   58.2014   35.2746   44.2551 H   0  0  0  0  0  0  0  0  0  0  0  0
   60.4463   35.2384   45.3426 H   0  0  0  0  0  0  0  0  0  0  0  0
   60.8732   33.7325   47.2853 H   0  0  0  0  0  0  0  0  0  0  0  0
   59.6527   30.2967   47.4484 H   0  0  0  0  0  0  0  0  0  0  0  0
   59.7892   30.3848   44.9797 H   0  0  0  0  0  0  0  0  0  0  0  0
   58.5796   31.5938   43.1549 H   0  0  0  0  0  0  0  0  0  0  0  0
   56.1577   31.1208   42.7430 H   0  0  0  0  0  0  0  0  0  0  0  0
   54.4300   28.4030   44.1300 H   0  0  0  0  0  0  0  0  0  0  0  0
  1  2  1  0
  2  3  2  0
  2  4  2  0
  2  5  1  0
  5  6  1  0
  6  7  2  0
  7  8  1  0
  8  9  2  0
  9 10  1  0
 10 11  1  0
 11 12  1  0
 12 13  2  0
 12 14  1  0
 14 15  1  0
 15 16  2  0
 16 17  1  0
 17 18  2  0
 18 19  1  0
 19 20  2  0
  9 21  1  0
 21 22  2  0
 22 23  1  0
 23 24  2  0
 24 25  1  0
 25 26  2  0
 26 27  1  0
 27 28  2  3
 27 29  1  0
 22  6  1  0
 29 23  1  0
 20 15  1  0
  1 30  1  0
  1 31  1  0
  1 32  1  0
  7 33  1  0
  8 34  1  0
 10 35  1  0
 10 36  1  0
 14 37  1  0
 16 38  1  0
 17 39  1  0
 18 40  1  0
 19 41  1  0
 20 42  1  0
 21 43  1  0
 24 44  1  0
 25 45  1  0
 26 46  1  0
 28 47  1  0
M  CHG  3   5  -1  11  -1  29  -1
M  END
>  <UniqueID>  (7) 
7

>  <SMILES>  (7) 
CS(=O)(=O)[N-]c1ccc(C[N-]C(=O)Nc2ccccc2)cc1-c1cccc(=N)[n-]1

>  <Energy>  (7) 
55.61874966666195

>  <Genealogy>  (7) 
CS(=O)(=O)[N-]c1ccc(C[N-]C(=O)Nc2ccccc2)cc1-c1cccc(=N)[n-]1 (protonated)
CS(=O)(=O)[N-]c1ccc(C[N-]C(=O)Nc2ccccc2)cc1-c1cccc(=N)[n-]1 (3D coordinates assigned)
CS(=O)(=O)[N-]c1ccc(C[N-]C(=O)Nc2ccccc2)cc1-c1cccc(=N)[n-]1 (optimized conformer: 55.61874966666195 kcal/mol)

>  <smiles>  (7) 
CS(=O)(=O)Nc1ccc(CNC(=O)Nc2ccccc2)cc1-c1cccc(=N)[nH]1

>  <score_type>  (7) 
oracle

>  <origin>  (7) 
adg

>  <m_score__min__energy>  (7) 
-13.880000000000001

>  <m_primary>  (7) 
energy

$$$$
7:0
     RDKit          3D

 27 28  0  0  0  0  0  0  0  0999 V2000
   56.2690   30.2030   43.1910 C   0  0  0  0  0  0  0  0  0  0  0  0
   57.0300   30.1740   44.2910 C   0  0  0  0  0  0  0  0  0  0  0  0
   57.5470   31.4470   44.8410 C   0  0  0  0  0  0  0  0  0  0  0  0
   57.4300   32.6420   44.1130 C   0  0  0  0  0  0  0  0  0  0  0  0
   57.9230   33.8390   44.6410 C   0  0  0  0  0  0  0  0  0  0  0  0
   58.5310   33.8520   45.9000 C   0  0  0  0  0  0  0  0  0  0  0  0
   58.6440   32.6680   46.6330 C   0  0  0  0  0  0  0  0  0  0  0  0
   58.1520   31.4690   46.1100 C   0  0  0  0  0  0  0  0  0  0  0  0
   57.2330   28.8730   45.0410 C   0  0  2  0  0  0  0  0  0  0  0  0
   58.1680   27.9440   44.2580 C   0  0  0  0  0  0  0  0  0  0  0  0
   58.5090   26.3370   45.0950 S   0  0  0  0  0  0  0  0  0  0  0  0
   57.1700   26.2900   46.3500 C   0  0  0  0  0  0  0  0  0  0  0  0
   55.9090   26.9160   45.8470 C   0  0  0  0  0  0  0  0  0  0  0  0
   54.8050   26.3260   45.9870 O   0  0  0  0  0  0  0  0  0  0  0  0
   55.9550   28.2050   45.2460 N   0  0  0  0  0  0  0  0  0  0  0  0
   55.8765   29.2661   42.7689 H   0  0  0  0  0  0  0  0  0  0  0  0
   56.0358   31.1637   42.7087 H   0  0  0  0  0  0  0  0  0  0  0  0
   56.9488   32.6363   43.1239 H   0  0  0  0  0  0  0  0  0  0  0  0
   57.8324   34.7718   44.0651 H   0  0  0  0  0  0  0  0  0  0  0  0
   58.9203   34.7942   46.3133 H   0  0  0  0  0  0  0  0  0  0  0  0
   59.1213   32.6795   47.6240 H   0  0  0  0  0  0  0  0  0  0  0  0
   58.2383   30.5400   46.6927 H   0  0  0  0  0  0  0  0  0  0  0  0
   57.6857   29.1053   46.0162 H   0  0  0  0  0  0  0  0  0  0  0  0
   57.7073   27.7337   43.2815 H   0  0  0  0  0  0  0  0  0  0  0  0
   59.1322   28.4661   44.1700 H   0  0  0  0  0  0  0  0  0  0  0  0
   56.9659   25.2415   46.6125 H   0  0  0  0  0  0  0  0  0  0  0  0
   57.5065   26.8615   47.2276 H   0  0  0  0  0  0  0  0  0  0  0  0
  1  2  2  0
  2  3  1  0
  3  4  2  0
  4  5  1  0
  5  6  2  0
  6  7  1  0
  7  8  2  0
  2  9  1  0
  9 10  1  0
 10 11  1  0
 11 12  1  0
 12 13  1  0
 13 14  2  0
 13 15  1  0
  8  3  1  0
 15  9  1  0
  1 16  1  0
  1 17  1  0
  4 18  1  0
  5 19  1  0
  6 20  1  0
  7 21  1  0
  8 22  1  0
  9 23  1  1
 10 24  1  0
 10 25  1  0
 12 26  1  0
 12 27  1  0
M  CHG  1  15  -1
M  END
>  <UniqueID>  (8) 
8

>  <SMILES>  (8) 
C=C(c1ccccc1)[C@@H]1CSCC(=O)[N-]1

>  <Energy>  (8) 
33.230119886538326

>  <Genealogy>  (8) 
C=C(c1ccccc1)C1CSCC(=O)[N-]1 (protonated)
C=C(c1ccccc1)[C@@H]1CSCC(=O)[N-]1 (chirality)
C=C(c1ccccc1)[C@@H]1CSCC(=O)[N-]1 (3D coordinates assigned)
C=C(c1ccccc1)[C@@H]1CSCC(=O)[N-]1 (nonaromatic ring conformer: 33.230119886538326 kcal/mol)

>  <smiles>  (8) 
C=C(c1ccccc1)C1CSCC(=O)N1

>  <score_type>  (8) 
oracle

>  <origin>  (8) 
adg

>  <m_score__min__energy>  (8) 
-9.1500000000000004

>  <m_primary>  (8) 
energy

$$$$
8:0
     RDKit          3D

 63 66  0  0  0  0  0  0  0  0999 V2000
   57.4130   31.5040   42.7670 C   0  0  0  0  0  0  0  0  0  0  0  0
   57.0440   30.7440   44.0060 C   0  0  0  0  0  0  0  0  0  0  0  0
   55.8940   30.9170   44.4930 O   0  0  0  0  0  0  0  0  0  0  0  0
   57.9920   29.8030   44.6620 C   0  0  0  0  0  0  0  0  0  0  0  0
   57.8130   28.4130   44.5230 C   0  0  0  0  0  0  0  0  0  0  0  0
   58.6950   27.5190   45.1330 C   0  0  0  0  0  0  0  0  0  0  0  0
   59.7720   27.9940   45.8820 C   0  0  0  0  0  0  0  0  0  0  0  0
   59.9800   29.3770   46.0230 C   0  0  0  0  0  0  0  0  0  0  0  0
   61.0610   29.8890   46.8190 N   0  0  0  0  0  0  0  0  0  0  0  0
   60.8790   30.5400   48.0880 C   0  0  0  0  0  0  0  0  0  0  0  0
   59.7680   30.4660   48.6840 O   0  0  0  0  0  0  0  0  0  0  0  0
   61.9980   31.2650   48.7300 C   0  0  0  0  0  0  0  0  0  0  0  0
   62.4860   30.8130   49.9660 C   0  0  0  0  0  0  0  0  0  0  0  0
   63.5070   31.5010   50.6240 C   0  0  0  0  0  0  0  0  0  0  0  0
   64.0670   32.6570   50.0620 C   0  0  0  0  0  0  0  0  0  0  0  0
   65.1290   33.3630   50.7400 N   0  0  0  0  0  0  0  0  0  0  0  0
   66.5300   32.9610   50.5520 C   0  0  0  0  0  0  0  0  0  0  0  0
   67.4730   34.1260   50.8860 C   0  0  0  0  0  0  0  0  0  0  0  0
   67.2550   34.6770   52.2470 N   0  0  0  0  0  0  0  0  0  0  0  0
   68.2130   34.1140   53.2110 C   0  0  0  0  0  0  0  0  0  0  0  0
   65.8680   34.5440   52.7580 C   0  0  0  0  0  0  0  0  0  0  0  0
   64.8300   34.4900   51.6320 C   0  0  0  0  0  0  0  0  0  0  0  0
   63.5820   33.1120   48.8240 C   0  0  0  0  0  0  0  0  0  0  0  0
   62.5500   32.4340   48.1520 C   0  0  0  0  0  0  0  0  0  0  0  0
   62.0970   32.9030   46.8660 N   0  0  0  0  0  0  0  0  0  0  0  0
   61.4020   34.1770   46.6700 C   0  0  0  0  0  0  0  0  0  0  0  0
   59.9440   33.9430   46.3790 C   0  0  0  0  0  0  0  0  0  0  0  0
   59.1240   33.3340   47.3440 C   0  0  0  0  0  0  0  0  0  0  0  0
   57.7620   33.1430   47.0930 C   0  0  0  0  0  0  0  0  0  0  0  0
   57.2080   33.5610   45.8790 C   0  0  0  0  0  0  0  0  0  0  0  0
   58.0160   34.1670   44.9140 C   0  0  0  0  0  0  0  0  0  0  0  0
   59.3800   34.3590   45.1600 C   0  0  0  0  0  0  0  0  0  0  0  0
   59.0800   30.2720   45.4280 C   0  0  0  0  0  0  0  0  0  0  0  0
   57.8775   32.4606   43.0483 H   0  0  0  0  0  0  0  0  0  0  0  0
   58.1240   30.9121   42.1719 H   0  0  0  0  0  0  0  0  0  0  0  0
   56.5082   31.6967   42.1719 H   0  0  0  0  0  0  0  0  0  0  0  0
   56.9710   28.0284   43.9287 H   0  0  0  0  0  0  0  0  0  0  0  0
   58.5401   26.4356   45.0226 H   0  0  0  0  0  0  0  0  0  0  0  0
   60.4605   27.2841   46.3637 H   0  0  0  0  0  0  0  0  0  0  0  0
   62.0320   29.7440   46.4630 H   0  0  0  0  0  0  0  0  0  0  0  0
   62.0593   29.9069   50.4210 H   0  0  0  0  0  0  0  0  0  0  0  0
   63.8757   31.1326   51.5927 H   0  0  0  0  0  0  0  0  0  0  0  0
   66.7550   32.1119   51.2141 H   0  0  0  0  0  0  0  0  0  0  0  0
   66.6794   32.6723   49.5011 H   0  0  0  0  0  0  0  0  0  0  0  0
   68.5108   33.7684   50.8147 H   0  0  0  0  0  0  0  0  0  0  0  0
   67.2664   34.9329   50.1675 H   0  0  0  0  0  0  0  0  0  0  0  0
   67.8659   34.3180   54.2347 H   0  0  0  0  0  0  0  0  0  0  0  0
   68.2897   33.0272   53.0596 H   0  0  0  0  0  0  0  0  0  0  0  0
   69.1998   34.5758   53.0596 H   0  0  0  0  0  0  0  0  0  0  0  0
   65.7968   33.6184   53.3480 H   0  0  0  0  0  0  0  0  0  0  0  0
   65.6509   35.4318   53.3701 H   0  0  0  0  0  0  0  0  0  0  0  0
   63.8272   34.3584   52.0646 H   0  0  0  0  0  0  0  0  0  0  0  0
   64.8637   35.4283   51.0589 H   0  0  0  0  0  0  0  0  0  0  0  0
   64.0179   34.0154   48.3724 H   0  0  0  0  0  0  0  0  0  0  0  0
   62.2040   32.2830   46.0320 H   0  0  0  0  0  0  0  0  0  0  0  0
   61.4961   34.7847   47.5821 H   0  0  0  0  0  0  0  0  0  0  0  0
   61.8553   34.7018   45.8161 H   0  0  0  0  0  0  0  0  0  0  0  0
   59.5556   33.0061   48.3012 H   0  0  0  0  0  0  0  0  0  0  0  0
   57.1255   32.6634   47.8512 H   0  0  0  0  0  0  0  0  0  0  0  0
   56.1357   33.4126   45.6839 H   0  0  0  0  0  0  0  0  0  0  0  0
   57.5791   34.4939   43.9589 H   0  0  0  0  0  0  0  0  0  0  0  0
   60.0129   34.8367   44.3976 H   0  0  0  0  0  0  0  0  0  0  0  0
   59.2240   31.3545   45.5601 H   0  0  0  0  0  0  0  0  0  0  0  0
  1  2  1  0
  2  3  2  0
  2  4  1  0
  4  5  2  0
  5  6  1  0
  6  7  2  0
  7  8  1  0
  8  9  1  0
  9 10  1  0
 10 11  2  0
 10 12  1  0
 12 13  2  0
 13 14  1  0
 14 15  2  0
 15 16  1  0
 16 17  1  0
 17 18  1  0
 18 19  1  0
 19 20  1  0
 19 21  1  0
 21 22  1  0
 15 23  1  0
 23 24  2  0
 24 25  1  0
 25 26  1  0
 26 27  1  0
 27 28  2  0
 28 29  1  0
 29 30  2  0
 30 31  1  0
 31 32  2  0
  8 33  2  0
 33  4  1  0
 24 12  1  0
 32 27  1  0
 22 16  1  0
  1 34  1  0
  1 35  1  0
  1 36  1  0
  5 37  1  0
  6 38  1  0
  7 39  1  0
  9 40  1  0
 13 41  1  0
 14 42  1  0
 17 43  1  0
 17 44  1  0
 18 45  1  0
 18 46  1  0
 20 47  1  0
 20 48  1  0
 20 49  1  0
 21 50  1  0
 21 51  1  0
 22 52  1  0
 22 53  1  0
 23 54  1  0
 25 55  1  0
 26 56  1  0
 26 57  1  0
 28 58  1  0
 29 59  1  0
 30 60  1  0
 31 61  1  0
 32 62  1  0
 33 63  1  0
M  END
>  <UniqueID>  (9) 
9

>  <SMILES>  (9) 
CC(=O)c1cccc(NC(=O)c2ccc(N3CCN(C)CC3)cc2NCc2ccccc2)c1

>  <Energy>  (9) 
84.25591668909516

>  <Genealogy>  (9) 
CC(=O)c1cccc(NC(=O)c2ccc(N3CCN(C)CC3)cc2NCc2ccccc2)c1 (3D coordinates assigned)
CC(=O)c1cccc(NC(=O)c2ccc(N3CCN(C)CC3)cc2NCc2ccccc2)c1 (nonaromatic ring conformer: 84.25591668909516 kcal/mol)

>  <smiles>  (9) 
CC(=O)c1cccc(NC(=O)c2ccc(N3CCN(C)CC3)cc2NCc2ccccc2)c1

>  <score_type>  (9) 
oracle

>  <origin>  (9) 
adg

>  <m_score__min__energy>  (9) 
-9.5399999999999991

>  <m_primary>  (9) 
energy

$$$$
9:0
     RDKit          3D

 42 43  0  0  0  0  0  0  0  0999 V2000
   60.3690   29.5200   48.3760 C   0  0  0  0  0  0  0  0  0  0  0  0
   60.5160   28.0230   48.6390 C   0  0  0  0  0  0  0  0  0  0  0  0
   60.4030   27.1910   47.3540 C   0  0  0  0  0  0  0  0  0  0  0  0
   59.0040   27.0630   46.9190 N   0  0  0  0  0  0  0  0  0  0  0  0
   58.2570   26.0010   47.3410 C   0  0  0  0  0  0  0  0  0  0  0  0
   56.9210   25.8720   46.9520 C   0  0  0  0  0  0  0  0  0  0  0  0
   56.1600   24.7860   47.3850 O   0  0  0  0  0  0  0  0  0  0  0  0
   56.3490   26.8420   46.1250 C   0  0  0  0  0  0  0  0  0  0  0  0
   55.1430   26.7170   45.7780 O   0  0  0  0  0  0  0  0  0  0  0  0
   57.1190   27.9420   45.6910 C   0  0  0  0  0  0  0  0  0  0  0  0
   56.5570   29.0030   44.8100 C   0  0  0  0  0  0  0  0  0  0  0  0
   55.3460   29.3420   44.9090 O   0  0  0  0  0  0  0  0  0  0  0  0
   57.3930   29.6490   43.8410 N   0  0  0  0  0  0  0  0  0  0  0  0
   57.2390   31.0430   43.4400 C   0  0  0  0  0  0  0  0  0  0  0  0
   57.7180   31.9560   44.5360 C   0  0  0  0  0  0  0  0  0  0  0  0
   58.4900   31.4430   45.5890 C   0  0  0  0  0  0  0  0  0  0  0  0
   58.9580   32.2890   46.6000 C   0  0  0  0  0  0  0  0  0  0  0  0
   58.6610   33.6640   46.5680 C   0  0  0  0  0  0  0  0  0  0  0  0
   59.1080   34.5540   47.5570 O   0  0  0  0  0  0  0  0  0  0  0  0
   60.0410   34.2170   48.5780 C   0  0  0  0  0  0  0  0  0  0  0  0
   57.8950   34.1730   45.5130 C   0  0  0  0  0  0  0  0  0  0  0  0
   57.4260   33.3290   44.5020 C   0  0  0  0  0  0  0  0  0  0  0  0
   58.4580   28.0230   46.1140 C   0  0  0  0  0  0  0  0  0  0  0  0
   60.3162   30.0572   49.3344 H   0  0  0  0  0  0  0  0  0  0  0  0
   61.2363   29.8784   47.8021 H   0  0  0  0  0  0  0  0  0  0  0  0
   59.4486   29.7028   47.8021 H   0  0  0  0  0  0  0  0  0  0  0  0
   61.5004   27.8389   49.0940 H   0  0  0  0  0  0  0  0  0  0  0  0
   59.6995   27.7178   49.3099 H   0  0  0  0  0  0  0  0  0  0  0  0
   60.9819   27.6818   46.5578 H   0  0  0  0  0  0  0  0  0  0  0  0
   60.7957   26.1839   47.5579 H   0  0  0  0  0  0  0  0  0  0  0  0
   58.7108   25.2401   47.9930 H   0  0  0  0  0  0  0  0  0  0  0  0
   55.1480   24.8100   47.3760 H   0  0  0  0  0  0  0  0  0  0  0  0
   57.8296   31.2266   42.5303 H   0  0  0  0  0  0  0  0  0  0  0  0
   56.1754   31.2445   43.2448 H   0  0  0  0  0  0  0  0  0  0  0  0
   58.7286   30.3696   45.6199 H   0  0  0  0  0  0  0  0  0  0  0  0
   59.5606   31.8777   47.4233 H   0  0  0  0  0  0  0  0  0  0  0  0
   59.5817   34.3829   49.5637 H   0  0  0  0  0  0  0  0  0  0  0  0
   60.3260   33.1591   48.4796 H   0  0  0  0  0  0  0  0  0  0  0  0
   60.9362   34.8486   48.4796 H   0  0  0  0  0  0  0  0  0  0  0  0
   57.6598   35.2470   45.4790 H   0  0  0  0  0  0  0  0  0  0  0  0
   56.8264   33.7418   43.6773 H   0  0  0  0  0  0  0  0  0  0  0  0
   59.0763   28.8736   45.7913 H   0  0  0  0  0  0  0  0  0  0  0  0
  1  2  1  0
  2  3  1  0
  3  4  1  0
  4  5  1  0
  5  6  2  0
  6  7  1  0
  6  8  1  0
  8  9  2  0
  8 10  1  0
 10 11  1  0
 11 12  2  0
 11 13  1  0
 13 14  1  0
 14 15  1  0
 15 16  2  0
 16 17  1  0
 17 18  2  0
 18 19  1  0
 19 20  1  0
 18 21  1  0
 21 22  2  0
 10 23  2  0
 23  4  1  0
 22 15  1  0
  1 24  1  0
  1 25  1  0
  1 26  1  0
  2 27  1  0
  2 28  1  0
  3 29  1  0
  3 30  1  0
  5 31  1  0
  7 32  1  0
 14 33  1  0
 14 34  1  0
 16 35  1  0
 17 36  1  0
 20 37  1  0
 20 38  1  0
 20 39  1  0
 21 40  1  0
 22 41  1  0
 23 42  1  0
M  CHG  1  13  -1
M  END
>  <UniqueID>  (10) 
10

>  <SMILES>  (10) 
CCCn1cc(O)c(=O)c(C(=O)[N-]Cc2ccc(OC)cc2)c1

>  <Energy>  (10) 
37.68198940987931

>  <Genealogy>  (10) 
CCCn1cc(O)c(=O)c(C(=O)[N-]Cc2ccc(OC)cc2)c1 (protonated)
CCCn1cc(O)c(=O)c(C(=O)[N-]Cc2ccc(OC)cc2)c1 (3D coordinates assigned)
CCCn1cc(O)c(=O)c(C(=O)[N-]Cc2ccc(OC)cc2)c1 (optimized conformer: 37.68198940987931 kcal/mol)

>  <smiles>  (10) 
CCCn1cc(O)c(=O)c(C(=O)NCc2ccc(OC)cc2)c1

>  <score_type>  (10) 
oracle

>  <origin>  (10) 
adg

>  <m_score__min__energy>  (10) 
-8.9199999999999999

>  <m_primary>  (10) 
energy

$$$$
10:0
     RDKit          3D

 32 33  0  0  0  0  0  0  0  0999 V2000
   60.4050   29.3220   49.3050 C   0  0  0  0  0  0  0  0  0  0  0  0
   59.1150   29.6760   48.6930 N   0  0  0  0  0  0  0  0  0  0  0  0
   59.3130   30.7620   47.7180 C   0  0  0  0  0  0  0  0  0  0  0  0
   58.5200   28.4880   48.0460 C   0  0  0  0  0  0  0  0  0  0  0  0
   59.0340   28.3320   46.6420 C   0  0  0  0  0  0  0  0  0  0  0  0
   60.3730   28.2700   46.3970 N   0  0  0  0  0  0  0  0  0  0  0  0
   60.6580   28.1620   45.0830 C   0  0  0  0  0  0  0  0  0  0  0  0
   59.2530   28.1460   44.1640 S   0  0  0  0  0  0  0  0  0  0  0  0
   58.2290   28.2770   45.4940 C   0  0  0  0  0  0  0  0  0  0  0  0
   56.7580   28.3320   45.4010 C   0  0  0  0  0  0  0  0  0  0  0  0
   56.0610   27.3280   45.7050 O   0  0  0  0  0  0  0  0  0  0  0  0
   56.1320   29.5240   44.9080 N   0  0  0  0  0  0  0  0  0  0  0  0
   56.7950   30.6690   44.3540 C   0  0  0  0  0  0  0  0  0  0  0  0
   56.8040   30.9280   42.9700 C   0  0  0  0  0  0  0  0  0  0  0  0
   57.4430   32.0700   42.4730 C   0  0  0  0  0  0  0  0  0  0  0  0
   57.4550   32.3870   40.7470 Cl  0  0  0  0  0  0  0  0  0  0  0  0
   58.0620   32.9650   43.3520 C   0  0  0  0  0  0  0  0  0  0  0  0
   58.0340   32.7250   44.7280 C   0  0  0  0  0  0  0  0  0  0  0  0
   58.7980   33.8560   45.8320 Cl  0  0  0  0  0  0  0  0  0  0  0  0
   57.3960   31.5840   45.2270 C   0  0  0  0  0  0  0  0  0  0  0  0
   60.3105   29.3479   50.4006 H   0  0  0  0  0  0  0  0  0  0  0  0
   60.6969   28.3105   48.9860 H   0  0  0  0  0  0  0  0  0  0  0  0
   61.1723   30.0428   48.9860 H   0  0  0  0  0  0  0  0  0  0  0  0
   59.4854   31.7078   48.2526 H   0  0  0  0  0  0  0  0  0  0  0  0
   60.1843   30.5336   47.0866 H   0  0  0  0  0  0  0  0  0  0  0  0
   58.4171   30.8558   47.0866 H   0  0  0  0  0  0  0  0  0  0  0  0
   58.7814   27.5916   48.6275 H   0  0  0  0  0  0  0  0  0  0  0  0
   57.4280   28.6156   48.0099 H   0  0  0  0  0  0  0  0  0  0  0  0
   61.6748   28.0936   44.6690 H   0  0  0  0  0  0  0  0  0  0  0  0
   56.3079   30.2316   42.2780 H   0  0  0  0  0  0  0  0  0  0  0  0
   58.5709   33.8579   42.9597 H   0  0  0  0  0  0  0  0  0  0  0  0
   57.3664   31.4047   46.3119 H   0  0  0  0  0  0  0  0  0  0  0  0
  1  2  1  0
  2  3  1  0
  2  4  1  0
  4  5  1  0
  5  6  1  0
  6  7  2  0
  7  8  1  0
  8  9  1  0
  9 10  1  0
 10 11  2  0
 10 12  1  0
 12 13  1  0
 13 14  2  0
 14 15  1  0
 15 16  1  0
 15 17  2  0
 17 18  1  0
 18 19  1  0
 18 20  2  0
  9  5  2  0
 20 13  1  0
  1 21  1  0
  1 22  1  0
  1 23  1  0
  3 24  1  0
  3 25  1  0
  3 26  1  0
  4 27  1  0
  4 28  1  0
  7 29  1  0
 14 30  1  0
 17 31  1  0
 20 32  1  0
M  CHG  1  12  -1
M  END
>  <UniqueID>  (11) 
11

>  <SMILES>  (11) 
CN(C)Cc1ncsc1C(=O)[N-]c1cc(Cl)cc(Cl)c1

>  <Energy>  (11) 
64.52980987502556

>  <Genealogy>  (11) 
CN(C)Cc1ncsc1C(=O)[N-]c1cc(Cl)cc(Cl)c1 (protonated)
CN(C)Cc1ncsc1C(=O)[N-]c1cc(Cl)cc(Cl)c1 (3D coordinates assigned)
CN(C)Cc1ncsc1C(=O)[N-]c1cc(Cl)cc(Cl)c1 (optimized conformer: 64.52980987502556 kcal/mol)

>  <smiles>  (11) 
CN(C)Cc1ncsc1C(=O)Nc1cc(Cl)cc(Cl)c1

>  <score_type>  (11) 
oracle

>  <origin>  (11) 
adg

>  <m_score__min__energy>  (11) 
-8.6500000000000004

>  <m_primary>  (11) 
energy

$$$$
11:0
     RDKit          3D

 53 56  0  0  0  0  0  0  0  0999 V2000
   57.4780   28.2920   43.1030 O   0  0  0  0  0  0  0  0  0  0  0  0
   57.4500   28.5900   44.3270 C   0  0  0  0  0  0  0  0  0  0  0  0
   56.4830   29.5480   44.7750 N   0  0  0  0  0  0  0  0  0  0  0  0
   56.3310   30.8950   44.2420 C   0  0  0  0  0  0  0  0  0  0  0  0
   57.3670   31.7900   44.8580 C   0  0  0  0  0  0  0  0  0  0  0  0
   57.4890   33.1190   44.4550 C   0  0  0  0  0  0  0  0  0  0  0  0
   58.4540   33.9240   45.0570 C   0  0  0  0  0  0  0  0  0  0  0  0
   58.5540   35.1280   44.6920 O   0  0  0  0  0  0  0  0  0  0  0  0
   59.2740   33.4110   46.0330 N   0  0  0  0  0  0  0  0  0  0  0  0
   59.1090   32.1060   46.4450 C   0  0  0  0  0  0  0  0  0  0  0  0
   58.1710   31.3160   45.8480 N   0  0  0  0  0  0  0  0  0  0  0  0
   59.9530   31.5240   47.5660 C   0  0  0  0  0  0  0  0  0  0  0  0
   59.7580   32.2090   48.8580 N   0  0  0  0  0  0  0  0  0  0  0  0
   59.0740   31.4950   49.9010 C   0  0  0  0  0  0  0  0  0  0  0  0
   58.0030   31.9600   50.3740 O   0  0  0  0  0  0  0  0  0  0  0  0
   59.6160   30.2410   50.4500 C   0  0  0  0  0  0  0  0  0  0  0  0
   59.3740   29.7250   51.7090 C   0  0  0  0  0  0  0  0  0  0  0  0
   60.0730   28.5390   51.7640 C   0  0  0  0  0  0  0  0  0  0  0  0
   60.6950   28.4030   50.5390 C   0  0  0  0  0  0  0  0  0  0  0  0
   60.4020   29.4310   49.7770 O   0  0  0  0  0  0  0  0  0  0  0  0
   60.3500   33.5260   49.1490 C   0  0  0  0  0  0  0  0  0  0  0  0
   59.8890   34.5850   48.1370 C   0  0  0  0  0  0  0  0  0  0  0  0
   60.2830   34.2680   46.6870 C   0  0  0  0  0  0  0  0  0  0  0  0
   58.3780   27.8810   45.2920 C   0  0  1  0  0  0  0  0  0  0  0  0
   59.7650   28.5570   45.3120 C   0  0  0  0  0  0  0  0  0  0  0  0
   60.4630   28.3850   46.6690 C   0  0  0  0  0  0  0  0  0  0  0  0
   59.9760   27.1090   47.3760 C   0  0  0  0  0  0  0  0  0  0  0  0
   58.5750   27.0760   47.6340 O   0  0  0  0  0  0  0  0  0  0  0  0
   57.7930   27.8380   46.7220 C   0  0  0  0  0  0  0  0  0  0  0  0
   56.4638   30.8757   43.1502 H   0  0  0  0  0  0  0  0  0  0  0  0
   55.3264   31.2750   44.4794 H   0  0  0  0  0  0  0  0  0  0  0  0
   56.8323   33.5267   43.6723 H   0  0  0  0  0  0  0  0  0  0  0  0
   58.0540   30.3230   46.1580 H   0  0  0  0  0  0  0  0  0  0  0  0
   59.6871   30.4637   47.6891 H   0  0  0  0  0  0  0  0  0  0  0  0
   61.0076   31.6561   47.2826 H   0  0  0  0  0  0  0  0  0  0  0  0
   58.7532   30.1684   52.5014 H   0  0  0  0  0  0  0  0  0  0  0  0
   60.1250   27.8412   52.6128 H   0  0  0  0  0  0  0  0  0  0  0  0
   61.3388   27.5606   50.2458 H   0  0  0  0  0  0  0  0  0  0  0  0
   60.0458   33.8397   50.1585 H   0  0  0  0  0  0  0  0  0  0  0  0
   61.4442   33.4358   49.0806 H   0  0  0  0  0  0  0  0  0  0  0  0
   58.7930   34.6617   48.1899 H   0  0  0  0  0  0  0  0  0  0  0  0
   60.3898   35.5264   48.4071 H   0  0  0  0  0  0  0  0  0  0  0  0
   60.3717   35.2098   46.1255 H   0  0  0  0  0  0  0  0  0  0  0  0
   61.2423   33.7298   46.6972 H   0  0  0  0  0  0  0  0  0  0  0  0
   58.4867   26.8456   44.9369 H   0  0  0  0  0  0  0  0  0  0  0  0
   60.3924   28.1060   44.5291 H   0  0  0  0  0  0  0  0  0  0  0  0
   59.6237   29.6332   45.1338 H   0  0  0  0  0  0  0  0  0  0  0  0
   61.5493   28.3168   46.5097 H   0  0  0  0  0  0  0  0  0  0  0  0
   60.2224   29.2522   47.3016 H   0  0  0  0  0  0  0  0  0  0  0  0
   60.2292   26.2466   46.7419 H   0  0  0  0  0  0  0  0  0  0  0  0
   60.4758   27.0832   48.3556 H   0  0  0  0  0  0  0  0  0  0  0  0
   56.7868   27.3963   46.6731 H   0  0  0  0  0  0  0  0  0  0  0  0
   57.7777   28.8724   47.0958 H   0  0  0  0  0  0  0  0  0  0  0  0
  1  2  2  0
  2  3  1  0
  3  4  1  0
  4  5  1  0
  5  6  2  0
  6  7  1  0
  7  8  2  0
  7  9  1  0
  9 10  1  0
 10 11  2  0
 10 12  1  0
 12 13  1  0
 13 14  1  0
 14 15  2  0
 14 16  1  0
 16 17  2  0
 17 18  1  0
 18 19  2  0
 19 20  1  0
 13 21  1  0
 21 22  1  0
 22 23  1  0
  2 24  1  0
 24 25  1  0
 25 26  1  0
 26 27  1  0
 27 28  1  0
 28 29  1  0
 11  5  1  0
 20 16  1  0
 29 24  1  0
 23  9  1  0
  4 30  1  0
  4 31  1  0
  6 32  1  0
 11 33  1  0
 12 34  1  0
 12 35  1  0
 17 36  1  0
 18 37  1  0
 19 38  1  0
 21 39  1  0
 21 40  1  0
 22 41  1  0
 22 42  1  0
 23 43  1  0
 23 44  1  0
 24 45  1  6
 25 46  1  0
 25 47  1  0
 26 48  1  0
 26 49  1  0
 27 50  1  0
 27 51  1  0
 29 52  1  0
 29 53  1  0
M  CHG  2   3  -1  11   1
M  END
>  <UniqueID>  (12) 
12

>  <SMILES>  (12) 
O=C([N-]Cc1cc(=O)n2c([nH+]1)CN(C(=O)c1ccco1)CCC2)[C@H]1CCCOC1

>  <Energy>  (12) 
100.03015889728827

>  <Genealogy>  (12) 
O=C([N-]Cc1cc(=O)n2c([nH+]1)CN(C(=O)c1ccco1)CCC2)C1CCCOC1 (protonated)
O=C([N-]Cc1cc(=O)n2c([nH+]1)CN(C(=O)c1ccco1)CCC2)[C@H]1CCCOC1 (chirality)
O=C([N-]Cc1cc(=O)n2c([nH+]1)CN(C(=O)c1ccco1)CCC2)[C@H]1CCCOC1 (3D coordinates assigned)
O=C([N-]Cc1cc(=O)n2c([nH+]1)CN(C(=O)c1ccco1)CCC2)[C@H]1CCCOC1 (nonaromatic ring conformer: 100.03015889728827 kcal/mol)

>  <smiles>  (12) 
O=C(NCc1cc(=O)n2c(n1)CN(C(=O)c1ccco1)CCC2)C1CCCOC1

>  <score_type>  (12) 
oracle

>  <origin>  (12) 
adg

>  <m_score__min__energy>  (12) 
-6.1900000000000004

>  <m_primary>  (12) 
energy

$$$$
12:0
     RDKit          3D

 37 41  0  0  0  0  0  0  0  0999 V2000
   59.5130   29.6280   48.4040 O   0  0  0  0  0  0  0  0  0  0  0  0
   59.6020   30.8620   48.1740 C   0  0  0  0  0  0  0  0  0  0  0  0
   59.7060   31.3100   46.8130 N   0  0  0  0  0  0  0  0  0  0  0  0
   59.6340   32.6730   46.3560 C   0  0  0  0  0  0  0  0  0  0  0  0
   60.3680   33.7050   46.9840 C   0  0  0  0  0  0  0  0  0  0  0  0
   60.1790   35.0360   46.6000 C   0  0  0  0  0  0  0  0  0  0  0  0
   59.2960   35.3510   45.5690 C   0  0  0  0  0  0  0  0  0  0  0  0
   58.6040   34.3370   44.9060 C   0  0  0  0  0  0  0  0  0  0  0  0
   58.7730   32.9930   45.2810 C   0  0  0  0  0  0  0  0  0  0  0  0
   58.0110   31.9430   44.5630 C   0  0  0  0  0  0  0  0  0  0  0  0
   57.5320   30.8130   45.2500 C   0  0  0  0  0  0  0  0  0  0  0  0
   56.8180   29.8220   44.5680 C   0  0  0  0  0  0  0  0  0  0  0  0
   56.5820   29.9470   43.1960 C   0  0  0  0  0  0  0  0  0  0  0  0
   55.8910   28.9840   42.5370 F   0  0  0  0  0  0  0  0  0  0  0  0
   57.0620   31.0620   42.5030 C   0  0  0  0  0  0  0  0  0  0  0  0
   57.7760   32.0550   43.1810 C   0  0  0  0  0  0  0  0  0  0  0  0
   61.5950   33.3430   48.2380 S   0  0  0  0  0  0  0  0  0  0  0  0
   60.3180   32.9080   49.4010 C   0  0  0  0  0  0  0  0  0  0  0  0
   60.0330   33.6340   50.5120 N   0  0  0  0  0  0  0  0  0  0  0  0
   59.0570   32.9080   51.0910 C   0  0  0  0  0  0  0  0  0  0  0  0
   58.3720   33.1970   52.2700 C   0  0  0  0  0  0  0  0  0  0  0  0
   57.3650   32.3030   52.6790 C   0  0  0  0  0  0  0  0  0  0  0  0
   57.0660   31.1580   51.9050 C   0  0  0  0  0  0  0  0  0  0  0  0
   57.7730   30.8950   50.7160 C   0  0  0  0  0  0  0  0  0  0  0  0
   58.7740   31.7960   50.3490 C   0  0  0  0  0  0  0  0  0  0  0  0
   59.5660   31.7930   49.2640 N   0  0  0  0  0  0  0  0  0  0  0  0
   60.7296   35.8378   47.1138 H   0  0  0  0  0  0  0  0  0  0  0  0
   59.1443   36.4008   45.2774 H   0  0  0  0  0  0  0  0  0  0  0  0
   57.9203   34.5916   44.0827 H   0  0  0  0  0  0  0  0  0  0  0  0
   57.7197   30.7080   46.3288 H   0  0  0  0  0  0  0  0  0  0  0  0
   56.4418   28.9432   45.1122 H   0  0  0  0  0  0  0  0  0  0  0  0
   56.8778   31.1585   41.4228 H   0  0  0  0  0  0  0  0  0  0  0  0
   58.1558   32.9283   42.6304 H   0  0  0  0  0  0  0  0  0  0  0  0
   58.6105   34.0937   52.8609 H   0  0  0  0  0  0  0  0  0  0  0  0
   56.8068   32.4962   53.6069 H   0  0  0  0  0  0  0  0  0  0  0  0
   56.2753   30.4677   52.2341 H   0  0  0  0  0  0  0  0  0  0  0  0
   57.5451   30.0129   50.0997 H   0  0  0  0  0  0  0  0  0  0  0  0
  1  2  2  0
  2  3  1  0
  3  4  1  0
  4  5  2  0
  5  6  1  0
  6  7  2  0
  7  8  1  0
  8  9  2  0
  9 10  1  0
 10 11  2  0
 11 12  1  0
 12 13  2  0
 13 14  1  0
 13 15  1  0
 15 16  2  0
  5 17  1  0
 17 18  1  0
 18 19  2  0
 19 20  1  0
 20 21  2  0
 21 22  1  0
 22 23  2  0
 23 24  1  0
 24 25  2  0
 25 26  1  0
 26  2  1  0
  9  4  1  0
 16 10  1  0
 26 18  1  0
 25 20  1  0
  6 27  1  0
  7 28  1  0
  8 29  1  0
 11 30  1  0
 12 31  1  0
 15 32  1  0
 16 33  1  0
 21 34  1  0
 22 35  1  0
 23 36  1  0
 24 37  1  0
M  CHG  1   3  -1
M  END
>  <UniqueID>  (13) 
13

>  <SMILES>  (13) 
O=C1[N-]c2c(cccc2-c2ccc(F)cc2)Sc2nc3ccccc3n21

>  <Energy>  (13) 
100.43523350967843

>  <Genealogy>  (13) 
O=C1[N-]c2c(cccc2-c2ccc(F)cc2)Sc2nc3ccccc3n21 (protonated)
O=C1[N-]c2c(cccc2-c2ccc(F)cc2)Sc2nc3ccccc3n21 (3D coordinates assigned)
O=C1[N-]c2c(cccc2-c2ccc(F)cc2)Sc2nc3ccccc3n21 (nonaromatic ring conformer: 100.43523350967843 kcal/mol)

>  <smiles>  (13) 
O=C1Nc2c(cccc2-c2ccc(F)cc2)Sc2nc3ccccc3n21

>  <score_type>  (13) 
oracle

>  <origin>  (13) 
adg

>  <m_score__min__energy>  (13) 
-9.0700000000000003

>  <m_primary>  (13) 
energy

$$$$
13:0
     RDKit          3D

 41 43  0  0  0  0  0  0  0  0999 V2000
   58.3490   32.8010   46.7130 N   0  0  0  0  0  0  0  0  0  0  0  0
   59.4490   34.1260   46.8500 S   0  0  0  0  0  0  0  0  0  0  0  0
   58.9100   35.0850   47.8750 O   0  0  0  0  0  0  0  0  0  0  0  0
   59.5510   34.8330   45.5280 O   0  0  0  0  0  0  0  0  0  0  0  0
   61.0480   33.5440   47.3430 C   0  0  0  0  0  0  0  0  0  0  0  0
   62.1580   33.8420   46.5360 C   0  0  0  0  0  0  0  0  0  0  0  0
   63.4400   33.4380   46.9140 C   0  0  0  0  0  0  0  0  0  0  0  0
   63.6310   32.7350   48.1020 C   0  0  0  0  0  0  0  0  0  0  0  0
   62.5390   32.4250   48.9140 C   0  0  0  0  0  0  0  0  0  0  0  0
   61.2420   32.8130   48.5420 C   0  0  0  0  0  0  0  0  0  0  0  0
   60.1160   32.4380   49.4200 C   0  0  0  0  0  0  0  0  0  0  0  0
   59.6320   33.3470   50.3700 C   0  0  0  0  0  0  0  0  0  0  0  0
   58.5600   32.9970   51.1970 C   0  0  0  0  0  0  0  0  0  0  0  0
   57.9580   31.7330   51.0850 C   0  0  0  0  0  0  0  0  0  0  0  0
   56.8170   31.3720   51.9590 C   0  0  0  0  0  0  0  0  0  0  0  0
   56.6430   31.9990   53.0380 O   0  0  0  0  0  0  0  0  0  0  0  0
   55.9280   30.2920   51.6450 N   0  0  0  0  0  0  0  0  0  0  0  0
   54.5110   30.2710   51.8770 C   0  0  0  0  0  0  0  0  0  0  0  0
   53.9660   29.2280   52.6320 C   0  0  0  0  0  0  0  0  0  0  0  0
   52.5920   29.1780   52.8760 C   0  0  0  0  0  0  0  0  0  0  0  0
   51.7540   30.1800   52.3830 C   0  0  0  0  0  0  0  0  0  0  0  0
   52.2860   31.2540   51.6470 C   0  0  0  0  0  0  0  0  0  0  0  0
   51.4070   32.3350   51.1510 C   0  0  0  0  0  0  0  0  0  0  0  0
   51.3610   32.6100   49.9220 O   0  0  0  0  0  0  0  0  0  0  0  0
   50.6140   33.0610   52.0330 O   0  0  0  0  0  0  0  0  0  0  0  0
   53.6710   31.2960   51.4020 C   0  0  0  0  0  0  0  0  0  0  0  0
   58.4730   30.8120   50.1560 C   0  0  0  0  0  0  0  0  0  0  0  0
   59.5430   31.1630   49.3290 C   0  0  0  0  0  0  0  0  0  0  0  0
   57.3880   33.1860   46.8530 H   0  0  0  0  0  0  0  0  0  0  0  0
   62.0162   34.3986   45.5979 H   0  0  0  0  0  0  0  0  0  0  0  0
   64.3014   33.6752   46.2724 H   0  0  0  0  0  0  0  0  0  0  0  0
   64.6432   32.4242   48.4000 H   0  0  0  0  0  0  0  0  0  0  0  0
   62.6957   31.8727   49.8523 H   0  0  0  0  0  0  0  0  0  0  0  0
   60.0968   34.3394   50.4657 H   0  0  0  0  0  0  0  0  0  0  0  0
   58.1858   33.7165   51.9402 H   0  0  0  0  0  0  0  0  0  0  0  0
   54.6226   28.4432   53.0356 H   0  0  0  0  0  0  0  0  0  0  0  0
   52.1685   28.3465   53.4585 H   0  0  0  0  0  0  0  0  0  0  0  0
   50.6714   30.1292   52.5713 H   0  0  0  0  0  0  0  0  0  0  0  0
   54.1003   32.1355   50.8354 H   0  0  0  0  0  0  0  0  0  0  0  0
   58.0304   29.8079   50.0797 H   0  0  0  0  0  0  0  0  0  0  0  0
   59.9368   30.4356   48.6039 H   0  0  0  0  0  0  0  0  0  0  0  0
  1  2  1  0
  2  3  2  0
  2  4  2  0
  2  5  1  0
  5  6  2  0
  6  7  1  0
  7  8  2  0
  8  9  1  0
  9 10  2  0
 10 11  1  0
 11 12  2  0
 12 13  1  0
 13 14  2  0
 14 15  1  0
 15 16  2  0
 15 17  1  0
 17 18  1  0
 18 19  2  0
 19 20  1  0
 20 21  2  0
 21 22  1  0
 22 23  1  0
 23 24  2  0
 23 25  1  0
 22 26  2  0
 14 27  1  0
 27 28  2  0
 10  5  1  0
 28 11  1  0
 26 18  1  0
  1 29  1  0
  6 30  1  0
  7 31  1  0
  8 32  1  0
  9 33  1  0
 12 34  1  0
 13 35  1  0
 19 36  1  0
 20 37  1  0
 21 38  1  0
 26 39  1  0
 27 40  1  0
 28 41  1  0
M  CHG  3   1  -1  17  -1  25  -1
M  END
>  <UniqueID>  (14) 
14

>  <SMILES>  (14) 
[NH-]S(=O)(=O)c1ccccc1-c1ccc(C(=O)[N-]c2cccc(C(=O)[O-])c2)cc1

>  <Energy>  (14) 
58.383098163381554

>  <Genealogy>  (14) 
[NH-]S(=O)(=O)c1ccccc1-c1ccc(C(=O)[N-]c2cccc(C(=O)[O-])c2)cc1 (protonated)
[NH-]S(=O)(=O)c1ccccc1-c1ccc(C(=O)[N-]c2cccc(C(=O)[O-])c2)cc1 (3D coordinates assigned)
[NH-]S(=O)(=O)c1ccccc1-c1ccc(C(=O)[N-]c2cccc(C(=O)[O-])c2)cc1 (optimized conformer: 58.383098163381554 kcal/mol)

>  <smiles>  (14) 
NS(=O)(=O)c1ccccc1-c1ccc(C(=O)Nc2cccc(C(=O)O)c2)cc1

>  <score_type>  (14) 
oracle

>  <origin>  (14) 
adg

>  <m_score__min__energy>  (14) 
-14.9

>  <m_primary>  (14) 
energy

$$$$
14:0
     RDKit          3D

 41 43  0  0  0  0  0  0  0  0999 V2000
   60.8620   28.9850   45.3740 C   0  0  0  0  0  0  0  0  0  0  0  0
   60.0600   29.1640   46.6710 C   0  0  2  0  0  0  0  0  0  0  0  0
   58.6240   29.2630   46.3850 N   0  0  0  0  0  0  0  0  0  0  0  0
   57.9460   28.3710   45.4890 C   0  0  0  0  0  0  0  0  0  0  0  0
   58.4240   27.2320   45.2400 O   0  0  0  0  0  0  0  0  0  0  0  0
   56.6490   28.7840   44.8560 C   0  0  0  0  0  0  0  0  0  0  0  0
   56.4430   30.1900   45.0040 O   0  0  0  0  0  0  0  0  0  0  0  0
   57.1140   31.1770   44.2600 C   0  0  0  0  0  0  0  0  0  0  0  0
   57.1770   31.1320   42.8580 C   0  0  0  0  0  0  0  0  0  0  0  0
   57.8880   32.1220   42.1730 C   0  0  0  0  0  0  0  0  0  0  0  0
   57.9530   32.0920   40.9160 O   0  0  0  0  0  0  0  0  0  0  0  0
   58.5000   33.0950   42.8390 O   0  0  0  0  0  0  0  0  0  0  0  0
   58.4710   33.1840   44.1650 C   0  0  0  0  0  0  0  0  0  0  0  0
   59.1520   34.2250   44.8060 C   0  0  0  0  0  0  0  0  0  0  0  0
   59.1430   34.3160   46.2010 C   0  0  0  0  0  0  0  0  0  0  0  0
   58.4520   33.3690   46.9620 C   0  0  0  0  0  0  0  0  0  0  0  0
   57.7630   32.3280   46.3330 C   0  0  0  0  0  0  0  0  0  0  0  0
   57.7640   32.2270   44.9300 C   0  0  0  0  0  0  0  0  0  0  0  0
   60.5370   30.4000   47.4080 C   0  0  0  0  0  0  0  0  0  0  0  0
   60.0350   30.7040   48.6840 C   0  0  0  0  0  0  0  0  0  0  0  0
   60.4770   31.8420   49.3640 C   0  0  0  0  0  0  0  0  0  0  0  0
   61.4270   32.6890   48.7840 C   0  0  0  0  0  0  0  0  0  0  0  0
   61.9570   34.1120   49.6720 Cl  0  0  0  0  0  0  0  0  0  0  0  0
   61.9400   32.3930   47.5100 C   0  0  0  0  0  0  0  0  0  0  0  0
   63.1340   33.4290   46.7410 Cl  0  0  0  0  0  0  0  0  0  0  0  0
   61.4970   31.2530   46.8300 C   0  0  0  0  0  0  0  0  0  0  0  0
   61.9085   28.7514   45.6193 H   0  0  0  0  0  0  0  0  0  0  0  0
   60.4304   28.1611   44.7867 H   0  0  0  0  0  0  0  0  0  0  0  0
   60.8217   29.9142   44.7867 H   0  0  0  0  0  0  0  0  0  0  0  0
   60.2229   28.2822   47.3081 H   0  0  0  0  0  0  0  0  0  0  0  0
   58.0680   30.0440   46.8040 H   0  0  0  0  0  0  0  0  0  0  0  0
   56.6730   28.5328   43.7853 H   0  0  0  0  0  0  0  0  0  0  0  0
   55.8257   28.2504   45.3534 H   0  0  0  0  0  0  0  0  0  0  0  0
   56.6723   30.3264   42.3045 H   0  0  0  0  0  0  0  0  0  0  0  0
   59.6957   34.9734   44.2108 H   0  0  0  0  0  0  0  0  0  0  0  0
   59.6811   35.1349   46.7009 H   0  0  0  0  0  0  0  0  0  0  0  0
   58.4503   33.4431   48.0595 H   0  0  0  0  0  0  0  0  0  0  0  0
   57.2190   31.5864   46.9364 H   0  0  0  0  0  0  0  0  0  0  0  0
   59.2899   30.0428   49.1506 H   0  0  0  0  0  0  0  0  0  0  0  0
   60.0753   32.0731   50.3616 H   0  0  0  0  0  0  0  0  0  0  0  0
   61.9026   31.0209   45.8342 H   0  0  0  0  0  0  0  0  0  0  0  0
  1  2  1  0
  2  3  1  0
  3  4  1  0
  4  5  2  0
  4  6  1  0
  6  7  1  0
  7  8  1  0
  8  9  2  0
  9 10  1  0
 10 11  2  0
 10 12  1  0
 12 13  1  0
 13 14  2  0
 14 15  1  0
 15 16  2  0
 16 17  1  0
 17 18  2  0
  2 19  1  0
 19 20  2  0
 20 21  1  0
 21 22  2  0
 22 23  1  0
 22 24  1  0
 24 25  1  0
 24 26  2  0
 18  8  1  0
 26 19  1  0
 18 13  1  0
  1 27  1  0
  1 28  1  0
  1 29  1  0
  2 30  1  1
  3 31  1  0
  6 32  1  0
  6 33  1  0
  9 34  1  0
 14 35  1  0
 15 36  1  0
 16 37  1  0
 17 38  1  0
 20 39  1  0
 21 40  1  0
 26 41  1  0
M  END
>  <UniqueID>  (15) 
15

>  <SMILES>  (15) 
C[C@H](NC(=O)COc1cc(=O)oc2ccccc12)c1ccc(Cl)c(Cl)c1

>  <Energy>  (15) 
43.62809308078832

>  <Genealogy>  (15) 
C[C@H](NC(=O)COc1cc(=O)oc2ccccc12)c1ccc(Cl)c(Cl)c1 (chirality)
C[C@H](NC(=O)COc1cc(=O)oc2ccccc12)c1ccc(Cl)c(Cl)c1 (3D coordinates assigned)
C[C@H](NC(=O)COc1cc(=O)oc2ccccc12)c1ccc(Cl)c(Cl)c1 (optimized conformer: 43.62809308078832 kcal/mol)

>  <smiles>  (15) 
CC(NC(=O)COc1cc(=O)oc2ccccc12)c1ccc(Cl)c(Cl)c1

>  <score_type>  (15) 
oracle

>  <origin>  (15) 
adg

>  <m_score__min__energy>  (15) 
-8.1099999999999994

>  <m_primary>  (15) 
energy

$$$$
15:0
     RDKit          3D

 38 40  0  0  0  0  0  0  0  0999 V2000
   56.0280   24.3190   44.4760 C   0  0  0  0  0  0  0  0  0  0  0  0
   55.1220   25.0340   45.8330 S   0  0  0  0  0  0  0  0  0  0  0  0
   55.5130   24.3260   47.1000 O   0  0  0  0  0  0  0  0  0  0  0  0
   53.6440   24.8720   45.6200 O   0  0  0  0  0  0  0  0  0  0  0  0
   55.5230   26.7150   45.9890 N   0  0  0  0  0  0  0  0  0  0  0  0
   56.8470   27.2590   46.0500 C   0  0  0  0  0  0  0  0  0  0  0  0
   57.8320   26.7470   46.9130 C   0  0  0  0  0  0  0  0  0  0  0  0
   59.1030   27.3230   46.9490 C   0  0  0  0  0  0  0  0  0  0  0  0
   59.4050   28.4140   46.1300 C   0  0  0  0  0  0  0  0  0  0  0  0
   58.4310   28.9340   45.2590 C   0  0  0  0  0  0  0  0  0  0  0  0
   58.6900   30.0560   44.4050 N   0  0  0  0  0  0  0  0  0  0  0  0
   57.7010   31.4770   44.2920 S   0  0  0  0  0  0  0  0  0  0  0  0
   57.5880   31.8810   42.8500 O   0  0  0  0  0  0  0  0  0  0  0  0
   56.3410   31.1740   44.8560 O   0  0  0  0  0  0  0  0  0  0  0  0
   58.4330   32.8060   45.2070 C   0  0  0  0  0  0  0  0  0  0  0  0
   58.6890   34.0190   44.5550 C   0  0  0  0  0  0  0  0  0  0  0  0
   59.2580   35.0770   45.2660 C   0  0  0  0  0  0  0  0  0  0  0  0
   59.4910   36.1700   44.6850 O   0  0  0  0  0  0  0  0  0  0  0  0
   59.5540   34.9410   46.5520 O   0  0  0  0  0  0  0  0  0  0  0  0
   59.3340   33.8160   47.2240 C   0  0  0  0  0  0  0  0  0  0  0  0
   59.6760   33.7510   48.5800 C   0  0  0  0  0  0  0  0  0  0  0  0
   59.4520   32.5810   49.3070 C   0  0  0  0  0  0  0  0  0  0  0  0
   58.8870   31.4670   48.6830 C   0  0  0  0  0  0  0  0  0  0  0  0
   58.5430   31.5160   47.3290 C   0  0  0  0  0  0  0  0  0  0  0  0
   58.7610   32.6920   46.5800 C   0  0  0  0  0  0  0  0  0  0  0  0
   57.1610   28.3450   45.2210 C   0  0  0  0  0  0  0  0  0  0  0  0
   56.8346   23.6824   44.8686 H   0  0  0  0  0  0  0  0  0  0  0  0
   55.3480   23.7115   43.8607 H   0  0  0  0  0  0  0  0  0  0  0  0
   56.4608   25.1216   43.8607 H   0  0  0  0  0  0  0  0  0  0  0  0
   57.6002   25.8896   47.5620 H   0  0  0  0  0  0  0  0  0  0  0  0
   59.8698   26.9164   47.6248 H   0  0  0  0  0  0  0  0  0  0  0  0
   60.4067   28.8671   46.1666 H   0  0  0  0  0  0  0  0  0  0  0  0
   58.4432   34.1371   43.4893 H   0  0  0  0  0  0  0  0  0  0  0  0
   60.1232   34.6259   49.0745 H   0  0  0  0  0  0  0  0  0  0  0  0
   59.7208   32.5364   50.3727 H   0  0  0  0  0  0  0  0  0  0  0  0
   58.7118   30.5467   49.2595 H   0  0  0  0  0  0  0  0  0  0  0  0
   58.1000   30.6332   46.8448 H   0  0  0  0  0  0  0  0  0  0  0  0
   56.4000   28.7396   44.5317 H   0  0  0  0  0  0  0  0  0  0  0  0
  1  2  1  0
  2  3  2  0
  2  4  2  0
  2  5  1  0
  5  6  1  0
  6  7  2  0
  7  8  1  0
  8  9  2  0
  9 10  1  0
 10 11  1  0
 11 12  1  0
 12 13  2  0
 12 14  2  0
 12 15  1  0
 15 16  2  0
 16 17  1  0
 17 18  2  0
 17 19  1  0
 19 20  1  0
 20 21  2  0
 21 22  1  0
 22 23  2  0
 23 24  1  0
 24 25  2  0
 10 26  2  0
 26  6  1  0
 25 15  1  0
 25 20  1  0
  1 27  1  0
  1 28  1  0
  1 29  1  0
  7 30  1  0
  8 31  1  0
  9 32  1  0
 16 33  1  0
 21 34  1  0
 22 35  1  0
 23 36  1  0
 24 37  1  0
 26 38  1  0
M  CHG  2   5  -1  11  -1
M  END
>  <UniqueID>  (16) 
16

>  <SMILES>  (16) 
CS(=O)(=O)[N-]c1cccc([N-]S(=O)(=O)c2cc(=O)oc3ccccc23)c1

>  <Energy>  (16) 
50.66628972644791

>  <Genealogy>  (16) 
CS(=O)(=O)[N-]c1cccc([N-]S(=O)(=O)c2cc(=O)oc3ccccc23)c1 (protonated)
CS(=O)(=O)[N-]c1cccc([N-]S(=O)(=O)c2cc(=O)oc3ccccc23)c1 (3D coordinates assigned)
CS(=O)(=O)[N-]c1cccc([N-]S(=O)(=O)c2cc(=O)oc3ccccc23)c1 (optimized conformer: 50.66628972644791 kcal/mol)

>  <smiles>  (16) 
CS(=O)(=O)Nc1cccc(NS(=O)(=O)c2cc(=O)oc3ccccc23)c1

>  <score_type>  (16) 
oracle

>  <origin>  (16) 
adg

>  <m_score__min__energy>  (16) 
-12.140000000000001

>  <m_primary>  (16) 
energy

$$$$
16:0
     RDKit          3D

 36 38  0  0  0  0  0  0  0  0999 V2000
   55.1610   29.3510   44.8730 O   0  0  0  0  0  0  0  0  0  0  0  0
   56.3270   29.8220   44.7870 C   0  0  0  0  0  0  0  0  0  0  0  0
   56.5300   31.2240   44.5750 N   0  0  0  0  0  0  0  0  0  0  0  0
   57.5130   32.0530   45.2130 C   0  0  0  0  0  0  0  0  0  0  0  0
   57.3650   33.4450   45.1400 C   0  0  0  0  0  0  0  0  0  0  0  0
   58.3100   34.2890   45.7320 C   0  0  0  0  0  0  0  0  0  0  0  0
   59.4190   33.7490   46.3870 C   0  0  0  0  0  0  0  0  0  0  0  0
   59.5910   32.3610   46.4410 C   0  0  0  0  0  0  0  0  0  0  0  0
   61.0300   31.6680   47.2570 S   0  0  0  0  0  0  0  0  0  0  0  0
   60.5540   29.9900   46.8620 C   0  0  0  0  0  0  0  0  0  0  0  0
   60.1790   29.0860   47.7860 N   0  0  0  0  0  0  0  0  0  0  0  0
   59.9300   28.0030   47.0240 C   0  0  0  0  0  0  0  0  0  0  0  0
   60.1420   28.2400   45.7160 N   0  0  0  0  0  0  0  0  0  0  0  0
   60.5370   29.4960   45.6130 N   0  0  0  0  0  0  0  0  0  0  0  0
   58.6440   31.5140   45.8520 C   0  0  0  0  0  0  0  0  0  0  0  0
   57.4710   28.9610   44.8920 N   0  0  0  0  0  0  0  0  0  0  0  0
   57.4040   27.5250   44.9210 C   0  0  0  0  0  0  0  0  0  0  0  0
   57.8400   26.7940   43.8060 C   0  0  0  0  0  0  0  0  0  0  0  0
   57.7670   25.3990   43.7970 C   0  0  0  0  0  0  0  0  0  0  0  0
   57.2580   24.7060   44.9090 C   0  0  0  0  0  0  0  0  0  0  0  0
   57.1310   23.2030   44.8810 C   0  0  0  0  0  0  0  0  0  0  0  0
   57.0650   22.7770   43.5680 F   0  0  0  0  0  0  0  0  0  0  0  0
   55.9880   22.7980   45.5470 F   0  0  0  0  0  0  0  0  0  0  0  0
   58.2220   22.6090   45.4920 F   0  0  0  0  0  0  0  0  0  0  0  0
   56.7740   25.4400   46.0050 C   0  0  0  0  0  0  0  0  0  0  0  0
   56.8460   26.8360   46.0120 C   0  0  0  0  0  0  0  0  0  0  0  0
   56.5004   33.8761   44.6140 H   0  0  0  0  0  0  0  0  0  0  0  0
   58.1796   35.3801   45.6817 H   0  0  0  0  0  0  0  0  0  0  0  0
   60.1566   34.4139   46.8600 H   0  0  0  0  0  0  0  0  0  0  0  0
   59.5922   27.0360   47.4249 H   0  0  0  0  0  0  0  0  0  0  0  0
   58.7852   30.4237   45.8892 H   0  0  0  0  0  0  0  0  0  0  0  0
   58.3980   29.4150   45.0530 H   0  0  0  0  0  0  0  0  0  0  0  0
   58.2431   27.3242   42.9306 H   0  0  0  0  0  0  0  0  0  0  0  0
   58.1099   24.8394   42.9143 H   0  0  0  0  0  0  0  0  0  0  0  0
   56.3350   24.9119   46.8643 H   0  0  0  0  0  0  0  0  0  0  0  0
   56.4637   27.3988   46.8764 H   0  0  0  0  0  0  0  0  0  0  0  0
  1  2  2  0
  2  3  1  0
  3  4  1  0
  4  5  2  0
  5  6  1  0
  6  7  2  0
  7  8  1  0
  8  9  1  0
  9 10  1  0
 10 11  1  0
 11 12  2  0
 12 13  1  0
 13 14  1  0
  8 15  2  0
  2 16  1  0
 16 17  1  0
 17 18  2  0
 18 19  1  0
 19 20  2  0
 20 21  1  0
 21 22  1  0
 21 23  1  0
 21 24  1  0
 20 25  1  0
 25 26  2  0
 15  4  1  0
 26 17  1  0
 14 10  2  0
  5 27  1  0
  6 28  1  0
  7 29  1  0
 12 30  1  0
 15 31  1  0
 16 32  1  0
 18 33  1  0
 19 34  1  0
 25 35  1  0
 26 36  1  0
M  CHG  2   3  -1  13  -1
M  END
>  <UniqueID>  (17) 
17

>  <SMILES>  (17) 
O=C([N-]c1cccc(Sc2nc[n-]n2)c1)Nc1ccc(C(F)(F)F)cc1

>  <Energy>  (17) 
73.4482707599191

>  <Genealogy>  (17) 
O=C([N-]c1cccc(Sc2nc[n-]n2)c1)Nc1ccc(C(F)(F)F)cc1 (protonated)
O=C([N-]c1cccc(Sc2nc[n-]n2)c1)Nc1ccc(C(F)(F)F)cc1 (3D coordinates assigned)
O=C([N-]c1cccc(Sc2nc[n-]n2)c1)Nc1ccc(C(F)(F)F)cc1 (optimized conformer: 73.4482707599191 kcal/mol)

>  <smiles>  (17) 
O=C(Nc1ccc(C(F)(F)F)cc1)Nc1cccc(Sc2nc[nH]n2)c1

>  <score_type>  (17) 
oracle

>  <origin>  (17) 
adg

>  <m_score__min__energy>  (17) 
-10.470000000000001

>  <m_primary>  (17) 
energy

$$$$
17:0
     RDKit          3D

 35 37  0  0  0  0  0  0  0  0999 V2000
   57.3000   31.2450   42.6670 O   0  0  0  0  0  0  0  0  0  0  0  0
   56.8580   30.7800   43.7510 C   0  0  0  0  0  0  0  0  0  0  0  0
   56.1520   29.4600   43.7470 C   0  0  0  0  0  0  0  0  0  0  0  0
   56.3300   28.7870   44.9940 O   0  0  0  0  0  0  0  0  0  0  0  0
   57.5360   28.2270   45.4580 C   0  0  0  0  0  0  0  0  0  0  0  0
   58.7600   28.9140   45.3270 C   0  0  0  0  0  0  0  0  0  0  0  0
   59.9470   28.3530   45.7970 C   0  0  0  0  0  0  0  0  0  0  0  0
   59.9340   27.0970   46.3990 C   0  0  0  0  0  0  0  0  0  0  0  0
   58.7330   26.3990   46.5370 C   0  0  0  0  0  0  0  0  0  0  0  0
   57.5200   26.9470   46.0730 C   0  0  0  0  0  0  0  0  0  0  0  0
   56.2570   26.1760   46.2520 C   0  0  0  0  0  0  0  0  0  0  0  0
   55.1430   26.7090   45.9910 O   0  0  0  0  0  0  0  0  0  0  0  0
   56.3120   24.8180   46.7230 N   0  0  0  0  0  0  0  0  0  0  0  0
   56.8510   23.8100   46.1030 C   0  0  0  0  0  0  0  0  0  0  0  0
   57.3940   22.7360   46.7170 N   0  0  0  0  0  0  0  0  0  0  0  0
   57.8940   21.8480   45.8170 C   0  0  0  0  0  0  0  0  0  0  0  0
   57.7490   22.2160   44.4830 C   0  0  0  0  0  0  0  0  0  0  0  0
   56.9680   23.7070   44.4320 S   0  0  0  0  0  0  0  0  0  0  0  0
   56.9210   31.5390   44.9680 N   0  0  0  0  0  0  0  0  0  0  0  0
   57.6140   32.6160   45.2020 C   0  0  0  0  0  0  0  0  0  0  0  0
   58.3210   33.3150   44.2820 N   0  0  0  0  0  0  0  0  0  0  0  0
   58.9720   34.3730   44.8350 C   0  0  0  0  0  0  0  0  0  0  0  0
   58.7890   34.5190   46.2070 C   0  0  0  0  0  0  0  0  0  0  0  0
   57.7850   33.2760   46.7350 S   0  0  0  0  0  0  0  0  0  0  0  0
   55.0780   29.6257   43.5765 H   0  0  0  0  0  0  0  0  0  0  0  0
   56.5745   28.8361   42.9456 H   0  0  0  0  0  0  0  0  0  0  0  0
   58.7790   29.9042   44.8484 H   0  0  0  0  0  0  0  0  0  0  0  0
   60.8941   28.9026   45.6923 H   0  0  0  0  0  0  0  0  0  0  0  0
   60.8717   26.6544   46.7663 H   0  0  0  0  0  0  0  0  0  0  0  0
   58.7332   25.4079   47.0143 H   0  0  0  0  0  0  0  0  0  0  0  0
   58.3775   20.9079   46.1211 H   0  0  0  0  0  0  0  0  0  0  0  0
   58.0861   21.6339   43.6126 H   0  0  0  0  0  0  0  0  0  0  0  0
   58.4100   33.0820   43.2690 H   0  0  0  0  0  0  0  0  0  0  0  0
   59.5950   35.0603   44.2438 H   0  0  0  0  0  0  0  0  0  0  0  0
   59.2246   35.3090   46.8364 H   0  0  0  0  0  0  0  0  0  0  0  0
  1  2  2  0
  2  3  1  0
  3  4  1  0
  4  5  1  0
  5  6  2  0
  6  7  1  0
  7  8  2  0
  8  9  1  0
  9 10  2  0
 10 11  1  0
 11 12  2  0
 11 13  1  0
 13 14  2  3
 14 15  1  0
 15 16  1  0
 16 17  2  0
 17 18  1  0
  2 19  1  0
 19 20  2  3
 20 21  1  0
 21 22  1  0
 22 23  2  0
 23 24  1  0
 10  5  1  0
 18 14  1  0
 24 20  1  0
  3 25  1  0
  3 26  1  0
  6 27  1  0
  7 28  1  0
  8 29  1  0
  9 30  1  0
 16 31  1  0
 17 32  1  0
 21 33  1  0
 22 34  1  0
 23 35  1  0
M  CHG  1  15  -1
M  END
>  <UniqueID>  (18) 
18

>  <SMILES>  (18) 
O=C(COc1ccccc1C(=O)N=c1[n-]ccs1)N=c1[nH]ccs1

>  <Energy>  (18) 
105.77811500449961

>  <Genealogy>  (18) 
O=C(COc1ccccc1C(=O)N=c1[n-]ccs1)N=c1[nH]ccs1 (protonated)
O=C(COc1ccccc1C(=O)N=c1[n-]ccs1)N=c1[nH]ccs1 (3D coordinates assigned)
O=C(COc1ccccc1C(=O)N=c1[n-]ccs1)N=c1[nH]ccs1 (optimized conformer: 105.77811500449961 kcal/mol)

>  <smiles>  (18) 
O=C(COc1ccccc1C(=O)N=c1[nH]ccs1)N=c1[nH]ccs1

>  <score_type>  (18) 
oracle

>  <origin>  (18) 
adg

>  <m_score__min__energy>  (18) 
-9.5899999999999999

>  <m_primary>  (18) 
energy

$$$$
18:0
     RDKit          3D

 57 62  0  0  0  0  0  0  0  0999 V2000
   55.4840   23.6610   44.8000 N   0  0  0  0  0  0  0  0  0  0  0  0
   60.2580   33.1350   50.0620 C   0  0  0  0  0  0  0  0  0  0  0  0
   55.5910   25.5880   46.0370 N   0  0  0  0  0  0  0  0  0  0  0  0
   56.2660   26.7160   46.3140 C   0  0  0  0  0  0  0  0  0  0  0  0
   57.4610   27.0470   45.6670 C   0  0  0  0  0  0  0  0  0  0  0  0
   58.0940   28.2820   46.0780 C   0  0  0  0  0  0  0  0  0  0  0  0
   59.1050   28.3250   46.9690 N   0  0  0  0  0  0  0  0  0  0  0  0
   59.5080   29.5630   47.1940 N   0  0  0  0  0  0  0  0  0  0  0  0
   60.5720   29.9850   48.0940 C   0  0  0  0  0  0  0  0  0  0  0  0
   57.7640   32.3240   45.3690 C   0  0  0  0  0  0  0  0  0  0  0  0
   59.0490   30.7110   49.9640 C   0  0  0  0  0  0  0  0  0  0  0  0
   58.6250   31.6520   50.8740 C   0  0  0  0  0  0  0  0  0  0  0  0
   57.6000   31.3540   51.7250 C   0  0  0  0  0  0  0  0  0  0  0  0
   56.8920   30.1380   51.7790 N   0  0  0  0  0  0  0  0  0  0  0  0
   55.6670   29.9900   51.6740 O   0  0  0  0  0  0  0  0  0  0  0  0
   57.6300   28.9910   51.9930 O   0  0  0  0  0  0  0  0  0  0  0  0
   57.2100   32.3420   52.6370 C   0  0  0  0  0  0  0  0  0  0  0  0
   57.8160   33.5720   52.6950 C   0  0  0  0  0  0  0  0  0  0  0  0
   58.8550   33.8730   51.8310 C   0  0  0  0  0  0  0  0  0  0  0  0
   59.2250   32.8920   50.9430 C   0  0  0  0  0  0  0  0  0  0  0  0
   56.9480   30.1620   44.8740 C   0  0  0  0  0  0  0  0  0  0  0  0
   60.8190   34.2710   50.1130 O   0  0  0  0  0  0  0  0  0  0  0  0
   56.9270   31.4950   44.7190 N   0  0  0  0  0  0  0  0  0  0  0  0
   61.7450   32.5880   48.3190 C   0  0  0  0  0  0  0  0  0  0  0  0
   61.4050   33.3870   47.2230 C   0  0  0  0  0  0  0  0  0  0  0  0
   62.3610   33.8330   46.3300 C   0  0  0  0  0  0  0  0  0  0  0  0
   63.6650   33.4680   46.5520 C   0  0  0  0  0  0  0  0  0  0  0  0
   64.0090   32.6740   47.6390 C   0  0  0  0  0  0  0  0  0  0  0  0
   63.0550   32.2200   48.5440 C   0  0  0  0  0  0  0  0  0  0  0  0
   58.7440   30.3770   46.4300 C   0  0  0  0  0  0  0  0  0  0  0  0
   58.6720   31.7320   46.2280 C   0  0  0  0  0  0  0  0  0  0  0  0
   57.9230   26.1760   44.7370 C   0  0  0  0  0  0  0  0  0  0  0  0
   57.2420   25.0410   44.4590 N   0  0  0  0  0  0  0  0  0  0  0  0
   56.0950   24.7610   45.1060 C   0  0  0  0  0  0  0  0  0  0  0  0
   56.1050   29.4370   44.2260 N   0  0  0  0  0  0  0  0  0  0  0  0
   57.8580   29.5850   45.7300 C   0  0  0  0  0  0  0  0  0  0  0  0
   60.0850   30.9810   49.0950 C   0  0  0  0  0  0  0  0  0  0  0  0
   60.6700   32.1950   49.1640 N   0  0  0  0  0  0  0  0  0  0  0  0
   55.9650   22.7300   44.8340 H   0  0  0  0  0  0  0  0  0  0  0  0
   55.8656   27.4021   47.0749 H   0  0  0  0  0  0  0  0  0  0  0  0
   60.9589   29.1038   48.6268 H   0  0  0  0  0  0  0  0  0  0  0  0
   61.3616   30.4600   47.4932 H   0  0  0  0  0  0  0  0  0  0  0  0
   58.5543   29.7291   49.9293 H   0  0  0  0  0  0  0  0  0  0  0  0
   56.3868   32.1242   53.3334 H   0  0  0  0  0  0  0  0  0  0  0  0
   57.4762   34.3186   53.4279 H   0  0  0  0  0  0  0  0  0  0  0  0
   59.3598   34.8501   51.8543 H   0  0  0  0  0  0  0  0  0  0  0  0
   60.3526   33.6670   47.0680 H   0  0  0  0  0  0  0  0  0  0  0  0
   62.0855   34.4602   45.4693 H   0  0  0  0  0  0  0  0  0  0  0  0
   64.4489   33.8088   45.8597 H   0  0  0  0  0  0  0  0  0  0  0  0
   65.0631   32.3972   47.7879 H   0  0  0  0  0  0  0  0  0  0  0  0
   63.3340   31.5932   49.4038 H   0  0  0  0  0  0  0  0  0  0  0  0
   59.3714   32.3800   46.7766 H   0  0  0  0  0  0  0  0  0  0  0  0
   57.7281   33.4139   45.2250 H   0  0  0  0  0  0  0  0  0  0  0  0
   56.2340   31.9480   44.0630 H   0  0  0  0  0  0  0  0  0  0  0  0
   56.3770   28.5200   43.8160 H   0  0  0  0  0  0  0  0  0  0  0  0
   58.8600   26.3941   44.2037 H   0  0  0  0  0  0  0  0  0  0  0  0
   57.5990   24.3710   43.7420 H   0  0  0  0  0  0  0  0  0  0  0  0
  1  2  2  3
  2  3  1  0
  3  4  2  0
  4  5  1  0
  5  6  1  0
  6  7  2  0
  7  8  1  0
  8  9  1  0
  9 10  1  0
 10 11  2  0
 11 12  1  0
 12 13  2  0
 13 14  1  0
 14 15  2  0
 14 16  1  0
 13 17  1  0
 17 18  2  0
 18 19  1  0
 19 20  2  0
 20 21  1  0
 21 22  2  0
 21 23  1  0
 23 24  1  0
 24 25  2  0
 25 26  1  0
 26 27  2  0
 27 28  1  0
 28 29  2  0
  8 30  1  0
 30 31  1  0
 31 32  2  0
 32 33  1  0
 33 34  1  0
 34 35  2  3
 34 36  1  0
  5 37  2  0
 37 38  1  0
 38  2  1  0
 36  6  1  0
 23 10  1  0
 29 24  1  0
 36 30  2  0
 20 12  1  0
  1 39  1  0
  4 40  1  0
  9 41  1  0
  9 42  1  0
 11 43  1  0
 17 44  1  0
 18 45  1  0
 19 46  1  0
 25 47  1  0
 26 48  1  0
 27 49  1  0
 28 50  1  0
 29 51  1  0
 31 52  1  0
 32 53  1  0
 33 54  1  0
 35 55  1  0
 37 56  1  0
 38 57  1  0
M  CHG  2  14   1  16  -1
M  END
>  <smiles>  (19) 
N=c1ncc(-c2nn(Cc3cc4c([N+](=O)[O-])cccc4c(=O)n3-c3ccccc3)c3cc[nH]c(=N)c23)c[nH]1

>  <score_type>  (19) 
oracle

>  <origin>  (19) 
adg

>  <m_score__min__energy>  (19) 
-9.7300000000000004

>  <m_primary>  (19) 
energy

$$$$
19:0
     RDKit          3D

 32 33  0  0  0  0  0  0  0  0999 V2000
   57.7650   27.7680   44.2340 C   0  0  0  0  0  0  0  0  0  0  0  0
   57.4820   29.2300   44.3080 C   0  0  0  0  0  0  0  0  0  0  0  0
   58.2920   30.1880   43.8290 N   0  0  0  0  0  0  0  0  0  0  0  0
   57.6340   31.3160   44.1530 C   0  0  0  0  0  0  0  0  0  0  0  0
   58.1400   32.6980   43.8790 C   0  0  0  0  0  0  0  0  0  0  0  0
   58.1440   33.4940   45.1220 N   0  0  0  0  0  0  0  0  0  0  0  0
   56.8750   34.2310   45.2510 C   0  0  0  0  0  0  0  0  0  0  0  0
   59.2900   34.4320   45.1490 C   0  0  0  0  0  0  0  0  0  0  0  0
   60.0790   34.2500   46.4180 C   0  0  0  0  0  0  0  0  0  0  0  0
   61.4180   33.8270   46.3760 C   0  0  0  0  0  0  0  0  0  0  0  0
   62.1460   33.6780   47.5600 C   0  0  0  0  0  0  0  0  0  0  0  0
   61.5450   33.9520   48.7930 C   0  0  0  0  0  0  0  0  0  0  0  0
   62.4610   33.7650   50.2780 Cl  0  0  0  0  0  0  0  0  0  0  0  0
   60.2140   34.3770   48.8420 C   0  0  0  0  0  0  0  0  0  0  0  0
   59.4840   34.5280   47.6600 C   0  0  0  0  0  0  0  0  0  0  0  0
   56.4840   31.0540   44.8080 N   0  0  0  0  0  0  0  0  0  0  0  0
   56.4260   29.7560   44.8830 O   0  0  0  0  0  0  0  0  0  0  0  0
   57.8444   27.3579   45.2516 H   0  0  0  0  0  0  0  0  0  0  0  0
   56.9479   27.2630   43.6979 H   0  0  0  0  0  0  0  0  0  0  0  0
   58.7115   27.6044   43.6979 H   0  0  0  0  0  0  0  0  0  0  0  0
   59.2100   30.0830   43.3410 H   0  0  0  0  0  0  0  0  0  0  0  0
   59.1642   32.6381   43.4823 H   0  0  0  0  0  0  0  0  0  0  0  0
   57.4809   33.1829   43.1439 H   0  0  0  0  0  0  0  0  0  0  0  0
   56.6377   34.3688   46.3162 H   0  0  0  0  0  0  0  0  0  0  0  0
   56.9709   35.2139   44.7666 H   0  0  0  0  0  0  0  0  0  0  0  0
   56.0688   33.6606   44.7666 H   0  0  0  0  0  0  0  0  0  0  0  0
   59.9412   34.2354   44.2846 H   0  0  0  0  0  0  0  0  0  0  0  0
   58.9112   35.4638   45.1059 H   0  0  0  0  0  0  0  0  0  0  0  0
   61.8951   33.6124   45.4084 H   0  0  0  0  0  0  0  0  0  0  0  0
   63.1936   33.3446   47.5220 H   0  0  0  0  0  0  0  0  0  0  0  0
   59.7411   34.5926   49.8115 H   0  0  0  0  0  0  0  0  0  0  0  0
   58.4382   34.8663   47.7022 H   0  0  0  0  0  0  0  0  0  0  0  0
  1  2  1  0
  2  3  2  0
  3  4  1  0
  4  5  1  0
  5  6  1  0
  6  7  1  0
  6  8  1  0
  8  9  1  0
  9 10  2  0
 10 11  1  0
 11 12  2  0
 12 13  1  0
 12 14  1  0
 14 15  2  0
  4 16  2  0
 16 17  1  0
 17  2  1  0
 15  9  1  0
  1 18  1  0
  1 19  1  0
  1 20  1  0
  3 21  1  0
  5 22  1  0
  5 23  1  0
  7 24  1  0
  7 25  1  0
  7 26  1  0
  8 27  1  0
  8 28  1  0
 10 29  1  0
 11 30  1  0
 14 31  1  0
 15 32  1  0
M  CHG  1   3   1
M  END
>  <UniqueID>  (20) 
19

>  <SMILES>  (20) 
Cc1[nH+]c(CN(C)Cc2ccc(Cl)cc2)no1

>  <Energy>  (20) 
64.69875978207955

>  <Genealogy>  (20) 
Cc1[nH+]c(CN(C)Cc2ccc(Cl)cc2)no1 (protonated)
Cc1[nH+]c(CN(C)Cc2ccc(Cl)cc2)no1 (3D coordinates assigned)
Cc1[nH+]c(CN(C)Cc2ccc(Cl)cc2)no1 (optimized conformer: 64.69875978207955 kcal/mol)

>  <smiles>  (20) 
Cc1nc(CN(C)Cc2ccc(Cl)cc2)no1

>  <score_type>  (20) 
oracle

>  <origin>  (20) 
adg

>  <m_score__min__energy>  (20) 
-5.8099999999999996

>  <m_primary>  (20) 
energy

$$$$
20:0
     RDKit          3D

 30 32  0  0  0  0  0  0  0  0999 V2000
   58.1749   34.1706   47.2274 H   0  0  0  0  0  0  0  0  0  0  0  0
   58.0470   33.7030   46.2400 C   0  0  0  0  0  0  0  0  0  0  0  0
   57.3160   32.6410   45.9950 O   0  0  0  0  0  0  0  0  0  0  0  0
   57.3950   32.3550   44.7150 C   0  0  0  0  0  0  0  0  0  0  0  0
   56.6710   31.2210   44.1010 C   0  0  0  0  0  0  0  0  0  0  0  0
   56.6240   31.1490   42.8460 O   0  0  0  0  0  0  0  0  0  0  0  0
   56.0110   30.2050   44.8670 N   0  0  0  0  0  0  0  0  0  0  0  0
   56.0020   28.9830   44.5220 N   0  0  0  0  0  0  0  0  0  0  0  0
   56.7190   27.9810   45.2490 C   0  0  0  0  0  0  0  0  0  0  0  0
   56.1410   26.9400   45.9540 C   0  0  0  0  0  0  0  0  0  0  0  0
   54.7760   26.7080   46.0650 O   0  0  0  0  0  0  0  0  0  0  0  0
   57.0820   26.1630   46.5350 N   0  0  0  0  0  0  0  0  0  0  0  0
   56.9230   25.3160   47.1250 H   0  0  0  0  0  0  0  0  0  0  0  0
   58.2620   26.7150   46.1960 C   0  0  0  0  0  0  0  0  0  0  0  0
   59.5290   26.2710   46.5660 C   0  0  0  0  0  0  0  0  0  0  0  0
   59.6544   25.3794   47.1979 H   0  0  0  0  0  0  0  0  0  0  0  0
   60.6430   26.9960   46.1080 C   0  0  0  0  0  0  0  0  0  0  0  0
   61.6558   26.6750   46.3928 H   0  0  0  0  0  0  0  0  0  0  0  0
   60.4750   28.1350   45.2840 C   0  0  0  0  0  0  0  0  0  0  0  0
   61.6720   28.9210   44.8370 C   0  0  0  0  0  0  0  0  0  0  0  0
   62.2229   29.2827   45.7177 H   0  0  0  0  0  0  0  0  0  0  0  0
   62.3284   28.2775   44.2328 H   0  0  0  0  0  0  0  0  0  0  0  0
   61.3424   29.7791   44.2328 H   0  0  0  0  0  0  0  0  0  0  0  0
   59.1770   28.5710   44.9380 C   0  0  0  0  0  0  0  0  0  0  0  0
   59.0275   29.4669   44.3175 H   0  0  0  0  0  0  0  0  0  0  0  0
   58.0880   27.8310   45.4070 C   0  0  0  0  0  0  0  0  0  0  0  0
   58.2110   33.2790   44.0840 C   0  0  0  0  0  0  0  0  0  0  0  0
   58.4707   33.3153   43.0157 H   0  0  0  0  0  0  0  0  0  0  0  0
   58.6300   34.1430   45.0710 C   0  0  0  0  0  0  0  0  0  0  0  0
   59.2961   35.0101   44.9507 H   0  0  0  0  0  0  0  0  0  0  0  0
  1  2  1  0
  2  3  1  0
  3  4  1  0
  4  5  1  0
  5  6  2  0
  5  7  1  0
  7  8  2  0
  8  9  1  0
  9 10  2  0
 10 11  1  0
 10 12  1  0
 12 13  1  0
 12 14  1  0
 14 15  2  0
 15 16  1  0
 15 17  1  0
 17 18  1  0
 17 19  2  0
 19 20  1  0
 20 21  1  0
 20 22  1  0
 20 23  1  0
 19 24  1  0
 24 25  1  0
 24 26  2  0
  4 27  2  0
 27 28  1  0
 27 29  1  0
 29 30  1  0
 29  2  2  0
 26  9  1  0
 26 14  1  0
M  CHG  1  11  -1
M  END
>  <UniqueID>  (21) 
20

>  <SMILES>  (21) 
Cc1ccc2[nH]c([O-])c(/N=N/C(=O)c3ccco3)c2c1

>  <Energy>  (21) 
94.30522789911078

>  <Genealogy>  (21) 
Cc1ccc2[nH]c([O-])c(N=NC(=O)c3ccco3)c2c1 (protonated)
Cc1ccc2[nH]c([O-])c(/N=N/C(=O)c3ccco3)c2c1 (cis-trans isomerization)
Cc1ccc2[nH]c([O-])c(/N=N/C(=O)c3ccco3)c2c1 (3D coordinates assigned)
Cc1ccc2[nH]c([O-])c(/N=N/C(=O)c3ccco3)c2c1 (optimized conformer: 94.30522789911078 kcal/mol)

>  <smiles>  (21) 
Cc1ccc2[nH]c(O)c(N=NC(=O)c3ccco3)c2c1

>  <score_type>  (21) 
oracle

>  <origin>  (21) 
adg

>  <m_score__min__energy>  (21) 
-10.69

>  <m_primary>  (21) 
energy

$$$$
21:0
     RDKit          3D

 31 32  0  0  0  0  0  0  0  0999 V2000
   57.7690   32.2560   41.7110 C   0  0  0  0  0  0  0  0  0  0  0  0
   56.8470   31.3560   42.3140 O   0  0  0  0  0  0  0  0  0  0  0  0
   57.0240   30.8460   43.6030 C   0  0  0  0  0  0  0  0  0  0  0  0
   56.2590   31.2090   44.5400 O   0  0  0  0  0  0  0  0  0  0  0  0
   58.1100   29.9450   43.8550 N   0  0  0  0  0  0  0  0  0  0  0  0
   58.2950   29.2180   45.0810 C   0  0  0  0  0  0  0  0  0  0  0  0
   59.1710   29.6750   46.0810 C   0  0  0  0  0  0  0  0  0  0  0  0
   59.3240   28.9540   47.2680 C   0  0  0  0  0  0  0  0  0  0  0  0
   58.5890   27.7860   47.4790 C   0  0  0  0  0  0  0  0  0  0  0  0
   57.6760   27.3420   46.5140 C   0  0  0  0  0  0  0  0  0  0  0  0
   56.9430   26.1330   46.7570 N   0  0  0  0  0  0  0  0  0  0  0  0
   55.8640   25.6230   45.9620 C   0  0  0  0  0  0  0  0  0  0  0  0
   54.7610   26.2320   45.9830 O   0  0  0  0  0  0  0  0  0  0  0  0
   56.0380   24.4540   45.0720 C   0  0  0  0  0  0  0  0  0  0  0  0
   57.3110   23.9350   44.8000 C   0  0  0  0  0  0  0  0  0  0  0  0
   57.4320   22.8260   43.9650 C   0  0  0  0  0  0  0  0  0  0  0  0
   56.2800   22.2540   43.4250 C   0  0  0  0  0  0  0  0  0  0  0  0
   56.3600   21.2520   42.6670 O   0  0  0  0  0  0  0  0  0  0  0  0
   55.0670   22.7850   43.7250 N   0  0  0  0  0  0  0  0  0  0  0  0
   54.9510   23.8470   44.5240 N   0  0  0  0  0  0  0  0  0  0  0  0
   57.5450   28.0550   45.3090 C   0  0  0  0  0  0  0  0  0  0  0  0
   58.3212   32.7950   42.4949 H   0  0  0  0  0  0  0  0  0  0  0  0
   58.4767   31.6917   41.0859 H   0  0  0  0  0  0  0  0  0  0  0  0
   57.2220   32.9771   41.0859 H   0  0  0  0  0  0  0  0  0  0  0  0
   58.8570   29.8830   43.1250 H   0  0  0  0  0  0  0  0  0  0  0  0
   59.7387   30.6047   45.9282 H   0  0  0  0  0  0  0  0  0  0  0  0
   60.0253   29.3076   48.0382 H   0  0  0  0  0  0  0  0  0  0  0  0
   58.7275   27.2119   48.4070 H   0  0  0  0  0  0  0  0  0  0  0  0
   58.2057   24.3984   45.2412 H   0  0  0  0  0  0  0  0  0  0  0  0
   58.4227   22.4072   43.7347 H   0  0  0  0  0  0  0  0  0  0  0  0
   56.8473   27.6970   44.5376 H   0  0  0  0  0  0  0  0  0  0  0  0
  1  2  1  0
  2  3  1  0
  3  4  2  0
  3  5  1  0
  5  6  1  0
  6  7  2  0
  7  8  1  0
  8  9  2  0
  9 10  1  0
 10 11  1  0
 11 12  1  0
 12 13  2  0
 12 14  1  0
 14 15  1  0
 15 16  2  0
 16 17  1  0
 17 18  2  0
 17 19  1  0
 19 20  1  0
 10 21  2  0
 21  6  1  0
 20 14  2  0
  1 22  1  0
  1 23  1  0
  1 24  1  0
  5 25  1  0
  7 26  1  0
  8 27  1  0
  9 28  1  0
 15 29  1  0
 16 30  1  0
 21 31  1  0
M  CHG  2  11  -1  19  -1
M  END
>  <UniqueID>  (22) 
21

>  <SMILES>  (22) 
COC(=O)Nc1cccc([N-]C(=O)c2ccc(=O)[n-]n2)c1

>  <Energy>  (22) 
39.603884753184715

>  <Genealogy>  (22) 
COC(=O)Nc1cccc([N-]C(=O)c2ccc(=O)[n-]n2)c1 (protonated)
COC(=O)Nc1cccc([N-]C(=O)c2ccc(=O)[n-]n2)c1 (3D coordinates assigned)
COC(=O)Nc1cccc([N-]C(=O)c2ccc(=O)[n-]n2)c1 (optimized conformer: 39.603884753184715 kcal/mol)

>  <smiles>  (22) 
COC(=O)Nc1cccc(NC(=O)c2ccc(=O)[nH]n2)c1

>  <score_type>  (22) 
oracle

>  <origin>  (22) 
adg

>  <m_score__min__energy>  (22) 
-10.9

>  <m_primary>  (22) 
energy

$$$$
22:0
     RDKit          3D

 29 30  0  0  0  0  0  0  0  0999 V2000
   59.3480   30.8000   48.9730 C   0  0  0  0  0  0  0  0  0  0  0  0
   59.7960   29.6200   48.3130 O   0  0  0  0  0  0  0  0  0  0  0  0
   59.4980   29.2980   46.9810 C   0  0  0  0  0  0  0  0  0  0  0  0
   60.3470   28.4990   46.1900 C   0  0  0  0  0  0  0  0  0  0  0  0
   60.0030   28.2050   44.8670 C   0  0  0  0  0  0  0  0  0  0  0  0
   58.8180   28.7040   44.3220 C   0  0  0  0  0  0  0  0  0  0  0  0
   57.9690   29.5040   45.0980 C   0  0  0  0  0  0  0  0  0  0  0  0
   56.4810   30.1390   44.4030 S   0  0  0  0  0  0  0  0  0  0  0  0
   55.2950   29.3430   44.8710 O   0  0  0  0  0  0  0  0  0  0  0  0
   56.5700   30.0540   42.9060 O   0  0  0  0  0  0  0  0  0  0  0  0
   56.2680   31.7970   44.8660 N   0  0  0  0  0  0  0  0  0  0  0  0
   57.3280   32.7090   45.1800 C   0  0  0  0  0  0  0  0  0  0  0  0
   57.4700   33.1530   46.4990 C   0  0  0  0  0  0  0  0  0  0  0  0
   58.4890   34.0460   46.8330 C   0  0  0  0  0  0  0  0  0  0  0  0
   59.3650   34.4870   45.8390 C   0  0  0  0  0  0  0  0  0  0  0  0
   59.2200   34.0460   44.5610 N   0  0  0  0  0  0  0  0  0  0  0  0
   58.2340   33.1760   44.2110 C   0  0  0  0  0  0  0  0  0  0  0  0
   58.3120   29.7940   46.4250 C   0  0  0  0  0  0  0  0  0  0  0  0
   59.4032   30.6545   50.0619 H   0  0  0  0  0  0  0  0  0  0  0  0
   59.9870   31.6472   48.6834 H   0  0  0  0  0  0  0  0  0  0  0  0
   58.3077   31.0096   48.6834 H   0  0  0  0  0  0  0  0  0  0  0  0
   61.2826   28.1056   46.6141 H   0  0  0  0  0  0  0  0  0  0  0  0
   60.6677   27.5788   44.2537 H   0  0  0  0  0  0  0  0  0  0  0  0
   58.5506   28.4685   43.2813 H   0  0  0  0  0  0  0  0  0  0  0  0
   56.7764   32.7972   47.2751 H   0  0  0  0  0  0  0  0  0  0  0  0
   58.6010   34.3989   47.8688 H   0  0  0  0  0  0  0  0  0  0  0  0
   60.1722   35.1910   46.0898 H   0  0  0  0  0  0  0  0  0  0  0  0
   58.1454   32.8373   43.1682 H   0  0  0  0  0  0  0  0  0  0  0  0
   57.6431   30.4175   47.0364 H   0  0  0  0  0  0  0  0  0  0  0  0
  1  2  1  0
  2  3  1  0
  3  4  2  0
  4  5  1  0
  5  6  2  0
  6  7  1  0
  7  8  1  0
  8  9  2  0
  8 10  2  0
  8 11  1  0
 11 12  1  0
 12 13  2  0
 13 14  1  0
 14 15  2  0
 15 16  1  0
 16 17  2  0
  7 18  2  0
 18  3  1  0
 17 12  1  0
  1 19  1  0
  1 20  1  0
  1 21  1  0
  4 22  1  0
  5 23  1  0
  6 24  1  0
 13 25  1  0
 14 26  1  0
 15 27  1  0
 17 28  1  0
 18 29  1  0
M  CHG  1  11  -1
M  END
>  <UniqueID>  (23) 
22

>  <SMILES>  (23) 
COc1cccc(S(=O)(=O)[N-]c2cccnc2)c1

>  <Energy>  (23) 
32.86450860162141

>  <Genealogy>  (23) 
COc1cccc(S(=O)(=O)[N-]c2cccnc2)c1 (protonated)
COc1cccc(S(=O)(=O)[N-]c2cccnc2)c1 (3D coordinates assigned)
COc1cccc(S(=O)(=O)[N-]c2cccnc2)c1 (optimized conformer: 32.86450860162141 kcal/mol)

>  <smiles>  (23) 
COc1cccc(S(=O)(=O)Nc2cccnc2)c1

>  <score_type>  (23) 
oracle

>  <origin>  (23) 
adg

>  <m_score__min__energy>  (23) 
-7.71

>  <m_primary>  (23) 
energy

$$$$
23:0
     RDKit          3D

 44 46  0  0  0  0  0  0  0  0999 V2000
   53.7880   24.5800   45.6040 C   0  0  0  0  0  0  0  0  0  0  0  0
   54.5030   25.7700   45.8530 O   0  0  0  0  0  0  0  0  0  0  0  0
   55.8970   25.5330   45.7920 C   0  0  0  0  0  0  0  0  0  0  0  0
   56.6610   26.7210   46.3690 C   0  0  0  0  0  0  0  0  0  0  0  0
   58.0930   26.4550   46.3180 N   0  0  0  0  0  0  0  0  0  0  0  0
   59.0610   27.2890   46.9630 C   0  0  0  0  0  0  0  0  0  0  0  0
   60.0480   26.7640   47.5470 O   0  0  0  0  0  0  0  0  0  0  0  0
   58.9060   28.7620   46.9440 C   0  0  0  0  0  0  0  0  0  0  0  0
   59.5350   29.5630   47.9370 C   0  0  0  0  0  0  0  0  0  0  0  0
   59.3970   30.9630   47.9290 C   0  0  0  0  0  0  0  0  0  0  0  0
   58.6230   31.5350   46.9170 C   0  0  0  0  0  0  0  0  0  0  0  0
   58.0170   30.7740   45.9620 C   0  0  0  0  0  0  0  0  0  0  0  0
   58.1320   29.3870   45.9370 C   0  0  0  0  0  0  0  0  0  0  0  0
   57.3470   31.5510   45.0920 N   0  0  0  0  0  0  0  0  0  0  0  0
   57.5660   32.8050   45.5680 C   0  0  0  0  0  0  0  0  0  0  0  0
   57.0450   34.0230   44.8730 C   0  0  0  0  0  0  0  0  0  0  0  0
   58.3450   32.8310   46.6850 N   0  0  0  0  0  0  0  0  0  0  0  0
   58.8380   34.0060   47.4100 C   0  0  0  0  0  0  0  0  0  0  0  0
   60.2650   33.7980   47.8400 C   0  0  0  0  0  0  0  0  0  0  0  0
   61.2720   33.5760   46.8860 C   0  0  0  0  0  0  0  0  0  0  0  0
   62.5930   33.3610   47.2910 C   0  0  0  0  0  0  0  0  0  0  0  0
   62.9190   33.3650   48.6510 C   0  0  0  0  0  0  0  0  0  0  0  0
   64.5760   33.0940   49.1590 Cl  0  0  0  0  0  0  0  0  0  0  0  0
   61.9210   33.5850   49.6070 C   0  0  0  0  0  0  0  0  0  0  0  0
   60.6000   33.8000   49.2040 C   0  0  0  0  0  0  0  0  0  0  0  0
   53.5078   24.1137   46.5601 H   0  0  0  0  0  0  0  0  0  0  0  0
   52.8794   24.8117   45.0289 H   0  0  0  0  0  0  0  0  0  0  0  0
   54.4191   23.8865   45.0289 H   0  0  0  0  0  0  0  0  0  0  0  0
   56.1375   24.6301   46.3725 H   0  0  0  0  0  0  0  0  0  0  0  0
   56.1911   25.3943   44.7412 H   0  0  0  0  0  0  0  0  0  0  0  0
   56.4352   27.6221   45.7799 H   0  0  0  0  0  0  0  0  0  0  0  0
   56.3563   26.8774   47.4143 H   0  0  0  0  0  0  0  0  0  0  0  0
   60.1372   29.0814   48.7215 H   0  0  0  0  0  0  0  0  0  0  0  0
   59.8825   31.5863   48.6943 H   0  0  0  0  0  0  0  0  0  0  0  0
   57.6350   28.7928   45.1560 H   0  0  0  0  0  0  0  0  0  0  0  0
   56.7278   34.7645   45.6210 H   0  0  0  0  0  0  0  0  0  0  0  0
   57.8378   34.4533   44.2435 H   0  0  0  0  0  0  0  0  0  0  0  0
   56.1863   33.7468   44.2435 H   0  0  0  0  0  0  0  0  0  0  0  0
   58.7823   34.8866   46.7531 H   0  0  0  0  0  0  0  0  0  0  0  0
   58.2155   34.1603   48.3037 H   0  0  0  0  0  0  0  0  0  0  0  0
   61.0201   33.5713   45.8152 H   0  0  0  0  0  0  0  0  0  0  0  0
   63.3769   33.1885   46.5388 H   0  0  0  0  0  0  0  0  0  0  0  0
   62.1764   33.5887   50.6769 H   0  0  0  0  0  0  0  0  0  0  0  0
   59.8187   33.9717   49.9590 H   0  0  0  0  0  0  0  0  0  0  0  0
  1  2  1  0
  2  3  1  0
  3  4  1  0
  4  5  1  0
  5  6  1  0
  6  7  2  0
  6  8  1  0
  8  9  2  0
  9 10  1  0
 10 11  2  0
 11 12  1  0
 12 13  2  0
 12 14  1  0
 14 15  2  0
 15 16  1  0
 15 17  1  0
 17 18  1  0
 18 19  1  0
 19 20  2  0
 20 21  1  0
 21 22  2  0
 22 23  1  0
 22 24  1  0
 24 25  2  0
 13  8  1  0
 25 19  1  0
 17 11  1  0
  1 26  1  0
  1 27  1  0
  1 28  1  0
  3 29  1  0
  3 30  1  0
  4 31  1  0
  4 32  1  0
  9 33  1  0
 10 34  1  0
 13 35  1  0
 16 36  1  0
 16 37  1  0
 16 38  1  0
 18 39  1  0
 18 40  1  0
 20 41  1  0
 21 42  1  0
 24 43  1  0
 25 44  1  0
M  CHG  1   5  -1
M  END
>  <UniqueID>  (24) 
23

>  <SMILES>  (24) 
COCC[N-]C(=O)c1ccc2c(c1)nc(C)n2Cc1ccc(Cl)cc1

>  <Energy>  (24) 
78.91678667352681

>  <Genealogy>  (24) 
COCC[N-]C(=O)c1ccc2c(c1)nc(C)n2Cc1ccc(Cl)cc1 (protonated)
COCC[N-]C(=O)c1ccc2c(c1)nc(C)n2Cc1ccc(Cl)cc1 (3D coordinates assigned)
COCC[N-]C(=O)c1ccc2c(c1)nc(C)n2Cc1ccc(Cl)cc1 (optimized conformer: 78.91678667352681 kcal/mol)

>  <smiles>  (24) 
COCCNC(=O)c1ccc2c(c1)nc(C)n2Cc1ccc(Cl)cc1

>  <score_type>  (24) 
oracle

>  <origin>  (24) 
adg

>  <m_score__min__energy>  (24) 
-9.4100000000000001

>  <m_primary>  (24) 
energy

$$$$
24:0
     RDKit          3D

 40 41  0  0  0  0  0  0  0  0999 V2000
   59.2920   28.1840   44.8720 C   0  0  0  0  0  0  0  0  0  0  0  0
   58.3440   28.3690   43.7620 N   0  0  0  0  0  0  0  0  0  0  0  0
   58.1400   27.0860   43.0680 C   0  0  0  0  0  0  0  0  0  0  0  0
   57.0620   28.9150   44.2550 C   0  0  0  0  0  0  0  0  0  0  0  0
   56.7730   30.2860   43.6310 C   0  0  0  0  0  0  0  0  0  0  0  0
   56.4340   31.2410   44.6390 O   0  0  0  0  0  0  0  0  0  0  0  0
   57.3080   32.1700   45.2260 C   0  0  0  0  0  0  0  0  0  0  0  0
   57.3570   33.5250   44.8440 C   0  0  0  0  0  0  0  0  0  0  0  0
   58.2540   34.4000   45.4620 C   0  0  0  0  0  0  0  0  0  0  0  0
   59.1160   33.9410   46.4690 C   0  0  0  0  0  0  0  0  0  0  0  0
   60.0530   34.8930   47.1600 C   0  0  0  0  0  0  0  0  0  0  0  0
   61.3320   34.1900   47.5250 C   0  0  0  0  0  0  0  0  0  0  0  0
   61.6350   33.9240   48.8710 C   0  0  0  0  0  0  0  0  0  0  0  0
   62.8400   33.3010   49.2120 C   0  0  0  0  0  0  0  0  0  0  0  0
   63.7520   32.9480   48.2150 C   0  0  0  0  0  0  0  0  0  0  0  0
   63.4640   33.2200   46.8750 C   0  0  0  0  0  0  0  0  0  0  0  0
   62.2610   33.8430   46.5290 C   0  0  0  0  0  0  0  0  0  0  0  0
   59.0480   32.5980   46.8680 C   0  0  0  0  0  0  0  0  0  0  0  0
   58.1520   31.7230   46.2490 C   0  0  0  0  0  0  0  0  0  0  0  0
   58.7604   28.2877   45.8294 H   0  0  0  0  0  0  0  0  0  0  0  0
   59.7402   27.1815   44.8082 H   0  0  0  0  0  0  0  0  0  0  0  0
   60.0842   28.9445   44.8082 H   0  0  0  0  0  0  0  0  0  0  0  0
   58.0125   26.2840   43.8100 H   0  0  0  0  0  0  0  0  0  0  0  0
   57.2406   27.1489   42.4379 H   0  0  0  0  0  0  0  0  0  0  0  0
   59.0146   26.8669   42.4379 H   0  0  0  0  0  0  0  0  0  0  0  0
   56.2502   28.2212   43.9912 H   0  0  0  0  0  0  0  0  0  0  0  0
   57.1278   29.0333   45.3466 H   0  0  0  0  0  0  0  0  0  0  0  0
   57.6670   30.6326   43.0919 H   0  0  0  0  0  0  0  0  0  0  0  0
   55.9234   30.1866   42.9394 H   0  0  0  0  0  0  0  0  0  0  0  0
   56.6858   33.8960   44.0554 H   0  0  0  0  0  0  0  0  0  0  0  0
   58.2845   35.4564   45.1567 H   0  0  0  0  0  0  0  0  0  0  0  0
   60.2794   35.7329   46.4867 H   0  0  0  0  0  0  0  0  0  0  0  0
   59.5739   35.2657   48.0774 H   0  0  0  0  0  0  0  0  0  0  0  0
   60.9220   34.2067   49.6594 H   0  0  0  0  0  0  0  0  0  0  0  0
   63.0696   33.0889   50.2667 H   0  0  0  0  0  0  0  0  0  0  0  0
   64.6978   32.4554   48.4848 H   0  0  0  0  0  0  0  0  0  0  0  0
   64.1847   32.9436   46.0913 H   0  0  0  0  0  0  0  0  0  0  0  0
   62.0409   34.0623   45.4738 H   0  0  0  0  0  0  0  0  0  0  0  0
   59.7033   32.2320   47.6721 H   0  0  0  0  0  0  0  0  0  0  0  0
   58.1094   30.6715   46.5691 H   0  0  0  0  0  0  0  0  0  0  0  0
  1  2  1  0
  2  3  1  0
  2  4  1  0
  4  5  1  0
  5  6  1  0
  6  7  1  0
  7  8  2  0
  8  9  1  0
  9 10  2  0
 10 11  1  0
 11 12  1  0
 12 13  2  0
 13 14  1  0
 14 15  2  0
 15 16  1  0
 16 17  2  0
 10 18  1  0
 18 19  2  0
 19  7  1  0
 17 12  1  0
  1 20  1  0
  1 21  1  0
  1 22  1  0
  3 23  1  0
  3 24  1  0
  3 25  1  0
  4 26  1  0
  4 27  1  0
  5 28  1  0
  5 29  1  0
  8 30  1  0
  9 31  1  0
 11 32  1  0
 11 33  1  0
 13 34  1  0
 14 35  1  0
 15 36  1  0
 16 37  1  0
 17 38  1  0
 18 39  1  0
 19 40  1  0
M  END
>  <UniqueID>  (25) 
24

>  <SMILES>  (25) 
CN(C)CCOc1ccc(Cc2ccccc2)cc1

>  <Energy>  (25) 
38.40627363595292

>  <Genealogy>  (25) 
CN(C)CCOc1ccc(Cc2ccccc2)cc1 (3D coordinates assigned)
CN(C)CCOc1ccc(Cc2ccccc2)cc1 (optimized conformer: 38.40627363595292 kcal/mol)

>  <smiles>  (25) 
CN(C)CCOc1ccc(Cc2ccccc2)cc1

>  <score_type>  (25) 
oracle

>  <origin>  (25) 
adg

>  <m_score__min__energy>  (25) 
-6.7999999999999998

>  <m_primary>  (25) 
energy

$$$$
25:0
     RDKit          3D

 54 57  0  0  0  0  0  0  0  0999 V2000
   60.8240   34.5360   47.5050 H   0  0  0  0  0  0  0  0  0  0  0  0
   60.6710   34.7630   46.5120 N   0  0  0  0  0  0  0  0  0  0  0  0
   59.6260   35.3400   46.1580 N   0  0  0  0  0  0  0  0  0  0  0  0
   59.0510   35.0960   44.8580 C   0  0  0  0  0  0  0  0  0  0  0  0
   58.1983   35.7740   44.7058 H   0  0  0  0  0  0  0  0  0  0  0  0
   59.8176   35.2744   44.0896 H   0  0  0  0  0  0  0  0  0  0  0  0
   58.5770   33.6720   44.7530 C   0  0  0  0  0  0  0  0  0  0  0  0
   58.4110   33.0720   43.4940 C   0  0  0  0  0  0  0  0  0  0  0  0
   58.6499   33.6376   42.5813 H   0  0  0  0  0  0  0  0  0  0  0  0
   57.9430   31.7580   43.3970 C   0  0  0  0  0  0  0  0  0  0  0  0
   57.8193   31.2923   42.4082 H   0  0  0  0  0  0  0  0  0  0  0  0
   57.6310   31.0320   44.5540 C   0  0  0  0  0  0  0  0  0  0  0  0
   57.0210   29.3850   44.4420 S   0  0  0  0  0  0  0  0  0  0  0  0
   55.6960   29.2960   45.1480 O   0  0  0  0  0  0  0  0  0  0  0  0
   56.8340   29.0150   42.9960 O   0  0  0  0  0  0  0  0  0  0  0  0
   58.1600   28.3090   45.1860 N   0  0  0  0  0  0  0  0  0  0  0  0
   59.1410   28.6550   45.2430 H   0  0  0  0  0  0  0  0  0  0  0  0
   57.7680   27.0980   45.8570 C   0  0  0  0  0  0  0  0  0  0  0  0
   58.6320   26.4500   46.7760 C   0  0  0  0  0  0  0  0  0  0  0  0
   60.0020   26.9260   47.0510 C   0  0  0  0  0  0  0  0  0  0  0  0
   60.7540   26.2590   47.8090 O   0  0  0  0  0  0  0  0  0  0  0  0
   60.4510   28.2040   46.5800 N   0  0  0  0  0  0  0  0  0  0  0  0
   60.2530   29.4610   47.2430 C   0  0  0  0  0  0  0  0  0  0  0  0
   59.3310   29.6020   48.2960 C   0  0  0  0  0  0  0  0  0  0  0  0
   58.7465   28.7331   48.6326 H   0  0  0  0  0  0  0  0  0  0  0  0
   59.1550   30.8420   48.9160 C   0  0  0  0  0  0  0  0  0  0  0  0
   58.4473   30.9410   49.7523 H   0  0  0  0  0  0  0  0  0  0  0  0
   59.8770   31.9600   48.4760 C   0  0  0  0  0  0  0  0  0  0  0  0
   59.6730   33.5120   49.2800 S   0  0  0  0  0  0  0  0  0  0  0  0
   58.9110   34.4500   48.3880 O   0  0  0  0  0  0  0  0  0  0  0  0
   58.9090   33.3150   50.5590 O   0  0  0  0  0  0  0  0  0  0  0  0
   61.2390   34.1690   49.6230 N   0  0  0  0  0  0  0  0  0  0  0  0
   62.3420   33.6290   49.2080 C   0  0  0  0  0  0  0  0  0  0  0  0
   62.8980   33.8760   48.0000 N   0  0  0  0  0  0  0  0  0  0  0  0
   64.0490   33.1700   47.8310 C   0  0  0  0  0  0  0  0  0  0  0  0
   64.6515   33.2340   46.9129 H   0  0  0  0  0  0  0  0  0  0  0  0
   64.4080   32.3610   48.9050 C   0  0  0  0  0  0  0  0  0  0  0  0
   65.2988   31.7179   48.9587 H   0  0  0  0  0  0  0  0  0  0  0  0
   63.2420   32.5370   50.1090 S   0  0  0  0  0  0  0  0  0  0  0  0
   60.7770   31.8260   47.4090 C   0  0  0  0  0  0  0  0  0  0  0  0
   61.3457   32.6999   47.0585 H   0  0  0  0  0  0  0  0  0  0  0  0
   60.9540   30.5850   46.7890 C   0  0  0  0  0  0  0  0  0  0  0  0
   61.6475   30.4913   45.9403 H   0  0  0  0  0  0  0  0  0  0  0  0
   58.1870   25.3650   47.4680 N   0  0  0  0  0  0  0  0  0  0  0  0
   56.9450   24.8480   47.2910 C   0  0  0  0  0  0  0  0  0  0  0  0
   56.6264   23.9703   47.8725 H   0  0  0  0  0  0  0  0  0  0  0  0
   56.0740   25.4290   46.3730 C   0  0  0  0  0  0  0  0  0  0  0  0
   55.0703   25.0075   46.2151 H   0  0  0  0  0  0  0  0  0  0  0  0
   56.4880   26.5510   45.6560 C   0  0  0  0  0  0  0  0  0  0  0  0
   55.8068   27.0128   44.9261 H   0  0  0  0  0  0  0  0  0  0  0  0
   57.7760   31.6370   45.8100 C   0  0  0  0  0  0  0  0  0  0  0  0
   57.5221   31.0756   46.7212 H   0  0  0  0  0  0  0  0  0  0  0  0
   58.2420   32.9510   45.9090 C   0  0  0  0  0  0  0  0  0  0  0  0
   58.3466   33.4219   46.8976 H   0  0  0  0  0  0  0  0  0  0  0  0
  1  2  1  0
  2  3  2  0
  3  4  1  0
  4  5  1  0
  4  6  1  0
  4  7  1  0
  7  8  2  0
  8  9  1  0
  8 10  1  0
 10 11  1  0
 10 12  2  0
 12 13  1  0
 13 14  2  0
 13 15  2  0
 13 16  1  0
 16 17  1  0
 16 18  1  0
 18 19  1  0
 19 20  1  0
 20 21  2  0
 20 22  1  0
 22 23  1  0
 23 24  2  0
 24 25  1  0
 24 26  1  0
 26 27  1  0
 26 28  2  0
 28 29  1  0
 29 30  2  0
 29 31  2  0
 29 32  1  0
 32 33  2  0
 33 34  1  0
 34 35  1  0
 35 36  1  0
 35 37  2  0
 37 38  1  0
 37 39  1  0
 28 40  1  0
 40 41  1  0
 40 42  2  0
 42 43  1  0
 19 44  2  0
 44 45  1  0
 45 46  1  0
 45 47  2  0
 47 48  1  0
 47 49  1  0
 49 50  1  0
 12 51  1  0
 51 52  1  0
 51 53  2  0
 53 54  1  0
 53  7  1  0
 49 18  2  0
 42 23  1  0
 39 33  1  0
M  CHG  2  22  -1  34  -1
M  END
>  <UniqueID>  (26) 
25

>  <SMILES>  (26) 
[H]/N=N/Cc1ccc(S(=O)(=O)Nc2cccnc2C(=O)[N-]c2ccc(S(=O)(=O)/N=c3\[n-]ccs3)cc2)cc1

>  <Energy>  (26) 
104.87690112964219

>  <Genealogy>  (26) 
N=NCc1ccc(S(=O)(=O)Nc2cccnc2C(=O)[N-]c2ccc(S(=O)(=O)N=c3[n-]ccs3)cc2)cc1 (protonated)
[H]/N=N/Cc1ccc(S(=O)(=O)Nc2cccnc2C(=O)[N-]c2ccc(S(=O)(=O)/N=c3\[n-]ccs3)cc2)cc1 (cis-trans isomerization)
[H]/N=N/Cc1ccc(S(=O)(=O)Nc2cccnc2C(=O)[N-]c2ccc(S(=O)(=O)/N=c3\[n-]ccs3)cc2)cc1 (3D coordinates assigned)
[H]/N=N/Cc1ccc(S(=O)(=O)Nc2cccnc2C(=O)[N-]c2ccc(S(=O)(=O)/N=c3\[n-]ccs3)cc2)cc1 (optimized conformer: 104.87690112964219 kcal/mol)

>  <smiles>  (26) 
N=NCc1ccc(S(=O)(=O)Nc2cccnc2C(=O)Nc2ccc(S(=O)(=O)N=c3[nH]ccs3)cc2)cc1

>  <score_type>  (26) 
oracle

>  <origin>  (26) 
adg

>  <m_score__min__energy>  (26) 
-12.220000000000001

>  <m_primary>  (26) 
energy

$$$$
26:0
     RDKit          3D

 52 54  0  0  0  0  0  0  0  0999 V2000
   59.2250   34.0260   44.1300 C   0  0  0  0  0  0  0  0  0  0  0  0
   58.9750   34.5570   45.5190 C   0  0  0  0  0  0  0  0  0  0  0  0
   59.8820   35.6390   46.0440 C   0  0  0  0  0  0  0  0  0  0  0  0
   57.9660   34.0900   46.2840 C   0  0  0  0  0  0  0  0  0  0  0  0
   58.1490   33.0050   47.3140 C   0  0  0  0  0  0  0  0  0  0  0  0
   59.0580   31.9700   46.8110 N   0  0  0  0  0  0  0  0  0  0  0  0
   60.3340   31.7070   47.2080 C   0  0  0  0  0  0  0  0  0  0  0  0
   61.0590   32.4880   48.1710 N   0  0  0  0  0  0  0  0  0  0  0  0
   61.0570   32.0580   49.5750 C   0  0  0  0  0  0  0  0  0  0  0  0
   61.8520   33.0290   50.4540 C   0  0  0  0  0  0  0  0  0  0  0  0
   63.2700   33.2480   49.9010 C   0  0  0  0  0  0  0  0  0  0  0  0
   63.3200   33.4640   48.3580 C   0  0  1  0  0  0  0  0  0  0  0  0
   64.0610   32.3750   47.7060 N   0  0  0  0  0  0  0  0  0  0  0  0
   61.9140   33.6010   47.7390 C   0  0  0  0  0  0  0  0  0  0  0  0
   60.8770   30.6150   46.6090 N   0  0  0  0  0  0  0  0  0  0  0  0
   59.8890   30.2070   45.7890 C   0  0  0  0  0  0  0  0  0  0  0  0
   58.8040   31.0110   45.9000 C   0  0  0  0  0  0  0  0  0  0  0  0
   57.6640   30.7550   45.1460 C   0  0  0  0  0  0  0  0  0  0  0  0
   56.6470   31.4950   45.2470 O   0  0  0  0  0  0  0  0  0  0  0  0
   57.6750   29.6770   44.2900 N   0  0  0  0  0  0  0  0  0  0  0  0
   56.4710   29.3520   43.5060 C   0  0  0  0  0  0  0  0  0  0  0  0
   58.7850   28.8510   44.2220 C   0  0  0  0  0  0  0  0  0  0  0  0
   58.7600   27.8250   43.4850 O   0  0  0  0  0  0  0  0  0  0  0  0
   59.9180   29.1330   44.9540 N   0  0  0  0  0  0  0  0  0  0  0  0
   61.0950   28.2550   44.9030 C   0  0  0  0  0  0  0  0  0  0  0  0
   59.6927   33.0326   44.1959 H   0  0  0  0  0  0  0  0  0  0  0  0
   58.2697   33.9465   43.5904 H   0  0  0  0  0  0  0  0  0  0  0  0
   59.8949   34.7116   43.5904 H   0  0  0  0  0  0  0  0  0  0  0  0
   59.8706   35.6254   47.1439 H   0  0  0  0  0  0  0  0  0  0  0  0
   60.9072   35.4639   45.6858 H   0  0  0  0  0  0  0  0  0  0  0  0
   59.5306   36.6179   45.6858 H   0  0  0  0  0  0  0  0  0  0  0  0
   56.9631   34.5214   46.1495 H   0  0  0  0  0  0  0  0  0  0  0  0
   58.5705   33.4430   48.2308 H   0  0  0  0  0  0  0  0  0  0  0  0
   57.1716   32.5479   47.5279 H   0  0  0  0  0  0  0  0  0  0  0  0
   60.0187   32.0158   49.9357 H   0  0  0  0  0  0  0  0  0  0  0  0
   61.5299   31.0667   49.6359 H   0  0  0  0  0  0  0  0  0  0  0  0
   61.3268   33.9950   50.4869 H   0  0  0  0  0  0  0  0  0  0  0  0
   61.9348   32.5972   51.4623 H   0  0  0  0  0  0  0  0  0  0  0  0
   63.6988   34.1357   50.3890 H   0  0  0  0  0  0  0  0  0  0  0  0
   63.8406   32.3320   50.1138 H   0  0  0  0  0  0  0  0  0  0  0  0
   63.8477   34.4134   48.1841 H   0  0  0  0  0  0  0  0  0  0  0  0
   63.4030   31.6030   47.4520 H   0  0  0  0  0  0  0  0  0  0  0  0
   64.5370   32.7200   46.8410 H   0  0  0  0  0  0  0  0  0  0  0  0
   64.7780   31.9850   48.3600 H   0  0  0  0  0  0  0  0  0  0  0  0
   61.4651   34.5513   48.0637 H   0  0  0  0  0  0  0  0  0  0  0  0
   62.0011   33.5820   46.6426 H   0  0  0  0  0  0  0  0  0  0  0  0
   55.6384   29.1273   44.1889 H   0  0  0  0  0  0  0  0  0  0  0  0
   56.2037   30.2101   42.8718 H   0  0  0  0  0  0  0  0  0  0  0  0
   56.6718   28.4759   42.8718 H   0  0  0  0  0  0  0  0  0  0  0  0
   61.4176   28.0144   45.9267 H   0  0  0  0  0  0  0  0  0  0  0  0
   60.8373   27.3267   44.3720 H   0  0  0  0  0  0  0  0  0  0  0  0
   61.9113   28.7666   44.3720 H   0  0  0  0  0  0  0  0  0  0  0  0
  1  2  1  0
  2  3  1  0
  2  4  2  3
  4  5  1  0
  5  6  1  0
  6  7  1  0
  7  8  1  0
  8  9  1  0
  9 10  1  0
 10 11  1  0
 11 12  1  0
 12 13  1  0
 12 14  1  0
  7 15  2  0
 15 16  1  0
 16 17  2  0
 17 18  1  0
 18 19  2  0
 18 20  1  0
 20 21  1  0
 20 22  1  0
 22 23  2  0
 22 24  1  0
 24 25  1  0
 17  6  1  0
 14  8  1  0
 24 16  1  0
  1 26  1  0
  1 27  1  0
  1 28  1  0
  3 29  1  0
  3 30  1  0
  3 31  1  0
  4 32  1  0
  5 33  1  0
  5 34  1  0
  9 35  1  0
  9 36  1  0
 10 37  1  0
 10 38  1  0
 11 39  1  0
 11 40  1  0
 12 41  1  1
 13 42  1  0
 13 43  1  0
 13 44  1  0
 14 45  1  0
 14 46  1  0
 21 47  1  0
 21 48  1  0
 21 49  1  0
 25 50  1  0
 25 51  1  0
 25 52  1  0
M  CHG  1  13   1
M  END
>  <UniqueID>  (27) 
26

>  <SMILES>  (27) 
CC(C)=CCn1c(N2CCC[C@@H]([NH3+])C2)nc2c1c(=O)n(C)c(=O)n2C

>  <Energy>  (27) 
98.11750906052703

>  <Genealogy>  (27) 
CC(C)=CCn1c(N2CCCC([NH3+])C2)nc2c1c(=O)n(C)c(=O)n2C (protonated)
CC(C)=CCn1c(N2CCC[C@@H]([NH3+])C2)nc2c1c(=O)n(C)c(=O)n2C (chirality)
CC(C)=CCn1c(N2CCC[C@@H]([NH3+])C2)nc2c1c(=O)n(C)c(=O)n2C (3D coordinates assigned)
CC(C)=CCn1c(N2CCC[C@@H]([NH3+])C2)nc2c1c(=O)n(C)c(=O)n2C (nonaromatic ring conformer: 98.11750906052703 kcal/mol)

>  <smiles>  (27) 
CC(C)=CCn1c(N2CCCC(N)C2)nc2c1c(=O)n(C)c(=O)n2C

>  <score_type>  (27) 
oracle

>  <origin>  (27) 
adg

>  <m_score__min__energy>  (27) 
-5.8200000000000003

>  <m_primary>  (27) 
energy

$$$$
27:0
     RDKit          3D

 54 58  0  0  0  0  0  0  0  0999 V2000
   58.1491   32.2983   47.1064 H   0  0  0  0  0  0  0  0  0  0  0  0
   58.0010   32.1620   46.0250 C   0  0  0  0  0  0  0  0  0  0  0  0
   57.3870   31.0400   45.5590 N   0  0  0  0  0  0  0  0  0  0  0  0
   57.1930   30.8290   44.2280 C   0  0  0  0  0  0  0  0  0  0  0  0
   56.4830   29.5940   43.7700 C   0  0  0  0  0  0  0  0  0  0  0  0
   57.2121   28.8862   43.3488 H   0  0  0  0  0  0  0  0  0  0  0  0
   55.7439   29.8591   42.9997 H   0  0  0  0  0  0  0  0  0  0  0  0
   59.1470   27.1480   47.4600 N   0  0  0  0  0  0  0  0  0  0  0  0
   57.9820   27.0250   46.8930 C   0  0  0  0  0  0  0  0  0  0  0  0
   57.2840   25.8580   46.9540 N   0  0  0  0  0  0  0  0  0  0  0  0
   56.0790   25.7420   46.3420 C   0  0  0  0  0  0  0  0  0  0  0  0
   55.4420   24.6090   46.4040 N   0  0  0  0  0  0  0  0  0  0  0  0
   55.7640   23.3990   45.6990 C   0  0  0  0  0  0  0  0  0  0  0  0
   55.4870   22.1690   46.3130 C   0  0  0  0  0  0  0  0  0  0  0  0
   55.0516   22.1481   47.3229 H   0  0  0  0  0  0  0  0  0  0  0  0
   55.7610   20.9680   45.6490 C   0  0  0  0  0  0  0  0  0  0  0  0
   55.5558   20.0073   46.1439 H   0  0  0  0  0  0  0  0  0  0  0  0
   56.2950   20.9880   44.3580 C   0  0  0  0  0  0  0  0  0  0  0  0
   56.5186   20.0434   43.8407 H   0  0  0  0  0  0  0  0  0  0  0  0
   56.5450   22.2080   43.7240 C   0  0  0  0  0  0  0  0  0  0  0  0
   56.9565   22.2226   42.7040 H   0  0  0  0  0  0  0  0  0  0  0  0
   56.2730   23.4100   44.3840 C   0  0  0  0  0  0  0  0  0  0  0  0
   56.4567   24.3680   43.8756 H   0  0  0  0  0  0  0  0  0  0  0  0
   55.5820   26.7950   45.6420 N   0  0  0  0  0  0  0  0  0  0  0  0
   56.2750   27.9620   45.5680 C   0  0  0  0  0  0  0  0  0  0  0  0
   55.8040   28.9760   44.9060 N   0  0  0  0  0  0  0  0  0  0  0  0
   59.9050   28.3590   47.6220 C   0  0  0  0  0  0  0  0  0  0  0  0
   60.3100   29.1380   46.5240 C   0  0  0  0  0  0  0  0  0  0  0  0
   60.0232   28.8384   45.5052 H   0  0  0  0  0  0  0  0  0  0  0  0
   61.0750   30.2910   46.7200 C   0  0  0  0  0  0  0  0  0  0  0  0
   61.3716   30.9025   45.8551 H   0  0  0  0  0  0  0  0  0  0  0  0
   61.4690   30.6760   48.0150 C   0  0  0  0  0  0  0  0  0  0  0  0
   62.2820   31.9010   48.2250 C   0  0  0  0  0  0  0  0  0  0  0  0
   63.0140   32.5190   47.2080 C   0  0  0  0  0  0  0  0  0  0  0  0
   63.0851   32.1770   46.1649 H   0  0  0  0  0  0  0  0  0  0  0  0
   63.7680   33.8770   47.8550 S   0  0  0  0  0  0  0  0  0  0  0  0
   63.1630   33.6190   49.4010 C   0  0  0  0  0  0  0  0  0  0  0  0
   63.3840   34.5250   50.5650 C   0  0  0  0  0  0  0  0  0  0  0  0
   63.2465   33.9614   51.4996 H   0  0  0  0  0  0  0  0  0  0  0  0
   64.4068   34.9280   50.5269 H   0  0  0  0  0  0  0  0  0  0  0  0
   62.6617   35.3537   50.5269 H   0  0  0  0  0  0  0  0  0  0  0  0
   62.3700   32.5270   49.4350 N   0  0  0  0  0  0  0  0  0  0  0  0
   61.8960   32.1970   50.3050 H   0  0  0  0  0  0  0  0  0  0  0  0
   61.0880   29.8760   49.1060 C   0  0  0  0  0  0  0  0  0  0  0  0
   61.3952   30.1580   50.1239 H   0  0  0  0  0  0  0  0  0  0  0  0
   60.3210   28.7240   48.9060 C   0  0  0  0  0  0  0  0  0  0  0  0
   60.0422   28.0989   49.7671 H   0  0  0  0  0  0  0  0  0  0  0  0
   57.4740   28.0700   46.1920 N   0  0  0  0  0  0  0  0  0  0  0  0
   57.6130   31.7970   43.3030 C   0  0  0  0  0  0  0  0  0  0  0  0
   57.4460   31.6459   42.2263 H   0  0  0  0  0  0  0  0  0  0  0  0
   58.2450   32.9540   43.7630 C   0  0  0  0  0  0  0  0  0  0  0  0
   58.5861   33.7172   43.0480 H   0  0  0  0  0  0  0  0  0  0  0  0
   58.4430   33.1400   45.1320 C   0  0  0  0  0  0  0  0  0  0  0  0
   58.9419   34.0473   45.5034 H   0  0  0  0  0  0  0  0  0  0  0  0
  1  2  1  0
  2  3  2  0
  3  4  1  0
  4  5  1  0
  5  6  1  0
  5  7  1  0
  5  8  1  0
  8  9  2  0
  9 10  1  0
 10 11  1  0
 11 12  2  3
 12 13  1  0
 13 14  2  0
 14 15  1  0
 14 16  1  0
 16 17  1  0
 16 18  2  0
 18 19  1  0
 18 20  1  0
 20 21  1  0
 20 22  2  0
 22 23  1  0
 11 24  1  0
 24 25  1  0
 25 26  2  0
 26 27  1  0
 27 28  2  0
 28 29  1  0
 28 30  1  0
 30 31  1  0
 30 32  2  0
 32 33  1  0
 33 34  2  0
 34 35  1  0
 34 36  1  0
 36 37  1  0
 37 38  1  0
 38 39  1  0
 38 40  1  0
 38 41  1  0
 37 42  2  0
 42 43  1  0
 32 44  1  0
 44 45  1  0
 44 46  2  0
 46 47  1  0
 25 48  1  0
  4 49  2  0
 49 50  1  0
 49 51  1  0
 51 52  1  0
 51 53  2  0
 53 54  1  0
 53  2  1  0
 48  9  1  0
 22 13  1  0
 46 27  1  0
 42 33  1  0
M  CHG  4  10  -1  24  -1  42   1  48  -1
M  END
>  <UniqueID>  (28) 
27

>  <SMILES>  (28) 
Cc1[nH+]c(-c2ccc(/N=c3\[n-]c(=Nc4ccccc4)[n-]/c(=N\Cc4ccccn4)[n-]3)cc2)cs1

>  <Energy>  (28) 
103.36591418387555

>  <Genealogy>  (28) 
Cc1[nH+]c(-c2ccc(N=c3[n-]c(=NCc4ccccn4)[n-]c(=Nc4ccccc4)[n-]3)cc2)cs1 (protonated)
Cc1[nH+]c(-c2ccc(/N=c3\[n-]c(=Nc4ccccc4)[n-]/c(=N\Cc4ccccn4)[n-]3)cc2)cs1 (cis-trans isomerization)
Cc1[nH+]c(-c2ccc(/N=c3\[n-]c(=Nc4ccccc4)[n-]/c(=N\Cc4ccccn4)[n-]3)cc2)cs1 (3D coordinates assigned)
Cc1[nH+]c(-c2ccc(/N=c3\[n-]c(=Nc4ccccc4)[n-]/c(=N\Cc4ccccn4)[n-]3)cc2)cs1 (optimized conformer: 103.36591418387555 kcal/mol)

>  <smiles>  (28) 
Cc1nc(-c2ccc(N=c3[nH]c(=NCc4ccccn4)[nH]c(=Nc4ccccc4)[nH]3)cc2)cs1

>  <score_type>  (28) 
oracle

>  <origin>  (28) 
adg

>  <m_score__min__energy>  (28) 
-14.26

>  <m_primary>  (28) 
energy

$$$$
28:0
     RDKit          3D

 39 40  0  0  0  0  0  0  0  0999 V2000
   57.8090   30.3880   50.5020 O   0  0  0  0  0  0  0  0  0  0  0  0
   58.9020   30.9560   50.2430 C   0  0  0  0  0  0  0  0  0  0  0  0
   60.1300   30.1090   50.0530 C   0  0  0  0  0  0  0  0  0  0  0  0
   60.5320   29.9480   48.2790 S   0  0  0  0  0  0  0  0  0  0  0  0
   61.7730   31.2470   48.2810 C   0  0  0  0  0  0  0  0  0  0  0  0
   62.5580   31.4710   49.4190 C   0  0  0  0  0  0  0  0  0  0  0  0
   63.5190   32.4860   49.4190 C   0  0  0  0  0  0  0  0  0  0  0  0
   63.7110   33.2690   48.2760 C   0  0  0  0  0  0  0  0  0  0  0  0
   62.9380   33.0380   47.1340 C   0  0  0  0  0  0  0  0  0  0  0  0
   61.9690   32.0300   47.1360 C   0  0  0  0  0  0  0  0  0  0  0  0
   58.9040   32.3730   50.0150 N   0  0  0  0  0  0  0  0  0  0  0  0
   58.9240   33.0320   48.7430 C   0  0  0  0  0  0  0  0  0  0  0  0
   59.7600   34.1400   48.5680 C   0  0  0  0  0  0  0  0  0  0  0  0
   59.8040   34.8040   47.3400 C   0  0  0  0  0  0  0  0  0  0  0  0
   59.0350   34.3460   46.2680 C   0  0  0  0  0  0  0  0  0  0  0  0
   58.2240   33.2060   46.4100 C   0  0  0  0  0  0  0  0  0  0  0  0
   57.4230   32.7020   45.2730 C   0  0  0  0  0  0  0  0  0  0  0  0
   57.1210   33.4740   44.3200 O   0  0  0  0  0  0  0  0  0  0  0  0
   56.9960   31.3680   45.2600 O   0  0  0  0  0  0  0  0  0  0  0  0
   57.5580   30.3690   44.4090 C   0  0  0  0  0  0  0  0  0  0  0  0
   56.6780   29.1190   44.3800 C   0  0  0  0  0  0  0  0  0  0  0  0
   55.5200   29.3140   45.1460 O   0  0  0  0  0  0  0  0  0  0  0  0
   58.1870   32.5450   47.6510 C   0  0  0  0  0  0  0  0  0  0  0  0
   60.9772   30.5785   50.5744 H   0  0  0  0  0  0  0  0  0  0  0  0
   59.9371   29.1075   50.4651 H   0  0  0  0  0  0  0  0  0  0  0  0
   62.4181   30.8472   50.3142 H   0  0  0  0  0  0  0  0  0  0  0  0
   64.1248   32.6692   50.3187 H   0  0  0  0  0  0  0  0  0  0  0  0
   64.4694   34.0658   48.2755 H   0  0  0  0  0  0  0  0  0  0  0  0
   63.0924   33.6499   46.2330 H   0  0  0  0  0  0  0  0  0  0  0  0
   61.3599   31.8516   46.2376 H   0  0  0  0  0  0  0  0  0  0  0  0
   60.3860   34.4901   49.4020 H   0  0  0  0  0  0  0  0  0  0  0  0
   60.4454   35.6891   47.2170 H   0  0  0  0  0  0  0  0  0  0  0  0
   59.0638   34.8802   45.3068 H   0  0  0  0  0  0  0  0  0  0  0  0
   57.6449   30.7720   43.3892 H   0  0  0  0  0  0  0  0  0  0  0  0
   58.5488   30.0923   44.7985 H   0  0  0  0  0  0  0  0  0  0  0  0
   56.3917   28.9023   43.3403 H   0  0  0  0  0  0  0  0  0  0  0  0
   57.2448   28.2759   44.8017 H   0  0  0  0  0  0  0  0  0  0  0  0
   55.8140   29.7040   46.0120 H   0  0  0  0  0  0  0  0  0  0  0  0
   57.5752   31.6383   47.7674 H   0  0  0  0  0  0  0  0  0  0  0  0
  1  2  2  0
  2  3  1  0
  3  4  1  0
  4  5  1  0
  5  6  2  0
  6  7  1  0
  7  8  2  0
  8  9  1  0
  9 10  2  0
  2 11  1  0
 11 12  1  0
 12 13  2  0
 13 14  1  0
 14 15  2  0
 15 16  1  0
 16 17  1  0
 17 18  2  0
 17 19  1  0
 19 20  1  0
 20 21  1  0
 21 22  1  0
 16 23  2  0
 10  5  1  0
 23 12  1  0
  3 24  1  0
  3 25  1  0
  6 26  1  0
  7 27  1  0
  8 28  1  0
  9 29  1  0
 10 30  1  0
 13 31  1  0
 14 32  1  0
 15 33  1  0
 20 34  1  0
 20 35  1  0
 21 36  1  0
 21 37  1  0
 22 38  1  0
 23 39  1  0
M  CHG  1  11  -1
M  END
>  <UniqueID>  (29) 
28

>  <SMILES>  (29) 
O=C(CSc1ccccc1)[N-]c1cccc(C(=O)OCCO)c1

>  <Energy>  (29) 
34.04708082980175

>  <Genealogy>  (29) 
O=C(CSc1ccccc1)[N-]c1cccc(C(=O)OCCO)c1 (protonated)
O=C(CSc1ccccc1)[N-]c1cccc(C(=O)OCCO)c1 (3D coordinates assigned)
O=C(CSc1ccccc1)[N-]c1cccc(C(=O)OCCO)c1 (optimized conformer: 34.04708082980175 kcal/mol)

>  <smiles>  (29) 
O=C(CSc1ccccc1)Nc1cccc(C(=O)OCCO)c1

>  <score_type>  (29) 
oracle

>  <origin>  (29) 
adg

>  <m_score__min__energy>  (29) 
-9.2100000000000009

>  <m_primary>  (29) 
energy

$$$$
29:0
     RDKit          3D

 42 44  0  0  1  0  0  0  0  0999 V2000
   57.7720   32.3130   41.3020 C   0  0  0  0  0  0  0  0  0  0  0  0
   57.6760   31.8410   42.6960 C   0  0  0  0  0  0  0  0  0  0  0  0
   57.8420   32.6630   43.7760 C   0  0  0  0  0  0  0  0  0  0  0  0
   57.7560   32.2370   45.0810 C   0  0  0  0  0  0  0  0  0  0  0  0
   57.9220   33.0570   46.0380 N   0  0  0  0  0  0  0  0  0  0  0  0
   59.1210   34.2590   46.1370 S   0  0  0  0  0  0  0  0  0  0  0  0
   59.3770   34.9970   44.8550 O   0  0  0  0  0  0  0  0  0  0  0  0
   58.5410   35.3340   47.0640 O   0  0  0  0  0  0  0  0  0  0  0  0
   60.5960   33.7290   46.9160 C   0  0  0  0  0  0  0  0  0  0  0  0
   60.6190   32.9580   48.0540 C   0  0  0  0  0  0  0  0  0  0  0  0
   61.8010   32.5480   48.6620 C   0  0  0  0  0  0  0  0  0  0  0  0
   63.0190   32.9120   48.1270 C   0  0  0  0  0  0  0  0  0  0  0  0
   64.2370   32.5080   48.7260 N   0  0  0  0  0  0  0  0  0  0  0  0
   64.6340   33.1220   49.9380 C   0  0  0  0  0  0  0  0  0  0  0  0
   63.9620   34.0000   50.4990 O   0  0  0  0  0  0  0  0  0  0  0  0
   65.9180   32.6770   50.5400 C   0  0  0  0  0  0  0  0  0  0  0  0
   66.2560   31.4420   50.9200 C   0  0  0  0  0  0  0  0  0  0  0  0
   67.4670   31.2090   51.4510 C   0  0  0  0  0  0  0  0  0  0  0  0
   68.2990   32.3260   51.5610 C   0  0  0  0  0  0  0  0  0  0  0  0
   67.3060   33.7200   50.8880 S   0  0  0  0  0  0  0  0  0  0  0  0
   63.0230   33.6860   46.9850 C   0  0  0  0  0  0  0  0  0  0  0  0
   61.8420   34.0850   46.3930 C   0  0  0  0  0  0  0  0  0  0  0  0
   57.4920   30.9360   45.2840 N   0  0  0  0  0  0  0  0  0  0  0  0
   57.3170   30.0760   44.2370 C   0  0  0  0  0  0  0  0  0  0  0  0
   57.0290   28.6530   44.5610 C   0  0  0  0  0  0  0  0  0  0  0  0
   57.4100   30.5320   42.9700 N   0  0  0  0  0  0  0  0  0  0  0  0
   57.9912   33.3909   41.2941 H   0  0  0  0  0  0  0  0  0  0  0  0
   58.5783   31.7711   40.7861 H   0  0  0  0  0  0  0  0  0  0  0  0
   56.8181   32.1291   40.7861 H   0  0  0  0  0  0  0  0  0  0  0  0
   58.0566   33.7258   43.5906 H   0  0  0  0  0  0  0  0  0  0  0  0
   59.6623   32.6524   48.5027 H   0  0  0  0  0  0  0  0  0  0  0  0
   61.7642   31.9316   49.5723 H   0  0  0  0  0  0  0  0  0  0  0  0
   64.8090   31.7660   48.2540 H   0  0  0  0  0  0  0  0  0  0  0  0
   65.5414   30.6147   50.7978 H   0  0  0  0  0  0  0  0  0  0  0  0
   67.7826   30.2070   51.7772 H   0  0  0  0  0  0  0  0  0  0  0  0
   69.3227   32.3634   51.9619 H   0  0  0  0  0  0  0  0  0  0  0  0
   63.9819   33.9896   46.5397 H   0  0  0  0  0  0  0  0  0  0  0  0
   61.8826   34.7013   45.4828 H   0  0  0  0  0  0  0  0  0  0  0  0
   57.0028   28.5236   45.6531 H   0  0  0  0  0  0  0  0  0  0  0  0
   56.0553   28.3697   44.1348 H   0  0  0  0  0  0  0  0  0  0  0  0
   57.8159   28.0134   44.1348 H   0  0  0  0  0  0  0  0  0  0  0  0
   57.2670   29.8250   42.2150 H   0  0  0  0  0  0  0  0  0  0  0  0
  1  2  1  0
  2  3  2  0
  3  4  1  0
  4  5  2  0
  5  6  1  0
  6  7  2  0
  6  8  2  0
  6  9  1  0
  9 10  2  0
 10 11  1  0
 11 12  2  0
 12 13  1  0
 13 14  1  0
 14 15  2  0
 14 16  1  0
 16 17  2  0
 17 18  1  0
 18 19  2  0
 19 20  1  0
 12 21  1  0
 21 22  2  0
  4 23  1  0
 23 24  2  0
 24 25  1  0
 24 26  1  0
 26  2  1  0
 22  9  1  0
 20 16  1  0
  1 27  1  0
  1 28  1  0
  1 29  1  0
  3 30  1  0
 10 31  1  0
 11 32  1  0
 13 33  1  0
 17 34  1  0
 18 35  1  0
 19 36  1  0
 21 37  1  0
 22 38  1  0
 25 39  1  0
 25 40  1  0
 25 41  1  0
 26 42  1  0
M  END
>  <smiles>  (30) 
Cc1cc(=NS(=O)(=O)c2ccc(NC(=O)c3cccs3)cc2)nc(C)[nH]1

>  <score_type>  (30) 
oracle

>  <origin>  (30) 
adg

>  <m_score__min__energy>  (30) 
-8.9700000000000006

>  <m_primary>  (30) 
energy

$$$$
30:0
     RDKit          3D

 31 33  0  0  0  0  0  0  0  0999 V2000
   59.6300   26.8510   45.6620 C   0  0  0  0  0  0  0  0  0  0  0  0
   59.0390   27.4580   44.5190 O   0  0  0  0  0  0  0  0  0  0  0  0
   58.2580   28.6250   44.5390 C   0  0  0  0  0  0  0  0  0  0  0  0
   57.1070   28.6670   43.8010 N   0  0  0  0  0  0  0  0  0  0  0  0
   56.3060   29.7810   43.7760 C   0  0  0  0  0  0  0  0  0  0  0  0
   56.6390   30.8910   44.4980 N   0  0  0  0  0  0  0  0  0  0  0  0
   57.7730   30.8540   45.2370 C   0  0  0  0  0  0  0  0  0  0  0  0
   58.5840   29.7700   45.2750 C   0  0  0  0  0  0  0  0  0  0  0  0
   59.6510   30.0200   46.0590 N   0  0  0  0  0  0  0  0  0  0  0  0
   59.4320   31.2940   46.4810 C   0  0  0  0  0  0  0  0  0  0  0  0
   58.2780   31.8310   46.0010 N   0  0  0  0  0  0  0  0  0  0  0  0
   57.7590   33.1980   46.1630 C   0  0  0  0  0  0  0  0  0  0  0  0
   57.8490   33.9680   44.8520 C   0  0  0  0  0  0  0  0  0  0  0  0
   59.1760   34.7080   44.8930 C   0  0  0  0  0  0  0  0  0  0  0  0
   59.5140   34.9060   46.3670 C   0  0  0  0  0  0  0  0  0  0  0  0
   58.5840   34.0000   47.1720 C   0  0  0  0  0  0  0  0  0  0  0  0
   59.2011   27.2915   46.5741 H   0  0  0  0  0  0  0  0  0  0  0  0
   59.4294   25.7695   45.6478 H   0  0  0  0  0  0  0  0  0  0  0  0
   60.7164   27.0226   45.6478 H   0  0  0  0  0  0  0  0  0  0  0  0
   56.8280   27.8320   43.2380 H   0  0  0  0  0  0  0  0  0  0  0  0
   55.3883   29.7797   43.1695 H   0  0  0  0  0  0  0  0  0  0  0  0
   60.1204   31.8370   47.1453 H   0  0  0  0  0  0  0  0  0  0  0  0
   56.7189   33.0882   46.5037 H   0  0  0  0  0  0  0  0  0  0  0  0
   57.8240   33.2744   43.9986 H   0  0  0  0  0  0  0  0  0  0  0  0
   57.0036   34.6616   44.7325 H   0  0  0  0  0  0  0  0  0  0  0  0
   59.9587   34.1128   44.3999 H   0  0  0  0  0  0  0  0  0  0  0  0
   59.1115   35.6714   44.3660 H   0  0  0  0  0  0  0  0  0  0  0  0
   60.5624   34.6300   46.5532 H   0  0  0  0  0  0  0  0  0  0  0  0
   59.3814   35.9582   46.6590 H   0  0  0  0  0  0  0  0  0  0  0  0
   59.1733   33.3196   47.8043 H   0  0  0  0  0  0  0  0  0  0  0  0
   57.9318   34.5921   47.8308 H   0  0  0  0  0  0  0  0  0  0  0  0
  1  2  1  0
  2  3  1  0
  3  4  2  0
  4  5  1  0
  5  6  2  0
  6  7  1  0
  7  8  2  0
  8  9  1  0
  9 10  2  0
 10 11  1  0
 11 12  1  0
 12 13  1  0
 13 14  1  0
 14 15  1  0
 15 16  1  0
  8  3  1  0
 16 12  1  0
 11  7  1  0
  1 17  1  0
  1 18  1  0
  1 19  1  0
  4 20  1  0
  5 21  1  0
 10 22  1  0
 12 23  1  0
 13 24  1  0
 13 25  1  0
 14 26  1  0
 14 27  1  0
 15 28  1  0
 15 29  1  0
 16 30  1  0
 16 31  1  0
M  CHG  1   4   1
M  END
>  <UniqueID>  (31) 
29

>  <SMILES>  (31) 
COc1[nH+]cnc2c1ncn2C1CCCC1

>  <Energy>  (31) 
73.04034393484646

>  <Genealogy>  (31) 
COc1[nH+]cnc2c1ncn2C1CCCC1 (protonated)
COc1[nH+]cnc2c1ncn2C1CCCC1 (3D coordinates assigned)
COc1[nH+]cnc2c1ncn2C1CCCC1 (nonaromatic ring conformer: 73.04034393484646 kcal/mol)

>  <smiles>  (31) 
COc1ncnc2c1ncn2C1CCCC1

>  <score_type>  (31) 
oracle

>  <origin>  (31) 
adg

>  <m_score__min__energy>  (31) 
-4.7699999999999996

>  <m_primary>  (31) 
energy

$$$$
31:0
     RDKit          3D

 32 34  0  0  0  0  0  0  0  0999 V2000
   57.3480   22.0920   47.5500 O   0  0  0  0  0  0  0  0  0  0  0  0
   57.3210   23.2560   47.0710 C   0  0  0  0  0  0  0  0  0  0  0  0
   56.2310   24.0610   47.1610 N   0  0  0  0  0  0  0  0  0  0  0  0
   56.6480   25.1740   46.5280 C   0  0  0  0  0  0  0  0  0  0  0  0
   55.9260   26.3420   46.3040 C   0  0  0  0  0  0  0  0  0  0  0  0
   56.5560   27.3850   45.5800 C   0  0  0  0  0  0  0  0  0  0  0  0
   55.8800   28.6050   45.2460 N   0  0  0  0  0  0  0  0  0  0  0  0
   56.4630   29.8660   44.2010 S   0  0  0  0  0  0  0  0  0  0  0  0
   56.2730   29.4880   42.7600 O   0  0  0  0  0  0  0  0  0  0  0  0
   55.6570   31.1050   44.4690 O   0  0  0  0  0  0  0  0  0  0  0  0
   58.1800   30.2400   44.5440 C   0  0  0  0  0  0  0  0  0  0  0  0
   58.3390   31.6000   45.1740 C   0  0  0  0  0  0  0  0  0  0  0  0
   58.1250   32.7470   44.3890 C   0  0  0  0  0  0  0  0  0  0  0  0
   58.2070   34.0210   44.9550 C   0  0  0  0  0  0  0  0  0  0  0  0
   58.5080   34.1670   46.3090 C   0  0  0  0  0  0  0  0  0  0  0  0
   58.7310   33.0390   47.1010 C   0  0  0  0  0  0  0  0  0  0  0  0
   58.6480   31.7550   46.5450 C   0  0  0  0  0  0  0  0  0  0  0  0
   58.9170   30.3740   47.6030 Cl  0  0  0  0  0  0  0  0  0  0  0  0
   57.8930   27.2200   45.1400 C   0  0  0  0  0  0  0  0  0  0  0  0
   58.5940   26.0250   45.3890 C   0  0  0  0  0  0  0  0  0  0  0  0
   57.9280   25.0230   46.0840 C   0  0  0  0  0  0  0  0  0  0  0  0
   58.3740   23.8060   46.4220 N   0  0  0  0  0  0  0  0  0  0  0  0
   54.8973   26.4527   46.6775 H   0  0  0  0  0  0  0  0  0  0  0  0
   58.5801   29.4798   45.2311 H   0  0  0  0  0  0  0  0  0  0  0  0
   58.7287   30.2374   43.5906 H   0  0  0  0  0  0  0  0  0  0  0  0
   57.8909   32.6397   43.3196 H   0  0  0  0  0  0  0  0  0  0  0  0
   58.0339   34.9108   44.3319 H   0  0  0  0  0  0  0  0  0  0  0  0
   58.5697   35.1714   46.7532 H   0  0  0  0  0  0  0  0  0  0  0  0
   58.9732   33.1586   48.1673 H   0  0  0  0  0  0  0  0  0  0  0  0
   58.3898   28.0371   44.5964 H   0  0  0  0  0  0  0  0  0  0  0  0
   59.6304   25.8895   45.0462 H   0  0  0  0  0  0  0  0  0  0  0  0
   59.3100   23.3830   46.2280 H   0  0  0  0  0  0  0  0  0  0  0  0
  1  2  2  0
  2  3  1  0
  3  4  1  0
  4  5  2  0
  5  6  1  0
  6  7  1  0
  7  8  1  0
  8  9  2  0
  8 10  2  0
  8 11  1  0
 11 12  1  0
 12 13  2  0
 13 14  1  0
 14 15  2  0
 15 16  1  0
 16 17  2  0
 17 18  1  0
  6 19  2  0
 19 20  1  0
 20 21  2  0
 21 22  1  0
 22  2  1  0
 21  4  1  0
 17 12  1  0
  5 23  1  0
 11 24  1  0
 11 25  1  0
 13 26  1  0
 14 27  1  0
 15 28  1  0
 16 29  1  0
 19 30  1  0
 20 31  1  0
 22 32  1  0
M  CHG  2   3  -1   7  -1
M  END
>  <UniqueID>  (32) 
30

>  <SMILES>  (32) 
O=c1[n-]c2cc([N-]S(=O)(=O)Cc3ccccc3Cl)ccc2[nH]1

>  <Energy>  (32) 
69.55704682919337

>  <Genealogy>  (32) 
O=c1[n-]c2cc([N-]S(=O)(=O)Cc3ccccc3Cl)ccc2[nH]1 (protonated)
O=c1[n-]c2cc([N-]S(=O)(=O)Cc3ccccc3Cl)ccc2[nH]1 (3D coordinates assigned)
O=c1[n-]c2cc([N-]S(=O)(=O)Cc3ccccc3Cl)ccc2[nH]1 (optimized conformer: 69.55704682919337 kcal/mol)

>  <smiles>  (32) 
O=c1[nH]c2ccc(NS(=O)(=O)Cc3ccccc3Cl)cc2[nH]1

>  <score_type>  (32) 
oracle

>  <origin>  (32) 
adg

>  <m_score__min__energy>  (32) 
-11.68

>  <m_primary>  (32) 
energy

$$$$
32:0
     RDKit          3D

 41 42  0  0  1  0  0  0  0  0999 V2000
   58.5900   25.9100   45.8670 C   0  0  0  0  0  0  0  0  0  0  0  0
   58.7100   27.3340   45.3870 C   0  0  0  0  0  0  0  0  0  0  0  0
   60.1380   27.7930   45.6320 C   0  0  0  0  0  0  0  0  0  0  0  0
   58.4060   27.4430   43.9070 C   0  0  0  0  0  0  0  0  0  0  0  0
   57.8890   28.2020   46.1540 O   0  0  0  0  0  0  0  0  0  0  0  0
   57.7080   29.5360   45.8180 C   0  0  0  0  0  0  0  0  0  0  0  0
   56.6360   29.8670   45.2270 O   0  0  0  0  0  0  0  0  0  0  0  0
   58.6990   30.5280   46.1260 N   0  0  0  0  0  0  0  0  0  0  0  0
   58.5160   31.8910   45.7850 C   0  0  0  0  0  0  0  0  0  0  0  0
   58.0280   32.1740   44.5260 C   0  0  0  0  0  0  0  0  0  0  0  0
   57.8240   33.4750   44.1240 C   0  0  0  0  0  0  0  0  0  0  0  0
   58.1010   34.5430   44.9690 C   0  0  0  0  0  0  0  0  0  0  0  0
   58.5860   34.2270   46.2220 C   0  0  0  0  0  0  0  0  0  0  0  0
   58.8000   32.9320   46.6470 C   0  0  0  0  0  0  0  0  0  0  0  0
   59.3220   32.5950   47.9970 C   0  0  0  0  0  0  0  0  0  0  0  0
   60.5100   31.8090   47.8250 N   0  0  0  0  0  0  0  0  0  0  0  0
   61.6540   32.2800   47.4840 C   0  0  0  0  0  0  0  0  0  0  0  0
   61.9680   33.6000   47.2650 C   0  0  0  0  0  0  0  0  0  0  0  0
   63.3110   33.6010   46.9230 C   0  0  0  0  0  0  0  0  0  0  0  0
   63.7680   32.3370   46.9380 N   0  0  0  0  0  0  0  0  0  0  0  0
   62.7500   31.5660   47.2790 N   0  0  0  0  0  0  0  0  0  0  0  0
   58.5885   25.8927   46.9669 H   0  0  0  0  0  0  0  0  0  0  0  0
   57.6520   25.4745   45.4922 H   0  0  0  0  0  0  0  0  0  0  0  0
   59.4419   25.3237   45.4922 H   0  0  0  0  0  0  0  0  0  0  0  0
   60.3233   27.8526   46.7146 H   0  0  0  0  0  0  0  0  0  0  0  0
   60.8369   27.0743   45.1793 H   0  0  0  0  0  0  0  0  0  0  0  0
   60.2873   28.7844   45.1793 H   0  0  0  0  0  0  0  0  0  0  0  0
   57.3786   27.8114   43.7699 H   0  0  0  0  0  0  0  0  0  0  0  0
   59.1124   28.1438   43.4382 H   0  0  0  0  0  0  0  0  0  0  0  0
   58.5062   26.4529   43.4382 H   0  0  0  0  0  0  0  0  0  0  0  0
   59.5880   30.2210   46.6230 H   0  0  0  0  0  0  0  0  0  0  0  0
   57.7990   31.3498   43.8345 H   0  0  0  0  0  0  0  0  0  0  0  0
   57.4343   33.6728   43.1146 H   0  0  0  0  0  0  0  0  0  0  0  0
   57.9421   35.5854   44.6557 H   0  0  0  0  0  0  0  0  0  0  0  0
   58.8133   35.0490   46.9167 H   0  0  0  0  0  0  0  0  0  0  0  0
   59.5601   33.5174   48.5470 H   0  0  0  0  0  0  0  0  0  0  0  0
   58.5697   32.0334   48.5703 H   0  0  0  0  0  0  0  0  0  0  0  0
   61.2977   34.4686   47.3441 H   0  0  0  0  0  0  0  0  0  0  0  0
   63.9070   34.4926   46.6786 H   0  0  0  0  0  0  0  0  0  0  0  0
   64.7320   31.9960   46.7280 H   0  0  0  0  0  0  0  0  0  0  0  0
   62.8120   30.5360   47.3700 H   0  0  0  0  0  0  0  0  0  0  0  0
  1  2  1  0
  2  3  1  0
  2  4  1  0
  2  5  1  0
  5  6  1  0
  6  7  2  0
  6  8  1  0
  8  9  1  0
  9 10  2  0
 10 11  1  0
 11 12  2  0
 12 13  1  0
 13 14  2  0
 14 15  1  0
 15 16  1  0
 16 17  2  0
 17 18  1  0
 18 19  2  0
 19 20  1  0
 20 21  1  0
 14  9  1  0
 21 17  1  0
  1 22  1  0
  1 23  1  0
  1 24  1  0
  3 25  1  0
  3 26  1  0
  3 27  1  0
  4 28  1  0
  4 29  1  0
  4 30  1  0
  8 31  1  0
 10 32  1  0
 11 33  1  0
 12 34  1  0
 13 35  1  0
 15 36  1  0
 15 37  1  0
 18 38  1  0
 19 39  1  0
 20 40  1  0
 21 41  1  0
M  END
>  <smiles>  (33) 
CC(C)(C)OC(=O)Nc1ccccc1CN=c1cc[nH][nH]1

>  <score_type>  (33) 
oracle

>  <origin>  (33) 
adg

>  <m_score__min__energy>  (33) 
-6.5800000000000001

>  <m_primary>  (33) 
energy

$$$$
33:0
     RDKit          3D

 41 44  0  0  0  0  0  0  0  0999 V2000
   59.2480   35.0020   45.9610 C   0  0  0  0  0  0  0  0  0  0  0  0
   59.1630   34.3200   47.2070 O   0  0  0  0  0  0  0  0  0  0  0  0
   60.2240   33.5570   47.7070 C   0  0  0  0  0  0  0  0  0  0  0  0
   61.0970   34.1430   48.5730 N   0  0  0  0  0  0  0  0  0  0  0  0
   62.1180   33.4490   49.1440 C   0  0  0  0  0  0  0  0  0  0  0  0
   62.2980   32.0990   48.8460 C   0  0  0  0  0  0  0  0  0  0  0  0
   61.4370   31.4770   47.9460 C   0  0  0  0  0  0  0  0  0  0  0  0
   60.3980   32.2020   47.3420 C   0  0  0  0  0  0  0  0  0  0  0  0
   59.5410   31.5310   46.3380 C   0  0  0  0  0  0  0  0  0  0  0  0
   59.0100   30.2550   46.5730 C   0  0  0  0  0  0  0  0  0  0  0  0
   58.2100   29.6340   45.6030 C   0  0  0  0  0  0  0  0  0  0  0  0
   57.7230   28.2610   45.8700 C   0  0  0  0  0  0  0  0  0  0  0  0
   58.6130   27.2690   46.3080 C   0  0  0  0  0  0  0  0  0  0  0  0
   58.1580   25.9660   46.5360 C   0  0  0  0  0  0  0  0  0  0  0  0
   56.8140   25.6450   46.3210 C   0  0  0  0  0  0  0  0  0  0  0  0
   55.9240   26.6250   45.8700 C   0  0  0  0  0  0  0  0  0  0  0  0
   54.5910   26.3040   45.6490 O   0  0  0  0  0  0  0  0  0  0  0  0
   56.3770   27.9290   45.6400 C   0  0  0  0  0  0  0  0  0  0  0  0
   57.9120   30.3280   44.4070 C   0  0  0  0  0  0  0  0  0  0  0  0
   57.0680   29.7970   43.4080 C   0  0  0  0  0  0  0  0  0  0  0  0
   56.8020   30.5260   42.2460 C   0  0  0  0  0  0  0  0  0  0  0  0
   57.3600   31.7940   42.0650 C   0  0  0  0  0  0  0  0  0  0  0  0
   57.0190   32.7030   40.6040 Cl  0  0  0  0  0  0  0  0  0  0  0  0
   58.1830   32.3430   43.0530 C   0  0  0  0  0  0  0  0  0  0  0  0
   58.4560   31.6230   44.2210 C   0  0  0  0  0  0  0  0  0  0  0  0
   59.2420   32.1760   45.1800 N   0  0  0  0  0  0  0  0  0  0  0  0
   59.3822   36.0789   46.1408 H   0  0  0  0  0  0  0  0  0  0  0  0
   60.1050   34.6161   45.3895 H   0  0  0  0  0  0  0  0  0  0  0  0
   58.3225   34.8383   45.3895 H   0  0  0  0  0  0  0  0  0  0  0  0
   60.9700   35.1500   48.8240 H   0  0  0  0  0  0  0  0  0  0  0  0
   62.8025   33.9535   49.8418 H   0  0  0  0  0  0  0  0  0  0  0  0
   63.1130   31.5304   49.3177 H   0  0  0  0  0  0  0  0  0  0  0  0
   61.5717   30.4118   47.7070 H   0  0  0  0  0  0  0  0  0  0  0  0
   59.2216   29.7393   47.5213 H   0  0  0  0  0  0  0  0  0  0  0  0
   59.6720   27.5166   46.4727 H   0  0  0  0  0  0  0  0  0  0  0  0
   58.8583   25.1928   46.8849 H   0  0  0  0  0  0  0  0  0  0  0  0
   56.4567   24.6213   46.5067 H   0  0  0  0  0  0  0  0  0  0  0  0
   55.6772   28.6966   45.2780 H   0  0  0  0  0  0  0  0  0  0  0  0
   56.6169   28.8032   43.5451 H   0  0  0  0  0  0  0  0  0  0  0  0
   56.1499   30.0993   41.4697 H   0  0  0  0  0  0  0  0  0  0  0  0
   58.6170   33.3438   42.9115 H   0  0  0  0  0  0  0  0  0  0  0  0
  1  2  1  0
  2  3  1  0
  3  4  2  0
  4  5  1  0
  5  6  2  0
  6  7  1  0
  7  8  2  0
  8  9  1  0
  9 10  2  0
 10 11  1  0
 11 12  1  0
 12 13  2  0
 13 14  1  0
 14 15  2  0
 15 16  1  0
 16 17  1  0
 16 18  2  0
 11 19  2  0
 19 20  1  0
 20 21  2  0
 21 22  1  0
 22 23  1  0
 22 24  2  0
 24 25  1  0
 25 26  2  0
  8  3  1  0
 26  9  1  0
 18 12  1  0
 25 19  1  0
  1 27  1  0
  1 28  1  0
  1 29  1  0
  4 30  1  0
  5 31  1  0
  6 32  1  0
  7 33  1  0
 10 34  1  0
 13 35  1  0
 14 36  1  0
 15 37  1  0
 18 38  1  0
 20 39  1  0
 21 40  1  0
 24 41  1  0
M  CHG  2   4   1  17  -1
M  END
>  <UniqueID>  (34) 
31

>  <SMILES>  (34) 
COc1[nH+]cccc1-c1cc(-c2cccc([O-])c2)c2ccc(Cl)cc2n1

>  <Energy>  (34) 
68.27088471945775

>  <Genealogy>  (34) 
COc1[nH+]cccc1-c1cc(-c2cccc([O-])c2)c2ccc(Cl)cc2n1 (protonated)
COc1[nH+]cccc1-c1cc(-c2cccc([O-])c2)c2ccc(Cl)cc2n1 (3D coordinates assigned)
COc1[nH+]cccc1-c1cc(-c2cccc([O-])c2)c2ccc(Cl)cc2n1 (optimized conformer: 68.27088471945775 kcal/mol)

>  <smiles>  (34) 
COc1ncccc1-c1cc(-c2cccc(O)c2)c2ccc(Cl)cc2n1

>  <score_type>  (34) 
oracle

>  <origin>  (34) 
adg

>  <m_score__min__energy>  (34) 
-10.06

>  <m_primary>  (34) 
energy

$$$$
34:0
     RDKit          3D

 34 36  0  0  0  0  0  0  0  0999 V2000
   54.5500   27.0680   46.3720 H   0  0  0  0  0  0  0  0  0  0  0  0
   55.4080   26.4750   46.3190 N   0  0  0  0  0  0  0  0  0  0  0  0
   56.6910   27.0630   46.1360 C   0  0  0  0  0  0  0  0  0  0  0  0
   57.4770   27.1530   47.1160 O   0  0  0  0  0  0  0  0  0  0  0  0
   57.0240   27.6300   44.8580 N   0  0  0  0  0  0  0  0  0  0  0  0
   57.1410   28.8850   44.5120 C   0  0  0  0  0  0  0  0  0  0  0  0
   57.8510   29.8300   45.2830 C   0  0  0  0  0  0  0  0  0  0  0  0
   58.3357   29.5205   46.2207 H   0  0  0  0  0  0  0  0  0  0  0  0
   57.9400   31.1660   44.8550 C   0  0  0  0  0  0  0  0  0  0  0  0
   58.6810   32.1750   45.6530 C   0  0  0  0  0  0  0  0  0  0  0  0
   59.8060   31.9340   46.4270 C   0  0  0  0  0  0  0  0  0  0  0  0
   60.3164   30.9693   46.5643 H   0  0  0  0  0  0  0  0  0  0  0  0
   60.1610   33.1490   46.9940 C   0  0  0  0  0  0  0  0  0  0  0  0
   61.3080   33.4050   47.9050 C   0  0  0  0  0  0  0  0  0  0  0  0
   62.6320   33.1970   47.4700 C   0  0  0  0  0  0  0  0  0  0  0  0
   62.8205   32.8406   46.4465 H   0  0  0  0  0  0  0  0  0  0  0  0
   63.7080   33.4400   48.3290 C   0  0  0  0  0  0  0  0  0  0  0  0
   64.7376   33.2747   47.9789 H   0  0  0  0  0  0  0  0  0  0  0  0
   63.4790   33.8920   49.6300 C   0  0  0  0  0  0  0  0  0  0  0  0
   64.3270   34.0824   50.3042 H   0  0  0  0  0  0  0  0  0  0  0  0
   62.1720   34.1020   50.0740 C   0  0  0  0  0  0  0  0  0  0  0  0
   61.9917   34.4575   51.0993 H   0  0  0  0  0  0  0  0  0  0  0  0
   61.0920   33.8620   49.2200 C   0  0  0  0  0  0  0  0  0  0  0  0
   60.0655   34.0312   49.5773 H   0  0  0  0  0  0  0  0  0  0  0  0
   59.2360   34.0750   46.5420 C   0  0  0  0  0  0  0  0  0  0  0  0
   59.2307   35.1421   46.8090 H   0  0  0  0  0  0  0  0  0  0  0  0
   58.3450   33.4800   45.7290 N   0  0  0  0  0  0  0  0  0  0  0  0
   57.5370   33.9530   45.2700 H   0  0  0  0  0  0  0  0  0  0  0  0
   57.3240   31.5300   43.6500 C   0  0  0  0  0  0  0  0  0  0  0  0
   57.3716   32.5713   43.2988 H   0  0  0  0  0  0  0  0  0  0  0  0
   56.6510   30.5690   42.8980 C   0  0  0  0  0  0  0  0  0  0  0  0
   56.1758   30.8521   41.9472 H   0  0  0  0  0  0  0  0  0  0  0  0
   56.5790   29.2830   43.3340 N   0  0  0  0  0  0  0  0  0  0  0  0
   56.0660   28.5890   42.7450 H   0  0  0  0  0  0  0  0  0  0  0  0
  1  2  1  0
  2  3  1  0
  3  4  2  0
  3  5  1  0
  5  6  2  0
  6  7  1  0
  7  8  1  0
  7  9  2  0
  9 10  1  0
 10 11  2  0
 11 12  1  0
 11 13  1  0
 13 14  1  0
 14 15  2  0
 15 16  1  0
 15 17  1  0
 17 18  1  0
 17 19  2  0
 19 20  1  0
 19 21  1  0
 21 22  1  0
 21 23  2  0
 23 24  1  0
 13 25  2  0
 25 26  1  0
 25 27  1  0
 27 28  1  0
  9 29  1  0
 29 30  1  0
 29 31  2  0
 31 32  1  0
 31 33  1  0
 33 34  1  0
 33  6  1  0
 27 10  1  0
 23 14  1  0
M  CHG  1   2  -1
M  END
>  <UniqueID>  (35) 
32

>  <SMILES>  (35) 
[NH-]C(=O)/N=c1\cc(-c2cc(-c3ccccc3)c[nH]2)cc[nH]1

>  <Energy>  (35) 
74.48334929625062

>  <Genealogy>  (35) 
[NH-]C(=O)N=c1cc(-c2cc(-c3ccccc3)c[nH]2)cc[nH]1 (protonated)
[NH-]C(=O)/N=c1\cc(-c2cc(-c3ccccc3)c[nH]2)cc[nH]1 (cis-trans isomerization)
[NH-]C(=O)/N=c1\cc(-c2cc(-c3ccccc3)c[nH]2)cc[nH]1 (3D coordinates assigned)
[NH-]C(=O)/N=c1\cc(-c2cc(-c3ccccc3)c[nH]2)cc[nH]1 (optimized conformer: 74.48334929625062 kcal/mol)

>  <smiles>  (35) 
NC(=O)N=c1cc(-c2cc(-c3ccccc3)c[nH]2)cc[nH]1

>  <score_type>  (35) 
oracle

>  <origin>  (35) 
adg

>  <m_score__min__energy>  (35) 
-9.7899999999999991

>  <m_primary>  (35) 
energy

$$$$
35:0
     RDKit          3D

 42 44  0  0  0  0  0  0  0  0999 V2000
   57.3430   30.8740   43.3090 C   0  0  0  0  0  0  0  0  0  0  0  0
   56.7740   31.3340   44.5300 O   0  0  0  0  0  0  0  0  0  0  0  0
   57.4790   32.0410   45.5170 C   0  0  0  0  0  0  0  0  0  0  0  0
   57.5280   33.4340   45.4250 C   0  0  0  0  0  0  0  0  0  0  0  0
   58.2160   34.1830   46.3800 C   0  0  0  0  0  0  0  0  0  0  0  0
   58.8640   33.5520   47.4480 C   0  0  0  0  0  0  0  0  0  0  0  0
   59.6980   34.5840   48.6640 S   0  0  0  0  0  0  0  0  0  0  0  0
   61.3340   34.0440   48.1650 C   0  0  0  0  0  0  0  0  0  0  0  0
   61.6390   33.8820   46.8070 C   0  0  0  0  0  0  0  0  0  0  0  0
   62.9180   33.4660   46.4230 C   0  0  0  0  0  0  0  0  0  0  0  0
   63.8900   33.2020   47.3930 C   0  0  0  0  0  0  0  0  0  0  0  0
   63.5810   33.3500   48.7490 C   0  0  0  0  0  0  0  0  0  0  0  0
   62.3030   33.7640   49.1350 C   0  0  0  0  0  0  0  0  0  0  0  0
   58.8330   32.1430   47.5510 C   0  0  0  0  0  0  0  0  0  0  0  0
   59.5040   31.4520   48.6220 N   0  0  0  0  0  0  0  0  0  0  0  0
   59.0030   31.5350   49.9960 C   0  0  0  0  0  0  0  0  0  0  0  0
   60.1730   31.7870   50.9570 C   0  0  0  0  0  0  0  0  0  0  0  0
   61.3130   30.8540   50.7710 N   0  0  0  0  0  0  0  0  0  0  0  0
   61.2070   29.9610   49.6010 C   0  0  0  0  0  0  0  0  0  0  0  0
   60.7490   30.7240   48.3530 C   0  0  0  0  0  0  0  0  0  0  0  0
   58.1360   31.4000   46.5820 C   0  0  0  0  0  0  0  0  0  0  0  0
   58.1814   30.1962   43.5276 H   0  0  0  0  0  0  0  0  0  0  0  0
   56.5790   30.3367   42.7279 H   0  0  0  0  0  0  0  0  0  0  0  0
   57.7083   31.7336   42.7279 H   0  0  0  0  0  0  0  0  0  0  0  0
   57.0203   33.9443   44.5932 H   0  0  0  0  0  0  0  0  0  0  0  0
   58.2494   35.2790   46.2928 H   0  0  0  0  0  0  0  0  0  0  0  0
   60.8730   34.0819   46.0433 H   0  0  0  0  0  0  0  0  0  0  0  0
   63.1596   33.3464   45.3565 H   0  0  0  0  0  0  0  0  0  0  0  0
   64.8966   32.8783   47.0899 H   0  0  0  0  0  0  0  0  0  0  0  0
   64.3446   33.1404   49.5125 H   0  0  0  0  0  0  0  0  0  0  0  0
   62.0587   33.8698   50.2023 H   0  0  0  0  0  0  0  0  0  0  0  0
   58.2815   32.3617   50.0731 H   0  0  0  0  0  0  0  0  0  0  0  0
   58.5092   30.5888   50.2623 H   0  0  0  0  0  0  0  0  0  0  0  0
   60.5358   32.8135   50.8000 H   0  0  0  0  0  0  0  0  0  0  0  0
   59.7908   31.6267   51.9760 H   0  0  0  0  0  0  0  0  0  0  0  0
   62.1960   31.4100   50.6830 H   0  0  0  0  0  0  0  0  0  0  0  0
   61.4100   30.2560   51.6250 H   0  0  0  0  0  0  0  0  0  0  0  0
   62.1913   29.5112   49.4040 H   0  0  0  0  0  0  0  0  0  0  0  0
   60.4603   29.1850   49.8251 H   0  0  0  0  0  0  0  0  0  0  0  0
   61.5307   31.4402   48.0598 H   0  0  0  0  0  0  0  0  0  0  0  0
   60.5705   30.0030   47.5416 H   0  0  0  0  0  0  0  0  0  0  0  0
   58.1043   30.3031   46.6581 H   0  0  0  0  0  0  0  0  0  0  0  0
  1  2  1  0
  2  3  1  0
  3  4  2  0
  4  5  1  0
  5  6  2  0
  6  7  1  0
  7  8  1  0
  8  9  2  0
  9 10  1  0
 10 11  2  0
 11 12  1  0
 12 13  2  0
  6 14  1  0
 14 15  1  0
 15 16  1  0
 16 17  1  0
 17 18  1  0
 18 19  1  0
 19 20  1  0
 14 21  2  0
 21  3  1  0
 13  8  1  0
 20 15  1  0
  1 22  1  0
  1 23  1  0
  1 24  1  0
  4 25  1  0
  5 26  1  0
  9 27  1  0
 10 28  1  0
 11 29  1  0
 12 30  1  0
 13 31  1  0
 16 32  1  0
 16 33  1  0
 17 34  1  0
 17 35  1  0
 18 36  1  0
 18 37  1  0
 19 38  1  0
 19 39  1  0
 20 40  1  0
 20 41  1  0
 21 42  1  0
M  CHG  1  18   1
M  END
>  <UniqueID>  (36) 
33

>  <SMILES>  (36) 
COc1ccc(Sc2ccccc2)c(N2CC[NH2+]CC2)c1

>  <Energy>  (36) 
46.86203214743777

>  <Genealogy>  (36) 
COc1ccc(Sc2ccccc2)c(N2CC[NH2+]CC2)c1 (protonated)
COc1ccc(Sc2ccccc2)c(N2CC[NH2+]CC2)c1 (3D coordinates assigned)
COc1ccc(Sc2ccccc2)c(N2CC[NH2+]CC2)c1 (nonaromatic ring conformer: 46.86203214743777 kcal/mol)

>  <smiles>  (36) 
COc1ccc(Sc2ccccc2)c(N2CCNCC2)c1

>  <score_type>  (36) 
oracle

>  <origin>  (36) 
adg

>  <m_score__min__energy>  (36) 
-5.2800000000000002

>  <m_primary>  (36) 
energy

$$$$
36:0
     RDKit          3D

 44 47  0  0  0  0  0  0  0  0999 V2000
   59.6910   34.9660   49.2120 O   0  0  0  0  0  0  0  0  0  0  0  0
   60.4300   33.9790   49.4790 C   0  0  0  0  0  0  0  0  0  0  0  0
   61.5840   33.6860   48.6020 C   0  0  0  0  0  0  0  0  0  0  0  0
   61.4880   33.8580   47.2100 C   0  0  0  0  0  0  0  0  0  0  0  0
   62.5770   33.5580   46.3840 C   0  0  0  0  0  0  0  0  0  0  0  0
   63.7650   33.0780   46.9390 C   0  0  0  0  0  0  0  0  0  0  0  0
   63.8660   32.8910   48.3210 C   0  0  0  0  0  0  0  0  0  0  0  0
   62.7790   33.1860   49.1490 C   0  0  0  0  0  0  0  0  0  0  0  0
   60.1240   33.1510   50.6170 N   0  0  0  0  0  0  0  0  0  0  0  0
   59.5560   33.7520   51.8300 C   0  0  0  0  0  0  0  0  0  0  0  0
   58.1750   33.1490   52.1010 C   0  0  0  0  0  0  0  0  0  0  0  0
   58.1970   31.6810   51.9920 N   0  0  0  0  0  0  0  0  0  0  0  0
   57.0100   30.9280   52.3090 C   0  0  0  0  0  0  0  0  0  0  0  0
   55.7580   31.4200   52.1870 N   0  0  0  0  0  0  0  0  0  0  0  0
   54.8030   30.5160   52.5520 C   0  0  0  0  0  0  0  0  0  0  0  0
   53.3560   30.8530   52.4840 C   0  0  0  0  0  0  0  0  0  0  0  0
   52.4540   30.4430   53.4870 C   0  0  0  0  0  0  0  0  0  0  0  0
   51.0980   30.7740   53.4000 C   0  0  0  0  0  0  0  0  0  0  0  0
   50.6230   31.5170   52.3170 C   0  0  0  0  0  0  0  0  0  0  0  0
   51.5050   31.9350   51.3190 C   0  0  0  0  0  0  0  0  0  0  0  0
   51.0320   32.6770   50.2430 O   0  0  0  0  0  0  0  0  0  0  0  0
   52.8630   31.6070   51.4000 C   0  0  0  0  0  0  0  0  0  0  0  0
   55.3120   29.2800   52.9660 C   0  0  0  0  0  0  0  0  0  0  0  0
   56.9900   29.3430   52.8720 S   0  0  0  0  0  0  0  0  0  0  0  0
   59.4500   30.9880   51.6520 C   0  0  0  0  0  0  0  0  0  0  0  0
   60.1420   31.6860   50.4730 C   0  0  0  0  0  0  0  0  0  0  0  0
   60.5521   34.2303   46.7679 H   0  0  0  0  0  0  0  0  0  0  0  0
   62.4971   33.7005   45.2962 H   0  0  0  0  0  0  0  0  0  0  0  0
   64.6217   32.8469   46.2888 H   0  0  0  0  0  0  0  0  0  0  0  0
   64.8018   32.5114   48.7571 H   0  0  0  0  0  0  0  0  0  0  0  0
   62.8589   33.0261   50.2344 H   0  0  0  0  0  0  0  0  0  0  0  0
   60.2186   33.5491   52.6843 H   0  0  0  0  0  0  0  0  0  0  0  0
   59.4600   34.8388   51.6898 H   0  0  0  0  0  0  0  0  0  0  0  0
   57.8563   33.4274   53.1163 H   0  0  0  0  0  0  0  0  0  0  0  0
   57.4736   33.5406   51.3495 H   0  0  0  0  0  0  0  0  0  0  0  0
   52.8195   29.8585   54.3442 H   0  0  0  0  0  0  0  0  0  0  0  0
   50.4028   30.4479   54.1876 H   0  0  0  0  0  0  0  0  0  0  0  0
   49.5552   31.7725   52.2505 H   0  0  0  0  0  0  0  0  0  0  0  0
   53.5522   31.9407   50.6103 H   0  0  0  0  0  0  0  0  0  0  0  0
   54.7169   28.4158   53.2962 H   0  0  0  0  0  0  0  0  0  0  0  0
   60.1196   31.0001   52.5246 H   0  0  0  0  0  0  0  0  0  0  0  0
   59.2194   29.9506   51.3682 H   0  0  0  0  0  0  0  0  0  0  0  0
   61.1870   31.3462   50.4218 H   0  0  0  0  0  0  0  0  0  0  0  0
   59.5959   31.4264   49.5541 H   0  0  0  0  0  0  0  0  0  0  0  0
  1  2  2  0
  2  3  1  0
  3  4  2  0
  4  5  1  0
  5  6  2  0
  6  7  1  0
  7  8  2  0
  2  9  1  0
  9 10  1  0
 10 11  1  0
 11 12  1  0
 12 13  1  0
 13 14  2  0
 14 15  1  0
 15 16  1  0
 16 17  2  0
 17 18  1  0
 18 19  2  0
 19 20  1  0
 20 21  1  0
 20 22  2  0
 15 23  2  0
 23 24  1  0
 12 25  1  0
 25 26  1  0
  8  3  1  0
 26  9  1  0
 24 13  1  0
 22 16  1  0
  4 27  1  0
  5 28  1  0
  6 29  1  0
  7 30  1  0
  8 31  1  0
 10 32  1  0
 10 33  1  0
 11 34  1  0
 11 35  1  0
 17 36  1  0
 18 37  1  0
 19 38  1  0
 22 39  1  0
 23 40  1  0
 25 41  1  0
 25 42  1  0
 26 43  1  0
 26 44  1  0
M  CHG  1  21  -1
M  END
>  <UniqueID>  (37) 
34

>  <SMILES>  (37) 
O=C(c1ccccc1)N1CCN(c2nc(-c3cccc([O-])c3)cs2)CC1

>  <Energy>  (37) 
85.73897975837401

>  <Genealogy>  (37) 
O=C(c1ccccc1)N1CCN(c2nc(-c3cccc([O-])c3)cs2)CC1 (protonated)
O=C(c1ccccc1)N1CCN(c2nc(-c3cccc([O-])c3)cs2)CC1 (3D coordinates assigned)
O=C(c1ccccc1)N1CCN(c2nc(-c3cccc([O-])c3)cs2)CC1 (nonaromatic ring conformer: 85.73897975837401 kcal/mol)

>  <smiles>  (37) 
O=C(c1ccccc1)N1CCN(c2nc(-c3cccc(O)c3)cs2)CC1

>  <score_type>  (37) 
oracle

>  <origin>  (37) 
adg

>  <m_score__min__energy>  (37) 
-12.4

>  <m_primary>  (37) 
energy

$$$$
37:0
     RDKit          3D

 64 68  0  0  0  0  0  0  0  0999 V2000
   57.3774   31.6643   41.8386 H   0  0  0  0  0  0  0  0  0  0  0  0
   57.3470   31.0360   42.7410 C   0  0  0  0  0  0  0  0  0  0  0  0
   58.3250   30.9900   43.6710 N   0  0  0  0  0  0  0  0  0  0  0  0
   57.9090   30.1010   44.5970 C   0  0  0  0  0  0  0  0  0  0  0  0
   58.6830   29.7350   45.7600 N   0  0  0  0  0  0  0  0  0  0  0  0
   58.0620   29.7510   46.6000 H   0  0  0  0  0  0  0  0  0  0  0  0
   59.0430   28.7610   45.6390 H   0  0  0  0  0  0  0  0  0  0  0  0
   59.8550   30.6110   45.9480 C   0  0  0  0  0  0  0  0  0  0  0  0
   60.5038   30.1736   46.7211 H   0  0  0  0  0  0  0  0  0  0  0  0
   60.3776   30.6876   44.9831 H   0  0  0  0  0  0  0  0  0  0  0  0
   59.4620   32.0070   46.3750 C   0  0  0  0  0  0  0  0  0  0  0  0
   60.4290   33.0260   46.4290 C   0  0  0  0  0  0  0  0  0  0  0  0
   61.4732   32.8059   46.1622 H   0  0  0  0  0  0  0  0  0  0  0  0
   60.0670   34.3190   46.8210 C   0  0  0  0  0  0  0  0  0  0  0  0
   60.8275   35.1125   46.8643 H   0  0  0  0  0  0  0  0  0  0  0  0
   58.7400   34.6050   47.1580 C   0  0  0  0  0  0  0  0  0  0  0  0
   58.4581   35.6223   47.4671 H   0  0  0  0  0  0  0  0  0  0  0  0
   57.7730   33.5990   47.1020 C   0  0  0  0  0  0  0  0  0  0  0  0
   56.7295   33.8252   47.3666 H   0  0  0  0  0  0  0  0  0  0  0  0
   58.1290   32.3040   46.7100 C   0  0  0  0  0  0  0  0  0  0  0  0
   57.3635   31.5154   46.6637 H   0  0  0  0  0  0  0  0  0  0  0  0
   59.4820   27.9280   48.4930 C   0  0  0  0  0  0  0  0  0  0  0  0
   59.0710   26.8020   47.6990 N   0  0  0  0  0  0  0  0  0  0  0  0
   57.9610   26.6800   47.0330 C   0  0  0  0  0  0  0  0  0  0  0  0
   55.6170   26.4930   45.6650 N   0  0  0  0  0  0  0  0  0  0  0  0
   56.0860   25.4240   46.3570 C   0  0  0  0  0  0  0  0  0  0  0  0
   55.1840   23.9250   46.3700 Cl  0  0  0  0  0  0  0  0  0  0  0  0
   57.2550   25.5170   47.0390 N   0  0  0  0  0  0  0  0  0  0  0  0
   56.3160   27.6560   45.6500 C   0  0  0  0  0  0  0  0  0  0  0  0
   55.8490   28.6720   44.9890 N   0  0  0  0  0  0  0  0  0  0  0  0
   56.6480   29.6230   44.2710 C   0  0  0  0  0  0  0  0  0  0  0  0
   56.3030   30.1920   43.0690 C   0  0  0  0  0  0  0  0  0  0  0  0
   55.3861   30.0129   42.4883 H   0  0  0  0  0  0  0  0  0  0  0  0
   61.1390   29.1240   49.8120 C   0  0  0  0  0  0  0  0  0  0  0  0
   62.1229   29.1531   50.3030 H   0  0  0  0  0  0  0  0  0  0  0  0
   60.2830   30.2300   49.8990 C   0  0  0  0  0  0  0  0  0  0  0  0
   60.8060   31.6950   50.7340 S   0  0  0  0  0  0  0  0  0  0  0  0
   60.7450   31.4670   52.2210 O   0  0  0  0  0  0  0  0  0  0  0  0
   59.8680   32.8200   50.3980 O   0  0  0  0  0  0  0  0  0  0  0  0
   62.4360   32.1430   50.2830 N   0  0  0  0  0  0  0  0  0  0  0  0
   62.7780   31.5750   48.9630 C   0  0  0  0  0  0  0  0  0  0  0  0
   61.9099   31.6724   48.2945 H   0  0  0  0  0  0  0  0  0  0  0  0
   63.0465   30.5168   49.0977 H   0  0  0  0  0  0  0  0  0  0  0  0
   63.9750   32.3050   48.3390 C   0  0  0  0  0  0  0  0  0  0  0  0
   64.2025   31.8445   47.3663 H   0  0  0  0  0  0  0  0  0  0  0  0
   64.8233   32.2157   49.0335 H   0  0  0  0  0  0  0  0  0  0  0  0
   63.7070   33.7510   48.1320 N   0  0  0  0  0  0  0  0  0  0  0  0
   63.4070   34.0440   46.7210 C   0  0  0  0  0  0  0  0  0  0  0  0
   62.6211   34.8116   46.6650 H   0  0  0  0  0  0  0  0  0  0  0  0
   64.3154   34.4122   46.2218 H   0  0  0  0  0  0  0  0  0  0  0  0
   63.0603   33.1271   46.2218 H   0  0  0  0  0  0  0  0  0  0  0  0
   62.6410   34.2910   49.0070 C   0  0  0  0  0  0  0  0  0  0  0  0
   61.6650   34.1237   48.5280 H   0  0  0  0  0  0  0  0  0  0  0  0
   62.8229   35.3659   49.1536 H   0  0  0  0  0  0  0  0  0  0  0  0
   62.6480   33.6060   50.3810 C   0  0  0  0  0  0  0  0  0  0  0  0
   61.8452   34.0390   50.9958 H   0  0  0  0  0  0  0  0  0  0  0  0
   63.6365   33.7724   50.8340 H   0  0  0  0  0  0  0  0  0  0  0  0
   59.0250   30.1790   49.2830 C   0  0  0  0  0  0  0  0  0  0  0  0
   58.3422   31.0382   49.3581 H   0  0  0  0  0  0  0  0  0  0  0  0
   60.7480   27.9840   49.1040 C   0  0  0  0  0  0  0  0  0  0  0  0
   61.4330   27.1271   49.0242 H   0  0  0  0  0  0  0  0  0  0  0  0
   57.4790   27.7470   46.3500 N   0  0  0  0  0  0  0  0  0  0  0  0
   58.6360   29.0400   48.5740 C   0  0  0  0  0  0  0  0  0  0  0  0
   57.6560   29.0169   48.0749 H   0  0  0  0  0  0  0  0  0  0  0  0
  1  2  1  0
  2  3  1  0
  3  4  1  0
  4  5  1  0
  5  6  1  0
  5  7  1  0
  5  8  1  0
  8  9  1  0
  8 10  1  0
  8 11  1  0
 11 12  2  0
 12 13  1  0
 12 14  1  0
 14 15  1  0
 14 16  2  0
 16 17  1  0
 16 18  1  0
 18 19  1  0
 18 20  2  0
 20 21  1  0
  4 22  2  0
 22 23  1  0
 23 24  2  0
 24 25  1  0
 25 26  2  0
 26 27  1  0
 26 28  1  0
 28 29  1  0
 29 30  2  0
 30 31  1  0
 31 32  2  0
 32 33  1  0
 32 34  1  0
 34 35  1  0
 34 36  2  0
 36 37  1  0
 37 38  2  0
 37 39  2  0
 37 40  1  0
 40 41  1  0
 41 42  1  0
 41 43  1  0
 41 44  1  0
 44 45  1  0
 44 46  1  0
 44 47  1  0
 47 48  1  0
 48 49  1  0
 48 50  1  0
 48 51  1  0
 47 52  1  0
 52 53  1  0
 52 54  1  0
 52 55  1  0
 55 56  1  0
 55 57  1  0
 36 58  1  0
 58 59  1  0
 58 60  2  0
 60 61  1  0
 29 62  1  0
 22 63  1  0
 63 64  1  0
 63  2  2  0
 20 11  1  0
 62 24  1  0
 60 31  1  0
 55 40  1  0
M  CHG  4   3  -1   5   1  28  -1  62  -1
M  END
>  <UniqueID>  (38) 
35

>  <SMILES>  (38) 
CN1CCN(S(=O)(=O)c2ccc(/N=c3\[n-]c(Cl)n/c(=N/c4cc[n-]c4[NH2+]Cc4ccccc4)[n-]3)cc2)CC1

>  <Energy>  (38) 
120.6816526842503

>  <Genealogy>  (38) 
CN1CCN(S(=O)(=O)c2ccc(N=c3[n-]c(Cl)nc(=Nc4cc[n-]c4[NH2+]Cc4ccccc4)[n-]3)cc2)CC1 (protonated)
CN1CCN(S(=O)(=O)c2ccc(/N=c3\[n-]c(Cl)n/c(=N/c4cc[n-]c4[NH2+]Cc4ccccc4)[n-]3)cc2)CC1 (cis-trans isomerization)
CN1CCN(S(=O)(=O)c2ccc(/N=c3\[n-]c(Cl)n/c(=N/c4cc[n-]c4[NH2+]Cc4ccccc4)[n-]3)cc2)CC1 (3D coordinates assigned)
CN1CCN(S(=O)(=O)c2ccc(/N=c3\[n-]c(Cl)n/c(=N/c4cc[n-]c4[NH2+]Cc4ccccc4)[n-]3)cc2)CC1 (nonaromatic ring conformer: 120.6816526842503 kcal/mol)

>  <smiles>  (38) 
CN1CCN(S(=O)(=O)c2ccc(N=c3[nH]c(Cl)nc(=Nc4cc[nH]c4NCc4ccccc4)[nH]3)cc2)CC1

>  <score_type>  (38) 
oracle

>  <origin>  (38) 
adg

>  <m_score__min__energy>  (38) 
-12.869999999999999

>  <m_primary>  (38) 
energy

$$$$
38:0
     RDKit          3D

 27 28  0  0  0  0  0  0  0  0999 V2000
   56.7670   34.7650   44.8660 O   0  0  0  0  0  0  0  0  0  0  0  0
   57.9500   34.4170   45.0600 N   0  0  0  0  0  0  0  0  0  0  0  0
   58.9520   35.3430   44.8810 O   0  0  0  0  0  0  0  0  0  0  0  0
   58.2620   33.0700   45.4620 C   0  0  0  0  0  0  0  0  0  0  0  0
   59.3550   32.8090   46.3110 C   0  0  0  0  0  0  0  0  0  0  0  0
   59.6530   31.5000   46.6970 C   0  0  0  0  0  0  0  0  0  0  0  0
   58.8660   30.4390   46.2470 C   0  0  0  0  0  0  0  0  0  0  0  0
   57.7730   30.6820   45.4070 C   0  0  0  0  0  0  0  0  0  0  0  0
   56.7710   29.3460   44.8460 S   0  0  0  0  0  0  0  0  0  0  0  0
   57.2310   28.8690   43.4950 O   0  0  0  0  0  0  0  0  0  0  0  0
   55.3500   29.8190   44.7380 O   0  0  0  0  0  0  0  0  0  0  0  0
   56.8420   28.0230   45.9710 N   0  0  0  0  0  0  0  0  0  0  0  0
   56.6060   26.7690   45.7110 C   0  0  0  0  0  0  0  0  0  0  0  0
   57.5760   25.9130   45.1510 C   0  0  0  0  0  0  0  0  0  0  0  0
   57.2540   24.5760   44.9070 C   0  0  0  0  0  0  0  0  0  0  0  0
   55.9790   24.0990   45.2150 C   0  0  0  0  0  0  0  0  0  0  0  0
   55.5610   22.4220   44.9130 Cl  0  0  0  0  0  0  0  0  0  0  0  0
   55.0400   24.9730   45.7650 C   0  0  0  0  0  0  0  0  0  0  0  0
   55.3720   26.2710   45.9970 N   0  0  0  0  0  0  0  0  0  0  0  0
   57.4770   31.9940   45.0130 C   0  0  0  0  0  0  0  0  0  0  0  0
   59.9776   33.6408   46.6722 H   0  0  0  0  0  0  0  0  0  0  0  0
   60.5106   31.3049   47.3577 H   0  0  0  0  0  0  0  0  0  0  0  0
   59.1051   29.4098   46.5530 H   0  0  0  0  0  0  0  0  0  0  0  0
   58.5785   26.2950   44.9081 H   0  0  0  0  0  0  0  0  0  0  0  0
   58.0047   23.8995   44.4724 H   0  0  0  0  0  0  0  0  0  0  0  0
   54.0306   24.6115   46.0110 H   0  0  0  0  0  0  0  0  0  0  0  0
   56.6227   32.1834   44.3464 H   0  0  0  0  0  0  0  0  0  0  0  0
  1  2  2  0
  2  3  1  0
  2  4  1  0
  4  5  2  0
  5  6  1  0
  6  7  2  0
  7  8  1  0
  8  9  1  0
  9 10  2  0
  9 11  2  0
  9 12  1  0
 12 13  2  3
 13 14  1  0
 14 15  2  0
 15 16  1  0
 16 17  1  0
 16 18  2  0
 18 19  1  0
  8 20  2  0
 20  4  1  0
 19 13  1  0
  5 21  1  0
  6 22  1  0
  7 23  1  0
 14 24  1  0
 15 25  1  0
 18 26  1  0
 20 27  1  0
M  CHG  3   2   1   3  -1  19  -1
M  END
>  <UniqueID>  (39) 
36

>  <SMILES>  (39) 
O=[N+]([O-])c1cccc(S(=O)(=O)N=c2ccc(Cl)c[n-]2)c1

>  <Energy>  (39) 
34.891210207467

>  <Genealogy>  (39) 
O=[N+]([O-])c1cccc(S(=O)(=O)N=c2ccc(Cl)c[n-]2)c1 (protonated)
O=[N+]([O-])c1cccc(S(=O)(=O)N=c2ccc(Cl)c[n-]2)c1 (3D coordinates assigned)
O=[N+]([O-])c1cccc(S(=O)(=O)N=c2ccc(Cl)c[n-]2)c1 (optimized conformer: 34.891210207467 kcal/mol)

>  <smiles>  (39) 
O=[N+]([O-])c1cccc(S(=O)(=O)N=c2ccc(Cl)c[nH]2)c1

>  <score_type>  (39) 
oracle

>  <origin>  (39) 
adg

>  <m_score__min__energy>  (39) 
-9.2599999999999998

>  <m_primary>  (39) 
energy

$$$$
39:0
     RDKit          3D

 38 40  0  0  0  0  0  0  0  0999 V2000
   57.7770   34.0380   44.8680 C   0  0  0  0  0  0  0  0  0  0  0  0
   57.7030   32.5490   44.8590 C   0  0  0  0  0  0  0  0  0  0  0  0
   57.1750   31.8350   43.8440 N   0  0  0  0  0  0  0  0  0  0  0  0
   57.1590   30.4980   44.1050 C   0  0  0  0  0  0  0  0  0  0  0  0
   56.6170   29.5350   43.0940 C   0  0  0  0  0  0  0  0  0  0  0  0
   57.6720   30.1350   45.3630 C   0  0  0  0  0  0  0  0  0  0  0  0
   57.7860   28.7730   45.9450 C   0  0  0  0  0  0  0  0  0  0  0  0
   58.9660   28.3530   46.5790 C   0  0  0  0  0  0  0  0  0  0  0  0
   59.0190   27.0680   47.1130 C   0  0  0  0  0  0  0  0  0  0  0  0
   57.9440   26.2470   47.0130 N   0  0  0  0  0  0  0  0  0  0  0  0
   56.8060   26.6530   46.3880 C   0  0  0  0  0  0  0  0  0  0  0  0
   55.7630   25.8790   46.3080 N   0  0  0  0  0  0  0  0  0  0  0  0
   55.7590   24.4460   46.1970 C   0  0  0  0  0  0  0  0  0  0  0  0
   55.2580   23.6900   47.2630 C   0  0  0  0  0  0  0  0  0  0  0  0
   55.2170   22.2960   47.1840 C   0  0  0  0  0  0  0  0  0  0  0  0
   55.6540   21.6450   46.0280 C   0  0  0  0  0  0  0  0  0  0  0  0
   56.1170   22.3910   44.9360 C   0  0  0  0  0  0  0  0  0  0  0  0
   56.6580   21.5800   43.4680 S   0  0  0  0  0  0  0  0  0  0  0  0
   56.2340   19.9060   43.5410 N   0  0  0  0  0  0  0  0  0  0  0  0
   56.0100   22.2050   42.2640 O   0  0  0  0  0  0  0  0  0  0  0  0
   58.1490   21.7170   43.3380 O   0  0  0  0  0  0  0  0  0  0  0  0
   56.1650   23.7890   45.0190 C   0  0  0  0  0  0  0  0  0  0  0  0
   56.7390   27.9080   45.8730 N   0  0  0  0  0  0  0  0  0  0  0  0
   58.1440   31.5590   46.1390 S   0  0  0  0  0  0  0  0  0  0  0  0
   57.7949   34.3980   45.9073 H   0  0  0  0  0  0  0  0  0  0  0  0
   58.6924   34.3628   44.3517 H   0  0  0  0  0  0  0  0  0  0  0  0
   56.8983   34.4519   44.3517 H   0  0  0  0  0  0  0  0  0  0  0  0
   56.1410   28.6892   43.6117 H   0  0  0  0  0  0  0  0  0  0  0  0
   55.8733   30.0448   42.4639 H   0  0  0  0  0  0  0  0  0  0  0  0
   57.4387   29.1638   42.4639 H   0  0  0  0  0  0  0  0  0  0  0  0
   59.8326   29.0264   46.6526 H   0  0  0  0  0  0  0  0  0  0  0  0
   59.9328   26.7187   47.6160 H   0  0  0  0  0  0  0  0  0  0  0  0
   54.8942   24.1969   48.1689 H   0  0  0  0  0  0  0  0  0  0  0  0
   54.8395   21.7093   48.0345 H   0  0  0  0  0  0  0  0  0  0  0  0
   55.6347   20.5465   45.9749 H   0  0  0  0  0  0  0  0  0  0  0  0
   56.7560   19.4940   44.3470 H   0  0  0  0  0  0  0  0  0  0  0  0
   56.6130   19.4580   42.6770 H   0  0  0  0  0  0  0  0  0  0  0  0
   56.5215   24.3763   44.1599 H   0  0  0  0  0  0  0  0  0  0  0  0
  1  2  1  0
  2  3  2  0
  3  4  1  0
  4  5  1  0
  4  6  2  0
  6  7  1  0
  7  8  1  0
  8  9  2  0
  9 10  1  0
 10 11  1  0
 11 12  2  3
 12 13  1  0
 13 14  2  0
 14 15  1  0
 15 16  2  0
 16 17  1  0
 17 18  1  0
 18 19  1  0
 18 20  2  0
 18 21  2  0
 17 22  2  0
 11 23  1  0
  6 24  1  0
 24  2  1  0
 23  7  2  0
 22 13  1  0
  1 25  1  0
  1 26  1  0
  1 27  1  0
  5 28  1  0
  5 29  1  0
  5 30  1  0
  8 31  1  0
  9 32  1  0
 14 33  1  0
 15 34  1  0
 16 35  1  0
 19 36  1  0
 19 37  1  0
 22 38  1  0
M  CHG  1  10  -1
M  END
>  <UniqueID>  (40) 
37

>  <SMILES>  (40) 
Cc1nc(C)c(-c2cc[n-]c(=Nc3cccc(S(N)(=O)=O)c3)n2)s1

>  <Energy>  (40) 
75.07249372803498

>  <Genealogy>  (40) 
Cc1nc(C)c(-c2cc[n-]c(=Nc3cccc(S(N)(=O)=O)c3)n2)s1 (protonated)
Cc1nc(C)c(-c2cc[n-]c(=Nc3cccc(S(N)(=O)=O)c3)n2)s1 (3D coordinates assigned)
Cc1nc(C)c(-c2cc[n-]c(=Nc3cccc(S(N)(=O)=O)c3)n2)s1 (optimized conformer: 75.07249372803498 kcal/mol)

>  <smiles>  (40) 
Cc1nc(C)c(-c2cc[nH]c(=Nc3cccc(S(N)(=O)=O)c3)n2)s1

>  <score_type>  (40) 
oracle

>  <origin>  (40) 
adg

>  <m_score__min__energy>  (40) 
-10.34

>  <m_primary>  (40) 
energy

$$$$
40:0
     RDKit          3D

 37 39  0  0  0  0  0  0  0  0999 V2000
   59.6950   36.5610   45.2860 H   0  0  0  0  0  0  0  0  0  0  0  0
   59.9540   35.8260   45.9770 N   0  0  0  0  0  0  0  0  0  0  0  0
   59.5800   34.5850   45.9100 C   0  0  0  0  0  0  0  0  0  0  0  0
   58.5720   34.2570   45.0600 N   0  0  0  0  0  0  0  0  0  0  0  0
   58.0710   32.9990   44.9850 C   0  0  0  0  0  0  0  0  0  0  0  0
   57.2630   32.7663   44.2758 H   0  0  0  0  0  0  0  0  0  0  0  0
   58.5900   31.9960   45.8180 C   0  0  0  0  0  0  0  0  0  0  0  0
   58.0650   30.6070   45.8060 C   0  0  0  0  0  0  0  0  0  0  0  0
   57.0700   30.2440   44.8810 C   0  0  0  0  0  0  0  0  0  0  0  0
   56.6891   30.9914   44.1694 H   0  0  0  0  0  0  0  0  0  0  0  0
   56.5600   28.9420   44.8570 C   0  0  0  0  0  0  0  0  0  0  0  0
   55.7793   28.6738   44.1300 H   0  0  0  0  0  0  0  0  0  0  0  0
   57.0380   27.9770   45.7540 C   0  0  0  0  0  0  0  0  0  0  0  0
   56.4940   26.6040   45.7500 C   0  0  0  0  0  0  0  0  0  0  0  0
   57.2680   25.6420   45.5020 O   0  0  0  0  0  0  0  0  0  0  0  0
   55.1070   26.3290   45.9840 N   0  0  0  0  0  0  0  0  0  0  0  0
   54.4330   25.0890   45.6230 C   0  0  0  0  0  0  0  0  0  0  0  0
   54.1406   24.5511   46.5369 H   0  0  0  0  0  0  0  0  0  0  0  0
   53.5356   25.3187   45.0298 H   0  0  0  0  0  0  0  0  0  0  0  0
   55.1138   24.4609   45.0298 H   0  0  0  0  0  0  0  0  0  0  0  0
   58.0030   28.3430   46.7030 C   0  0  0  0  0  0  0  0  0  0  0  0
   58.3583   27.6015   47.4337 H   0  0  0  0  0  0  0  0  0  0  0  0
   58.5170   29.6420   46.7280 C   0  0  0  0  0  0  0  0  0  0  0  0
   59.2798   29.9133   47.4726 H   0  0  0  0  0  0  0  0  0  0  0  0
   59.6030   32.3210   46.6660 N   0  0  0  0  0  0  0  0  0  0  0  0
   60.1340   33.5720   46.7320 C   0  0  0  0  0  0  0  0  0  0  0  0
   61.2750   33.7870   47.6450 C   0  0  0  0  0  0  0  0  0  0  0  0
   61.2390   34.4540   48.8570 C   0  0  0  0  0  0  0  0  0  0  0  0
   60.3744   35.0062   49.2539 H   0  0  0  0  0  0  0  0  0  0  0  0
   62.4280   34.3210   49.4740 N   0  0  0  0  0  0  0  0  0  0  0  0
   63.2060   33.5910   48.6900 N   0  0  0  0  0  0  0  0  0  0  0  0
   64.5430   33.1480   49.0600 C   0  0  0  0  0  0  0  0  0  0  0  0
   64.6295   33.1193   50.1562 H   0  0  0  0  0  0  0  0  0  0  0  0
   64.7222   32.1425   48.6516 H   0  0  0  0  0  0  0  0  0  0  0  0
   65.2872   33.8476   48.6516 H   0  0  0  0  0  0  0  0  0  0  0  0
   62.5340   33.2220   47.5840 C   0  0  0  0  0  0  0  0  0  0  0  0
   62.9190   32.5838   46.7750 H   0  0  0  0  0  0  0  0  0  0  0  0
  1  2  1  0
  2  3  2  0
  3  4  1  0
  4  5  1  0
  5  6  1  0
  5  7  2  0
  7  8  1  0
  8  9  2  0
  9 10  1  0
  9 11  1  0
 11 12  1  0
 11 13  2  0
 13 14  1  0
 14 15  2  0
 14 16  1  0
 16 17  1  0
 17 18  1  0
 17 19  1  0
 17 20  1  0
 13 21  1  0
 21 22  1  0
 21 23  2  0
 23 24  1  0
  7 25  1  0
 25 26  2  0
 26 27  1  0
 27 28  1  0
 28 29  1  0
 28 30  2  0
 30 31  1  0
 31 32  1  0
 32 33  1  0
 32 34  1  0
 32 35  1  0
 31 36  1  0
 36 37  1  0
 26  3  1  0
 36 27  2  0
 23  8  1  0
M  CHG  2   4  -1  16  -1
M  END
>  <UniqueID>  (41) 
38

>  <SMILES>  (41) 
[H]/N=c1/[n-]cc(-c2ccc(C(=O)[N-]C)cc2)nc1-c1cnn(C)c1

>  <Energy>  (41) 
84.5368856252237

>  <Genealogy>  (41) 
C[N-]C(=O)c1ccc(-c2c[n-]c(=N)c(-c3cnn(C)c3)n2)cc1 (protonated)
[H]/N=c1/[n-]cc(-c2ccc(C(=O)[N-]C)cc2)nc1-c1cnn(C)c1 (cis-trans isomerization)
[H]/N=c1/[n-]cc(-c2ccc(C(=O)[N-]C)cc2)nc1-c1cnn(C)c1 (3D coordinates assigned)
[H]/N=c1/[n-]cc(-c2ccc(C(=O)[N-]C)cc2)nc1-c1cnn(C)c1 (optimized conformer: 84.5368856252237 kcal/mol)

>  <smiles>  (41) 
CNC(=O)c1ccc(-c2c[nH]c(=N)c(-c3cnn(C)c3)n2)cc1

>  <score_type>  (41) 
oracle

>  <origin>  (41) 
adg

>  <m_score__min__energy>  (41) 
-10.26

>  <m_primary>  (41) 
energy

$$$$
41:0
     RDKit          3D

 40 42  0  0  0  0  0  0  0  0999 V2000
   54.8602   24.0879   46.5639 H   0  0  0  0  0  0  0  0  0  0  0  0
   55.6720   24.7940   46.3350 C   0  0  0  0  0  0  0  0  0  0  0  0
   55.3800   26.0650   45.9600 N   0  0  0  0  0  0  0  0  0  0  0  0
   56.3340   26.9910   45.6680 C   0  0  0  0  0  0  0  0  0  0  0  0
   55.9190   28.1600   45.2550 N   0  0  0  0  0  0  0  0  0  0  0  0
   56.6760   29.3450   44.9810 C   0  0  0  0  0  0  0  0  0  0  0  0
   56.6610   29.9240   43.7050 C   0  0  0  0  0  0  0  0  0  0  0  0
   56.0651   29.4651   42.9023 H   0  0  0  0  0  0  0  0  0  0  0  0
   57.4000   31.0820   43.4480 C   0  0  0  0  0  0  0  0  0  0  0  0
   57.3930   31.6090   42.1970 F   0  0  0  0  0  0  0  0  0  0  0  0
   58.1280   31.7030   44.4770 C   0  0  0  0  0  0  0  0  0  0  0  0
   58.8950   32.8810   44.1850 N   0  0  0  0  0  0  0  0  0  0  0  0
   59.1260   33.0950   43.1880 H   0  0  0  0  0  0  0  0  0  0  0  0
   59.1040   34.1740   45.3240 S   0  0  0  0  0  0  0  0  0  0  0  0
   59.2730   35.4770   44.5950 O   0  0  0  0  0  0  0  0  0  0  0  0
   57.8820   34.2550   46.1940 O   0  0  0  0  0  0  0  0  0  0  0  0
   60.5130   33.8630   46.3680 C   0  0  0  0  0  0  0  0  0  0  0  0
   60.2094   33.9300   47.4232 H   0  0  0  0  0  0  0  0  0  0  0  0
   60.9063   32.8564   46.1628 H   0  0  0  0  0  0  0  0  0  0  0  0
   61.2935   34.6105   46.1628 H   0  0  0  0  0  0  0  0  0  0  0  0
   58.1130   31.1360   45.7660 C   0  0  0  0  0  0  0  0  0  0  0  0
   58.8470   31.6700   46.7730 F   0  0  0  0  0  0  0  0  0  0  0  0
   57.3710   29.9770   46.0170 C   0  0  0  0  0  0  0  0  0  0  0  0
   57.3340   29.5606   47.0345 H   0  0  0  0  0  0  0  0  0  0  0  0
   57.7090   26.6270   45.8200 C   0  0  0  0  0  0  0  0  0  0  0  0
   58.8350   27.5880   45.7810 C   0  0  0  0  0  0  0  0  0  0  0  0
   59.3860   28.0710   46.9800 C   0  0  0  0  0  0  0  0  0  0  0  0
   58.9826   27.7301   47.9449 H   0  0  0  0  0  0  0  0  0  0  0  0
   60.4460   28.9840   46.9510 C   0  0  0  0  0  0  0  0  0  0  0  0
   60.8620   29.3735   47.8919 H   0  0  0  0  0  0  0  0  0  0  0  0
   60.9760   29.4010   45.7280 C   0  0  0  0  0  0  0  0  0  0  0  0
   61.8043   30.1245   45.7064 H   0  0  0  0  0  0  0  0  0  0  0  0
   60.4550   28.9000   44.5310 C   0  0  0  0  0  0  0  0  0  0  0  0
   60.8794   29.2242   43.5694 H   0  0  0  0  0  0  0  0  0  0  0  0
   59.3960   27.9880   44.5540 C   0  0  0  0  0  0  0  0  0  0  0  0
   58.8920   27.5230   43.3820 F   0  0  0  0  0  0  0  0  0  0  0  0
   58.0130   25.3030   46.1790 C   0  0  0  0  0  0  0  0  0  0  0  0
   59.0640   24.9892   46.2627 H   0  0  0  0  0  0  0  0  0  0  0  0
   56.9970   24.3840   46.4300 C   0  0  0  0  0  0  0  0  0  0  0  0
   57.2401   23.3458   46.7003 H   0  0  0  0  0  0  0  0  0  0  0  0
  1  2  1  0
  2  3  1  0
  3  4  1  0
  4  5  2  0
  5  6  1  0
  6  7  2  0
  7  8  1  0
  7  9  1  0
  9 10  1  0
  9 11  2  0
 11 12  1  0
 12 13  1  0
 12 14  1  0
 14 15  2  0
 14 16  2  0
 14 17  1  0
 17 18  1  0
 17 19  1  0
 17 20  1  0
 11 21  1  0
 21 22  1  0
 21 23  2  0
 23 24  1  0
  4 25  1  0
 25 26  1  0
 26 27  2  0
 27 28  1  0
 27 29  1  0
 29 30  1  0
 29 31  2  0
 31 32  1  0
 31 33  1  0
 33 34  1  0
 33 35  2  0
 35 36  1  0
 25 37  2  0
 37 38  1  0
 37 39  1  0
 39 40  1  0
 39  2  2  0
 23  6  1  0
 35 26  1  0
M  CHG  1   3  -1
M  END
>  <UniqueID>  (42) 
39

>  <SMILES>  (42) 
CS(=O)(=O)Nc1c(F)cc(/N=c2/[n-]cccc2-c2ccccc2F)cc1F

>  <Energy>  (42) 
65.45620838744325

>  <Genealogy>  (42) 
CS(=O)(=O)Nc1c(F)cc(N=c2[n-]cccc2-c2ccccc2F)cc1F (protonated)
CS(=O)(=O)Nc1c(F)cc(/N=c2/[n-]cccc2-c2ccccc2F)cc1F (cis-trans isomerization)
CS(=O)(=O)Nc1c(F)cc(/N=c2/[n-]cccc2-c2ccccc2F)cc1F (3D coordinates assigned)
CS(=O)(=O)Nc1c(F)cc(/N=c2/[n-]cccc2-c2ccccc2F)cc1F (optimized conformer: 65.45620838744325 kcal/mol)

>  <smiles>  (42) 
CS(=O)(=O)Nc1c(F)cc(N=c2[nH]cccc2-c2ccccc2F)cc1F

>  <score_type>  (42) 
oracle

>  <origin>  (42) 
adg

>  <m_score__min__energy>  (42) 
-9.5299999999999994

>  <m_primary>  (42) 
energy

$$$$
42:0
     RDKit          3D

 76 79  0  0  1  0  0  0  0  0999 V2000
   57.0710   21.2710   42.9830 C   0  0  0  0  0  0  0  0  0  0  0  0
   56.7760   22.4360   43.8600 C   0  0  0  0  0  0  0  0  0  0  0  0
   55.5140   23.0100   43.8020 C   0  0  0  0  0  0  0  0  0  0  0  0
   55.2640   24.0970   44.6310 C   0  0  0  0  0  0  0  0  0  0  0  0
   56.2440   24.5880   45.4840 C   0  0  0  0  0  0  0  0  0  0  0  0
   55.9960   25.7150   46.3450 N   0  0  0  0  0  0  0  0  0  0  0  0
   56.9520   26.5960   46.3930 C   0  0  0  0  0  0  0  0  0  0  0  0
   56.9580   27.5950   45.4600 N   0  0  0  0  0  0  0  0  0  0  0  0
   57.9210   28.5310   45.4640 C   0  0  0  0  0  0  0  0  0  0  0  0
   58.0090   29.6520   44.5190 C   0  0  0  0  0  0  0  0  0  0  0  0
   57.3060   30.8450   44.9230 N   0  0  0  0  0  0  0  0  0  0  0  0
   57.2270   31.8020   43.8740 C   0  0  0  0  0  0  0  0  0  0  0  0
   58.3480   32.8210   43.9610 C   0  0  0  0  0  0  0  0  0  0  0  0
   58.1700   33.5800   45.1550 N   0  0  0  0  0  0  0  0  0  0  0  0
   59.1260   34.6060   45.4020 C   0  0  0  0  0  0  0  0  0  0  0  0
   59.9610   34.2950   46.5790 C   0  0  0  0  0  0  0  0  0  0  0  0
   61.1810   33.6590   46.3800 C   0  0  0  0  0  0  0  0  0  0  0  0
   61.9770   33.3650   47.4690 C   0  0  0  0  0  0  0  0  0  0  0  0
   61.6150   33.6750   48.7560 C   0  0  0  0  0  0  0  0  0  0  0  0
   60.4100   34.3030   48.9670 C   0  0  0  0  0  0  0  0  0  0  0  0
   59.6160   34.5970   47.8770 C   0  0  0  0  0  0  0  0  0  0  0  0
   57.6870   32.8750   46.2890 C   0  0  0  0  0  0  0  0  0  0  0  0
   57.8110   31.3730   46.1620 C   0  0  0  0  0  0  0  0  0  0  0  0
   58.8930   28.4620   46.4200 N   0  0  0  0  0  0  0  0  0  0  0  0
   58.9000   27.4870   47.3430 C   0  0  0  0  0  0  0  0  0  0  0  0
   59.8090   27.4150   48.2480 N   0  0  0  0  0  0  0  0  0  0  0  0
   59.9910   28.3500   49.3340 C   0  0  0  0  0  0  0  0  0  0  0  0
   60.4400   29.6610   48.6860 C   0  0  0  0  0  0  0  0  0  0  0  0
   59.4140   30.7490   48.8920 C   0  0  0  0  0  0  0  0  0  0  0  0
   59.1440   30.8540   50.3120 N   0  0  0  0  0  0  0  0  0  0  0  0
   60.3980   31.2910   50.9350 C   0  0  0  0  0  0  0  0  0  0  0  0
   58.1500   31.9330   50.4250 C   0  0  0  0  0  0  0  0  0  0  0  0
   57.9270   26.5610   47.3210 N   0  0  0  0  0  0  0  0  0  0  0  0
   57.4950   23.9900   45.5160 C   0  0  0  0  0  0  0  0  0  0  0  0
   57.7640   22.9170   44.7080 C   0  0  0  0  0  0  0  0  0  0  0  0
   59.0980   22.2430   44.7100 C   0  0  0  0  0  0  0  0  0  0  0  0
   57.2938   20.3912   43.6046 H   0  0  0  0  0  0  0  0  0  0  0  0
   56.1980   21.0597   42.3480 H   0  0  0  0  0  0  0  0  0  0  0  0
   57.9393   21.5007   42.3480 H   0  0  0  0  0  0  0  0  0  0  0  0
   54.7402   22.6191   43.1249 H   0  0  0  0  0  0  0  0  0  0  0  0
   54.2741   24.5762   44.6113 H   0  0  0  0  0  0  0  0  0  0  0  0
   56.2060   27.6130   44.7390 H   0  0  0  0  0  0  0  0  0  0  0  0
   59.0711   29.9083   44.3912 H   0  0  0  0  0  0  0  0  0  0  0  0
   57.5280   29.3106   43.5905 H   0  0  0  0  0  0  0  0  0  0  0  0
   57.2940   31.2794   42.9084 H   0  0  0  0  0  0  0  0  0  0  0  0
   56.2695   32.3355   43.9668 H   0  0  0  0  0  0  0  0  0  0  0  0
   59.3189   32.3047   43.9895 H   0  0  0  0  0  0  0  0  0  0  0  0
   58.3273   33.4838   43.0834 H   0  0  0  0  0  0  0  0  0  0  0  0
   59.7754   34.7093   44.5202 H   0  0  0  0  0  0  0  0  0  0  0  0
   58.5840   35.5423   45.6008 H   0  0  0  0  0  0  0  0  0  0  0  0
   61.5090   33.3925   45.3644 H   0  0  0  0  0  0  0  0  0  0  0  0
   62.9402   32.8620   47.2983 H   0  0  0  0  0  0  0  0  0  0  0  0
   62.2745   33.4265   49.6005 H   0  0  0  0  0  0  0  0  0  0  0  0
   60.0852   34.5659   49.9846 H   0  0  0  0  0  0  0  0  0  0  0  0
   58.6544   35.1005   48.0553 H   0  0  0  0  0  0  0  0  0  0  0  0
   58.2600   33.1986   47.1705 H   0  0  0  0  0  0  0  0  0  0  0  0
   56.6153   33.1050   46.3813 H   0  0  0  0  0  0  0  0  0  0  0  0
   58.8750   31.1061   46.2432 H   0  0  0  0  0  0  0  0  0  0  0  0
   57.2008   30.9351   46.9657 H   0  0  0  0  0  0  0  0  0  0  0  0
   59.0452   28.4954   49.8766 H   0  0  0  0  0  0  0  0  0  0  0  0
   60.7301   27.9850   50.0623 H   0  0  0  0  0  0  0  0  0  0  0  0
   61.3930   29.9761   49.1360 H   0  0  0  0  0  0  0  0  0  0  0  0
   60.5591   29.4935   47.6054 H   0  0  0  0  0  0  0  0  0  0  0  0
   59.8051   31.7057   48.5156 H   0  0  0  0  0  0  0  0  0  0  0  0
   58.4898   30.5079   48.3464 H   0  0  0  0  0  0  0  0  0  0  0  0
   60.2955   31.2553   52.0296 H   0  0  0  0  0  0  0  0  0  0  0  0
   61.2150   30.6246   50.6213 H   0  0  0  0  0  0  0  0  0  0  0  0
   60.6239   32.3208   50.6213 H   0  0  0  0  0  0  0  0  0  0  0  0
   57.9563   32.1433   51.4872 H   0  0  0  0  0  0  0  0  0  0  0  0
   58.5359   32.8397   49.9361 H   0  0  0  0  0  0  0  0  0  0  0  0
   57.2147   31.6226   49.9361 H   0  0  0  0  0  0  0  0  0  0  0  0
   57.8780   25.7810   48.0090 H   0  0  0  0  0  0  0  0  0  0  0  0
   58.2721   24.3778   46.1910 H   0  0  0  0  0  0  0  0  0  0  0  0
   59.4240   22.0783   45.7476 H   0  0  0  0  0  0  0  0  0  0  0  0
   59.0209   21.2757   44.1919 H   0  0  0  0  0  0  0  0  0  0  0  0
   59.8309   22.8790   44.1919 H   0  0  0  0  0  0  0  0  0  0  0  0
  1  2  1  0
  2  3  2  0
  3  4  1  0
  4  5  2  0
  5  6  1  0
  6  7  2  0
  7  8  1  0
  8  9  1  0
  9 10  1  0
 10 11  1  0
 11 12  1  0
 12 13  1  0
 13 14  1  0
 14 15  1  0
 15 16  1  0
 16 17  2  0
 17 18  1  0
 18 19  2  0
 19 20  1  0
 20 21  2  0
 14 22  1  0
 22 23  1  0
  9 24  2  0
 24 25  1  0
 25 26  2  0
 26 27  1  0
 27 28  1  0
 28 29  1  0
 29 30  1  0
 30 31  1  0
 30 32  1  0
 25 33  1  0
  5 34  1  0
 34 35  2  0
 35 36  1  0
 35  2  1  0
 33  7  1  0
 23 11  1  0
 21 16  1  0
  1 37  1  0
  1 38  1  0
  1 39  1  0
  3 40  1  0
  4 41  1  0
  8 42  1  0
 10 43  1  0
 10 44  1  0
 12 45  1  0
 12 46  1  0
 13 47  1  0
 13 48  1  0
 15 49  1  0
 15 50  1  0
 17 51  1  0
 18 52  1  0
 19 53  1  0
 20 54  1  0
 21 55  1  0
 22 56  1  0
 22 57  1  0
 23 58  1  0
 23 59  1  0
 27 60  1  0
 27 61  1  0
 28 62  1  0
 28 63  1  0
 29 64  1  0
 29 65  1  0
 31 66  1  0
 31 67  1  0
 31 68  1  0
 32 69  1  0
 32 70  1  0
 32 71  1  0
 33 72  1  0
 34 73  1  0
 36 74  1  0
 36 75  1  0
 36 76  1  0
M  END
>  <smiles>  (43) 
Cc1ccc(N=c2[nH]c(CN3CCN(Cc4ccccc4)CC3)nc(=NCCCN(C)C)[nH]2)cc1C

>  <score_type>  (43) 
oracle

>  <origin>  (43) 
adg

>  <m_score__min__energy>  (43) 
-10.17

>  <m_primary>  (43) 
energy

$$$$
43:0
     RDKit          3D

 51 53  0  0  0  0  0  0  0  0999 V2000
   56.0330   29.8620   52.8120 C   0  0  0  0  0  0  0  0  0  0  0  0
   57.0370   29.6960   51.8170 O   0  0  0  0  0  0  0  0  0  0  0  0
   57.7770   30.7460   51.2540 C   0  0  0  0  0  0  0  0  0  0  0  0
   57.7860   32.0430   51.8030 C   0  0  0  0  0  0  0  0  0  0  0  0
   58.5390   33.0560   51.2030 C   0  0  0  0  0  0  0  0  0  0  0  0
   59.2940   32.7990   50.0530 C   0  0  0  0  0  0  0  0  0  0  0  0
   60.0320   33.8560   49.4960 O   0  0  0  0  0  0  0  0  0  0  0  0
   60.4870   33.9330   48.1440 C   0  0  0  0  0  0  0  0  0  0  0  0
   59.3780   34.4660   47.2240 C   0  0  2  0  0  0  0  0  0  0  0  0
   58.1490   33.5110   47.2220 C   0  0  0  0  0  0  0  0  0  0  0  0
   57.9930   32.8010   45.9370 N   0  0  0  0  0  0  0  0  0  0  0  0
   59.0040   31.7340   45.7600 C   0  0  0  0  0  0  0  0  0  0  0  0
   58.3390   30.3830   45.7800 C   0  0  0  0  0  0  0  0  0  0  0  0
   57.3190   30.0910   44.8650 C   0  0  0  0  0  0  0  0  0  0  0  0
   56.7050   28.8360   44.8670 C   0  0  0  0  0  0  0  0  0  0  0  0
   57.0990   27.8450   45.7850 C   0  0  0  0  0  0  0  0  0  0  0  0
   56.4360   26.5130   45.7750 C   0  0  0  0  0  0  0  0  0  0  0  0
   57.1990   25.2490   45.5120 C   0  0  0  0  0  0  0  0  0  0  0  0
   55.1970   26.4290   45.9920 O   0  0  0  0  0  0  0  0  0  0  0  0
   58.1270   28.1440   46.7020 C   0  0  0  0  0  0  0  0  0  0  0  0
   58.7400   29.4010   46.6980 C   0  0  0  0  0  0  0  0  0  0  0  0
   57.9620   33.7510   44.8000 C   0  0  0  0  0  0  0  0  0  0  0  0
   58.8900   34.9630   45.0130 C   0  0  0  0  0  0  0  0  0  0  0  0
   59.9190   34.6500   45.9250 O   0  0  0  0  0  0  0  0  0  0  0  0
   59.2900   31.4990   49.5080 C   0  0  0  0  0  0  0  0  0  0  0  0
   58.5350   30.4870   50.1080 C   0  0  0  0  0  0  0  0  0  0  0  0
   56.4897   29.7865   53.8099 H   0  0  0  0  0  0  0  0  0  0  0  0
   55.5632   30.8500   52.6976 H   0  0  0  0  0  0  0  0  0  0  0  0
   55.2702   29.0778   52.6976 H   0  0  0  0  0  0  0  0  0  0  0  0
   57.1982   32.2594   52.7073 H   0  0  0  0  0  0  0  0  0  0  0  0
   58.5382   34.0658   51.6392 H   0  0  0  0  0  0  0  0  0  0  0  0
   61.3534   34.6088   48.0931 H   0  0  0  0  0  0  0  0  0  0  0  0
   60.7680   32.9237   47.8088 H   0  0  0  0  0  0  0  0  0  0  0  0
   59.0124   35.4350   47.5947 H   0  0  0  0  0  0  0  0  0  0  0  0
   58.2769   32.7683   48.0232 H   0  0  0  0  0  0  0  0  0  0  0  0
   57.2480   34.1218   47.3804 H   0  0  0  0  0  0  0  0  0  0  0  0
   59.5155   31.8736   44.7962 H   0  0  0  0  0  0  0  0  0  0  0  0
   59.7331   31.7888   46.5818 H   0  0  0  0  0  0  0  0  0  0  0  0
   56.9996   30.8546   44.1405 H   0  0  0  0  0  0  0  0  0  0  0  0
   55.9052   28.6203   44.1433 H   0  0  0  0  0  0  0  0  0  0  0  0
   57.4795   24.7843   46.4687 H   0  0  0  0  0  0  0  0  0  0  0  0
   56.5696   24.5537   44.9372 H   0  0  0  0  0  0  0  0  0  0  0  0
   58.1075   25.4820   44.9372 H   0  0  0  0  0  0  0  0  0  0  0  0
   58.4498   27.3822   47.4269 H   0  0  0  0  0  0  0  0  0  0  0  0
   59.5412   29.6209   47.4189 H   0  0  0  0  0  0  0  0  0  0  0  0
   58.2786   33.2209   43.8896 H   0  0  0  0  0  0  0  0  0  0  0  0
   56.9335   34.1311   44.7121 H   0  0  0  0  0  0  0  0  0  0  0  0
   59.3366   35.2493   44.0494 H   0  0  0  0  0  0  0  0  0  0  0  0
   58.2969   35.7945   45.4215 H   0  0  0  0  0  0  0  0  0  0  0  0
   59.8829   31.2802   48.6077 H   0  0  0  0  0  0  0  0  0  0  0  0
   58.5373   29.4763   49.6740 H   0  0  0  0  0  0  0  0  0  0  0  0
  1  2  1  0
  2  3  1  0
  3  4  2  0
  4  5  1  0
  5  6  2  0
  6  7  1  0
  7  8  1  0
  8  9  1  0
  9 10  1  0
 10 11  1  0
 11 12  1  0
 12 13  1  0
 13 14  2  0
 14 15  1  0
 15 16  2  0
 16 17  1  0
 17 18  1  0
 17 19  2  0
 16 20  1  0
 20 21  2  0
 11 22  1  0
 22 23  1  0
 23 24  1  0
  6 25  1  0
 25 26  2  0
 26  3  1  0
 24  9  1  0
 21 13  1  0
  1 27  1  0
  1 28  1  0
  1 29  1  0
  4 30  1  0
  5 31  1  0
  8 32  1  0
  8 33  1  0
  9 34  1  1
 10 35  1  0
 10 36  1  0
 12 37  1  0
 12 38  1  0
 14 39  1  0
 15 40  1  0
 18 41  1  0
 18 42  1  0
 18 43  1  0
 20 44  1  0
 21 45  1  0
 22 46  1  0
 22 47  1  0
 23 48  1  0
 23 49  1  0
 25 50  1  0
 26 51  1  0
M  END
>  <UniqueID>  (44) 
40

>  <SMILES>  (44) 
COc1ccc(OC[C@@H]2CN(Cc3ccc(C(C)=O)cc3)CCO2)cc1

>  <Energy>  (44) 
63.122640304360665

>  <Genealogy>  (44) 
COc1ccc(OC[C@@H]2CN(Cc3ccc(C(C)=O)cc3)CCO2)cc1 (chirality)
COc1ccc(OC[C@@H]2CN(Cc3ccc(C(C)=O)cc3)CCO2)cc1 (3D coordinates assigned)
COc1ccc(OC[C@@H]2CN(Cc3ccc(C(C)=O)cc3)CCO2)cc1 (nonaromatic ring conformer: 63.122640304360665 kcal/mol)

>  <smiles>  (44) 
COc1ccc(OCC2CN(Cc3ccc(C(C)=O)cc3)CCO2)cc1

>  <score_type>  (44) 
oracle

>  <origin>  (44) 
adg

>  <m_score__min__energy>  (44) 
-8.9100000000000001

>  <m_primary>  (44) 
energy

$$$$
44:0
     RDKit          3D

 43 45  0  0  0  0  0  0  0  0999 V2000
   56.2170   30.1840   43.5990 C   0  0  0  0  0  0  0  0  0  0  0  0
   56.6970   30.4960   44.9030 O   0  0  0  0  0  0  0  0  0  0  0  0
   57.4700   31.6250   45.2200 C   0  0  0  0  0  0  0  0  0  0  0  0
   56.9580   32.9340   45.0950 C   0  0  0  0  0  0  0  0  0  0  0  0
   57.7440   34.0380   45.4380 C   0  0  0  0  0  0  0  0  0  0  0  0
   59.0450   33.8540   45.9100 C   0  0  0  0  0  0  0  0  0  0  0  0
   60.0190   35.2420   46.3620 Cl  0  0  0  0  0  0  0  0  0  0  0  0
   59.5660   32.5640   46.0340 C   0  0  0  0  0  0  0  0  0  0  0  0
   58.7930   31.4410   45.6820 C   0  0  0  0  0  0  0  0  0  0  0  0
   59.3370   30.1140   45.8560 N   0  0  0  0  0  0  0  0  0  0  0  0
   59.2440   29.3610   44.5960 C   0  0  0  0  0  0  0  0  0  0  0  0
   58.4530   28.0970   44.7940 C   0  0  0  0  0  0  0  0  0  0  0  0
   58.5230   27.1880   43.9230 O   0  0  0  0  0  0  0  0  0  0  0  0
   57.6680   27.8690   45.9700 N   0  0  0  0  0  0  0  0  0  0  0  0
   57.9460   26.8390   46.9660 C   0  0  0  0  0  0  0  0  0  0  0  0
   59.3500   27.0210   47.5370 C   0  0  0  0  0  0  0  0  0  0  0  0
   59.5310   28.3990   48.0940 C   0  0  0  0  0  0  0  0  0  0  0  0
   60.6980   29.0890   47.9800 N   0  0  0  0  0  0  0  0  0  0  0  0
   60.3960   30.2620   48.5570 C   0  0  0  0  0  0  0  0  0  0  0  0
   61.2270   31.3670   48.7280 C   0  0  0  0  0  0  0  0  0  0  0  0
   60.6840   32.5000   49.3640 C   0  0  0  0  0  0  0  0  0  0  0  0
   59.3400   32.4960   49.8060 C   0  0  0  0  0  0  0  0  0  0  0  0
   58.5280   31.3610   49.6130 C   0  0  0  0  0  0  0  0  0  0  0  0
   59.1010   30.2580   48.9830 C   0  0  0  0  0  0  0  0  0  0  0  0
   58.5210   29.0840   48.6950 N   0  0  0  0  0  0  0  0  0  0  0  0
   55.2972   29.5861   43.6802 H   0  0  0  0  0  0  0  0  0  0  0  0
   56.0020   31.1155   43.0548 H   0  0  0  0  0  0  0  0  0  0  0  0
   56.9810   29.6094   43.0548 H   0  0  0  0  0  0  0  0  0  0  0  0
   55.9334   33.0867   44.7251 H   0  0  0  0  0  0  0  0  0  0  0  0
   57.3363   35.0545   45.3357 H   0  0  0  0  0  0  0  0  0  0  0  0
   60.5901   32.4240   46.4103 H   0  0  0  0  0  0  0  0  0  0  0  0
   60.3360   30.1720   46.1620 H   0  0  0  0  0  0  0  0  0  0  0  0
   58.8090   29.6140   46.6100 H   0  0  0  0  0  0  0  0  0  0  0  0
   58.7468   29.9840   43.8380 H   0  0  0  0  0  0  0  0  0  0  0  0
   60.2589   29.0969   44.2640 H   0  0  0  0  0  0  0  0  0  0  0  0
   57.2103   26.9135   47.7804 H   0  0  0  0  0  0  0  0  0  0  0  0
   57.8791   25.8507   46.4877 H   0  0  0  0  0  0  0  0  0  0  0  0
   59.5097   26.2854   48.3391 H   0  0  0  0  0  0  0  0  0  0  0  0
   60.0787   26.8734   46.7263 H   0  0  0  0  0  0  0  0  0  0  0  0
   62.2700   31.3549   48.3787 H   0  0  0  0  0  0  0  0  0  0  0  0
   61.3080   33.3927   49.5179 H   0  0  0  0  0  0  0  0  0  0  0  0
   58.9262   33.3853   50.3038 H   0  0  0  0  0  0  0  0  0  0  0  0
   57.4801   31.3460   49.9473 H   0  0  0  0  0  0  0  0  0  0  0  0
  1  2  1  0
  2  3  1  0
  3  4  2  0
  4  5  1  0
  5  6  2  0
  6  7  1  0
  6  8  1  0
  8  9  2  0
  9 10  1  0
 10 11  1  0
 11 12  1  0
 12 13  2  0
 12 14  1  0
 14 15  1  0
 15 16  1  0
 16 17  1  0
 17 18  2  0
 18 19  1  0
 19 20  2  0
 20 21  1  0
 21 22  2  0
 22 23  1  0
 23 24  2  0
 24 25  1  0
  9  3  1  0
 25 17  1  0
 24 19  1  0
  1 26  1  0
  1 27  1  0
  1 28  1  0
  4 29  1  0
  5 30  1  0
  8 31  1  0
 10 32  1  0
 10 33  1  0
 11 34  1  0
 11 35  1  0
 15 36  1  0
 15 37  1  0
 16 38  1  0
 16 39  1  0
 20 40  1  0
 21 41  1  0
 22 42  1  0
 23 43  1  0
M  CHG  3  10   1  14  -1  25  -1
M  END
>  <UniqueID>  (45) 
41

>  <SMILES>  (45) 
COc1ccc(Cl)cc1[NH2+]CC(=O)[N-]CCc1nc2ccccc2[n-]1

>  <Energy>  (45) 
73.753992813848

>  <Genealogy>  (45) 
COc1ccc(Cl)cc1[NH2+]CC(=O)[N-]CCc1nc2ccccc2[n-]1 (protonated)
COc1ccc(Cl)cc1[NH2+]CC(=O)[N-]CCc1nc2ccccc2[n-]1 (3D coordinates assigned)
COc1ccc(Cl)cc1[NH2+]CC(=O)[N-]CCc1nc2ccccc2[n-]1 (optimized conformer: 73.753992813848 kcal/mol)

>  <smiles>  (45) 
COc1ccc(Cl)cc1NCC(=O)NCCc1nc2ccccc2[nH]1

>  <score_type>  (45) 
oracle

>  <origin>  (45) 
adg

>  <m_score__min__energy>  (45) 
-7.8399999999999999

>  <m_primary>  (45) 
energy

$$$$
45:0
     RDKit          3D

 44 46  0  0  0  0  0  0  0  0999 V2000
   61.5870   34.0810   48.9360 C   0  0  0  0  0  0  0  0  0  0  0  0
   60.2450   34.3720   48.6950 O   0  0  0  0  0  0  0  0  0  0  0  0
   59.6340   34.1400   47.5000 C   0  0  0  0  0  0  0  0  0  0  0  0
   59.6800   34.9460   46.3830 C   0  0  0  0  0  0  0  0  0  0  0  0
   59.0060   34.6000   45.2060 C   0  0  0  0  0  0  0  0  0  0  0  0
   58.2680   33.4450   45.1000 C   0  0  0  0  0  0  0  0  0  0  0  0
   57.5280   32.8250   44.1760 N   0  0  0  0  0  0  0  0  0  0  0  0
   57.0210   31.6730   44.6470 C   0  0  0  0  0  0  0  0  0  0  0  0
   55.9960   30.4600   43.8730 S   0  0  0  0  0  0  0  0  0  0  0  0
   56.9990   29.3570   42.8460 C   0  0  0  0  0  0  0  0  0  0  0  0
   57.4390   28.2220   43.7270 C   0  0  0  0  0  0  0  0  0  0  0  0
   57.7680   27.1010   43.2620 O   0  0  0  0  0  0  0  0  0  0  0  0
   57.4680   28.4730   45.1290 N   0  0  0  0  0  0  0  0  0  0  0  0
   57.8650   27.4810   46.1070 C   0  0  0  0  0  0  0  0  0  0  0  0
   56.7680   26.5400   46.3270 C   0  0  0  0  0  0  0  0  0  0  0  0
   55.8900   25.8080   46.4890 N   0  0  0  0  0  0  0  0  0  0  0  0
   59.0920   26.7470   45.6000 C   0  0  0  0  0  0  0  0  0  0  0  0
   60.3820   27.3340   46.1320 C   0  0  0  0  0  0  0  0  0  0  0  0
   60.3440   28.8300   46.0840 C   0  0  0  0  0  0  0  0  0  0  0  0
   59.2190   29.3240   46.9710 C   0  0  0  0  0  0  0  0  0  0  0  0
   58.2730   28.2000   47.3660 C   0  0  0  0  0  0  0  0  0  0  0  0
   57.4560   31.5490   45.9410 N   0  0  0  0  0  0  0  0  0  0  0  0
   58.2180   32.6310   46.2160 C   0  0  0  0  0  0  0  0  0  0  0  0
   58.8810   32.9730   47.3740 C   0  0  0  0  0  0  0  0  0  0  0  0
   61.7647   34.0425   50.0209 H   0  0  0  0  0  0  0  0  0  0  0  0
   61.8372   33.1077   48.4886 H   0  0  0  0  0  0  0  0  0  0  0  0
   62.2179   34.8632   48.4886 H   0  0  0  0  0  0  0  0  0  0  0  0
   60.2586   35.8809   46.4171 H   0  0  0  0  0  0  0  0  0  0  0  0
   59.0688   35.2735   44.3386 H   0  0  0  0  0  0  0  0  0  0  0  0
   57.3670   33.1960   43.2070 H   0  0  0  0  0  0  0  0  0  0  0  0
   56.4009   28.9741   42.0060 H   0  0  0  0  0  0  0  0  0  0  0  0
   57.8655   29.8889   42.4263 H   0  0  0  0  0  0  0  0  0  0  0  0
   57.1880   29.4340   45.4540 H   0  0  0  0  0  0  0  0  0  0  0  0
   59.0279   25.6947   45.9138 H   0  0  0  0  0  0  0  0  0  0  0  0
   59.1089   26.8430   44.5043 H   0  0  0  0  0  0  0  0  0  0  0  0
   60.5233   27.0099   47.1736 H   0  0  0  0  0  0  0  0  0  0  0  0
   61.2148   26.9818   45.5056 H   0  0  0  0  0  0  0  0  0  0  0  0
   61.3016   29.2349   46.4431 H   0  0  0  0  0  0  0  0  0  0  0  0
   60.1757   29.1643   45.0496 H   0  0  0  0  0  0  0  0  0  0  0  0
   59.6512   29.7621   47.8828 H   0  0  0  0  0  0  0  0  0  0  0  0
   58.6430   30.0719   46.4064 H   0  0  0  0  0  0  0  0  0  0  0  0
   58.7832   27.5029   48.0469 H   0  0  0  0  0  0  0  0  0  0  0  0
   57.3897   28.6036   47.8826 H   0  0  0  0  0  0  0  0  0  0  0  0
   58.8135   32.2954   48.2379 H   0  0  0  0  0  0  0  0  0  0  0  0
  1  2  1  0
  2  3  1  0
  3  4  2  0
  4  5  1  0
  5  6  2  0
  6  7  1  0
  7  8  1  0
  8  9  1  0
  9 10  1  0
 10 11  1  0
 11 12  2  0
 11 13  1  0
 13 14  1  0
 14 15  1  0
 15 16  3  0
 14 17  1  0
 17 18  1  0
 18 19  1  0
 19 20  1  0
 20 21  1  0
  8 22  2  0
 22 23  1  0
 23 24  2  0
 24  3  1  0
 23  6  1  0
 21 14  1  0
  1 25  1  0
  1 26  1  0
  1 27  1  0
  4 28  1  0
  5 29  1  0
  7 30  1  0
 10 31  1  0
 10 32  1  0
 13 33  1  0
 17 34  1  0
 17 35  1  0
 18 36  1  0
 18 37  1  0
 19 38  1  0
 19 39  1  0
 20 40  1  0
 20 41  1  0
 21 42  1  0
 21 43  1  0
 24 44  1  0
M  END
>  <smiles>  (46) 
COc1ccc2[nH]c(SCC(=O)NC3(C#N)CCCCC3)nc2c1

>  <score_type>  (46) 
oracle

>  <origin>  (46) 
adg

>  <m_score__min__energy>  (46) 
-7.6600000000000001

>  <m_primary>  (46) 
energy

$$$$
46:0
     RDKit          3D

 24 25  0  0  0  0  0  0  0  0999 V2000
   54.7520   29.6380   43.3880 O   0  0  0  0  0  0  0  0  0  0  0  0
   55.6850   29.7590   44.2270 C   0  0  0  0  0  0  0  0  0  0  0  0
   55.8340   28.7520   45.2370 N   0  0  0  0  0  0  0  0  0  0  0  0
   57.0180   27.9860   45.5010 C   0  0  0  0  0  0  0  0  0  0  0  0
   58.2990   28.4960   45.2230 C   0  0  0  0  0  0  0  0  0  0  0  0
   59.4370   27.7360   45.5130 C   0  0  0  0  0  0  0  0  0  0  0  0
   59.3070   26.4730   46.0960 C   0  0  0  0  0  0  0  0  0  0  0  0
   60.4130   25.7400   46.3770 F   0  0  0  0  0  0  0  0  0  0  0  0
   58.0360   25.9710   46.3980 C   0  0  0  0  0  0  0  0  0  0  0  0
   57.9110   24.7500   46.9750 F   0  0  0  0  0  0  0  0  0  0  0  0
   56.8960   26.7280   46.1090 C   0  0  0  0  0  0  0  0  0  0  0  0
   55.6680   26.2350   46.4100 F   0  0  0  0  0  0  0  0  0  0  0  0
   56.6390   30.8840   44.1030 C   0  0  0  0  0  0  0  0  0  0  0  0
   57.1980   31.2210   42.8600 C   0  0  0  0  0  0  0  0  0  0  0  0
   58.1040   32.2810   42.7790 C   0  0  0  0  0  0  0  0  0  0  0  0
   58.4490   32.9900   43.9300 C   0  0  0  0  0  0  0  0  0  0  0  0
   57.8830   32.6240   45.1520 C   0  0  0  0  0  0  0  0  0  0  0  0
   57.0020   31.5890   45.2110 N   0  0  0  0  0  0  0  0  0  0  0  0
   58.4063   29.4954   44.7762 H   0  0  0  0  0  0  0  0  0  0  0  0
   60.4362   28.1335   45.2816 H   0  0  0  0  0  0  0  0  0  0  0  0
   56.9247   30.6549   41.9573 H   0  0  0  0  0  0  0  0  0  0  0  0
   58.5447   32.5563   41.8095 H   0  0  0  0  0  0  0  0  0  0  0  0
   59.1592   33.8282   43.8749 H   0  0  0  0  0  0  0  0  0  0  0  0
   58.1492   33.1724   46.0676 H   0  0  0  0  0  0  0  0  0  0  0  0
  1  2  2  0
  2  3  1  0
  3  4  1  0
  4  5  2  0
  5  6  1  0
  6  7  2  0
  7  8  1  0
  7  9  1  0
  9 10  1  0
  9 11  2  0
 11 12  1  0
  2 13  1  0
 13 14  2  0
 14 15  1  0
 15 16  2  0
 16 17  1  0
 17 18  2  0
 11  4  1  0
 18 13  1  0
  5 19  1  0
  6 20  1  0
 14 21  1  0
 15 22  1  0
 16 23  1  0
 17 24  1  0
M  CHG  1   3  -1
M  END
>  <UniqueID>  (47) 
42

>  <SMILES>  (47) 
O=C([N-]c1ccc(F)c(F)c1F)c1ccccn1

>  <Energy>  (47) 
31.781767738216857

>  <Genealogy>  (47) 
O=C([N-]c1ccc(F)c(F)c1F)c1ccccn1 (protonated)
O=C([N-]c1ccc(F)c(F)c1F)c1ccccn1 (3D coordinates assigned)
O=C([N-]c1ccc(F)c(F)c1F)c1ccccn1 (optimized conformer: 31.781767738216857 kcal/mol)

>  <smiles>  (47) 
O=C(Nc1ccc(F)c(F)c1F)c1ccccn1

>  <score_type>  (47) 
oracle

>  <origin>  (47) 
adg

>  <m_score__min__energy>  (47) 
-8.3800000000000008

>  <m_primary>  (47) 
energy

$$$$
47:0
     RDKit          3D

 98105  0  0  0  0  0  0  0  0999 V2000
   60.6676   27.6294   48.8640 H   0  0  0  0  0  0  0  0  0  0  0  0
   60.9540   27.6140   49.9260 C   0  0  0  0  0  0  0  0  0  0  0  0
   61.5050   28.7560   50.5140 C   0  0  0  0  0  0  0  0  0  0  0  0
   61.6740   29.6576   49.9068 H   0  0  0  0  0  0  0  0  0  0  0  0
   61.8430   28.7570   51.8740 C   0  0  0  0  0  0  0  0  0  0  0  0
   62.3830   29.9580   52.4490 N   0  0  0  0  0  0  0  0  0  0  0  0
   63.7410   30.1990   52.8510 C   0  0  0  0  0  0  0  0  0  0  0  0
   64.5320   29.2490   53.0840 O   0  0  0  0  0  0  0  0  0  0  0  0
   64.2140   31.6110   53.0150 C   0  0  0  0  0  0  0  0  0  0  0  0
   63.8601   32.0019   53.9804 H   0  0  0  0  0  0  0  0  0  0  0  0
   65.3134   31.6250   52.9815 H   0  0  0  0  0  0  0  0  0  0  0  0
   63.6960   32.4510   51.9360 N   0  0  0  0  0  0  0  0  0  0  0  0
   64.3060   32.6160   51.1030 H   0  0  0  0  0  0  0  0  0  0  0  0
   62.3780   33.0140   51.9580 C   0  0  0  0  0  0  0  0  0  0  0  0
   61.6060   32.7780   52.9220 O   0  0  0  0  0  0  0  0  0  0  0  0
   61.8960   33.8630   50.8190 C   0  0  0  0  0  0  0  0  0  0  0  0
   60.7961   33.8758   50.8158 H   0  0  0  0  0  0  0  0  0  0  0  0
   62.2839   34.8847   50.9445 H   0  0  0  0  0  0  0  0  0  0  0  0
   62.3780   33.3220   49.5420 N   0  0  0  0  0  0  0  0  0  0  0  0
   62.2890   31.9780   49.3020 C   0  0  0  0  0  0  0  0  0  0  0  0
   61.8708   31.3137   50.0726 H   0  0  0  0  0  0  0  0  0  0  0  0
   62.7240   31.4410   48.0880 C   0  0  0  0  0  0  0  0  0  0  0  0
   62.6420   30.3607   47.8977 H   0  0  0  0  0  0  0  0  0  0  0  0
   63.2630   32.2870   47.1200 C   0  0  0  0  0  0  0  0  0  0  0  0
   63.6276   31.8751   46.1674 H   0  0  0  0  0  0  0  0  0  0  0  0
   63.3380   33.6590   47.3650 C   0  0  0  0  0  0  0  0  0  0  0  0
   63.7490   34.3378   46.6032 H   0  0  0  0  0  0  0  0  0  0  0  0
   62.8860   34.1610   48.5870 C   0  0  0  0  0  0  0  0  0  0  0  0
   62.9387   35.2419   48.7844 H   0  0  0  0  0  0  0  0  0  0  0  0
   61.6740   27.5780   52.6240 C   0  0  0  0  0  0  0  0  0  0  0  0
   61.9556   27.5638   53.6872 H   0  0  0  0  0  0  0  0  0  0  0  0
   61.1500   26.4210   52.0290 C   0  0  0  0  0  0  0  0  0  0  0  0
   60.9350   25.2520   52.8380 N   0  0  0  0  0  0  0  0  0  0  0  0
   61.6870   25.0100   53.5230 H   0  0  0  0  0  0  0  0  0  0  0  0
   59.8610   24.3080   52.6720 C   0  0  0  0  0  0  0  0  0  0  0  0
   58.6230   24.5860   53.2690 C   0  0  0  0  0  0  0  0  0  0  0  0
   58.4593   25.5589   53.7555 H   0  0  0  0  0  0  0  0  0  0  0  0
   57.5970   23.6410   53.2520 C   0  0  0  0  0  0  0  0  0  0  0  0
   56.6357   23.8696   53.7354 H   0  0  0  0  0  0  0  0  0  0  0  0
   57.7830   22.4000   52.6220 C   0  0  0  0  0  0  0  0  0  0  0  0
   56.7550   21.3450   52.7590 C   0  0  0  0  0  0  0  0  0  0  0  0
   56.4020   20.9560   53.9020 O   0  0  0  0  0  0  0  0  0  0  0  0
   56.1530   20.7600   51.5960 N   0  0  0  0  0  0  0  0  0  0  0  0
   55.9440   21.4910   50.3830 C   0  0  0  0  0  0  0  0  0  0  0  0
   57.0380   21.8830   49.6060 C   0  0  0  0  0  0  0  0  0  0  0  0
   58.0506   21.5506   49.8783 H   0  0  0  0  0  0  0  0  0  0  0  0
   56.8500   22.6960   48.4840 C   0  0  0  0  0  0  0  0  0  0  0  0
   57.7160   23.0098   47.8827 H   0  0  0  0  0  0  0  0  0  0  0  0
   55.5520   23.1150   48.1210 C   0  0  0  0  0  0  0  0  0  0  0  0
   55.3130   23.9670   46.9930 N   0  0  0  0  0  0  0  0  0  0  0  0
   56.2950   24.6770   46.2270 C   0  0  0  0  0  0  0  0  0  0  0  0
   57.4550   24.2030   46.0640 O   0  0  0  0  0  0  0  0  0  0  0  0
   55.9390   26.0110   45.6380 C   0  0  0  0  0  0  0  0  0  0  0  0
   55.9143   25.9202   44.5420 H   0  0  0  0  0  0  0  0  0  0  0  0
   54.9566   26.3066   46.0348 H   0  0  0  0  0  0  0  0  0  0  0  0
   56.9350   27.0790   46.0160 C   0  0  0  0  0  0  0  0  0  0  0  0
   57.0310   28.2650   45.2650 C   0  0  0  0  0  0  0  0  0  0  0  0
   56.4054   28.3984   44.3701 H   0  0  0  0  0  0  0  0  0  0  0  0
   57.9180   29.2750   45.6510 C   0  0  0  0  0  0  0  0  0  0  0  0
   57.9486   30.2205   45.0897 H   0  0  0  0  0  0  0  0  0  0  0  0
   58.7700   29.0880   46.7520 C   0  0  0  0  0  0  0  0  0  0  0  0
   59.5890   30.1550   47.2480 N   0  0  0  0  0  0  0  0  0  0  0  0
   59.3130   31.1980   47.9910 C   0  0  0  0  0  0  0  0  0  0  0  0
   59.3820   32.4690   47.3720 C   0  0  0  0  0  0  0  0  0  0  0  0
   59.5900   32.6150   45.9790 C   0  0  0  0  0  0  0  0  0  0  0  0
   59.6578   31.7206   45.3423 H   0  0  0  0  0  0  0  0  0  0  0  0
   59.7100   33.8820   45.4050 C   0  0  0  0  0  0  0  0  0  0  0  0
   59.8727   33.9805   44.3216 H   0  0  0  0  0  0  0  0  0  0  0  0
   59.6240   35.0240   46.2030 C   0  0  0  0  0  0  0  0  0  0  0  0
   59.7097   36.0214   45.7471 H   0  0  0  0  0  0  0  0  0  0  0  0
   59.4290   34.9000   47.5810 C   0  0  0  0  0  0  0  0  0  0  0  0
   59.3695   35.8014   48.2086 H   0  0  0  0  0  0  0  0  0  0  0  0
   59.3090   33.6340   48.1670 C   0  0  0  0  0  0  0  0  0  0  0  0
   59.1420   33.5330   49.5050 N   0  0  0  0  0  0  0  0  0  0  0  0
   58.9840   32.3410   50.1300 C   0  0  0  0  0  0  0  0  0  0  0  0
   58.7510   32.3300   51.5090 C   0  0  0  0  0  0  0  0  0  0  0  0
   58.8001   33.2685   52.0806 H   0  0  0  0  0  0  0  0  0  0  0  0
   58.4570   31.1350   52.1610 C   0  0  0  0  0  0  0  0  0  0  0  0
   58.1340   31.1340   53.8830 Cl  0  0  0  0  0  0  0  0  0  0  0  0
   58.3570   29.9550   51.4260 C   0  0  0  0  0  0  0  0  0  0  0  0
   58.0856   29.0172   51.9328 H   0  0  0  0  0  0  0  0  0  0  0  0
   58.5990   29.9550   50.0500 C   0  0  0  0  0  0  0  0  0  0  0  0
   58.4754   29.0243   49.4769 H   0  0  0  0  0  0  0  0  0  0  0  0
   59.0000   31.1340   49.3860 C   0  0  0  0  0  0  0  0  0  0  0  0
   58.6860   27.9030   47.4910 C   0  0  0  0  0  0  0  0  0  0  0  0
   59.3365   27.7571   48.3659 H   0  0  0  0  0  0  0  0  0  0  0  0
   57.7800   26.9030   47.1240 C   0  0  0  0  0  0  0  0  0  0  0  0
   57.7287   25.9718   47.7073 H   0  0  0  0  0  0  0  0  0  0  0  0
   54.4550   22.6560   48.8570 C   0  0  0  0  0  0  0  0  0  0  0  0
   53.4351   22.9301   48.5493 H   0  0  0  0  0  0  0  0  0  0  0  0
   54.6500   21.8510   49.9810 C   0  0  0  0  0  0  0  0  0  0  0  0
   53.7816   21.4965   50.5556 H   0  0  0  0  0  0  0  0  0  0  0  0
   58.9970   22.1340   51.9760 C   0  0  0  0  0  0  0  0  0  0  0  0
   59.1339   21.1865   51.4342 H   0  0  0  0  0  0  0  0  0  0  0  0
   60.0370   23.0710   52.0180 C   0  0  0  0  0  0  0  0  0  0  0  0
   60.9990   22.8402   51.5370 H   0  0  0  0  0  0  0  0  0  0  0  0
   60.7650   26.4530   50.6800 C   0  0  0  0  0  0  0  0  0  0  0  0
   60.3141   25.5635   50.2158 H   0  0  0  0  0  0  0  0  0  0  0  0
  1  2  1  0
  2  3  2  0
  3  4  1  0
  3  5  1  0
  5  6  1  0
  6  7  1  0
  7  8  2  0
  7  9  1  0
  9 10  1  0
  9 11  1  0
  9 12  1  0
 12 13  1  0
 12 14  1  0
 14 15  2  0
 14 16  1  0
 16 17  1  0
 16 18  1  0
 16 19  1  0
 19 20  2  0
 20 21  1  0
 20 22  1  0
 22 23  1  0
 22 24  2  0
 24 25  1  0
 24 26  1  0
 26 27  1  0
 26 28  2  0
 28 29  1  0
  5 30  2  0
 30 31  1  0
 30 32  1  0
 32 33  1  0
 33 34  1  0
 33 35  1  0
 35 36  2  0
 36 37  1  0
 36 38  1  0
 38 39  1  0
 38 40  2  0
 40 41  1  0
 41 42  2  0
 41 43  1  0
 43 44  1  0
 44 45  2  0
 45 46  1  0
 45 47  1  0
 47 48  1  0
 47 49  2  0
 49 50  1  0
 50 51  1  0
 51 52  2  0
 51 53  1  0
 53 54  1  0
 53 55  1  0
 53 56  1  0
 56 57  2  0
 57 58  1  0
 57 59  1  0
 59 60  1  0
 59 61  2  0
 61 62  1  0
 62 63  2  0
 63 64  1  0
 64 65  2  0
 65 66  1  0
 65 67  1  0
 67 68  1  0
 67 69  2  0
 69 70  1  0
 69 71  1  0
 71 72  1  0
 71 73  2  0
 73 74  1  0
 74 75  1  0
 75 76  2  0
 76 77  1  0
 76 78  1  0
 78 79  1  0
 78 80  2  0
 80 81  1  0
 80 82  1  0
 82 83  1  0
 82 84  2  0
 61 85  1  0
 85 86  1  0
 85 87  2  0
 87 88  1  0
 49 89  1  0
 89 90  1  0
 89 91  2  0
 91 92  1  0
 40 93  1  0
 93 94  1  0
 93 95  2  0
 95 96  1  0
 32 97  2  0
 97 98  1  0
 97  2  1  0
 28 19  1  0
 95 35  1  0
 91 44  1  0
 87 56  1  0
 84 63  1  0
 73 64  1  0
 84 75  1  0
M  CHG  5   6  -1  19   1  43  -1  50  -1  74  -1
M  END
>  <UniqueID>  (48) 
43

>  <SMILES>  (48) 
O=C(CNC(=O)C[n+]1ccccc1)[N-]c1cccc(Nc2ccc(C(=O)[N-]c3ccc([N-]C(=O)Cc4ccc(/N=c5/c6ccccc6[n-]c6cc(Cl)ccc56)cc4)cc3)cc2)c1

>  <Energy>  (48) 
154.22752022316044

>  <Genealogy>  (48) 
O=C(CNC(=O)C[n+]1ccccc1)[N-]c1cccc(Nc2ccc(C(=O)[N-]c3ccc([N-]C(=O)Cc4ccc(N=c5c6ccccc6[n-]c6cc(Cl)ccc56)cc4)cc3)cc2)c1 (protonated)
O=C(CNC(=O)C[n+]1ccccc1)[N-]c1cccc(Nc2ccc(C(=O)[N-]c3ccc([N-]C(=O)Cc4ccc(/N=c5/c6ccccc6[n-]c6cc(Cl)ccc56)cc4)cc3)cc2)c1 (cis-trans isomerization)
O=C(CNC(=O)C[n+]1ccccc1)[N-]c1cccc(Nc2ccc(C(=O)[N-]c3ccc([N-]C(=O)Cc4ccc(/N=c5/c6ccccc6[n-]c6cc(Cl)ccc56)cc4)cc3)cc2)c1 (3D coordinates assigned)
O=C(CNC(=O)C[n+]1ccccc1)[N-]c1cccc(Nc2ccc(C(=O)[N-]c3ccc([N-]C(=O)Cc4ccc(/N=c5/c6ccccc6[n-]c6cc(Cl)ccc56)cc4)cc3)cc2)c1 (optimized conformer: 154.22752022316044 kcal/mol)

>  <smiles>  (48) 
O=C(C[n+]1ccccc1)NCC(=O)Nc1cccc(Nc2ccc(C(=O)Nc3ccc(NC(=O)Cc4ccc(N=c5c6ccccc6[nH]c6cc(Cl)ccc56)cc4)cc3)cc2)c1

>  <score_type>  (48) 
oracle

>  <origin>  (48) 
adg

>  <m_score__min__energy>  (48) 
-13.449999999999999

>  <m_primary>  (48) 
energy

$$$$
48:0
     RDKit          3D

 74 77  0  0  0  0  0  0  0  0999 V2000
   54.2500   22.4520   45.6310 C   0  0  0  0  0  0  0  0  0  0  0  0
   55.7560   22.6630   45.4090 C   0  0  0  0  0  0  0  0  0  0  0  0
   56.2900   21.6430   44.3900 C   0  0  0  0  0  0  0  0  0  0  0  0
   56.0490   24.1290   45.0000 C   0  0  2  0  0  0  0  0  0  0  0  0
   57.4610   24.2660   44.6130 N   0  0  0  0  0  0  0  0  0  0  0  0
   58.5120   24.0740   45.9850 S   0  0  0  0  0  0  0  0  0  0  0  0
   59.6570   23.1780   45.6080 O   0  0  0  0  0  0  0  0  0  0  0  0
   57.7610   23.4370   47.1230 O   0  0  0  0  0  0  0  0  0  0  0  0
   59.1430   25.6440   46.4730 C   0  0  0  0  0  0  0  0  0  0  0  0
   59.9950   26.3650   45.6260 C   0  0  0  0  0  0  0  0  0  0  0  0
   60.5100   27.6000   46.0300 C   0  0  0  0  0  0  0  0  0  0  0  0
   60.1820   28.1320   47.2910 C   0  0  0  0  0  0  0  0  0  0  0  0
   60.7210   29.4490   47.7180 C   0  0  0  0  0  0  0  0  0  0  0  0
   61.0940   30.4120   46.7630 C   0  0  0  0  0  0  0  0  0  0  0  0
   61.5940   31.6540   47.1650 C   0  0  0  0  0  0  0  0  0  0  0  0
   61.7250   31.9550   48.5250 C   0  0  0  0  0  0  0  0  0  0  0  0
   62.3620   33.5210   49.0200 S   0  0  0  0  0  0  0  0  0  0  0  0
   62.8950   33.4070   50.4220 O   0  0  0  0  0  0  0  0  0  0  0  0
   63.4940   33.9280   48.1180 O   0  0  0  0  0  0  0  0  0  0  0  0
   61.1070   34.7270   48.9910 N   0  0  0  0  0  0  0  0  0  0  0  0
   59.7780   34.1100   48.9770 C   0  0  0  0  0  0  0  0  0  0  0  0
   59.1740   34.1660   47.5990 C   0  0  0  0  0  0  0  0  0  0  0  0
   59.8020   34.9070   46.5840 C   0  0  0  0  0  0  0  0  0  0  0  0
   59.2430   34.9620   45.3030 C   0  0  0  0  0  0  0  0  0  0  0  0
   58.0520   34.2860   45.0290 C   0  0  0  0  0  0  0  0  0  0  0  0
   57.4190   33.5480   46.0350 C   0  0  0  0  0  0  0  0  0  0  0  0
   57.9750   33.4910   47.3170 C   0  0  0  0  0  0  0  0  0  0  0  0
   61.3610   30.9990   49.4830 C   0  0  0  0  0  0  0  0  0  0  0  0
   60.8630   29.7550   49.0840 C   0  0  0  0  0  0  0  0  0  0  0  0
   59.3310   27.3980   48.1370 C   0  0  0  0  0  0  0  0  0  0  0  0
   58.8190   26.1630   47.7320 C   0  0  0  0  0  0  0  0  0  0  0  0
   55.7190   25.1040   46.1110 C   0  0  0  0  0  0  0  0  0  0  0  0
   55.5910   24.6740   47.2890 O   0  0  0  0  0  0  0  0  0  0  0  0
   55.5840   26.5130   45.8820 N   0  0  0  0  0  0  0  0  0  0  0  0
   56.6500   27.5120   45.9200 C   0  0  0  0  0  0  0  0  0  0  0  0
   57.3860   27.5560   44.5780 C   0  0  0  0  0  0  0  0  0  0  0  0
   57.5040   28.9670   44.0640 C   0  0  0  0  0  0  0  0  0  0  0  0
   58.4210   29.8580   44.6490 C   0  0  0  0  0  0  0  0  0  0  0  0
   58.5030   31.1800   44.1990 C   0  0  0  0  0  0  0  0  0  0  0  0
   57.6670   31.6230   43.1710 C   0  0  0  0  0  0  0  0  0  0  0  0
   56.7460   30.7460   42.5910 C   0  0  0  0  0  0  0  0  0  0  0  0
   56.6610   29.4230   43.0360 C   0  0  0  0  0  0  0  0  0  0  0  0
   54.0391   22.4224   46.7102 H   0  0  0  0  0  0  0  0  0  0  0  0
   53.6919   23.2807   45.1709 H   0  0  0  0  0  0  0  0  0  0  0  0
   53.9411   21.5018   45.1709 H   0  0  0  0  0  0  0  0  0  0  0  0
   56.2917   22.4877   46.3536 H   0  0  0  0  0  0  0  0  0  0  0  0
   56.7361   20.7908   44.9236 H   0  0  0  0  0  0  0  0  0  0  0  0
   55.4623   21.2876   43.7587 H   0  0  0  0  0  0  0  0  0  0  0  0
   57.0536   22.1208   43.7587 H   0  0  0  0  0  0  0  0  0  0  0  0
   55.4035   24.3727   44.1433 H   0  0  0  0  0  0  0  0  0  0  0  0
   60.2596   25.9575   44.6391 H   0  0  0  0  0  0  0  0  0  0  0  0
   61.1764   28.1601   45.3576 H   0  0  0  0  0  0  0  0  0  0  0  0
   60.9914   30.1860   45.6914 H   0  0  0  0  0  0  0  0  0  0  0  0
   61.8857   32.3978   46.4089 H   0  0  0  0  0  0  0  0  0  0  0  0
   59.8656   33.0589   49.2893 H   0  0  0  0  0  0  0  0  0  0  0  0
   59.1263   34.6635   49.6691 H   0  0  0  0  0  0  0  0  0  0  0  0
   60.7368   35.4460   46.7975 H   0  0  0  0  0  0  0  0  0  0  0  0
   59.7422   35.5385   44.5103 H   0  0  0  0  0  0  0  0  0  0  0  0
   57.6116   34.3338   44.0221 H   0  0  0  0  0  0  0  0  0  0  0  0
   56.4833   33.0122   45.8175 H   0  0  0  0  0  0  0  0  0  0  0  0
   57.4714   32.9153   48.1075 H   0  0  0  0  0  0  0  0  0  0  0  0
   61.4676   31.2284   50.5535 H   0  0  0  0  0  0  0  0  0  0  0  0
   60.5804   29.0106   49.8430 H   0  0  0  0  0  0  0  0  0  0  0  0
   59.0664   27.8000   49.1261 H   0  0  0  0  0  0  0  0  0  0  0  0
   58.1588   25.5962   48.4049 H   0  0  0  0  0  0  0  0  0  0  0  0
   56.2137   28.5003   46.1270 H   0  0  0  0  0  0  0  0  0  0  0  0
   57.3649   27.2421   46.7112 H   0  0  0  0  0  0  0  0  0  0  0  0
   58.3946   27.1368   44.7086 H   0  0  0  0  0  0  0  0  0  0  0  0
   56.8113   26.9675   43.8476 H   0  0  0  0  0  0  0  0  0  0  0  0
   59.0761   29.5144   45.4632 H   0  0  0  0  0  0  0  0  0  0  0  0
   59.2266   31.8716   44.6551 H   0  0  0  0  0  0  0  0  0  0  0  0
   57.7336   32.6626   42.8178 H   0  0  0  0  0  0  0  0  0  0  0  0
   56.0870   31.0971   41.7832 H   0  0  0  0  0  0  0  0  0  0  0  0
   55.9320   28.7370   42.5800 H   0  0  0  0  0  0  0  0  0  0  0  0
  1  2  1  0
  2  3  1  0
  2  4  1  0
  4  5  1  0
  5  6  1  0
  6  7  2  0
  6  8  2  0
  6  9  1  0
  9 10  2  0
 10 11  1  0
 11 12  2  0
 12 13  1  0
 13 14  2  0
 14 15  1  0
 15 16  2  0
 16 17  1  0
 17 18  2  0
 17 19  2  0
 17 20  1  0
 20 21  1  0
 21 22  1  0
 22 23  2  0
 23 24  1  0
 24 25  2  0
 25 26  1  0
 26 27  2  0
 16 28  1  0
 28 29  2  0
 12 30  1  0
 30 31  2  0
  4 32  1  0
 32 33  2  0
 32 34  1  0
 34 35  1  0
 35 36  1  0
 36 37  1  0
 37 38  2  0
 38 39  1  0
 39 40  2  0
 40 41  1  0
 41 42  2  0
 31  9  1  0
 42 37  1  0
 29 13  1  0
 27 22  1  0
  1 43  1  0
  1 44  1  0
  1 45  1  0
  2 46  1  0
  3 47  1  0
  3 48  1  0
  3 49  1  0
  4 50  1  6
 10 51  1  0
 11 52  1  0
 14 53  1  0
 15 54  1  0
 21 55  1  0
 21 56  1  0
 23 57  1  0
 24 58  1  0
 25 59  1  0
 26 60  1  0
 27 61  1  0
 28 62  1  0
 29 63  1  0
 30 64  1  0
 31 65  1  0
 35 66  1  0
 35 67  1  0
 36 68  1  0
 36 69  1  0
 38 70  1  0
 39 71  1  0
 40 72  1  0
 41 73  1  0
 42 74  1  0
M  CHG  3   5  -1  20  -1  34  -1
M  END
>  <UniqueID>  (49) 
44

>  <SMILES>  (49) 
CC(C)[C@H]([N-]S(=O)(=O)c1ccc(-c2ccc(S(=O)(=O)[N-]Cc3ccccc3)cc2)cc1)C(=O)[N-]CCc1ccccc1

>  <Energy>  (49) 
74.66210641598055

>  <Genealogy>  (49) 
CC(C)C([N-]S(=O)(=O)c1ccc(-c2ccc(S(=O)(=O)[N-]Cc3ccccc3)cc2)cc1)C(=O)[N-]CCc1ccccc1 (protonated)
CC(C)[C@H]([N-]S(=O)(=O)c1ccc(-c2ccc(S(=O)(=O)[N-]Cc3ccccc3)cc2)cc1)C(=O)[N-]CCc1ccccc1 (chirality)
CC(C)[C@H]([N-]S(=O)(=O)c1ccc(-c2ccc(S(=O)(=O)[N-]Cc3ccccc3)cc2)cc1)C(=O)[N-]CCc1ccccc1 (3D coordinates assigned)
CC(C)[C@H]([N-]S(=O)(=O)c1ccc(-c2ccc(S(=O)(=O)[N-]Cc3ccccc3)cc2)cc1)C(=O)[N-]CCc1ccccc1 (optimized conformer: 74.66210641598055 kcal/mol)

>  <smiles>  (49) 
CC(C)C(NS(=O)(=O)c1ccc(-c2ccc(S(=O)(=O)NCc3ccccc3)cc2)cc1)C(=O)NCCc1ccccc1

>  <score_type>  (49) 
oracle

>  <origin>  (49) 
adg

>  <m_score__min__energy>  (49) 
-15.43

>  <m_primary>  (49) 
energy

$$$$
49:0
     RDKit          3D

 31 32  0  0  0  0  0  0  0  0999 V2000
   57.8630   27.0220   42.6530 C   0  0  0  0  0  0  0  0  0  0  0  0
   58.3080   26.6370   43.8520 C   0  0  0  0  0  0  0  0  0  0  0  0
   57.3730   26.1020   44.8990 C   0  0  0  0  0  0  0  0  0  0  0  0
   57.1400   27.0760   45.9180 O   0  0  0  0  0  0  0  0  0  0  0  0
   57.5870   28.4090   45.8880 C   0  0  0  0  0  0  0  0  0  0  0  0
   58.8290   28.8010   46.4220 C   0  0  0  0  0  0  0  0  0  0  0  0
   59.2300   30.1380   46.3710 C   0  0  0  0  0  0  0  0  0  0  0  0
   58.4040   31.1110   45.7840 C   0  0  0  0  0  0  0  0  0  0  0  0
   58.8310   32.5330   45.7300 C   0  0  0  0  0  0  0  0  0  0  0  0
   59.9580   32.9700   46.4510 C   0  0  0  0  0  0  0  0  0  0  0  0
   60.3560   34.3090   46.3980 C   0  0  0  0  0  0  0  0  0  0  0  0
   59.6380   35.2240   45.6260 C   0  0  0  0  0  0  0  0  0  0  0  0
   58.5190   34.8030   44.9060 C   0  0  0  0  0  0  0  0  0  0  0  0
   58.1140   33.4650   44.9550 C   0  0  0  0  0  0  0  0  0  0  0  0
   57.1650   30.7160   45.2500 C   0  0  0  0  0  0  0  0  0  0  0  0
   56.7590   29.3750   45.3010 C   0  0  0  0  0  0  0  0  0  0  0  0
   55.5260   28.9940   44.7720 O   0  0  0  0  0  0  0  0  0  0  0  0
   58.5681   27.4104   41.9034 H   0  0  0  0  0  0  0  0  0  0  0  0
   56.7914   26.9507   42.4152 H   0  0  0  0  0  0  0  0  0  0  0  0
   59.3819   26.7133   44.0776 H   0  0  0  0  0  0  0  0  0  0  0  0
   56.4153   25.8387   44.4263 H   0  0  0  0  0  0  0  0  0  0  0  0
   57.8306   25.2137   45.3590 H   0  0  0  0  0  0  0  0  0  0  0  0
   59.4878   28.0499   46.8823 H   0  0  0  0  0  0  0  0  0  0  0  0
   60.2018   30.4318   46.7945 H   0  0  0  0  0  0  0  0  0  0  0  0
   60.5290   32.2536   47.0598 H   0  0  0  0  0  0  0  0  0  0  0  0
   61.2370   34.6424   46.9660 H   0  0  0  0  0  0  0  0  0  0  0  0
   59.9542   36.2768   45.5852 H   0  0  0  0  0  0  0  0  0  0  0  0
   57.9540   35.5252   44.2984 H   0  0  0  0  0  0  0  0  0  0  0  0
   57.2312   33.1392   44.3854 H   0  0  0  0  0  0  0  0  0  0  0  0
   56.5074   31.4667   44.7874 H   0  0  0  0  0  0  0  0  0  0  0  0
   55.1460   28.0670   44.9270 H   0  0  0  0  0  0  0  0  0  0  0  0
  1  2  2  0
  2  3  1  0
  3  4  1  0
  4  5  1  0
  5  6  2  0
  6  7  1  0
  7  8  2  0
  8  9  1  0
  9 10  2  0
 10 11  1  0
 11 12  2  0
 12 13  1  0
 13 14  2  0
  8 15  1  0
 15 16  2  0
 16 17  1  0
 16  5  1  0
 14  9  1  0
  1 18  1  0
  1 19  1  0
  2 20  1  0
  3 21  1  0
  3 22  1  0
  6 23  1  0
  7 24  1  0
 10 25  1  0
 11 26  1  0
 12 27  1  0
 13 28  1  0
 14 29  1  0
 15 30  1  0
 17 31  1  0
M  END
>  <UniqueID>  (50) 
45

>  <SMILES>  (50) 
C=CCOc1ccc(-c2ccccc2)cc1O

>  <Energy>  (50) 
33.88920717277487

>  <Genealogy>  (50) 
C=CCOc1ccc(-c2ccccc2)cc1O (3D coordinates assigned)
C=CCOc1ccc(-c2ccccc2)cc1O (optimized conformer: 33.88920717277487 kcal/mol)

>  <smiles>  (50) 
C=CCOc1ccc(-c2ccccc2)cc1O

>  <score_type>  (50) 
oracle

>  <origin>  (50) 
adg

>  <m_score__min__energy>  (50) 
-6.5300000000000002

>  <m_primary>  (50) 
energy

$$$$
50:0
     RDKit          3D

 52 53  0  0  0  0  0  0  0  0999 V2000
   52.4310   24.8270   45.6430 H   0  0  0  0  0  0  0  0  0  0  0  0
   53.2230   24.1580   45.5060 N   0  0  0  0  0  0  0  0  0  0  0  0
   54.4230   24.4450   45.8970 C   0  0  0  0  0  0  0  0  0  0  0  0
   54.9500   25.6720   45.6450 N   0  0  0  0  0  0  0  0  0  0  0  0
   56.2110   26.0010   46.0440 C   0  0  0  0  0  0  0  0  0  0  0  0
   56.7570   27.3480   45.7360 C   0  0  0  0  0  0  0  0  0  0  0  0
   55.9340   28.3180   45.2400 N   0  0  0  0  0  0  0  0  0  0  0  0
   56.3770   29.5720   44.9360 C   0  0  0  0  0  0  0  0  0  0  0  0
   55.5400   30.4310   44.4460 N   0  0  0  0  0  0  0  0  0  0  0  0
   54.5420   30.4920   44.7530 H   0  0  0  0  0  0  0  0  0  0  0  0
   57.7340   29.8950   45.1440 C   0  0  0  0  0  0  0  0  0  0  0  0
   58.2230   31.1530   44.7880 O   0  0  0  0  0  0  0  0  0  0  0  0
   58.1380   32.2810   45.6500 C   0  0  0  0  0  0  0  0  0  0  0  0
   57.3801   32.0961   46.4255 H   0  0  0  0  0  0  0  0  0  0  0  0
   59.1119   32.4552   46.1309 H   0  0  0  0  0  0  0  0  0  0  0  0
   57.7410   33.5090   44.8270 C   0  0  0  0  0  0  0  0  0  0  0  0
   57.5930   33.1959   43.7829 H   0  0  0  0  0  0  0  0  0  0  0  0
   56.8218   33.9156   45.2738 H   0  0  0  0  0  0  0  0  0  0  0  0
   58.7950   34.6320   44.8550 C   0  0  0  0  0  0  0  0  0  0  0  0
   59.3736   34.5765   43.9211 H   0  0  0  0  0  0  0  0  0  0  0  0
   58.2326   35.5698   44.9745 H   0  0  0  0  0  0  0  0  0  0  0  0
   59.7910   34.5830   46.0350 C   0  0  0  0  0  0  0  0  0  0  0  0
   60.1814   33.5571   46.1062 H   0  0  0  0  0  0  0  0  0  0  0  0
   60.5604   35.3366   45.8113 H   0  0  0  0  0  0  0  0  0  0  0  0
   59.2110   34.9670   47.4120 C   0  0  0  0  0  0  0  0  0  0  0  0
   59.3864   36.0415   47.5690 H   0  0  0  0  0  0  0  0  0  0  0  0
   58.1444   34.6994   47.3828 H   0  0  0  0  0  0  0  0  0  0  0  0
   59.8160   34.2030   48.6080 C   0  0  0  0  0  0  0  0  0  0  0  0
   59.6324   34.7880   49.5213 H   0  0  0  0  0  0  0  0  0  0  0  0
   59.3315   33.2158   48.6341 H   0  0  0  0  0  0  0  0  0  0  0  0
   61.3320   33.9540   48.4880 C   0  0  0  0  0  0  0  0  0  0  0  0
   61.7586   34.7485   47.8581 H   0  0  0  0  0  0  0  0  0  0  0  0
   61.7232   33.9508   49.5161 H   0  0  0  0  0  0  0  0  0  0  0  0
   61.7270   32.5970   47.8760 C   0  0  0  0  0  0  0  0  0  0  0  0
   61.7409   31.8489   48.6823 H   0  0  0  0  0  0  0  0  0  0  0  0
   60.9822   32.3803   47.0960 H   0  0  0  0  0  0  0  0  0  0  0  0
   63.1030   32.5780   47.1800 C   0  0  0  0  0  0  0  0  0  0  0  0
   63.8843   32.4868   47.9489 H   0  0  0  0  0  0  0  0  0  0  0  0
   63.1109   31.7245   46.4862 H   0  0  0  0  0  0  0  0  0  0  0  0
   63.3710   33.8420   46.3580 C   0  0  0  0  0  0  0  0  0  0  0  0
   63.5506   34.6892   47.0362 H   0  0  0  0  0  0  0  0  0  0  0  0
   64.2560   33.6861   45.7237 H   0  0  0  0  0  0  0  0  0  0  0  0
   62.4988   34.0586   45.7237 H   0  0  0  0  0  0  0  0  0  0  0  0
   58.5960   28.9250   45.6630 C   0  0  0  0  0  0  0  0  0  0  0  0
   59.6525   29.1703   45.8465 H   0  0  0  0  0  0  0  0  0  0  0  0
   58.1170   27.6440   45.9490 C   0  0  0  0  0  0  0  0  0  0  0  0
   58.7975   26.8722   46.3378 H   0  0  0  0  0  0  0  0  0  0  0  0
   56.9770   25.0490   46.7320 C   0  0  0  0  0  0  0  0  0  0  0  0
   57.9942   25.2895   47.0748 H   0  0  0  0  0  0  0  0  0  0  0  0
   56.4230   23.7880   46.9740 C   0  0  0  0  0  0  0  0  0  0  0  0
   57.0910   22.9070   47.5760 O   0  0  0  0  0  0  0  0  0  0  0  0
   55.1610   23.5130   46.5560 N   0  0  0  0  0  0  0  0  0  0  0  0
  1  2  1  0
  2  3  2  3
  3  4  1  0
  4  5  1  0
  5  6  1  0
  6  7  1  0
  7  8  1  0
  8  9  2  0
  9 10  1  0
  8 11  1  0
 11 12  1  0
 12 13  1  0
 13 14  1  0
 13 15  1  0
 13 16  1  0
 16 17  1  0
 16 18  1  0
 16 19  1  0
 19 20  1  0
 19 21  1  0
 19 22  1  0
 22 23  1  0
 22 24  1  0
 22 25  1  0
 25 26  1  0
 25 27  1  0
 25 28  1  0
 28 29  1  0
 28 30  1  0
 28 31  1  0
 31 32  1  0
 31 33  1  0
 31 34  1  0
 34 35  1  0
 34 36  1  0
 34 37  1  0
 37 38  1  0
 37 39  1  0
 37 40  1  0
 40 41  1  0
 40 42  1  0
 40 43  1  0
 11 44  2  0
 44 45  1  0
 44 46  1  0
 46 47  1  0
  5 48  2  0
 48 49  1  0
 48 50  1  0
 50 51  2  0
 50 52  1  0
 52  3  1  0
 46  6  2  0
M  CHG  3   4  -1   7  -1  52  -1
M  END
>  <UniqueID>  (51) 
46

>  <SMILES>  (51) 
[H]/N=c1/[n-]c(-c2cc(=O)[n-]c(=N)[n-]2)ccc1OCCCCCCCCCC

>  <Energy>  (51) 
50.96716287905505

>  <Genealogy>  (51) 
CCCCCCCCCCOc1ccc(-c2cc(=O)[n-]c(=N)[n-]2)[n-]c1=N (protonated)
[H]/N=c1/[n-]c(-c2cc(=O)[n-]c(=N)[n-]2)ccc1OCCCCCCCCCC (cis-trans isomerization)
[H]/N=c1/[n-]c(-c2cc(=O)[n-]c(=N)[n-]2)ccc1OCCCCCCCCCC (3D coordinates assigned)
[H]/N=c1/[n-]c(-c2cc(=O)[n-]c(=N)[n-]2)ccc1OCCCCCCCCCC (optimized conformer: 50.96716287905505 kcal/mol)

>  <smiles>  (51) 
CCCCCCCCCCOc1ccc(-c2cc(=O)[nH]c(=N)[nH]2)[nH]c1=N

>  <score_type>  (51) 
oracle

>  <origin>  (51) 
adg

>  <m_score__min__energy>  (51) 
-13.57

>  <m_primary>  (51) 
energy

$$$$
51:0
     RDKit          3D

 48 50  0  0  0  0  0  0  0  0999 V2000
   58.7920   26.3720   47.6770 C   0  0  0  0  0  0  0  0  0  0  0  0
   58.3180   27.6730   48.0110 O   0  0  0  0  0  0  0  0  0  0  0  0
   58.9740   28.8240   47.5650 C   0  0  0  0  0  0  0  0  0  0  0  0
   58.9900   29.1210   46.1860 C   0  0  0  0  0  0  0  0  0  0  0  0
   58.2410   28.2680   45.1950 C   0  0  0  0  0  0  0  0  0  0  0  0
   56.7720   28.5210   45.3130 C   0  0  0  0  0  0  0  0  0  0  0  0
   55.9900   27.5680   45.5820 O   0  0  0  0  0  0  0  0  0  0  0  0
   56.2730   29.8570   45.1890 N   0  0  0  0  0  0  0  0  0  0  0  0
   56.8640   30.8520   44.3430 C   0  0  0  0  0  0  0  0  0  0  0  0
   56.8370   30.6410   42.9590 C   0  0  0  0  0  0  0  0  0  0  0  0
   57.4320   31.5540   42.0890 C   0  0  0  0  0  0  0  0  0  0  0  0
   58.0520   32.7000   42.5870 C   0  0  0  0  0  0  0  0  0  0  0  0
   58.0620   32.9540   43.9670 C   0  0  0  0  0  0  0  0  0  0  0  0
   58.6590   34.1220   44.4650 C   0  0  0  0  0  0  0  0  0  0  0  0
   58.6390   34.3940   45.8330 C   0  0  0  0  0  0  0  0  0  0  0  0
   58.0160   33.5100   46.7150 C   0  0  0  0  0  0  0  0  0  0  0  0
   57.4200   32.3400   46.2360 C   0  0  0  0  0  0  0  0  0  0  0  0
   57.4520   32.0330   44.8610 C   0  0  0  0  0  0  0  0  0  0  0  0
   59.6390   30.2780   45.7380 C   0  0  0  0  0  0  0  0  0  0  0  0
   60.2910   31.1160   46.6380 C   0  0  0  0  0  0  0  0  0  0  0  0
   60.2790   30.8420   48.0130 C   0  0  0  0  0  0  0  0  0  0  0  0
   61.0220   31.6900   48.9020 N   0  0  0  0  0  0  0  0  0  0  0  0
   62.7540   31.6770   48.9620 S   0  0  0  0  0  0  0  0  0  0  0  0
   63.3630   33.2830   49.4340 C   0  0  0  0  0  0  0  0  0  0  0  0
   63.2010   30.6760   49.9880 O   0  0  0  0  0  0  0  0  0  0  0  0
   63.3080   31.2900   47.6200 O   0  0  0  0  0  0  0  0  0  0  0  0
   59.5870   29.6990   48.4920 C   0  0  0  0  0  0  0  0  0  0  0  0
   59.4190   29.4360   49.9440 C   0  0  0  0  0  0  0  0  0  0  0  0
   58.3190   29.6250   50.5290 O   0  0  0  0  0  0  0  0  0  0  0  0
   58.9973   25.8086   48.5992 H   0  0  0  0  0  0  0  0  0  0  0  0
   58.0285   25.8439   47.0869 H   0  0  0  0  0  0  0  0  0  0  0  0
   59.7163   26.4588   47.0869 H   0  0  0  0  0  0  0  0  0  0  0  0
   58.5731   28.5160   44.1761 H   0  0  0  0  0  0  0  0  0  0  0  0
   58.4436   27.2073   45.4045 H   0  0  0  0  0  0  0  0  0  0  0  0
   56.3416   29.7462   42.5541 H   0  0  0  0  0  0  0  0  0  0  0  0
   57.4123   31.3696   41.0047 H   0  0  0  0  0  0  0  0  0  0  0  0
   58.5345   33.4067   41.8958 H   0  0  0  0  0  0  0  0  0  0  0  0
   59.1449   34.8262   43.7737 H   0  0  0  0  0  0  0  0  0  0  0  0
   59.1156   35.3078   46.2176 H   0  0  0  0  0  0  0  0  0  0  0  0
   57.9939   33.7349   47.7915 H   0  0  0  0  0  0  0  0  0  0  0  0
   56.9224   31.6540   46.9373 H   0  0  0  0  0  0  0  0  0  0  0  0
   59.6335   30.5266   44.6665 H   0  0  0  0  0  0  0  0  0  0  0  0
   60.8223   32.0044   46.2659 H   0  0  0  0  0  0  0  0  0  0  0  0
   60.5180   32.3850   49.4970 H   0  0  0  0  0  0  0  0  0  0  0  0
   63.3909   33.3566   50.5312 H   0  0  0  0  0  0  0  0  0  0  0  0
   64.3769   33.4236   49.0311 H   0  0  0  0  0  0  0  0  0  0  0  0
   62.6973   34.0605   49.0311 H   0  0  0  0  0  0  0  0  0  0  0  0
   60.2774   29.0665   50.5241 H   0  0  0  0  0  0  0  0  0  0  0  0
  1  2  1  0
  2  3  1  0
  3  4  2  0
  4  5  1  0
  5  6  1  0
  6  7  2  0
  6  8  1  0
  8  9  1  0
  9 10  2  0
 10 11  1  0
 11 12  2  0
 12 13  1  0
 13 14  2  0
 14 15  1  0
 15 16  2  0
 16 17  1  0
 17 18  2  0
  4 19  1  0
 19 20  2  0
 20 21  1  0
 21 22  1  0
 22 23  1  0
 23 24  1  0
 23 25  2  0
 23 26  2  0
 21 27  2  0
 27 28  1  0
 28 29  2  0
 27  3  1  0
 18  9  1  0
 18 13  1  0
  1 30  1  0
  1 31  1  0
  1 32  1  0
  5 33  1  0
  5 34  1  0
 10 35  1  0
 11 36  1  0
 12 37  1  0
 14 38  1  0
 15 39  1  0
 16 40  1  0
 17 41  1  0
 19 42  1  0
 20 43  1  0
 22 44  1  0
 24 45  1  0
 24 46  1  0
 24 47  1  0
 28 48  1  0
M  CHG  1   8  -1
M  END
>  <UniqueID>  (52) 
47

>  <SMILES>  (52) 
COc1c(CC(=O)[N-]c2cccc3ccccc23)ccc(NS(C)(=O)=O)c1C=O

>  <Energy>  (52) 
70.65405643122082

>  <Genealogy>  (52) 
COc1c(CC(=O)[N-]c2cccc3ccccc23)ccc(NS(C)(=O)=O)c1C=O (protonated)
COc1c(CC(=O)[N-]c2cccc3ccccc23)ccc(NS(C)(=O)=O)c1C=O (3D coordinates assigned)
COc1c(CC(=O)[N-]c2cccc3ccccc23)ccc(NS(C)(=O)=O)c1C=O (optimized conformer: 70.65405643122082 kcal/mol)

>  <smiles>  (52) 
COc1c(CC(=O)Nc2cccc3ccccc23)ccc(NS(C)(=O)=O)c1C=O

>  <score_type>  (52) 
oracle

>  <origin>  (52) 
adg

>  <m_score__min__energy>  (52) 
-10.51

>  <m_primary>  (52) 
energy

$$$$
52:0
     RDKit          3D

 58 60  0  0  1  0  0  0  0  0999 V2000
   53.8440   30.7870   51.6040 C   0  0  0  0  0  0  0  0  0  0  0  0
   54.8580   29.9440   52.3540 C   0  0  0  0  0  0  0  0  0  0  0  0
   55.8050   30.8840   53.0870 C   0  0  0  0  0  0  0  0  0  0  0  0
   57.4450   30.7850   52.4480 S   0  0  0  0  0  0  0  0  0  0  0  0
   58.4100   30.3570   53.5350 O   0  0  0  0  0  0  0  0  0  0  0  0
   57.4740   29.7170   51.3910 O   0  0  0  0  0  0  0  0  0  0  0  0
   57.9780   32.2860   51.7710 N   0  0  0  0  0  0  0  0  0  0  0  0
   59.3100   32.5730   52.1880 C   0  0  0  0  0  0  0  0  0  0  0  0
   60.0760   33.4060   51.2060 C   0  0  0  0  0  0  0  0  0  0  0  0
   60.1570   32.6730   49.9600 N   0  0  0  0  0  0  0  0  0  0  0  0
   61.3100   32.6900   49.1220 C   0  0  0  0  0  0  0  0  0  0  0  0
   62.2430   31.7570   49.3600 N   0  0  0  0  0  0  0  0  0  0  0  0
   63.3870   31.6350   48.6670 C   0  0  0  0  0  0  0  0  0  0  0  0
   63.5890   32.5150   47.6730 N   0  0  0  0  0  0  0  0  0  0  0  0
   62.6720   33.4800   47.3910 C   0  0  0  0  0  0  0  0  0  0  0  0
   62.9310   34.2050   46.3600 N   0  0  0  0  0  0  0  0  0  0  0  0
   61.4940   33.6090   48.1070 C   0  0  0  0  0  0  0  0  0  0  0  0
   60.4160   34.4990   47.8010 C   0  0  0  0  0  0  0  0  0  0  0  0
   59.5380   34.4300   46.8500 C   0  0  0  0  0  0  0  0  0  0  0  0
   58.9810   33.2810   46.1990 C   0  0  0  0  0  0  0  0  0  0  0  0
   59.3080   31.9640   46.3790 C   0  0  0  0  0  0  0  0  0  0  0  0
   58.6660   30.9020   45.7800 C   0  0  0  0  0  0  0  0  0  0  0  0
   57.6140   31.1430   44.9300 C   0  0  0  0  0  0  0  0  0  0  0  0
   56.7150   29.9140   44.1100 S   0  0  0  0  0  0  0  0  0  0  0  0
   57.7290   28.4700   43.9430 C   0  0  0  0  0  0  0  0  0  0  0  0
   56.2740   30.3980   42.7360 O   0  0  0  0  0  0  0  0  0  0  0  0
   55.4510   29.5720   44.8320 O   0  0  0  0  0  0  0  0  0  0  0  0
   57.2670   32.4630   44.7330 C   0  0  0  0  0  0  0  0  0  0  0  0
   57.9090   33.5200   45.3320 C   0  0  0  0  0  0  0  0  0  0  0  0
   59.0050   31.8880   49.5780 C   0  0  0  0  0  0  0  0  0  0  0  0
   57.7730   32.2540   50.3420 C   0  0  0  0  0  0  0  0  0  0  0  0
   53.2046   31.3185   52.3242 H   0  0  0  0  0  0  0  0  0  0  0  0
   54.3702   31.5175   50.9720 H   0  0  0  0  0  0  0  0  0  0  0  0
   53.2219   30.1362   50.9720 H   0  0  0  0  0  0  0  0  0  0  0  0
   54.3418   29.2959   53.0776 H   0  0  0  0  0  0  0  0  0  0  0  0
   55.4188   29.3088   51.6526 H   0  0  0  0  0  0  0  0  0  0  0  0
   55.4405   31.9158   52.9753 H   0  0  0  0  0  0  0  0  0  0  0  0
   55.8309   30.5878   54.1461 H   0  0  0  0  0  0  0  0  0  0  0  0
   59.2666   33.1141   53.1447 H   0  0  0  0  0  0  0  0  0  0  0  0
   59.8361   31.6111   52.2770 H   0  0  0  0  0  0  0  0  0  0  0  0
   59.5566   34.3619   51.0430 H   0  0  0  0  0  0  0  0  0  0  0  0
   61.0850   33.6162   51.5904 H   0  0  0  0  0  0  0  0  0  0  0  0
   62.0970   31.0640   50.1330 H   0  0  0  0  0  0  0  0  0  0  0  0
   64.1229   30.8520   48.9023 H   0  0  0  0  0  0  0  0  0  0  0  0
   63.8080   34.0490   45.8380 H   0  0  0  0  0  0  0  0  0  0  0  0
   60.3184   35.3671   48.4694 H   0  0  0  0  0  0  0  0  0  0  0  0
   59.1641   35.3991   46.4881 H   0  0  0  0  0  0  0  0  0  0  0  0
   60.1469   31.7362   47.0530 H   0  0  0  0  0  0  0  0  0  0  0  0
   58.9928   29.8710   45.9805 H   0  0  0  0  0  0  0  0  0  0  0  0
   57.9949   28.0913   44.9409 H   0  0  0  0  0  0  0  0  0  0  0  0
   57.1757   27.6951   43.3922 H   0  0  0  0  0  0  0  0  0  0  0  0
   58.6457   28.7274   43.3922 H   0  0  0  0  0  0  0  0  0  0  0  0
   56.4274   32.6826   44.0570 H   0  0  0  0  0  0  0  0  0  0  0  0
   57.5813   34.5506   45.1306 H   0  0  0  0  0  0  0  0  0  0  0  0
   58.8131   32.0447   48.5063 H   0  0  0  0  0  0  0  0  0  0  0  0
   59.2329   30.8357   49.8031 H   0  0  0  0  0  0  0  0  0  0  0  0
   57.4414   33.2502   50.0141 H   0  0  0  0  0  0  0  0  0  0  0  0
   57.0194   31.4793   50.1373 H   0  0  0  0  0  0  0  0  0  0  0  0
  1  2  1  0
  2  3  1  0
  3  4  1  0
  4  5  2  0
  4  6  2  0
  4  7  1  0
  7  8  1  0
  8  9  1  0
  9 10  1  0
 10 11  1  0
 11 12  1  0
 12 13  1  0
 13 14  2  0
 14 15  1  0
 15 16  2  3
 15 17  1  0
 17 18  1  0
 18 19  2  0
 19 20  1  0
 20 21  2  0
 21 22  1  0
 22 23  2  0
 23 24  1  0
 24 25  1  0
 24 26  2  0
 24 27  2  0
 23 28  1  0
 28 29  2  0
 10 30  1  0
 30 31  1  0
 31  7  1  0
 17 11  2  0
 29 20  1  0
  1 32  1  0
  1 33  1  0
  1 34  1  0
  2 35  1  0
  2 36  1  0
  3 37  1  0
  3 38  1  0
  8 39  1  0
  8 40  1  0
  9 41  1  0
  9 42  1  0
 12 43  1  0
 13 44  1  0
 16 45  1  0
 18 46  1  0
 19 47  1  0
 21 48  1  0
 22 49  1  0
 25 50  1  0
 25 51  1  0
 25 52  1  0
 28 53  1  0
 29 54  1  0
 30 55  1  0
 30 56  1  0
 31 57  1  0
 31 58  1  0
M  END
>  <smiles>  (53) 
CCCS(=O)(=O)N1CCN(c2[nH]cnc(=N)c2C=Cc2ccc(S(C)(=O)=O)cc2)CC1

>  <score_type>  (53) 
oracle

>  <origin>  (53) 
adg

>  <m_score__min__energy>  (53) 
-9.3200000000000003

>  <m_primary>  (53) 
energy

$$$$
53:0
     RDKit          3D

 41 43  0  0  0  0  0  0  0  0999 V2000
   58.3700   24.0690   45.8990 O   0  0  0  0  0  0  0  0  0  0  0  0
   57.7740   24.3780   44.8340 C   0  0  0  0  0  0  0  0  0  0  0  0
   57.5010   25.7220   44.4570 N   0  0  0  0  0  0  0  0  0  0  0  0
   57.8750   26.8460   45.2450 C   0  0  0  0  0  0  0  0  0  0  0  0
   58.5430   26.7340   46.4490 C   0  0  0  0  0  0  0  0  0  0  0  0
   58.8600   27.8860   47.1380 C   0  0  0  0  0  0  0  0  0  0  0  0
   58.5260   29.1370   46.6530 C   0  0  0  0  0  0  0  0  0  0  0  0
   57.8530   29.2670   45.4430 C   0  0  0  0  0  0  0  0  0  0  0  0
   57.4050   30.8200   44.7800 S   0  0  0  0  0  0  0  0  0  0  0  0
   58.1270   31.0780   43.4830 O   0  0  0  0  0  0  0  0  0  0  0  0
   55.9070   30.7510   44.5140 O   0  0  0  0  0  0  0  0  0  0  0  0
   57.6500   32.1000   45.8570 N   0  0  0  0  0  0  0  0  0  0  0  0
   58.9640   32.2320   46.3300 C   0  0  0  0  0  0  0  0  0  0  0  0
   59.3790   33.5820   46.8510 C   0  0  0  0  0  0  0  0  0  0  0  0
   59.0990   34.6810   45.8470 C   0  0  0  0  0  0  0  0  0  0  0  0
   58.0570   34.2190   44.8400 C   0  0  0  0  0  0  0  0  0  0  0  0
   57.0370   33.3430   45.5390 C   0  0  0  0  0  0  0  0  0  0  0  0
   57.5460   28.0980   44.7700 C   0  0  0  0  0  0  0  0  0  0  0  0
   57.3380   23.3050   43.9330 C   0  0  0  0  0  0  0  0  0  0  0  0
   57.6340   21.9670   44.1230 C   0  0  0  0  0  0  0  0  0  0  0  0
   57.0310   21.3210   43.0510 C   0  0  0  0  0  0  0  0  0  0  0  0
   56.4100   22.2220   42.2660 N   0  0  0  0  0  0  0  0  0  0  0  0
   56.6090   23.4180   42.8190 N   0  0  0  0  0  0  0  0  0  0  0  0
   56.9960   25.9590   43.5520 H   0  0  0  0  0  0  0  0  0  0  0  0
   58.8164   25.7468   46.8498 H   0  0  0  0  0  0  0  0  0  0  0  0
   59.3920   27.8075   48.0976 H   0  0  0  0  0  0  0  0  0  0  0  0
   58.7944   30.0354   47.2281 H   0  0  0  0  0  0  0  0  0  0  0  0
   59.0949   31.5080   47.1477 H   0  0  0  0  0  0  0  0  0  0  0  0
   59.5994   32.0626   45.4482 H   0  0  0  0  0  0  0  0  0  0  0  0
   58.8221   33.7937   47.7757 H   0  0  0  0  0  0  0  0  0  0  0  0
   60.4624   33.5582   47.0396 H   0  0  0  0  0  0  0  0  0  0  0  0
   58.7242   35.5696   46.3760 H   0  0  0  0  0  0  0  0  0  0  0  0
   60.0295   34.9261   45.3140 H   0  0  0  0  0  0  0  0  0  0  0  0
   57.5527   35.0947   44.4054 H   0  0  0  0  0  0  0  0  0  0  0  0
   58.5476   33.6456   44.0397 H   0  0  0  0  0  0  0  0  0  0  0  0
   56.6960   33.8350   46.4618 H   0  0  0  0  0  0  0  0  0  0  0  0
   56.1699   33.1779   44.8825 H   0  0  0  0  0  0  0  0  0  0  0  0
   57.0140   28.1707   43.8100 H   0  0  0  0  0  0  0  0  0  0  0  0
   58.2163   21.5157   44.9399 H   0  0  0  0  0  0  0  0  0  0  0  0
   57.0569   20.2362   42.8705 H   0  0  0  0  0  0  0  0  0  0  0  0
   55.8680   22.0300   41.3820 H   0  0  0  0  0  0  0  0  0  0  0  0
  1  2  2  0
  2  3  1  0
  3  4  1  0
  4  5  2  0
  5  6  1  0
  6  7  2  0
  7  8  1  0
  8  9  1  0
  9 10  2  0
  9 11  2  0
  9 12  1  0
 12 13  1  0
 13 14  1  0
 14 15  1  0
 15 16  1  0
 16 17  1  0
  8 18  2  0
  2 19  1  0
 19 20  1  0
 20 21  2  0
 21 22  1  0
 22 23  1  0
 18  4  1  0
 23 19  2  0
 17 12  1  0
  3 24  1  0
  5 25  1  0
  6 26  1  0
  7 27  1  0
 13 28  1  0
 13 29  1  0
 14 30  1  0
 14 31  1  0
 15 32  1  0
 15 33  1  0
 16 34  1  0
 16 35  1  0
 17 36  1  0
 17 37  1  0
 18 38  1  0
 20 39  1  0
 21 40  1  0
 22 41  1  0
M  END
>  <smiles>  (54) 
O=C(Nc1cccc(S(=O)(=O)N2CCCCC2)c1)c1cc[nH]n1

>  <score_type>  (54) 
oracle

>  <origin>  (54) 
adg

>  <m_score__min__energy>  (54) 
-8.9700000000000006

>  <m_primary>  (54) 
energy

$$$$
54:0
     RDKit          3D

 61 65  0  0  0  0  0  0  0  0999 V2000
   59.2650   28.5810   52.4910 O   0  0  0  0  0  0  0  0  0  0  0  0
   58.7850   29.6520   52.0400 C   0  0  0  0  0  0  0  0  0  0  0  0
   59.5010   30.4080   51.1030 O   0  0  0  0  0  0  0  0  0  0  0  0
   59.3190   30.3870   49.7110 C   0  0  0  0  0  0  0  0  0  0  0  0
   59.2330   31.5590   48.9470 C   0  0  0  0  0  0  0  0  0  0  0  0
   59.0390   31.4580   47.5620 C   0  0  0  0  0  0  0  0  0  0  0  0
   58.9360   32.6600   46.6960 C   0  0  0  0  0  0  0  0  0  0  0  0
   57.9650   32.7050   45.6770 C   0  0  0  0  0  0  0  0  0  0  0  0
   57.8400   33.8340   44.8620 C   0  0  0  0  0  0  0  0  0  0  0  0
   58.6870   34.9240   45.0470 C   0  0  0  0  0  0  0  0  0  0  0  0
   59.6780   34.8860   46.0380 C   0  0  0  0  0  0  0  0  0  0  0  0
   59.8050   33.7610   46.8560 C   0  0  0  0  0  0  0  0  0  0  0  0
   58.9000   30.2220   47.0110 N   0  0  0  0  0  0  0  0  0  0  0  0
   58.9640   29.0840   47.7550 C   0  0  0  0  0  0  0  0  0  0  0  0
   58.7700   27.7650   47.0960 C   0  0  0  0  0  0  0  0  0  0  0  0
   59.8540   26.8720   46.9670 C   0  0  0  0  0  0  0  0  0  0  0  0
   59.6890   25.6350   46.3410 C   0  0  0  0  0  0  0  0  0  0  0  0
   58.4400   25.2720   45.8360 C   0  0  0  0  0  0  0  0  0  0  0  0
   57.3500   26.1300   45.9870 C   0  0  0  0  0  0  0  0  0  0  0  0
   57.5100   27.3690   46.6100 C   0  0  0  0  0  0  0  0  0  0  0  0
   59.1730   29.1810   49.1010 N   0  0  0  0  0  0  0  0  0  0  0  0
   57.4540   30.0650   52.4030 N   0  0  0  0  0  0  0  0  0  0  0  0
   56.5990   29.2240   53.2650 C   0  0  0  0  0  0  0  0  0  0  0  0
   55.1690   29.0970   52.6910 C   0  0  0  0  0  0  0  0  0  0  0  0
   54.6790   30.3400   51.8720 C   0  0  0  0  0  0  0  0  0  0  0  0
   53.2140   30.5730   52.0410 N   0  0  0  0  0  0  0  0  0  0  0  0
   52.3770   29.6570   51.2290 C   0  0  0  0  0  0  0  0  0  0  0  0
   51.7660   30.4530   50.0980 C   0  0  0  0  0  0  0  0  0  0  0  0
   51.6400   31.8350   50.6750 C   0  0  0  0  0  0  0  0  0  0  0  0
   52.8180   31.9430   51.6320 C   0  0  0  0  0  0  0  0  0  0  0  0
   55.4980   31.5870   52.3110 C   0  0  0  0  0  0  0  0  0  0  0  0
   56.9700   31.3750   51.9470 C   0  0  0  0  0  0  0  0  0  0  0  0
   59.3166   32.5449   49.4276 H   0  0  0  0  0  0  0  0  0  0  0  0
   57.2987   31.8438   45.5209 H   0  0  0  0  0  0  0  0  0  0  0  0
   57.0725   33.8614   44.0745 H   0  0  0  0  0  0  0  0  0  0  0  0
   58.5782   35.8170   44.4140 H   0  0  0  0  0  0  0  0  0  0  0  0
   60.3556   35.7422   46.1713 H   0  0  0  0  0  0  0  0  0  0  0  0
   60.5867   33.7327   47.6294 H   0  0  0  0  0  0  0  0  0  0  0  0
   60.8405   27.1533   47.3641 H   0  0  0  0  0  0  0  0  0  0  0  0
   60.5425   24.9476   46.2461 H   0  0  0  0  0  0  0  0  0  0  0  0
   58.3146   24.3093   45.3188 H   0  0  0  0  0  0  0  0  0  0  0  0
   56.3602   25.8287   45.6135 H   0  0  0  0  0  0  0  0  0  0  0  0
   56.6456   28.0401   46.7218 H   0  0  0  0  0  0  0  0  0  0  0  0
   59.1890   28.3290   49.7010 H   0  0  0  0  0  0  0  0  0  0  0  0
   57.0443   28.2210   53.3411 H   0  0  0  0  0  0  0  0  0  0  0  0
   56.5332   29.6986   54.2552 H   0  0  0  0  0  0  0  0  0  0  0  0
   55.1422   28.2186   52.0294 H   0  0  0  0  0  0  0  0  0  0  0  0
   54.4942   29.0089   53.5552 H   0  0  0  0  0  0  0  0  0  0  0  0
   54.8445   30.1479   50.8016 H   0  0  0  0  0  0  0  0  0  0  0  0
   52.9996   28.8473   50.8206 H   0  0  0  0  0  0  0  0  0  0  0  0
   51.5863   29.2127   51.8514 H   0  0  0  0  0  0  0  0  0  0  0  0
   52.4235   30.4528   49.2161 H   0  0  0  0  0  0  0  0  0  0  0  0
   50.8059   30.0420   49.7526 H   0  0  0  0  0  0  0  0  0  0  0  0
   51.7076   32.5966   49.8842 H   0  0  0  0  0  0  0  0  0  0  0  0
   50.6732   31.9993   51.1733 H   0  0  0  0  0  0  0  0  0  0  0  0
   53.6612   32.4393   51.1293 H   0  0  0  0  0  0  0  0  0  0  0  0
   52.5355   32.5350   52.5150 H   0  0  0  0  0  0  0  0  0  0  0  0
   55.1157   32.4793   51.7936 H   0  0  0  0  0  0  0  0  0  0  0  0
   55.4023   31.7287   53.3976 H   0  0  0  0  0  0  0  0  0  0  0  0
   57.0804   31.4363   50.8543 H   0  0  0  0  0  0  0  0  0  0  0  0
   57.5645   32.1551   52.4450 H   0  0  0  0  0  0  0  0  0  0  0  0
  1  2  2  0
  2  3  1  0
  3  4  1  0
  4  5  2  0
  5  6  1  0
  6  7  1  0
  7  8  2  0
  8  9  1  0
  9 10  2  0
 10 11  1  0
 11 12  2  0
  6 13  2  0
 13 14  1  0
 14 15  1  0
 15 16  2  0
 16 17  1  0
 17 18  2  0
 18 19  1  0
 19 20  2  0
 14 21  2  0
  2 22  1  0
 22 23  1  0
 23 24  1  0
 24 25  1  0
 25 26  1  0
 26 27  1  0
 27 28  1  0
 28 29  1  0
 29 30  1  0
 25 31  1  0
 31 32  1  0
 21  4  1  0
 32 22  1  0
 12  7  1  0
 20 15  1  0
 30 26  1  0
  5 33  1  0
  8 34  1  0
  9 35  1  0
 10 36  1  0
 11 37  1  0
 12 38  1  0
 16 39  1  0
 17 40  1  0
 18 41  1  0
 19 42  1  0
 20 43  1  0
 21 44  1  0
 23 45  1  0
 23 46  1  0
 24 47  1  0
 24 48  1  0
 25 49  1  0
 27 50  1  0
 27 51  1  0
 28 52  1  0
 28 53  1  0
 29 54  1  0
 29 55  1  0
 30 56  1  0
 30 57  1  0
 31 58  1  0
 31 59  1  0
 32 60  1  0
 32 61  1  0
M  CHG  1  21   1
M  END
>  <UniqueID>  (55) 
48

>  <SMILES>  (55) 
O=C(Oc1cc(-c2ccccc2)nc(-c2ccccc2)[nH+]1)N1CCC(N2CCCC2)CC1

>  <Energy>  (55) 
87.87279666111041

>  <Genealogy>  (55) 
O=C(Oc1cc(-c2ccccc2)nc(-c2ccccc2)[nH+]1)N1CCC(N2CCCC2)CC1 (protonated)
O=C(Oc1cc(-c2ccccc2)nc(-c2ccccc2)[nH+]1)N1CCC(N2CCCC2)CC1 (3D coordinates assigned)
O=C(Oc1cc(-c2ccccc2)nc(-c2ccccc2)[nH+]1)N1CCC(N2CCCC2)CC1 (nonaromatic ring conformer: 87.87279666111041 kcal/mol)

>  <smiles>  (55) 
O=C(Oc1cc(-c2ccccc2)nc(-c2ccccc2)n1)N1CCC(N2CCCC2)CC1

>  <score_type>  (55) 
oracle

>  <origin>  (55) 
adg

>  <m_score__min__energy>  (55) 
-7.7400000000000002

>  <m_primary>  (55) 
energy

$$$$
55:0
     RDKit          3D

 46 47  0  0  0  0  0  0  0  0999 V2000
   59.5670   33.6220   48.9700 C   0  0  0  0  0  0  0  0  0  0  0  0
   58.6490   32.8140   48.0460 C   0  0  0  0  0  0  0  0  0  0  0  0
   59.3530   32.2680   46.8570 N   0  0  2  0  0  0  0  0  0  0  0  0
   60.8380   32.2250   47.0050 C   0  0  0  0  0  0  0  0  0  0  0  0
   61.4620   30.8160   47.1200 C   0  0  0  0  0  0  0  0  0  0  0  0
   60.4630   29.7980   47.1180 O   0  0  0  0  0  0  0  0  0  0  0  0
   59.9450   29.2230   45.9510 C   0  0  0  0  0  0  0  0  0  0  0  0
   60.3690   29.5910   44.8210 O   0  0  0  0  0  0  0  0  0  0  0  0
   58.8920   28.1910   46.0480 C   0  0  0  0  0  0  0  0  0  0  0  0
   58.3860   27.5810   44.8860 C   0  0  0  0  0  0  0  0  0  0  0  0
   57.3990   26.5950   44.9730 C   0  0  0  0  0  0  0  0  0  0  0  0
   56.8980   26.2000   46.2270 C   0  0  0  0  0  0  0  0  0  0  0  0
   55.9080   25.2160   46.3660 O   0  0  0  0  0  0  0  0  0  0  0  0
   55.3380   24.4910   45.2820 C   0  0  0  0  0  0  0  0  0  0  0  0
   57.4010   26.8060   47.3830 C   0  0  0  0  0  0  0  0  0  0  0  0
   58.3890   27.7910   47.2990 C   0  0  0  0  0  0  0  0  0  0  0  0
   58.8960   32.9860   45.6390 C   0  0  0  0  0  0  0  0  0  0  0  0
   58.0560   32.1230   44.7400 C   0  0  0  0  0  0  0  0  0  0  0  0
   58.1010   32.1100   43.3590 C   0  0  0  0  0  0  0  0  0  0  0  0
   57.1460   31.1970   42.9640 C   0  0  0  0  0  0  0  0  0  0  0  0
   56.5810   30.7160   44.1310 C   0  0  0  0  0  0  0  0  0  0  0  0
   55.5100   29.7180   44.2250 C   0  0  0  0  0  0  0  0  0  0  0  0
   54.5650   29.7150   43.3930 O   0  0  0  0  0  0  0  0  0  0  0  0
   55.5370   28.7680   45.2380 O   0  0  0  0  0  0  0  0  0  0  0  0
   57.1420   31.2850   45.1720 O   0  0  0  0  0  0  0  0  0  0  0  0
   59.3173   33.4022   50.0185 H   0  0  0  0  0  0  0  0  0  0  0  0
   60.6147   33.3476   48.7773 H   0  0  0  0  0  0  0  0  0  0  0  0
   59.4278   34.6960   48.7773 H   0  0  0  0  0  0  0  0  0  0  0  0
   58.2266   31.9751   48.6186 H   0  0  0  0  0  0  0  0  0  0  0  0
   57.8685   33.4973   47.6799 H   0  0  0  0  0  0  0  0  0  0  0  0
   59.0360   31.2750   46.7470 H   0  0  0  0  0  0  0  0  0  0  0  0
   61.2791   32.7188   46.1266 H   0  0  0  0  0  0  0  0  0  0  0  0
   61.0578   32.7277   47.9584 H   0  0  0  0  0  0  0  0  0  0  0  0
   62.1382   30.6543   46.2676 H   0  0  0  0  0  0  0  0  0  0  0  0
   62.0098   30.7588   48.0722 H   0  0  0  0  0  0  0  0  0  0  0  0
   58.7703   27.8824   43.9004 H   0  0  0  0  0  0  0  0  0  0  0  0
   57.0121   26.1256   44.0565 H   0  0  0  0  0  0  0  0  0  0  0  0
   54.7029   23.6833   45.6748 H   0  0  0  0  0  0  0  0  0  0  0  0
   54.7292   25.1698   44.6667 H   0  0  0  0  0  0  0  0  0  0  0  0
   56.1413   24.0596   44.6667 H   0  0  0  0  0  0  0  0  0  0  0  0
   57.0151   26.5043   48.3679 H   0  0  0  0  0  0  0  0  0  0  0  0
   58.7758   28.2565   48.2175 H   0  0  0  0  0  0  0  0  0  0  0  0
   58.3006   33.8582   45.9468 H   0  0  0  0  0  0  0  0  0  0  0  0
   59.7907   33.2846   45.0730 H   0  0  0  0  0  0  0  0  0  0  0  0
   58.7611   32.7041   42.7099 H   0  0  0  0  0  0  0  0  0  0  0  0
   56.8872   30.9106   41.9339 H   0  0  0  0  0  0  0  0  0  0  0  0
  1  2  1  0
  2  3  1  0
  3  4  1  0
  4  5  1  0
  5  6  1  0
  6  7  1  0
  7  8  2  0
  7  9  1  0
  9 10  2  0
 10 11  1  0
 11 12  2  0
 12 13  1  0
 13 14  1  0
 12 15  1  0
 15 16  2  0
  3 17  1  0
 17 18  1  0
 18 19  2  0
 19 20  1  0
 20 21  2  0
 21 22  1  0
 22 23  2  0
 22 24  1  0
 21 25  1  0
 16  9  1  0
 25 18  1  0
  1 26  1  0
  1 27  1  0
  1 28  1  0
  2 29  1  0
  2 30  1  0
  3 31  1  6
  4 32  1  0
  4 33  1  0
  5 34  1  0
  5 35  1  0
 10 36  1  0
 11 37  1  0
 14 38  1  0
 14 39  1  0
 14 40  1  0
 15 41  1  0
 16 42  1  0
 17 43  1  0
 17 44  1  0
 19 45  1  0
 20 46  1  0
M  CHG  2   3   1  24  -1
M  END
>  <UniqueID>  (56) 
49

>  <SMILES>  (56) 
CC[N@H+](CCOC(=O)c1ccc(OC)cc1)Cc1ccc(C(=O)[O-])o1

>  <Energy>  (56) 
72.72428675834634

>  <Genealogy>  (56) 
CC[NH+](CCOC(=O)c1ccc(OC)cc1)Cc1ccc(C(=O)[O-])o1 (protonated)
CC[N@H+](CCOC(=O)c1ccc(OC)cc1)Cc1ccc(C(=O)[O-])o1 (chirality)
CC[N@H+](CCOC(=O)c1ccc(OC)cc1)Cc1ccc(C(=O)[O-])o1 (3D coordinates assigned)
CC[N@H+](CCOC(=O)c1ccc(OC)cc1)Cc1ccc(C(=O)[O-])o1 (optimized conformer: 72.72428675834634 kcal/mol)

>  <smiles>  (56) 
CCN(CCOC(=O)c1ccc(OC)cc1)Cc1ccc(C(=O)O)o1

>  <score_type>  (56) 
oracle

>  <origin>  (56) 
adg

>  <m_score__min__energy>  (56) 
-8.3599999999999994

>  <m_primary>  (56) 
energy

$$$$
56:0
     RDKit          3D

 37 39  0  0  0  0  0  0  0  0999 V2000
   55.6000   28.7200   42.1810 H   0  0  0  0  0  0  0  0  0  0  0  0
   56.6400   28.7420   42.2770 N   0  0  0  0  0  0  0  0  0  0  0  0
   57.2130   29.0330   43.4040 C   0  0  0  0  0  0  0  0  0  0  0  0
   57.4250   30.3370   43.7200 N   0  0  0  0  0  0  0  0  0  0  0  0
   58.0200   30.6880   44.8870 C   0  0  0  0  0  0  0  0  0  0  0  0
   58.2440   32.0760   45.2110 N   0  0  0  0  0  0  0  0  0  0  0  0
   57.9250   33.1370   44.2430 C   0  0  0  0  0  0  0  0  0  0  0  0
   58.8379   33.3973   43.6872 H   0  0  0  0  0  0  0  0  0  0  0  0
   57.1436   32.7582   43.5678 H   0  0  0  0  0  0  0  0  0  0  0  0
   57.3830   34.4080   44.9370 C   0  0  0  0  0  0  0  0  0  0  0  0
   57.7230   35.2836   44.3646 H   0  0  0  0  0  0  0  0  0  0  0  0
   56.2877   34.3088   44.9608 H   0  0  0  0  0  0  0  0  0  0  0  0
   57.8200   34.5740   46.3360 N   0  0  0  0  0  0  0  0  0  0  0  0
   57.0970   34.1440   46.9630 H   0  0  0  0  0  0  0  0  0  0  0  0
   59.1170   33.9360   46.5970 C   0  0  1  0  0  0  0  0  0  0  0  0
   59.8593   34.2992   45.8710 H   0  0  0  0  0  0  0  0  0  0  0  0
   59.6090   34.3020   47.9980 C   0  0  0  0  0  0  0  0  0  0  0  0
   58.9647   33.8227   48.7497 H   0  0  0  0  0  0  0  0  0  0  0  0
   60.6442   33.9527   48.1260 H   0  0  0  0  0  0  0  0  0  0  0  0
   59.5720   35.3939   48.1260 H   0  0  0  0  0  0  0  0  0  0  0  0
   58.9840   32.4130   46.4360 C   0  0  0  0  0  0  0  0  0  0  0  0
   59.9884   31.9676   46.3837 H   0  0  0  0  0  0  0  0  0  0  0  0
   58.4313   32.0159   47.3002 H   0  0  0  0  0  0  0  0  0  0  0  0
   58.4070   29.7140   45.7490 N   0  0  0  0  0  0  0  0  0  0  0  0
   58.2040   28.4060   45.4530 C   0  0  0  0  0  0  0  0  0  0  0  0
   58.6040   27.4280   46.3590 C   0  0  0  0  0  0  0  0  0  0  0  0
   59.0816   27.7119   47.3084 H   0  0  0  0  0  0  0  0  0  0  0  0
   58.3940   26.0910   46.0520 C   0  0  0  0  0  0  0  0  0  0  0  0
   58.6900   25.3057   46.7632 H   0  0  0  0  0  0  0  0  0  0  0  0
   57.8030   25.7500   44.8310 C   0  0  0  0  0  0  0  0  0  0  0  0
   57.5220   24.3080   44.4940 C   0  0  0  0  0  0  0  0  0  0  0  0
   57.2880   24.1950   43.1360 F   0  0  0  0  0  0  0  0  0  0  0  0
   56.4140   23.8440   45.1830 F   0  0  0  0  0  0  0  0  0  0  0  0
   58.6050   23.5160   44.8310 F   0  0  0  0  0  0  0  0  0  0  0  0
   57.4030   26.7460   43.9850 N   0  0  0  0  0  0  0  0  0  0  0  0
   56.9270   26.4690   43.0960 H   0  0  0  0  0  0  0  0  0  0  0  0
   57.6030   28.0450   44.2720 N   0  0  0  0  0  0  0  0  0  0  0  0
  1  2  1  0
  2  3  2  0
  3  4  1  0
  4  5  2  0
  5  6  1  0
  6  7  1  0
  7  8  1  0
  7  9  1  0
  7 10  1  0
 10 11  1  0
 10 12  1  0
 10 13  1  0
 13 14  1  0
 13 15  1  0
 15 16  1  6
 15 17  1  0
 17 18  1  0
 17 19  1  0
 17 20  1  0
 15 21  1  0
 21 22  1  0
 21 23  1  0
  5 24  1  0
 24 25  2  0
 25 26  1  0
 26 27  1  0
 26 28  2  0
 28 29  1  0
 28 30  1  0
 30 31  1  0
 31 32  1  0
 31 33  1  0
 31 34  1  0
 30 35  2  0
 35 36  1  0
 35 37  1  0
 37  3  1  0
 21  6  1  0
 37 25  1  0
M  CHG  1  35   1
M  END
>  <UniqueID>  (57) 
50

>  <SMILES>  (57) 
[H]/N=c1\nc(N2CCN[C@@H](C)C2)nc2ccc(C(F)(F)F)[nH+]n12

>  <Energy>  (57) 
45.9389665980071

>  <Genealogy>  (57) 
CC1CN(c2nc(=N)n3[nH+]c(C(F)(F)F)ccc3n2)CCN1 (protonated)
C[C@H]1CN(c2nc(=N)n3[nH+]c(C(F)(F)F)ccc3n2)CCN1 (chirality)
[H]/N=c1\nc(N2CCN[C@@H](C)C2)nc2ccc(C(F)(F)F)[nH+]n12 (cis-trans isomerization)
[H]/N=c1\nc(N2CCN[C@@H](C)C2)nc2ccc(C(F)(F)F)[nH+]n12 (3D coordinates assigned)
[H]/N=c1\nc(N2CCN[C@@H](C)C2)nc2ccc(C(F)(F)F)[nH+]n12 (nonaromatic ring conformer: 45.9389665980071 kcal/mol)

>  <smiles>  (57) 
CC1CN(c2nc(=N)n3nc(C(F)(F)F)ccc3n2)CCN1

>  <score_type>  (57) 
oracle

>  <origin>  (57) 
adg

>  <m_score__min__energy>  (57) 
-5.29

>  <m_primary>  (57) 
energy

$$$$
57:0
     RDKit          3D

 25 27  0  0  0  0  0  0  0  0999 V2000
   59.6700   35.7840   46.0030 C   0  0  0  0  0  0  0  0  0  0  0  0
   59.2010   34.4070   45.7500 C   0  0  0  0  0  0  0  0  0  0  0  0
   58.1890   33.9690   44.9080 C   0  0  0  0  0  0  0  0  0  0  0  0
   57.9680   32.6370   44.8700 C   0  0  0  0  0  0  0  0  0  0  0  0
   58.6680   31.8000   45.5850 C   0  0  0  0  0  0  0  0  0  0  0  0
   58.8330   30.3970   45.8610 C   0  0  0  0  0  0  0  0  0  0  0  0
   59.9870   29.7910   46.3940 C   0  0  0  0  0  0  0  0  0  0  0  0
   59.7870   28.5030   46.5390 O   0  0  0  0  0  0  0  0  0  0  0  0
   58.6110   28.1600   46.1620 C   0  0  0  0  0  0  0  0  0  0  0  0
   58.0090   26.9640   46.1440 N   0  0  0  0  0  0  0  0  0  0  0  0
   56.7380   26.8280   45.7000 C   0  0  0  0  0  0  0  0  0  0  0  0
   56.1230   27.9340   45.2850 N   0  0  0  0  0  0  0  0  0  0  0  0
   56.6900   29.1650   45.2830 C   0  0  0  0  0  0  0  0  0  0  0  0
   55.9980   30.1270   44.8840 N   0  0  0  0  0  0  0  0  0  0  0  0
   57.9710   29.3280   45.7240 C   0  0  0  0  0  0  0  0  0  0  0  0
   59.7910   32.8980   46.4470 S   0  0  0  0  0  0  0  0  0  0  0  0
   59.7292   35.9577   47.0876 H   0  0  0  0  0  0  0  0  0  0  0  0
   60.6653   35.9205   45.5549 H   0  0  0  0  0  0  0  0  0  0  0  0
   58.9649   36.4996   45.5549 H   0  0  0  0  0  0  0  0  0  0  0  0
   57.5968   34.6707   44.3023 H   0  0  0  0  0  0  0  0  0  0  0  0
   57.1740   32.2463   44.2166 H   0  0  0  0  0  0  0  0  0  0  0  0
   60.9173   30.3191   46.6504 H   0  0  0  0  0  0  0  0  0  0  0  0
   56.2360   25.8494   45.6826 H   0  0  0  0  0  0  0  0  0  0  0  0
   55.1440   27.8410   44.9420 H   0  0  0  0  0  0  0  0  0  0  0  0
   55.1310   30.5380   45.2270 H   0  0  0  0  0  0  0  0  0  0  0  0
  1  2  1  0
  2  3  2  0
  3  4  1  0
  4  5  2  0
  5  6  1  0
  6  7  2  0
  7  8  1  0
  8  9  1  0
  9 10  1  0
 10 11  2  0
 11 12  1  0
 12 13  1  0
 13 14  2  3
 13 15  1  0
  5 16  1  0
 16  2  1  0
 15  6  1  0
 15  9  2  0
  1 17  1  0
  1 18  1  0
  1 19  1  0
  3 20  1  0
  4 21  1  0
  7 22  1  0
 11 23  1  0
 12 24  1  0
 14 25  1  0
M  END
>  <smiles>  (58) 
Cc1ccc(-c2coc3nc[nH]c(=N)c23)s1

>  <score_type>  (58) 
oracle

>  <origin>  (58) 
adg

>  <m_score__min__energy>  (58) 
-6.3499999999999996

>  <m_primary>  (58) 
energy

$$$$
58:0
     RDKit          3D

 67 71  0  0  0  0  0  0  0  0999 V2000
   56.5600   26.5750   45.8540 C   0  0  0  0  0  0  0  0  0  0  0  0
   57.6760   27.4950   45.5600 N   0  0  0  0  0  0  0  0  0  0  0  0
   57.7990   28.5770   46.5630 C   0  0  0  0  0  0  0  0  0  0  0  0
   59.2650   28.9700   46.7780 C   0  0  0  0  0  0  0  0  0  0  0  0
   59.3910   29.8700   47.9230 N   0  0  0  0  0  0  0  0  0  0  0  0
   60.1670   29.5440   49.0870 C   0  0  0  0  0  0  0  0  0  0  0  0
   60.7720   28.4410   49.1490 O   0  0  0  0  0  0  0  0  0  0  0  0
   60.3050   30.5090   50.2010 C   0  0  0  0  0  0  0  0  0  0  0  0
   61.4700   30.4850   50.9830 C   0  0  0  0  0  0  0  0  0  0  0  0
   61.6350   31.3650   52.0040 N   0  0  0  0  0  0  0  0  0  0  0  0
   60.6880   32.2840   52.3170 C   0  0  0  0  0  0  0  0  0  0  0  0
   60.8960   33.1410   53.3530 N   0  0  0  0  0  0  0  0  0  0  0  0
   59.9710   34.0690   53.7090 C   0  0  0  0  0  0  0  0  0  0  0  0
   58.7670   34.1630   53.0090 C   0  0  0  0  0  0  0  0  0  0  0  0
   58.5210   33.2980   51.9410 C   0  0  0  0  0  0  0  0  0  0  0  0
   59.4880   32.3440   51.5770 C   0  0  0  0  0  0  0  0  0  0  0  0
   59.2960   31.4420   50.5120 C   0  0  0  0  0  0  0  0  0  0  0  0
   58.2170   31.4560   49.8570 O   0  0  0  0  0  0  0  0  0  0  0  0
   57.6390   28.0040   44.1670 C   0  0  0  0  0  0  0  0  0  0  0  0
   56.5220   29.0570   43.8910 C   0  0  1  0  0  0  0  0  0  0  0  0
   55.5230   29.0160   44.8800 O   0  0  0  0  0  0  0  0  0  0  0  0
   57.0580   30.4750   43.7700 C   0  0  0  0  0  0  0  0  0  0  0  0
   57.3830   30.9840   42.5010 C   0  0  0  0  0  0  0  0  0  0  0  0
   57.7900   32.3120   42.3510 C   0  0  0  0  0  0  0  0  0  0  0  0
   57.8830   33.1470   43.4670 C   0  0  0  0  0  0  0  0  0  0  0  0
   57.5770   32.6620   44.7420 C   0  0  0  0  0  0  0  0  0  0  0  0
   57.7220   33.5260   45.8380 O   0  0  0  0  0  0  0  0  0  0  0  0
   57.8120   33.1030   47.1990 C   0  0  0  0  0  0  0  0  0  0  0  0
   59.2000   33.3510   47.7190 C   0  0  0  0  0  0  0  0  0  0  0  0
   59.4530   34.3750   48.6430 C   0  0  0  0  0  0  0  0  0  0  0  0
   60.7380   34.5260   49.1720 C   0  0  0  0  0  0  0  0  0  0  0  0
   61.7600   33.6540   48.7770 C   0  0  0  0  0  0  0  0  0  0  0  0
   63.0620   33.7740   49.2870 C   0  0  0  0  0  0  0  0  0  0  0  0
   64.0610   32.8860   48.8710 C   0  0  0  0  0  0  0  0  0  0  0  0
   63.7660   31.8800   47.9450 C   0  0  0  0  0  0  0  0  0  0  0  0
   62.4710   31.7510   47.4330 C   0  0  0  0  0  0  0  0  0  0  0  0
   61.4660   32.6330   47.8440 C   0  0  0  0  0  0  0  0  0  0  0  0
   60.2060   32.5110   47.3510 N   0  0  0  0  0  0  0  0  0  0  0  0
   57.1340   31.3340   44.8860 C   0  0  0  0  0  0  0  0  0  0  0  0
   56.4422   26.4779   46.9433 H   0  0  0  0  0  0  0  0  0  0  0  0
   55.6317   26.9738   45.4189 H   0  0  0  0  0  0  0  0  0  0  0  0
   56.7743   25.5877   45.4189 H   0  0  0  0  0  0  0  0  0  0  0  0
   57.2395   29.4567   46.2121 H   0  0  0  0  0  0  0  0  0  0  0  0
   57.3921   28.2141   47.5184 H   0  0  0  0  0  0  0  0  0  0  0  0
   59.8595   28.0632   46.9632 H   0  0  0  0  0  0  0  0  0  0  0  0
   59.6308   29.4859   45.8780 H   0  0  0  0  0  0  0  0  0  0  0  0
   58.9200   30.8040   47.8640 H   0  0  0  0  0  0  0  0  0  0  0  0
   62.2565   29.7469   50.7670 H   0  0  0  0  0  0  0  0  0  0  0  0
   60.1708   34.7482   54.5509 H   0  0  0  0  0  0  0  0  0  0  0  0
   58.0166   34.9140   53.2970 H   0  0  0  0  0  0  0  0  0  0  0  0
   57.5735   33.3625   51.3859 H   0  0  0  0  0  0  0  0  0  0  0  0
   58.6111   28.4686   43.9454 H   0  0  0  0  0  0  0  0  0  0  0  0
   57.4183   27.1390   43.5243 H   0  0  0  0  0  0  0  0  0  0  0  0
   56.0872   28.7801   42.9193 H   0  0  0  0  0  0  0  0  0  0  0  0
   55.1450   28.0970   44.8890 H   0  0  0  0  0  0  0  0  0  0  0  0
   57.3163   30.3311   41.6182 H   0  0  0  0  0  0  0  0  0  0  0  0
   58.0377   32.7008   41.3523 H   0  0  0  0  0  0  0  0  0  0  0  0
   58.1991   34.1931   43.3418 H   0  0  0  0  0  0  0  0  0  0  0  0
   57.0886   33.6678   47.8054 H   0  0  0  0  0  0  0  0  0  0  0  0
   57.5881   32.0278   47.2605 H   0  0  0  0  0  0  0  0  0  0  0  0
   58.6450   35.0554   48.9497 H   0  0  0  0  0  0  0  0  0  0  0  0
   60.9458   35.3273   49.8963 H   0  0  0  0  0  0  0  0  0  0  0  0
   63.2974   34.5657   50.0135 H   0  0  0  0  0  0  0  0  0  0  0  0
   65.0805   32.9796   49.2733 H   0  0  0  0  0  0  0  0  0  0  0  0
   64.5558   31.1876   47.6182 H   0  0  0  0  0  0  0  0  0  0  0  0
   62.2428   30.9563   46.7074 H   0  0  0  0  0  0  0  0  0  0  0  0
   56.8439   30.9620   45.8797 H   0  0  0  0  0  0  0  0  0  0  0  0
  1  2  1  0
  2  3  1  0
  3  4  1  0
  4  5  1  0
  5  6  1  0
  6  7  2  0
  6  8  1  0
  8  9  2  0
  9 10  1  0
 10 11  1  0
 11 12  2  0
 12 13  1  0
 13 14  2  0
 14 15  1  0
 15 16  2  0
 16 17  1  0
 17 18  2  0
  2 19  1  0
 19 20  1  0
 20 21  1  0
 20 22  1  0
 22 23  2  0
 23 24  1  0
 24 25  2  0
 25 26  1  0
 26 27  1  0
 27 28  1  0
 28 29  1  0
 29 30  2  0
 30 31  1  0
 31 32  2  0
 32 33  1  0
 33 34  2  0
 34 35  1  0
 35 36  2  0
 36 37  1  0
 37 38  2  0
 26 39  2  0
 17  8  1  0
 39 22  1  0
 16 11  1  0
 38 29  1  0
 37 32  1  0
  1 40  1  0
  1 41  1  0
  1 42  1  0
  3 43  1  0
  3 44  1  0
  4 45  1  0
  4 46  1  0
  5 47  1  0
  9 48  1  0
 13 49  1  0
 14 50  1  0
 15 51  1  0
 19 52  1  0
 19 53  1  0
 20 54  1  6
 21 55  1  0
 23 56  1  0
 24 57  1  0
 25 58  1  0
 28 59  1  0
 28 60  1  0
 30 61  1  0
 31 62  1  0
 33 63  1  0
 34 64  1  0
 35 65  1  0
 36 66  1  0
 39 67  1  0
M  CHG  1  10  -1
M  END
>  <UniqueID>  (59) 
51

>  <SMILES>  (59) 
CN(CCNC(=O)c1c[n-]c2ncccc2c1=O)C[C@@H](O)c1cccc(OCc2ccc3ccccc3n2)c1

>  <Energy>  (59) 
90.20306196487051

>  <Genealogy>  (59) 
CN(CCNC(=O)c1c[n-]c2ncccc2c1=O)CC(O)c1cccc(OCc2ccc3ccccc3n2)c1 (protonated)
CN(CCNC(=O)c1c[n-]c2ncccc2c1=O)C[C@@H](O)c1cccc(OCc2ccc3ccccc3n2)c1 (chirality)
CN(CCNC(=O)c1c[n-]c2ncccc2c1=O)C[C@@H](O)c1cccc(OCc2ccc3ccccc3n2)c1 (3D coordinates assigned)
CN(CCNC(=O)c1c[n-]c2ncccc2c1=O)C[C@@H](O)c1cccc(OCc2ccc3ccccc3n2)c1 (optimized conformer: 90.20306196487051 kcal/mol)

>  <smiles>  (59) 
CN(CCNC(=O)c1c[nH]c2ncccc2c1=O)CC(O)c1cccc(OCc2ccc3ccccc3n2)c1

>  <score_type>  (59) 
oracle

>  <origin>  (59) 
adg

>  <m_score__min__energy>  (59) 
-12.369999999999999

>  <m_primary>  (59) 
energy

$$$$
59:0
     RDKit          3D

 47 50  0  0  0  0  0  0  0  0999 V2000
   56.7120   30.8520   43.3820 C   0  0  0  0  0  0  0  0  0  0  0  0
   55.9920   29.8900   44.0950 C   0  0  0  0  0  0  0  0  0  0  0  0
   56.6480   29.0620   45.0120 C   0  0  0  0  0  0  0  0  0  0  0  0
   58.0300   29.1940   45.2260 C   0  0  0  0  0  0  0  0  0  0  0  0
   58.7320   28.3120   46.2300 C   0  0  0  0  0  0  0  0  0  0  0  0
   59.7890   29.0780   47.0360 C   0  0  0  0  0  0  0  0  0  0  0  0
   59.0450   30.2920   48.1880 S   0  0  0  0  0  0  0  0  0  0  0  0
   59.8670   31.7230   47.4580 C   0  0  0  0  0  0  0  0  0  0  0  0
   61.2040   31.8740   47.6580 N   0  0  0  0  0  0  0  0  0  0  0  0
   61.8980   32.8990   47.0880 C   0  0  0  0  0  0  0  0  0  0  0  0
   63.3860   32.9800   47.2390 C   0  0  0  0  0  0  0  0  0  0  0  0
   63.7310   33.3210   48.6630 C   0  0  0  0  0  0  0  0  0  0  0  0
   64.8520   32.7360   49.2780 C   0  0  0  0  0  0  0  0  0  0  0  0
   65.1400   33.0070   50.6200 C   0  0  0  0  0  0  0  0  0  0  0  0
   64.3070   33.8550   51.3580 C   0  0  0  0  0  0  0  0  0  0  0  0
   63.1820   34.4310   50.7560 C   0  0  0  0  0  0  0  0  0  0  0  0
   62.8930   34.1660   49.4150 C   0  0  0  0  0  0  0  0  0  0  0  0
   61.2500   33.8050   46.3090 N   0  0  0  0  0  0  0  0  0  0  0  0
   59.9120   33.7240   46.1010 C   0  0  0  0  0  0  0  0  0  0  0  0
   59.2730   34.6760   45.2970 C   0  0  0  0  0  0  0  0  0  0  0  0
   57.8970   34.5900   45.0710 C   0  0  0  0  0  0  0  0  0  0  0  0
   57.1530   33.5570   45.6480 C   0  0  0  0  0  0  0  0  0  0  0  0
   57.7820   32.5990   46.4500 C   0  0  0  0  0  0  0  0  0  0  0  0
   59.1690   32.6710   46.6810 C   0  0  0  0  0  0  0  0  0  0  0  0
   58.7480   30.1580   44.4990 C   0  0  0  0  0  0  0  0  0  0  0  0
   58.0900   30.9830   43.5820 C   0  0  0  0  0  0  0  0  0  0  0  0
   56.1954   31.5058   42.6639 H   0  0  0  0  0  0  0  0  0  0  0  0
   54.9089   29.7837   43.9352 H   0  0  0  0  0  0  0  0  0  0  0  0
   56.0784   28.3033   45.5686 H   0  0  0  0  0  0  0  0  0  0  0  0
   57.9845   27.9025   46.9254 H   0  0  0  0  0  0  0  0  0  0  0  0
   59.2446   27.5118   45.6760 H   0  0  0  0  0  0  0  0  0  0  0  0
   60.3812   28.3562   47.6176 H   0  0  0  0  0  0  0  0  0  0  0  0
   60.4166   29.6332   46.3233 H   0  0  0  0  0  0  0  0  0  0  0  0
   61.7120   31.1810   48.2510 H   0  0  0  0  0  0  0  0  0  0  0  0
   63.8340   32.0104   46.9759 H   0  0  0  0  0  0  0  0  0  0  0  0
   63.7790   33.7606   46.5710 H   0  0  0  0  0  0  0  0  0  0  0  0
   65.5045   32.0632   48.7022 H   0  0  0  0  0  0  0  0  0  0  0  0
   66.0220   32.5530   51.0953 H   0  0  0  0  0  0  0  0  0  0  0  0
   64.5363   34.0693   52.4123 H   0  0  0  0  0  0  0  0  0  0  0  0
   62.5250   35.0928   51.3393 H   0  0  0  0  0  0  0  0  0  0  0  0
   62.0076   34.6192   48.9452 H   0  0  0  0  0  0  0  0  0  0  0  0
   59.8547   35.4919   44.8432 H   0  0  0  0  0  0  0  0  0  0  0  0
   57.3976   35.3375   44.4371 H   0  0  0  0  0  0  0  0  0  0  0  0
   56.0690   33.4972   45.4708 H   0  0  0  0  0  0  0  0  0  0  0  0
   57.1918   31.7877   46.9011 H   0  0  0  0  0  0  0  0  0  0  0  0
   59.8321   30.2641   44.6518 H   0  0  0  0  0  0  0  0  0  0  0  0
   58.6574   31.7369   43.0165 H   0  0  0  0  0  0  0  0  0  0  0  0
  1  2  2  0
  2  3  1  0
  3  4  2  0
  4  5  1  0
  5  6  1  0
  6  7  1  0
  7  8  1  0
  8  9  2  0
  9 10  1  0
 10 11  1  0
 11 12  1  0
 12 13  2  0
 13 14  1  0
 14 15  2  0
 15 16  1  0
 16 17  2  0
 10 18  2  0
 18 19  1  0
 19 20  2  0
 20 21  1  0
 21 22  2  0
 22 23  1  0
 23 24  2  0
  4 25  1  0
 25 26  2  0
 26  1  1  0
 24  8  1  0
 17 12  1  0
 24 19  1  0
  1 27  1  0
  2 28  1  0
  3 29  1  0
  5 30  1  0
  5 31  1  0
  6 32  1  0
  6 33  1  0
  9 34  1  0
 11 35  1  0
 11 36  1  0
 13 37  1  0
 14 38  1  0
 15 39  1  0
 16 40  1  0
 17 41  1  0
 20 42  1  0
 21 43  1  0
 22 44  1  0
 23 45  1  0
 25 46  1  0
 26 47  1  0
M  CHG  1   9   1
M  END
>  <UniqueID>  (60) 
52

>  <SMILES>  (60) 
c1ccc(CCSc2[nH+]c(Cc3ccccc3)nc3ccccc23)cc1

>  <Energy>  (60) 
46.40478841441627

>  <Genealogy>  (60) 
c1ccc(CCSc2[nH+]c(Cc3ccccc3)nc3ccccc23)cc1 (protonated)
c1ccc(CCSc2[nH+]c(Cc3ccccc3)nc3ccccc23)cc1 (3D coordinates assigned)
c1ccc(CCSc2[nH+]c(Cc3ccccc3)nc3ccccc23)cc1 (optimized conformer: 46.40478841441627 kcal/mol)

>  <smiles>  (60) 
c1ccc(CCSc2nc(Cc3ccccc3)nc3ccccc23)cc1

>  <score_type>  (60) 
oracle

>  <origin>  (60) 
adg

>  <m_score__min__energy>  (60) 
-7.3099999999999996

>  <m_primary>  (60) 
energy

$$$$
60:0
     RDKit          3D

 47 49  0  0  0  0  0  0  0  0999 V2000
   66.9610   31.4080   51.7540 C   0  0  0  0  0  0  0  0  0  0  0  0
   66.2580   31.7120   50.4200 C   0  0  2  0  0  0  0  0  0  0  0  0
   66.8940   32.8490   49.7510 N   0  0  0  0  0  0  0  0  0  0  0  0
   64.7590   32.0100   50.6200 C   0  0  0  0  0  0  0  0  0  0  0  0
   64.1110   32.5180   49.3590 C   0  0  0  0  0  0  0  0  0  0  0  0
   64.7130   33.3910   48.6790 O   0  0  0  0  0  0  0  0  0  0  0  0
   62.7810   32.0300   48.9280 C   0  0  0  0  0  0  0  0  0  0  0  0
   62.1220   30.8850   49.3750 C   0  0  0  0  0  0  0  0  0  0  0  0
   60.9320   30.7820   48.7480 N   0  0  0  0  0  0  0  0  0  0  0  0
   60.8100   31.8110   47.9280 N   0  0  0  0  0  0  0  0  0  0  0  0
   59.7570   32.0760   47.1150 C   0  0  0  0  0  0  0  0  0  0  0  0
   59.7990   33.2290   46.3170 C   0  0  0  0  0  0  0  0  0  0  0  0
   58.7210   33.5030   45.4620 O   0  0  0  0  0  0  0  0  0  0  0  0
   58.0600   32.5580   44.6640 C   0  0  0  0  0  0  0  0  0  0  0  0
   58.1300   32.6880   43.2720 C   0  0  0  0  0  0  0  0  0  0  0  0
   57.5010   31.7550   42.4440 C   0  0  0  0  0  0  0  0  0  0  0  0
   56.7990   30.6830   43.0000 C   0  0  0  0  0  0  0  0  0  0  0  0
   56.7190   30.5400   44.3960 C   0  0  0  0  0  0  0  0  0  0  0  0
   56.0370   29.4320   45.0010 N   0  0  0  0  0  0  0  0  0  0  0  0
   56.5900   28.1320   45.2460 C   0  0  0  0  0  0  0  0  0  0  0  0
   55.8490   27.2480   45.7500 O   0  0  0  0  0  0  0  0  0  0  0  0
   57.9660   27.7860   44.8200 C   0  0  0  0  0  0  0  0  0  0  0  0
   58.1620   27.0460   43.2310 Cl  0  0  0  0  0  0  0  0  0  0  0  0
   59.0380   27.9970   45.6060 C   0  0  0  0  0  0  0  0  0  0  0  0
   60.4030   28.9560   45.0470 Cl  0  0  0  0  0  0  0  0  0  0  0  0
   59.1280   27.4020   47.2610 Cl  0  0  0  0  0  0  0  0  0  0  0  0
   57.3730   31.4640   45.2200 C   0  0  0  0  0  0  0  0  0  0  0  0
   60.9490   34.0540   46.3670 C   0  0  0  0  0  0  0  0  0  0  0  0
   62.0140   33.7400   47.2240 C   0  0  0  0  0  0  0  0  0  0  0  0
   61.9040   32.5880   48.0050 C   0  0  0  0  0  0  0  0  0  0  0  0
   66.3031   31.6925   52.5884 H   0  0  0  0  0  0  0  0  0  0  0  0
   67.1848   30.3327   51.8138 H   0  0  0  0  0  0  0  0  0  0  0  0
   67.8978   31.9814   51.8138 H   0  0  0  0  0  0  0  0  0  0  0  0
   66.3525   30.8140   49.7917 H   0  0  0  0  0  0  0  0  0  0  0  0
   66.3910   33.7260   50.0230 H   0  0  0  0  0  0  0  0  0  0  0  0
   66.7980   32.7410   48.7150 H   0  0  0  0  0  0  0  0  0  0  0  0
   64.2517   31.0852   50.9321 H   0  0  0  0  0  0  0  0  0  0  0  0
   64.6679   32.7926   51.3876 H   0  0  0  0  0  0  0  0  0  0  0  0
   62.5114   30.1771   50.1215 H   0  0  0  0  0  0  0  0  0  0  0  0
   60.2220   30.0280   48.8800 H   0  0  0  0  0  0  0  0  0  0  0  0
   58.8888   31.4013   47.0822 H   0  0  0  0  0  0  0  0  0  0  0  0
   58.6830   33.5289   42.8279 H   0  0  0  0  0  0  0  0  0  0  0  0
   57.5587   31.8649   41.3510 H   0  0  0  0  0  0  0  0  0  0  0  0
   56.3078   29.9492   42.3440 H   0  0  0  0  0  0  0  0  0  0  0  0
   57.3493   31.3331   46.3119 H   0  0  0  0  0  0  0  0  0  0  0  0
   61.0075   34.9480   45.7288 H   0  0  0  0  0  0  0  0  0  0  0  0
   62.9067   34.3804   47.2790 H   0  0  0  0  0  0  0  0  0  0  0  0
  1  2  1  0
  2  3  1  0
  2  4  1  0
  4  5  1  0
  5  6  2  0
  5  7  1  0
  7  8  1  0
  8  9  2  0
  9 10  1  0
 10 11  1  0
 11 12  2  0
 12 13  1  0
 13 14  1  0
 14 15  2  0
 15 16  1  0
 16 17  2  0
 17 18  1  0
 18 19  1  0
 19 20  1  0
 20 21  2  0
 20 22  1  0
 22 23  1  0
 22 24  2  3
 24 25  1  0
 24 26  1  0
 18 27  2  0
 12 28  1  0
 28 29  2  0
 29 30  1  0
 30  7  2  0
 30 10  1  0
 27 14  1  0
  1 31  1  0
  1 32  1  0
  1 33  1  0
  2 34  1  6
  3 35  1  0
  3 36  1  0
  4 37  1  0
  4 38  1  0
  8 39  1  0
  9 40  1  0
 11 41  1  0
 15 42  1  0
 16 43  1  0
 17 44  1  0
 27 45  1  0
 28 46  1  0
 29 47  1  0
M  CHG  2   9   1  19  -1
M  END
>  <UniqueID>  (61) 
53

>  <SMILES>  (61) 
C[C@H](N)CC(=O)c1c[nH+]n2cc(Oc3cccc([N-]C(=O)C(Cl)=C(Cl)Cl)c3)ccc12

>  <Energy>  (61) 
97.11071895444121

>  <Genealogy>  (61) 
CC(N)CC(=O)c1c[nH+]n2cc(Oc3cccc([N-]C(=O)C(Cl)=C(Cl)Cl)c3)ccc12 (protonated)
C[C@H](N)CC(=O)c1c[nH+]n2cc(Oc3cccc([N-]C(=O)C(Cl)=C(Cl)Cl)c3)ccc12 (chirality)
C[C@H](N)CC(=O)c1c[nH+]n2cc(Oc3cccc([N-]C(=O)C(Cl)=C(Cl)Cl)c3)ccc12 (3D coordinates assigned)
C[C@H](N)CC(=O)c1c[nH+]n2cc(Oc3cccc([N-]C(=O)C(Cl)=C(Cl)Cl)c3)ccc12 (optimized conformer: 97.11071895444121 kcal/mol)

>  <smiles>  (61) 
CC(N)CC(=O)c1cnn2cc(Oc3cccc(NC(=O)C(Cl)=C(Cl)Cl)c3)ccc12

>  <score_type>  (61) 
oracle

>  <origin>  (61) 
adg

>  <m_score__min__energy>  (61) 
-9.9499999999999993

>  <m_primary>  (61) 
energy

$$$$
61:0
     RDKit          3D

 35 38  0  0  0  0  0  0  0  0999 V2000
   50.5800   29.9270   53.1650 C   0  0  0  0  0  0  0  0  0  0  0  0
   51.7710   30.5940   52.5510 C   0  0  0  0  0  0  0  0  0  0  0  0
   51.7650   31.6530   51.6620 C   0  0  0  0  0  0  0  0  0  0  0  0
   50.6420   32.3330   51.2060 O   0  0  0  0  0  0  0  0  0  0  0  0
   53.0270   31.9400   51.2860 N   0  0  0  0  0  0  0  0  0  0  0  0
   53.7740   31.0360   51.9460 C   0  0  0  0  0  0  0  0  0  0  0  0
   53.0510   30.2040   52.7100 N   0  0  0  0  0  0  0  0  0  0  0  0
   53.6000   29.1430   53.5510 C   0  0  0  0  0  0  0  0  0  0  0  0
   55.1130   28.9950   53.3840 C   0  0  0  0  0  0  0  0  0  0  0  0
   55.8210   29.9160   52.5530 C   0  0  0  0  0  0  0  0  0  0  0  0
   57.2030   29.8140   52.4010 C   0  0  0  0  0  0  0  0  0  0  0  0
   57.8860   28.7950   53.0520 C   0  0  0  0  0  0  0  0  0  0  0  0
   57.2340   27.8860   53.8510 C   0  0  0  0  0  0  0  0  0  0  0  0
   55.8330   27.9580   54.0600 C   0  0  0  0  0  0  0  0  0  0  0  0
   55.0940   26.9420   54.9290 C   0  0  0  0  0  0  0  0  0  0  0  0
   54.3330   27.5950   55.8800 F   0  0  0  0  0  0  0  0  0  0  0  0
   54.2670   26.1720   54.1340 F   0  0  0  0  0  0  0  0  0  0  0  0
   55.9420   26.0880   55.6070 F   0  0  0  0  0  0  0  0  0  0  0  0
   58.2050   26.8990   54.4050 C   0  0  0  0  0  0  0  0  0  0  0  0
   59.5610   27.2800   53.7890 C   0  0  0  0  0  0  0  0  0  0  0  0
   59.3440   28.5560   52.9680 C   0  0  0  0  0  0  0  0  0  0  0  0
   55.1540   30.9330   51.8600 O   0  0  0  0  0  0  0  0  0  0  0  0
   50.6594   29.9715   54.2612 H   0  0  0  0  0  0  0  0  0  0  0  0
   49.6638   30.4433   52.8425 H   0  0  0  0  0  0  0  0  0  0  0  0
   50.5415   28.8760   52.8425 H   0  0  0  0  0  0  0  0  0  0  0  0
   53.3490   32.6820   50.6270 H   0  0  0  0  0  0  0  0  0  0  0  0
   53.3814   29.3768   54.6034 H   0  0  0  0  0  0  0  0  0  0  0  0
   53.1331   28.1952   53.2450 H   0  0  0  0  0  0  0  0  0  0  0  0
   57.7471   30.5336   51.7716 H   0  0  0  0  0  0  0  0  0  0  0  0
   58.2454   26.9713   55.5019 H   0  0  0  0  0  0  0  0  0  0  0  0
   57.9208   25.8635   54.1662 H   0  0  0  0  0  0  0  0  0  0  0  0
   60.2977   27.4647   54.5847 H   0  0  0  0  0  0  0  0  0  0  0  0
   59.9431   26.4674   53.1536 H   0  0  0  0  0  0  0  0  0  0  0  0
   59.9035   29.3986   53.4005 H   0  0  0  0  0  0  0  0  0  0  0  0
   59.6966   28.4560   51.9308 H   0  0  0  0  0  0  0  0  0  0  0  0
  1  2  1  0
  2  3  2  0
  3  4  1  0
  3  5  1  0
  5  6  2  0
  6  7  1  0
  7  8  1  0
  8  9  1  0
  9 10  2  0
 10 11  1  0
 11 12  2  0
 12 13  1  0
 13 14  2  0
 14 15  1  0
 15 16  1  0
 15 17  1  0
 15 18  1  0
 13 19  1  0
 19 20  1  0
 20 21  1  0
 10 22  1  0
  7  2  1  0
 14  9  1  0
 22  6  1  0
 21 12  1  0
  1 23  1  0
  1 24  1  0
  1 25  1  0
  5 26  1  0
  8 27  1  0
  8 28  1  0
 11 29  1  0
 19 30  1  0
 19 31  1  0
 20 32  1  0
 20 33  1  0
 21 34  1  0
 21 35  1  0
M  CHG  2   4  -1   5   1
M  END
>  <UniqueID>  (62) 
54

>  <SMILES>  (62) 
Cc1c([O-])[nH+]c2n1Cc1c(cc3c(c1C(F)(F)F)CCC3)O2

>  <Energy>  (62) 
86.27573918101639

>  <Genealogy>  (62) 
Cc1c([O-])[nH+]c2n1Cc1c(cc3c(c1C(F)(F)F)CCC3)O2 (protonated)
Cc1c([O-])[nH+]c2n1Cc1c(cc3c(c1C(F)(F)F)CCC3)O2 (3D coordinates assigned)
Cc1c([O-])[nH+]c2n1Cc1c(cc3c(c1C(F)(F)F)CCC3)O2 (nonaromatic ring conformer: 86.27573918101639 kcal/mol)

>  <smiles>  (62) 
Cc1c(O)nc2n1Cc1c(cc3c(c1C(F)(F)F)CCC3)O2

>  <score_type>  (62) 
oracle

>  <origin>  (62) 
adg

>  <m_score__min__energy>  (62) 
-7.6399999999999997

>  <m_primary>  (62) 
energy

$$$$
62:0
     RDKit          3D

 52 56  0  0  0  0  0  0  0  0999 V2000
   56.4119   24.1068   48.6168 H   0  0  0  0  0  0  0  0  0  0  0  0
   56.3000   24.0730   47.5230 C   0  0  0  0  0  0  0  0  0  0  0  0
   56.1800   22.8850   46.9160 C   0  0  0  0  0  0  0  0  0  0  0  0
   55.9515   22.0070   47.5380 H   0  0  0  0  0  0  0  0  0  0  0  0
   56.3370   22.6830   45.4540 C   0  0  0  0  0  0  0  0  0  0  0  0
   56.9240   21.5220   44.9150 C   0  0  0  0  0  0  0  0  0  0  0  0
   57.2766   20.7204   45.5807 H   0  0  0  0  0  0  0  0  0  0  0  0
   57.0560   21.3940   43.5310 C   0  0  0  0  0  0  0  0  0  0  0  0
   57.5070   20.4871   43.1019 H   0  0  0  0  0  0  0  0  0  0  0  0
   56.6150   22.4180   42.6940 C   0  0  0  0  0  0  0  0  0  0  0  0
   56.7102   22.3236   41.6022 H   0  0  0  0  0  0  0  0  0  0  0  0
   56.0520   23.5630   43.2560 C   0  0  0  0  0  0  0  0  0  0  0  0
   55.7056   24.3789   42.6046 H   0  0  0  0  0  0  0  0  0  0  0  0
   55.9290   23.6760   44.6070 N   0  0  0  0  0  0  0  0  0  0  0  0
   55.5030   24.5480   44.9930 H   0  0  0  0  0  0  0  0  0  0  0  0
   56.2860   25.3370   46.7630 C   0  0  0  0  0  0  0  0  0  0  0  0
   55.1760   25.9250   46.2540 N   0  0  0  0  0  0  0  0  0  0  0  0
   55.5270   27.0450   45.6270 N   0  0  0  0  0  0  0  0  0  0  0  0
   56.8610   27.1650   45.7390 C   0  0  0  0  0  0  0  0  0  0  0  0
   57.6710   28.1800   45.2370 C   0  0  0  0  0  0  0  0  0  0  0  0
   57.2426   29.0231   44.6752 H   0  0  0  0  0  0  0  0  0  0  0  0
   59.0570   28.0920   45.4720 C   0  0  0  0  0  0  0  0  0  0  0  0
   60.1530   29.3590   44.8340 S   0  0  0  0  0  0  0  0  0  0  0  0
   59.0300   30.6940   45.2860 C   0  0  0  0  0  0  0  0  0  0  0  0
   58.2380   31.2480   44.2710 C   0  0  0  0  0  0  0  0  0  0  0  0
   58.2785   30.8262   43.2559 H   0  0  0  0  0  0  0  0  0  0  0  0
   57.3980   32.3310   44.5380 C   0  0  0  0  0  0  0  0  0  0  0  0
   56.7798   32.7587   43.7350 H   0  0  0  0  0  0  0  0  0  0  0  0
   57.3430   32.8700   45.8220 C   0  0  0  0  0  0  0  0  0  0  0  0
   56.6869   33.7282   46.0293 H   0  0  0  0  0  0  0  0  0  0  0  0
   58.1190   32.3230   46.8460 C   0  0  0  0  0  0  0  0  0  0  0  0
   58.0717   32.7574   47.8555 H   0  0  0  0  0  0  0  0  0  0  0  0
   58.9610   31.2220   46.6010 C   0  0  0  0  0  0  0  0  0  0  0  0
   59.7450   30.6660   47.7290 C   0  0  0  0  0  0  0  0  0  0  0  0
   59.1670   30.3240   48.7960 O   0  0  0  0  0  0  0  0  0  0  0  0
   61.1610   30.4920   47.5870 N   0  0  0  0  0  0  0  0  0  0  0  0
   62.1870   31.2380   48.2560 C   0  0  0  0  0  0  0  0  0  0  0  0
   62.4170   30.9930   49.6170 C   0  0  0  0  0  0  0  0  0  0  0  0
   61.8043   30.2509   50.1497 H   0  0  0  0  0  0  0  0  0  0  0  0
   63.4190   31.6850   50.3010 C   0  0  0  0  0  0  0  0  0  0  0  0
   63.5835   31.4963   51.3721 H   0  0  0  0  0  0  0  0  0  0  0  0
   64.2140   32.6180   49.6260 C   0  0  0  0  0  0  0  0  0  0  0  0
   65.4750   33.4830   50.4850 Cl  0  0  0  0  0  0  0  0  0  0  0  0
   64.0090   32.8500   48.2630 C   0  0  0  0  0  0  0  0  0  0  0  0
   64.6384   33.5774   47.7293 H   0  0  0  0  0  0  0  0  0  0  0  0
   63.0050   32.1590   47.5760 C   0  0  0  0  0  0  0  0  0  0  0  0
   62.8547   32.3363   46.5008 H   0  0  0  0  0  0  0  0  0  0  0  0
   59.5870   27.0040   46.2100 C   0  0  0  0  0  0  0  0  0  0  0  0
   60.6695   26.9475   46.3971 H   0  0  0  0  0  0  0  0  0  0  0  0
   58.7400   25.9960   46.7050 C   0  0  0  0  0  0  0  0  0  0  0  0
   59.1390   25.1450   47.2766 H   0  0  0  0  0  0  0  0  0  0  0  0
   57.3760   26.1160   46.4440 C   0  0  0  0  0  0  0  0  0  0  0  0
  1  2  1  0
  2  3  2  0
  3  4  1  0
  3  5  1  0
  5  6  2  0
  6  7  1  0
  6  8  1  0
  8  9  1  0
  8 10  2  0
 10 11  1  0
 10 12  1  0
 12 13  1  0
 12 14  2  0
 14 15  1  0
  2 16  1  0
 16 17  1  0
 17 18  1  0
 18 19  2  0
 19 20  1  0
 20 21  1  0
 20 22  2  0
 22 23  1  0
 23 24  1  0
 24 25  2  0
 25 26  1  0
 25 27  1  0
 27 28  1  0
 27 29  2  0
 29 30  1  0
 29 31  1  0
 31 32  1  0
 31 33  2  0
 33 34  1  0
 34 35  2  0
 34 36  1  0
 36 37  1  0
 37 38  2  0
 38 39  1  0
 38 40  1  0
 40 41  1  0
 40 42  2  0
 42 43  1  0
 42 44  1  0
 44 45  1  0
 44 46  2  0
 46 47  1  0
 22 48  1  0
 48 49  1  0
 48 50  2  0
 50 51  1  0
 50 52  1  0
 14  5  1  0
 52 16  2  0
 52 19  1  0
 33 24  1  0
 46 37  1  0
M  CHG  3  14   1  17  -1  36  -1
M  END
>  <UniqueID>  (63) 
55

>  <SMILES>  (63) 
O=C([N-]c1ccc(Cl)cc1)c1ccccc1Sc1ccc2c(/C=C/c3cccc[nH+]3)[n-]nc2c1

>  <Energy>  (63) 
102.05145394780823

>  <Genealogy>  (63) 
O=C([N-]c1ccc(Cl)cc1)c1ccccc1Sc1ccc2c(C=Cc3cccc[nH+]3)[n-]nc2c1 (protonated)
O=C([N-]c1ccc(Cl)cc1)c1ccccc1Sc1ccc2c(/C=C/c3cccc[nH+]3)[n-]nc2c1 (cis-trans isomerization)
O=C([N-]c1ccc(Cl)cc1)c1ccccc1Sc1ccc2c(/C=C/c3cccc[nH+]3)[n-]nc2c1 (3D coordinates assigned)
O=C([N-]c1ccc(Cl)cc1)c1ccccc1Sc1ccc2c(/C=C/c3cccc[nH+]3)[n-]nc2c1 (optimized conformer: 102.05145394780823 kcal/mol)

>  <smiles>  (63) 
O=C(Nc1ccc(Cl)cc1)c1ccccc1Sc1ccc2c(C=Cc3ccccn3)[nH]nc2c1

>  <score_type>  (63) 
oracle

>  <origin>  (63) 
adg

>  <m_score__min__energy>  (63) 
-11.92

>  <m_primary>  (63) 
energy

$$$$
63:0
     RDKit          3D

 50 52  0  0  1  0  0  0  0  0999 V2000
   56.7910   23.6860   47.7830 C   0  0  0  0  0  0  0  0  0  0  0  0
   55.8890   24.2430   46.9810 C   0  0  0  0  0  0  0  0  0  0  0  0
   56.2720   25.5360   46.3820 C   0  0  0  0  0  0  0  0  0  0  0  0
   55.2940   26.2590   46.0040 O   0  0  0  0  0  0  0  0  0  0  0  0
   57.6160   25.9170   46.2510 N   0  0  0  0  0  0  0  0  0  0  0  0
   58.0470   27.1520   45.6830 C   0  0  0  0  0  0  0  0  0  0  0  0
   59.2910   27.1350   45.0610 C   0  0  0  0  0  0  0  0  0  0  0  0
   59.7740   28.3020   44.4850 C   0  0  0  0  0  0  0  0  0  0  0  0
   59.0420   29.4690   44.5200 C   0  0  0  0  0  0  0  0  0  0  0  0
   57.8130   29.4460   45.1440 C   0  0  0  0  0  0  0  0  0  0  0  0
   57.0670   30.6620   45.1730 N   0  0  0  0  0  0  0  0  0  0  0  0
   57.6780   31.7770   45.4180 C   0  0  0  0  0  0  0  0  0  0  0  0
   57.5270   32.7530   44.5020 N   0  0  0  0  0  0  0  0  0  0  0  0
   58.1260   33.9560   44.6680 C   0  0  0  0  0  0  0  0  0  0  0  0
   58.9000   34.1550   45.8060 C   0  0  0  0  0  0  0  0  0  0  0  0
   59.6680   35.7120   46.0090 Cl  0  0  0  0  0  0  0  0  0  0  0  0
   59.0460   33.1570   46.7280 C   0  0  0  0  0  0  0  0  0  0  0  0
   59.7760   33.3970   47.7660 N   0  0  0  0  0  0  0  0  0  0  0  0
   61.1570   33.0560   47.6390 C   0  0  0  0  0  0  0  0  0  0  0  0
   61.9730   33.7960   46.8260 C   0  0  0  0  0  0  0  0  0  0  0  0
   63.3130   33.4610   46.7060 C   0  0  0  0  0  0  0  0  0  0  0  0
   63.7650   32.3750   47.4270 C   0  0  0  0  0  0  0  0  0  0  0  0
   62.9270   31.6370   48.2450 C   0  0  0  0  0  0  0  0  0  0  0  0
   61.5890   31.9630   48.3720 C   0  0  0  0  0  0  0  0  0  0  0  0
   60.7280   31.2050   49.2110 N   0  0  0  0  0  0  0  0  0  0  0  0
   59.9180   29.7860   48.6580 S   0  0  0  0  0  0  0  0  0  0  0  0
   60.5490   28.3280   49.4060 C   0  0  0  0  0  0  0  0  0  0  0  0
   58.4610   29.9420   48.9480 O   0  0  0  0  0  0  0  0  0  0  0  0
   60.1270   29.7440   47.1510 O   0  0  0  0  0  0  0  0  0  0  0  0
   58.4280   31.9800   46.5130 N   0  0  0  0  0  0  0  0  0  0  0  0
   57.2960   28.3050   45.7300 C   0  0  0  0  0  0  0  0  0  0  0  0
   56.5763   22.7214   48.2661 H   0  0  0  0  0  0  0  0  0  0  0  0
   57.7521   24.1897   47.9635 H   0  0  0  0  0  0  0  0  0  0  0  0
   54.9174   23.7694   46.7766 H   0  0  0  0  0  0  0  0  0  0  0  0
   58.3420   25.2320   46.6020 H   0  0  0  0  0  0  0  0  0  0  0  0
   59.8841   26.2092   45.0260 H   0  0  0  0  0  0  0  0  0  0  0  0
   60.7575   28.2951   43.9924 H   0  0  0  0  0  0  0  0  0  0  0  0
   59.4273   30.3925   44.0631 H   0  0  0  0  0  0  0  0  0  0  0  0
   56.9530   32.6240   43.6460 H   0  0  0  0  0  0  0  0  0  0  0  0
   58.0035   34.7551   43.9220 H   0  0  0  0  0  0  0  0  0  0  0  0
   61.5667   34.6536   46.2698 H   0  0  0  0  0  0  0  0  0  0  0  0
   63.9903   34.0393   46.0603 H   0  0  0  0  0  0  0  0  0  0  0  0
   64.8237   32.0868   47.3494 H   0  0  0  0  0  0  0  0  0  0  0  0
   63.3311   30.7789   48.8021 H   0  0  0  0  0  0  0  0  0  0  0  0
   60.6110   31.5650   50.2040 H   0  0  0  0  0  0  0  0  0  0  0  0
   60.5053   28.4290   50.5005 H   0  0  0  0  0  0  0  0  0  0  0  0
   59.9442   27.4641   49.0930 H   0  0  0  0  0  0  0  0  0  0  0  0
   61.5928   28.1776   49.0930 H   0  0  0  0  0  0  0  0  0  0  0  0
   58.5300   31.2070   47.2080 H   0  0  0  0  0  0  0  0  0  0  0  0
   56.3114   28.3183   46.2204 H   0  0  0  0  0  0  0  0  0  0  0  0
  1  2  2  0
  2  3  1  0
  3  4  2  0
  3  5  1  0
  5  6  1  0
  6  7  2  0
  7  8  1  0
  8  9  2  0
  9 10  1  0
 10 11  1  0
 11 12  2  0
 12 13  1  0
 13 14  1  0
 14 15  2  0
 15 16  1  0
 15 17  1  0
 17 18  2  0
 18 19  1  0
 19 20  2  0
 20 21  1  0
 21 22  2  0
 22 23  1  0
 23 24  2  0
 24 25  1  0
 25 26  1  0
 26 27  1  0
 26 28  2  0
 26 29  2  0
 17 30  1  0
 10 31  2  0
 31  6  1  0
 30 12  1  0
 24 19  1  0
  1 32  1  0
  1 33  1  0
  2 34  1  0
  5 35  1  0
  7 36  1  0
  8 37  1  0
  9 38  1  0
 13 39  1  0
 14 40  1  0
 20 41  1  0
 21 42  1  0
 22 43  1  0
 23 44  1  0
 25 45  1  0
 27 46  1  0
 27 47  1  0
 27 48  1  0
 30 49  1  0
 31 50  1  0
M  END
>  <smiles>  (64) 
C=CC(=O)Nc1cccc(N=c2[nH]cc(Cl)c(=Nc3ccccc3NS(C)(=O)=O)[nH]2)c1

>  <score_type>  (64) 
oracle

>  <origin>  (64) 
adg

>  <m_score__min__energy>  (64) 
-10.07

>  <m_primary>  (64) 
energy

$$$$
64:0
     RDKit          3D

 52 55  0  0  0  0  0  0  0  0999 V2000
   61.2130   30.0930   49.1770 C   0  0  0  0  0  0  0  0  0  0  0  0
   61.7430   30.9870   50.1530 O   0  0  0  0  0  0  0  0  0  0  0  0
   63.0520   31.5010   50.1380 C   0  0  0  0  0  0  0  0  0  0  0  0
   64.0690   30.9520   50.9490 C   0  0  0  0  0  0  0  0  0  0  0  0
   65.3650   31.4710   50.9100 C   0  0  0  0  0  0  0  0  0  0  0  0
   65.6650   32.5410   50.0690 C   0  0  0  0  0  0  0  0  0  0  0  0
   64.6740   33.0930   49.2560 C   0  0  0  0  0  0  0  0  0  0  0  0
   63.3620   32.5820   49.2770 C   0  0  0  0  0  0  0  0  0  0  0  0
   62.3130   33.2070   48.4310 C   0  0  0  0  0  0  0  0  0  0  0  0
   62.3190   33.0720   47.0330 C   0  0  0  0  0  0  0  0  0  0  0  0
   61.3650   33.6940   46.2900 N   0  0  0  0  0  0  0  0  0  0  0  0
   60.4000   34.4630   46.8720 C   0  0  0  0  0  0  0  0  0  0  0  0
   59.3840   35.1910   46.0170 C   0  0  0  0  0  0  0  0  0  0  0  0
   58.2720   34.3290   45.5520 N   0  0  0  0  0  0  0  0  0  0  0  0
   57.6240   33.5140   46.6040 C   0  0  0  0  0  0  0  0  0  0  0  0
   58.1700   32.0780   46.6580 C   0  0  0  0  0  0  0  0  0  0  0  0
   58.2250   31.4730   45.3200 N   0  0  0  0  0  0  0  0  0  0  0  0
   58.5610   30.0760   45.1730 C   0  0  0  0  0  0  0  0  0  0  0  0
   57.6620   29.1880   44.5520 C   0  0  0  0  0  0  0  0  0  0  0  0
   57.9880   27.8320   44.4120 C   0  0  0  0  0  0  0  0  0  0  0  0
   59.2170   27.3540   44.8780 C   0  0  0  0  0  0  0  0  0  0  0  0
   60.1160   28.2270   45.4990 C   0  0  0  0  0  0  0  0  0  0  0  0
   59.7930   29.5820   45.6440 C   0  0  0  0  0  0  0  0  0  0  0  0
   57.8540   32.2790   44.1540 C   0  0  0  0  0  0  0  0  0  0  0  0
   58.5240   33.6540   44.2540 C   0  0  0  0  0  0  0  0  0  0  0  0
   60.3680   34.5610   48.2710 C   0  0  0  0  0  0  0  0  0  0  0  0
   61.3250   33.9420   49.0090 N   0  0  0  0  0  0  0  0  0  0  0  0
   60.7147   29.2524   49.6820 H   0  0  0  0  0  0  0  0  0  0  0  0
   60.4851   30.6265   48.5480 H   0  0  0  0  0  0  0  0  0  0  0  0
   62.0303   29.7104   48.5480 H   0  0  0  0  0  0  0  0  0  0  0  0
   63.8388   30.1088   51.6169 H   0  0  0  0  0  0  0  0  0  0  0  0
   66.1505   31.0344   51.5443 H   0  0  0  0  0  0  0  0  0  0  0  0
   66.6853   32.9515   50.0459 H   0  0  0  0  0  0  0  0  0  0  0  0
   64.9201   33.9352   48.5926 H   0  0  0  0  0  0  0  0  0  0  0  0
   63.0930   32.4650   46.5407 H   0  0  0  0  0  0  0  0  0  0  0  0
   61.3860   33.5730   45.2520 H   0  0  0  0  0  0  0  0  0  0  0  0
   58.9602   36.0164   46.6078 H   0  0  0  0  0  0  0  0  0  0  0  0
   59.9129   35.5461   45.1203 H   0  0  0  0  0  0  0  0  0  0  0  0
   57.7973   33.9939   47.5785 H   0  0  0  0  0  0  0  0  0  0  0  0
   56.5515   33.4545   46.3667 H   0  0  0  0  0  0  0  0  0  0  0  0
   59.1840   32.0968   47.0839 H   0  0  0  0  0  0  0  0  0  0  0  0
   57.4946   31.4748   47.2824 H   0  0  0  0  0  0  0  0  0  0  0  0
   56.6983   29.5605   44.1745 H   0  0  0  0  0  0  0  0  0  0  0  0
   57.2760   27.1426   43.9348 H   0  0  0  0  0  0  0  0  0  0  0  0
   59.4764   26.2920   44.7561 H   0  0  0  0  0  0  0  0  0  0  0  0
   61.0784   27.8487   45.8742 H   0  0  0  0  0  0  0  0  0  0  0  0
   60.5061   30.2649   46.1289 H   0  0  0  0  0  0  0  0  0  0  0  0
   58.1886   31.7732   43.2363 H   0  0  0  0  0  0  0  0  0  0  0  0
   56.7614   32.4030   44.1246 H   0  0  0  0  0  0  0  0  0  0  0  0
   59.6094   33.5248   44.1310 H   0  0  0  0  0  0  0  0  0  0  0  0
   58.0939   34.2878   43.4645 H   0  0  0  0  0  0  0  0  0  0  0  0
   59.5723   35.1359   48.7672 H   0  0  0  0  0  0  0  0  0  0  0  0
  1  2  1  0
  2  3  1  0
  3  4  2  0
  4  5  1  0
  5  6  2  0
  6  7  1  0
  7  8  2  0
  8  9  1  0
  9 10  2  0
 10 11  1  0
 11 12  2  0
 12 13  1  0
 13 14  1  0
 14 15  1  0
 15 16  1  0
 16 17  1  0
 17 18  1  0
 18 19  2  0
 19 20  1  0
 20 21  2  0
 21 22  1  0
 22 23  2  0
 17 24  1  0
 24 25  1  0
 12 26  1  0
 26 27  2  0
  8  3  1  0
 27  9  1  0
 25 14  1  0
 23 18  1  0
  1 28  1  0
  1 29  1  0
  1 30  1  0
  4 31  1  0
  5 32  1  0
  6 33  1  0
  7 34  1  0
 10 35  1  0
 11 36  1  0
 13 37  1  0
 13 38  1  0
 15 39  1  0
 15 40  1  0
 16 41  1  0
 16 42  1  0
 19 43  1  0
 20 44  1  0
 21 45  1  0
 22 46  1  0
 23 47  1  0
 24 48  1  0
 24 49  1  0
 25 50  1  0
 25 51  1  0
 26 52  1  0
M  CHG  1  11   1
M  END
>  <UniqueID>  (65) 
56

>  <SMILES>  (65) 
COc1ccccc1-c1c[nH+]c(CN2CCN(c3ccccc3)CC2)cn1

>  <Energy>  (65) 
74.47965135658059

>  <Genealogy>  (65) 
COc1ccccc1-c1c[nH+]c(CN2CCN(c3ccccc3)CC2)cn1 (protonated)
COc1ccccc1-c1c[nH+]c(CN2CCN(c3ccccc3)CC2)cn1 (3D coordinates assigned)
COc1ccccc1-c1c[nH+]c(CN2CCN(c3ccccc3)CC2)cn1 (nonaromatic ring conformer: 74.47965135658059 kcal/mol)

>  <smiles>  (65) 
COc1ccccc1-c1cnc(CN2CCN(c3ccccc3)CC2)cn1

>  <score_type>  (65) 
oracle

>  <origin>  (65) 
adg

>  <m_score__min__energy>  (65) 
-6.6500000000000004

>  <m_primary>  (65) 
energy

$$$$
65:0
     RDKit          3D

 33 35  0  0  0  0  0  0  0  0999 V2000
   55.3770   24.1590   46.9850 O   0  0  0  0  0  0  0  0  0  0  0  0
   55.2040   24.8940   45.6860 S   0  0  0  0  0  0  0  0  0  0  0  0
   54.4020   24.0530   44.7330 O   0  0  0  0  0  0  0  0  0  0  0  0
   54.3880   26.3340   45.9710 O   0  0  0  0  0  0  0  0  0  0  0  0
   56.7350   25.2430   45.0060 O   0  0  0  0  0  0  0  0  0  0  0  0
   57.5030   26.3770   45.3050 C   0  0  0  0  0  0  0  0  0  0  0  0
   57.4900   26.9940   46.5700 C   0  0  0  0  0  0  0  0  0  0  0  0
   58.2790   28.1220   46.8120 C   0  0  0  0  0  0  0  0  0  0  0  0
   59.1020   28.6460   45.8060 C   0  0  0  0  0  0  0  0  0  0  0  0
   59.8830   29.8230   46.0710 N   0  0  0  0  0  0  0  0  0  0  0  0
   59.3490   31.1560   46.0750 C   0  0  0  0  0  0  0  0  0  0  0  0
   58.3500   31.5150   45.3190 N   0  0  0  0  0  0  0  0  0  0  0  0
   58.0120   33.2000   45.4870 S   0  0  0  0  0  0  0  0  0  0  0  0
   58.2200   33.9390   44.1960 O   0  0  0  0  0  0  0  0  0  0  0  0
   56.6530   33.4390   46.0800 O   0  0  0  0  0  0  0  0  0  0  0  0
   59.2940   33.4570   46.6180 C   0  0  0  0  0  0  0  0  0  0  0  0
   59.6730   34.6400   47.2470 C   0  0  0  0  0  0  0  0  0  0  0  0
   60.7530   34.6000   48.1420 C   0  0  0  0  0  0  0  0  0  0  0  0
   61.4240   33.3860   48.3910 C   0  0  0  0  0  0  0  0  0  0  0  0
   61.0210   32.2040   47.7450 C   0  0  0  0  0  0  0  0  0  0  0  0
   59.9470   32.2610   46.8510 C   0  0  0  0  0  0  0  0  0  0  0  0
   59.0970   28.0420   44.5360 C   0  0  0  0  0  0  0  0  0  0  0  0
   58.3080   26.9130   44.2940 C   0  0  0  0  0  0  0  0  0  0  0  0
   56.8562   26.5867   47.3715 H   0  0  0  0  0  0  0  0  0  0  0  0
   58.2537   28.6028   47.8010 H   0  0  0  0  0  0  0  0  0  0  0  0
   60.9070   29.7060   46.2410 H   0  0  0  0  0  0  0  0  0  0  0  0
   57.8510   30.8870   44.6510 H   0  0  0  0  0  0  0  0  0  0  0  0
   59.1398   35.5812   47.0476 H   0  0  0  0  0  0  0  0  0  0  0  0
   61.0771   35.5196   48.6511 H   0  0  0  0  0  0  0  0  0  0  0  0
   62.2686   33.3630   49.0954 H   0  0  0  0  0  0  0  0  0  0  0  0
   61.5399   31.2537   47.9388 H   0  0  0  0  0  0  0  0  0  0  0  0
   59.7168   28.4597   43.7289 H   0  0  0  0  0  0  0  0  0  0  0  0
   58.3204   26.4422   43.2999 H   0  0  0  0  0  0  0  0  0  0  0  0
  1  2  2  0
  2  3  2  0
  2  4  1  0
  2  5  1  0
  5  6  1  0
  6  7  2  0
  7  8  1  0
  8  9  2  0
  9 10  1  0
 10 11  1  0
 11 12  2  0
 12 13  1  0
 13 14  2  0
 13 15  2  0
 13 16  1  0
 16 17  2  0
 17 18  1  0
 18 19  2  0
 19 20  1  0
 20 21  2  0
  9 22  1  0
 22 23  2  0
 23  6  1  0
 21 11  1  0
 21 16  1  0
  7 24  1  0
  8 25  1  0
 10 26  1  0
 12 27  1  0
 17 28  1  0
 18 29  1  0
 19 30  1  0
 20 31  1  0
 22 32  1  0
 23 33  1  0
M  CHG  2   4  -1  12   1
M  END
>  <UniqueID>  (66) 
57

>  <SMILES>  (66) 
O=S(=O)([O-])Oc1ccc(NC2=[NH+]S(=O)(=O)c3ccccc32)cc1

>  <Energy>  (66) 
63.12247042964195

>  <Genealogy>  (66) 
O=S(=O)([O-])Oc1ccc(NC2=[NH+]S(=O)(=O)c3ccccc32)cc1 (protonated)
O=S(=O)([O-])Oc1ccc(NC2=[NH+]S(=O)(=O)c3ccccc32)cc1 (3D coordinates assigned)
O=S(=O)([O-])Oc1ccc(NC2=[NH+]S(=O)(=O)c3ccccc32)cc1 (nonaromatic ring conformer: 63.12247042964195 kcal/mol)

>  <smiles>  (66) 
O=S(=O)(O)Oc1ccc(NC2=NS(=O)(=O)c3ccccc32)cc1

>  <score_type>  (66) 
oracle

>  <origin>  (66) 
adg

>  <m_score__min__energy>  (66) 
-9.7300000000000004

>  <m_primary>  (66) 
energy

$$$$
66:0
     RDKit          3D

 35 37  0  0  1  0  0  0  0  0999 V2000
   57.9760   23.3900   45.2850 C   0  0  0  0  0  0  0  0  0  0  0  0
   56.5380   23.8000   45.0370 C   0  0  0  0  0  0  0  0  0  0  0  0
   56.2960   23.7930   43.5430 C   0  0  0  0  0  0  0  0  0  0  0  0
   56.3510   25.2120   45.5070 C   0  0  0  0  0  0  0  0  0  0  0  0
   55.2550   25.5660   46.0000 O   0  0  0  0  0  0  0  0  0  0  0  0
   57.4690   26.0750   45.3540 N   0  0  0  0  0  0  0  0  0  0  0  0
   57.2140   27.3410   45.2780 C   0  0  0  0  0  0  0  0  0  0  0  0
   56.1190   28.0610   45.2510 N   0  0  0  0  0  0  0  0  0  0  0  0
   56.2840   29.3430   45.1670 N   0  0  0  0  0  0  0  0  0  0  0  0
   57.2450   29.9810   45.1110 C   0  0  0  0  0  0  0  0  0  0  0  0
   57.7650   31.3540   45.0170 C   0  0  0  0  0  0  0  0  0  0  0  0
   57.7930   32.0790   43.8690 C   0  0  0  0  0  0  0  0  0  0  0  0
   58.2800   33.3320   43.8420 N   0  0  0  0  0  0  0  0  0  0  0  0
   58.7440   33.8620   44.9780 C   0  0  0  0  0  0  0  0  0  0  0  0
   59.2600   35.1590   45.0060 C   0  0  0  0  0  0  0  0  0  0  0  0
   59.7440   35.7210   46.1800 C   0  0  0  0  0  0  0  0  0  0  0  0
   59.7230   34.9960   47.3600 C   0  0  0  0  0  0  0  0  0  0  0  0
   59.2170   33.7150   47.3540 C   0  0  0  0  0  0  0  0  0  0  0  0
   58.7450   33.1840   46.1770 C   0  0  0  0  0  0  0  0  0  0  0  0
   58.2410   31.8950   46.1910 C   0  0  0  0  0  0  0  0  0  0  0  0
   58.5620   28.6120   45.1760 S   0  0  0  0  0  0  0  0  0  0  0  0
   58.1607   23.3373   46.3681 H   0  0  0  0  0  0  0  0  0  0  0  0
   58.1592   22.4038   44.8334 H   0  0  0  0  0  0  0  0  0  0  0  0
   58.6517   24.1313   44.8334 H   0  0  0  0  0  0  0  0  0  0  0  0
   55.8553   23.1151   45.5614 H   0  0  0  0  0  0  0  0  0  0  0  0
   55.2141   23.7617   43.3470 H   0  0  0  0  0  0  0  0  0  0  0  0
   56.7231   24.7039   43.0981 H   0  0  0  0  0  0  0  0  0  0  0  0
   56.7750   22.9083   43.0981 H   0  0  0  0  0  0  0  0  0  0  0  0
   55.1440   27.6210   45.2940 H   0  0  0  0  0  0  0  0  0  0  0  0
   57.4087   31.6312   42.9406 H   0  0  0  0  0  0  0  0  0  0  0  0
   59.2837   35.7487   44.0777 H   0  0  0  0  0  0  0  0  0  0  0  0
   60.1453   36.7452   46.1728 H   0  0  0  0  0  0  0  0  0  0  0  0
   60.1061   35.4383   48.2914 H   0  0  0  0  0  0  0  0  0  0  0  0
   59.1908   33.1232   48.2809 H   0  0  0  0  0  0  0  0  0  0  0  0
   58.2209   31.3124   47.1239 H   0  0  0  0  0  0  0  0  0  0  0  0
  1  2  1  0
  2  3  1  0
  2  4  1  0
  4  5  2  0
  4  6  1  0
  6  7  2  0
  7  8  1  0
  8  9  1  0
  9 10  2  0
 10 11  1  0
 11 12  2  0
 12 13  1  0
 13 14  2  0
 14 15  1  0
 15 16  2  0
 16 17  1  0
 17 18  2  0
 18 19  1  0
 19 20  2  0
 10 21  1  0
 21  7  1  0
 20 11  1  0
 19 14  1  0
  1 22  1  0
  1 23  1  0
  1 24  1  0
  2 25  1  0
  3 26  1  0
  3 27  1  0
  3 28  1  0
  8 29  1  0
 12 30  1  0
 15 31  1  0
 16 32  1  0
 17 33  1  0
 18 34  1  0
 20 35  1  0
M  END
>  <smiles>  (67) 
CC(C)C(=O)N=c1[nH]nc(-c2cnc3ccccc3c2)s1

>  <score_type>  (67) 
oracle

>  <origin>  (67) 
adg

>  <m_score__min__energy>  (67) 
-8.7200000000000006

>  <m_primary>  (67) 
energy

$$$$
67:0
     RDKit          3D

 33 34  0  0  0  0  0  0  0  0999 V2000
   57.6420   28.5960   44.0110 C   0  0  0  0  0  0  0  0  0  0  0  0
   56.6350   30.0360   44.2380 S   0  0  0  0  0  0  0  0  0  0  0  0
   55.3280   29.6480   44.8700 O   0  0  0  0  0  0  0  0  0  0  0  0
   56.3210   30.6160   42.8750 O   0  0  0  0  0  0  0  0  0  0  0  0
   57.3860   31.2390   45.1930 N   0  0  0  0  0  0  0  0  0  0  0  0
   58.3970   30.7370   46.0650 C   0  0  0  0  0  0  0  0  0  0  0  0
   59.5640   31.7030   46.0620 C   0  0  0  0  0  0  0  0  0  0  0  0
   59.0470   33.0620   46.3940 C   0  0  0  0  0  0  0  0  0  0  0  0
   60.1280   34.0560   46.7390 C   0  0  0  0  0  0  0  0  0  0  0  0
   61.3870   33.3870   47.1590 C   0  0  0  0  0  0  0  0  0  0  0  0
   62.6080   33.5600   46.4980 C   0  0  0  0  0  0  0  0  0  0  0  0
   63.5060   32.8050   47.1590 N   0  0  0  0  0  0  0  0  0  0  0  0
   62.9230   32.1750   48.1840 C   0  0  0  0  0  0  0  0  0  0  0  0
   61.6120   32.5390   48.1780 N   0  0  0  0  0  0  0  0  0  0  0  0
   58.2400   33.5370   45.1930 C   0  0  0  0  0  0  0  0  0  0  0  0
   57.7690   32.3500   44.3780 C   0  0  0  0  0  0  0  0  0  0  0  0
   57.9265   28.1891   44.9926 H   0  0  0  0  0  0  0  0  0  0  0  0
   57.0763   27.8377   43.4498 H   0  0  0  0  0  0  0  0  0  0  0  0
   58.5484   28.8671   43.4498 H   0  0  0  0  0  0  0  0  0  0  0  0
   57.9945   30.6458   47.0847 H   0  0  0  0  0  0  0  0  0  0  0  0
   58.7296   29.7461   45.7222 H   0  0  0  0  0  0  0  0  0  0  0  0
   60.3054   31.3932   46.8132 H   0  0  0  0  0  0  0  0  0  0  0  0
   60.0465   31.7118   45.0735 H   0  0  0  0  0  0  0  0  0  0  0  0
   58.4287   32.9929   47.3012 H   0  0  0  0  0  0  0  0  0  0  0  0
   60.3340   34.6775   45.8551 H   0  0  0  0  0  0  0  0  0  0  0  0
   59.7710   34.6671   47.5811 H   0  0  0  0  0  0  0  0  0  0  0  0
   62.7967   34.1876   45.6145 H   0  0  0  0  0  0  0  0  0  0  0  0
   64.5330   32.7170   46.9060 H   0  0  0  0  0  0  0  0  0  0  0  0
   63.4102   31.4927   48.8961 H   0  0  0  0  0  0  0  0  0  0  0  0
   57.3668   34.1065   45.5440 H   0  0  0  0  0  0  0  0  0  0  0  0
   58.8759   34.1761   44.5628 H   0  0  0  0  0  0  0  0  0  0  0  0
   56.9029   32.6589   43.7742 H   0  0  0  0  0  0  0  0  0  0  0  0
   58.6094   32.0254   43.7468 H   0  0  0  0  0  0  0  0  0  0  0  0
  1  2  1  0
  2  3  2  0
  2  4  2  0
  2  5  1  0
  5  6  1  0
  6  7  1  0
  7  8  1  0
  8  9  1  0
  9 10  1  0
 10 11  2  0
 11 12  1  0
 12 13  1  0
 13 14  2  0
  8 15  1  0
 15 16  1  0
 16  5  1  0
 14 10  1  0
  1 17  1  0
  1 18  1  0
  1 19  1  0
  6 20  1  0
  6 21  1  0
  7 22  1  0
  7 23  1  0
  8 24  1  0
  9 25  1  0
  9 26  1  0
 11 27  1  0
 12 28  1  0
 13 29  1  0
 15 30  1  0
 15 31  1  0
 16 32  1  0
 16 33  1  0
M  END
>  <smiles>  (68) 
CS(=O)(=O)N1CCC(Cc2c[nH]cn2)CC1

>  <score_type>  (68) 
oracle

>  <origin>  (68) 
adg

>  <m_score__min__energy>  (68) 
-7.4500000000000002

>  <m_primary>  (68) 
energy

$$$$
68:0
     RDKit          3D

 29 30  0  0  0  0  0  0  0  0999 V2000
   58.4850   32.7110   41.1890 C   0  0  0  0  0  0  0  0  0  0  0  0
   57.3680   31.5860   42.0830 S   0  0  0  0  0  0  0  0  0  0  0  0
   57.6650   32.3630   43.6800 C   0  0  0  0  0  0  0  0  0  0  0  0
   58.5790   33.4240   43.7460 C   0  0  0  0  0  0  0  0  0  0  0  0
   58.9010   34.0030   44.9760 C   0  0  0  0  0  0  0  0  0  0  0  0
   58.3220   33.5190   46.1500 C   0  0  0  0  0  0  0  0  0  0  0  0
   57.4070   32.4640   46.0940 C   0  0  0  0  0  0  0  0  0  0  0  0
   57.0500   31.8980   44.8630 C   0  0  0  0  0  0  0  0  0  0  0  0
   56.1140   30.8120   44.8560 N   0  0  0  0  0  0  0  0  0  0  0  0
   56.4500   29.4530   45.1630 C   0  0  0  0  0  0  0  0  0  0  0  0
   55.5360   28.5870   45.2450 O   0  0  0  0  0  0  0  0  0  0  0  0
   57.8600   29.0710   45.4110 C   0  0  0  0  0  0  0  0  0  0  0  0
   58.8250   29.2000   44.3950 C   0  0  0  0  0  0  0  0  0  0  0  0
   60.1550   28.8440   44.6320 C   0  0  0  0  0  0  0  0  0  0  0  0
   60.5380   28.3570   45.8840 C   0  0  0  0  0  0  0  0  0  0  0  0
   59.5900   28.2250   46.9020 C   0  0  0  0  0  0  0  0  0  0  0  0
   59.9640   27.7540   48.1170 F   0  0  0  0  0  0  0  0  0  0  0  0
   58.2580   28.5800   46.6690 C   0  0  0  0  0  0  0  0  0  0  0  0
   59.0690   33.2991   41.9123 H   0  0  0  0  0  0  0  0  0  0  0  0
   59.1679   32.1241   40.5572 H   0  0  0  0  0  0  0  0  0  0  0  0
   57.8932   33.3897   40.5572 H   0  0  0  0  0  0  0  0  0  0  0  0
   59.0451   33.8026   42.8244 H   0  0  0  0  0  0  0  0  0  0  0  0
   59.6118   34.8414   45.0192 H   0  0  0  0  0  0  0  0  0  0  0  0
   58.5857   33.9677   47.1191 H   0  0  0  0  0  0  0  0  0  0  0  0
   56.9640   32.0753   47.0228 H   0  0  0  0  0  0  0  0  0  0  0  0
   58.5301   29.5838   43.4072 H   0  0  0  0  0  0  0  0  0  0  0  0
   60.9020   28.9474   43.8312 H   0  0  0  0  0  0  0  0  0  0  0  0
   61.5858   28.0775   46.0685 H   0  0  0  0  0  0  0  0  0  0  0  0
   57.5159   28.4750   47.4741 H   0  0  0  0  0  0  0  0  0  0  0  0
  1  2  1  0
  2  3  1  0
  3  4  2  0
  4  5  1  0
  5  6  2  0
  6  7  1  0
  7  8  2  0
  8  9  1  0
  9 10  1  0
 10 11  2  0
 10 12  1  0
 12 13  2  0
 13 14  1  0
 14 15  2  0
 15 16  1  0
 16 17  1  0
 16 18  2  0
  8  3  1  0
 18 12  1  0
  1 19  1  0
  1 20  1  0
  1 21  1  0
  4 22  1  0
  5 23  1  0
  6 24  1  0
  7 25  1  0
 13 26  1  0
 14 27  1  0
 15 28  1  0
 18 29  1  0
M  CHG  1   9  -1
M  END
>  <UniqueID>  (69) 
58

>  <SMILES>  (69) 
CSc1ccccc1[N-]C(=O)c1cccc(F)c1

>  <Energy>  (69) 
33.13199877901773

>  <Genealogy>  (69) 
CSc1ccccc1[N-]C(=O)c1cccc(F)c1 (protonated)
CSc1ccccc1[N-]C(=O)c1cccc(F)c1 (3D coordinates assigned)
CSc1ccccc1[N-]C(=O)c1cccc(F)c1 (optimized conformer: 33.13199877901773 kcal/mol)

>  <smiles>  (69) 
CSc1ccccc1NC(=O)c1cccc(F)c1

>  <score_type>  (69) 
oracle

>  <origin>  (69) 
adg

>  <m_score__min__energy>  (69) 
-8.3499999999999996

>  <m_primary>  (69) 
energy

$$$$
69:0
     RDKit          3D

 48 50  0  0  0  0  0  0  0  0999 V2000
   57.2665   20.0072   42.9458 H   0  0  0  0  0  0  0  0  0  0  0  0
   57.2150   21.0710   43.2210 C   0  0  0  0  0  0  0  0  0  0  0  0
   56.2470   21.8630   42.6900 N   0  0  0  0  0  0  0  0  0  0  0  0
   56.1590   23.1860   42.9930 C   0  0  0  0  0  0  0  0  0  0  0  0
   55.3607   23.7982   42.5481 H   0  0  0  0  0  0  0  0  0  0  0  0
   57.0850   23.7740   43.8730 C   0  0  0  0  0  0  0  0  0  0  0  0
   57.0050   25.1620   44.2400 N   0  0  0  0  0  0  0  0  0  0  0  0
   56.8330   25.8560   43.4790 H   0  0  0  0  0  0  0  0  0  0  0  0
   57.0170   25.6330   45.5990 C   0  0  0  0  0  0  0  0  0  0  0  0
   56.7440   24.8400   46.5390 O   0  0  0  0  0  0  0  0  0  0  0  0
   57.3120   27.0540   45.8940 C   0  0  0  0  0  0  0  0  0  0  0  0
   56.7400   28.1420   45.2580 C   0  0  0  0  0  0  0  0  0  0  0  0
   55.9828   28.1392   44.4601 H   0  0  0  0  0  0  0  0  0  0  0  0
   57.3380   29.2280   45.8550 C   0  0  0  0  0  0  0  0  0  0  0  0
   57.0550   30.4670   45.5770 N   0  0  0  0  0  0  0  0  0  0  0  0
   57.3180   31.1440   44.3370 C   0  0  0  0  0  0  0  0  0  0  0  0
   56.8280   30.5970   43.1340 C   0  0  0  0  0  0  0  0  0  0  0  0
   56.2733   29.6474   43.1564 H   0  0  0  0  0  0  0  0  0  0  0  0
   57.0360   31.2410   41.9190 C   0  0  0  0  0  0  0  0  0  0  0  0
   56.6601   30.7936   40.9871 H   0  0  0  0  0  0  0  0  0  0  0  0
   57.7180   32.4480   41.8840 C   0  0  0  0  0  0  0  0  0  0  0  0
   57.8883   32.9522   40.9213 H   0  0  0  0  0  0  0  0  0  0  0  0
   58.1890   33.0260   43.0620 C   0  0  0  0  0  0  0  0  0  0  0  0
   58.7209   33.9876   43.0132 H   0  0  0  0  0  0  0  0  0  0  0  0
   57.9980   32.4020   44.3240 C   0  0  0  0  0  0  0  0  0  0  0  0
   58.5260   33.0600   45.6310 C   0  0  0  0  0  0  0  0  0  0  0  0
   59.2530   34.3860   45.3080 C   0  0  0  0  0  0  0  0  0  0  0  0
   59.5295   34.8904   46.2456 H   0  0  0  0  0  0  0  0  0  0  0  0
   60.1609   34.1737   44.7243 H   0  0  0  0  0  0  0  0  0  0  0  0
   58.5858   35.0372   44.7243 H   0  0  0  0  0  0  0  0  0  0  0  0
   59.4880   32.0970   46.3650 C   0  0  0  0  0  0  0  0  0  0  0  0
   59.3682   32.2169   47.4519 H   0  0  0  0  0  0  0  0  0  0  0  0
   59.2546   31.0598   46.0826 H   0  0  0  0  0  0  0  0  0  0  0  0
   60.5254   32.3293   46.0826 H   0  0  0  0  0  0  0  0  0  0  0  0
   57.3930   33.4070   46.6340 C   0  0  0  0  0  0  0  0  0  0  0  0
   57.7661   33.2927   47.6625 H   0  0  0  0  0  0  0  0  0  0  0  0
   57.0681   34.4458   46.4751 H   0  0  0  0  0  0  0  0  0  0  0  0
   56.5421   32.7283   46.4751 H   0  0  0  0  0  0  0  0  0  0  0  0
   58.2100   28.8340   46.8040 N   0  0  0  0  0  0  0  0  0  0  0  0
   58.1940   27.5110   46.8190 N   0  0  0  0  0  0  0  0  0  0  0  0
   59.0210   26.7220   47.7250 C   0  0  0  0  0  0  0  0  0  0  0  0
   58.7628   26.9683   48.7655 H   0  0  0  0  0  0  0  0  0  0  0  0
   58.8420   25.6515   47.5464 H   0  0  0  0  0  0  0  0  0  0  0  0
   60.0819   26.9511   47.5464 H   0  0  0  0  0  0  0  0  0  0  0  0
   58.0710   22.9600   44.4470 C   0  0  0  0  0  0  0  0  0  0  0  0
   58.7894   23.3893   45.1609 H   0  0  0  0  0  0  0  0  0  0  0  0
   58.1440   21.6050   44.1150 C   0  0  0  0  0  0  0  0  0  0  0  0
   58.9249   20.9662   44.5533 H   0  0  0  0  0  0  0  0  0  0  0  0
  1  2  1  0
  2  3  2  0
  3  4  1  0
  4  5  1  0
  4  6  2  0
  6  7  1  0
  7  8  1  0
  7  9  1  0
  9 10  2  0
  9 11  1  0
 11 12  2  0
 12 13  1  0
 12 14  1  0
 14 15  2  0
 15 16  1  0
 16 17  2  0
 17 18  1  0
 17 19  1  0
 19 20  1  0
 19 21  2  0
 21 22  1  0
 21 23  1  0
 23 24  1  0
 23 25  2  0
 25 26  1  0
 26 27  1  0
 27 28  1  0
 27 29  1  0
 27 30  1  0
 26 31  1  0
 31 32  1  0
 31 33  1  0
 31 34  1  0
 26 35  1  0
 35 36  1  0
 35 37  1  0
 35 38  1  0
 14 39  1  0
 39 40  1  0
 40 41  1  0
 41 42  1  0
 41 43  1  0
 41 44  1  0
  6 45  1  0
 45 46  1  0
 45 47  2  0
 47 48  1  0
 47  2  1  0
 40 11  1  0
 25 16  1  0
M  CHG  1  39  -1
M  END
>  <UniqueID>  (70) 
59

>  <SMILES>  (70) 
Cn1[n-]/c(=N\c2ccccc2C(C)(C)C)cc1C(=O)Nc1cccnc1

>  <Energy>  (70) 
96.82400636394624

>  <Genealogy>  (70) 
Cn1[n-]c(=Nc2ccccc2C(C)(C)C)cc1C(=O)Nc1cccnc1 (protonated)
Cn1[n-]/c(=N\c2ccccc2C(C)(C)C)cc1C(=O)Nc1cccnc1 (cis-trans isomerization)
Cn1[n-]/c(=N\c2ccccc2C(C)(C)C)cc1C(=O)Nc1cccnc1 (3D coordinates assigned)
Cn1[n-]/c(=N\c2ccccc2C(C)(C)C)cc1C(=O)Nc1cccnc1 (optimized conformer: 96.82400636394624 kcal/mol)

>  <smiles>  (70) 
Cn1[nH]c(=Nc2ccccc2C(C)(C)C)cc1C(=O)Nc1cccnc1

>  <score_type>  (70) 
oracle

>  <origin>  (70) 
adg

>  <m_score__min__energy>  (70) 
-10.25

>  <m_primary>  (70) 
energy

$$$$
70:0
     RDKit          3D

 51 53  0  0  0  0  0  0  0  0999 V2000
   62.5110   33.9280   50.9850 C   0  0  0  0  0  0  0  0  0  0  0  0
   62.4330   33.7250   49.4940 C   0  0  0  0  0  0  0  0  0  0  0  0
   63.6130   33.8020   48.7360 C   0  0  0  0  0  0  0  0  0  0  0  0
   63.5810   33.6240   47.3520 C   0  0  0  0  0  0  0  0  0  0  0  0
   62.3730   33.3730   46.7090 C   0  0  0  0  0  0  0  0  0  0  0  0
   61.1800   33.2950   47.4390 C   0  0  0  0  0  0  0  0  0  0  0  0
   59.9580   33.0050   46.7360 N   0  0  0  0  0  0  0  0  0  0  0  0
   59.2050   34.0270   46.2030 C   0  0  0  0  0  0  0  0  0  0  0  0
   59.6250   35.3960   46.3000 N   0  0  0  0  0  0  0  0  0  0  0  0
   58.0000   33.7350   45.5530 C   0  0  0  0  0  0  0  0  0  0  0  0
   57.5940   32.4070   45.4520 C   0  0  0  0  0  0  0  0  0  0  0  0
   56.5160   32.1160   44.8720 O   0  0  0  0  0  0  0  0  0  0  0  0
   58.3600   31.4240   45.9860 N   0  0  0  0  0  0  0  0  0  0  0  0
   59.5270   31.7040   46.6220 C   0  0  0  0  0  0  0  0  0  0  0  0
   60.4720   30.3250   47.2980 S   0  0  0  0  0  0  0  0  0  0  0  0
   60.8460   29.5760   45.6750 C   0  0  0  0  0  0  0  0  0  0  0  0
   59.8910   28.4590   45.3990 C   0  0  0  0  0  0  0  0  0  0  0  0
   59.4960   28.2510   44.2170 O   0  0  0  0  0  0  0  0  0  0  0  0
   59.4460   27.6200   46.4750 N   0  0  0  0  0  0  0  0  0  0  0  0
   58.3140   26.7400   46.3920 C   0  0  0  0  0  0  0  0  0  0  0  0
   57.0510   27.2080   45.9900 C   0  0  0  0  0  0  0  0  0  0  0  0
   55.9430   26.3530   45.9970 C   0  0  0  0  0  0  0  0  0  0  0  0
   56.0810   25.0170   46.4210 C   0  0  0  0  0  0  0  0  0  0  0  0
   54.9980   24.1240   46.4900 O   0  0  0  0  0  0  0  0  0  0  0  0
   54.0870   23.8470   45.4250 C   0  0  0  0  0  0  0  0  0  0  0  0
   53.1730   24.8820   45.3000 F   0  0  0  0  0  0  0  0  0  0  0  0
   54.7970   23.7330   44.2430 F   0  0  0  0  0  0  0  0  0  0  0  0
   53.4240   22.6560   45.6600 F   0  0  0  0  0  0  0  0  0  0  0  0
   57.3440   24.5510   46.8080 C   0  0  0  0  0  0  0  0  0  0  0  0
   58.4490   25.4070   46.8060 C   0  0  0  0  0  0  0  0  0  0  0  0
   61.1950   33.4800   48.8430 C   0  0  0  0  0  0  0  0  0  0  0  0
   59.9240   33.3480   49.6480 C   0  0  0  0  0  0  0  0  0  0  0  0
   62.1619   33.0195   51.4975 H   0  0  0  0  0  0  0  0  0  0  0  0
   63.5524   34.1342   51.2730 H   0  0  0  0  0  0  0  0  0  0  0  0
   61.8756   34.7785   51.2730 H   0  0  0  0  0  0  0  0  0  0  0  0
   64.5708   34.0044   49.2376 H   0  0  0  0  0  0  0  0  0  0  0  0
   64.5120   33.6822   46.7690 H   0  0  0  0  0  0  0  0  0  0  0  0
   62.3546   33.2346   45.6179 H   0  0  0  0  0  0  0  0  0  0  0  0
   60.1790   35.8610   45.5500 H   0  0  0  0  0  0  0  0  0  0  0  0
   59.3430   35.9810   47.1200 H   0  0  0  0  0  0  0  0  0  0  0  0
   57.3839   34.5416   45.1289 H   0  0  0  0  0  0  0  0  0  0  0  0
   60.7505   30.3403   44.8897 H   0  0  0  0  0  0  0  0  0  0  0  0
   61.8726   29.1810   45.6858 H   0  0  0  0  0  0  0  0  0  0  0  0
   59.9950   27.6260   47.3630 H   0  0  0  0  0  0  0  0  0  0  0  0
   56.9327   28.2531   45.6678 H   0  0  0  0  0  0  0  0  0  0  0  0
   54.9610   26.7257   45.6702 H   0  0  0  0  0  0  0  0  0  0  0  0
   57.4673   23.5023   47.1162 H   0  0  0  0  0  0  0  0  0  0  0  0
   59.4308   25.0326   47.1313 H   0  0  0  0  0  0  0  0  0  0  0  0
   60.1653   33.3731   50.7209 H   0  0  0  0  0  0  0  0  0  0  0  0
   59.2477   34.1807   49.4047 H   0  0  0  0  0  0  0  0  0  0  0  0
   59.4333   32.3941   49.4047 H   0  0  0  0  0  0  0  0  0  0  0  0
  1  2  1  0
  2  3  2  0
  3  4  1  0
  4  5  2  0
  5  6  1  0
  6  7  1  0
  7  8  1  0
  8  9  1  0
  8 10  2  0
 10 11  1  0
 11 12  2  0
 11 13  1  0
 13 14  2  0
 14 15  1  0
 15 16  1  0
 16 17  1  0
 17 18  2  0
 17 19  1  0
 19 20  1  0
 20 21  2  0
 21 22  1  0
 22 23  2  0
 23 24  1  0
 24 25  1  0
 25 26  1  0
 25 27  1  0
 25 28  1  0
 23 29  1  0
 29 30  2  0
  6 31  2  0
 31 32  1  0
 31  2  1  0
 14  7  1  0
 30 20  1  0
  1 33  1  0
  1 34  1  0
  1 35  1  0
  3 36  1  0
  4 37  1  0
  5 38  1  0
  9 39  1  0
  9 40  1  0
 10 41  1  0
 16 42  1  0
 16 43  1  0
 19 44  1  0
 21 45  1  0
 22 46  1  0
 29 47  1  0
 30 48  1  0
 32 49  1  0
 32 50  1  0
 32 51  1  0
M  END
>  <UniqueID>  (71) 
60

>  <SMILES>  (71) 
Cc1cccc(-n2c(N)cc(=O)nc2SCC(=O)Nc2ccc(OC(F)(F)F)cc2)c1C

>  <Energy>  (71) 
63.910175011802245

>  <Genealogy>  (71) 
Cc1cccc(-n2c(N)cc(=O)nc2SCC(=O)Nc2ccc(OC(F)(F)F)cc2)c1C (3D coordinates assigned)
Cc1cccc(-n2c(N)cc(=O)nc2SCC(=O)Nc2ccc(OC(F)(F)F)cc2)c1C (optimized conformer: 63.910175011802245 kcal/mol)

>  <smiles>  (71) 
Cc1cccc(-n2c(N)cc(=O)nc2SCC(=O)Nc2ccc(OC(F)(F)F)cc2)c1C

>  <score_type>  (71) 
oracle

>  <origin>  (71) 
adg

>  <m_score__min__energy>  (71) 
-7.46

>  <m_primary>  (71) 
energy

$$$$
71:0
     RDKit          3D

 43 46  0  0  0  0  0  0  0  0999 V2000
   57.3670   23.2470   48.3140 O   0  0  0  0  0  0  0  0  0  0  0  0
   56.9370   24.0510   47.4450 C   0  0  0  0  0  0  0  0  0  0  0  0
   55.9450   23.6020   46.5170 N   0  0  0  0  0  0  0  0  0  0  0  0
   56.1900   23.0200   45.2280 C   0  0  0  0  0  0  0  0  0  0  0  0
   55.4670   23.4960   44.1260 C   0  0  0  0  0  0  0  0  0  0  0  0
   55.6940   22.9690   42.8510 C   0  0  0  0  0  0  0  0  0  0  0  0
   56.6570   21.9750   42.6650 C   0  0  0  0  0  0  0  0  0  0  0  0
   57.4030   21.5140   43.7530 C   0  0  0  0  0  0  0  0  0  0  0  0
   57.1780   22.0390   45.0300 C   0  0  0  0  0  0  0  0  0  0  0  0
   57.4390   25.3940   47.3840 N   0  0  0  0  0  0  0  0  0  0  0  0
   57.5870   26.2020   46.2080 C   0  0  0  0  0  0  0  0  0  0  0  0
   57.9560   25.5780   45.0110 C   0  0  0  0  0  0  0  0  0  0  0  0
   58.1290   26.3290   43.8460 C   0  0  0  0  0  0  0  0  0  0  0  0
   57.9520   27.7140   43.8710 C   0  0  0  0  0  0  0  0  0  0  0  0
   57.6080   28.3640   45.0690 C   0  0  0  0  0  0  0  0  0  0  0  0
   57.4410   29.8340   45.1000 C   0  0  0  0  0  0  0  0  0  0  0  0
   56.3310   30.4730   44.6730 N   0  0  0  0  0  0  0  0  0  0  0  0
   56.5740   31.7340   44.8630 O   0  0  0  0  0  0  0  0  0  0  0  0
   57.7690   31.8720   45.3780 C   0  0  0  0  0  0  0  0  0  0  0  0
   58.3550   33.1340   45.7130 N   0  0  0  0  0  0  0  0  0  0  0  0
   58.4150   33.6550   47.0660 C   0  0  0  0  0  0  0  0  0  0  0  0
   59.2480   34.9270   46.9740 C   0  0  0  0  0  0  0  0  0  0  0  0
   59.2950   35.2940   45.4910 C   0  0  0  0  0  0  0  0  0  0  0  0
   58.9470   34.0200   44.7310 C   0  0  0  0  0  0  0  0  0  0  0  0
   58.3840   30.6870   45.5580 N   0  0  0  0  0  0  0  0  0  0  0  0
   57.4340   27.6010   46.2380 C   0  0  0  0  0  0  0  0  0  0  0  0
   54.7169   24.2885   44.2648 H   0  0  0  0  0  0  0  0  0  0  0  0
   55.1130   23.3380   41.9929 H   0  0  0  0  0  0  0  0  0  0  0  0
   56.8282   21.5552   41.6628 H   0  0  0  0  0  0  0  0  0  0  0  0
   58.1680   20.7375   43.6051 H   0  0  0  0  0  0  0  0  0  0  0  0
   57.7759   21.6833   45.8821 H   0  0  0  0  0  0  0  0  0  0  0  0
   58.1108   24.4892   44.9874 H   0  0  0  0  0  0  0  0  0  0  0  0
   58.4054   25.8282   42.9064 H   0  0  0  0  0  0  0  0  0  0  0  0
   58.0824   28.2992   42.9487 H   0  0  0  0  0  0  0  0  0  0  0  0
   57.4044   33.8829   47.4357 H   0  0  0  0  0  0  0  0  0  0  0  0
   58.8547   32.9281   47.7648 H   0  0  0  0  0  0  0  0  0  0  0  0
   58.7768   35.7350   47.5529 H   0  0  0  0  0  0  0  0  0  0  0  0
   60.2577   34.7777   47.3841 H   0  0  0  0  0  0  0  0  0  0  0  0
   58.5618   36.0835   45.2694 H   0  0  0  0  0  0  0  0  0  0  0  0
   60.2848   35.6773   45.2023 H   0  0  0  0  0  0  0  0  0  0  0  0
   58.2293   34.2363   43.9259 H   0  0  0  0  0  0  0  0  0  0  0  0
   59.8331   33.5716   44.2579 H   0  0  0  0  0  0  0  0  0  0  0  0
   57.1763   28.1016   47.1830 H   0  0  0  0  0  0  0  0  0  0  0  0
  1  2  2  0
  2  3  1  0
  3  4  1  0
  4  5  2  0
  5  6  1  0
  6  7  2  0
  7  8  1  0
  8  9  2  0
  2 10  1  0
 10 11  1  0
 11 12  2  0
 12 13  1  0
 13 14  2  0
 14 15  1  0
 15 16  1  0
 16 17  2  0
 17 18  1  0
 18 19  1  0
 19 20  1  0
 20 21  1  0
 21 22  1  0
 22 23  1  0
 23 24  1  0
 19 25  2  0
 15 26  2  0
  9  4  1  0
 26 11  1  0
 25 16  1  0
 24 20  1  0
  5 27  1  0
  6 28  1  0
  7 29  1  0
  8 30  1  0
  9 31  1  0
 12 32  1  0
 13 33  1  0
 14 34  1  0
 21 35  1  0
 21 36  1  0
 22 37  1  0
 22 38  1  0
 23 39  1  0
 23 40  1  0
 24 41  1  0
 24 42  1  0
 26 43  1  0
M  CHG  2   3  -1  10  -1
M  END
>  <UniqueID>  (72) 
61

>  <SMILES>  (72) 
O=C([N-]c1ccccc1)[N-]c1cccc(-c2noc(N3CCCC3)n2)c1

>  <Energy>  (72) 
85.3766513374465

>  <Genealogy>  (72) 
O=C([N-]c1ccccc1)[N-]c1cccc(-c2noc(N3CCCC3)n2)c1 (protonated)
O=C([N-]c1ccccc1)[N-]c1cccc(-c2noc(N3CCCC3)n2)c1 (3D coordinates assigned)
O=C([N-]c1ccccc1)[N-]c1cccc(-c2noc(N3CCCC3)n2)c1 (nonaromatic ring conformer: 85.3766513374465 kcal/mol)

>  <smiles>  (72) 
O=C(Nc1ccccc1)Nc1cccc(-c2noc(N3CCCC3)n2)c1

>  <score_type>  (72) 
oracle

>  <origin>  (72) 
adg

>  <m_score__min__energy>  (72) 
-12.41

>  <m_primary>  (72) 
energy

$$$$
72:0
     RDKit          3D

 45 48  0  0  1  0  0  0  0  0999 V2000
   58.4570   32.2420   43.1600 O   0  0  0  0  0  0  0  0  0  0  0  0
   58.1770   32.0650   44.3530 C   0  0  0  0  0  0  0  0  0  0  0  0
   57.9380   33.1090   45.2860 N   0  0  0  0  0  0  0  0  0  0  0  0
   58.0060   34.4870   44.9080 C   0  0  0  0  0  0  0  0  0  0  0  0
   59.2430   35.1010   45.4870 C   0  0  0  0  0  0  0  0  0  0  0  0
   59.8240   34.2530   46.5810 C   0  0  0  0  0  0  0  0  0  0  0  0
   60.9460   33.4700   46.3640 C   0  0  0  0  0  0  0  0  0  0  0  0
   61.4260   32.7120   47.4270 C   0  0  0  0  0  0  0  0  0  0  0  0
   60.8160   32.7230   48.6710 C   0  0  0  0  0  0  0  0  0  0  0  0
   61.3110   31.9690   49.6880 F   0  0  0  0  0  0  0  0  0  0  0  0
   59.6930   33.5080   48.8840 C   0  0  0  0  0  0  0  0  0  0  0  0
   59.2350   34.2460   47.8330 C   0  0  0  0  0  0  0  0  0  0  0  0
   58.0780   30.6880   44.8650 C   0  0  0  0  0  0  0  0  0  0  0  0
   59.0150   29.9610   45.6150 C   0  0  0  0  0  0  0  0  0  0  0  0
   58.7090   28.7150   45.9730 C   0  0  0  0  0  0  0  0  0  0  0  0
   59.5200   27.8240   46.7310 C   0  0  0  0  0  0  0  0  0  0  0  0
   59.0410   26.5700   47.0070 C   0  0  0  0  0  0  0  0  0  0  0  0
   57.8340   26.0750   46.6220 C   0  0  0  0  0  0  0  0  0  0  0  0
   57.3600   24.7880   46.9150 N   0  0  0  0  0  0  0  0  0  0  0  0
   56.4010   24.2350   46.2640 C   0  0  0  0  0  0  0  0  0  0  0  0
   56.7280   23.1590   45.4560 C   0  0  0  0  0  0  0  0  0  0  0  0
   55.7150   22.5340   44.7330 C   0  0  0  0  0  0  0  0  0  0  0  0
   54.4650   23.0150   44.8620 N   0  0  0  0  0  0  0  0  0  0  0  0
   54.1820   24.0670   45.6610 C   0  0  0  0  0  0  0  0  0  0  0  0
   55.1360   24.6960   46.3720 N   0  0  0  0  0  0  0  0  0  0  0  0
   57.0180   26.9290   45.8780 C   0  0  0  0  0  0  0  0  0  0  0  0
   57.5100   28.1680   45.6130 C   0  0  0  0  0  0  0  0  0  0  0  0
   56.6990   29.5620   44.6520 S   0  0  0  0  0  0  0  0  0  0  0  0
   57.7030   32.8490   46.2910 H   0  0  0  0  0  0  0  0  0  0  0  0
   58.0360   34.5657   43.8112 H   0  0  0  0  0  0  0  0  0  0  0  0
   57.1202   35.0166   45.2886 H   0  0  0  0  0  0  0  0  0  0  0  0
   59.9914   35.2152   44.6890 H   0  0  0  0  0  0  0  0  0  0  0  0
   58.9726   36.0769   45.9165 H   0  0  0  0  0  0  0  0  0  0  0  0
   61.4416   33.4484   45.3822 H   0  0  0  0  0  0  0  0  0  0  0  0
   62.3169   32.0848   47.2754 H   0  0  0  0  0  0  0  0  0  0  0  0
   59.1913   33.5343   49.8626 H   0  0  0  0  0  0  0  0  0  0  0  0
   58.3447   34.8728   47.9897 H   0  0  0  0  0  0  0  0  0  0  0  0
   59.9783   30.4089   45.9002 H   0  0  0  0  0  0  0  0  0  0  0  0
   60.5124   28.1361   47.0885 H   0  0  0  0  0  0  0  0  0  0  0  0
   59.6913   25.9037   47.5927 H   0  0  0  0  0  0  0  0  0  0  0  0
   57.7672   22.8050   45.3866 H   0  0  0  0  0  0  0  0  0  0  0  0
   55.9295   21.6762   44.0787 H   0  0  0  0  0  0  0  0  0  0  0  0
   53.6640   22.5940   44.3510 H   0  0  0  0  0  0  0  0  0  0  0  0
   53.1424   24.4194   45.7325 H   0  0  0  0  0  0  0  0  0  0  0  0
   56.0253   26.6146   45.5235 H   0  0  0  0  0  0  0  0  0  0  0  0
  1  2  2  0
  2  3  1  0
  3  4  1  0
  4  5  1  0
  5  6  1  0
  6  7  2  0
  7  8  1  0
  8  9  2  0
  9 10  1  0
  9 11  1  0
 11 12  2  0
  2 13  1  0
 13 14  2  0
 14 15  1  0
 15 16  2  0
 16 17  1  0
 17 18  2  0
 18 19  1  0
 19 20  2  0
 20 21  1  0
 21 22  2  0
 22 23  1  0
 23 24  1  0
 24 25  2  0
 18 26  1  0
 26 27  2  0
 27 28  1  0
 12  6  1  0
 28 13  1  0
 27 15  1  0
 25 20  1  0
  3 29  1  0
  4 30  1  0
  4 31  1  0
  5 32  1  0
  5 33  1  0
  7 34  1  0
  8 35  1  0
 11 36  1  0
 12 37  1  0
 14 38  1  0
 16 39  1  0
 17 40  1  0
 21 41  1  0
 22 42  1  0
 23 43  1  0
 24 44  1  0
 26 45  1  0
M  END
>  <smiles>  (73) 
O=C(NCCc1ccc(F)cc1)c1cc2ccc(N=c3cc[nH]cn3)cc2s1

>  <score_type>  (73) 
oracle

>  <origin>  (73) 
adg

>  <m_score__min__energy>  (73) 
-8.5199999999999996

>  <m_primary>  (73) 
energy

$$$$
73:0
     RDKit          3D

 32 34  0  0  0  0  0  0  0  0999 V2000
   61.0060   29.0110   50.6850 C   0  0  0  0  0  0  0  0  0  0  0  0
   60.6690   29.1090   49.2270 C   0  0  0  0  0  0  0  0  0  0  0  0
   60.3910   27.9510   48.4860 C   0  0  0  0  0  0  0  0  0  0  0  0
   60.0420   28.0430   47.1360 C   0  0  0  0  0  0  0  0  0  0  0  0
   59.9630   29.2970   46.5080 C   0  0  0  0  0  0  0  0  0  0  0  0
   59.5920   29.4020   45.0510 C   0  0  0  0  0  0  0  0  0  0  0  0
   58.1310   29.4300   44.8860 N   0  0  0  0  0  0  0  0  0  0  0  0
   57.2970   30.5010   44.8540 C   0  0  0  0  0  0  0  0  0  0  0  0
   57.6980   31.9190   44.8820 C   0  0  0  0  0  0  0  0  0  0  0  0
   57.8120   32.7530   45.9760 C   0  0  0  0  0  0  0  0  0  0  0  0
   58.2770   33.9540   45.4810 C   0  0  0  0  0  0  0  0  0  0  0  0
   58.4500   33.8640   44.1820 O   0  0  0  0  0  0  0  0  0  0  0  0
   58.1210   32.6550   43.7920 C   0  0  0  0  0  0  0  0  0  0  0  0
   56.0010   30.1200   44.8680 N   0  0  0  0  0  0  0  0  0  0  0  0
   56.0000   28.7980   44.8920 N   0  0  0  0  0  0  0  0  0  0  0  0
   57.2760   28.3830   44.9110 C   0  0  0  0  0  0  0  0  0  0  0  0
   57.7080   26.8040   45.0140 S   0  0  0  0  0  0  0  0  0  0  0  0
   60.2080   30.4570   47.2600 C   0  0  0  0  0  0  0  0  0  0  0  0
   60.5560   30.3640   48.6100 C   0  0  0  0  0  0  0  0  0  0  0  0
   60.1202   29.2686   51.2842 H   0  0  0  0  0  0  0  0  0  0  0  0
   61.3217   27.9838   50.9201 H   0  0  0  0  0  0  0  0  0  0  0  0
   61.8233   29.7087   50.9201 H   0  0  0  0  0  0  0  0  0  0  0  0
   60.4480   26.9650   48.9702 H   0  0  0  0  0  0  0  0  0  0  0  0
   59.8281   27.1291   46.5624 H   0  0  0  0  0  0  0  0  0  0  0  0
   60.0198   30.3262   44.6354 H   0  0  0  0  0  0  0  0  0  0  0  0
   59.9904   28.5242   44.5211 H   0  0  0  0  0  0  0  0  0  0  0  0
   57.5805   32.5107   47.0237 H   0  0  0  0  0  0  0  0  0  0  0  0
   58.4735   34.8527   46.0841 H   0  0  0  0  0  0  0  0  0  0  0  0
   58.1738   32.2849   42.7575 H   0  0  0  0  0  0  0  0  0  0  0  0
   55.1410   28.2040   44.9190 H   0  0  0  0  0  0  0  0  0  0  0  0
   60.1255   31.4450   46.7835 H   0  0  0  0  0  0  0  0  0  0  0  0
   60.7422   31.2789   49.1917 H   0  0  0  0  0  0  0  0  0  0  0  0
  1  2  1  0
  2  3  2  0
  3  4  1  0
  4  5  2  0
  5  6  1  0
  6  7  1  0
  7  8  1  0
  8  9  1  0
  9 10  1  0
 10 11  2  0
 11 12  1  0
 12 13  1  0
  8 14  2  0
 14 15  1  0
 15 16  1  0
 16 17  2  0
  5 18  1  0
 18 19  2  0
 19  2  1  0
 16  7  1  0
 13  9  2  0
  1 20  1  0
  1 21  1  0
  1 22  1  0
  3 23  1  0
  4 24  1  0
  6 25  1  0
  6 26  1  0
 10 27  1  0
 11 28  1  0
 13 29  1  0
 15 30  1  0
 18 31  1  0
 19 32  1  0
M  END
>  <UniqueID>  (74) 
62

>  <SMILES>  (74) 
Cc1ccc(Cn2c(-c3ccoc3)n[nH]c2=S)cc1

>  <Energy>  (74) 
98.54521655594863

>  <Genealogy>  (74) 
Cc1ccc(Cn2c(-c3ccoc3)n[nH]c2=S)cc1 (3D coordinates assigned)
Cc1ccc(Cn2c(-c3ccoc3)n[nH]c2=S)cc1 (optimized conformer: 98.54521655594863 kcal/mol)

>  <smiles>  (74) 
Cc1ccc(Cn2c(-c3ccoc3)n[nH]c2=S)cc1

>  <score_type>  (74) 
oracle

>  <origin>  (74) 
adg

>  <m_score__min__energy>  (74) 
-6.7999999999999998

>  <m_primary>  (74) 
energy

$$$$
74:0
     RDKit          3D

 37 40  0  0  0  0  0  0  0  0999 V2000
   57.7502   31.1688   42.5487 H   0  0  0  0  0  0  0  0  0  0  0  0
   57.4950   31.2280   43.6170 C   0  0  0  0  0  0  0  0  0  0  0  0
   57.3430   32.4100   44.1430 N   0  0  0  0  0  0  0  0  0  0  0  0
   58.1990   33.0450   45.1020 C   0  0  0  0  0  0  0  0  0  0  0  0
   57.9370   34.5870   45.7050 S   0  0  0  0  0  0  0  0  0  0  0  0
   59.3540   34.5890   46.6170 C   0  0  0  0  0  0  0  0  0  0  0  0
   59.6980   35.4028   47.2724 H   0  0  0  0  0  0  0  0  0  0  0  0
   60.0170   33.3780   46.3970 C   0  0  0  0  0  0  0  0  0  0  0  0
   61.3170   33.0350   47.0270 C   0  0  0  0  0  0  0  0  0  0  0  0
   62.4580   33.8280   46.7930 C   0  0  0  0  0  0  0  0  0  0  0  0
   62.3877   34.7053   46.1332 H   0  0  0  0  0  0  0  0  0  0  0  0
   63.6790   33.5070   47.3940 C   0  0  0  0  0  0  0  0  0  0  0  0
   64.5638   34.1334   47.2074 H   0  0  0  0  0  0  0  0  0  0  0  0
   63.7780   32.3940   48.2300 C   0  0  0  0  0  0  0  0  0  0  0  0
   64.7396   32.1438   48.7019 H   0  0  0  0  0  0  0  0  0  0  0  0
   62.6550   31.5980   48.4670 C   0  0  0  0  0  0  0  0  0  0  0  0
   62.7340   30.7195   49.1243 H   0  0  0  0  0  0  0  0  0  0  0  0
   61.4310   31.9150   47.8710 C   0  0  0  0  0  0  0  0  0  0  0  0
   60.5505   31.2843   48.0632 H   0  0  0  0  0  0  0  0  0  0  0  0
   59.3720   32.5350   45.5410 N   0  0  0  0  0  0  0  0  0  0  0  0
   59.7440   31.6050   45.2460 H   0  0  0  0  0  0  0  0  0  0  0  0
   57.3460   29.9580   44.3660 C   0  0  0  0  0  0  0  0  0  0  0  0
   56.0780   29.4000   44.5940 C   0  0  0  0  0  0  0  0  0  0  0  0
   55.1818   29.9183   44.2223 H   0  0  0  0  0  0  0  0  0  0  0  0
   55.9470   28.2540   45.2530 O   0  0  0  0  0  0  0  0  0  0  0  0
   56.9880   27.5690   45.7140 C   0  0  0  0  0  0  0  0  0  0  0  0
   56.7790   26.3720   46.4060 C   0  0  0  0  0  0  0  0  0  0  0  0
   55.7551   26.0048   46.5698 H   0  0  0  0  0  0  0  0  0  0  0  0
   57.8670   25.6410   46.8900 C   0  0  0  0  0  0  0  0  0  0  0  0
   57.6975   24.6998   47.4336 H   0  0  0  0  0  0  0  0  0  0  0  0
   59.1710   26.1030   46.6850 C   0  0  0  0  0  0  0  0  0  0  0  0
   60.0244   25.5242   47.0679 H   0  0  0  0  0  0  0  0  0  0  0  0
   59.3930   27.2980   45.9950 C   0  0  0  0  0  0  0  0  0  0  0  0
   60.4204   27.6570   45.8353 H   0  0  0  0  0  0  0  0  0  0  0  0
   58.3040   28.0430   45.5040 C   0  0  0  0  0  0  0  0  0  0  0  0
   58.4750   29.2530   44.8100 C   0  0  0  0  0  0  0  0  0  0  0  0
   59.6320   29.7110   44.5970 O   0  0  0  0  0  0  0  0  0  0  0  0
  1  2  1  0
  2  3  2  0
  3  4  1  0
  4  5  1  0
  5  6  1  0
  6  7  1  0
  6  8  2  0
  8  9  1  0
  9 10  2  0
 10 11  1  0
 10 12  1  0
 12 13  1  0
 12 14  2  0
 14 15  1  0
 14 16  1  0
 16 17  1  0
 16 18  2  0
 18 19  1  0
  8 20  1  0
 20 21  1  0
  2 22  1  0
 22 23  2  0
 23 24  1  0
 23 25  1  0
 25 26  1  0
 26 27  2  0
 27 28  1  0
 27 29  1  0
 29 30  1  0
 29 31  2  0
 31 32  1  0
 31 33  1  0
 33 34  1  0
 33 35  2  0
 35 36  1  0
 36 37  2  0
 20  4  2  0
 36 22  1  0
 18  9  1  0
 35 26  1  0
M  CHG  1  20   1
M  END
>  <UniqueID>  (75) 
63

>  <SMILES>  (75) 
O=c1c(/C=N\c2[nH+]c(-c3ccccc3)cs2)coc2ccccc12

>  <Energy>  (75) 
90.3819638471352

>  <Genealogy>  (75) 
O=c1c(C=Nc2[nH+]c(-c3ccccc3)cs2)coc2ccccc12 (protonated)
O=c1c(/C=N\c2[nH+]c(-c3ccccc3)cs2)coc2ccccc12 (cis-trans isomerization)
O=c1c(/C=N\c2[nH+]c(-c3ccccc3)cs2)coc2ccccc12 (3D coordinates assigned)
O=c1c(/C=N\c2[nH+]c(-c3ccccc3)cs2)coc2ccccc12 (optimized conformer: 90.3819638471352 kcal/mol)

>  <smiles>  (75) 
O=c1c(C=Nc2nc(-c3ccccc3)cs2)coc2ccccc12

>  <score_type>  (75) 
oracle

>  <origin>  (75) 
adg

>  <m_score__min__energy>  (75) 
-7.0499999999999998

>  <m_primary>  (75) 
energy

$$$$
75:0
     RDKit          3D

 31 32  0  0  0  0  0  0  0  0999 V2000
   55.5210   26.7160   45.9930 N   0  0  0  0  0  0  0  0  0  0  0  0
   56.8750   27.1690   46.0360 C   0  0  0  0  0  0  0  0  0  0  0  0
   57.5880   26.8980   47.0360 O   0  0  0  0  0  0  0  0  0  0  0  0
   57.4190   27.9850   44.9910 N   0  0  0  0  0  0  0  0  0  0  0  0
   57.6230   29.4040   45.0470 C   0  0  0  0  0  0  0  0  0  0  0  0
   57.2390   30.1860   43.9510 C   0  0  0  0  0  0  0  0  0  0  0  0
   57.3930   31.5750   43.9850 C   0  0  0  0  0  0  0  0  0  0  0  0
   57.9140   32.1980   45.1260 C   0  0  0  0  0  0  0  0  0  0  0  0
   58.0980   33.9490   45.1810 S   0  0  0  0  0  0  0  0  0  0  0  0
   56.7920   34.6290   44.8740 O   0  0  0  0  0  0  0  0  0  0  0  0
   59.1190   34.3620   44.1590 O   0  0  0  0  0  0  0  0  0  0  0  0
   58.6360   34.4440   46.7530 N   0  0  0  0  0  0  0  0  0  0  0  0
   59.9200   34.1440   47.3200 C   0  0  0  0  0  0  0  0  0  0  0  0
   60.1500   34.1630   48.7080 C   0  0  0  0  0  0  0  0  0  0  0  0
   61.4160   33.8550   49.2160 C   0  0  0  0  0  0  0  0  0  0  0  0
   62.4600   33.5300   48.3450 C   0  0  0  0  0  0  0  0  0  0  0  0
   64.1890   33.1100   49.0410 Br  0  0  0  0  0  0  0  0  0  0  0  0
   62.2390   33.5130   46.9650 C   0  0  0  0  0  0  0  0  0  0  0  0
   60.9740   33.8190   46.4550 C   0  0  0  0  0  0  0  0  0  0  0  0
   58.2780   31.4210   46.2340 C   0  0  0  0  0  0  0  0  0  0  0  0
   58.1240   30.0310   46.2000 C   0  0  0  0  0  0  0  0  0  0  0  0
   55.1540   26.0930   46.7460 H   0  0  0  0  0  0  0  0  0  0  0  0
   54.8590   27.0610   45.2640 H   0  0  0  0  0  0  0  0  0  0  0  0
   56.8137   29.7047   43.0580 H   0  0  0  0  0  0  0  0  0  0  0  0
   57.1042   32.1804   43.1131 H   0  0  0  0  0  0  0  0  0  0  0  0
   59.3313   34.4210   49.3958 H   0  0  0  0  0  0  0  0  0  0  0  0
   61.5905   33.8685   50.3020 H   0  0  0  0  0  0  0  0  0  0  0  0
   63.0611   33.2587   46.2798 H   0  0  0  0  0  0  0  0  0  0  0  0
   60.8046   33.8047   45.3682 H   0  0  0  0  0  0  0  0  0  0  0  0
   58.6861   31.9056   47.1332 H   0  0  0  0  0  0  0  0  0  0  0  0
   58.3959   29.4273   47.0784 H   0  0  0  0  0  0  0  0  0  0  0  0
  1  2  1  0
  2  3  2  0
  2  4  1  0
  4  5  1  0
  5  6  2  0
  6  7  1  0
  7  8  2  0
  8  9  1  0
  9 10  2  0
  9 11  2  0
  9 12  1  0
 12 13  1  0
 13 14  2  0
 14 15  1  0
 15 16  2  0
 16 17  1  0
 16 18  1  0
 18 19  2  0
  8 20  1  0
 20 21  2  0
 21  5  1  0
 19 13  1  0
  1 22  1  0
  1 23  1  0
  6 24  1  0
  7 25  1  0
 14 26  1  0
 15 27  1  0
 18 28  1  0
 19 29  1  0
 20 30  1  0
 21 31  1  0
M  CHG  2   4  -1  12  -1
M  END
>  <UniqueID>  (76) 
64

>  <SMILES>  (76) 
NC(=O)[N-]c1ccc(S(=O)(=O)[N-]c2ccc(Br)cc2)cc1

>  <Energy>  (76) 
37.29020779653072

>  <Genealogy>  (76) 
NC(=O)[N-]c1ccc(S(=O)(=O)[N-]c2ccc(Br)cc2)cc1 (protonated)
NC(=O)[N-]c1ccc(S(=O)(=O)[N-]c2ccc(Br)cc2)cc1 (3D coordinates assigned)
NC(=O)[N-]c1ccc(S(=O)(=O)[N-]c2ccc(Br)cc2)cc1 (optimized conformer: 37.29020779653072 kcal/mol)

>  <smiles>  (76) 
NC(=O)Nc1ccc(S(=O)(=O)Nc2ccc(Br)cc2)cc1

>  <score_type>  (76) 
oracle

>  <origin>  (76) 
adg

>  <m_score__min__energy>  (76) 
-10.59

>  <m_primary>  (76) 
energy

$$$$
76:0
     RDKit          3D

 51 54  0  0  0  0  0  0  0  0999 V2000
   55.3280   30.4770   43.7440 O   0  0  0  0  0  0  0  0  0  0  0  0
   56.3710   30.6160   44.4350 C   0  0  0  0  0  0  0  0  0  0  0  0
   56.7330   31.9400   44.8570 N   0  0  0  0  0  0  0  0  0  0  0  0
   58.0390   32.4110   45.3210 C   0  0  0  0  0  0  0  0  0  0  0  0
   58.0950   33.9450   45.1680 C   0  0  0  0  0  0  0  0  0  0  0  0
   59.0710   34.5590   46.1780 C   0  0  0  0  0  0  0  0  0  0  0  0
   58.6280   34.3360   47.5810 N   0  0  0  0  0  0  0  0  0  0  0  0
   59.7570   34.4630   48.5270 C   0  0  0  0  0  0  0  0  0  0  0  0
   60.9250   33.6180   48.0880 C   0  0  0  0  0  0  0  0  0  0  0  0
   61.9450   34.1830   47.3050 C   0  0  0  0  0  0  0  0  0  0  0  0
   63.0110   33.3950   46.8600 C   0  0  0  0  0  0  0  0  0  0  0  0
   63.0660   32.0330   47.1900 C   0  0  0  0  0  0  0  0  0  0  0  0
   64.1200   31.2370   46.7480 O   0  0  0  0  0  0  0  0  0  0  0  0
   62.0530   31.4680   47.9700 C   0  0  0  0  0  0  0  0  0  0  0  0
   60.9850   32.2540   48.4150 C   0  0  0  0  0  0  0  0  0  0  0  0
   57.8890   33.0610   47.7840 C   0  0  0  0  0  0  0  0  0  0  0  0
   58.3010   31.9710   46.7840 C   0  0  0  0  0  0  0  0  0  0  0  0
   57.1440   29.4060   44.7910 C   0  0  0  0  0  0  0  0  0  0  0  0
   56.5840   28.1920   45.1750 C   0  0  0  0  0  0  0  0  0  0  0  0
   57.5300   27.1790   45.4080 C   0  0  0  0  0  0  0  0  0  0  0  0
   57.1650   25.8180   45.8670 C   0  0  0  0  0  0  0  0  0  0  0  0
   58.1750   24.8570   46.0620 C   0  0  0  0  0  0  0  0  0  0  0  0
   57.8500   23.5630   46.4790 C   0  0  0  0  0  0  0  0  0  0  0  0
   56.5190   23.2130   46.7100 C   0  0  0  0  0  0  0  0  0  0  0  0
   55.5090   24.1590   46.5320 C   0  0  0  0  0  0  0  0  0  0  0  0
   55.8220   25.4590   46.1180 C   0  0  0  0  0  0  0  0  0  0  0  0
   54.7940   26.3880   45.9850 O   0  0  0  0  0  0  0  0  0  0  0  0
   58.8440   27.5960   45.1930 C   0  0  0  0  0  0  0  0  0  0  0  0
   58.8130   29.2050   44.7150 S   0  0  0  0  0  0  0  0  0  0  0  0
   58.8348   31.9605   44.7096 H   0  0  0  0  0  0  0  0  0  0  0  0
   58.4269   34.1937   44.1492 H   0  0  0  0  0  0  0  0  0  0  0  0
   57.0912   34.3542   45.3551 H   0  0  0  0  0  0  0  0  0  0  0  0
   60.0613   34.1003   46.0402 H   0  0  0  0  0  0  0  0  0  0  0  0
   59.1093   35.6438   46.0001 H   0  0  0  0  0  0  0  0  0  0  0  0
   60.0716   35.5161   48.5728 H   0  0  0  0  0  0  0  0  0  0  0  0
   59.4259   34.1171   49.5173 H   0  0  0  0  0  0  0  0  0  0  0  0
   61.9051   35.2500   47.0407 H   0  0  0  0  0  0  0  0  0  0  0  0
   63.8083   33.8444   46.2497 H   0  0  0  0  0  0  0  0  0  0  0  0
   64.8860   31.6230   46.2100 H   0  0  0  0  0  0  0  0  0  0  0  0
   62.0959   30.4012   48.2349 H   0  0  0  0  0  0  0  0  0  0  0  0
   60.1885   31.8014   49.0239 H   0  0  0  0  0  0  0  0  0  0  0  0
   58.0883   32.6972   48.8028 H   0  0  0  0  0  0  0  0  0  0  0  0
   56.8201   33.2682   47.6276 H   0  0  0  0  0  0  0  0  0  0  0  0
   59.3737   31.7607   46.9069 H   0  0  0  0  0  0  0  0  0  0  0  0
   57.6991   31.0728   46.9864 H   0  0  0  0  0  0  0  0  0  0  0  0
   55.5004   28.0389   45.2861 H   0  0  0  0  0  0  0  0  0  0  0  0
   59.2268   25.1261   45.8851 H   0  0  0  0  0  0  0  0  0  0  0  0
   58.6460   22.8181   46.6256 H   0  0  0  0  0  0  0  0  0  0  0  0
   56.2663   22.1920   47.0322 H   0  0  0  0  0  0  0  0  0  0  0  0
   54.4609   23.8817   46.7180 H   0  0  0  0  0  0  0  0  0  0  0  0
   59.7451   26.9771   45.3156 H   0  0  0  0  0  0  0  0  0  0  0  0
  1  2  2  0
  2  3  1  0
  3  4  1  0
  4  5  1  0
  5  6  1  0
  6  7  1  0
  7  8  1  0
  8  9  1  0
  9 10  2  0
 10 11  1  0
 11 12  2  0
 12 13  1  0
 12 14  1  0
 14 15  2  0
  7 16  1  0
 16 17  1  0
  2 18  1  0
 18 19  2  0
 19 20  1  0
 20 21  1  0
 21 22  2  0
 22 23  1  0
 23 24  2  0
 24 25  1  0
 25 26  2  0
 26 27  1  0
 20 28  2  0
 28 29  1  0
 17  4  1  0
 29 18  1  0
 15  9  1  0
 26 21  1  0
  4 30  1  0
  5 31  1  0
  5 32  1  0
  6 33  1  0
  6 34  1  0
  8 35  1  0
  8 36  1  0
 10 37  1  0
 11 38  1  0
 13 39  1  0
 14 40  1  0
 15 41  1  0
 16 42  1  0
 16 43  1  0
 17 44  1  0
 17 45  1  0
 19 46  1  0
 22 47  1  0
 23 48  1  0
 24 49  1  0
 25 50  1  0
 28 51  1  0
M  CHG  2   3  -1  27  -1
M  END
>  <UniqueID>  (77) 
65

>  <SMILES>  (77) 
O=C([N-]C1CCN(Cc2ccc(O)cc2)CC1)c1cc(-c2ccccc2[O-])cs1

>  <Energy>  (77) 
96.23997196188209

>  <Genealogy>  (77) 
O=C([N-]C1CCN(Cc2ccc(O)cc2)CC1)c1cc(-c2ccccc2[O-])cs1 (protonated)
O=C([N-]C1CCN(Cc2ccc(O)cc2)CC1)c1cc(-c2ccccc2[O-])cs1 (3D coordinates assigned)
O=C([N-]C1CCN(Cc2ccc(O)cc2)CC1)c1cc(-c2ccccc2[O-])cs1 (nonaromatic ring conformer: 96.23997196188209 kcal/mol)

>  <smiles>  (77) 
O=C(NC1CCN(Cc2ccc(O)cc2)CC1)c1cc(-c2ccccc2O)cs1

>  <score_type>  (77) 
oracle

>  <origin>  (77) 
adg

>  <m_score__min__energy>  (77) 
-14.289999999999999

>  <m_primary>  (77) 
energy

$$$$
77:0
     RDKit          3D

 55 59  0  0  0  0  0  0  0  0999 V2000
   55.4280   26.7040   46.6940 H   0  0  0  0  0  0  0  0  0  0  0  0
   55.3090   25.8990   46.0400 N   0  0  0  0  0  0  0  0  0  0  0  0
   56.2690   25.0820   45.7350 C   0  0  0  0  0  0  0  0  0  0  0  0
   56.0170   24.0470   44.8910 N   0  0  0  0  0  0  0  0  0  0  0  0
   56.9820   23.1570   44.5330 C   0  0  0  0  0  0  0  0  0  0  0  0
   56.6580   22.0510   43.6070 C   0  0  0  0  0  0  0  0  0  0  0  0
   55.8240   22.2270   42.6780 O   0  0  0  0  0  0  0  0  0  0  0  0
   57.2790   20.7700   43.7500 N   0  0  0  0  0  0  0  0  0  0  0  0
   57.9630   20.5810   44.5160 H   0  0  0  0  0  0  0  0  0  0  0  0
   57.0430   19.9970   43.0880 H   0  0  0  0  0  0  0  0  0  0  0  0
   58.2750   23.3210   45.0520 C   0  0  0  0  0  0  0  0  0  0  0  0
   59.0746   22.6168   44.7788 H   0  0  0  0  0  0  0  0  0  0  0  0
   58.5330   24.3550   45.8940 N   0  0  0  0  0  0  0  0  0  0  0  0
   57.5650   25.2390   46.2610 C   0  0  0  0  0  0  0  0  0  0  0  0
   57.8600   26.3170   47.1090 O   0  0  0  0  0  0  0  0  0  0  0  0
   58.2640   27.5900   46.6870 C   0  0  0  0  0  0  0  0  0  0  0  0
   59.5450   28.1210   47.0110 C   0  0  0  0  0  0  0  0  0  0  0  0
   60.2541   27.5145   47.5935 H   0  0  0  0  0  0  0  0  0  0  0  0
   59.9130   29.4130   46.5940 C   0  0  0  0  0  0  0  0  0  0  0  0
   60.9026   29.8271   46.8373 H   0  0  0  0  0  0  0  0  0  0  0  0
   58.9860   30.1510   45.8640 C   0  0  0  0  0  0  0  0  0  0  0  0
   59.1250   31.3590   45.3780 O   0  0  0  0  0  0  0  0  0  0  0  0
   58.0020   31.6620   44.7500 C   0  0  0  0  0  0  0  0  0  0  0  0
   57.7640   32.9650   44.0480 C   0  0  0  0  0  0  0  0  0  0  0  0
   58.5887   33.1532   43.3448 H   0  0  0  0  0  0  0  0  0  0  0  0
   56.8087   32.9076   43.5057 H   0  0  0  0  0  0  0  0  0  0  0  0
   57.6940   34.0730   45.0230 N   0  0  0  0  0  0  0  0  0  0  0  0
   58.8520   34.9850   44.8810 C   0  0  0  0  0  0  0  0  0  0  0  0
   59.0686   35.1270   43.8119 H   0  0  0  0  0  0  0  0  0  0  0  0
   58.6009   35.9452   45.3553 H   0  0  0  0  0  0  0  0  0  0  0  0
   60.0680   34.4230   45.5570 C   0  0  0  0  0  0  0  0  0  0  0  0
   61.0435   34.4253   45.0486 H   0  0  0  0  0  0  0  0  0  0  0  0
   59.9430   33.9190   46.7900 C   0  0  0  0  0  0  0  0  0  0  0  0
   61.1180   33.3930   47.5360 C   0  0  0  0  0  0  0  0  0  0  0  0
   62.4160   33.5400   47.0100 C   0  0  0  0  0  0  0  0  0  0  0  0
   62.5593   34.0410   46.0412 H   0  0  0  0  0  0  0  0  0  0  0  0
   63.5230   33.0540   47.7100 C   0  0  0  0  0  0  0  0  0  0  0  0
   64.5327   33.1718   47.2898 H   0  0  0  0  0  0  0  0  0  0  0  0
   63.3510   32.4190   48.9420 C   0  0  0  0  0  0  0  0  0  0  0  0
   64.2247   32.0387   49.4915 H   0  0  0  0  0  0  0  0  0  0  0  0
   62.0700   32.2670   49.4760 C   0  0  0  0  0  0  0  0  0  0  0  0
   61.9349   31.7645   50.4451 H   0  0  0  0  0  0  0  0  0  0  0  0
   60.9580   32.7530   48.7800 C   0  0  0  0  0  0  0  0  0  0  0  0
   59.9515   32.6343   49.2076 H   0  0  0  0  0  0  0  0  0  0  0  0
   58.5790   33.9760   47.4280 C   0  0  0  0  0  0  0  0  0  0  0  0
   58.5514   33.2803   48.2796 H   0  0  0  0  0  0  0  0  0  0  0  0
   58.3937   35.0068   47.7644 H   0  0  0  0  0  0  0  0  0  0  0  0
   57.4750   33.5830   46.4190 C   0  0  0  0  0  0  0  0  0  0  0  0
   57.4137   32.4851   46.3900 H   0  0  0  0  0  0  0  0  0  0  0  0
   56.5498   34.0617   46.7723 H   0  0  0  0  0  0  0  0  0  0  0  0
   57.0870   30.6170   44.8380 C   0  0  0  0  0  0  0  0  0  0  0  0
   56.0683   30.5738   44.4252 H   0  0  0  0  0  0  0  0  0  0  0  0
   57.7490   29.6500   45.5600 C   0  0  0  0  0  0  0  0  0  0  0  0
   57.3490   28.3790   45.9610 C   0  0  0  0  0  0  0  0  0  0  0  0
   56.3454   28.0000   45.7179 H   0  0  0  0  0  0  0  0  0  0  0  0
  1  2  1  0
  2  3  2  0
  3  4  1  0
  4  5  1  0
  5  6  1  0
  6  7  2  0
  6  8  1  0
  8  9  1  0
  8 10  1  0
  5 11  2  0
 11 12  1  0
 11 13  1  0
 13 14  2  0
 14 15  1  0
 15 16  1  0
 16 17  2  0
 17 18  1  0
 17 19  1  0
 19 20  1  0
 19 21  2  0
 21 22  1  0
 22 23  1  0
 23 24  1  0
 24 25  1  0
 24 26  1  0
 24 27  1  0
 27 28  1  0
 28 29  1  0
 28 30  1  0
 28 31  1  0
 31 32  1  0
 31 33  2  0
 33 34  1  0
 34 35  2  0
 35 36  1  0
 35 37  1  0
 37 38  1  0
 37 39  2  0
 39 40  1  0
 39 41  1  0
 41 42  1  0
 41 43  2  0
 43 44  1  0
 33 45  1  0
 45 46  1  0
 45 47  1  0
 45 48  1  0
 48 49  1  0
 48 50  1  0
 23 51  2  0
 51 52  1  0
 51 53  1  0
 53 54  2  0
 54 55  1  0
 14  3  1  0
 54 16  1  0
 53 21  1  0
 48 27  1  0
 43 34  1  0
M  CHG  1   4  -1
M  END
>  <UniqueID>  (78) 
66

>  <SMILES>  (78) 
[H]/N=c1/[n-]c(C(N)=O)cnc1Oc1ccc2oc(CN3CC=C(c4ccccc4)CC3)cc2c1

>  <Energy>  (78) 
113.65846852351218

>  <Genealogy>  (78) 
N=c1[n-]c(C(N)=O)cnc1Oc1ccc2oc(CN3CC=C(c4ccccc4)CC3)cc2c1 (protonated)
[H]/N=c1/[n-]c(C(N)=O)cnc1Oc1ccc2oc(CN3CC=C(c4ccccc4)CC3)cc2c1 (cis-trans isomerization)
[H]/N=c1/[n-]c(C(N)=O)cnc1Oc1ccc2oc(CN3CC=C(c4ccccc4)CC3)cc2c1 (3D coordinates assigned)
[H]/N=c1/[n-]c(C(N)=O)cnc1Oc1ccc2oc(CN3CC=C(c4ccccc4)CC3)cc2c1 (nonaromatic ring conformer: 113.65846852351218 kcal/mol)

>  <smiles>  (78) 
N=c1[nH]c(C(N)=O)cnc1Oc1ccc2oc(CN3CC=C(c4ccccc4)CC3)cc2c1

>  <score_type>  (78) 
oracle

>  <origin>  (78) 
adg

>  <m_score__min__energy>  (78) 
-13.23

>  <m_primary>  (78) 
energy

$$$$
78:0
     RDKit          3D

 48 50  0  0  0  0  0  0  0  0999 V2000
   56.7220   31.9320   40.2600 H   0  0  0  0  0  0  0  0  0  0  0  0
   57.4660   32.2280   40.9320 N   0  0  0  0  0  0  0  0  0  0  0  0
   57.3790   31.9660   42.1950 C   0  0  0  0  0  0  0  0  0  0  0  0
   56.7790   30.8240   42.6180 N   0  0  0  0  0  0  0  0  0  0  0  0
   56.6850   30.5580   43.9450 C   0  0  0  0  0  0  0  0  0  0  0  0
   55.8960   29.0460   44.5020 S   0  0  0  0  0  0  0  0  0  0  0  0
   57.4340   28.0880   44.8450 C   0  0  1  0  0  0  0  0  0  0  0  0
   58.2605   28.8073   44.9428 H   0  0  0  0  0  0  0  0  0  0  0  0
   57.3640   27.3480   46.1690 C   0  0  0  0  0  0  0  0  0  0  0  0
   56.3830   26.5970   46.4190 O   0  0  0  0  0  0  0  0  0  0  0  0
   58.3920   27.4700   47.1610 N   0  0  0  0  0  0  0  0  0  0  0  0
   59.1290   28.6620   47.4710 C   0  0  0  0  0  0  0  0  0  0  0  0
   58.8570   29.3890   48.6430 C   0  0  0  0  0  0  0  0  0  0  0  0
   58.0658   29.0484   49.3271 H   0  0  0  0  0  0  0  0  0  0  0  0
   59.5860   30.5410   48.9430 C   0  0  0  0  0  0  0  0  0  0  0  0
   59.3603   31.1114   49.8561 H   0  0  0  0  0  0  0  0  0  0  0  0
   60.6000   30.9700   48.0870 C   0  0  0  0  0  0  0  0  0  0  0  0
   61.1673   31.8826   48.3223 H   0  0  0  0  0  0  0  0  0  0  0  0
   60.8970   30.2430   46.9310 C   0  0  0  0  0  0  0  0  0  0  0  0
   61.7008   30.5832   46.2616 H   0  0  0  0  0  0  0  0  0  0  0  0
   60.1730   29.0790   46.6200 C   0  0  0  0  0  0  0  0  0  0  0  0
   60.4890   28.3100   45.3660 C   0  0  0  0  0  0  0  0  0  0  0  0
   60.8945   27.3231   45.6335 H   0  0  0  0  0  0  0  0  0  0  0  0
   59.5710   28.1810   44.7739 H   0  0  0  0  0  0  0  0  0  0  0  0
   61.2325   28.8637   44.7739 H   0  0  0  0  0  0  0  0  0  0  0  0
   57.7720   27.1570   43.6720 C   0  0  0  0  0  0  0  0  0  0  0  0
   58.1231   26.1898   44.0609 H   0  0  0  0  0  0  0  0  0  0  0  0
   56.8733   27.0006   43.0573 H   0  0  0  0  0  0  0  0  0  0  0  0
   58.5618   27.6136   43.0573 H   0  0  0  0  0  0  0  0  0  0  0  0
   57.2050   31.4260   44.8470 N   0  0  0  0  0  0  0  0  0  0  0  0
   57.8080   32.5730   44.4330 C   0  0  0  0  0  0  0  0  0  0  0  0
   58.3450   33.5060   45.3930 N   0  0  0  0  0  0  0  0  0  0  0  0
   59.4330   34.4100   44.9880 C   0  0  0  0  0  0  0  0  0  0  0  0
   60.3572   33.8252   44.8705 H   0  0  0  0  0  0  0  0  0  0  0  0
   59.1462   34.8886   44.0400 H   0  0  0  0  0  0  0  0  0  0  0  0
   59.6710   35.5120   46.0270 C   0  0  0  0  0  0  0  0  0  0  0  0
   60.5711   36.0789   45.7470 H   0  0  0  0  0  0  0  0  0  0  0  0
   58.7866   36.1658   46.0455 H   0  0  0  0  0  0  0  0  0  0  0  0
   59.8670   34.9270   47.4320 C   0  0  0  0  0  0  0  0  0  0  0  0
   60.8871   34.5211   47.4996 H   0  0  0  0  0  0  0  0  0  0  0  0
   59.6912   35.7442   48.1470 H   0  0  0  0  0  0  0  0  0  0  0  0
   58.8700   33.8000   47.7820 C   0  0  0  0  0  0  0  0  0  0  0  0
   59.4263   32.8543   47.8615 H   0  0  0  0  0  0  0  0  0  0  0  0
   58.3851   34.0774   48.7296 H   0  0  0  0  0  0  0  0  0  0  0  0
   57.7600   33.6250   46.7390 C   0  0  0  0  0  0  0  0  0  0  0  0
   57.1858   32.7151   46.9679 H   0  0  0  0  0  0  0  0  0  0  0  0
   57.0975   34.5026   46.7674 H   0  0  0  0  0  0  0  0  0  0  0  0
   57.8890   32.8370   43.1020 N   0  0  0  0  0  0  0  0  0  0  0  0
  1  2  1  0
  2  3  2  0
  3  4  1  0
  4  5  2  0
  5  6  1  0
  6  7  1  0
  7  8  1  1
  7  9  1  0
  9 10  2  0
  9 11  1  0
 11 12  1  0
 12 13  2  0
 13 14  1  0
 13 15  1  0
 15 16  1  0
 15 17  2  0
 17 18  1  0
 17 19  1  0
 19 20  1  0
 19 21  2  0
 21 22  1  0
 22 23  1  0
 22 24  1  0
 22 25  1  0
  7 26  1  0
 26 27  1  0
 26 28  1  0
 26 29  1  0
  5 30  1  0
 30 31  1  0
 31 32  1  0
 32 33  1  0
 33 34  1  0
 33 35  1  0
 33 36  1  0
 36 37  1  0
 36 38  1  0
 36 39  1  0
 39 40  1  0
 39 41  1  0
 39 42  1  0
 42 43  1  0
 42 44  1  0
 42 45  1  0
 45 46  1  0
 45 47  1  0
 31 48  2  0
 48  3  1  0
 21 12  1  0
 45 32  1  0
M  CHG  2  11  -1  30  -1
M  END
>  <UniqueID>  (79) 
67

>  <SMILES>  (79) 
[H]/N=c1\nc(S[C@H](C)C(=O)[N-]c2ccccc2C)[n-]c(N2CCCCC2)n1

>  <Energy>  (79) 
53.107304304934296

>  <Genealogy>  (79) 
Cc1ccccc1[N-]C(=O)C(C)Sc1nc(=N)nc(N2CCCCC2)[n-]1 (protonated)
Cc1ccccc1[N-]C(=O)[C@@H](C)Sc1nc(=N)nc(N2CCCCC2)[n-]1 (chirality)
[H]/N=c1\nc(S[C@H](C)C(=O)[N-]c2ccccc2C)[n-]c(N2CCCCC2)n1 (cis-trans isomerization)
[H]/N=c1\nc(S[C@H](C)C(=O)[N-]c2ccccc2C)[n-]c(N2CCCCC2)n1 (3D coordinates assigned)
[H]/N=c1\nc(S[C@H](C)C(=O)[N-]c2ccccc2C)[n-]c(N2CCCCC2)n1 (nonaromatic ring conformer: 53.107304304934296 kcal/mol)

>  <smiles>  (79) 
Cc1ccccc1NC(=O)C(C)Sc1nc(=N)nc(N2CCCCC2)[nH]1

>  <score_type>  (79) 
oracle

>  <origin>  (79) 
adg

>  <m_score__min__energy>  (79) 
-12.32

>  <m_primary>  (79) 
energy

$$$$
79:0
     RDKit          3D

 50 53  0  0  0  0  0  0  0  0999 V2000
   58.6091   27.6612   47.6083 H   0  0  0  0  0  0  0  0  0  0  0  0
   59.2890   28.5090   47.4380 C   0  0  0  0  0  0  0  0  0  0  0  0
   59.4550   29.4510   48.4050 N   0  0  0  0  0  0  0  0  0  0  0  0
   60.2810   30.5190   48.2360 C   0  0  0  0  0  0  0  0  0  0  0  0
   60.4170   31.5360   49.3330 C   0  0  0  0  0  0  0  0  0  0  0  0
   60.4599   31.0179   50.3024 H   0  0  0  0  0  0  0  0  0  0  0  0
   61.3386   32.1134   49.1675 H   0  0  0  0  0  0  0  0  0  0  0  0
   59.2650   32.4670   49.3300 N   0  0  0  0  0  0  0  0  0  0  0  0
   59.6480   33.8460   49.7020 C   0  0  0  0  0  0  0  0  0  0  0  0
   58.7354   34.4226   49.9133 H   0  0  0  0  0  0  0  0  0  0  0  0
   60.2987   33.7892   50.5870 H   0  0  0  0  0  0  0  0  0  0  0  0
   60.4370   34.5560   48.5760 C   0  0  0  0  0  0  0  0  0  0  0  0
   60.0284   35.5692   48.4474 H   0  0  0  0  0  0  0  0  0  0  0  0
   61.4947   34.5738   48.8775 H   0  0  0  0  0  0  0  0  0  0  0  0
   60.3630   33.8790   47.3340 O   0  0  0  0  0  0  0  0  0  0  0  0
   59.0250   33.5260   47.0580 C   0  0  0  0  0  0  0  0  0  0  0  0
   58.3902   34.4197   47.1488 H   0  0  0  0  0  0  0  0  0  0  0  0
   58.9709   33.1200   46.0371 H   0  0  0  0  0  0  0  0  0  0  0  0
   58.5280   32.4510   48.0440 C   0  0  0  0  0  0  0  0  0  0  0  0
   57.4615   32.6271   48.2478 H   0  0  0  0  0  0  0  0  0  0  0  0
   58.6974   31.4695   47.5772 H   0  0  0  0  0  0  0  0  0  0  0  0
   60.9700   30.6790   47.0280 C   0  0  0  0  0  0  0  0  0  0  0  0
   61.6306   31.5452   46.8756 H   0  0  0  0  0  0  0  0  0  0  0  0
   60.8100   29.7280   46.0190 C   0  0  0  0  0  0  0  0  0  0  0  0
   61.3352   29.8529   45.0606 H   0  0  0  0  0  0  0  0  0  0  0  0
   59.9850   28.6170   46.2210 C   0  0  0  0  0  0  0  0  0  0  0  0
   59.8450   27.6600   45.1610 N   0  0  0  0  0  0  0  0  0  0  0  0
   58.6540   27.3480   44.4270 C   0  0  0  0  0  0  0  0  0  0  0  0
   58.5020   27.7450   43.2400 O   0  0  0  0  0  0  0  0  0  0  0  0
   57.5910   26.5450   45.0620 C   0  0  0  0  0  0  0  0  0  0  0  0
   57.8890   25.2000   45.3380 C   0  0  0  0  0  0  0  0  0  0  0  0
   58.7971   24.7452   44.9154 H   0  0  0  0  0  0  0  0  0  0  0  0
   57.0450   24.4370   46.1420 C   0  0  0  0  0  0  0  0  0  0  0  0
   57.2771   23.3818   46.3486 H   0  0  0  0  0  0  0  0  0  0  0  0
   55.9060   25.0250   46.6800 C   0  0  0  0  0  0  0  0  0  0  0  0
   55.2563   24.4485   47.3550 H   0  0  0  0  0  0  0  0  0  0  0  0
   55.5950   26.3100   46.3730 N   0  0  0  0  0  0  0  0  0  0  0  0
   56.3630   27.0830   45.5570 C   0  0  0  0  0  0  0  0  0  0  0  0
   55.9010   28.2690   45.2580 N   0  0  0  0  0  0  0  0  0  0  0  0
   56.5520   29.3730   44.6130 C   0  0  0  0  0  0  0  0  0  0  0  0
   57.4000   30.2000   45.3600 C   0  0  0  0  0  0  0  0  0  0  0  0
   57.5846   29.9796   46.4218 H   0  0  0  0  0  0  0  0  0  0  0  0
   58.0130   31.3050   44.7610 C   0  0  0  0  0  0  0  0  0  0  0  0
   58.6971   31.9378   45.3454 H   0  0  0  0  0  0  0  0  0  0  0  0
   57.7570   31.6060   43.4200 C   0  0  0  0  0  0  0  0  0  0  0  0
   58.2501   32.4673   42.9456 H   0  0  0  0  0  0  0  0  0  0  0  0
   56.8740   30.8120   42.6820 C   0  0  0  0  0  0  0  0  0  0  0  0
   56.6636   31.0554   41.6301 H   0  0  0  0  0  0  0  0  0  0  0  0
   56.2580   29.7080   43.2810 C   0  0  0  0  0  0  0  0  0  0  0  0
   55.5419   29.1010   42.7076 H   0  0  0  0  0  0  0  0  0  0  0  0
  1  2  1  0
  2  3  2  0
  3  4  1  0
  4  5  1  0
  5  6  1  0
  5  7  1  0
  5  8  1  0
  8  9  1  0
  9 10  1  0
  9 11  1  0
  9 12  1  0
 12 13  1  0
 12 14  1  0
 12 15  1  0
 15 16  1  0
 16 17  1  0
 16 18  1  0
 16 19  1  0
 19 20  1  0
 19 21  1  0
  4 22  2  0
 22 23  1  0
 22 24  1  0
 24 25  1  0
 24 26  2  0
 26 27  1  0
 27 28  1  0
 28 29  2  0
 28 30  1  0
 30 31  2  0
 31 32  1  0
 31 33  1  0
 33 34  1  0
 33 35  2  0
 35 36  1  0
 35 37  1  0
 37 38  1  0
 38 39  2  0
 39 40  1  0
 40 41  2  0
 41 42  1  0
 41 43  1  0
 43 44  1  0
 43 45  2  0
 45 46  1  0
 45 47  1  0
 47 48  1  0
 47 49  2  0
 49 50  1  0
 26  2  1  0
 38 30  1  0
 49 40  1  0
 19  8  1  0
M  CHG  2  27  -1  37  -1
M  END
>  <UniqueID>  (80) 
68

>  <SMILES>  (80) 
O=C([N-]c1ccc(CN2CCOCC2)nc1)c1ccc[n-]/c1=N/c1ccccc1

>  <Energy>  (80) 
89.67005645706539

>  <Genealogy>  (80) 
O=C([N-]c1ccc(CN2CCOCC2)nc1)c1ccc[n-]c1=Nc1ccccc1 (protonated)
O=C([N-]c1ccc(CN2CCOCC2)nc1)c1ccc[n-]/c1=N/c1ccccc1 (cis-trans isomerization)
O=C([N-]c1ccc(CN2CCOCC2)nc1)c1ccc[n-]/c1=N/c1ccccc1 (3D coordinates assigned)
O=C([N-]c1ccc(CN2CCOCC2)nc1)c1ccc[n-]/c1=N/c1ccccc1 (nonaromatic ring conformer: 89.67005645706539 kcal/mol)

>  <smiles>  (80) 
O=C(Nc1ccc(CN2CCOCC2)nc1)c1ccc[nH]c1=Nc1ccccc1

>  <score_type>  (80) 
oracle

>  <origin>  (80) 
adg

>  <m_score__min__energy>  (80) 
-11.59

>  <m_primary>  (80) 
energy

$$$$
80:0
     RDKit          3D

 33 35  0  0  0  0  0  0  0  0999 V2000
   54.3510   29.7710   44.0830 H   0  0  0  0  0  0  0  0  0  0  0  0
   55.1990   29.2760   44.4420 N   0  0  0  0  0  0  0  0  0  0  0  0
   56.2350   29.9250   44.8680 C   0  0  0  0  0  0  0  0  0  0  0  0
   56.2760   31.2820   44.7240 N   0  0  0  0  0  0  0  0  0  0  0  0
   57.3650   31.9710   45.1320 C   0  0  0  0  0  0  0  0  0  0  0  0
   57.6020   33.6280   45.0570 S   0  0  0  0  0  0  0  0  0  0  0  0
   59.1360   33.4900   45.7670 C   0  0  0  0  0  0  0  0  0  0  0  0
   60.0100   34.6500   46.1160 C   0  0  0  0  0  0  0  0  0  0  0  0
   60.4204   35.0876   45.1940 H   0  0  0  0  0  0  0  0  0  0  0  0
   59.4143   35.4031   46.6526 H   0  0  0  0  0  0  0  0  0  0  0  0
   61.1400   34.1940   46.9970 C   0  0  0  0  0  0  0  0  0  0  0  0
   60.9480   34.0620   48.3830 C   0  0  0  0  0  0  0  0  0  0  0  0
   59.9765   34.3211   48.8292 H   0  0  0  0  0  0  0  0  0  0  0  0
   61.9890   33.6020   49.1970 C   0  0  0  0  0  0  0  0  0  0  0  0
   61.8369   33.5078   50.2823 H   0  0  0  0  0  0  0  0  0  0  0  0
   63.2220   33.2620   48.6330 C   0  0  0  0  0  0  0  0  0  0  0  0
   64.0401   32.9025   49.2745 H   0  0  0  0  0  0  0  0  0  0  0  0
   63.4150   33.3790   47.2540 C   0  0  0  0  0  0  0  0  0  0  0  0
   64.3850   33.1097   46.8107 H   0  0  0  0  0  0  0  0  0  0  0  0
   62.3770   33.8380   46.4360 C   0  0  0  0  0  0  0  0  0  0  0  0
   62.5304   33.9203   45.3499 H   0  0  0  0  0  0  0  0  0  0  0  0
   59.4520   32.2060   46.0740 N   0  0  0  0  0  0  0  0  0  0  0  0
   58.4570   31.3590   45.7060 C   0  0  0  0  0  0  0  0  0  0  0  0
   58.4670   29.9720   45.8910 C   0  0  0  0  0  0  0  0  0  0  0  0
   59.5820   29.3460   46.5450 N   0  0  0  0  0  0  0  0  0  0  0  0
   59.6040   28.3220   46.7410 H   0  0  0  0  0  0  0  0  0  0  0  0
   60.3780   29.9150   46.9060 H   0  0  0  0  0  0  0  0  0  0  0  0
   57.3330   29.2310   45.4560 C   0  0  0  0  0  0  0  0  0  0  0  0
   57.2990   27.7550   45.5770 C   0  0  0  0  0  0  0  0  0  0  0  0
   58.3770   27.1050   45.6390 O   0  0  0  0  0  0  0  0  0  0  0  0
   56.0540   27.0540   45.6140 N   0  0  0  0  0  0  0  0  0  0  0  0
   56.0390   26.0120   45.6690 H   0  0  0  0  0  0  0  0  0  0  0  0
   55.1480   27.5740   45.6300 H   0  0  0  0  0  0  0  0  0  0  0  0
  1  2  1  0
  2  3  2  0
  3  4  1  0
  4  5  1  0
  5  6  1  0
  6  7  1  0
  7  8  1  0
  8  9  1  0
  8 10  1  0
  8 11  1  0
 11 12  2  0
 12 13  1  0
 12 14  1  0
 14 15  1  0
 14 16  2  0
 16 17  1  0
 16 18  1  0
 18 19  1  0
 18 20  2  0
 20 21  1  0
  7 22  2  0
 22 23  1  0
 23 24  1  0
 24 25  1  0
 25 26  1  0
 25 27  1  0
 24 28  2  0
 28 29  1  0
 29 30  2  0
 29 31  1  0
 31 32  1  0
 31 33  1  0
 28  3  1  0
 23  5  2  0
 20 11  1  0
M  CHG  1   4  -1
M  END
>  <UniqueID>  (81) 
69

>  <SMILES>  (81) 
[H]/N=c1\[n-]c2sc(Cc3ccccc3)nc2c(N)c1C(N)=O

>  <Energy>  (81) 
75.76507119241828

>  <Genealogy>  (81) 
N=c1[n-]c2sc(Cc3ccccc3)nc2c(N)c1C(N)=O (protonated)
[H]/N=c1\[n-]c2sc(Cc3ccccc3)nc2c(N)c1C(N)=O (cis-trans isomerization)
[H]/N=c1\[n-]c2sc(Cc3ccccc3)nc2c(N)c1C(N)=O (3D coordinates assigned)
[H]/N=c1\[n-]c2sc(Cc3ccccc3)nc2c(N)c1C(N)=O (optimized conformer: 75.76507119241828 kcal/mol)

>  <smiles>  (81) 
N=c1[nH]c2sc(Cc3ccccc3)nc2c(N)c1C(N)=O

>  <score_type>  (81) 
oracle

>  <origin>  (81) 
adg

>  <m_score__min__energy>  (81) 
-9.6999999999999993

>  <m_primary>  (81) 
energy

$$$$
81:0
     RDKit          3D

 37 38  0  0  0  0  0  0  0  0999 V2000
   57.7710   22.4610   47.5610 H   0  0  0  0  0  0  0  0  0  0  0  0
   57.9820   22.9630   46.7080 O   0  0  0  0  0  0  0  0  0  0  0  0
   57.6080   24.2960   46.5310 C   0  0  0  0  0  0  0  0  0  0  0  0
   58.5720   25.3080   46.6130 C   0  0  0  0  0  0  0  0  0  0  0  0
   59.6227   25.0458   46.8060 H   0  0  0  0  0  0  0  0  0  0  0  0
   58.2090   26.6550   46.4510 C   0  0  0  0  0  0  0  0  0  0  0  0
   59.2160   27.7360   46.5210 C   0  0  0  0  0  0  0  0  0  0  0  0
   60.2326   27.4639   46.8413 H   0  0  0  0  0  0  0  0  0  0  0  0
   58.9830   29.0250   46.2230 C   0  0  0  0  0  0  0  0  0  0  0  0
   59.4894   29.7843   46.8370 H   0  0  0  0  0  0  0  0  0  0  0  0
   58.1030   29.5070   45.1390 C   0  0  0  0  0  0  0  0  0  0  0  0
   57.4330   30.6790   45.3130 N   0  0  0  0  0  0  0  0  0  0  0  0
   56.5870   31.1730   44.3700 C   0  0  0  0  0  0  0  0  0  0  0  0
   56.0722   32.1300   44.5410 H   0  0  0  0  0  0  0  0  0  0  0  0
   56.3710   30.4670   43.1850 C   0  0  0  0  0  0  0  0  0  0  0  0
   55.6966   30.8677   42.4139 H   0  0  0  0  0  0  0  0  0  0  0  0
   57.0200   29.2480   42.9900 C   0  0  0  0  0  0  0  0  0  0  0  0
   56.8530   28.6767   42.0649 H   0  0  0  0  0  0  0  0  0  0  0  0
   57.8820   28.7540   43.9710 C   0  0  0  0  0  0  0  0  0  0  0  0
   58.3838   27.7850   43.8321 H   0  0  0  0  0  0  0  0  0  0  0  0
   56.8590   26.9840   46.2800 C   0  0  0  0  0  0  0  0  0  0  0  0
   56.5583   28.0402   46.2168 H   0  0  0  0  0  0  0  0  0  0  0  0
   55.8900   25.9800   46.1890 C   0  0  0  0  0  0  0  0  0  0  0  0
   54.5600   26.3360   45.9910 O   0  0  0  0  0  0  0  0  0  0  0  0
   56.2620   24.6280   46.2790 C   0  0  0  0  0  0  0  0  0  0  0  0
   55.2280   23.5790   46.1590 C   0  0  0  0  0  0  0  0  0  0  0  0
   54.4835   23.5014   46.9651 H   0  0  0  0  0  0  0  0  0  0  0  0
   55.1320   22.7140   45.1370 C   0  0  0  0  0  0  0  0  0  0  0  0
   54.2556   22.0495   45.1183 H   0  0  0  0  0  0  0  0  0  0  0  0
   56.1110   22.5810   44.0310 C   0  0  0  0  0  0  0  0  0  0  0  0
   56.7130   21.4050   43.8380 C   0  0  0  0  0  0  0  0  0  0  0  0
   56.5104   20.5651   44.5188 H   0  0  0  0  0  0  0  0  0  0  0  0
   57.4116   21.2760   42.9982 H   0  0  0  0  0  0  0  0  0  0  0  0
   56.4010   23.7200   43.0880 C   0  0  0  0  0  0  0  0  0  0  0  0
   56.6317   24.6261   43.6675 H   0  0  0  0  0  0  0  0  0  0  0  0
   57.2619   23.4611   42.4541 H   0  0  0  0  0  0  0  0  0  0  0  0
   55.5211   23.9043   42.4541 H   0  0  0  0  0  0  0  0  0  0  0  0
  1  2  1  0
  2  3  1  0
  3  4  2  0
  4  5  1  0
  4  6  1  0
  6  7  1  0
  7  8  1  0
  7  9  2  0
  9 10  1  0
  9 11  1  0
 11 12  2  0
 12 13  1  0
 13 14  1  0
 13 15  2  0
 15 16  1  0
 15 17  1  0
 17 18  1  0
 17 19  2  0
 19 20  1  0
  6 21  2  0
 21 22  1  0
 21 23  1  0
 23 24  1  0
 23 25  2  0
 25 26  1  0
 26 27  1  0
 26 28  2  3
 28 29  1  0
 28 30  1  0
 30 31  2  0
 31 32  1  0
 31 33  1  0
 30 34  1  0
 34 35  1  0
 34 36  1  0
 34 37  1  0
 25  3  1  0
 19 11  1  0
M  CHG  1  24  -1
M  END
>  <UniqueID>  (82) 
70

>  <SMILES>  (82) 
C=C(C)C=Cc1c([O-])cc(/C=C\c2ccccn2)cc1O

>  <Energy>  (82) 
54.72147004744818

>  <Genealogy>  (82) 
C=C(C)C=Cc1c([O-])cc(C=Cc2ccccn2)cc1O (protonated)
C=C(C)C=Cc1c([O-])cc(/C=C\c2ccccn2)cc1O (cis-trans isomerization)
C=C(C)C=Cc1c([O-])cc(/C=C\c2ccccn2)cc1O (3D coordinates assigned)
C=C(C)C=Cc1c([O-])cc(/C=C\c2ccccn2)cc1O (optimized conformer: 54.72147004744818 kcal/mol)

>  <smiles>  (82) 
C=C(C)C=Cc1c(O)cc(C=Cc2ccccn2)cc1O

>  <score_type>  (82) 
oracle

>  <origin>  (82) 
adg

>  <m_score__min__energy>  (82) 
-10.720000000000001

>  <m_primary>  (82) 
energy

$$$$
82:0
     RDKit          3D

 27 29  0  0  0  0  0  0  0  0999 V2000
   54.9480   28.9690   44.4750 O   0  0  0  0  0  0  0  0  0  0  0  0
   56.0700   29.6790   44.8870 C   0  0  0  0  0  0  0  0  0  0  0  0
   57.0320   29.0630   45.6910 C   0  0  0  0  0  0  0  0  0  0  0  0
   58.1610   29.7750   46.1060 C   0  0  0  0  0  0  0  0  0  0  0  0
   58.3410   31.1160   45.7180 C   0  0  0  0  0  0  0  0  0  0  0  0
   59.5400   31.8760   46.1570 C   0  0  0  0  0  0  0  0  0  0  0  0
   59.6630   33.2470   45.8630 C   0  0  0  0  0  0  0  0  0  0  0  0
   60.7900   33.9650   46.2730 C   0  0  0  0  0  0  0  0  0  0  0  0
   61.8110   33.3230   46.9840 C   0  0  0  0  0  0  0  0  0  0  0  0
   62.9520   34.0190   47.4090 C   0  0  0  0  0  0  0  0  0  0  0  0
   63.9500   33.3470   48.1180 C   0  0  0  0  0  0  0  0  0  0  0  0
   63.7980   31.9860   48.3950 C   0  0  0  0  0  0  0  0  0  0  0  0
   62.6870   31.3220   47.9770 N   0  0  0  0  0  0  0  0  0  0  0  0
   61.6980   31.9490   47.2840 C   0  0  0  0  0  0  0  0  0  0  0  0
   60.5690   31.2330   46.8720 C   0  0  0  0  0  0  0  0  0  0  0  0
   57.3650   31.7260   44.9060 C   0  0  0  0  0  0  0  0  0  0  0  0
   56.2370   31.0100   44.4940 C   0  0  0  0  0  0  0  0  0  0  0  0
   56.9007   28.0150   45.9983 H   0  0  0  0  0  0  0  0  0  0  0  0
   58.9139   29.2840   46.7401 H   0  0  0  0  0  0  0  0  0  0  0  0
   58.8646   33.7583   45.3052 H   0  0  0  0  0  0  0  0  0  0  0  0
   60.8748   35.0360   46.0367 H   0  0  0  0  0  0  0  0  0  0  0  0
   63.0604   35.0904   47.1847 H   0  0  0  0  0  0  0  0  0  0  0  0
   64.8483   33.8847   48.4556 H   0  0  0  0  0  0  0  0  0  0  0  0
   64.5796   31.4496   48.9531 H   0  0  0  0  0  0  0  0  0  0  0  0
   60.4845   30.1619   47.1078 H   0  0  0  0  0  0  0  0  0  0  0  0
   57.4912   32.7732   44.5938 H   0  0  0  0  0  0  0  0  0  0  0  0
   55.4801   31.4947   43.8598 H   0  0  0  0  0  0  0  0  0  0  0  0
  1  2  1  0
  2  3  2  0
  3  4  1  0
  4  5  2  0
  5  6  1  0
  6  7  2  0
  7  8  1  0
  8  9  2  0
  9 10  1  0
 10 11  2  0
 11 12  1  0
 12 13  2  0
 13 14  1  0
 14 15  2  0
  5 16  1  0
 16 17  2  0
 17  2  1  0
 15  6  1  0
 14  9  1  0
  3 18  1  0
  4 19  1  0
  7 20  1  0
  8 21  1  0
 10 22  1  0
 11 23  1  0
 12 24  1  0
 15 25  1  0
 16 26  1  0
 17 27  1  0
M  CHG  1   1  -1
M  END
>  <UniqueID>  (83) 
71

>  <SMILES>  (83) 
[O-]c1ccc(-c2ccc3cccnc3c2)cc1

>  <Energy>  (83) 
38.657938664208615

>  <Genealogy>  (83) 
[O-]c1ccc(-c2ccc3cccnc3c2)cc1 (protonated)
[O-]c1ccc(-c2ccc3cccnc3c2)cc1 (3D coordinates assigned)
[O-]c1ccc(-c2ccc3cccnc3c2)cc1 (optimized conformer: 38.657938664208615 kcal/mol)

>  <smiles>  (83) 
Oc1ccc(-c2ccc3cccnc3c2)cc1

>  <score_type>  (83) 
oracle

>  <origin>  (83) 
adg

>  <m_score__min__energy>  (83) 
-9.4600000000000009

>  <m_primary>  (83) 
energy

$$$$
83:0
     RDKit          3D

 39 41  0  0  0  0  0  0  0  0999 V2000
   58.3815   34.2082   43.1795 H   0  0  0  0  0  0  0  0  0  0  0  0
   58.4740   33.6240   44.1070 C   0  0  0  0  0  0  0  0  0  0  0  0
   58.9370   34.2370   45.2740 C   0  0  0  0  0  0  0  0  0  0  0  0
   59.2105   35.3024   45.2639 H   0  0  0  0  0  0  0  0  0  0  0  0
   59.0530   33.4970   46.4550 C   0  0  0  0  0  0  0  0  0  0  0  0
   59.6380   34.2670   47.9190 Cl  0  0  0  0  0  0  0  0  0  0  0  0
   58.7070   32.1400   46.4670 C   0  0  0  0  0  0  0  0  0  0  0  0
   58.7995   31.5597   47.3969 H   0  0  0  0  0  0  0  0  0  0  0  0
   58.2420   31.5160   45.2960 C   0  0  0  0  0  0  0  0  0  0  0  0
   57.8820   30.1210   45.3010 N   0  0  0  0  0  0  0  0  0  0  0  0
   57.8780   29.3690   46.5600 C   0  0  0  0  0  0  0  0  0  0  0  0
   56.8510   29.3174   46.9506 H   0  0  0  0  0  0  0  0  0  0  0  0
   58.5278   29.8777   47.2873 H   0  0  0  0  0  0  0  0  0  0  0  0
   58.4010   27.9540   46.3230 C   0  0  0  0  0  0  0  0  0  0  0  0
   58.2219   27.3450   47.2214 H   0  0  0  0  0  0  0  0  0  0  0  0
   59.4792   28.0004   46.1101 H   0  0  0  0  0  0  0  0  0  0  0  0
   57.7110   27.3440   45.1770 N   0  0  0  0  0  0  0  0  0  0  0  0
   57.4460   25.9270   45.1710 C   0  0  0  0  0  0  0  0  0  0  0  0
   56.6970   25.2420   46.4650 S   0  0  0  0  0  0  0  0  0  0  0  0
   57.4770   25.2100   43.9270 N   0  0  0  0  0  0  0  0  0  0  0  0
   57.4250   23.9170   43.7650 C   0  0  0  0  0  0  0  0  0  0  0  0
   58.2090   23.1030   44.5960 C   0  0  0  0  0  0  0  0  0  0  0  0
   59.0170   23.6520   45.5390 F   0  0  0  0  0  0  0  0  0  0  0  0
   58.1680   21.7160   44.4430 C   0  0  0  0  0  0  0  0  0  0  0  0
   58.7861   21.0719   45.0858 H   0  0  0  0  0  0  0  0  0  0  0  0
   57.3430   21.1500   43.4750 C   0  0  0  0  0  0  0  0  0  0  0  0
   57.3119   20.0587   43.3406 H   0  0  0  0  0  0  0  0  0  0  0  0
   56.5560   21.9810   42.6770 C   0  0  0  0  0  0  0  0  0  0  0  0
   55.8948   21.5419   41.9154 H   0  0  0  0  0  0  0  0  0  0  0  0
   56.6020   23.3330   42.8360 N   0  0  0  0  0  0  0  0  0  0  0  0
   55.9620   23.9050   42.2430 H   0  0  0  0  0  0  0  0  0  0  0  0
   57.6970   28.0970   43.9150 C   0  0  0  0  0  0  0  0  0  0  0  0
   57.0301   27.5930   43.2000 H   0  0  0  0  0  0  0  0  0  0  0  0
   58.7204   28.1387   43.5140 H   0  0  0  0  0  0  0  0  0  0  0  0
   57.1980   29.5250   44.1490 C   0  0  0  0  0  0  0  0  0  0  0  0
   56.1151   29.5040   44.3410 H   0  0  0  0  0  0  0  0  0  0  0  0
   57.4107   30.1293   43.2548 H   0  0  0  0  0  0  0  0  0  0  0  0
   58.1280   32.2690   44.1160 C   0  0  0  0  0  0  0  0  0  0  0  0
   57.7648   31.7907   43.1944 H   0  0  0  0  0  0  0  0  0  0  0  0
  1  2  1  0
  2  3  2  0
  3  4  1  0
  3  5  1  0
  5  6  1  0
  5  7  2  0
  7  8  1  0
  7  9  1  0
  9 10  1  0
 10 11  1  0
 11 12  1  0
 11 13  1  0
 11 14  1  0
 14 15  1  0
 14 16  1  0
 14 17  1  0
 17 18  1  0
 18 19  2  0
 18 20  1  0
 20 21  2  0
 21 22  1  0
 22 23  1  0
 22 24  2  0
 24 25  1  0
 24 26  1  0
 26 27  1  0
 26 28  2  0
 28 29  1  0
 28 30  1  0
 30 31  1  0
 17 32  1  0
 32 33  1  0
 32 34  1  0
 32 35  1  0
 35 36  1  0
 35 37  1  0
  9 38  2  0
 38 39  1  0
 38  2  1  0
 35 10  1  0
 30 21  1  0
M  END
>  <UniqueID>  (84) 
72

>  <SMILES>  (84) 
Fc1ccc[nH]/c1=N\C(=S)N1CCN(c2cccc(Cl)c2)CC1

>  <Energy>  (84) 
55.25282048046523

>  <Genealogy>  (84) 
Fc1ccc[nH]/c1=N\C(=S)N1CCN(c2cccc(Cl)c2)CC1 (cis-trans isomerization)
Fc1ccc[nH]/c1=N\C(=S)N1CCN(c2cccc(Cl)c2)CC1 (3D coordinates assigned)
Fc1ccc[nH]/c1=N\C(=S)N1CCN(c2cccc(Cl)c2)CC1 (nonaromatic ring conformer: 55.25282048046523 kcal/mol)

>  <smiles>  (84) 
Fc1ccc[nH]c1=NC(=S)N1CCN(c2cccc(Cl)c2)CC1

>  <score_type>  (84) 
oracle

>  <origin>  (84) 
adg

>  <m_score__min__energy>  (84) 
-7.5

>  <m_primary>  (84) 
energy

$$$$
84:0
     RDKit          3D

 49 52  0  0  0  0  0  0  0  0999 V2000
   61.8480   34.1760   50.9780 O   0  0  0  0  0  0  0  0  0  0  0  0
   61.0250   33.3740   50.4660 C   0  0  0  0  0  0  0  0  0  0  0  0
   59.6860   33.8880   50.0270 C   0  0  0  0  0  0  0  0  0  0  0  0
   59.8450   34.7080   48.8740 O   0  0  0  0  0  0  0  0  0  0  0  0
   59.4430   34.3410   47.5810 C   0  0  0  0  0  0  0  0  0  0  0  0
   59.6140   35.1880   46.4690 C   0  0  0  0  0  0  0  0  0  0  0  0
   59.2020   34.7810   45.1970 C   0  0  0  0  0  0  0  0  0  0  0  0
   58.6120   33.5210   45.0160 C   0  0  0  0  0  0  0  0  0  0  0  0
   58.1970   33.1000   43.7430 C   0  0  0  0  0  0  0  0  0  0  0  0
   57.6070   31.8450   43.5760 C   0  0  0  0  0  0  0  0  0  0  0  0
   57.4270   31.0010   44.6760 C   0  0  0  0  0  0  0  0  0  0  0  0
   57.8400   31.4060   45.9490 C   0  0  0  0  0  0  0  0  0  0  0  0
   58.4330   32.6660   46.1290 C   0  0  0  0  0  0  0  0  0  0  0  0
   58.8530   33.0840   47.4020 C   0  0  0  0  0  0  0  0  0  0  0  0
   61.4170   32.0090   50.2660 N   0  0  0  0  0  0  0  0  0  0  0  0
   61.1650   31.2180   49.0960 C   0  0  0  0  0  0  0  0  0  0  0  0
   61.6610   31.6540   47.8630 C   0  0  0  0  0  0  0  0  0  0  0  0
   61.4500   30.8970   46.7080 C   0  0  0  0  0  0  0  0  0  0  0  0
   60.7570   29.6730   46.7720 C   0  0  0  0  0  0  0  0  0  0  0  0
   60.5230   28.8740   45.5460 C   0  0  0  0  0  0  0  0  0  0  0  0
   61.4980   28.5420   44.8190 O   0  0  0  0  0  0  0  0  0  0  0  0
   59.1860   28.5270   45.1610 N   0  0  0  0  0  0  0  0  0  0  0  0
   58.3740   27.4720   45.6990 C   0  0  0  0  0  0  0  0  0  0  0  0
   58.9280   26.3650   46.3700 C   0  0  0  0  0  0  0  0  0  0  0  0
   58.0960   25.3670   46.8850 C   0  0  0  0  0  0  0  0  0  0  0  0
   56.7050   25.4670   46.7560 C   0  0  0  0  0  0  0  0  0  0  0  0
   55.8990   24.4540   47.2740 O   0  0  0  0  0  0  0  0  0  0  0  0
   56.1480   26.5850   46.1130 C   0  0  0  0  0  0  0  0  0  0  0  0
   54.7690   26.7110   45.9850 O   0  0  0  0  0  0  0  0  0  0  0  0
   56.9810   27.5830   45.5960 C   0  0  0  0  0  0  0  0  0  0  0  0
   60.2890   29.2240   48.0210 C   0  0  0  0  0  0  0  0  0  0  0  0
   60.4970   29.9870   49.1730 C   0  0  0  0  0  0  0  0  0  0  0  0
   59.0292   33.0394   49.7852 H   0  0  0  0  0  0  0  0  0  0  0  0
   59.2377   34.4804   50.8382 H   0  0  0  0  0  0  0  0  0  0  0  0
   60.0754   36.1776   46.6026 H   0  0  0  0  0  0  0  0  0  0  0  0
   59.3407   35.4505   44.3353 H   0  0  0  0  0  0  0  0  0  0  0  0
   58.3368   33.7603   42.8744 H   0  0  0  0  0  0  0  0  0  0  0  0
   57.2831   31.5198   42.5763 H   0  0  0  0  0  0  0  0  0  0  0  0
   56.9589   30.0150   44.5395 H   0  0  0  0  0  0  0  0  0  0  0  0
   57.7002   30.7366   46.8106 H   0  0  0  0  0  0  0  0  0  0  0  0
   58.7172   32.4177   48.2666 H   0  0  0  0  0  0  0  0  0  0  0  0
   62.2208   32.5990   47.8024 H   0  0  0  0  0  0  0  0  0  0  0  0
   61.8282   31.2600   45.7410 H   0  0  0  0  0  0  0  0  0  0  0  0
   60.0186   26.2854   46.4892 H   0  0  0  0  0  0  0  0  0  0  0  0
   58.5365   24.4975   47.3949 H   0  0  0  0  0  0  0  0  0  0  0  0
   54.8880   24.4910   47.2160 H   0  0  0  0  0  0  0  0  0  0  0  0
   56.5387   28.4621   45.1046 H   0  0  0  0  0  0  0  0  0  0  0  0
   59.7552   28.2647   48.0909 H   0  0  0  0  0  0  0  0  0  0  0  0
   60.1351   29.6205   50.1450 H   0  0  0  0  0  0  0  0  0  0  0  0
  1  2  2  0
  2  3  1  0
  3  4  1  0
  4  5  1  0
  5  6  2  0
  6  7  1  0
  7  8  2  0
  8  9  1  0
  9 10  2  0
 10 11  1  0
 11 12  2  0
 12 13  1  0
 13 14  2  0
  2 15  1  0
 15 16  1  0
 16 17  2  0
 17 18  1  0
 18 19  2  0
 19 20  1  0
 20 21  2  0
 20 22  1  0
 22 23  1  0
 23 24  2  0
 24 25  1  0
 25 26  2  0
 26 27  1  0
 26 28  1  0
 28 29  1  0
 28 30  2  0
 19 31  1  0
 31 32  2  0
 14  5  1  0
 32 16  1  0
 13  8  1  0
 30 23  1  0
  3 33  1  0
  3 34  1  0
  6 35  1  0
  7 36  1  0
  9 37  1  0
 10 38  1  0
 11 39  1  0
 12 40  1  0
 14 41  1  0
 17 42  1  0
 18 43  1  0
 24 44  1  0
 25 45  1  0
 27 46  1  0
 30 47  1  0
 31 48  1  0
 32 49  1  0
M  CHG  3  15  -1  22  -1  29  -1
M  END
>  <UniqueID>  (85) 
73

>  <SMILES>  (85) 
O=C(COc1ccc2ccccc2c1)[N-]c1ccc(C(=O)[N-]c2ccc(O)c([O-])c2)cc1

>  <Energy>  (85) 
64.76532931092989

>  <Genealogy>  (85) 
O=C(COc1ccc2ccccc2c1)[N-]c1ccc(C(=O)[N-]c2ccc(O)c([O-])c2)cc1 (protonated)
O=C(COc1ccc2ccccc2c1)[N-]c1ccc(C(=O)[N-]c2ccc(O)c([O-])c2)cc1 (3D coordinates assigned)
O=C(COc1ccc2ccccc2c1)[N-]c1ccc(C(=O)[N-]c2ccc(O)c([O-])c2)cc1 (optimized conformer: 64.76532931092989 kcal/mol)

>  <smiles>  (85) 
O=C(COc1ccc2ccccc2c1)Nc1ccc(C(=O)Nc2ccc(O)c(O)c2)cc1

>  <score_type>  (85) 
oracle

>  <origin>  (85) 
adg

>  <m_score__min__energy>  (85) 
-15.25

>  <m_primary>  (85) 
energy

$$$$
85:0
     RDKit          3D

 45 47  0  0  0  0  0  0  0  0999 V2000
   56.7010   30.6730   43.5430 C   0  0  0  0  0  0  0  0  0  0  0  0
   57.5670   31.2230   44.6450 C   0  0  0  0  0  0  0  0  0  0  0  0
   57.9360   32.5790   44.6070 C   0  0  0  0  0  0  0  0  0  0  0  0
   58.7750   33.1140   45.5890 C   0  0  0  0  0  0  0  0  0  0  0  0
   59.2790   34.9540   45.5160 Br  0  0  0  0  0  0  0  0  0  0  0  0
   59.2530   32.3000   46.6180 C   0  0  0  0  0  0  0  0  0  0  0  0
   58.8780   30.9560   46.6790 C   0  0  0  0  0  0  0  0  0  0  0  0
   58.0140   30.4140   45.7170 C   0  0  0  0  0  0  0  0  0  0  0  0
   57.6380   29.0320   45.8260 N   0  0  0  0  0  0  0  0  0  0  0  0
   58.2710   28.0020   45.0500 C   0  0  0  0  0  0  0  0  0  0  0  0
   58.9850   28.3200   44.0600 O   0  0  0  0  0  0  0  0  0  0  0  0
   58.0750   26.5710   45.3820 C   0  0  0  0  0  0  0  0  0  0  0  0
   56.7850   26.0160   45.4600 C   0  0  0  0  0  0  0  0  0  0  0  0
   56.6080   24.6670   45.7810 C   0  0  0  0  0  0  0  0  0  0  0  0
   57.7220   23.8470   46.0390 C   0  0  0  0  0  0  0  0  0  0  0  0
   57.6050   22.4850   46.3650 O   0  0  0  0  0  0  0  0  0  0  0  0
   58.1750   21.3990   45.6270 C   0  0  0  0  0  0  0  0  0  0  0  0
   58.5130   21.8320   44.1810 C   0  0  0  0  0  0  0  0  0  0  0  0
   57.3840   21.5150   43.1810 C   0  0  0  0  0  0  0  0  0  0  0  0
   56.0640   21.6040   43.8160 N   0  0  0  0  0  0  0  0  0  0  0  0
   55.8820   20.5850   44.8670 C   0  0  0  0  0  0  0  0  0  0  0  0
   57.1820   20.2310   45.6220 C   0  0  0  0  0  0  0  0  0  0  0  0
   59.0050   24.3990   45.9690 C   0  0  0  0  0  0  0  0  0  0  0  0
   59.1830   25.7480   45.6480 C   0  0  0  0  0  0  0  0  0  0  0  0
   55.8493   30.1321   43.9813 H   0  0  0  0  0  0  0  0  0  0  0  0
   56.3290   31.5007   42.9213 H   0  0  0  0  0  0  0  0  0  0  0  0
   57.2920   29.9844   42.9213 H   0  0  0  0  0  0  0  0  0  0  0  0
   57.5617   33.2240   43.7984 H   0  0  0  0  0  0  0  0  0  0  0  0
   59.9257   32.7178   47.3815 H   0  0  0  0  0  0  0  0  0  0  0  0
   59.2634   30.3179   47.4879 H   0  0  0  0  0  0  0  0  0  0  0  0
   56.7370   28.8100   46.3060 H   0  0  0  0  0  0  0  0  0  0  0  0
   55.9069   26.6496   45.2665 H   0  0  0  0  0  0  0  0  0  0  0  0
   55.5936   24.2447   45.8321 H   0  0  0  0  0  0  0  0  0  0  0  0
   59.1139   21.0850   46.1064 H   0  0  0  0  0  0  0  0  0  0  0  0
   58.6948   22.9168   44.1728 H   0  0  0  0  0  0  0  0  0  0  0  0
   59.4019   21.2657   43.8659 H   0  0  0  0  0  0  0  0  0  0  0  0
   57.4302   22.2339   42.3497 H   0  0  0  0  0  0  0  0  0  0  0  0
   57.5237   20.4865   42.8167 H   0  0  0  0  0  0  0  0  0  0  0  0
   55.9580   22.5580   44.2370 H   0  0  0  0  0  0  0  0  0  0  0  0
   55.1501   20.9644   45.5952 H   0  0  0  0  0  0  0  0  0  0  0  0
   55.5406   19.6663   44.3676 H   0  0  0  0  0  0  0  0  0  0  0  0
   56.9308   19.9730   46.6614 H   0  0  0  0  0  0  0  0  0  0  0  0
   57.6557   19.3824   45.1068 H   0  0  0  0  0  0  0  0  0  0  0  0
   59.8822   23.7659   46.1683 H   0  0  0  0  0  0  0  0  0  0  0  0
   60.1984   26.1688   45.6032 H   0  0  0  0  0  0  0  0  0  0  0  0
  1  2  1  0
  2  3  2  0
  3  4  1  0
  4  5  1  0
  4  6  2  0
  6  7  1  0
  7  8  2  0
  8  9  1  0
  9 10  1  0
 10 11  2  0
 10 12  1  0
 12 13  2  0
 13 14  1  0
 14 15  2  0
 15 16  1  0
 16 17  1  0
 17 18  1  0
 18 19  1  0
 19 20  1  0
 20 21  1  0
 21 22  1  0
 15 23  1  0
 23 24  2  0
  8  2  1  0
 24 12  1  0
 22 17  1  0
  1 25  1  0
  1 26  1  0
  1 27  1  0
  3 28  1  0
  6 29  1  0
  7 30  1  0
  9 31  1  0
 13 32  1  0
 14 33  1  0
 17 34  1  0
 18 35  1  0
 18 36  1  0
 19 37  1  0
 19 38  1  0
 20 39  1  0
 21 40  1  0
 21 41  1  0
 22 42  1  0
 22 43  1  0
 23 44  1  0
 24 45  1  0
M  END
>  <UniqueID>  (86) 
74

>  <SMILES>  (86) 
Cc1cc(Br)ccc1NC(=O)c1ccc(OC2CCNCC2)cc1

>  <Energy>  (86) 
58.79950382396296

>  <Genealogy>  (86) 
Cc1cc(Br)ccc1NC(=O)c1ccc(OC2CCNCC2)cc1 (3D coordinates assigned)
Cc1cc(Br)ccc1NC(=O)c1ccc(OC2CCNCC2)cc1 (nonaromatic ring conformer: 58.79950382396296 kcal/mol)

>  <smiles>  (86) 
Cc1cc(Br)ccc1NC(=O)c1ccc(OC2CCNCC2)cc1

>  <score_type>  (86) 
oracle

>  <origin>  (86) 
adg

>  <m_score__min__energy>  (86) 
-7.7599999999999998

>  <m_primary>  (86) 
energy

$$$$
86:0
     RDKit          3D

 45 48  0  0  0  0  0  0  0  0999 V2000
   64.2600   33.2040   47.5540 N   0  0  0  0  0  0  0  0  0  0  0  0
   63.0290   32.6400   48.1100 C   0  0  2  0  0  0  0  0  0  0  0  0
   63.3130   31.9860   49.4810 C   0  0  0  0  0  0  0  0  0  0  0  0
   62.2770   30.9180   49.8860 C   0  0  0  0  0  0  0  0  0  0  0  0
   60.9400   31.0850   49.1580 C   0  0  0  0  0  0  0  0  0  0  0  0
   61.1510   31.0780   47.7040 N   0  0  0  0  0  0  0  0  0  0  0  0
   60.2490   30.3690   46.8390 C   0  0  0  0  0  0  0  0  0  0  0  0
   60.6620   29.3330   46.0620 N   0  0  0  0  0  0  0  0  0  0  0  0
   59.5490   29.0020   45.3850 C   0  0  0  0  0  0  0  0  0  0  0  0
   59.4070   27.9980   44.4310 C   0  0  0  0  0  0  0  0  0  0  0  0
   58.1470   27.8420   43.8250 C   0  0  0  0  0  0  0  0  0  0  0  0
   57.0730   28.6900   44.1800 C   0  0  0  0  0  0  0  0  0  0  0  0
   57.2510   29.7000   45.1440 C   0  0  0  0  0  0  0  0  0  0  0  0
   58.5130   29.8220   45.7320 C   0  0  0  0  0  0  0  0  0  0  0  0
   58.9390   30.7000   46.6590 N   0  0  0  0  0  0  0  0  0  0  0  0
   58.1980   31.8340   47.2250 C   0  0  0  0  0  0  0  0  0  0  0  0
   58.6750   33.1550   46.6660 C   0  0  0  0  0  0  0  0  0  0  0  0
   58.6430   33.4180   45.2840 C   0  0  0  0  0  0  0  0  0  0  0  0
   59.1160   34.6370   44.7870 C   0  0  0  0  0  0  0  0  0  0  0  0
   59.6400   35.5940   45.6580 C   0  0  0  0  0  0  0  0  0  0  0  0
   59.7010   35.3320   47.0290 C   0  0  0  0  0  0  0  0  0  0  0  0
   59.2310   34.1140   47.5310 C   0  0  0  0  0  0  0  0  0  0  0  0
   62.3770   31.6470   47.1300 C   0  0  0  0  0  0  0  0  0  0  0  0
   65.0380   33.0890   48.2460 H   0  0  0  0  0  0  0  0  0  0  0  0
   64.5220   32.6580   46.7010 H   0  0  0  0  0  0  0  0  0  0  0  0
   62.3091   33.4573   48.2644 H   0  0  0  0  0  0  0  0  0  0  0  0
   64.3040   31.5103   49.4400 H   0  0  0  0  0  0  0  0  0  0  0  0
   63.2614   32.7854   50.2348 H   0  0  0  0  0  0  0  0  0  0  0  0
   62.6850   29.9243   49.6490 H   0  0  0  0  0  0  0  0  0  0  0  0
   62.0853   31.0329   50.9631 H   0  0  0  0  0  0  0  0  0  0  0  0
   60.2707   30.2563   49.4323 H   0  0  0  0  0  0  0  0  0  0  0  0
   60.4885   32.0443   49.4511 H   0  0  0  0  0  0  0  0  0  0  0  0
   60.2521   27.3481   44.1600 H   0  0  0  0  0  0  0  0  0  0  0  0
   57.9966   27.0557   43.0706 H   0  0  0  0  0  0  0  0  0  0  0  0
   56.0920   28.5597   43.6998 H   0  0  0  0  0  0  0  0  0  0  0  0
   56.4253   30.3702   45.4249 H   0  0  0  0  0  0  0  0  0  0  0  0
   57.1301   31.7135   46.9905 H   0  0  0  0  0  0  0  0  0  0  0  0
   58.3670   31.8430   48.3119 H   0  0  0  0  0  0  0  0  0  0  0  0
   58.2444   32.6619   44.5916 H   0  0  0  0  0  0  0  0  0  0  0  0
   59.0750   34.8421   43.7071 H   0  0  0  0  0  0  0  0  0  0  0  0
   60.0049   36.5544   45.2648 H   0  0  0  0  0  0  0  0  0  0  0  0
   60.1190   36.0842   47.7142 H   0  0  0  0  0  0  0  0  0  0  0  0
   59.2967   33.9051   48.6090 H   0  0  0  0  0  0  0  0  0  0  0  0
   63.0860   30.8338   46.9153 H   0  0  0  0  0  0  0  0  0  0  0  0
   62.1179   32.1828   46.2049 H   0  0  0  0  0  0  0  0  0  0  0  0
  1  2  1  0
  2  3  1  0
  3  4  1  0
  4  5  1  0
  5  6  1  0
  6  7  1  0
  7  8  2  0
  8  9  1  0
  9 10  2  0
 10 11  1  0
 11 12  2  0
 12 13  1  0
 13 14  2  0
 14 15  1  0
 15 16  1  0
 16 17  1  0
 17 18  2  0
 18 19  1  0
 19 20  2  0
 20 21  1  0
 21 22  2  0
  6 23  1  0
 23  2  1  0
 15  7  1  0
 22 17  1  0
 14  9  1  0
  1 24  1  0
  1 25  1  0
  2 26  1  1
  3 27  1  0
  3 28  1  0
  4 29  1  0
  4 30  1  0
  5 31  1  0
  5 32  1  0
 10 33  1  0
 11 34  1  0
 12 35  1  0
 13 36  1  0
 16 37  1  0
 16 38  1  0
 18 39  1  0
 19 40  1  0
 20 41  1  0
 21 42  1  0
 22 43  1  0
 23 44  1  0
 23 45  1  0
M  END
>  <UniqueID>  (87) 
75

>  <SMILES>  (87) 
N[C@@H]1CCCN(c2nc3ccccc3n2Cc2ccccc2)C1

>  <Energy>  (87) 
89.72715701194244

>  <Genealogy>  (87) 
N[C@@H]1CCCN(c2nc3ccccc3n2Cc2ccccc2)C1 (chirality)
N[C@@H]1CCCN(c2nc3ccccc3n2Cc2ccccc2)C1 (3D coordinates assigned)
N[C@@H]1CCCN(c2nc3ccccc3n2Cc2ccccc2)C1 (nonaromatic ring conformer: 89.72715701194244 kcal/mol)

>  <smiles>  (87) 
NC1CCCN(c2nc3ccccc3n2Cc2ccccc2)C1

>  <score_type>  (87) 
oracle

>  <origin>  (87) 
adg

>  <m_score__min__energy>  (87) 
-7.4299999999999997

>  <m_primary>  (87) 
energy

$$$$
87:0
     RDKit          3D

 32 34  0  0  0  0  0  0  0  0999 V2000
   59.4329   27.6540   45.3758 H   0  0  0  0  0  0  0  0  0  0  0  0
   58.3810   27.3780   45.5410 C   0  0  0  0  0  0  0  0  0  0  0  0
   57.8280   25.8920   46.1070 S   0  0  0  0  0  0  0  0  0  0  0  0
   56.2050   26.3460   46.0440 C   0  0  0  0  0  0  0  0  0  0  0  0
   55.1780   25.6100   46.3560 N   0  0  0  0  0  0  0  0  0  0  0  0
   54.7340   24.4000   45.7180 C   0  0  0  0  0  0  0  0  0  0  0  0
   53.5050   24.1210   45.6550 O   0  0  0  0  0  0  0  0  0  0  0  0
   55.7140   23.4920   45.0750 C   0  0  0  0  0  0  0  0  0  0  0  0
   55.7350   23.4040   43.6700 C   0  0  0  0  0  0  0  0  0  0  0  0
   55.0190   23.9929   43.0779 H   0  0  0  0  0  0  0  0  0  0  0  0
   56.6540   22.5780   43.0190 C   0  0  0  0  0  0  0  0  0  0  0  0
   56.6621   22.5239   41.9204 H   0  0  0  0  0  0  0  0  0  0  0  0
   57.5610   21.8220   43.7600 C   0  0  0  0  0  0  0  0  0  0  0  0
   58.2883   21.1769   43.2454 H   0  0  0  0  0  0  0  0  0  0  0  0
   57.5470   21.8830   45.1540 C   0  0  0  0  0  0  0  0  0  0  0  0
   58.2609   21.2799   45.7342 H   0  0  0  0  0  0  0  0  0  0  0  0
   56.6300   22.7070   45.8200 C   0  0  0  0  0  0  0  0  0  0  0  0
   56.6300   22.6550   47.5820 Cl  0  0  0  0  0  0  0  0  0  0  0  0
   56.0730   27.6130   45.6000 N   0  0  0  0  0  0  0  0  0  0  0  0
   55.1450   28.0730   45.4660 H   0  0  0  0  0  0  0  0  0  0  0  0
   57.2730   28.2010   45.3170 C   0  0  0  0  0  0  0  0  0  0  0  0
   57.3800   29.5930   44.8180 C   0  0  0  0  0  0  0  0  0  0  0  0
   57.0270   29.9060   43.4910 C   0  0  0  0  0  0  0  0  0  0  0  0
   56.6698   29.1114   42.8194 H   0  0  0  0  0  0  0  0  0  0  0  0
   57.1270   31.2180   43.0210 C   0  0  0  0  0  0  0  0  0  0  0  0
   56.8465   31.4519   41.9834 H   0  0  0  0  0  0  0  0  0  0  0  0
   57.5820   32.2330   43.8650 C   0  0  0  0  0  0  0  0  0  0  0  0
   57.6615   33.2645   43.4913 H   0  0  0  0  0  0  0  0  0  0  0  0
   57.9360   31.9390   45.1830 C   0  0  0  0  0  0  0  0  0  0  0  0
   58.5640   33.3270   46.3360 Br  0  0  0  0  0  0  0  0  0  0  0  0
   57.8360   30.6260   45.6600 C   0  0  0  0  0  0  0  0  0  0  0  0
   58.1155   30.3999   46.6996 H   0  0  0  0  0  0  0  0  0  0  0  0
  1  2  1  0
  2  3  1  0
  3  4  1  0
  4  5  2  0
  5  6  1  0
  6  7  2  0
  6  8  1  0
  8  9  2  0
  9 10  1  0
  9 11  1  0
 11 12  1  0
 11 13  2  0
 13 14  1  0
 13 15  1  0
 15 16  1  0
 15 17  2  0
 17 18  1  0
  4 19  1  0
 19 20  1  0
 19 21  1  0
 21 22  1  0
 22 23  2  0
 23 24  1  0
 23 25  1  0
 25 26  1  0
 25 27  2  0
 27 28  1  0
 27 29  1  0
 29 30  1  0
 29 31  2  0
 31 32  1  0
 21  2  2  0
 31 22  1  0
 17  8  1  0
M  END
>  <UniqueID>  (88) 
76

>  <SMILES>  (88) 
O=C(/N=c1/[nH]c(-c2cccc(Br)c2)cs1)c1ccccc1Cl

>  <Energy>  (88) 
76.39458162911622

>  <Genealogy>  (88) 
O=C(/N=c1/[nH]c(-c2cccc(Br)c2)cs1)c1ccccc1Cl (cis-trans isomerization)
O=C(/N=c1/[nH]c(-c2cccc(Br)c2)cs1)c1ccccc1Cl (3D coordinates assigned)
O=C(/N=c1/[nH]c(-c2cccc(Br)c2)cs1)c1ccccc1Cl (optimized conformer: 76.39458162911622 kcal/mol)

>  <smiles>  (88) 
O=C(N=c1[nH]c(-c2cccc(Br)c2)cs1)c1ccccc1Cl

>  <score_type>  (88) 
oracle

>  <origin>  (88) 
adg

>  <m_score__min__energy>  (88) 
-8.7899999999999991

>  <m_primary>  (88) 
energy

$$$$
88:0
     RDKit          3D

 41 42  0  0  0  0  0  0  0  0999 V2000
   59.6440   34.5220   48.7450 C   0  0  0  0  0  0  0  0  0  0  0  0
   59.1020   34.8290   47.3440 C   0  0  0  0  0  0  0  0  0  0  0  0
   59.5220   33.7960   46.2490 C   0  0  2  0  0  0  0  0  0  0  0  0
   59.5530   34.5250   44.8780 C   0  0  0  0  0  0  0  0  0  0  0  0
   58.4400   32.7280   46.1740 C   0  0  0  0  0  0  0  0  0  0  0  0
   57.4020   32.8140   46.8870 O   0  0  0  0  0  0  0  0  0  0  0  0
   58.5740   31.6530   45.2310 N   0  0  0  0  0  0  0  0  0  0  0  0
   58.0430   30.3260   45.3630 C   0  0  0  0  0  0  0  0  0  0  0  0
   58.7730   29.3810   46.0960 C   0  0  0  0  0  0  0  0  0  0  0  0
   58.2760   28.0880   46.2810 C   0  0  0  0  0  0  0  0  0  0  0  0
   57.0330   27.7280   45.7410 C   0  0  0  0  0  0  0  0  0  0  0  0
   56.3860   26.1080   45.9830 S   0  0  0  0  0  0  0  0  0  0  0  0
   54.6600   26.1670   45.9240 N   0  0  0  0  0  0  0  0  0  0  0  0
   56.8200   25.5700   47.3170 O   0  0  0  0  0  0  0  0  0  0  0  0
   56.8990   25.1970   44.9040 O   0  0  0  0  0  0  0  0  0  0  0  0
   56.2870   28.6770   45.0300 C   0  0  0  0  0  0  0  0  0  0  0  0
   56.7840   29.9710   44.8470 C   0  0  0  0  0  0  0  0  0  0  0  0
   60.8840   33.1350   46.5880 C   0  0  0  0  0  0  0  0  0  0  0  0
   60.9800   31.8340   47.1340 C   0  0  0  0  0  0  0  0  0  0  0  0
   62.2290   31.2960   47.4550 C   0  0  0  0  0  0  0  0  0  0  0  0
   63.3570   32.0260   47.2680 N   0  0  0  0  0  0  0  0  0  0  0  0
   63.3100   33.2900   46.7750 C   0  0  0  0  0  0  0  0  0  0  0  0
   62.0840   33.8680   46.4410 C   0  0  0  0  0  0  0  0  0  0  0  0
   58.9491   34.9156   49.5014 H   0  0  0  0  0  0  0  0  0  0  0  0
   59.7432   33.4336   48.8694 H   0  0  0  0  0  0  0  0  0  0  0  0
   60.6285   34.9965   48.8694 H   0  0  0  0  0  0  0  0  0  0  0  0
   58.0034   34.8473   47.3965 H   0  0  0  0  0  0  0  0  0  0  0  0
   59.5331   35.7960   47.0454 H   0  0  0  0  0  0  0  0  0  0  0  0
   59.5992   35.6118   45.0416 H   0  0  0  0  0  0  0  0  0  0  0  0
   60.4382   34.2016   44.3107 H   0  0  0  0  0  0  0  0  0  0  0  0
   58.6435   34.2779   44.3107 H   0  0  0  0  0  0  0  0  0  0  0  0
   59.7451   29.6591   46.5293 H   0  0  0  0  0  0  0  0  0  0  0  0
   58.8610   27.3514   46.8512 H   0  0  0  0  0  0  0  0  0  0  0  0
   54.4000   26.7250   45.0790 H   0  0  0  0  0  0  0  0  0  0  0  0
   54.3430   26.7150   46.7560 H   0  0  0  0  0  0  0  0  0  0  0  0
   55.3062   28.4030   44.6140 H   0  0  0  0  0  0  0  0  0  0  0  0
   56.1878   30.7142   44.2973 H   0  0  0  0  0  0  0  0  0  0  0  0
   60.0682   31.2434   47.3066 H   0  0  0  0  0  0  0  0  0  0  0  0
   62.2979   30.2760   47.8611 H   0  0  0  0  0  0  0  0  0  0  0  0
   64.2406   33.8603   46.6383 H   0  0  0  0  0  0  0  0  0  0  0  0
   62.0514   34.8998   46.0612 H   0  0  0  0  0  0  0  0  0  0  0  0
  1  2  1  0
  3  2  1  1
  3  4  1  0
  3  5  1  0
  5  6  2  0
  5  7  1  0
  7  8  1  0
  8  9  2  0
  9 10  1  0
 10 11  2  0
 11 12  1  0
 12 13  1  0
 12 14  2  0
 12 15  2  0
 11 16  1  0
 16 17  2  0
  3 18  1  0
 18 19  2  0
 19 20  1  0
 20 21  2  0
 21 22  1  0
 22 23  2  0
 17  8  1  0
 23 18  1  0
  1 24  1  0
  1 25  1  0
  1 26  1  0
  2 27  1  0
  2 28  1  0
  4 29  1  0
  4 30  1  0
  4 31  1  0
  9 32  1  0
 10 33  1  0
 13 34  1  0
 13 35  1  0
 16 36  1  0
 17 37  1  0
 19 38  1  0
 20 39  1  0
 22 40  1  0
 23 41  1  0
M  CHG  1   7  -1
M  END
>  <UniqueID>  (89) 
77

>  <SMILES>  (89) 
CC[C@](C)(C(=O)[N-]c1ccc(S(N)(=O)=O)cc1)c1ccncc1

>  <Energy>  (89) 
49.04132849597841

>  <Genealogy>  (89) 
CCC(C)(C(=O)[N-]c1ccc(S(N)(=O)=O)cc1)c1ccncc1 (protonated)
CC[C@](C)(C(=O)[N-]c1ccc(S(N)(=O)=O)cc1)c1ccncc1 (chirality)
CC[C@](C)(C(=O)[N-]c1ccc(S(N)(=O)=O)cc1)c1ccncc1 (3D coordinates assigned)
CC[C@](C)(C(=O)[N-]c1ccc(S(N)(=O)=O)cc1)c1ccncc1 (optimized conformer: 49.04132849597841 kcal/mol)

>  <smiles>  (89) 
CCC(C)(C(=O)Nc1ccc(S(N)(=O)=O)cc1)c1ccncc1

>  <score_type>  (89) 
oracle

>  <origin>  (89) 
adg

>  <m_score__min__energy>  (89) 
-9.8800000000000008

>  <m_primary>  (89) 
energy

$$$$
89:0
     RDKit          3D

 30 32  0  0  0  0  0  0  0  0999 V2000
   66.1990   32.2540   50.1630 N   0  0  0  0  0  0  0  0  0  0  0  0
   65.2150   32.6700   49.7160 C   0  0  0  0  0  0  0  0  0  0  0  0
   63.9940   33.1880   49.1600 C   0  0  0  0  0  0  0  0  0  0  0  0
   63.7750   33.1350   47.7780 C   0  0  0  0  0  0  0  0  0  0  0  0
   62.5880   33.6390   47.2340 C   0  0  0  0  0  0  0  0  0  0  0  0
   61.6050   34.1990   48.0740 C   0  0  0  0  0  0  0  0  0  0  0  0
   60.3940   34.7160   47.5840 O   0  0  0  0  0  0  0  0  0  0  0  0
   60.0280   34.7870   46.2060 C   0  0  0  0  0  0  0  0  0  0  0  0
   58.8440   33.9150   45.9280 C   0  0  0  0  0  0  0  0  0  0  0  0
   58.8060   32.9890   44.9470 N   0  0  0  0  0  0  0  0  0  0  0  0
   57.5720   32.4660   45.1220 C   0  0  0  0  0  0  0  0  0  0  0  0
   57.0050   31.3990   44.2930 C   0  0  0  0  0  0  0  0  0  0  0  0
   57.3340   31.1320   42.9790 C   0  0  0  0  0  0  0  0  0  0  0  0
   56.5570   30.0520   42.6170 C   0  0  0  0  0  0  0  0  0  0  0  0
   55.8060   29.7290   43.7300 C   0  0  0  0  0  0  0  0  0  0  0  0
   56.0970   30.5500   44.7130 O   0  0  0  0  0  0  0  0  0  0  0  0
   56.9390   33.0290   46.1240 O   0  0  0  0  0  0  0  0  0  0  0  0
   57.7080   33.9310   46.6470 N   0  0  0  0  0  0  0  0  0  0  0  0
   61.8350   34.2510   49.4540 C   0  0  0  0  0  0  0  0  0  0  0  0
   63.0220   33.7480   49.9980 C   0  0  0  0  0  0  0  0  0  0  0  0
   64.5379   32.6961   47.1181 H   0  0  0  0  0  0  0  0  0  0  0  0
   62.4220   33.5978   46.1474 H   0  0  0  0  0  0  0  0  0  0  0  0
   59.7778   35.8276   45.9519 H   0  0  0  0  0  0  0  0  0  0  0  0
   60.8749   34.4386   45.5966 H   0  0  0  0  0  0  0  0  0  0  0  0
   58.0625   31.6679   42.3528 H   0  0  0  0  0  0  0  0  0  0  0  0
   56.5390   29.5491   41.6389 H   0  0  0  0  0  0  0  0  0  0  0  0
   55.0751   28.9087   43.7849 H   0  0  0  0  0  0  0  0  0  0  0  0
   57.4720   34.5380   47.4630 H   0  0  0  0  0  0  0  0  0  0  0  0
   61.0755   34.6914   50.1168 H   0  0  0  0  0  0  0  0  0  0  0  0
   63.1915   33.7925   51.0839 H   0  0  0  0  0  0  0  0  0  0  0  0
  1  2  3  0
  2  3  1  0
  3  4  2  0
  4  5  1  0
  5  6  2  0
  6  7  1  0
  7  8  1  0
  8  9  1  0
  9 10  1  0
 10 11  2  0
 11 12  1  0
 12 13  2  0
 13 14  1  0
 14 15  2  0
 15 16  1  0
 11 17  1  0
 17 18  1  0
  6 19  1  0
 19 20  2  0
 20  3  1  0
 18  9  2  0
 16 12  1  0
  4 21  1  0
  5 22  1  0
  8 23  1  0
  8 24  1  0
 13 25  1  0
 14 26  1  0
 15 27  1  0
 18 28  1  0
 19 29  1  0
 20 30  1  0
M  CHG  1  18   1
M  END
>  <UniqueID>  (90) 
78

>  <SMILES>  (90) 
N#Cc1ccc(OCc2nc(-c3ccco3)o[nH+]2)cc1

>  <Energy>  (90) 
89.73308958200444

>  <Genealogy>  (90) 
N#Cc1ccc(OCc2nc(-c3ccco3)o[nH+]2)cc1 (protonated)
N#Cc1ccc(OCc2nc(-c3ccco3)o[nH+]2)cc1 (3D coordinates assigned)
N#Cc1ccc(OCc2nc(-c3ccco3)o[nH+]2)cc1 (optimized conformer: 89.73308958200444 kcal/mol)

>  <smiles>  (90) 
N#Cc1ccc(OCc2noc(-c3ccco3)n2)cc1

>  <score_type>  (90) 
oracle

>  <origin>  (90) 
adg

>  <m_score__min__energy>  (90) 
-5.4199999999999999

>  <m_primary>  (90) 
energy

$$$$
90:0
     RDKit          3D

 40 42  0  0  0  0  0  0  0  0999 V2000
   57.7760   32.0920   43.0570 C   0  0  0  0  0  0  0  0  0  0  0  0
   57.3630   31.4920   44.3580 C   0  0  0  0  0  0  0  0  0  0  0  0
   56.2040   31.0110   44.4800 O   0  0  0  0  0  0  0  0  0  0  0  0
   58.2310   31.5740   45.4530 O   0  0  0  0  0  0  0  0  0  0  0  0
   58.5120   30.5320   46.3510 C   0  0  0  0  0  0  0  0  0  0  0  0
   58.4670   29.1800   45.9610 C   0  0  0  0  0  0  0  0  0  0  0  0
   58.7760   28.1590   46.8710 C   0  0  0  0  0  0  0  0  0  0  0  0
   58.6980   26.7870   46.4460 N   0  0  0  0  0  0  0  0  0  0  0  0
   57.4910   26.1620   45.9790 C   0  0  0  0  0  0  0  0  0  0  0  0
   56.3720   26.7060   46.1860 O   0  0  0  0  0  0  0  0  0  0  0  0
   57.5410   24.8590   45.2910 C   0  0  0  0  0  0  0  0  0  0  0  0
   56.7030   24.4550   44.2570 C   0  0  0  0  0  0  0  0  0  0  0  0
   56.9880   23.1680   43.7840 C   0  0  0  0  0  0  0  0  0  0  0  0
   58.0480   22.5540   44.4370 C   0  0  0  0  0  0  0  0  0  0  0  0
   58.6310   23.6160   45.6040 S   0  0  0  0  0  0  0  0  0  0  0  0
   59.1070   28.4970   48.1940 C   0  0  0  0  0  0  0  0  0  0  0  0
   59.1730   29.8360   48.5820 C   0  0  0  0  0  0  0  0  0  0  0  0
   58.8920   30.8530   47.6650 C   0  0  0  0  0  0  0  0  0  0  0  0
   58.9950   32.5670   48.1920 S   0  0  0  0  0  0  0  0  0  0  0  0
   60.7200   32.7100   47.7180 C   0  0  0  0  0  0  0  0  0  0  0  0
   61.1220   33.7160   46.8310 C   0  0  0  0  0  0  0  0  0  0  0  0
   62.4680   33.8310   46.4670 C   0  0  0  0  0  0  0  0  0  0  0  0
   63.4110   32.9380   46.9840 C   0  0  0  0  0  0  0  0  0  0  0  0
   63.0110   31.9290   47.8650 C   0  0  0  0  0  0  0  0  0  0  0  0
   61.6650   31.8120   48.2310 C   0  0  0  0  0  0  0  0  0  0  0  0
   58.3906   32.9849   43.2437 H   0  0  0  0  0  0  0  0  0  0  0  0
   58.3608   31.3576   42.4837 H   0  0  0  0  0  0  0  0  0  0  0  0
   56.8812   32.3761   42.4837 H   0  0  0  0  0  0  0  0  0  0  0  0
   58.1859   28.9214   44.9294 H   0  0  0  0  0  0  0  0  0  0  0  0
   59.5460   26.1910   46.5720 H   0  0  0  0  0  0  0  0  0  0  0  0
   55.8967   25.0837   43.8512 H   0  0  0  0  0  0  0  0  0  0  0  0
   56.4242   22.6882   42.9705 H   0  0  0  0  0  0  0  0  0  0  0  0
   58.4390   21.5474   44.2276 H   0  0  0  0  0  0  0  0  0  0  0  0
   59.3149   27.7033   48.9267 H   0  0  0  0  0  0  0  0  0  0  0  0
   59.4478   30.0927   49.6157 H   0  0  0  0  0  0  0  0  0  0  0  0
   60.3795   34.4160   46.4203 H   0  0  0  0  0  0  0  0  0  0  0  0
   62.7843   34.6244   45.7738 H   0  0  0  0  0  0  0  0  0  0  0  0
   64.4690   33.0293   46.6973 H   0  0  0  0  0  0  0  0  0  0  0  0
   63.7542   31.2268   48.2707 H   0  0  0  0  0  0  0  0  0  0  0  0
   61.3495   31.0155   48.9209 H   0  0  0  0  0  0  0  0  0  0  0  0
  1  2  1  0
  2  3  2  0
  2  4  1  0
  4  5  1  0
  5  6  2  0
  6  7  1  0
  7  8  1  0
  8  9  1  0
  9 10  2  0
  9 11  1  0
 11 12  2  0
 12 13  1  0
 13 14  2  0
 14 15  1  0
  7 16  2  0
 16 17  1  0
 17 18  2  0
 18 19  1  0
 19 20  1  0
 20 21  2  0
 21 22  1  0
 22 23  2  0
 23 24  1  0
 24 25  2  0
 18  5  1  0
 25 20  1  0
 15 11  1  0
  1 26  1  0
  1 27  1  0
  1 28  1  0
  6 29  1  0
  8 30  1  0
 12 31  1  0
 13 32  1  0
 14 33  1  0
 16 34  1  0
 17 35  1  0
 21 36  1  0
 22 37  1  0
 23 38  1  0
 24 39  1  0
 25 40  1  0
M  END
>  <UniqueID>  (91) 
79

>  <SMILES>  (91) 
CC(=O)Oc1cc(NC(=O)c2cccs2)ccc1Sc1ccccc1

>  <Energy>  (91) 
69.42968769294355

>  <Genealogy>  (91) 
CC(=O)Oc1cc(NC(=O)c2cccs2)ccc1Sc1ccccc1 (3D coordinates assigned)
CC(=O)Oc1cc(NC(=O)c2cccs2)ccc1Sc1ccccc1 (optimized conformer: 69.42968769294355 kcal/mol)

>  <smiles>  (91) 
CC(=O)Oc1cc(NC(=O)c2cccs2)ccc1Sc1ccccc1

>  <score_type>  (91) 
oracle

>  <origin>  (91) 
adg

>  <m_score__min__energy>  (91) 
-7.7300000000000004

>  <m_primary>  (91) 
energy

$$$$
91:0
     RDKit          3D

 31 32  0  0  0  0  0  0  0  0999 V2000
   61.4760   31.4530   47.1230 C   0  0  0  0  0  0  0  0  0  0  0  0
   60.4080   30.4240   46.9830 C   0  0  0  0  0  0  0  0  0  0  0  0
   59.6920   30.2380   45.8530 N   0  0  0  0  0  0  0  0  0  0  0  0
   58.7470   29.2710   46.0070 C   0  0  0  0  0  0  0  0  0  0  0  0
   57.7740   28.9410   44.9180 C   0  0  0  0  0  0  0  0  0  0  0  0
   56.9890   30.1670   44.5760 C   0  0  0  0  0  0  0  0  0  0  0  0
   55.7320   30.1020   44.4970 O   0  0  0  0  0  0  0  0  0  0  0  0
   57.6580   31.4260   44.4310 N   0  0  0  0  0  0  0  0  0  0  0  0
   57.0390   32.6690   44.8810 C   0  0  0  0  0  0  0  0  0  0  0  0
   57.9860   33.3960   45.7940 C   0  0  0  0  0  0  0  0  0  0  0  0
   58.8630   34.3640   45.2760 C   0  0  0  0  0  0  0  0  0  0  0  0
   59.7980   34.9870   46.1100 C   0  0  0  0  0  0  0  0  0  0  0  0
   59.8760   34.6330   47.4600 C   0  0  0  0  0  0  0  0  0  0  0  0
   59.0180   33.6600   47.9790 C   0  0  0  0  0  0  0  0  0  0  0  0
   58.0780   33.0400   47.1500 C   0  0  0  0  0  0  0  0  0  0  0  0
   58.6830   28.7050   47.2780 C   0  0  0  0  0  0  0  0  0  0  0  0
   59.8660   29.4320   48.2260 S   0  0  0  0  0  0  0  0  0  0  0  0
   61.6687   31.6387   48.1900 H   0  0  0  0  0  0  0  0  0  0  0  0
   62.3971   31.0933   46.6412 H   0  0  0  0  0  0  0  0  0  0  0  0
   61.1508   32.3869   46.6412 H   0  0  0  0  0  0  0  0  0  0  0  0
   58.3202   28.5933   44.0288 H   0  0  0  0  0  0  0  0  0  0  0  0
   57.0926   28.1471   45.2576 H   0  0  0  0  0  0  0  0  0  0  0  0
   58.6960   31.4240   44.2990 H   0  0  0  0  0  0  0  0  0  0  0  0
   56.8104   33.3013   44.0104 H   0  0  0  0  0  0  0  0  0  0  0  0
   56.1087   32.4414   45.4221 H   0  0  0  0  0  0  0  0  0  0  0  0
   58.8143   34.6331   44.2105 H   0  0  0  0  0  0  0  0  0  0  0  0
   60.4718   35.7555   45.7032 H   0  0  0  0  0  0  0  0  0  0  0  0
   60.6135   35.1208   48.1143 H   0  0  0  0  0  0  0  0  0  0  0  0
   59.0821   33.3813   49.0412 H   0  0  0  0  0  0  0  0  0  0  0  0
   57.4080   32.2706   47.5611 H   0  0  0  0  0  0  0  0  0  0  0  0
   57.9829   27.9216   47.6037 H   0  0  0  0  0  0  0  0  0  0  0  0
  1  2  1  0
  2  3  2  0
  3  4  1  0
  4  5  1  0
  5  6  1  0
  6  7  2  0
  6  8  1  0
  8  9  1  0
  9 10  1  0
 10 11  2  0
 11 12  1  0
 12 13  2  0
 13 14  1  0
 14 15  2  0
  4 16  2  0
 16 17  1  0
 17  2  1  0
 15 10  1  0
  1 18  1  0
  1 19  1  0
  1 20  1  0
  5 21  1  0
  5 22  1  0
  8 23  1  0
  9 24  1  0
  9 25  1  0
 11 26  1  0
 12 27  1  0
 13 28  1  0
 14 29  1  0
 15 30  1  0
 16 31  1  0
M  END
>  <UniqueID>  (92) 
80

>  <SMILES>  (92) 
Cc1nc(CC(=O)NCc2ccccc2)cs1

>  <Energy>  (92) 
51.30825734429106

>  <Genealogy>  (92) 
Cc1nc(CC(=O)NCc2ccccc2)cs1 (3D coordinates assigned)
Cc1nc(CC(=O)NCc2ccccc2)cs1 (optimized conformer: 51.30825734429106 kcal/mol)

>  <smiles>  (92) 
Cc1nc(CC(=O)NCc2ccccc2)cs1

>  <score_type>  (92) 
oracle

>  <origin>  (92) 
adg

>  <m_score__min__energy>  (92) 
-6.0499999999999998

>  <m_primary>  (92) 
energy

$$$$
92:0
     RDKit          3D

 53 55  0  0  0  0  0  0  0  0999 V2000
   62.3670   33.7100   49.2790 C   0  0  0  0  0  0  0  0  0  0  0  0
   61.2210   32.8790   49.1230 O   0  0  0  0  0  0  0  0  0  0  0  0
   60.3010   32.9830   48.0690 C   0  0  0  0  0  0  0  0  0  0  0  0
   60.6250   33.6150   46.8530 C   0  0  0  0  0  0  0  0  0  0  0  0
   59.6840   33.6990   45.8260 C   0  0  0  0  0  0  0  0  0  0  0  0
   58.4000   33.1650   45.9980 C   0  0  0  0  0  0  0  0  0  0  0  0
   57.3970   33.2270   44.8760 C   0  0  0  0  0  0  0  0  0  0  0  0
   57.3960   31.9220   44.0830 C   0  0  0  0  0  0  0  0  0  0  0  0
   56.4860   30.9700   44.7060 N   0  0  0  0  0  0  0  0  0  0  0  0
   56.9250   29.7240   45.2520 C   0  0  0  0  0  0  0  0  0  0  0  0
   56.1880   28.7040   45.1810 O   0  0  0  0  0  0  0  0  0  0  0  0
   58.2410   29.6290   45.8960 C   0  0  0  0  0  0  0  0  0  0  0  0
   59.4670   29.8920   45.2940 C   0  0  0  0  0  0  0  0  0  0  0  0
   60.5560   29.7220   46.1570 C   0  0  0  0  0  0  0  0  0  0  0  0
   60.1880   29.3130   47.4350 C   0  0  0  0  0  0  0  0  0  0  0  0
   61.1250   29.0780   48.5920 C   0  0  0  0  0  0  0  0  0  0  0  0
   60.8740   29.9470   49.7680 N   0  0  0  0  0  0  0  0  0  0  0  0
   59.8550   29.3890   50.6840 C   0  0  0  0  0  0  0  0  0  0  0  0
   59.7670   30.2090   51.9890 C   0  0  0  0  0  0  0  0  0  0  0  0
   60.4060   31.4620   51.8510 O   0  0  0  0  0  0  0  0  0  0  0  0
   61.7970   31.2770   51.6540 C   0  0  0  0  0  0  0  0  0  0  0  0
   62.1070   30.2830   50.5090 C   0  0  0  0  0  0  0  0  0  0  0  0
   58.5100   29.1850   47.4980 S   0  0  0  0  0  0  0  0  0  0  0  0
   58.0760   32.5220   47.2020 C   0  0  0  0  0  0  0  0  0  0  0  0
   59.0210   32.4330   48.2430 C   0  0  0  0  0  0  0  0  0  0  0  0
   58.7280   31.8030   49.4630 O   0  0  0  0  0  0  0  0  0  0  0  0
   57.8580   32.3340   50.4580 C   0  0  0  0  0  0  0  0  0  0  0  0
   62.5701   33.8573   50.3500 H   0  0  0  0  0  0  0  0  0  0  0  0
   63.2353   33.2302   48.8037 H   0  0  0  0  0  0  0  0  0  0  0  0
   62.1808   34.6844   48.8037 H   0  0  0  0  0  0  0  0  0  0  0  0
   61.6273   34.0457   46.7117 H   0  0  0  0  0  0  0  0  0  0  0  0
   59.9515   34.1867   44.8770 H   0  0  0  0  0  0  0  0  0  0  0  0
   56.3945   33.3954   45.2962 H   0  0  0  0  0  0  0  0  0  0  0  0
   57.6703   34.0517   44.2013 H   0  0  0  0  0  0  0  0  0  0  0  0
   57.0678   32.1208   43.0521 H   0  0  0  0  0  0  0  0  0  0  0  0
   58.4123   31.5013   44.0723 H   0  0  0  0  0  0  0  0  0  0  0  0
   59.5706   30.2028   44.2439 H   0  0  0  0  0  0  0  0  0  0  0  0
   61.5995   29.8947   45.8547 H   0  0  0  0  0  0  0  0  0  0  0  0
   61.0231   28.0300   48.9102 H   0  0  0  0  0  0  0  0  0  0  0  0
   62.1360   29.3196   48.2322 H   0  0  0  0  0  0  0  0  0  0  0  0
   60.4900   30.8430   49.3820 H   0  0  0  0  0  0  0  0  0  0  0  0
   58.8756   29.4052   50.1835 H   0  0  0  0  0  0  0  0  0  0  0  0
   60.1436   28.3587   50.9393 H   0  0  0  0  0  0  0  0  0  0  0  0
   58.7083   30.3721   52.2393 H   0  0  0  0  0  0  0  0  0  0  0  0
   60.2730   29.6468   52.7877 H   0  0  0  0  0  0  0  0  0  0  0  0
   62.2509   32.2488   51.4099 H   0  0  0  0  0  0  0  0  0  0  0  0
   62.2129   30.8577   52.5820 H   0  0  0  0  0  0  0  0  0  0  0  0
   62.8310   30.7403   49.8186 H   0  0  0  0  0  0  0  0  0  0  0  0
   62.5249   29.3617   50.9409 H   0  0  0  0  0  0  0  0  0  0  0  0
   57.0758   32.0837   47.3343 H   0  0  0  0  0  0  0  0  0  0  0  0
   58.2524   32.0933   51.4562 H   0  0  0  0  0  0  0  0  0  0  0  0
   57.7928   33.4260   50.3431 H   0  0  0  0  0  0  0  0  0  0  0  0
   56.8569   31.8928   50.3431 H   0  0  0  0  0  0  0  0  0  0  0  0
  1  2  1  0
  2  3  1  0
  3  4  2  0
  4  5  1  0
  5  6  2  0
  6  7  1  0
  7  8  1  0
  8  9  1  0
  9 10  1  0
 10 11  2  0
 10 12  1  0
 12 13  2  0
 13 14  1  0
 14 15  2  0
 15 16  1  0
 16 17  1  0
 17 18  1  0
 18 19  1  0
 19 20  1  0
 20 21  1  0
 21 22  1  0
 15 23  1  0
  6 24  1  0
 24 25  2  0
 25 26  1  0
 26 27  1  0
 25  3  1  0
 23 12  1  0
 22 17  1  0
  1 28  1  0
  1 29  1  0
  1 30  1  0
  4 31  1  0
  5 32  1  0
  7 33  1  0
  7 34  1  0
  8 35  1  0
  8 36  1  0
 13 37  1  0
 14 38  1  0
 16 39  1  0
 16 40  1  0
 17 41  1  0
 18 42  1  0
 18 43  1  0
 19 44  1  0
 19 45  1  0
 21 46  1  0
 21 47  1  0
 22 48  1  0
 22 49  1  0
 24 50  1  0
 27 51  1  0
 27 52  1  0
 27 53  1  0
M  CHG  2   9  -1  17   1
M  END
>  <UniqueID>  (93) 
81

>  <SMILES>  (93) 
COc1ccc(CC[N-]C(=O)c2ccc(C[NH+]3CCOCC3)s2)cc1OC

>  <Energy>  (93) 
84.48671383596421

>  <Genealogy>  (93) 
COc1ccc(CC[N-]C(=O)c2ccc(C[NH+]3CCOCC3)s2)cc1OC (protonated)
COc1ccc(CC[N-]C(=O)c2ccc(C[NH+]3CCOCC3)s2)cc1OC (3D coordinates assigned)
COc1ccc(CC[N-]C(=O)c2ccc(C[NH+]3CCOCC3)s2)cc1OC (nonaromatic ring conformer: 84.48671383596421 kcal/mol)

>  <smiles>  (93) 
COc1ccc(CCNC(=O)c2ccc(CN3CCOCC3)s2)cc1OC

>  <score_type>  (93) 
oracle

>  <origin>  (93) 
adg

>  <m_score__min__energy>  (93) 
-8.7100000000000009

>  <m_primary>  (93) 
energy

$$$$
93:0
     RDKit          3D

 47 50  0  0  0  0  0  0  0  0999 V2000
   60.4860   28.6040   48.8060 C   0  0  0  0  0  0  0  0  0  0  0  0
   60.9510   29.3190   47.6410 N   0  0  0  0  0  0  0  0  0  0  0  0
   60.6250   28.7180   46.3960 C   0  0  0  0  0  0  0  0  0  0  0  0
   59.2220   28.8420   45.9730 C   0  0  0  0  0  0  0  0  0  0  0  0
   58.3170   27.8720   46.1820 N   0  0  0  0  0  0  0  0  0  0  0  0
   57.0540   28.0180   45.7860 C   0  0  0  0  0  0  0  0  0  0  0  0
   56.2190   27.1000   45.9880 O   0  0  0  0  0  0  0  0  0  0  0  0
   56.6340   29.1730   45.1480 C   0  0  0  0  0  0  0  0  0  0  0  0
   55.4850   29.6330   44.6370 N   0  0  0  0  0  0  0  0  0  0  0  0
   55.6540   30.8460   44.1270 N   0  0  0  0  0  0  0  0  0  0  0  0
   56.9220   31.1760   44.3070 N   0  0  0  0  0  0  0  0  0  0  0  0
   57.5110   32.4320   43.8860 C   0  0  0  0  0  0  0  0  0  0  0  0
   58.1000   33.1800   45.0320 C   0  0  0  0  0  0  0  0  0  0  0  0
   57.6470   33.0090   46.3220 C   0  0  0  0  0  0  0  0  0  0  0  0
   58.1710   33.6860   47.4040 C   0  0  0  0  0  0  0  0  0  0  0  0
   59.2070   34.5840   47.1630 C   0  0  0  0  0  0  0  0  0  0  0  0
   59.6780   34.7730   45.8720 C   0  0  0  0  0  0  0  0  0  0  0  0
   59.1360   34.0800   44.8040 C   0  0  0  0  0  0  0  0  0  0  0  0
   57.5640   30.1730   44.9340 C   0  0  0  0  0  0  0  0  0  0  0  0
   58.8230   29.9600   45.3590 N   0  0  0  0  0  0  0  0  0  0  0  0
   60.7520   30.9990   47.7400 S   0  0  0  0  0  0  0  0  0  0  0  0
   59.5990   31.4120   48.6070 O   0  0  0  0  0  0  0  0  0  0  0  0
   60.5260   31.5430   46.3750 O   0  0  0  0  0  0  0  0  0  0  0  0
   62.2120   31.6960   48.4090 C   0  0  0  0  0  0  0  0  0  0  0  0
   62.6490   31.3980   49.6810 C   0  0  0  0  0  0  0  0  0  0  0  0
   63.8210   31.9960   50.1370 C   0  0  0  0  0  0  0  0  0  0  0  0
   64.5400   32.8750   49.3340 C   0  0  0  0  0  0  0  0  0  0  0  0
   65.6830   33.4710   49.7550 F   0  0  0  0  0  0  0  0  0  0  0  0
   64.0750   33.1550   48.0610 C   0  0  0  0  0  0  0  0  0  0  0  0
   62.9160   32.5720   47.5910 C   0  0  0  0  0  0  0  0  0  0  0  0
   60.8241   29.1239   49.7145 H   0  0  0  0  0  0  0  0  0  0  0  0
   59.3869   28.5613   48.7955 H   0  0  0  0  0  0  0  0  0  0  0  0
   60.8927   27.5820   48.7955 H   0  0  0  0  0  0  0  0  0  0  0  0
   61.2532   29.1831   45.6220 H   0  0  0  0  0  0  0  0  0  0  0  0
   60.8027   27.6406   46.5289 H   0  0  0  0  0  0  0  0  0  0  0  0
   58.3032   32.2250   43.1514 H   0  0  0  0  0  0  0  0  0  0  0  0
   56.7155   33.0517   43.4466 H   0  0  0  0  0  0  0  0  0  0  0  0
   56.8268   32.2974   46.4979 H   0  0  0  0  0  0  0  0  0  0  0  0
   57.7840   33.5220   48.4205 H   0  0  0  0  0  0  0  0  0  0  0  0
   59.6529   35.1447   47.9977 H   0  0  0  0  0  0  0  0  0  0  0  0
   60.4965   35.4861   45.6942 H   0  0  0  0  0  0  0  0  0  0  0  0
   59.5202   34.2390   43.7856 H   0  0  0  0  0  0  0  0  0  0  0  0
   59.5080   30.7160   45.1910 H   0  0  0  0  0  0  0  0  0  0  0  0
   62.0853   30.7038   50.3216 H   0  0  0  0  0  0  0  0  0  0  0  0
   64.1845   31.7692   51.1501 H   0  0  0  0  0  0  0  0  0  0  0  0
   64.6350   33.8493   47.4173 H   0  0  0  0  0  0  0  0  0  0  0  0
   62.5524   32.7985   46.5778 H   0  0  0  0  0  0  0  0  0  0  0  0
  1  2  1  0
  2  3  1  0
  3  4  1  0
  4  5  2  0
  5  6  1  0
  6  7  2  0
  6  8  1  0
  8  9  1  0
  9 10  2  0
 10 11  1  0
 11 12  1  0
 12 13  1  0
 13 14  2  0
 14 15  1  0
 15 16  2  0
 16 17  1  0
 17 18  2  0
 11 19  1  0
 19 20  1  0
  2 21  1  0
 21 22  2  0
 21 23  2  0
 21 24  1  0
 24 25  2  0
 25 26  1  0
 26 27  2  0
 27 28  1  0
 27 29  1  0
 29 30  2  0
 20  4  1  0
 30 24  1  0
 19  8  2  0
 18 13  1  0
  1 31  1  0
  1 32  1  0
  1 33  1  0
  3 34  1  0
  3 35  1  0
 12 36  1  0
 12 37  1  0
 14 38  1  0
 15 39  1  0
 16 40  1  0
 17 41  1  0
 18 42  1  0
 20 43  1  0
 25 44  1  0
 26 45  1  0
 29 46  1  0
 30 47  1  0
M  END
>  <smiles>  (94) 
CN(Cc1nc(=O)c2nnn(Cc3ccccc3)c2[nH]1)S(=O)(=O)c1ccc(F)cc1

>  <score_type>  (94) 
oracle

>  <origin>  (94) 
adg

>  <m_score__min__energy>  (94) 
-8.9000000000000004

>  <m_primary>  (94) 
energy

$$$$
