0:0
     RDKit          3D

 30 30  0  0  0  0  0  0  0  0999 V2000
   51.1175   29.0969   51.5403 H   0  0  0  0  0  0  0  0  0  0  0  0
   51.7470   29.9990   51.5490 C   0  0  0  0  0  0  0  0  0  0  0  0
   52.8610   29.9870   50.8760 N   0  0  0  0  0  0  0  0  0  0  0  0
   54.1350   30.5200   51.3510 C   0  0  0  0  0  0  0  0  0  0  0  0
   53.9622   31.4703   51.8773 H   0  0  0  0  0  0  0  0  0  0  0  0
   54.8036   30.6931   50.4949 H   0  0  0  0  0  0  0  0  0  0  0  0
   54.7820   29.5110   52.3130 C   0  0  0  0  0  0  0  0  0  0  0  0
   55.7730   29.2430   51.9179 H   0  0  0  0  0  0  0  0  0  0  0  0
   54.1023   28.6482   52.3733 H   0  0  0  0  0  0  0  0  0  0  0  0
   54.9530   30.0190   53.6940 N   0  0  0  0  0  0  0  0  0  0  0  0
   56.1630   30.8500   53.8360 C   0  0  0  0  0  0  0  0  0  0  0  0
   56.3815   31.0001   54.9036 H   0  0  0  0  0  0  0  0  0  0  0  0
   57.0135   30.3445   53.3552 H   0  0  0  0  0  0  0  0  0  0  0  0
   55.9965   31.8252   53.3552 H   0  0  0  0  0  0  0  0  0  0  0  0
   54.8940   28.9430   54.7070 C   0  0  0  0  0  0  0  0  0  0  0  0
   55.9091   28.5580   54.8842 H   0  0  0  0  0  0  0  0  0  0  0  0
   54.2412   28.1406   54.3328 H   0  0  0  0  0  0  0  0  0  0  0  0
   54.3210   29.4690   56.0210 C   0  0  0  0  0  0  0  0  0  0  0  0
   54.8409   28.9918   56.8648 H   0  0  0  0  0  0  0  0  0  0  0  0
   54.4620   30.5587   56.0724 H   0  0  0  0  0  0  0  0  0  0  0  0
   53.2473   29.2354   56.0724 H   0  0  0  0  0  0  0  0  0  0  0  0
   51.2910   31.1710   52.3240 C   0  0  0  0  0  0  0  0  0  0  0  0
   50.9520   32.3630   51.6680 C   0  0  0  0  0  0  0  0  0  0  0  0
   51.0190   32.4530   50.2830 O   0  0  0  0  0  0  0  0  0  0  0  0
   50.5420   33.4400   52.3890 N   0  0  0  0  0  0  0  0  0  0  0  0
   50.4650   33.3890   53.7430 C   0  0  0  0  0  0  0  0  0  0  0  0
   49.9670   34.6970   54.5800 S   0  0  0  0  0  0  0  0  0  0  0  0
   50.8110   32.2530   54.4020 N   0  0  0  0  0  0  0  0  0  0  0  0
   51.2270   31.1500   53.7270 C   0  0  0  0  0  0  0  0  0  0  0  0
   51.5680   30.1220   54.3720 O   0  0  0  0  0  0  0  0  0  0  0  0
  1  2  1  0
  2  3  2  0
  3  4  1  0
  4  5  1  0
  4  6  1  0
  4  7  1  0
  7  8  1  0
  7  9  1  0
  7 10  1  0
 10 11  1  0
 11 12  1  0
 11 13  1  0
 11 14  1  0
 10 15  1  0
 15 16  1  0
 15 17  1  0
 15 18  1  0
 18 19  1  0
 18 20  1  0
 18 21  1  0
  2 22  1  0
 22 23  2  0
 23 24  1  0
 23 25  1  0
 25 26  1  0
 26 27  2  0
 26 28  1  0
 28 29  1  0
 29 30  2  0
 29 22  1  0
M  CHG  3  24  -1  25  -1  28  -1
M  END
>  <UniqueID>  (1) 
1

>  <SMILES>  (1) 
CCN(C)CC/N=C\c1c([O-])[n-]c(=S)[n-]c1=O

>  <Energy>  (1) 
36.35742388823139

>  <Genealogy>  (1) 
CCN(C)CCN=Cc1c([O-])[n-]c(=S)[n-]c1=O (protonated)
CCN(C)CC/N=C\c1c([O-])[n-]c(=S)[n-]c1=O (cis-trans isomerization)
CCN(C)CC/N=C\c1c([O-])[n-]c(=S)[n-]c1=O (3D coordinates assigned)
CCN(C)CC/N=C\c1c([O-])[n-]c(=S)[n-]c1=O (optimized conformer: 36.35742388823139 kcal/mol)

>  <smiles>  (1) 
CCN(C)CCN=Cc1c(O)[nH]c(=S)[nH]c1=O

>  <score_type>  (1) 
oracle

>  <origin>  (1) 
adg

>  <m_score__min__energy>  (1) 
-13.77

>  <m_primary>  (1) 
energy

$$$$
1:0
     RDKit          3D

 69 73  0  0  0  0  0  0  0  0999 V2000
   52.6480   22.2540   49.7080 C   0  0  0  0  0  0  0  0  0  0  0  0
   53.8630   21.7320   49.1810 O   0  0  0  0  0  0  0  0  0  0  0  0
   55.0900   21.8750   49.8370 C   0  0  0  0  0  0  0  0  0  0  0  0
   55.1810   21.4720   51.1750 C   0  0  0  0  0  0  0  0  0  0  0  0
   56.3730   21.6410   51.8860 C   0  0  0  0  0  0  0  0  0  0  0  0
   57.4860   22.2050   51.2600 C   0  0  0  0  0  0  0  0  0  0  0  0
   57.4160   22.5840   49.9180 C   0  0  0  0  0  0  0  0  0  0  0  0
   56.2300   22.4060   49.1880 C   0  0  0  0  0  0  0  0  0  0  0  0
   56.2070   22.7600   47.7950 N   0  0  0  0  0  0  0  0  0  0  0  0
   55.7980   23.9880   47.4730 N   0  0  0  0  0  0  0  0  0  0  0  0
   55.7540   24.4450   46.1960 C   0  0  0  0  0  0  0  0  0  0  0  0
   55.2320   25.8090   45.9630 C   0  0  0  0  0  0  0  0  0  0  0  0
   54.0280   25.9580   45.6240 O   0  0  0  0  0  0  0  0  0  0  0  0
   56.0430   26.9800   46.1360 N   0  0  0  0  0  0  0  0  0  0  0  0
   57.3790   27.2020   45.5880 C   0  0  0  0  0  0  0  0  0  0  0  0
   57.4220   28.4740   44.7900 C   0  0  0  0  0  0  0  0  0  0  0  0
   58.0790   28.5140   43.7160 O   0  0  0  0  0  0  0  0  0  0  0  0
   56.7980   29.6680   45.2700 N   0  0  0  0  0  0  0  0  0  0  0  0
   57.4110   30.9640   45.2820 C   0  0  0  0  0  0  0  0  0  0  0  0
   57.0220   31.9050   44.3270 C   0  0  0  0  0  0  0  0  0  0  0  0
   57.6270   33.1610   44.2880 C   0  0  0  0  0  0  0  0  0  0  0  0
   58.6330   33.5030   45.2070 C   0  0  0  0  0  0  0  0  0  0  0  0
   59.2860   34.8540   45.0920 C   0  0  0  0  0  0  0  0  0  0  0  0
   58.9820   32.5800   46.2250 C   0  0  0  0  0  0  0  0  0  0  0  0
   60.2160   32.9290   47.4510 S   0  0  0  0  0  0  0  0  0  0  0  0
   60.1190   34.3890   47.7940 O   0  0  0  0  0  0  0  0  0  0  0  0
   59.9770   32.1150   48.6920 O   0  0  0  0  0  0  0  0  0  0  0  0
   61.8150   32.5770   46.8190 N   0  0  0  0  0  0  0  0  0  0  0  0
   62.4680   31.4820   47.5620 C   0  0  0  0  0  0  0  0  0  0  0  0
   63.0320   31.9400   48.9280 C   0  0  0  0  0  0  0  0  0  0  0  0
   63.0970   33.3480   49.0670 O   0  0  0  0  0  0  0  0  0  0  0  0
   63.6470   33.9180   47.9030 C   0  0  0  0  0  0  0  0  0  0  0  0
   62.6650   33.7860   46.7270 C   0  0  0  0  0  0  0  0  0  0  0  0
   58.3740   31.3140   46.2410 C   0  0  0  0  0  0  0  0  0  0  0  0
   56.1670   23.5900   45.1510 C   0  0  0  0  0  0  0  0  0  0  0  0
   56.1950   24.0020   43.8010 C   0  0  0  0  0  0  0  0  0  0  0  0
   56.6120   23.1220   42.8000 C   0  0  0  0  0  0  0  0  0  0  0  0
   57.0160   21.8290   43.1250 C   0  0  0  0  0  0  0  0  0  0  0  0
   57.0190   21.4090   44.4560 C   0  0  0  0  0  0  0  0  0  0  0  0
   56.6030   22.2840   45.4800 C   0  0  0  0  0  0  0  0  0  0  0  0
   56.6270   21.8890   46.8280 C   0  0  0  0  0  0  0  0  0  0  0  0
   57.0500   20.7420   47.1470 O   0  0  0  0  0  0  0  0  0  0  0  0
   52.6878   22.2369   50.8071 H   0  0  0  0  0  0  0  0  0  0  0  0
   52.5132   23.2894   49.3620 H   0  0  0  0  0  0  0  0  0  0  0  0
   51.8041   21.6390   49.3620 H   0  0  0  0  0  0  0  0  0  0  0  0
   54.3090   21.0195   51.6699 H   0  0  0  0  0  0  0  0  0  0  0  0
   56.4338   21.3294   52.9392 H   0  0  0  0  0  0  0  0  0  0  0  0
   58.4188   22.3509   51.8244 H   0  0  0  0  0  0  0  0  0  0  0  0
   58.2969   23.0255   49.4289 H   0  0  0  0  0  0  0  0  0  0  0  0
   58.1015   27.2700   46.4147 H   0  0  0  0  0  0  0  0  0  0  0  0
   57.6336   26.3610   44.9262 H   0  0  0  0  0  0  0  0  0  0  0  0
   56.2341   31.6545   43.6014 H   0  0  0  0  0  0  0  0  0  0  0  0
   57.3128   33.8924   43.5288 H   0  0  0  0  0  0  0  0  0  0  0  0
   59.4796   35.2545   46.0980 H   0  0  0  0  0  0  0  0  0  0  0  0
   60.2365   34.7566   44.5470 H   0  0  0  0  0  0  0  0  0  0  0  0
   58.6192   35.5383   44.5470 H   0  0  0  0  0  0  0  0  0  0  0  0
   61.7297   30.6853   47.7355 H   0  0  0  0  0  0  0  0  0  0  0  0
   63.3143   31.1275   46.9553 H   0  0  0  0  0  0  0  0  0  0  0  0
   62.3857   31.5407   49.7235 H   0  0  0  0  0  0  0  0  0  0  0  0
   64.0616   31.5593   48.9979 H   0  0  0  0  0  0  0  0  0  0  0  0
   63.8548   34.9829   48.0841 H   0  0  0  0  0  0  0  0  0  0  0  0
   64.5782   33.3890   47.6519 H   0  0  0  0  0  0  0  0  0  0  0  0
   62.0139   34.6725   46.7122 H   0  0  0  0  0  0  0  0  0  0  0  0
   63.2616   33.7008   45.8068 H   0  0  0  0  0  0  0  0  0  0  0  0
   58.6566   30.5865   47.0162 H   0  0  0  0  0  0  0  0  0  0  0  0
   55.8860   25.0238   43.5356 H   0  0  0  0  0  0  0  0  0  0  0  0
   56.6215   23.4512   41.7505 H   0  0  0  0  0  0  0  0  0  0  0  0
   57.3334   21.1374   42.3307 H   0  0  0  0  0  0  0  0  0  0  0  0
   57.3477   20.3898   44.7073 H   0  0  0  0  0  0  0  0  0  0  0  0
  1  2  1  0
  2  3  1  0
  3  4  2  0
  4  5  1  0
  5  6  2  0
  6  7  1  0
  7  8  2  0
  8  9  1  0
  9 10  1  0
 10 11  2  0
 11 12  1  0
 12 13  2  0
 12 14  1  0
 14 15  1  0
 15 16  1  0
 16 17  2  0
 16 18  1  0
 18 19  1  0
 19 20  2  0
 20 21  1  0
 21 22  2  0
 22 23  1  0
 22 24  1  0
 24 25  1  0
 25 26  2  0
 25 27  2  0
 25 28  1  0
 28 29  1  0
 29 30  1  0
 30 31  1  0
 31 32  1  0
 32 33  1  0
 24 34  2  0
 11 35  1  0
 35 36  2  0
 36 37  1  0
 37 38  2  0
 38 39  1  0
 39 40  2  0
 40 41  1  0
 41 42  2  0
  8  3  1  0
 41  9  1  0
 34 19  1  0
 40 35  1  0
 33 28  1  0
  1 43  1  0
  1 44  1  0
  1 45  1  0
  4 46  1  0
  5 47  1  0
  6 48  1  0
  7 49  1  0
 15 50  1  0
 15 51  1  0
 20 52  1  0
 21 53  1  0
 23 54  1  0
 23 55  1  0
 23 56  1  0
 29 57  1  0
 29 58  1  0
 30 59  1  0
 30 60  1  0
 32 61  1  0
 32 62  1  0
 33 63  1  0
 33 64  1  0
 34 65  1  0
 36 66  1  0
 37 67  1  0
 38 68  1  0
 39 69  1  0
M  CHG  2  14  -1  18  -1
M  END
>  <UniqueID>  (2) 
2

>  <SMILES>  (2) 
COc1ccccc1-n1nc(C(=O)[N-]CC(=O)[N-]c2ccc(C)c(S(=O)(=O)N3CCOCC3)c2)c2ccccc2c1=O

>  <Energy>  (2) 
115.03308261594135

>  <Genealogy>  (2) 
COc1ccccc1-n1nc(C(=O)[N-]CC(=O)[N-]c2ccc(C)c(S(=O)(=O)N3CCOCC3)c2)c2ccccc2c1=O (protonated)
COc1ccccc1-n1nc(C(=O)[N-]CC(=O)[N-]c2ccc(C)c(S(=O)(=O)N3CCOCC3)c2)c2ccccc2c1=O (3D coordinates assigned)
COc1ccccc1-n1nc(C(=O)[N-]CC(=O)[N-]c2ccc(C)c(S(=O)(=O)N3CCOCC3)c2)c2ccccc2c1=O (nonaromatic ring conformer: 115.03308261594135 kcal/mol)

>  <smiles>  (2) 
COc1ccccc1-n1nc(C(=O)NCC(=O)Nc2ccc(C)c(S(=O)(=O)N3CCOCC3)c2)c2ccccc2c1=O

>  <score_type>  (2) 
oracle

>  <origin>  (2) 
adg

>  <m_score__min__energy>  (2) 
-13.789999999999999

>  <m_primary>  (2) 
energy

$$$$
2:0
     RDKit          3D

 52 54  0  0  0  0  0  0  0  0999 V2000
   55.8620   28.6210   43.8640 H   0  0  0  0  0  0  0  0  0  0  0  0
   55.7270   28.5940   44.8670 O   0  0  0  0  0  0  0  0  0  0  0  0
   56.2450   27.5480   45.6240 C   0  0  0  0  0  0  0  0  0  0  0  0
   55.5360   26.4650   45.9860 N   0  0  0  0  0  0  0  0  0  0  0  0
   56.4530   25.7140   46.6330 C   0  0  0  0  0  0  0  0  0  0  0  0
   56.1800   24.5900   47.1300 O   0  0  0  0  0  0  0  0  0  0  0  0
   57.6890   26.2560   46.6950 N   0  0  0  0  0  0  0  0  0  0  0  0
   57.5440   27.4380   46.0730 C   0  0  0  0  0  0  0  0  0  0  0  0
   58.6620   28.3620   45.8190 C   0  0  0  0  0  0  0  0  0  0  0  0
   59.6148   27.9359   45.4718 H   0  0  0  0  0  0  0  0  0  0  0  0
   58.5900   29.7010   45.9860 C   0  0  0  0  0  0  0  0  0  0  0  0
   58.3360   30.6260   45.0000 C   0  0  0  0  0  0  0  0  0  0  0  0
   58.1823   30.4057   43.9333 H   0  0  0  0  0  0  0  0  0  0  0  0
   58.3070   31.8870   45.5840 C   0  0  0  0  0  0  0  0  0  0  0  0
   58.1490   33.1600   44.7090 C   0  0  0  0  0  0  0  0  0  0  0  0
   57.7890   32.7270   43.2730 C   0  0  0  0  0  0  0  0  0  0  0  0
   57.0862   31.8816   43.3103 H   0  0  0  0  0  0  0  0  0  0  0  0
   57.3214   33.5695   42.7423 H   0  0  0  0  0  0  0  0  0  0  0  0
   58.7027   32.4211   42.7423 H   0  0  0  0  0  0  0  0  0  0  0  0
   56.9850   34.0220   45.2630 C   0  0  0  0  0  0  0  0  0  0  0  0
   57.0075   34.0053   46.3626 H   0  0  0  0  0  0  0  0  0  0  0  0
   57.0954   35.0578   44.9097 H   0  0  0  0  0  0  0  0  0  0  0  0
   56.0264   33.6143   44.9097 H   0  0  0  0  0  0  0  0  0  0  0  0
   59.3790   34.0890   44.6530 C   0  0  0  0  0  0  0  0  0  0  0  0
   59.7014   34.3325   45.6761 H   0  0  0  0  0  0  0  0  0  0  0  0
   60.1977   33.5818   44.1215 H   0  0  0  0  0  0  0  0  0  0  0  0
   59.1151   35.0152   44.1215 H   0  0  0  0  0  0  0  0  0  0  0  0
   58.5600   31.7600   46.9300 N   0  0  0  0  0  0  0  0  0  0  0  0
   58.7530   32.8200   47.9440 C   0  0  0  0  0  0  0  0  0  0  0  0
   57.8289   33.4112   48.0250 H   0  0  0  0  0  0  0  0  0  0  0  0
   58.9941   32.3421   48.9050 H   0  0  0  0  0  0  0  0  0  0  0  0
   59.9100   33.7510   47.5620 C   0  0  0  0  0  0  0  0  0  0  0  0
   59.6745   34.2513   46.6111 H   0  0  0  0  0  0  0  0  0  0  0  0
   60.0455   34.4986   48.3575 H   0  0  0  0  0  0  0  0  0  0  0  0
   61.1600   32.9790   47.4100 N   0  0  0  0  0  0  0  0  0  0  0  0
   61.6770   32.5140   48.7090 C   0  0  0  0  0  0  0  0  0  0  0  0
   61.9575   33.3825   49.3230 H   0  0  0  0  0  0  0  0  0  0  0  0
   60.8978   31.9334   49.2245 H   0  0  0  0  0  0  0  0  0  0  0  0
   62.9170   31.6210   48.4860 C   0  0  0  0  0  0  0  0  0  0  0  0
   63.7166   31.9515   49.1653 H   0  0  0  0  0  0  0  0  0  0  0  0
   62.6204   30.5809   48.6864 H   0  0  0  0  0  0  0  0  0  0  0  0
   63.3980   31.6830   47.1530 O   0  0  0  0  0  0  0  0  0  0  0  0
   63.5590   33.0320   46.7620 C   0  0  0  0  0  0  0  0  0  0  0  0
   64.2052   33.5435   47.4905 H   0  0  0  0  0  0  0  0  0  0  0  0
   64.0146   33.0559   45.7611 H   0  0  0  0  0  0  0  0  0  0  0  0
   62.1980   33.7530   46.7010 C   0  0  0  0  0  0  0  0  0  0  0  0
   62.2934   34.7429   47.1712 H   0  0  0  0  0  0  0  0  0  0  0  0
   61.9014   33.8556   45.6467 H   0  0  0  0  0  0  0  0  0  0  0  0
   58.7210   30.4220   47.1690 C   0  0  0  0  0  0  0  0  0  0  0  0
   59.0060   29.8780   48.3680 C   0  0  0  0  0  0  0  0  0  0  0  0
   59.0924   30.5203   49.2568 H   0  0  0  0  0  0  0  0  0  0  0  0
   59.1523   28.7915   48.4582 H   0  0  0  0  0  0  0  0  0  0  0  0
  1  2  1  0
  2  3  1  0
  3  4  1  0
  4  5  1  0
  5  6  2  0
  5  7  1  0
  7  8  1  0
  8  9  1  0
  9 10  1  0
  9 11  2  0
 11 12  1  0
 12 13  1  0
 12 14  2  0
 14 15  1  0
 15 16  1  0
 16 17  1  0
 16 18  1  0
 16 19  1  0
 15 20  1  0
 20 21  1  0
 20 22  1  0
 20 23  1  0
 15 24  1  0
 24 25  1  0
 24 26  1  0
 24 27  1  0
 14 28  1  0
 28 29  1  0
 29 30  1  0
 29 31  1  0
 29 32  1  0
 32 33  1  0
 32 34  1  0
 32 35  1  0
 35 36  1  0
 36 37  1  0
 36 38  1  0
 36 39  1  0
 39 40  1  0
 39 41  1  0
 39 42  1  0
 42 43  1  0
 43 44  1  0
 43 45  1  0
 43 46  1  0
 46 47  1  0
 46 48  1  0
 28 49  1  0
 49 50  2  0
 50 51  1  0
 50 52  1  0
  8  3  2  0
 49 11  1  0
 46 35  1  0
M  CHG  2   4  -1   7  -1
M  END
>  <UniqueID>  (3) 
3

>  <SMILES>  (3) 
C=c1/c(=C/c2[n-]c(=O)[n-]c2O)cc(C(C)(C)C)n1CCN1CCOCC1

>  <Energy>  (3) 
133.00139219296653

>  <Genealogy>  (3) 
C=c1c(=Cc2[n-]c(=O)[n-]c2O)cc(C(C)(C)C)n1CCN1CCOCC1 (protonated)
C=c1/c(=C/c2[n-]c(=O)[n-]c2O)cc(C(C)(C)C)n1CCN1CCOCC1 (cis-trans isomerization)
C=c1/c(=C/c2[n-]c(=O)[n-]c2O)cc(C(C)(C)C)n1CCN1CCOCC1 (3D coordinates assigned)
C=c1/c(=C/c2[n-]c(=O)[n-]c2O)cc(C(C)(C)C)n1CCN1CCOCC1 (nonaromatic ring conformer: 133.00139219296653 kcal/mol)

>  <smiles>  (3) 
C=c1c(=Cc2[nH]c(=O)[nH]c2O)cc(C(C)(C)C)n1CCN1CCOCC1

>  <score_type>  (3) 
oracle

>  <origin>  (3) 
adg

>  <m_score__min__energy>  (3) 
-12.57

>  <m_primary>  (3) 
energy

$$$$
3:0
     RDKit          3D

 63 67  0  0  0  0  0  0  0  0999 V2000
   61.1050   26.5850   48.8470 O   0  0  0  0  0  0  0  0  0  0  0  0
   60.1470   26.8050   48.0610 C   0  0  0  0  0  0  0  0  0  0  0  0
   59.9870   25.9420   46.8720 C   0  0  0  0  0  0  0  0  0  0  0  0
   59.1370   26.1670   45.8560 C   0  0  0  0  0  0  0  0  0  0  0  0
   58.7240   27.5030   45.3940 C   0  0  0  0  0  0  0  0  0  0  0  0
   59.7010   28.4120   44.9120 C   0  0  0  0  0  0  0  0  0  0  0  0
   59.3300   29.6980   44.4720 C   0  0  0  0  0  0  0  0  0  0  0  0
   57.9750   30.0160   44.5060 C   0  0  0  0  0  0  0  0  0  0  0  0
   57.0310   29.1410   44.9480 C   0  0  0  0  0  0  0  0  0  0  0  0
   57.3570   27.8660   45.3930 C   0  0  0  0  0  0  0  0  0  0  0  0
   55.8240   29.7310   44.8900 N   0  0  0  0  0  0  0  0  0  0  0  0
   56.0440   30.9570   44.4150 N   0  0  0  0  0  0  0  0  0  0  0  0
   57.3360   31.1460   44.1640 N   0  0  0  0  0  0  0  0  0  0  0  0
   57.9150   32.4070   43.7130 C   0  0  0  0  0  0  0  0  0  0  0  0
   57.3790   33.5640   44.5590 C   0  0  0  0  0  0  0  0  0  0  0  0
   58.0080   33.5660   45.9190 C   0  0  0  0  0  0  0  0  0  0  0  0
   59.1260   34.2810   46.2890 C   0  0  0  0  0  0  0  0  0  0  0  0
   59.3590   34.0230   47.5850 N   0  0  0  0  0  0  0  0  0  0  0  0
   60.4160   34.5950   48.4160 C   0  0  0  0  0  0  0  0  0  0  0  0
   61.6200   33.6910   48.4310 C   0  0  0  0  0  0  0  0  0  0  0  0
   62.5410   33.7660   49.4890 C   0  0  0  0  0  0  0  0  0  0  0  0
   63.6660   32.9360   49.5030 C   0  0  0  0  0  0  0  0  0  0  0  0
   63.8810   32.0280   48.4620 C   0  0  0  0  0  0  0  0  0  0  0  0
   62.9740   31.9550   47.4000 C   0  0  0  0  0  0  0  0  0  0  0  0
   61.8480   32.7850   47.3820 C   0  0  0  0  0  0  0  0  0  0  0  0
   58.3880   33.1710   47.9750 C   0  0  0  0  0  0  0  0  0  0  0  0
   57.5400   32.8610   46.9710 N   0  0  0  0  0  0  0  0  0  0  0  0
   59.2650   27.9080   48.3020 N   0  0  0  0  0  0  0  0  0  0  0  0
   59.7650   29.5660   48.2880 S   0  0  0  0  0  0  0  0  0  0  0  0
   60.8050   29.7780   47.2240 O   0  0  0  0  0  0  0  0  0  0  0  0
   58.5730   30.4230   47.9690 O   0  0  0  0  0  0  0  0  0  0  0  0
   60.4050   30.0400   49.8850 C   0  0  0  0  0  0  0  0  0  0  0  0
   59.4320   30.9240   50.6150 C   0  0  0  0  0  0  0  0  0  0  0  0
   59.7770   32.2460   50.9380 C   0  0  0  0  0  0  0  0  0  0  0  0
   58.8660   33.0680   51.6080 C   0  0  0  0  0  0  0  0  0  0  0  0
   57.6060   32.5770   51.9580 C   0  0  0  0  0  0  0  0  0  0  0  0
   57.2520   31.2640   51.6350 C   0  0  0  0  0  0  0  0  0  0  0  0
   58.1610   30.4400   50.9660 C   0  0  0  0  0  0  0  0  0  0  0  0
   60.6156   25.0412   46.8140 H   0  0  0  0  0  0  0  0  0  0  0  0
   58.7209   25.2931   45.3333 H   0  0  0  0  0  0  0  0  0  0  0  0
   60.7582   28.1098   44.8815 H   0  0  0  0  0  0  0  0  0  0  0  0
   60.0795   30.4205   44.1165 H   0  0  0  0  0  0  0  0  0  0  0  0
   56.5805   27.1645   45.7321 H   0  0  0  0  0  0  0  0  0  0  0  0
   59.0096   32.3607   43.8117 H   0  0  0  0  0  0  0  0  0  0  0  0
   57.6408   32.5732   42.6608 H   0  0  0  0  0  0  0  0  0  0  0  0
   57.6069   34.5148   44.0550 H   0  0  0  0  0  0  0  0  0  0  0  0
   56.2918   33.4420   44.6740 H   0  0  0  0  0  0  0  0  0  0  0  0
   59.7192   34.9425   45.6405 H   0  0  0  0  0  0  0  0  0  0  0  0
   60.7046   35.5761   48.0107 H   0  0  0  0  0  0  0  0  0  0  0  0
   60.0406   34.7059   49.4440 H   0  0  0  0  0  0  0  0  0  0  0  0
   62.3765   34.4802   50.3093 H   0  0  0  0  0  0  0  0  0  0  0  0
   64.3833   32.9976   50.3347 H   0  0  0  0  0  0  0  0  0  0  0  0
   64.7632   31.3712   48.4782 H   0  0  0  0  0  0  0  0  0  0  0  0
   63.1461   31.2444   46.5782 H   0  0  0  0  0  0  0  0  0  0  0  0
   61.1385   32.7279   46.5433 H   0  0  0  0  0  0  0  0  0  0  0  0
   58.2974   32.7734   48.9966 H   0  0  0  0  0  0  0  0  0  0  0  0
   60.5868   29.1347   50.4828 H   0  0  0  0  0  0  0  0  0  0  0  0
   61.3412   30.5978   49.7357 H   0  0  0  0  0  0  0  0  0  0  0  0
   60.7679   32.6365   50.6629 H   0  0  0  0  0  0  0  0  0  0  0  0
   59.1418   34.1027   51.8599 H   0  0  0  0  0  0  0  0  0  0  0  0
   56.8918   33.2242   52.4882 H   0  0  0  0  0  0  0  0  0  0  0  0
   56.2581   30.8794   51.9073 H   0  0  0  0  0  0  0  0  0  0  0  0
   57.8797   29.4071   50.7130 H   0  0  0  0  0  0  0  0  0  0  0  0
  1  2  2  0
  2  3  1  0
  3  4  2  3
  4  5  1  0
  5  6  2  0
  6  7  1  0
  7  8  2  0
  8  9  1  0
  9 10  2  0
  9 11  1  0
 11 12  2  0
 12 13  1  0
 13 14  1  0
 14 15  1  0
 15 16  1  0
 16 17  2  0
 17 18  1  0
 18 19  1  0
 19 20  1  0
 20 21  2  0
 21 22  1  0
 22 23  2  0
 23 24  1  0
 24 25  2  0
 18 26  1  0
 26 27  2  0
  2 28  1  0
 28 29  1  0
 29 30  2  0
 29 31  2  0
 29 32  1  0
 32 33  1  0
 33 34  2  0
 34 35  1  0
 35 36  2  0
 36 37  1  0
 37 38  2  0
 10  5  1  0
 27 16  1  0
 38 33  1  0
 13  8  1  0
 25 20  1  0
  3 39  1  0
  4 40  1  0
  6 41  1  0
  7 42  1  0
 10 43  1  0
 14 44  1  0
 14 45  1  0
 15 46  1  0
 15 47  1  0
 17 48  1  0
 19 49  1  0
 19 50  1  0
 21 51  1  0
 22 52  1  0
 23 53  1  0
 24 54  1  0
 25 55  1  0
 26 56  1  0
 32 57  1  0
 32 58  1  0
 34 59  1  0
 35 60  1  0
 36 61  1  0
 37 62  1  0
 38 63  1  0
M  CHG  1  28  -1
M  END
>  <UniqueID>  (4) 
4

>  <SMILES>  (4) 
O=C(C=Cc1ccc2c(c1)nnn2CCc1cn(Cc2ccccc2)cn1)[N-]S(=O)(=O)Cc1ccccc1

>  <Energy>  (4) 
140.12920830774107

>  <Genealogy>  (4) 
O=C(C=Cc1ccc2c(c1)nnn2CCc1cn(Cc2ccccc2)cn1)[N-]S(=O)(=O)Cc1ccccc1 (protonated)
O=C(C=Cc1ccc2c(c1)nnn2CCc1cn(Cc2ccccc2)cn1)[N-]S(=O)(=O)Cc1ccccc1 (3D coordinates assigned)
O=C(C=Cc1ccc2c(c1)nnn2CCc1cn(Cc2ccccc2)cn1)[N-]S(=O)(=O)Cc1ccccc1 (optimized conformer: 140.12920830774107 kcal/mol)

>  <smiles>  (4) 
O=C(C=Cc1ccc2c(c1)nnn2CCc1cn(Cc2ccccc2)cn1)NS(=O)(=O)Cc1ccccc1

>  <score_type>  (4) 
oracle

>  <origin>  (4) 
adg

>  <m_score__min__energy>  (4) 
-12.06

>  <m_primary>  (4) 
energy

$$$$
4:0
     RDKit          3D

 61 64  0  0  0  0  0  0  0  0999 V2000
   63.6110   31.5710   49.7650 C   0  0  0  0  0  0  0  0  0  0  0  0
   62.6260   32.3850   49.0370 N   0  0  0  0  0  0  0  0  0  0  0  0
   62.8830   32.3250   47.5790 C   0  0  0  0  0  0  0  0  0  0  0  0
   62.1830   33.4570   46.7980 C   0  0  0  0  0  0  0  0  0  0  0  0
   61.1290   34.0910   47.6000 N   0  0  0  0  0  0  0  0  0  0  0  0
   59.9100   34.5260   46.9780 C   0  0  0  0  0  0  0  0  0  0  0  0
   59.5440   35.7260   47.1120 O   0  0  0  0  0  0  0  0  0  0  0  0
   59.0620   33.5820   46.2120 C   0  0  0  0  0  0  0  0  0  0  0  0
   59.4550   32.2430   46.0440 C   0  0  0  0  0  0  0  0  0  0  0  0
   58.6410   31.3490   45.3450 C   0  0  0  0  0  0  0  0  0  0  0  0
   57.4190   31.7740   44.8070 C   0  0  0  0  0  0  0  0  0  0  0  0
   56.5470   30.7970   44.0730 C   0  0  0  0  0  0  0  0  0  0  0  0
   56.2680   29.6830   44.9160 O   0  0  0  0  0  0  0  0  0  0  0  0
   57.1910   28.6780   45.2360 C   0  0  0  0  0  0  0  0  0  0  0  0
   57.4580   27.6920   44.2800 C   0  0  0  0  0  0  0  0  0  0  0  0
   58.3840   26.6810   44.5440 C   0  0  0  0  0  0  0  0  0  0  0  0
   59.0600   26.6500   45.7680 C   0  0  0  0  0  0  0  0  0  0  0  0
   58.8070   27.6300   46.7400 C   0  0  0  0  0  0  0  0  0  0  0  0
   59.5260   27.5880   48.0650 C   0  0  0  0  0  0  0  0  0  0  0  0
   59.7450   28.9590   48.6510 C   0  0  0  0  0  0  0  0  0  0  0  0
   60.2630   29.8800   47.9640 O   0  0  0  0  0  0  0  0  0  0  0  0
   59.4960   29.1840   50.0430 N   0  0  0  0  0  0  0  0  0  0  0  0
   58.7290   30.0910   50.5830 C   0  0  0  0  0  0  0  0  0  0  0  0
   57.7270   29.6680   51.4020 N   0  0  0  0  0  0  0  0  0  0  0  0
   56.8540   30.5230   51.9960 C   0  0  0  0  0  0  0  0  0  0  0  0
   56.9600   31.8920   51.7760 C   0  0  0  0  0  0  0  0  0  0  0  0
   57.9860   32.3720   50.9660 C   0  0  0  0  0  0  0  0  0  0  0  0
   58.8940   31.4830   50.3710 C   0  0  0  0  0  0  0  0  0  0  0  0
   59.9490   31.9900   49.6170 O   0  0  0  0  0  0  0  0  0  0  0  0
   57.8610   28.6350   46.4770 C   0  0  0  0  0  0  0  0  0  0  0  0
   57.0230   33.1100   44.9710 C   0  0  0  0  0  0  0  0  0  0  0  0
   57.8340   34.0050   45.6740 C   0  0  0  0  0  0  0  0  0  0  0  0
   61.4180   34.5110   48.9730 C   0  0  0  0  0  0  0  0  0  0  0  0
   62.6430   33.7750   49.5230 C   0  0  0  0  0  0  0  0  0  0  0  0
   63.4608   31.6951   50.8476 H   0  0  0  0  0  0  0  0  0  0  0  0
   63.4823   30.5122   49.4960 H   0  0  0  0  0  0  0  0  0  0  0  0
   64.6266   31.8969   49.4960 H   0  0  0  0  0  0  0  0  0  0  0  0
   63.9674   32.4010   47.4105 H   0  0  0  0  0  0  0  0  0  0  0  0
   62.4771   31.3709   47.2116 H   0  0  0  0  0  0  0  0  0  0  0  0
   62.9295   34.2169   46.5237 H   0  0  0  0  0  0  0  0  0  0  0  0
   61.7196   33.0220   45.9002 H   0  0  0  0  0  0  0  0  0  0  0  0
   60.4101   31.8969   46.4659 H   0  0  0  0  0  0  0  0  0  0  0  0
   58.9612   30.3046   45.2160 H   0  0  0  0  0  0  0  0  0  0  0  0
   55.6041   31.2878   43.7899 H   0  0  0  0  0  0  0  0  0  0  0  0
   57.0663   30.4505   43.1673 H   0  0  0  0  0  0  0  0  0  0  0  0
   56.9343   27.7135   43.3129 H   0  0  0  0  0  0  0  0  0  0  0  0
   58.5823   25.9072   43.7877 H   0  0  0  0  0  0  0  0  0  0  0  0
   59.7926   25.8546   45.9695 H   0  0  0  0  0  0  0  0  0  0  0  0
   58.9273   26.9946   48.7717 H   0  0  0  0  0  0  0  0  0  0  0  0
   60.5150   27.1383   47.8925 H   0  0  0  0  0  0  0  0  0  0  0  0
   56.0623   30.1318   52.6518 H   0  0  0  0  0  0  0  0  0  0  0  0
   56.2423   32.5871   52.2361 H   0  0  0  0  0  0  0  0  0  0  0  0
   58.0851   33.4536   50.7917 H   0  0  0  0  0  0  0  0  0  0  0  0
   60.7050   31.3980   49.2920 H   0  0  0  0  0  0  0  0  0  0  0  0
   57.6414   29.3930   47.2433 H   0  0  0  0  0  0  0  0  0  0  0  0
   56.0696   33.4546   44.5442 H   0  0  0  0  0  0  0  0  0  0  0  0
   57.5093   35.0475   45.8073 H   0  0  0  0  0  0  0  0  0  0  0  0
   61.6128   35.5936   48.9851 H   0  0  0  0  0  0  0  0  0  0  0  0
   60.5502   34.2698   49.6044 H   0  0  0  0  0  0  0  0  0  0  0  0
   63.5597   34.2753   49.1773 H   0  0  0  0  0  0  0  0  0  0  0  0
   62.6191   33.7843   50.6227 H   0  0  0  0  0  0  0  0  0  0  0  0
  1  2  1  0
  2  3  1  0
  3  4  1  0
  4  5  1  0
  5  6  1  0
  6  7  2  0
  6  8  1  0
  8  9  2  0
  9 10  1  0
 10 11  2  0
 11 12  1  0
 12 13  1  0
 13 14  1  0
 14 15  2  0
 15 16  1  0
 16 17  2  0
 17 18  1  0
 18 19  1  0
 19 20  1  0
 20 21  2  0
 20 22  1  0
 22 23  2  3
 23 24  1  0
 24 25  1  0
 25 26  2  0
 26 27  1  0
 27 28  2  0
 28 29  1  0
 18 30  2  0
 11 31  1  0
 31 32  2  0
  5 33  1  0
 33 34  1  0
 34  2  1  0
 32  8  1  0
 30 14  1  0
 28 23  1  0
  1 35  1  0
  1 36  1  0
  1 37  1  0
  3 38  1  0
  3 39  1  0
  4 40  1  0
  4 41  1  0
  9 42  1  0
 10 43  1  0
 12 44  1  0
 12 45  1  0
 15 46  1  0
 16 47  1  0
 17 48  1  0
 19 49  1  0
 19 50  1  0
 25 51  1  0
 26 52  1  0
 27 53  1  0
 29 54  1  0
 30 55  1  0
 31 56  1  0
 32 57  1  0
 33 58  1  0
 33 59  1  0
 34 60  1  0
 34 61  1  0
M  CHG  1  24  -1
M  END
>  <UniqueID>  (5) 
5

>  <SMILES>  (5) 
CN1CCN(C(=O)c2ccc(COc3cccc(CC(=O)N=c4[n-]cccc4O)c3)cc2)CC1

>  <Energy>  (5) 
86.78728188506778

>  <Genealogy>  (5) 
CN1CCN(C(=O)c2ccc(COc3cccc(CC(=O)N=c4[n-]cccc4O)c3)cc2)CC1 (protonated)
CN1CCN(C(=O)c2ccc(COc3cccc(CC(=O)N=c4[n-]cccc4O)c3)cc2)CC1 (3D coordinates assigned)
CN1CCN(C(=O)c2ccc(COc3cccc(CC(=O)N=c4[n-]cccc4O)c3)cc2)CC1 (nonaromatic ring conformer: 86.78728188506778 kcal/mol)

>  <smiles>  (5) 
CN1CCN(C(=O)c2ccc(COc3cccc(CC(=O)N=c4[nH]cccc4O)c3)cc2)CC1

>  <score_type>  (5) 
oracle

>  <origin>  (5) 
adg

>  <m_score__min__energy>  (5) 
-12.23

>  <m_primary>  (5) 
energy

$$$$
5:0
     RDKit          3D

 50 52  0  0  0  0  0  0  0  0999 V2000
   60.8640   33.6090   47.5330 N   0  0  0  0  0  0  0  0  0  0  0  0
   59.6790   33.7560   46.7390 C   0  0  0  0  0  0  0  0  0  0  0  0
   59.6700   34.6730   45.6770 C   0  0  0  0  0  0  0  0  0  0  0  0
   58.5270   34.8320   44.8890 C   0  0  0  0  0  0  0  0  0  0  0  0
   57.3860   34.0710   45.1500 C   0  0  0  0  0  0  0  0  0  0  0  0
   57.3810   33.1570   46.2060 C   0  0  0  0  0  0  0  0  0  0  0  0
   58.5190   33.0040   47.0210 C   0  0  0  0  0  0  0  0  0  0  0  0
   58.5300   32.0580   48.1020 N   0  0  0  0  0  0  0  0  0  0  0  0
   59.0130   32.3010   49.4310 C   0  0  0  0  0  0  0  0  0  0  0  0
   59.1970   33.4930   49.7960 O   0  0  0  0  0  0  0  0  0  0  0  0
   59.2400   31.2010   50.3970 C   0  0  0  0  0  0  0  0  0  0  0  0
   60.3600   30.3600   50.2780 C   0  0  0  0  0  0  0  0  0  0  0  0
   60.5580   29.3170   51.1840 C   0  0  0  0  0  0  0  0  0  0  0  0
   59.6410   29.0950   52.2120 C   0  0  0  0  0  0  0  0  0  0  0  0
   58.5090   29.9160   52.3460 C   0  0  0  0  0  0  0  0  0  0  0  0
   57.5080   29.6570   53.4580 C   0  0  1  0  0  0  0  0  0  0  0  0
   57.0590   30.8710   54.0120 O   0  0  0  0  0  0  0  0  0  0  0  0
   56.3340   28.7920   52.9690 C   0  0  0  0  0  0  0  0  0  0  0  0
   55.2360   28.8650   53.9270 N   0  0  0  0  0  0  0  0  0  0  0  0
   54.0270   29.6120   53.7360 C   0  0  0  0  0  0  0  0  0  0  0  0
   53.9750   30.7960   54.1620 O   0  0  0  0  0  0  0  0  0  0  0  0
   52.8090   29.0220   53.0780 C   0  0  0  0  0  0  0  0  0  0  0  0
   52.2200   29.9920   52.0890 C   0  0  0  0  0  0  0  0  0  0  0  0
   52.2590   29.7060   50.7140 C   0  0  0  0  0  0  0  0  0  0  0  0
   51.7310   30.6120   49.7880 C   0  0  0  0  0  0  0  0  0  0  0  0
   51.1650   31.8140   50.2280 C   0  0  0  0  0  0  0  0  0  0  0  0
   50.6430   32.7120   49.3040 O   0  0  0  0  0  0  0  0  0  0  0  0
   51.1240   32.1070   51.5980 C   0  0  0  0  0  0  0  0  0  0  0  0
   50.5600   33.3000   52.0420 O   0  0  0  0  0  0  0  0  0  0  0  0
   51.6510   31.2020   52.5250 C   0  0  0  0  0  0  0  0  0  0  0  0
   58.3120   30.9650   51.4270 C   0  0  0  0  0  0  0  0  0  0  0  0
   60.8320   33.0920   48.4410 H   0  0  0  0  0  0  0  0  0  0  0  0
   61.7740   34.0280   47.2420 H   0  0  0  0  0  0  0  0  0  0  0  0
   60.5685   35.2706   45.4634 H   0  0  0  0  0  0  0  0  0  0  0  0
   58.5262   35.5575   44.0622 H   0  0  0  0  0  0  0  0  0  0  0  0
   56.4900   34.1914   44.5233 H   0  0  0  0  0  0  0  0  0  0  0  0
   56.4828   32.5531   46.4022 H   0  0  0  0  0  0  0  0  0  0  0  0
   61.0842   30.5248   49.4666 H   0  0  0  0  0  0  0  0  0  0  0  0
   61.4404   28.6674   51.0873 H   0  0  0  0  0  0  0  0  0  0  0  0
   59.8056   28.2714   52.9224 H   0  0  0  0  0  0  0  0  0  0  0  0
   58.0182   29.0895   54.2503 H   0  0  0  0  0  0  0  0  0  0  0  0
   56.0690   30.8360   54.0740 H   0  0  0  0  0  0  0  0  0  0  0  0
   55.9909   29.1606   51.9910 H   0  0  0  0  0  0  0  0  0  0  0  0
   56.6660   27.7475   52.8748 H   0  0  0  0  0  0  0  0  0  0  0  0
   53.0933   28.0981   52.5530 H   0  0  0  0  0  0  0  0  0  0  0  0
   52.0581   28.8038   53.8516 H   0  0  0  0  0  0  0  0  0  0  0  0
   52.7072   28.7645   50.3636 H   0  0  0  0  0  0  0  0  0  0  0  0
   51.7607   30.3795   48.7133 H   0  0  0  0  0  0  0  0  0  0  0  0
   51.6203   31.4375   53.5991 H   0  0  0  0  0  0  0  0  0  0  0  0
   57.4228   31.6065   51.5158 H   0  0  0  0  0  0  0  0  0  0  0  0
  1  2  1  0
  2  3  2  0
  3  4  1  0
  4  5  2  0
  5  6  1  0
  6  7  2  0
  7  8  1  0
  8  9  1  0
  9 10  2  0
  9 11  1  0
 11 12  2  0
 12 13  1  0
 13 14  2  0
 14 15  1  0
 15 16  1  0
 16 17  1  0
 16 18  1  0
 18 19  1  0
 19 20  1  0
 20 21  2  0
 20 22  1  0
 22 23  1  0
 23 24  2  0
 24 25  1  0
 25 26  2  0
 26 27  1  0
 26 28  1  0
 28 29  1  0
 28 30  2  0
 15 31  2  0
  7  2  1  0
 31 11  1  0
 30 23  1  0
  1 32  1  0
  1 33  1  0
  3 34  1  0
  4 35  1  0
  5 36  1  0
  6 37  1  0
 12 38  1  0
 13 39  1  0
 14 40  1  0
 16 41  1  1
 17 42  1  0
 18 43  1  0
 18 44  1  0
 22 45  1  0
 22 46  1  0
 24 47  1  0
 25 48  1  0
 30 49  1  0
 31 50  1  0
M  CHG  4   8  -1  19  -1  27  -1  29  -1
M  END
>  <UniqueID>  (6) 
6

>  <SMILES>  (6) 
Nc1ccccc1[N-]C(=O)c1cccc([C@@H](O)C[N-]C(=O)Cc2ccc([O-])c([O-])c2)c1

>  <Energy>  (6) 
56.59519847123453

>  <Genealogy>  (6) 
Nc1ccccc1[N-]C(=O)c1cccc(C(O)C[N-]C(=O)Cc2ccc([O-])c([O-])c2)c1 (protonated)
Nc1ccccc1[N-]C(=O)c1cccc([C@@H](O)C[N-]C(=O)Cc2ccc([O-])c([O-])c2)c1 (chirality)
Nc1ccccc1[N-]C(=O)c1cccc([C@@H](O)C[N-]C(=O)Cc2ccc([O-])c([O-])c2)c1 (3D coordinates assigned)
Nc1ccccc1[N-]C(=O)c1cccc([C@@H](O)C[N-]C(=O)Cc2ccc([O-])c([O-])c2)c1 (optimized conformer: 56.59519847123453 kcal/mol)

>  <smiles>  (6) 
Nc1ccccc1NC(=O)c1cccc(C(O)CNC(=O)Cc2ccc(O)c(O)c2)c1

>  <score_type>  (6) 
oracle

>  <origin>  (6) 
adg

>  <m_score__min__energy>  (6) 
-19.079999999999998

>  <m_primary>  (6) 
energy

$$$$
6:0
     RDKit          3D

 42 44  0  0  0  0  0  0  0  0999 V2000
   58.0251   28.6791   43.7616 H   0  0  0  0  0  0  0  0  0  0  0  0
   57.7530   27.6850   44.1460 C   0  0  0  0  0  0  0  0  0  0  0  0
   57.1071   27.0230   43.5506 H   0  0  0  0  0  0  0  0  0  0  0  0
   58.2090   27.2800   45.3410 C   0  0  0  0  0  0  0  0  0  0  0  0
   57.9620   26.0520   45.9790 C   0  0  0  0  0  0  0  0  0  0  0  0
   57.3760   24.9240   45.5330 C   0  0  0  0  0  0  0  0  0  0  0  0
   58.0394   24.1073   45.2123 H   0  0  0  0  0  0  0  0  0  0  0  0
   55.9270   24.6880   45.4370 C   0  0  0  0  0  0  0  0  0  0  0  0
   55.3560   23.4840   45.2460 N   0  0  0  0  0  0  0  0  0  0  0  0
   54.0350   23.7480   45.3490 C   0  0  0  0  0  0  0  0  0  0  0  0
   53.1530   22.8600   45.2080 O   0  0  0  0  0  0  0  0  0  0  0  0
   53.7330   25.0350   45.6230 N   0  0  0  0  0  0  0  0  0  0  0  0
   54.9440   25.6120   45.6890 C   0  0  0  0  0  0  0  0  0  0  0  0
   55.1440   26.9560   45.9770 O   0  0  0  0  0  0  0  0  0  0  0  0
   58.4710   26.1740   47.2630 C   0  0  0  0  0  0  0  0  0  0  0  0
   58.4210   25.4202   48.0625 H   0  0  0  0  0  0  0  0  0  0  0  0
   59.0520   27.4220   47.3450 C   0  0  0  0  0  0  0  0  0  0  0  0
   59.7150   27.9820   48.5660 C   0  0  0  0  0  0  0  0  0  0  0  0
   59.2315   27.5736   49.4657 H   0  0  0  0  0  0  0  0  0  0  0  0
   60.7797   27.7057   48.5645 H   0  0  0  0  0  0  0  0  0  0  0  0
   59.6206   29.0779   48.5645 H   0  0  0  0  0  0  0  0  0  0  0  0
   58.9010   28.0890   46.1820 N   0  0  0  0  0  0  0  0  0  0  0  0
   59.3060   29.4460   45.9550 C   0  0  0  0  0  0  0  0  0  0  0  0
   60.1220   29.6990   45.0260 O   0  0  0  0  0  0  0  0  0  0  0  0
   58.8610   30.5250   46.9040 C   0  0  0  0  0  0  0  0  0  0  0  0
   57.9339   30.2001   47.3990 H   0  0  0  0  0  0  0  0  0  0  0  0
   59.6700   30.6872   47.6315 H   0  0  0  0  0  0  0  0  0  0  0  0
   58.6020   31.8380   46.2010 C   0  0  0  0  0  0  0  0  0  0  0  0
   59.4320   32.9390   46.4740 C   0  0  0  0  0  0  0  0  0  0  0  0
   60.2469   32.8412   47.2063 H   0  0  0  0  0  0  0  0  0  0  0  0
   59.2280   34.1560   45.8210 C   0  0  0  0  0  0  0  0  0  0  0  0
   59.8756   35.0158   46.0477 H   0  0  0  0  0  0  0  0  0  0  0  0
   58.2050   34.2840   44.8820 C   0  0  0  0  0  0  0  0  0  0  0  0
   58.0443   35.2457   44.3728 H   0  0  0  0  0  0  0  0  0  0  0  0
   57.3840   33.1930   44.5870 C   0  0  0  0  0  0  0  0  0  0  0  0
   56.5820   33.2981   43.8415 H   0  0  0  0  0  0  0  0  0  0  0  0
   57.5770   31.9580   45.2390 C   0  0  0  0  0  0  0  0  0  0  0  0
   56.7740   30.8410   44.9540 O   0  0  0  0  0  0  0  0  0  0  0  0
   56.3490   30.4590   43.6500 C   0  0  0  0  0  0  0  0  0  0  0  0
   55.5331   29.7256   43.7304 H   0  0  0  0  0  0  0  0  0  0  0  0
   55.9924   31.3461   43.1060 H   0  0  0  0  0  0  0  0  0  0  0  0
   57.1932   30.0101   43.1060 H   0  0  0  0  0  0  0  0  0  0  0  0
  1  2  1  0
  2  3  1  0
  2  4  2  0
  4  5  1  0
  5  6  2  0
  6  7  1  0
  6  8  1  0
  8  9  1  0
  9 10  1  0
 10 11  2  0
 10 12  1  0
 12 13  1  0
 13 14  1  0
  5 15  1  0
 15 16  1  0
 15 17  2  0
 17 18  1  0
 18 19  1  0
 18 20  1  0
 18 21  1  0
 17 22  1  0
 22 23  1  0
 23 24  2  0
 23 25  1  0
 25 26  1  0
 25 27  1  0
 25 28  1  0
 28 29  2  0
 29 30  1  0
 29 31  1  0
 31 32  1  0
 31 33  2  0
 33 34  1  0
 33 35  1  0
 35 36  1  0
 35 37  2  0
 37 38  1  0
 38 39  1  0
 39 40  1  0
 39 41  1  0
 39 42  1  0
 22  4  1  0
 37 28  1  0
 13  8  2  0
M  CHG  3   9  -1  12  -1  14  -1
M  END
>  <UniqueID>  (7) 
7

>  <SMILES>  (7) 
C=c1/c(=C\c2[n-]c(=O)[n-]c2[O-])cc(C)n1C(=O)Cc1ccccc1OC

>  <Energy>  (7) 
118.84943685567978

>  <Genealogy>  (7) 
C=c1c(=Cc2[n-]c(=O)[n-]c2[O-])cc(C)n1C(=O)Cc1ccccc1OC (protonated)
C=c1/c(=C\c2[n-]c(=O)[n-]c2[O-])cc(C)n1C(=O)Cc1ccccc1OC (cis-trans isomerization)
C=c1/c(=C\c2[n-]c(=O)[n-]c2[O-])cc(C)n1C(=O)Cc1ccccc1OC (3D coordinates assigned)
C=c1/c(=C\c2[n-]c(=O)[n-]c2[O-])cc(C)n1C(=O)Cc1ccccc1OC (optimized conformer: 118.84943685567978 kcal/mol)

>  <smiles>  (7) 
C=c1c(=Cc2[nH]c(=O)[nH]c2O)cc(C)n1C(=O)Cc1ccccc1OC

>  <score_type>  (7) 
oracle

>  <origin>  (7) 
adg

>  <m_score__min__energy>  (7) 
-15.52

>  <m_primary>  (7) 
energy

$$$$
7:0
     RDKit          3D

 45 48  0  0  0  0  0  0  0  0999 V2000
   58.7309   30.8772   48.0845 H   0  0  0  0  0  0  0  0  0  0  0  0
   58.5320   30.6030   47.0380 C   0  0  0  0  0  0  0  0  0  0  0  0
   58.4592   29.5435   46.7514 H   0  0  0  0  0  0  0  0  0  0  0  0
   58.3780   31.5620   46.1100 C   0  0  0  0  0  0  0  0  0  0  0  0
   58.1210   31.3640   44.7420 C   0  0  0  0  0  0  0  0  0  0  0  0
   57.7750   30.2570   44.0560 C   0  0  0  0  0  0  0  0  0  0  0  0
   57.6794   30.3519   42.9643 H   0  0  0  0  0  0  0  0  0  0  0  0
   57.5140   28.9320   44.6410 C   0  0  0  0  0  0  0  0  0  0  0  0
   56.3350   28.5170   45.2180 C   0  0  0  0  0  0  0  0  0  0  0  0
   55.1450   29.2340   45.2360 O   0  0  0  0  0  0  0  0  0  0  0  0
   56.4850   27.3030   45.7810 N   0  0  0  0  0  0  0  0  0  0  0  0
   57.7850   27.0230   45.5460 C   0  0  0  0  0  0  0  0  0  0  0  0
   58.3370   25.9600   45.9340 O   0  0  0  0  0  0  0  0  0  0  0  0
   58.4430   27.9880   44.8740 N   0  0  0  0  0  0  0  0  0  0  0  0
   59.4560   28.0110   44.6250 H   0  0  0  0  0  0  0  0  0  0  0  0
   58.2770   32.5960   44.1360 C   0  0  0  0  0  0  0  0  0  0  0  0
   58.2056   32.8097   43.0593 H   0  0  0  0  0  0  0  0  0  0  0  0
   58.5390   33.5060   45.1370 C   0  0  0  0  0  0  0  0  0  0  0  0
   58.8020   34.9640   44.8990 C   0  0  0  0  0  0  0  0  0  0  0  0
   58.8955   35.4822   45.8648 H   0  0  0  0  0  0  0  0  0  0  0  0
   59.7355   35.0799   44.3289 H   0  0  0  0  0  0  0  0  0  0  0  0
   57.9678   35.3988   44.3289 H   0  0  0  0  0  0  0  0  0  0  0  0
   58.6000   32.8870   46.3400 N   0  0  0  0  0  0  0  0  0  0  0  0
   58.9290   33.5490   47.6150 C   0  0  0  0  0  0  0  0  0  0  0  0
   58.6393   34.6085   47.5563 H   0  0  0  0  0  0  0  0  0  0  0  0
   58.3804   33.0458   48.4249 H   0  0  0  0  0  0  0  0  0  0  0  0
   60.4050   33.4560   47.9020 C   0  0  0  0  0  0  0  0  0  0  0  0
   61.3210   33.1880   46.8560 C   0  0  0  0  0  0  0  0  0  0  0  0
   60.9483   33.0384   45.8319 H   0  0  0  0  0  0  0  0  0  0  0  0
   62.7000   33.1110   47.1110 C   0  0  0  0  0  0  0  0  0  0  0  0
   63.4092   32.9044   46.2959 H   0  0  0  0  0  0  0  0  0  0  0  0
   63.1540   33.3010   48.4150 C   0  0  0  0  0  0  0  0  0  0  0  0
   64.4580   33.2540   48.7870 N   0  0  0  0  0  0  0  0  0  0  0  0
   64.5850   33.4790   50.1190 C   0  0  0  0  0  0  0  0  0  0  0  0
   65.7170   33.4950   50.7590 N   0  0  0  0  0  0  0  0  0  0  0  0
   66.8560   32.6360   50.5750 C   0  0  0  0  0  0  0  0  0  0  0  0
   67.9300   33.1450   50.1590 O   0  0  0  0  0  0  0  0  0  0  0  0
   66.8240   31.1620   50.8550 C   0  0  0  0  0  0  0  0  0  0  0  0
   66.8204   30.9953   51.9423 H   0  0  0  0  0  0  0  0  0  0  0  0
   65.9161   30.7246   50.4140 H   0  0  0  0  0  0  0  0  0  0  0  0
   67.7120   30.6856   50.4140 H   0  0  0  0  0  0  0  0  0  0  0  0
   63.0960   33.7420   50.8800 S   0  0  0  0  0  0  0  0  0  0  0  0
   62.2570   33.5590   49.4380 C   0  0  0  0  0  0  0  0  0  0  0  0
   60.8850   33.6400   49.2160 C   0  0  0  0  0  0  0  0  0  0  0  0
   60.1915   33.8427   50.0455 H   0  0  0  0  0  0  0  0  0  0  0  0
  1  2  1  0
  2  3  1  0
  2  4  2  0
  4  5  1  0
  5  6  2  0
  6  7  1  0
  6  8  1  0
  8  9  2  0
  9 10  1  0
  9 11  1  0
 11 12  1  0
 12 13  2  0
 12 14  1  0
 14 15  1  0
  5 16  1  0
 16 17  1  0
 16 18  2  0
 18 19  1  0
 19 20  1  0
 19 21  1  0
 19 22  1  0
 18 23  1  0
 23 24  1  0
 24 25  1  0
 24 26  1  0
 24 27  1  0
 27 28  2  0
 28 29  1  0
 28 30  1  0
 30 31  1  0
 30 32  2  0
 32 33  1  0
 33 34  1  0
 34 35  2  0
 35 36  1  0
 36 37  2  0
 36 38  1  0
 38 39  1  0
 38 40  1  0
 38 41  1  0
 34 42  1  0
 42 43  1  0
 43 44  2  0
 44 45  1  0
 23  4  1  0
 44 27  1  0
 14  8  1  0
 43 32  1  0
M  CHG  3  10  -1  11  -1  33  -1
M  END
>  <UniqueID>  (8) 
8

>  <SMILES>  (8) 
C=c1/c(=C\c2[nH]c(=O)[n-]c2[O-])cc(C)n1Cc1ccc2[n-]/c(=N\C(C)=O)sc2c1

>  <Energy>  (8) 
155.33440521299076

>  <Genealogy>  (8) 
C=c1c(=Cc2[nH]c(=O)[n-]c2[O-])cc(C)n1Cc1ccc2[n-]c(=NC(C)=O)sc2c1 (protonated)
C=c1/c(=C\c2[nH]c(=O)[n-]c2[O-])cc(C)n1Cc1ccc2[n-]/c(=N\C(C)=O)sc2c1 (cis-trans isomerization)
C=c1/c(=C\c2[nH]c(=O)[n-]c2[O-])cc(C)n1Cc1ccc2[n-]/c(=N\C(C)=O)sc2c1 (3D coordinates assigned)
C=c1/c(=C\c2[nH]c(=O)[n-]c2[O-])cc(C)n1Cc1ccc2[n-]/c(=N\C(C)=O)sc2c1 (optimized conformer: 155.33440521299076 kcal/mol)

>  <smiles>  (8) 
C=c1c(=Cc2[nH]c(=O)[nH]c2O)cc(C)n1Cc1ccc2[nH]c(=NC(C)=O)sc2c1

>  <score_type>  (8) 
oracle

>  <origin>  (8) 
adg

>  <m_score__min__energy>  (8) 
-15.59

>  <m_primary>  (8) 
energy

$$$$
8:0
     RDKit          3D

 46 48  0  0  0  0  0  0  0  0999 V2000
   57.6624   28.7525   46.4253 H   0  0  0  0  0  0  0  0  0  0  0  0
   57.4840   27.9440   45.7010 C   0  0  0  0  0  0  0  0  0  0  0  0
   57.5390   28.2790   44.3950 C   0  0  0  0  0  0  0  0  0  0  0  0
   57.8350   27.3300   43.3470 C   0  0  0  0  0  0  0  0  0  0  0  0
   58.0970   26.5820   42.5050 N   0  0  0  0  0  0  0  0  0  0  0  0
   57.2660   29.7040   43.9780 C   0  0  0  0  0  0  0  0  0  0  0  0
   57.4927   29.8147   42.9073 H   0  0  0  0  0  0  0  0  0  0  0  0
   56.2072   29.9288   44.1742 H   0  0  0  0  0  0  0  0  0  0  0  0
   58.1160   30.6730   44.7650 C   0  0  0  0  0  0  0  0  0  0  0  0
   59.3170   30.4530   44.8760 O   0  0  0  0  0  0  0  0  0  0  0  0
   57.5260   31.8380   45.3980 N   0  0  0  0  0  0  0  0  0  0  0  0
   56.5230   31.6250   45.6240 H   0  0  0  0  0  0  0  0  0  0  0  0
   57.5250   33.0010   44.4680 C   0  0  0  0  0  0  0  0  0  0  0  0
   57.6277   32.6310   43.4372 H   0  0  0  0  0  0  0  0  0  0  0  0
   56.5778   33.5434   44.6047 H   0  0  0  0  0  0  0  0  0  0  0  0
   58.6740   33.9750   44.7610 C   0  0  0  0  0  0  0  0  0  0  0  0
   59.6302   33.4416   44.6553 H   0  0  0  0  0  0  0  0  0  0  0  0
   58.6093   34.8092   44.0469 H   0  0  0  0  0  0  0  0  0  0  0  0
   58.5810   34.5300   46.1340 N   0  0  0  0  0  0  0  0  0  0  0  0
   59.8940   35.0640   46.5540 C   0  0  0  0  0  0  0  0  0  0  0  0
   60.4802   35.3215   45.6595 H   0  0  0  0  0  0  0  0  0  0  0  0
   59.7264   35.9559   47.1756 H   0  0  0  0  0  0  0  0  0  0  0  0
   60.6570   34.0480   47.3680 C   0  0  0  0  0  0  0  0  0  0  0  0
   60.6300   34.0930   48.7750 C   0  0  0  0  0  0  0  0  0  0  0  0
   60.0525   34.8772   49.2864 H   0  0  0  0  0  0  0  0  0  0  0  0
   61.3350   33.1440   49.5270 C   0  0  0  0  0  0  0  0  0  0  0  0
   61.3113   33.1850   50.6260 H   0  0  0  0  0  0  0  0  0  0  0  0
   62.0700   32.1430   48.8790 C   0  0  0  0  0  0  0  0  0  0  0  0
   62.6264   31.4003   49.4695 H   0  0  0  0  0  0  0  0  0  0  0  0
   62.0970   32.0870   47.4790 C   0  0  0  0  0  0  0  0  0  0  0  0
   62.6698   31.2966   46.9718 H   0  0  0  0  0  0  0  0  0  0  0  0
   61.3950   33.0370   46.7240 C   0  0  0  0  0  0  0  0  0  0  0  0
   61.4210   32.9922   45.6252 H   0  0  0  0  0  0  0  0  0  0  0  0
   58.0190   33.5730   47.1210 C   0  0  0  0  0  0  0  0  0  0  0  0
   58.5238   33.7240   48.0866 H   0  0  0  0  0  0  0  0  0  0  0  0
   56.9386   33.7649   47.1971 H   0  0  0  0  0  0  0  0  0  0  0  0
   58.2060   32.1120   46.6900 C   0  0  0  0  0  0  0  0  0  0  0  0
   59.2809   31.9059   46.5797 H   0  0  0  0  0  0  0  0  0  0  0  0
   57.7619   31.4638   47.4598 H   0  0  0  0  0  0  0  0  0  0  0  0
   57.2080   26.5990   46.2610 C   0  0  0  0  0  0  0  0  0  0  0  0
   58.3220   25.4200   46.7430 S   0  0  0  0  0  0  0  0  0  0  0  0
   57.1300   24.2890   47.0710 C   0  0  0  0  0  0  0  0  0  0  0  0
   57.3500   23.1310   47.5040 O   0  0  0  0  0  0  0  0  0  0  0  0
   55.8930   24.7580   46.8170 N   0  0  0  0  0  0  0  0  0  0  0  0
   55.9370   26.0340   46.3550 C   0  0  0  0  0  0  0  0  0  0  0  0
   54.7800   26.7160   45.9990 O   0  0  0  0  0  0  0  0  0  0  0  0
  1  2  1  0
  2  3  2  0
  3  4  1  0
  4  5  3  0
  3  6  1  0
  6  7  1  0
  6  8  1  0
  6  9  1  0
  9 10  2  0
  9 11  1  0
 11 12  1  0
 11 13  1  0
 13 14  1  0
 13 15  1  0
 13 16  1  0
 16 17  1  0
 16 18  1  0
 16 19  1  0
 19 20  1  0
 20 21  1  0
 20 22  1  0
 20 23  1  0
 23 24  2  0
 24 25  1  0
 24 26  1  0
 26 27  1  0
 26 28  2  0
 28 29  1  0
 28 30  1  0
 30 31  1  0
 30 32  2  0
 32 33  1  0
 19 34  1  0
 34 35  1  0
 34 36  1  0
 34 37  1  0
 37 38  1  0
 37 39  1  0
  2 40  1  0
 40 41  1  0
 41 42  1  0
 42 43  2  0
 42 44  1  0
 44 45  1  0
 45 46  1  0
 37 11  1  0
 45 40  2  0
 32 23  1  0
M  CHG  3  11   1  44  -1  46  -1
M  END
>  <UniqueID>  (9) 
9

>  <SMILES>  (9) 
N#C/C(=C\c1sc(=O)[n-]c1[O-])CC(=O)[NH+]1CCN(Cc2ccccc2)CC1

>  <Energy>  (9) 
93.08846810550574

>  <Genealogy>  (9) 
N#CC(=Cc1sc(=O)[n-]c1[O-])CC(=O)[NH+]1CCN(Cc2ccccc2)CC1 (protonated)
N#C/C(=C\c1sc(=O)[n-]c1[O-])CC(=O)[NH+]1CCN(Cc2ccccc2)CC1 (cis-trans isomerization)
N#C/C(=C\c1sc(=O)[n-]c1[O-])CC(=O)[NH+]1CCN(Cc2ccccc2)CC1 (3D coordinates assigned)
N#C/C(=C\c1sc(=O)[n-]c1[O-])CC(=O)[NH+]1CCN(Cc2ccccc2)CC1 (nonaromatic ring conformer: 93.08846810550574 kcal/mol)

>  <smiles>  (9) 
N#CC(=Cc1sc(=O)[nH]c1O)CC(=O)N1CCN(Cc2ccccc2)CC1

>  <score_type>  (9) 
oracle

>  <origin>  (9) 
adg

>  <m_score__min__energy>  (9) 
-13.699999999999999

>  <m_primary>  (9) 
energy

$$$$
9:0
     RDKit          3D

 49 51  0  0  0  0  0  0  0  0999 V2000
   61.8630   31.1660   47.1080 C   0  0  0  0  0  0  0  0  0  0  0  0
   60.8020   30.7760   48.1030 C   0  0  0  0  0  0  0  0  0  0  0  0
   60.7900   31.3960   49.3640 C   0  0  0  0  0  0  0  0  0  0  0  0
   59.8300   31.0510   50.3170 C   0  0  0  0  0  0  0  0  0  0  0  0
   58.8730   30.0820   50.0260 C   0  0  0  0  0  0  0  0  0  0  0  0
   58.8680   29.4560   48.7790 C   0  0  0  0  0  0  0  0  0  0  0  0
   59.8230   29.7920   47.8050 C   0  0  0  0  0  0  0  0  0  0  0  0
   59.7870   28.9480   46.2470 S   0  0  0  0  0  0  0  0  0  0  0  0
   60.3550   27.5690   46.4270 O   0  0  0  0  0  0  0  0  0  0  0  0
   60.6300   29.6740   45.2360 O   0  0  0  0  0  0  0  0  0  0  0  0
   58.1300   28.8800   45.6420 C   0  0  0  0  0  0  0  0  0  0  0  0
   57.1950   27.8740   45.8420 C   0  0  0  0  0  0  0  0  0  0  0  0
   57.4000   26.6110   46.6160 C   0  0  0  0  0  0  0  0  0  0  0  0
   56.0320   28.1980   45.2450 N   0  0  0  0  0  0  0  0  0  0  0  0
   56.2070   29.3990   44.6600 C   0  0  0  0  0  0  0  0  0  0  0  0
   55.1520   30.0660   43.8320 C   0  0  0  0  0  0  0  0  0  0  0  0
   57.4950   29.8590   44.8940 C   0  0  0  0  0  0  0  0  0  0  0  0
   58.0930   31.1150   44.4100 C   0  0  0  0  0  0  0  0  0  0  0  0
   58.6010   31.1320   43.2560 O   0  0  0  0  0  0  0  0  0  0  0  0
   58.1360   32.2960   45.2390 N   0  0  0  0  0  0  0  0  0  0  0  0
   58.3920   33.6170   44.6470 C   0  0  0  0  0  0  0  0  0  0  0  0
   59.5990   34.2790   45.3260 C   0  0  0  0  0  0  0  0  0  0  0  0
   59.5900   34.1400   46.8660 C   0  0  0  0  0  0  0  0  0  0  0  0
   58.3070   33.5030   47.4110 C   0  0  0  0  0  0  0  0  0  0  0  0
   58.0150   32.1750   46.7030 C   0  0  0  0  0  0  0  0  0  0  0  0
   62.7645   31.4974   47.6442 H   0  0  0  0  0  0  0  0  0  0  0  0
   62.1096   30.2998   46.4765 H   0  0  0  0  0  0  0  0  0  0  0  0
   61.4899   31.9858   46.4765 H   0  0  0  0  0  0  0  0  0  0  0  0
   61.5442   32.1604   49.6024 H   0  0  0  0  0  0  0  0  0  0  0  0
   59.8295   31.5454   51.2996 H   0  0  0  0  0  0  0  0  0  0  0  0
   58.1200   29.8098   50.7803 H   0  0  0  0  0  0  0  0  0  0  0  0
   58.1088   28.6918   48.5564 H   0  0  0  0  0  0  0  0  0  0  0  0
   57.3643   26.8312   47.6931 H   0  0  0  0  0  0  0  0  0  0  0  0
   56.6067   25.8925   46.3621 H   0  0  0  0  0  0  0  0  0  0  0  0
   58.3798   26.1803   46.3621 H   0  0  0  0  0  0  0  0  0  0  0  0
   55.1610   27.6230   45.2260 H   0  0  0  0  0  0  0  0  0  0  0  0
   54.4092   30.5356   44.4935 H   0  0  0  0  0  0  0  0  0  0  0  0
   55.6160   30.8352   43.1972 H   0  0  0  0  0  0  0  0  0  0  0  0
   54.6561   29.3169   43.1972 H   0  0  0  0  0  0  0  0  0  0  0  0
   58.5988   33.4997   43.5730 H   0  0  0  0  0  0  0  0  0  0  0  0
   57.5060   34.2525   44.7924 H   0  0  0  0  0  0  0  0  0  0  0  0
   60.5165   33.8115   44.9391 H   0  0  0  0  0  0  0  0  0  0  0  0
   59.5514   35.3538   45.0967 H   0  0  0  0  0  0  0  0  0  0  0  0
   60.4442   33.5147   47.1649 H   0  0  0  0  0  0  0  0  0  0  0  0
   59.6522   35.1553   47.2846 H   0  0  0  0  0  0  0  0  0  0  0  0
   58.4257   33.3185   48.4889 H   0  0  0  0  0  0  0  0  0  0  0  0
   57.4677   34.1907   47.2303 H   0  0  0  0  0  0  0  0  0  0  0  0
   58.7297   31.4179   47.0578 H   0  0  0  0  0  0  0  0  0  0  0  0
   56.9806   31.8833   46.9372 H   0  0  0  0  0  0  0  0  0  0  0  0
  1  2  1  0
  2  3  2  0
  3  4  1  0
  4  5  2  0
  5  6  1  0
  6  7  2  0
  7  8  1  0
  8  9  2  0
  8 10  2  0
  8 11  1  0
 11 12  2  0
 12 13  1  0
 12 14  1  0
 14 15  1  0
 15 16  1  0
 15 17  2  0
 17 18  1  0
 18 19  2  0
 18 20  1  0
 20 21  1  0
 21 22  1  0
 22 23  1  0
 23 24  1  0
 24 25  1  0
  7  2  1  0
 17 11  1  0
 25 20  1  0
  1 26  1  0
  1 27  1  0
  1 28  1  0
  3 29  1  0
  4 30  1  0
  5 31  1  0
  6 32  1  0
 13 33  1  0
 13 34  1  0
 13 35  1  0
 14 36  1  0
 16 37  1  0
 16 38  1  0
 16 39  1  0
 21 40  1  0
 21 41  1  0
 22 42  1  0
 22 43  1  0
 23 44  1  0
 23 45  1  0
 24 46  1  0
 24 47  1  0
 25 48  1  0
 25 49  1  0
M  END
>  <UniqueID>  (10) 
10

>  <SMILES>  (10) 
Cc1ccccc1S(=O)(=O)c1c(C)[nH]c(C)c1C(=O)N1CCCCC1

>  <Energy>  (10) 
79.3648537530321

>  <Genealogy>  (10) 
Cc1ccccc1S(=O)(=O)c1c(C)[nH]c(C)c1C(=O)N1CCCCC1 (3D coordinates assigned)
Cc1ccccc1S(=O)(=O)c1c(C)[nH]c(C)c1C(=O)N1CCCCC1 (nonaromatic ring conformer: 79.3648537530321 kcal/mol)

>  <smiles>  (10) 
Cc1ccccc1S(=O)(=O)c1c(C)[nH]c(C)c1C(=O)N1CCCCC1

>  <score_type>  (10) 
oracle

>  <origin>  (10) 
adg

>  <m_score__min__energy>  (10) 
-8.9600000000000009

>  <m_primary>  (10) 
energy

$$$$
10:0
     RDKit          3D

 61 64  0  0  0  0  0  0  0  0999 V2000
   55.4990   26.7720   45.9970 O   0  0  0  0  0  0  0  0  0  0  0  0
   56.7540   26.8020   45.8820 C   0  0  0  0  0  0  0  0  0  0  0  0
   57.5560   25.6260   46.3660 C   0  0  0  0  0  0  0  0  0  0  0  0
   58.7350   26.0370   47.1300 N   0  0  0  0  0  0  0  0  0  0  0  0
   59.6650   27.0860   46.8130 C   0  0  0  0  0  0  0  0  0  0  0  0
   60.2340   27.0600   45.6900 O   0  0  0  0  0  0  0  0  0  0  0  0
   59.9190   28.2360   47.7100 C   0  0  0  0  0  0  0  0  0  0  0  0
   60.7680   29.2860   47.3300 C   0  0  0  0  0  0  0  0  0  0  0  0
   61.0070   30.3520   48.2040 C   0  0  0  0  0  0  0  0  0  0  0  0
   60.3830   30.4010   49.4610 C   0  0  0  0  0  0  0  0  0  0  0  0
   60.6430   31.5200   50.3290 N   0  0  0  0  0  0  0  0  0  0  0  0
   59.4540   32.7150   50.7480 S   0  0  0  0  0  0  0  0  0  0  0  0
   60.1230   33.8340   51.4970 O   0  0  0  0  0  0  0  0  0  0  0  0
   58.8380   33.2710   49.4930 O   0  0  0  0  0  0  0  0  0  0  0  0
   58.2200   32.0050   51.7700 C   0  0  0  0  0  0  0  0  0  0  0  0
   57.0170   31.4640   51.3350 C   0  0  0  0  0  0  0  0  0  0  0  0
   56.2070   31.0270   52.3890 C   0  0  0  0  0  0  0  0  0  0  0  0
   56.7700   31.2220   53.6460 C   0  0  0  0  0  0  0  0  0  0  0  0
   58.2800   31.9410   53.4480 S   0  0  0  0  0  0  0  0  0  0  0  0
   59.5210   29.3550   49.8340 C   0  0  0  0  0  0  0  0  0  0  0  0
   59.2790   28.2940   48.9580 C   0  0  0  0  0  0  0  0  0  0  0  0
   57.4030   27.9360   45.2830 N   0  0  0  0  0  0  0  0  0  0  0  0
   56.7450   29.2070   45.1520 C   0  0  0  0  0  0  0  0  0  0  0  0
   55.5150   29.2370   44.8650 O   0  0  0  0  0  0  0  0  0  0  0  0
   57.4640   30.4880   45.3980 C   0  0  0  0  0  0  0  0  0  0  0  0
   58.1220   30.7550   46.6170 C   0  0  0  0  0  0  0  0  0  0  0  0
   58.7220   31.9970   46.8430 C   0  0  0  0  0  0  0  0  0  0  0  0
   58.6820   32.9930   45.8600 C   0  0  0  0  0  0  0  0  0  0  0  0
   59.3840   34.5850   46.1730 S   0  0  0  0  0  0  0  0  0  0  0  0
   59.3850   35.3750   44.8940 O   0  0  0  0  0  0  0  0  0  0  0  0
   58.5220   35.3130   47.1660 O   0  0  0  0  0  0  0  0  0  0  0  0
   61.0140   34.4980   46.7950 N   0  0  0  0  0  0  0  0  0  0  0  0
   61.0520   34.5440   48.2590 C   0  0  0  0  0  0  0  0  0  0  0  0
   62.2880   33.7650   48.6960 C   0  0  0  0  0  0  0  0  0  0  0  0
   62.7600   33.0180   47.4550 C   0  0  0  0  0  0  0  0  0  0  0  0
   61.6780   33.2520   46.4150 C   0  0  0  0  0  0  0  0  0  0  0  0
   58.0480   32.7300   44.6400 C   0  0  0  0  0  0  0  0  0  0  0  0
   57.4460   31.4920   44.4090 C   0  0  0  0  0  0  0  0  0  0  0  0
   56.9174   25.0022   47.0086 H   0  0  0  0  0  0  0  0  0  0  0  0
   57.9031   25.0682   45.4838 H   0  0  0  0  0  0  0  0  0  0  0  0
   61.2480   29.2712   46.3404 H   0  0  0  0  0  0  0  0  0  0  0  0
   61.6905   31.1598   47.9035 H   0  0  0  0  0  0  0  0  0  0  0  0
   61.6200   31.6890   50.6590 H   0  0  0  0  0  0  0  0  0  0  0  0
   56.7316   31.3873   50.2754 H   0  0  0  0  0  0  0  0  0  0  0  0
   55.2172   30.5716   52.2377 H   0  0  0  0  0  0  0  0  0  0  0  0
   56.3072   30.9522   54.6068 H   0  0  0  0  0  0  0  0  0  0  0  0
   59.0347   29.3720   50.8205 H   0  0  0  0  0  0  0  0  0  0  0  0
   58.5800   27.4961   49.2491 H   0  0  0  0  0  0  0  0  0  0  0  0
   58.4150   27.8470   45.0530 H   0  0  0  0  0  0  0  0  0  0  0  0
   58.1632   29.9794   47.3960 H   0  0  0  0  0  0  0  0  0  0  0  0
   59.2289   32.1931   47.7994 H   0  0  0  0  0  0  0  0  0  0  0  0
   61.1211   35.5866   48.6028 H   0  0  0  0  0  0  0  0  0  0  0  0
   60.1391   34.1071   48.6900 H   0  0  0  0  0  0  0  0  0  0  0  0
   63.0698   34.4526   49.0511 H   0  0  0  0  0  0  0  0  0  0  0  0
   62.0643   33.0775   49.5250 H   0  0  0  0  0  0  0  0  0  0  0  0
   63.7234   33.4186   47.1065 H   0  0  0  0  0  0  0  0  0  0  0  0
   62.9154   31.9473   47.6534 H   0  0  0  0  0  0  0  0  0  0  0  0
   62.1244   33.3470   45.4142 H   0  0  0  0  0  0  0  0  0  0  0  0
   60.9677   32.4129   46.3778 H   0  0  0  0  0  0  0  0  0  0  0  0
   58.0241   33.5037   43.8585 H   0  0  0  0  0  0  0  0  0  0  0  0
   56.9525   31.2980   43.4452 H   0  0  0  0  0  0  0  0  0  0  0  0
  1  2  2  0
  2  3  1  0
  3  4  1  0
  4  5  1  0
  5  6  2  0
  5  7  1  0
  7  8  2  0
  8  9  1  0
  9 10  2  0
 10 11  1  0
 11 12  1  0
 12 13  2  0
 12 14  2  0
 12 15  1  0
 15 16  2  0
 16 17  1  0
 17 18  2  0
 18 19  1  0
 10 20  1  0
 20 21  2  0
  2 22  1  0
 22 23  1  0
 23 24  2  0
 23 25  1  0
 25 26  2  0
 26 27  1  0
 27 28  2  0
 28 29  1  0
 29 30  2  0
 29 31  2  0
 29 32  1  0
 32 33  1  0
 33 34  1  0
 34 35  1  0
 35 36  1  0
 28 37  1  0
 37 38  2  0
 21  7  1  0
 38 25  1  0
 19 15  1  0
 36 32  1  0
  3 39  1  0
  3 40  1  0
  8 41  1  0
  9 42  1  0
 11 43  1  0
 16 44  1  0
 17 45  1  0
 18 46  1  0
 20 47  1  0
 21 48  1  0
 22 49  1  0
 26 50  1  0
 27 51  1  0
 33 52  1  0
 33 53  1  0
 34 54  1  0
 34 55  1  0
 35 56  1  0
 35 57  1  0
 36 58  1  0
 36 59  1  0
 37 60  1  0
 38 61  1  0
M  CHG  1   4  -1
M  END
>  <UniqueID>  (11) 
11

>  <SMILES>  (11) 
O=C(C[N-]C(=O)c1ccc(NS(=O)(=O)c2cccs2)cc1)NC(=O)c1ccc(S(=O)(=O)N2CCCC2)cc1

>  <Energy>  (11) 
96.76782619431745

>  <Genealogy>  (11) 
O=C(C[N-]C(=O)c1ccc(NS(=O)(=O)c2cccs2)cc1)NC(=O)c1ccc(S(=O)(=O)N2CCCC2)cc1 (protonated)
O=C(C[N-]C(=O)c1ccc(NS(=O)(=O)c2cccs2)cc1)NC(=O)c1ccc(S(=O)(=O)N2CCCC2)cc1 (3D coordinates assigned)
O=C(C[N-]C(=O)c1ccc(NS(=O)(=O)c2cccs2)cc1)NC(=O)c1ccc(S(=O)(=O)N2CCCC2)cc1 (nonaromatic ring conformer: 96.76782619431745 kcal/mol)

>  <smiles>  (11) 
O=C(CNC(=O)c1ccc(NS(=O)(=O)c2cccs2)cc1)NC(=O)c1ccc(S(=O)(=O)N2CCCC2)cc1

>  <score_type>  (11) 
oracle

>  <origin>  (11) 
adg

>  <m_score__min__energy>  (11) 
-11.630000000000001

>  <m_primary>  (11) 
energy

$$$$
11:0
     RDKit          3D

 50 53  0  0  0  0  0  0  0  0999 V2000
   59.6200   28.1420   44.5210 C   0  0  0  0  0  0  0  0  0  0  0  0
   59.3700   28.2840   45.8330 C   0  0  0  0  0  0  0  0  0  0  0  0
   58.7830   27.3260   46.6610 C   0  0  0  0  0  0  0  0  0  0  0  0
   58.3710   26.0870   46.3250 C   0  0  0  0  0  0  0  0  0  0  0  0
   56.9530   25.6980   46.2300 C   0  0  0  0  0  0  0  0  0  0  0  0
   56.5020   24.4750   46.5560 N   0  0  0  0  0  0  0  0  0  0  0  0
   55.1690   24.5690   46.3580 C   0  0  0  0  0  0  0  0  0  0  0  0
   54.3860   23.6040   46.5490 O   0  0  0  0  0  0  0  0  0  0  0  0
   54.7420   25.7820   45.9450 N   0  0  0  0  0  0  0  0  0  0  0  0
   55.8800   26.4930   45.8800 C   0  0  0  0  0  0  0  0  0  0  0  0
   55.9140   27.8460   45.5520 O   0  0  0  0  0  0  0  0  0  0  0  0
   58.6410   27.9190   47.9030 C   0  0  0  0  0  0  0  0  0  0  0  0
   59.1520   29.1970   47.7990 C   0  0  0  0  0  0  0  0  0  0  0  0
   59.1520   30.1600   48.9250 C   0  0  0  0  0  0  0  0  0  0  0  0
   58.1440   30.2520   49.6750 O   0  0  0  0  0  0  0  0  0  0  0  0
   60.2620   31.0560   49.1180 N   0  0  0  0  0  0  0  0  0  0  0  0
   60.0360   32.3710   49.7220 C   0  0  0  0  0  0  0  0  0  0  0  0
   61.1200   33.3470   49.2520 C   0  0  0  0  0  0  0  0  0  0  0  0
   62.4110   32.8110   49.4730 O   0  0  0  0  0  0  0  0  0  0  0  0
   62.5950   31.6560   48.6780 C   0  0  0  0  0  0  0  0  0  0  0  0
   61.6360   30.5430   49.1110 C   0  0  0  0  0  0  0  0  0  0  0  0
   59.6270   29.4180   46.5440 N   0  0  0  0  0  0  0  0  0  0  0  0
   60.1660   30.6840   46.0150 C   0  0  0  0  0  0  0  0  0  0  0  0
   59.1320   31.7960   46.0000 C   0  0  0  0  0  0  0  0  0  0  0  0
   59.4270   32.9900   46.6870 C   0  0  0  0  0  0  0  0  0  0  0  0
   58.5260   34.0560   46.6880 C   0  0  0  0  0  0  0  0  0  0  0  0
   57.3220   33.9560   45.9940 C   0  0  0  0  0  0  0  0  0  0  0  0
   57.0180   32.7910   45.2890 C   0  0  0  0  0  0  0  0  0  0  0  0
   57.9140   31.7120   45.2760 C   0  0  0  0  0  0  0  0  0  0  0  0
   57.5460   30.5420   44.5170 C   0  0  0  0  0  0  0  0  0  0  0  0
   57.2380   29.6120   43.9010 N   0  0  0  0  0  0  0  0  0  0  0  0
   60.0885   28.9629   43.9584 H   0  0  0  0  0  0  0  0  0  0  0  0
   59.3562   27.2048   44.0091 H   0  0  0  0  0  0  0  0  0  0  0  0
   59.1349   25.3252   46.1101 H   0  0  0  0  0  0  0  0  0  0  0  0
   56.2370   28.1640   44.6460 H   0  0  0  0  0  0  0  0  0  0  0  0
   58.2042   27.4596   48.8019 H   0  0  0  0  0  0  0  0  0  0  0  0
   59.0480   32.7479   49.4190 H   0  0  0  0  0  0  0  0  0  0  0  0
   60.0762   32.2810   50.8176 H   0  0  0  0  0  0  0  0  0  0  0  0
   60.9893   33.5403   48.1770 H   0  0  0  0  0  0  0  0  0  0  0  0
   61.0243   34.2815   49.8243 H   0  0  0  0  0  0  0  0  0  0  0  0
   62.4034   31.9083   47.6246 H   0  0  0  0  0  0  0  0  0  0  0  0
   63.6286   31.3011   48.8033 H   0  0  0  0  0  0  0  0  0  0  0  0
   61.7094   29.7013   48.4066 H   0  0  0  0  0  0  0  0  0  0  0  0
   61.9044   30.2006   50.1213 H   0  0  0  0  0  0  0  0  0  0  0  0
   61.0119   30.9975   46.6445 H   0  0  0  0  0  0  0  0  0  0  0  0
   60.4792   30.5052   44.9758 H   0  0  0  0  0  0  0  0  0  0  0  0
   60.3794   33.0834   47.2295 H   0  0  0  0  0  0  0  0  0  0  0  0
   58.7671   34.9775   47.2382 H   0  0  0  0  0  0  0  0  0  0  0  0
   56.6112   34.7955   46.0019 H   0  0  0  0  0  0  0  0  0  0  0  0
   56.0681   32.7182   44.7390 H   0  0  0  0  0  0  0  0  0  0  0  0
  1  2  2  0
  2  3  1  0
  3  4  2  3
  4  5  1  0
  5  6  1  0
  6  7  1  0
  7  8  2  0
  7  9  1  0
  9 10  1  0
 10 11  1  0
  3 12  1  0
 12 13  2  0
 13 14  1  0
 14 15  2  0
 14 16  1  0
 16 17  1  0
 17 18  1  0
 18 19  1  0
 19 20  1  0
 20 21  1  0
 13 22  1  0
 22 23  1  0
 23 24  1  0
 24 25  2  0
 25 26  1  0
 26 27  2  0
 27 28  1  0
 28 29  2  0
 29 30  1  0
 30 31  3  0
 22  2  1  0
 29 24  1  0
 10  5  2  0
 21 16  1  0
  1 32  1  0
  1 33  1  0
  4 34  1  0
 11 35  1  0
 12 36  1  0
 17 37  1  0
 17 38  1  0
 18 39  1  0
 18 40  1  0
 20 41  1  0
 20 42  1  0
 21 43  1  0
 21 44  1  0
 23 45  1  0
 23 46  1  0
 25 47  1  0
 26 48  1  0
 27 49  1  0
 28 50  1  0
M  CHG  2   6  -1   9  -1
M  END
>  <UniqueID>  (12) 
12

>  <SMILES>  (12) 
C=c1c(=Cc2[n-]c(=O)[n-]c2O)cc(C(=O)N2CCOCC2)n1Cc1ccccc1C#N

>  <Energy>  (12) 
126.90346540859882

>  <Genealogy>  (12) 
C=c1c(=Cc2[n-]c(=O)[n-]c2O)cc(C(=O)N2CCOCC2)n1Cc1ccccc1C#N (protonated)
C=c1c(=Cc2[n-]c(=O)[n-]c2O)cc(C(=O)N2CCOCC2)n1Cc1ccccc1C#N (3D coordinates assigned)
C=c1c(=Cc2[n-]c(=O)[n-]c2O)cc(C(=O)N2CCOCC2)n1Cc1ccccc1C#N (nonaromatic ring conformer: 126.90346540859882 kcal/mol)

>  <smiles>  (12) 
C=c1c(=Cc2[nH]c(=O)[nH]c2O)cc(C(=O)N2CCOCC2)n1Cc1ccccc1C#N

>  <score_type>  (12) 
oracle

>  <origin>  (12) 
adg

>  <m_score__min__energy>  (12) 
-13.470000000000001

>  <m_primary>  (12) 
energy

$$$$
12:0
     RDKit          3D

 55 58  0  0  0  0  0  0  0  0999 V2000
   54.7390   20.3560   49.7140 C   0  0  0  0  0  0  0  0  0  0  0  0
   56.0840   20.7210   49.2400 N   0  0  0  0  0  0  0  0  0  0  0  0
   56.3790   20.0380   47.9530 C   0  0  0  0  0  0  0  0  0  0  0  0
   57.3470   20.8360   47.0760 C   0  0  0  0  0  0  0  0  0  0  0  0
   56.7710   22.1560   46.8090 N   0  0  0  0  0  0  0  0  0  0  0  0
   56.7210   22.6530   45.4660 C   0  0  0  0  0  0  0  0  0  0  0  0
   56.3800   21.7770   44.4250 C   0  0  0  0  0  0  0  0  0  0  0  0
   56.3430   22.2280   43.1040 C   0  0  0  0  0  0  0  0  0  0  0  0
   56.6480   23.5580   42.8120 C   0  0  0  0  0  0  0  0  0  0  0  0
   56.9910   24.4400   43.8400 C   0  0  0  0  0  0  0  0  0  0  0  0
   57.0260   24.0010   45.1760 C   0  0  0  0  0  0  0  0  0  0  0  0
   57.4470   24.9630   46.2620 C   0  0  0  0  0  0  0  0  0  0  0  0
   57.2500   26.3530   45.8450 N   0  0  0  0  0  0  0  0  0  0  0  0
   58.2000   27.2070   45.4010 C   0  0  0  0  0  0  0  0  0  0  0  0
   57.6210   28.4120   45.0280 C   0  0  0  0  0  0  0  0  0  0  0  0
   58.3440   29.5910   44.5090 C   0  0  0  0  0  0  0  0  0  0  0  0
   59.6060   29.5780   44.5100 O   0  0  0  0  0  0  0  0  0  0  0  0
   57.6040   30.8130   44.0280 C   0  0  0  0  0  0  0  0  0  0  0  0
   57.9400   32.0370   44.8420 C   0  0  0  0  0  0  0  0  0  0  0  0
   58.1410   31.9360   46.2280 C   0  0  0  0  0  0  0  0  0  0  0  0
   58.4890   33.0660   46.9720 C   0  0  0  0  0  0  0  0  0  0  0  0
   58.6470   34.3010   46.3370 C   0  0  0  0  0  0  0  0  0  0  0  0
   58.4590   34.4080   44.9580 C   0  0  0  0  0  0  0  0  0  0  0  0
   58.1110   33.2800   44.2100 C   0  0  0  0  0  0  0  0  0  0  0  0
   56.2610   28.2640   45.2460 C   0  0  0  0  0  0  0  0  0  0  0  0
   55.2670   29.2110   45.0300 O   0  0  0  0  0  0  0  0  0  0  0  0
   56.0690   26.9930   45.7310 C   0  0  0  0  0  0  0  0  0  0  0  0
   54.8400   26.4340   46.0550 O   0  0  0  0  0  0  0  0  0  0  0  0
   55.9720   22.8140   47.8450 C   0  0  0  0  0  0  0  0  0  0  0  0
   56.2630   22.1950   49.2200 C   0  0  0  0  0  0  0  0  0  0  0  0
   54.7263   20.3525   50.8139 H   0  0  0  0  0  0  0  0  0  0  0  0
   54.0076   21.0881   49.3411 H   0  0  0  0  0  0  0  0  0  0  0  0
   54.4781   19.3546   49.3411 H   0  0  0  0  0  0  0  0  0  0  0  0
   56.8256   19.0561   48.1687 H   0  0  0  0  0  0  0  0  0  0  0  0
   55.4322   19.9386   47.4019 H   0  0  0  0  0  0  0  0  0  0  0  0
   58.3080   20.9518   47.5985 H   0  0  0  0  0  0  0  0  0  0  0  0
   57.5135   20.3044   46.1275 H   0  0  0  0  0  0  0  0  0  0  0  0
   56.1401   20.7275   44.6508 H   0  0  0  0  0  0  0  0  0  0  0  0
   56.0734   21.5348   42.2935 H   0  0  0  0  0  0  0  0  0  0  0  0
   56.6184   23.9126   41.7711 H   0  0  0  0  0  0  0  0  0  0  0  0
   57.2356   25.4859   43.6027 H   0  0  0  0  0  0  0  0  0  0  0  0
   56.8472   24.7707   47.1638 H   0  0  0  0  0  0  0  0  0  0  0  0
   58.5168   24.8096   46.4672 H   0  0  0  0  0  0  0  0  0  0  0  0
   59.2748   26.9798   45.3438 H   0  0  0  0  0  0  0  0  0  0  0  0
   57.8735   31.0004   42.9781 H   0  0  0  0  0  0  0  0  0  0  0  0
   56.5263   30.6203   44.1354 H   0  0  0  0  0  0  0  0  0  0  0  0
   58.0241   30.9640   46.7296 H   0  0  0  0  0  0  0  0  0  0  0  0
   58.6388   32.9837   48.0586 H   0  0  0  0  0  0  0  0  0  0  0  0
   58.9199   35.1899   46.9247 H   0  0  0  0  0  0  0  0  0  0  0  0
   58.5848   35.3806   44.4598 H   0  0  0  0  0  0  0  0  0  0  0  0
   57.9705   33.3657   43.1224 H   0  0  0  0  0  0  0  0  0  0  0  0
   56.2217   23.8850   47.8696 H   0  0  0  0  0  0  0  0  0  0  0  0
   54.9054   22.6796   47.6119 H   0  0  0  0  0  0  0  0  0  0  0  0
   57.3024   22.4261   49.4960 H   0  0  0  0  0  0  0  0  0  0  0  0
   55.5447   22.6244   49.9339 H   0  0  0  0  0  0  0  0  0  0  0  0
  1  2  1  0
  2  3  1  0
  3  4  1  0
  4  5  1  0
  5  6  1  0
  6  7  2  0
  7  8  1  0
  8  9  2  0
  9 10  1  0
 10 11  2  0
 11 12  1  0
 12 13  1  0
 13 14  1  0
 14 15  2  0
 15 16  1  0
 16 17  2  0
 16 18  1  0
 18 19  1  0
 19 20  2  0
 20 21  1  0
 21 22  2  0
 22 23  1  0
 23 24  2  0
 15 25  1  0
 25 26  1  0
 25 27  2  0
 27 28  1  0
  5 29  1  0
 29 30  1  0
 30  2  1  0
 11  6  1  0
 27 13  1  0
 24 19  1  0
  1 31  1  0
  1 32  1  0
  1 33  1  0
  3 34  1  0
  3 35  1  0
  4 36  1  0
  4 37  1  0
  7 38  1  0
  8 39  1  0
  9 40  1  0
 10 41  1  0
 12 42  1  0
 12 43  1  0
 14 44  1  0
 18 45  1  0
 18 46  1  0
 20 47  1  0
 21 48  1  0
 22 49  1  0
 23 50  1  0
 24 51  1  0
 29 52  1  0
 29 53  1  0
 30 54  1  0
 30 55  1  0
M  CHG  2  26  -1  28  -1
M  END
>  <UniqueID>  (13) 
13

>  <SMILES>  (13) 
CN1CCN(c2ccccc2Cn2cc(C(=O)Cc3ccccc3)c([O-])c2[O-])CC1

>  <Energy>  (13) 
98.50110091147293

>  <Genealogy>  (13) 
CN1CCN(c2ccccc2Cn2cc(C(=O)Cc3ccccc3)c([O-])c2[O-])CC1 (protonated)
CN1CCN(c2ccccc2Cn2cc(C(=O)Cc3ccccc3)c([O-])c2[O-])CC1 (3D coordinates assigned)
CN1CCN(c2ccccc2Cn2cc(C(=O)Cc3ccccc3)c([O-])c2[O-])CC1 (nonaromatic ring conformer: 98.50110091147293 kcal/mol)

>  <smiles>  (13) 
CN1CCN(c2ccccc2Cn2cc(C(=O)Cc3ccccc3)c(O)c2O)CC1

>  <score_type>  (13) 
oracle

>  <origin>  (13) 
adg

>  <m_score__min__energy>  (13) 
-15.32

>  <m_primary>  (13) 
energy

$$$$
13:0
     RDKit          3D

 48 50  0  0  0  0  0  0  0  0999 V2000
   64.2140   32.5990   48.8060 C   0  0  0  0  0  0  0  0  0  0  0  0
   62.8960   32.6170   48.0890 C   0  0  0  0  0  0  0  0  0  0  0  0
   62.3220   33.8350   47.6970 C   0  0  0  0  0  0  0  0  0  0  0  0
   61.0770   33.8570   47.0650 C   0  0  0  0  0  0  0  0  0  0  0  0
   60.3750   32.6630   46.8300 C   0  0  0  0  0  0  0  0  0  0  0  0
   59.0350   32.7110   46.1500 C   0  0  0  0  0  0  0  0  0  0  0  0
   60.9530   31.4340   47.2170 C   0  0  0  0  0  0  0  0  0  0  0  0
   60.2730   30.1950   46.9660 N   0  0  0  0  0  0  0  0  0  0  0  0
   60.3160   29.6080   45.6270 C   0  0  0  0  0  0  0  0  0  0  0  0
   58.9910   28.9100   45.3200 C   0  0  0  0  0  0  0  0  0  0  0  0
   58.5910   28.0320   46.4350 N   0  0  0  0  0  0  0  0  0  0  0  0
   57.8600   26.8010   46.2030 C   0  0  0  0  0  0  0  0  0  0  0  0
   57.3040   26.2090   47.1670 O   0  0  0  0  0  0  0  0  0  0  0  0
   57.7190   26.1910   44.8290 C   0  0  0  0  0  0  0  0  0  0  0  0
   56.8400   24.9510   44.7920 C   0  0  0  0  0  0  0  0  0  0  0  0
   57.2600   23.7870   44.1090 C   0  0  0  0  0  0  0  0  0  0  0  0
   56.4620   22.6420   44.0900 C   0  0  0  0  0  0  0  0  0  0  0  0
   55.2250   22.6400   44.7320 C   0  0  0  0  0  0  0  0  0  0  0  0
   54.7690   23.7930   45.3700 C   0  0  0  0  0  0  0  0  0  0  0  0
   55.5490   24.9560   45.3880 C   0  0  0  0  0  0  0  0  0  0  0  0
   55.0040   26.0930   45.9890 O   0  0  0  0  0  0  0  0  0  0  0  0
   58.5880   28.6210   47.7870 C   0  0  0  0  0  0  0  0  0  0  0  0
   59.9150   29.3200   48.0810 C   0  0  0  0  0  0  0  0  0  0  0  0
   62.2000   31.4220   47.8590 C   0  0  0  0  0  0  0  0  0  0  0  0
   64.0405   32.6014   49.8922 H   0  0  0  0  0  0  0  0  0  0  0  0
   64.7716   31.6932   48.5257 H   0  0  0  0  0  0  0  0  0  0  0  0
   64.7961   33.4893   48.5257 H   0  0  0  0  0  0  0  0  0  0  0  0
   62.8552   34.7779   47.8884 H   0  0  0  0  0  0  0  0  0  0  0  0
   60.6425   34.8168   46.7487 H   0  0  0  0  0  0  0  0  0  0  0  0
   58.2394   32.7395   46.9091 H   0  0  0  0  0  0  0  0  0  0  0  0
   58.9747   33.6119   45.5217 H   0  0  0  0  0  0  0  0  0  0  0  0
   58.9104   31.8167   45.5217 H   0  0  0  0  0  0  0  0  0  0  0  0
   60.4895   30.4025   44.8863 H   0  0  0  0  0  0  0  0  0  0  0  0
   61.1316   28.8713   45.5814 H   0  0  0  0  0  0  0  0  0  0  0  0
   58.2114   29.6697   45.1617 H   0  0  0  0  0  0  0  0  0  0  0  0
   59.1170   28.2964   44.4158 H   0  0  0  0  0  0  0  0  0  0  0  0
   57.2818   26.9455   44.1585 H   0  0  0  0  0  0  0  0  0  0  0  0
   58.7254   25.8781   44.5141 H   0  0  0  0  0  0  0  0  0  0  0  0
   58.2277   23.7834   43.5860 H   0  0  0  0  0  0  0  0  0  0  0  0
   56.8103   21.7391   43.5671 H   0  0  0  0  0  0  0  0  0  0  0  0
   54.6085   21.7290   44.7354 H   0  0  0  0  0  0  0  0  0  0  0  0
   53.7863   23.7890   45.8643 H   0  0  0  0  0  0  0  0  0  0  0  0
   55.1370   26.3300   46.9640 H   0  0  0  0  0  0  0  0  0  0  0  0
   57.7712   29.3543   47.8584 H   0  0  0  0  0  0  0  0  0  0  0  0
   58.4458   27.8143   48.5212 H   0  0  0  0  0  0  0  0  0  0  0  0
   59.8164   29.9193   48.9981 H   0  0  0  0  0  0  0  0  0  0  0  0
   60.7017   28.5630   48.2149 H   0  0  0  0  0  0  0  0  0  0  0  0
   62.6359   30.4661   48.1850 H   0  0  0  0  0  0  0  0  0  0  0  0
  1  2  1  0
  2  3  2  0
  3  4  1  0
  4  5  2  0
  5  6  1  0
  5  7  1  0
  7  8  1  0
  8  9  1  0
  9 10  1  0
 10 11  1  0
 11 12  1  0
 12 13  2  0
 12 14  1  0
 14 15  1  0
 15 16  2  0
 16 17  1  0
 17 18  2  0
 18 19  1  0
 19 20  2  0
 20 21  1  0
 11 22  1  0
 22 23  1  0
  7 24  2  0
 24  2  1  0
 23  8  1  0
 20 15  1  0
  1 25  1  0
  1 26  1  0
  1 27  1  0
  3 28  1  0
  4 29  1  0
  6 30  1  0
  6 31  1  0
  6 32  1  0
  9 33  1  0
  9 34  1  0
 10 35  1  0
 10 36  1  0
 14 37  1  0
 14 38  1  0
 16 39  1  0
 17 40  1  0
 18 41  1  0
 19 42  1  0
 21 43  1  0
 22 44  1  0
 22 45  1  0
 23 46  1  0
 23 47  1  0
 24 48  1  0
M  END
>  <UniqueID>  (14) 
14

>  <SMILES>  (14) 
Cc1ccc(C)c(N2CCN(C(=O)Cc3ccccc3O)CC2)c1

>  <Energy>  (14) 
56.11602571536517

>  <Genealogy>  (14) 
Cc1ccc(C)c(N2CCN(C(=O)Cc3ccccc3O)CC2)c1 (3D coordinates assigned)
Cc1ccc(C)c(N2CCN(C(=O)Cc3ccccc3O)CC2)c1 (nonaromatic ring conformer: 56.11602571536517 kcal/mol)

>  <smiles>  (14) 
Cc1ccc(C)c(N2CCN(C(=O)Cc3ccccc3O)CC2)c1

>  <score_type>  (14) 
oracle

>  <origin>  (14) 
adg

>  <m_score__min__energy>  (14) 
-8.9600000000000009

>  <m_primary>  (14) 
energy

$$$$
14:0
     RDKit          3D

 48 50  0  0  0  0  0  0  0  0999 V2000
   62.7460   32.6960   48.6570 C   0  0  0  0  0  0  0  0  0  0  0  0
   61.3480   32.9080   48.1580 C   0  0  0  0  0  0  0  0  0  0  0  0
   60.5570   31.8110   47.7860 C   0  0  0  0  0  0  0  0  0  0  0  0
   59.2410   32.0030   47.3530 C   0  0  0  0  0  0  0  0  0  0  0  0
   58.6950   33.3000   47.2970 C   0  0  0  0  0  0  0  0  0  0  0  0
   57.3880   33.5480   46.8550 O   0  0  0  0  0  0  0  0  0  0  0  0
   56.9620   33.4240   45.5010 C   0  0  0  0  0  0  0  0  0  0  0  0
   58.1670   33.5730   44.5760 C   0  0  0  0  0  0  0  0  0  0  0  0
   57.9670   32.6030   43.0370 S   0  0  0  0  0  0  0  0  0  0  0  0
   57.8210   31.0190   43.8630 C   0  0  0  0  0  0  0  0  0  0  0  0
   58.9610   30.2760   44.1780 C   0  0  0  0  0  0  0  0  0  0  0  0
   58.8220   29.0760   44.8760 C   0  0  0  0  0  0  0  0  0  0  0  0
   57.5500   28.6170   45.2360 C   0  0  0  0  0  0  0  0  0  0  0  0
   57.3740   27.1660   46.2250 S   0  0  0  0  0  0  0  0  0  0  0  0
   57.6280   27.5050   47.6670 O   0  0  0  0  0  0  0  0  0  0  0  0
   55.9780   26.6220   46.0990 O   0  0  0  0  0  0  0  0  0  0  0  0
   58.5390   25.9230   45.6830 C   0  0  0  0  0  0  0  0  0  0  0  0
   57.8180   24.7860   45.0110 C   0  0  0  0  0  0  0  0  0  0  0  0
   57.8030   23.5090   45.5970 C   0  0  0  0  0  0  0  0  0  0  0  0
   57.1860   22.4400   44.9400 C   0  0  0  0  0  0  0  0  0  0  0  0
   56.5880   22.6360   43.6930 C   0  0  0  0  0  0  0  0  0  0  0  0
   56.6050   23.9020   43.1000 C   0  0  0  0  0  0  0  0  0  0  0  0
   57.2200   24.9740   43.7540 C   0  0  0  0  0  0  0  0  0  0  0  0
   56.4280   29.3810   44.8780 C   0  0  0  0  0  0  0  0  0  0  0  0
   55.1470   28.9660   45.2200 O   0  0  0  0  0  0  0  0  0  0  0  0
   56.5910   30.5530   44.2070 N   0  0  0  0  0  0  0  0  0  0  0  0
   59.4820   34.3890   47.6890 C   0  0  0  0  0  0  0  0  0  0  0  0
   60.7960   34.1970   48.1220 C   0  0  0  0  0  0  0  0  0  0  0  0
   62.7466   32.6959   49.7570 H   0  0  0  0  0  0  0  0  0  0  0  0
   63.1238   31.7303   48.2900 H   0  0  0  0  0  0  0  0  0  0  0  0
   63.3931   33.5063   48.2900 H   0  0  0  0  0  0  0  0  0  0  0  0
   60.9739   30.7943   47.8351 H   0  0  0  0  0  0  0  0  0  0  0  0
   58.6303   31.1379   47.0551 H   0  0  0  0  0  0  0  0  0  0  0  0
   56.5028   32.4360   45.3495 H   0  0  0  0  0  0  0  0  0  0  0  0
   56.2247   34.2081   45.2740 H   0  0  0  0  0  0  0  0  0  0  0  0
   58.2860   34.6348   44.3146 H   0  0  0  0  0  0  0  0  0  0  0  0
   59.0535   33.1943   45.1059 H   0  0  0  0  0  0  0  0  0  0  0  0
   59.9575   30.6331   43.8790 H   0  0  0  0  0  0  0  0  0  0  0  0
   59.7135   28.4899   45.1437 H   0  0  0  0  0  0  0  0  0  0  0  0
   59.2462   26.3746   44.9717 H   0  0  0  0  0  0  0  0  0  0  0  0
   59.0798   25.5348   46.5587 H   0  0  0  0  0  0  0  0  0  0  0  0
   58.2784   23.3497   46.5761 H   0  0  0  0  0  0  0  0  0  0  0  0
   57.1715   21.4435   45.4057 H   0  0  0  0  0  0  0  0  0  0  0  0
   56.1034   21.7939   43.1773 H   0  0  0  0  0  0  0  0  0  0  0  0
   56.1340   24.0549   42.1178 H   0  0  0  0  0  0  0  0  0  0  0  0
   57.2356   25.9678   43.2826 H   0  0  0  0  0  0  0  0  0  0  0  0
   59.0620   35.4051   47.6558 H   0  0  0  0  0  0  0  0  0  0  0  0
   61.4007   35.0605   48.4362 H   0  0  0  0  0  0  0  0  0  0  0  0
  1  2  1  0
  2  3  2  0
  3  4  1  0
  4  5  2  0
  5  6  1  0
  6  7  1  0
  7  8  1  0
  8  9  1  0
  9 10  1  0
 10 11  2  0
 11 12  1  0
 12 13  2  0
 13 14  1  0
 14 15  2  0
 14 16  2  0
 14 17  1  0
 17 18  1  0
 18 19  2  0
 19 20  1  0
 20 21  2  0
 21 22  1  0
 22 23  2  0
 13 24  1  0
 24 25  1  0
 24 26  2  0
  5 27  1  0
 27 28  2  0
 28  2  1  0
 26 10  1  0
 23 18  1  0
  1 29  1  0
  1 30  1  0
  1 31  1  0
  3 32  1  0
  4 33  1  0
  7 34  1  0
  7 35  1  0
  8 36  1  0
  8 37  1  0
 11 38  1  0
 12 39  1  0
 17 40  1  0
 17 41  1  0
 19 42  1  0
 20 43  1  0
 21 44  1  0
 22 45  1  0
 23 46  1  0
 27 47  1  0
 28 48  1  0
M  CHG  1  25  -1
M  END
>  <UniqueID>  (15) 
15

>  <SMILES>  (15) 
Cc1ccc(OCCSc2ccc(S(=O)(=O)Cc3ccccc3)c([O-])n2)cc1

>  <Energy>  (15) 
37.91359465710208

>  <Genealogy>  (15) 
Cc1ccc(OCCSc2ccc(S(=O)(=O)Cc3ccccc3)c([O-])n2)cc1 (protonated)
Cc1ccc(OCCSc2ccc(S(=O)(=O)Cc3ccccc3)c([O-])n2)cc1 (3D coordinates assigned)
Cc1ccc(OCCSc2ccc(S(=O)(=O)Cc3ccccc3)c([O-])n2)cc1 (optimized conformer: 37.91359465710208 kcal/mol)

>  <smiles>  (15) 
Cc1ccc(OCCSc2ccc(S(=O)(=O)Cc3ccccc3)c(O)n2)cc1

>  <score_type>  (15) 
oracle

>  <origin>  (15) 
adg

>  <m_score__min__energy>  (15) 
-13.16

>  <m_primary>  (15) 
energy

$$$$
15:0
     RDKit          3D

 54 57  0  0  0  0  0  0  0  0999 V2000
   64.4130   26.5360   52.9930 C   0  0  0  0  0  0  0  0  0  0  0  0
   63.2660   27.3680   53.1260 O   0  0  0  0  0  0  0  0  0  0  0  0
   62.4010   27.6980   52.0730 C   0  0  0  0  0  0  0  0  0  0  0  0
   62.2260   29.0210   51.6260 C   0  0  0  0  0  0  0  0  0  0  0  0
   61.3490   29.2990   50.5730 C   0  0  0  0  0  0  0  0  0  0  0  0
   60.6470   28.2610   49.9400 C   0  0  0  0  0  0  0  0  0  0  0  0
   59.6450   28.5690   48.8610 C   0  0  0  0  0  0  0  0  0  0  0  0
   60.0340   27.9700   47.5880 N   0  0  0  0  0  0  0  0  0  0  0  0
   59.1580   27.7650   46.4720 C   0  0  0  0  0  0  0  0  0  0  0  0
   59.1430   26.6390   45.9110 O   0  0  0  0  0  0  0  0  0  0  0  0
   58.2740   28.8310   45.9700 C   0  0  0  0  0  0  0  0  0  0  0  0
   58.6790   30.1260   46.0580 N   0  0  0  0  0  0  0  0  0  0  0  0
   57.9210   31.1480   45.5800 C   0  0  0  0  0  0  0  0  0  0  0  0
   58.4010   32.5500   45.6620 C   0  0  0  0  0  0  0  0  0  0  0  0
   58.6590   33.2510   44.4690 C   0  0  0  0  0  0  0  0  0  0  0  0
   59.1230   34.5660   44.5020 C   0  0  0  0  0  0  0  0  0  0  0  0
   59.3550   35.1930   45.7230 C   0  0  0  0  0  0  0  0  0  0  0  0
   59.1170   34.5130   46.9190 C   0  0  0  0  0  0  0  0  0  0  0  0
   58.6170   33.1960   46.9080 C   0  0  0  0  0  0  0  0  0  0  0  0
   58.3730   32.4680   48.1240 N   0  0  0  0  0  0  0  0  0  0  0  0
   59.3030   31.9530   49.0890 C   0  0  0  0  0  0  0  0  0  0  0  0
   58.8980   31.3290   50.1060 O   0  0  0  0  0  0  0  0  0  0  0  0
   60.7570   32.0910   48.8450 C   0  0  0  0  0  0  0  0  0  0  0  0
   61.5440   32.9280   49.6600 C   0  0  0  0  0  0  0  0  0  0  0  0
   62.9080   33.0940   49.3980 C   0  0  0  0  0  0  0  0  0  0  0  0
   63.5010   32.4270   48.3240 C   0  0  0  0  0  0  0  0  0  0  0  0
   62.7330   31.5910   47.5100 C   0  0  0  0  0  0  0  0  0  0  0  0
   61.3690   31.4220   47.7670 C   0  0  0  0  0  0  0  0  0  0  0  0
   56.7140   30.8730   45.0130 N   0  0  0  0  0  0  0  0  0  0  0  0
   56.2620   29.5980   44.8970 C   0  0  0  0  0  0  0  0  0  0  0  0
   55.1420   29.3840   44.3640 O   0  0  0  0  0  0  0  0  0  0  0  0
   57.0440   28.5330   45.3680 C   0  0  0  0  0  0  0  0  0  0  0  0
   56.6120   27.2100   45.2590 O   0  0  0  0  0  0  0  0  0  0  0  0
   60.8220   26.9420   50.3880 C   0  0  0  0  0  0  0  0  0  0  0  0
   61.6920   26.6660   51.4460 C   0  0  0  0  0  0  0  0  0  0  0  0
   64.7870   26.2647   53.9913 H   0  0  0  0  0  0  0  0  0  0  0  0
   64.1419   25.6231   52.4425 H   0  0  0  0  0  0  0  0  0  0  0  0
   65.1966   27.0771   52.4425 H   0  0  0  0  0  0  0  0  0  0  0  0
   62.7814   29.8397   52.1070 H   0  0  0  0  0  0  0  0  0  0  0  0
   61.2083   30.3374   50.2385 H   0  0  0  0  0  0  0  0  0  0  0  0
   58.6639   28.1709   49.1592 H   0  0  0  0  0  0  0  0  0  0  0  0
   59.5996   29.6604   48.7312 H   0  0  0  0  0  0  0  0  0  0  0  0
   58.4930   32.7566   43.5005 H   0  0  0  0  0  0  0  0  0  0  0  0
   59.3057   35.1080   43.5624 H   0  0  0  0  0  0  0  0  0  0  0  0
   59.7272   36.2279   45.7457 H   0  0  0  0  0  0  0  0  0  0  0  0
   59.3218   35.0102   47.8786 H   0  0  0  0  0  0  0  0  0  0  0  0
   61.0827   33.4548   50.5084 H   0  0  0  0  0  0  0  0  0  0  0  0
   63.5144   33.7509   50.0389 H   0  0  0  0  0  0  0  0  0  0  0  0
   64.5735   32.5600   48.1189 H   0  0  0  0  0  0  0  0  0  0  0  0
   63.2020   31.0648   46.6655 H   0  0  0  0  0  0  0  0  0  0  0  0
   60.7696   30.7619   47.1228 H   0  0  0  0  0  0  0  0  0  0  0  0
   57.2170   26.4730   44.9180 H   0  0  0  0  0  0  0  0  0  0  0  0
   60.2716   26.1219   49.9038 H   0  0  0  0  0  0  0  0  0  0  0  0
   61.8211   25.6290   51.7894 H   0  0  0  0  0  0  0  0  0  0  0  0
  1  2  1  0
  2  3  1  0
  3  4  2  0
  4  5  1  0
  5  6  2  0
  6  7  1  0
  7  8  1  0
  8  9  1  0
  9 10  2  0
  9 11  1  0
 11 12  1  0
 12 13  1  0
 13 14  1  0
 14 15  2  0
 15 16  1  0
 16 17  2  0
 17 18  1  0
 18 19  2  0
 19 20  1  0
 20 21  1  0
 21 22  2  0
 21 23  1  0
 23 24  2  0
 24 25  1  0
 25 26  2  0
 26 27  1  0
 27 28  2  0
 13 29  2  0
 29 30  1  0
 30 31  2  0
 30 32  1  0
 32 33  1  0
  6 34  1  0
 34 35  2  0
 35  3  1  0
 32 11  2  0
 19 14  1  0
 28 23  1  0
  1 36  1  0
  1 37  1  0
  1 38  1  0
  4 39  1  0
  5 40  1  0
  7 41  1  0
  7 42  1  0
 15 43  1  0
 16 44  1  0
 17 45  1  0
 18 46  1  0
 24 47  1  0
 25 48  1  0
 26 49  1  0
 27 50  1  0
 28 51  1  0
 33 52  1  0
 34 53  1  0
 35 54  1  0
M  CHG  3   8  -1  12  -1  20  -1
M  END
>  <UniqueID>  (16) 
16

>  <SMILES>  (16) 
COc1ccc(C[N-]C(=O)c2[n-]c(-c3ccccc3[N-]C(=O)c3ccccc3)nc(=O)c2O)cc1

>  <Energy>  (16) 
64.05709271307295

>  <Genealogy>  (16) 
COc1ccc(C[N-]C(=O)c2[n-]c(-c3ccccc3[N-]C(=O)c3ccccc3)nc(=O)c2O)cc1 (protonated)
COc1ccc(C[N-]C(=O)c2[n-]c(-c3ccccc3[N-]C(=O)c3ccccc3)nc(=O)c2O)cc1 (3D coordinates assigned)
COc1ccc(C[N-]C(=O)c2[n-]c(-c3ccccc3[N-]C(=O)c3ccccc3)nc(=O)c2O)cc1 (optimized conformer: 64.05709271307295 kcal/mol)

>  <smiles>  (16) 
COc1ccc(CNC(=O)c2[nH]c(-c3ccccc3NC(=O)c3ccccc3)nc(=O)c2O)cc1

>  <score_type>  (16) 
oracle

>  <origin>  (16) 
adg

>  <m_score__min__energy>  (16) 
-12.66

>  <m_primary>  (16) 
energy

$$$$
16:0
     RDKit          3D

 49 52  0  0  0  0  0  0  0  0999 V2000
   62.1380   33.5110   46.8730 C   0  0  0  0  0  0  0  0  0  0  0  0
   61.0970   34.1930   47.6920 C   0  0  0  0  0  0  0  0  0  0  0  0
   61.3200   34.4300   48.9110 O   0  0  0  0  0  0  0  0  0  0  0  0
   59.8490   34.4760   47.1250 O   0  0  0  0  0  0  0  0  0  0  0  0
   59.0810   33.5460   46.4120 C   0  0  0  0  0  0  0  0  0  0  0  0
   58.5110   33.9450   45.1980 C   0  0  0  0  0  0  0  0  0  0  0  0
   57.7480   33.0520   44.4440 C   0  0  0  0  0  0  0  0  0  0  0  0
   57.5340   31.7460   44.9030 C   0  0  0  0  0  0  0  0  0  0  0  0
   56.7610   30.7640   44.0620 C   0  0  0  0  0  0  0  0  0  0  0  0
   57.6770   29.8420   43.3750 N   0  0  0  0  0  0  0  0  0  0  0  0
   57.5710   28.5240   43.9490 C   0  0  0  0  0  0  0  0  0  0  0  0
   58.2350   27.4230   43.3410 C   0  0  0  0  0  0  0  0  0  0  0  0
   58.1120   26.1280   43.8730 C   0  0  0  0  0  0  0  0  0  0  0  0
   57.3130   25.9630   45.0010 C   0  0  0  0  0  0  0  0  0  0  0  0
   57.0500   24.8260   45.6600 N   0  0  0  0  0  0  0  0  0  0  0  0
   56.2240   25.2550   46.6470 C   0  0  0  0  0  0  0  0  0  0  0  0
   55.7390   24.4740   47.5080 O   0  0  0  0  0  0  0  0  0  0  0  0
   55.9580   26.5860   46.6430 N   0  0  0  0  0  0  0  0  0  0  0  0
   56.6650   27.0090   45.5840 C   0  0  0  0  0  0  0  0  0  0  0  0
   56.7630   28.3070   45.0900 C   0  0  0  0  0  0  0  0  0  0  0  0
   58.0950   31.3430   46.1240 C   0  0  0  0  0  0  0  0  0  0  0  0
   58.8380   32.2480   46.9050 C   0  0  0  0  0  0  0  0  0  0  0  0
   59.3570   31.8850   48.1580 O   0  0  0  0  0  0  0  0  0  0  0  0
   60.3370   30.9080   48.3870 C   0  0  0  0  0  0  0  0  0  0  0  0
   61.2790   31.1250   49.1970 O   0  0  0  0  0  0  0  0  0  0  0  0
   60.2950   29.6400   47.6250 C   0  0  0  0  0  0  0  0  0  0  0  0
   59.7960   28.4630   48.2150 C   0  0  0  0  0  0  0  0  0  0  0  0
   59.7600   27.2690   47.4880 C   0  0  0  0  0  0  0  0  0  0  0  0
   60.2220   27.2350   46.1700 C   0  0  0  0  0  0  0  0  0  0  0  0
   60.7190   28.3970   45.5750 C   0  0  0  0  0  0  0  0  0  0  0  0
   60.7550   29.5950   46.2970 C   0  0  0  0  0  0  0  0  0  0  0  0
   62.8711   33.0307   47.5378 H   0  0  0  0  0  0  0  0  0  0  0  0
   61.6636   32.7481   46.2383 H   0  0  0  0  0  0  0  0  0  0  0  0
   62.6480   34.2506   46.2383 H   0  0  0  0  0  0  0  0  0  0  0  0
   58.6656   34.9717   44.8346 H   0  0  0  0  0  0  0  0  0  0  0  0
   57.3134   33.3748   43.4864 H   0  0  0  0  0  0  0  0  0  0  0  0
   56.0845   30.1868   44.7094 H   0  0  0  0  0  0  0  0  0  0  0  0
   56.1829   31.3187   43.3083 H   0  0  0  0  0  0  0  0  0  0  0  0
   58.6610   30.1880   43.4670 H   0  0  0  0  0  0  0  0  0  0  0  0
   57.4410   29.8030   42.3560 H   0  0  0  0  0  0  0  0  0  0  0  0
   58.8514   27.5868   42.4448 H   0  0  0  0  0  0  0  0  0  0  0  0
   58.6298   25.2732   43.4134 H   0  0  0  0  0  0  0  0  0  0  0  0
   56.2284   29.1387   45.5722 H   0  0  0  0  0  0  0  0  0  0  0  0
   57.9529   30.3100   46.4743 H   0  0  0  0  0  0  0  0  0  0  0  0
   59.4326   28.4828   49.2531 H   0  0  0  0  0  0  0  0  0  0  0  0
   59.3668   26.3540   47.9552 H   0  0  0  0  0  0  0  0  0  0  0  0
   60.1944   26.2939   45.6012 H   0  0  0  0  0  0  0  0  0  0  0  0
   61.0827   28.3702   44.5372 H   0  0  0  0  0  0  0  0  0  0  0  0
   61.1456   30.5074   45.8227 H   0  0  0  0  0  0  0  0  0  0  0  0
  1  2  1  0
  2  3  2  0
  2  4  1  0
  4  5  1  0
  5  6  2  0
  6  7  1  0
  7  8  2  0
  8  9  1  0
  9 10  1  0
 10 11  1  0
 11 12  2  0
 12 13  1  0
 13 14  2  0
 14 15  1  0
 15 16  1  0
 16 17  2  0
 16 18  1  0
 18 19  1  0
 19 20  2  0
  8 21  1  0
 21 22  2  0
 22 23  1  0
 23 24  1  0
 24 25  2  0
 24 26  1  0
 26 27  2  0
 27 28  1  0
 28 29  2  0
 29 30  1  0
 30 31  2  0
 22  5  1  0
 31 26  1  0
 20 11  1  0
 19 14  1  0
  1 32  1  0
  1 33  1  0
  1 34  1  0
  6 35  1  0
  7 36  1  0
  9 37  1  0
  9 38  1  0
 10 39  1  0
 10 40  1  0
 12 41  1  0
 13 42  1  0
 20 43  1  0
 21 44  1  0
 27 45  1  0
 28 46  1  0
 29 47  1  0
 30 48  1  0
 31 49  1  0
M  CHG  3  10   1  15  -1  18  -1
M  END
>  <UniqueID>  (17) 
17

>  <SMILES>  (17) 
CC(=O)Oc1ccc(C[NH2+]c2ccc3[n-]c(=O)[n-]c3c2)cc1OC(=O)c1ccccc1

>  <Energy>  (17) 
97.54373310841012

>  <Genealogy>  (17) 
CC(=O)Oc1ccc(C[NH2+]c2ccc3[n-]c(=O)[n-]c3c2)cc1OC(=O)c1ccccc1 (protonated)
CC(=O)Oc1ccc(C[NH2+]c2ccc3[n-]c(=O)[n-]c3c2)cc1OC(=O)c1ccccc1 (3D coordinates assigned)
CC(=O)Oc1ccc(C[NH2+]c2ccc3[n-]c(=O)[n-]c3c2)cc1OC(=O)c1ccccc1 (optimized conformer: 97.54373310841012 kcal/mol)

>  <smiles>  (17) 
CC(=O)Oc1ccc(CNc2ccc3[nH]c(=O)[nH]c3c2)cc1OC(=O)c1ccccc1

>  <score_type>  (17) 
oracle

>  <origin>  (17) 
adg

>  <m_score__min__energy>  (17) 
-11.140000000000001

>  <m_primary>  (17) 
energy

$$$$
17:0
     RDKit          3D

 53 57  0  0  0  0  0  0  0  0999 V2000
   58.0745   34.0260   48.1685 H   0  0  0  0  0  0  0  0  0  0  0  0
   58.2230   33.8320   47.0960 C   0  0  0  0  0  0  0  0  0  0  0  0
   57.7520   32.6810   46.5420 N   0  0  0  0  0  0  0  0  0  0  0  0
   57.9120   32.4020   45.2150 C   0  0  0  0  0  0  0  0  0  0  0  0
   57.4030   31.1250   44.6680 C   0  0  0  0  0  0  0  0  0  0  0  0
   57.2210   30.0270   45.4540 N   0  0  0  0  0  0  0  0  0  0  0  0
   56.7240   28.9850   44.7470 C   0  0  0  0  0  0  0  0  0  0  0  0
   56.4260   27.8290   45.2650 N   0  0  0  0  0  0  0  0  0  0  0  0
   57.1800   27.1570   46.2880 C   0  0  0  0  0  0  0  0  0  0  0  0
   57.0210   27.5190   47.4840 O   0  0  0  0  0  0  0  0  0  0  0  0
   58.0390   25.9850   45.9720 C   0  0  0  0  0  0  0  0  0  0  0  0
   57.4510   24.8660   45.4590 N   0  0  0  0  0  0  0  0  0  0  0  0
   58.1470   23.7300   45.1940 C   0  0  0  0  0  0  0  0  0  0  0  0
   57.2460   22.2220   44.4470 Br  0  0  0  0  0  0  0  0  0  0  0  0
   59.5140   23.6690   45.4720 C   0  0  0  0  0  0  0  0  0  0  0  0
   60.0803   22.7459   45.2792 H   0  0  0  0  0  0  0  0  0  0  0  0
   60.1530   24.7920   45.9970 C   0  0  0  0  0  0  0  0  0  0  0  0
   61.2300   24.7569   46.2179 H   0  0  0  0  0  0  0  0  0  0  0  0
   59.4270   25.9650   46.2440 C   0  0  0  0  0  0  0  0  0  0  0  0
   60.1260   27.1310   46.6990 N   0  0  0  0  0  0  0  0  0  0  0  0
   60.0690   28.3650   45.8990 C   0  0  0  0  0  0  0  0  0  0  0  0
   60.5226   28.1755   44.9150 H   0  0  0  0  0  0  0  0  0  0  0  0
   59.0150   28.6606   45.7909 H   0  0  0  0  0  0  0  0  0  0  0  0
   60.8230   29.5060   46.5840 C   0  0  0  0  0  0  0  0  0  0  0  0
   61.9058   29.3347   46.4938 H   0  0  0  0  0  0  0  0  0  0  0  0
   60.5582   30.4586   46.1019 H   0  0  0  0  0  0  0  0  0  0  0  0
   60.4530   29.5610   48.0090 N   0  0  0  0  0  0  0  0  0  0  0  0
   60.2110   30.8320   48.6350 C   0  0  0  0  0  0  0  0  0  0  0  0
   58.9960   31.0590   49.3030 C   0  0  0  0  0  0  0  0  0  0  0  0
   58.2388   30.2624   49.3479 H   0  0  0  0  0  0  0  0  0  0  0  0
   58.7450   32.2930   49.9110 C   0  0  0  0  0  0  0  0  0  0  0  0
   57.7917   32.4649   50.4322 H   0  0  0  0  0  0  0  0  0  0  0  0
   59.7050   33.3090   49.8570 C   0  0  0  0  0  0  0  0  0  0  0  0
   59.5047   34.2811   50.3312 H   0  0  0  0  0  0  0  0  0  0  0  0
   60.9210   33.0880   49.1990 C   0  0  0  0  0  0  0  0  0  0  0  0
   61.6770   33.8862   49.1617 H   0  0  0  0  0  0  0  0  0  0  0  0
   61.1790   31.8500   48.5860 C   0  0  0  0  0  0  0  0  0  0  0  0
   62.7110   31.6010   47.7510 Cl  0  0  0  0  0  0  0  0  0  0  0  0
   60.3960   28.3390   48.8260 C   0  0  0  0  0  0  0  0  0  0  0  0
   61.0846   28.4443   49.6774 H   0  0  0  0  0  0  0  0  0  0  0  0
   59.3625   28.2030   49.1772 H   0  0  0  0  0  0  0  0  0  0  0  0
   60.7980   27.1020   48.0060 C   0  0  0  0  0  0  0  0  0  0  0  0
   61.8878   27.1015   47.8564 H   0  0  0  0  0  0  0  0  0  0  0  0
   60.4979   26.1934   48.5486 H   0  0  0  0  0  0  0  0  0  0  0  0
   56.4700   29.3780   43.1350 S   0  0  0  0  0  0  0  0  0  0  0  0
   57.0400   30.9530   43.3290 C   0  0  0  0  0  0  0  0  0  0  0  0
   57.1135   31.7140   42.5382 H   0  0  0  0  0  0  0  0  0  0  0  0
   58.5800   33.3270   44.3910 C   0  0  0  0  0  0  0  0  0  0  0  0
   58.7118   33.1187   43.3190 H   0  0  0  0  0  0  0  0  0  0  0  0
   59.0750   34.5120   44.9430 C   0  0  0  0  0  0  0  0  0  0  0  0
   59.6033   35.2387   44.3083 H   0  0  0  0  0  0  0  0  0  0  0  0
   58.8960   34.7690   46.3030 C   0  0  0  0  0  0  0  0  0  0  0  0
   59.2801   35.6990   46.7476 H   0  0  0  0  0  0  0  0  0  0  0  0
  1  2  1  0
  2  3  2  0
  3  4  1  0
  4  5  1  0
  5  6  1  0
  6  7  1  0
  7  8  2  0
  8  9  1  0
  9 10  2  0
  9 11  1  0
 11 12  2  0
 12 13  1  0
 13 14  1  0
 13 15  2  0
 15 16  1  0
 15 17  1  0
 17 18  1  0
 17 19  2  0
 19 20  1  0
 20 21  1  0
 21 22  1  0
 21 23  1  0
 21 24  1  0
 24 25  1  0
 24 26  1  0
 24 27  1  0
 27 28  1  0
 28 29  2  0
 29 30  1  0
 29 31  1  0
 31 32  1  0
 31 33  2  0
 33 34  1  0
 33 35  1  0
 35 36  1  0
 35 37  2  0
 37 38  1  0
 27 39  1  0
 39 40  1  0
 39 41  1  0
 39 42  1  0
 42 43  1  0
 42 44  1  0
  7 45  1  0
 45 46  1  0
 46 47  1  0
  4 48  2  0
 48 49  1  0
 48 50  1  0
 50 51  1  0
 50 52  2  0
 52 53  1  0
 52  2  1  0
 46  5  2  0
 19 11  1  0
 42 20  1  0
 37 28  1  0
M  CHG  1   6  -1
M  END
>  <UniqueID>  (18) 
18

>  <SMILES>  (18) 
O=C(/N=c1\[n-]c(-c2ccccn2)cs1)c1nc(Br)ccc1N1CCN(c2ccccc2Cl)CC1

>  <Energy>  (18) 
107.99158575716207

>  <Genealogy>  (18) 
O=C(N=c1[n-]c(-c2ccccn2)cs1)c1nc(Br)ccc1N1CCN(c2ccccc2Cl)CC1 (protonated)
O=C(/N=c1\[n-]c(-c2ccccn2)cs1)c1nc(Br)ccc1N1CCN(c2ccccc2Cl)CC1 (cis-trans isomerization)
O=C(/N=c1\[n-]c(-c2ccccn2)cs1)c1nc(Br)ccc1N1CCN(c2ccccc2Cl)CC1 (3D coordinates assigned)
O=C(/N=c1\[n-]c(-c2ccccn2)cs1)c1nc(Br)ccc1N1CCN(c2ccccc2Cl)CC1 (nonaromatic ring conformer: 107.99158575716207 kcal/mol)

>  <smiles>  (18) 
O=C(N=c1[nH]c(-c2ccccn2)cs1)c1nc(Br)ccc1N1CCN(c2ccccc2Cl)CC1

>  <score_type>  (18) 
oracle

>  <origin>  (18) 
adg

>  <m_score__min__energy>  (18) 
-10.9

>  <m_primary>  (18) 
energy

$$$$
18:0
     RDKit          3D

 53 55  0  0  0  0  0  0  0  0999 V2000
   60.3340   34.0050   45.6380 C   0  0  0  0  0  0  0  0  0  0  0  0
   59.0550   34.3820   45.6100 C   0  0  0  0  0  0  0  0  0  0  0  0
   57.9980   33.6770   46.4170 C   0  0  0  0  0  0  0  0  0  0  0  0
   58.6000   32.7360   47.3920 N   0  0  0  0  0  0  0  0  0  0  0  0
   58.5270   31.3680   47.2160 C   0  0  0  0  0  0  0  0  0  0  0  0
   58.0240   30.7570   45.9970 N   0  0  0  0  0  0  0  0  0  0  0  0
   58.4510   29.3790   45.9080 C   0  0  0  0  0  0  0  0  0  0  0  0
   57.5070   28.3400   45.9980 C   0  0  0  0  0  0  0  0  0  0  0  0
   57.9010   27.0020   45.9020 C   0  0  0  0  0  0  0  0  0  0  0  0
   56.6910   25.7280   45.9760 S   0  0  0  0  0  0  0  0  0  0  0  0
   55.1160   26.4340   46.0110 N   0  0  0  0  0  0  0  0  0  0  0  0
   56.9020   24.8990   47.2120 O   0  0  0  0  0  0  0  0  0  0  0  0
   56.8090   24.8360   44.7750 O   0  0  0  0  0  0  0  0  0  0  0  0
   59.2520   26.6890   45.7140 C   0  0  0  0  0  0  0  0  0  0  0  0
   60.2010   27.7080   45.6310 C   0  0  0  0  0  0  0  0  0  0  0  0
   59.8100   29.0470   45.7270 C   0  0  0  0  0  0  0  0  0  0  0  0
   60.7570   30.0150   45.6320 F   0  0  0  0  0  0  0  0  0  0  0  0
   58.9500   30.5250   48.2470 C   0  0  0  0  0  0  0  0  0  0  0  0
   59.5300   31.0630   49.3830 C   0  0  0  0  0  0  0  0  0  0  0  0
   59.9160   30.2830   50.2960 O   0  0  0  0  0  0  0  0  0  0  0  0
   59.6900   32.4160   49.5010 N   0  0  0  0  0  0  0  0  0  0  0  0
   60.3680   32.9810   50.6910 C   0  0  0  0  0  0  0  0  0  0  0  0
   61.8810   32.6740   50.7180 C   0  0  1  0  0  0  0  0  0  0  0  0
   62.1230   31.4000   51.2550 O   0  0  0  0  0  0  0  0  0  0  0  0
   62.5000   32.7940   49.3440 C   0  0  0  0  0  0  0  0  0  0  0  0
   62.8310   34.0630   48.8360 C   0  0  0  0  0  0  0  0  0  0  0  0
   63.3530   34.1960   47.5470 C   0  0  0  0  0  0  0  0  0  0  0  0
   63.5410   33.0660   46.7490 C   0  0  0  0  0  0  0  0  0  0  0  0
   63.2000   31.8020   47.2350 C   0  0  0  0  0  0  0  0  0  0  0  0
   62.6810   31.6620   48.5250 C   0  0  0  0  0  0  0  0  0  0  0  0
   59.2200   33.2460   48.5120 C   0  0  0  0  0  0  0  0  0  0  0  0
   59.3670   34.4960   48.6330 O   0  0  0  0  0  0  0  0  0  0  0  0
   61.0796   34.5438   45.0348 H   0  0  0  0  0  0  0  0  0  0  0  0
   60.6433   33.1552   46.2643 H   0  0  0  0  0  0  0  0  0  0  0  0
   58.7638   35.2339   44.9780 H   0  0  0  0  0  0  0  0  0  0  0  0
   57.4047   34.4261   46.9619 H   0  0  0  0  0  0  0  0  0  0  0  0
   57.3623   33.1018   45.7278 H   0  0  0  0  0  0  0  0  0  0  0  0
   58.3440   31.2290   45.1270 H   0  0  0  0  0  0  0  0  0  0  0  0
   56.9810   30.8310   46.0040 H   0  0  0  0  0  0  0  0  0  0  0  0
   56.4445   28.5835   46.1459 H   0  0  0  0  0  0  0  0  0  0  0  0
   55.2470   27.4660   46.0160 H   0  0  0  0  0  0  0  0  0  0  0  0
   59.5660   25.6380   45.6316 H   0  0  0  0  0  0  0  0  0  0  0  0
   61.2625   27.4568   45.4893 H   0  0  0  0  0  0  0  0  0  0  0  0
   58.8224   29.4362   48.1561 H   0  0  0  0  0  0  0  0  0  0  0  0
   60.2306   34.0724   50.6890 H   0  0  0  0  0  0  0  0  0  0  0  0
   59.9191   32.5155   51.5808 H   0  0  0  0  0  0  0  0  0  0  0  0
   62.3558   33.4249   51.3666 H   0  0  0  0  0  0  0  0  0  0  0  0
   61.3000   30.8630   51.1130 H   0  0  0  0  0  0  0  0  0  0  0  0
   62.6778   34.9572   49.4581 H   0  0  0  0  0  0  0  0  0  0  0  0
   63.6161   35.1917   47.1606 H   0  0  0  0  0  0  0  0  0  0  0  0
   63.9581   33.1714   45.7366 H   0  0  0  0  0  0  0  0  0  0  0  0
   63.3403   30.9142   46.6008 H   0  0  0  0  0  0  0  0  0  0  0  0
   62.4128   30.6642   48.9024 H   0  0  0  0  0  0  0  0  0  0  0  0
  1  2  2  0
  2  3  1  0
  3  4  1  0
  4  5  1  0
  5  6  1  0
  6  7  1  0
  7  8  2  0
  8  9  1  0
  9 10  1  0
 10 11  1  0
 10 12  2  0
 10 13  2  0
  9 14  2  0
 14 15  1  0
 15 16  2  0
 16 17  1  0
  5 18  2  0
 18 19  1  0
 19 20  2  0
 19 21  1  0
 21 22  1  0
 22 23  1  0
 23 24  1  0
 23 25  1  0
 25 26  2  0
 26 27  1  0
 27 28  2  0
 28 29  1  0
 29 30  2  0
 21 31  1  0
 31 32  2  0
 31  4  1  0
 16  7  1  0
 30 25  1  0
  1 33  1  0
  1 34  1  0
  2 35  1  0
  3 36  1  0
  3 37  1  0
  6 38  1  0
  6 39  1  0
  8 40  1  0
 11 41  1  0
 14 42  1  0
 15 43  1  0
 18 44  1  0
 22 45  1  0
 22 46  1  0
 23 47  1  1
 24 48  1  0
 26 49  1  0
 27 50  1  0
 28 51  1  0
 29 52  1  0
 30 53  1  0
M  CHG  2   6   1  11  -1
M  END
>  <UniqueID>  (19) 
19

>  <SMILES>  (19) 
C=CCn1c([NH2+]c2cc(S([NH-])(=O)=O)ccc2F)cc(=O)n(C[C@@H](O)c2ccccc2)c1=O

>  <Energy>  (19) 
65.887051576041

>  <Genealogy>  (19) 
C=CCn1c([NH2+]c2cc(S([NH-])(=O)=O)ccc2F)cc(=O)n(CC(O)c2ccccc2)c1=O (protonated)
C=CCn1c([NH2+]c2cc(S([NH-])(=O)=O)ccc2F)cc(=O)n(C[C@@H](O)c2ccccc2)c1=O (chirality)
C=CCn1c([NH2+]c2cc(S([NH-])(=O)=O)ccc2F)cc(=O)n(C[C@@H](O)c2ccccc2)c1=O (3D coordinates assigned)
C=CCn1c([NH2+]c2cc(S([NH-])(=O)=O)ccc2F)cc(=O)n(C[C@@H](O)c2ccccc2)c1=O (optimized conformer: 65.887051576041 kcal/mol)

>  <smiles>  (19) 
C=CCn1c(Nc2cc(S(N)(=O)=O)ccc2F)cc(=O)n(CC(O)c2ccccc2)c1=O

>  <score_type>  (19) 
oracle

>  <origin>  (19) 
adg

>  <m_score__min__energy>  (19) 
-11.4

>  <m_primary>  (19) 
energy

$$$$
19:0
     RDKit          3D

 38 39  0  0  0  0  0  0  0  0999 V2000
   56.7000   30.3830   53.5180 O   0  0  0  0  0  0  0  0  0  0  0  0
   56.1460   30.4600   52.3890 C   0  0  0  0  0  0  0  0  0  0  0  0
   54.7130   30.9130   52.3030 C   0  0  0  0  0  0  0  0  0  0  0  0
   53.5730   29.5060   52.0380 S   0  0  0  0  0  0  0  0  0  0  0  0
   52.4330   30.4270   50.9930 C   0  0  0  0  0  0  0  0  0  0  0  0
   52.1020   29.9430   49.7680 N   0  0  0  0  0  0  0  0  0  0  0  0
   51.2630   30.6040   48.9670 N   0  0  0  0  0  0  0  0  0  0  0  0
   50.7170   31.7850   49.3590 C   0  0  0  0  0  0  0  0  0  0  0  0
   49.9320   32.4050   48.5930 O   0  0  0  0  0  0  0  0  0  0  0  0
   51.0160   32.2940   50.5820 N   0  0  0  0  0  0  0  0  0  0  0  0
   51.8670   31.6360   51.4110 C   0  0  0  0  0  0  0  0  0  0  0  0
   52.1280   32.1150   52.5470 O   0  0  0  0  0  0  0  0  0  0  0  0
   56.9310   30.1750   51.2210 N   0  0  0  0  0  0  0  0  0  0  0  0
   57.7910   31.1180   50.5080 C   0  0  0  0  0  0  0  0  0  0  0  0
   59.1170   30.4560   50.1330 C   0  0  0  0  0  0  0  0  0  0  0  0
   58.9250   29.5790   48.9850 N   0  0  0  0  0  0  0  0  0  0  0  0
   58.4210   30.0550   47.7310 C   0  0  0  0  0  0  0  0  0  0  0  0
   58.3840   31.2940   47.4850 O   0  0  0  0  0  0  0  0  0  0  0  0
   57.9770   29.0750   46.6910 C   0  0  0  0  0  0  0  0  0  0  0  0
   57.6060   29.7970   45.4220 C   0  0  0  0  0  0  0  0  0  0  0  0
   58.4990   30.7260   44.8620 C   0  0  0  0  0  0  0  0  0  0  0  0
   58.1880   31.3760   43.6640 C   0  0  0  0  0  0  0  0  0  0  0  0
   56.9850   31.1010   43.0120 C   0  0  0  0  0  0  0  0  0  0  0  0
   56.0950   30.1680   43.5510 C   0  0  0  0  0  0  0  0  0  0  0  0
   56.4030   29.5090   44.7480 C   0  0  0  0  0  0  0  0  0  0  0  0
   55.5190   28.5630   45.2510 O   0  0  0  0  0  0  0  0  0  0  0  0
   54.4423   31.4193   53.2413 H   0  0  0  0  0  0  0  0  0  0  0  0
   54.6201   31.5958   51.4456 H   0  0  0  0  0  0  0  0  0  0  0  0
   57.2812   31.4514   49.5921 H   0  0  0  0  0  0  0  0  0  0  0  0
   57.9956   31.9778   51.1629 H   0  0  0  0  0  0  0  0  0  0  0  0
   59.8538   31.2325   49.8799 H   0  0  0  0  0  0  0  0  0  0  0  0
   59.4803   29.8633   50.9855 H   0  0  0  0  0  0  0  0  0  0  0  0
   58.7956   28.3704   46.4824 H   0  0  0  0  0  0  0  0  0  0  0  0
   57.0980   28.5289   47.0639 H   0  0  0  0  0  0  0  0  0  0  0  0
   59.4501   30.9435   45.3701 H   0  0  0  0  0  0  0  0  0  0  0  0
   58.8918   32.1045   43.2350 H   0  0  0  0  0  0  0  0  0  0  0  0
   56.7373   31.6188   42.0736 H   0  0  0  0  0  0  0  0  0  0  0  0
   55.1491   29.9504   43.0333 H   0  0  0  0  0  0  0  0  0  0  0  0
  1  2  2  0
  2  3  1  0
  3  4  1  0
  4  5  1  0
  5  6  2  0
  6  7  1  0
  7  8  1  0
  8  9  2  0
  8 10  1  0
 10 11  1  0
 11 12  2  0
  2 13  1  0
 13 14  1  0
 14 15  1  0
 15 16  1  0
 16 17  1  0
 17 18  2  0
 17 19  1  0
 19 20  1  0
 20 21  2  0
 21 22  1  0
 22 23  2  0
 23 24  1  0
 24 25  2  0
 25 26  1  0
 11  5  1  0
 25 20  1  0
  3 27  1  0
  3 28  1  0
 14 29  1  0
 14 30  1  0
 15 31  1  0
 15 32  1  0
 19 33  1  0
 19 34  1  0
 21 35  1  0
 22 36  1  0
 23 37  1  0
 24 38  1  0
M  CHG  5   7  -1  10  -1  13  -1  16  -1  26  -1
M  END
>  <UniqueID>  (20) 
20

>  <SMILES>  (20) 
O=C(CSc1n[n-]c(=O)[n-]c1=O)[N-]CC[N-]C(=O)Cc1ccccc1[O-]

>  <Energy>  (20) 
31.024030637392098

>  <Genealogy>  (20) 
O=C(CSc1n[n-]c(=O)[n-]c1=O)[N-]CC[N-]C(=O)Cc1ccccc1[O-] (protonated)
O=C(CSc1n[n-]c(=O)[n-]c1=O)[N-]CC[N-]C(=O)Cc1ccccc1[O-] (3D coordinates assigned)
O=C(CSc1n[n-]c(=O)[n-]c1=O)[N-]CC[N-]C(=O)Cc1ccccc1[O-] (optimized conformer: 31.024030637392098 kcal/mol)

>  <smiles>  (20) 
O=C(CSc1n[nH]c(=O)[nH]c1=O)NCCNC(=O)Cc1ccccc1O

>  <score_type>  (20) 
oracle

>  <origin>  (20) 
adg

>  <m_score__min__energy>  (20) 
-17.84

>  <m_primary>  (20) 
energy

$$$$
20:0
     RDKit          3D

 49 52  0  0  0  0  0  0  0  0999 V2000
   58.1030   32.3210   50.2130 C   0  0  0  0  0  0  0  0  0  0  0  0
   58.6760   31.2200   49.4370 N   0  0  0  0  0  0  0  0  0  0  0  0
   58.9870   29.9810   49.8730 C   0  0  0  0  0  0  0  0  0  0  0  0
   58.7160   29.4580   51.1820 N   0  0  0  0  0  0  0  0  0  0  0  0
   59.6410   28.9640   51.8590 O   0  0  0  0  0  0  0  0  0  0  0  0
   57.4350   29.4160   51.6800 O   0  0  0  0  0  0  0  0  0  0  0  0
   59.6150   29.2930   48.8570 C   0  0  0  0  0  0  0  0  0  0  0  0
   59.6940   30.0880   47.7720 N   0  0  0  0  0  0  0  0  0  0  0  0
   59.1060   31.2440   48.1510 C   0  0  0  0  0  0  0  0  0  0  0  0
   58.9460   32.3800   47.2210 C   0  0  0  0  0  0  0  0  0  0  0  0
   59.6940   33.5480   47.4410 C   0  0  0  0  0  0  0  0  0  0  0  0
   59.6370   34.6060   46.5310 C   0  0  0  0  0  0  0  0  0  0  0  0
   58.8510   34.4990   45.3830 C   0  0  0  0  0  0  0  0  0  0  0  0
   58.1230   33.3340   45.1380 C   0  0  0  0  0  0  0  0  0  0  0  0
   58.1640   32.2680   46.0510 C   0  0  0  0  0  0  0  0  0  0  0  0
   57.4730   31.0510   45.7560 N   0  0  0  0  0  0  0  0  0  0  0  0
   58.1560   29.8710   44.6920 S   0  0  0  0  0  0  0  0  0  0  0  0
   57.4750   29.9440   43.3550 O   0  0  0  0  0  0  0  0  0  0  0  0
   59.6260   30.1310   44.5120 O   0  0  0  0  0  0  0  0  0  0  0  0
   57.8690   28.2880   45.4020 C   0  0  0  0  0  0  0  0  0  0  0  0
   58.8620   27.6440   46.1510 C   0  0  0  0  0  0  0  0  0  0  0  0
   58.5730   26.4460   46.8110 C   0  0  0  0  0  0  0  0  0  0  0  0
   57.2870   25.9020   46.7470 C   0  0  0  0  0  0  0  0  0  0  0  0
   56.2820   26.5540   46.0120 C   0  0  0  0  0  0  0  0  0  0  0  0
   54.9490   26.0340   45.9500 N   0  0  0  0  0  0  0  0  0  0  0  0
   54.6080   24.6820   45.6150 C   0  0  0  0  0  0  0  0  0  0  0  0
   53.6090   24.1540   46.1690 O   0  0  0  0  0  0  0  0  0  0  0  0
   55.4380   23.8790   44.6960 C   0  0  0  0  0  0  0  0  0  0  0  0
   56.5020   24.3620   43.9550 C   0  0  0  0  0  0  0  0  0  0  0  0
   56.9690   23.3010   43.2120 C   0  0  0  0  0  0  0  0  0  0  0  0
   56.1590   22.2330   43.5370 C   0  0  0  0  0  0  0  0  0  0  0  0
   56.2800   20.9520   43.0110 O   0  0  0  0  0  0  0  0  0  0  0  0
   55.2190   22.5720   44.4360 N   0  0  0  0  0  0  0  0  0  0  0  0
   56.5880   27.7280   45.3190 C   0  0  0  0  0  0  0  0  0  0  0  0
   58.2133   32.1091   51.2867 H   0  0  0  0  0  0  0  0  0  0  0  0
   58.6293   33.2553   49.9677 H   0  0  0  0  0  0  0  0  0  0  0  0
   57.0359   32.4260   49.9677 H   0  0  0  0  0  0  0  0  0  0  0  0
   59.9910   28.2613   48.9216 H   0  0  0  0  0  0  0  0  0  0  0  0
   60.3288   33.6301   48.3356 H   0  0  0  0  0  0  0  0  0  0  0  0
   60.2123   35.5245   46.7194 H   0  0  0  0  0  0  0  0  0  0  0  0
   58.8052   35.3350   44.6695 H   0  0  0  0  0  0  0  0  0  0  0  0
   57.5143   33.2504   44.2256 H   0  0  0  0  0  0  0  0  0  0  0  0
   59.8692   28.0808   46.2199 H   0  0  0  0  0  0  0  0  0  0  0  0
   59.3593   25.9304   47.3819 H   0  0  0  0  0  0  0  0  0  0  0  0
   57.0613   24.9624   47.2726 H   0  0  0  0  0  0  0  0  0  0  0  0
   56.8962   25.3889   43.9587 H   0  0  0  0  0  0  0  0  0  0  0  0
   57.8126   23.3044   42.5061 H   0  0  0  0  0  0  0  0  0  0  0  0
   57.0200   20.3300   43.3170 H   0  0  0  0  0  0  0  0  0  0  0  0
   55.8174   28.2158   44.7040 H   0  0  0  0  0  0  0  0  0  0  0  0
  1  2  1  0
  2  3  1  0
  3  4  1  0
  4  5  2  0
  4  6  1  0
  3  7  2  0
  7  8  1  0
  8  9  2  0
  9 10  1  0
 10 11  2  0
 11 12  1  0
 12 13  2  0
 13 14  1  0
 14 15  2  0
 15 16  1  0
 16 17  1  0
 17 18  2  0
 17 19  2  0
 17 20  1  0
 20 21  2  0
 21 22  1  0
 22 23  2  0
 23 24  1  0
 24 25  1  0
 25 26  1  0
 26 27  2  0
 26 28  1  0
 28 29  2  0
 29 30  1  0
 30 31  2  0
 31 32  1  0
 31 33  1  0
 24 34  2  0
  9  2  1  0
 15 10  1  0
 34 20  1  0
 33 28  1  0
  1 35  1  0
  1 36  1  0
  1 37  1  0
  7 38  1  0
 11 39  1  0
 12 40  1  0
 13 41  1  0
 14 42  1  0
 21 43  1  0
 22 44  1  0
 23 45  1  0
 29 46  1  0
 30 47  1  0
 32 48  1  0
 34 49  1  0
M  CHG  5   4   1   6  -1  16  -1  25  -1  33  -1
M  END
>  <UniqueID>  (21) 
21

>  <SMILES>  (21) 
Cn1c([N+](=O)[O-])cnc1-c1ccccc1[N-]S(=O)(=O)c1cccc([N-]C(=O)c2ccc(O)[n-]2)c1

>  <Energy>  (21) 
124.56031909567653

>  <Genealogy>  (21) 
Cn1c([N+](=O)[O-])cnc1-c1ccccc1[N-]S(=O)(=O)c1cccc([N-]C(=O)c2ccc(O)[n-]2)c1 (protonated)
Cn1c([N+](=O)[O-])cnc1-c1ccccc1[N-]S(=O)(=O)c1cccc([N-]C(=O)c2ccc(O)[n-]2)c1 (3D coordinates assigned)
Cn1c([N+](=O)[O-])cnc1-c1ccccc1[N-]S(=O)(=O)c1cccc([N-]C(=O)c2ccc(O)[n-]2)c1 (optimized conformer: 124.56031909567653 kcal/mol)

>  <smiles>  (21) 
Cn1c([N+](=O)[O-])cnc1-c1ccccc1NS(=O)(=O)c1cccc(NC(=O)c2ccc(O)[nH]2)c1

>  <score_type>  (21) 
oracle

>  <origin>  (21) 
adg

>  <m_score__min__energy>  (21) 
-15.02

>  <m_primary>  (21) 
energy

$$$$
21:0
     RDKit          3D

 63 67  0  0  0  0  0  0  0  0999 V2000
   61.6049   29.6333   46.8600 H   0  0  0  0  0  0  0  0  0  0  0  0
   60.7360   29.3630   46.2420 C   0  0  0  0  0  0  0  0  0  0  0  0
   60.6666   28.3580   45.8003 H   0  0  0  0  0  0  0  0  0  0  0  0
   59.7610   30.2590   46.0270 C   0  0  0  0  0  0  0  0  0  0  0  0
   58.5990   30.0690   45.2690 C   0  0  0  0  0  0  0  0  0  0  0  0
   58.2160   28.9350   44.6480 C   0  0  0  0  0  0  0  0  0  0  0  0
   58.5734   28.7759   43.6199 H   0  0  0  0  0  0  0  0  0  0  0  0
   57.3540   27.8880   45.2380 C   0  0  0  0  0  0  0  0  0  0  0  0
   57.7840   26.7590   45.8310 N   0  0  0  0  0  0  0  0  0  0  0  0
   56.6430   26.1760   46.2600 C   0  0  0  0  0  0  0  0  0  0  0  0
   56.6330   25.0760   46.8740 O   0  0  0  0  0  0  0  0  0  0  0  0
   55.5160   26.8670   45.9900 N   0  0  0  0  0  0  0  0  0  0  0  0
   55.9840   27.9500   45.3480 C   0  0  0  0  0  0  0  0  0  0  0  0
   55.1760   28.9780   44.8760 O   0  0  0  0  0  0  0  0  0  0  0  0
   57.9110   31.2780   45.3100 C   0  0  0  0  0  0  0  0  0  0  0  0
   56.9524   31.5046   44.8203 H   0  0  0  0  0  0  0  0  0  0  0  0
   58.6640   32.1380   46.0840 C   0  0  0  0  0  0  0  0  0  0  0  0
   58.3370   33.5780   46.3320 C   0  0  0  0  0  0  0  0  0  0  0  0
   58.2950   33.7631   47.4155 H   0  0  0  0  0  0  0  0  0  0  0  0
   59.1138   34.2133   45.8813 H   0  0  0  0  0  0  0  0  0  0  0  0
   57.3621   33.8155   45.8813 H   0  0  0  0  0  0  0  0  0  0  0  0
   59.7790   31.5210   46.5240 N   0  0  0  0  0  0  0  0  0  0  0  0
   60.8210   32.1330   47.3020 C   0  0  0  0  0  0  0  0  0  0  0  0
   61.5230   33.2130   46.7460 C   0  0  0  0  0  0  0  0  0  0  0  0
   61.2838   33.5532   45.7277 H   0  0  0  0  0  0  0  0  0  0  0  0
   62.5210   33.8580   47.4740 C   0  0  0  0  0  0  0  0  0  0  0  0
   63.0648   34.7052   47.0307 H   0  0  0  0  0  0  0  0  0  0  0  0
   62.8300   33.4300   48.7630 C   0  0  0  0  0  0  0  0  0  0  0  0
   63.6182   33.9402   49.3360 H   0  0  0  0  0  0  0  0  0  0  0  0
   62.1420   32.3550   49.3300 C   0  0  0  0  0  0  0  0  0  0  0  0
   62.4009   32.0198   50.3452 H   0  0  0  0  0  0  0  0  0  0  0  0
   61.1190   31.6930   48.6180 C   0  0  0  0  0  0  0  0  0  0  0  0
   60.4040   30.5220   49.2150 C   0  0  0  0  0  0  0  0  0  0  0  0
   60.9940   29.4070   49.2330 O   0  0  0  0  0  0  0  0  0  0  0  0
   59.0860   30.6070   49.8230 N   0  0  0  0  0  0  0  0  0  0  0  0
   58.4080   30.6990   49.0270 H   0  0  0  0  0  0  0  0  0  0  0  0
   58.9090   31.8430   50.6210 C   0  0  0  0  0  0  0  0  0  0  0  0
   59.5913   31.8190   51.4835 H   0  0  0  0  0  0  0  0  0  0  0  0
   59.1335   32.7136   49.9872 H   0  0  0  0  0  0  0  0  0  0  0  0
   57.4640   31.9500   51.1220 C   0  0  0  0  0  0  0  0  0  0  0  0
   57.4047   32.7383   51.8869 H   0  0  0  0  0  0  0  0  0  0  0  0
   56.8121   32.1940   50.2702 H   0  0  0  0  0  0  0  0  0  0  0  0
   57.0210   30.6800   51.7050 N   0  0  0  0  0  0  0  0  0  0  0  0
   55.7470   30.6150   52.3580 C   0  0  0  0  0  0  0  0  0  0  0  0
   54.5820   30.8330   51.6090 C   0  0  0  0  0  0  0  0  0  0  0  0
   54.6563   31.0533   50.5338 H   0  0  0  0  0  0  0  0  0  0  0  0
   53.3260   30.7720   52.2210 C   0  0  0  0  0  0  0  0  0  0  0  0
   51.8740   31.0450   51.2750 Cl  0  0  0  0  0  0  0  0  0  0  0  0
   53.2280   30.4890   53.5850 C   0  0  0  0  0  0  0  0  0  0  0  0
   52.2396   30.4336   54.0646 H   0  0  0  0  0  0  0  0  0  0  0  0
   54.3840   30.2760   54.3420 C   0  0  0  0  0  0  0  0  0  0  0  0
   54.2997   30.0457   55.4143 H   0  0  0  0  0  0  0  0  0  0  0  0
   55.6530   30.3540   53.7430 C   0  0  0  0  0  0  0  0  0  0  0  0
   56.8820   30.1240   54.5780 C   0  0  0  0  0  0  0  0  0  0  0  0
   56.6156   30.1739   55.6441 H   0  0  0  0  0  0  0  0  0  0  0  0
   57.2996   29.1321   54.3504 H   0  0  0  0  0  0  0  0  0  0  0  0
   57.6300   30.8978   54.3504 H   0  0  0  0  0  0  0  0  0  0  0  0
   57.9670   29.5720   51.8520 C   0  0  0  0  0  0  0  0  0  0  0  0
   58.6823   29.8093   52.6533 H   0  0  0  0  0  0  0  0  0  0  0  0
   57.4104   28.6570   52.1028 H   0  0  0  0  0  0  0  0  0  0  0  0
   58.7340   29.3470   50.5370 C   0  0  0  0  0  0  0  0  0  0  0  0
   59.6644   28.8067   50.7662 H   0  0  0  0  0  0  0  0  0  0  0  0
   58.0690   28.7767   49.8717 H   0  0  0  0  0  0  0  0  0  0  0  0
  1  2  1  0
  2  3  1  0
  2  4  2  0
  4  5  1  0
  5  6  2  0
  6  7  1  0
  6  8  1  0
  8  9  1  0
  9 10  1  0
 10 11  2  0
 10 12  1  0
 12 13  1  0
 13 14  1  0
  5 15  1  0
 15 16  1  0
 15 17  2  0
 17 18  1  0
 18 19  1  0
 18 20  1  0
 18 21  1  0
 17 22  1  0
 22 23  1  0
 23 24  2  0
 24 25  1  0
 24 26  1  0
 26 27  1  0
 26 28  2  0
 28 29  1  0
 28 30  1  0
 30 31  1  0
 30 32  2  0
 32 33  1  0
 33 34  2  0
 33 35  1  0
 35 36  1  0
 35 37  1  0
 37 38  1  0
 37 39  1  0
 37 40  1  0
 40 41  1  0
 40 42  1  0
 40 43  1  0
 43 44  1  0
 44 45  2  0
 45 46  1  0
 45 47  1  0
 47 48  1  0
 47 49  2  0
 49 50  1  0
 49 51  1  0
 51 52  1  0
 51 53  2  0
 53 54  1  0
 54 55  1  0
 54 56  1  0
 54 57  1  0
 43 58  1  0
 58 59  1  0
 58 60  1  0
 58 61  1  0
 61 62  1  0
 61 63  1  0
 22  4  1  0
 32 23  1  0
 61 35  1  0
 13  8  2  0
 53 44  1  0
M  CHG  4   9  -1  12  -1  14  -1  35   1
M  END
>  <UniqueID>  (22) 
22

>  <SMILES>  (22) 
C=c1/c(=C/c2[n-]c(=O)[n-]c2[O-])cc(C)n1-c1ccccc1C(=O)[NH+]1CCN(c2cc(Cl)ccc2C)CC1

>  <Energy>  (22) 
156.3099625032586

>  <Genealogy>  (22) 
C=c1c(=Cc2[n-]c(=O)[n-]c2[O-])cc(C)n1-c1ccccc1C(=O)[NH+]1CCN(c2cc(Cl)ccc2C)CC1 (protonated)
C=c1/c(=C/c2[n-]c(=O)[n-]c2[O-])cc(C)n1-c1ccccc1C(=O)[NH+]1CCN(c2cc(Cl)ccc2C)CC1 (cis-trans isomerization)
C=c1/c(=C/c2[n-]c(=O)[n-]c2[O-])cc(C)n1-c1ccccc1C(=O)[NH+]1CCN(c2cc(Cl)ccc2C)CC1 (3D coordinates assigned)
C=c1/c(=C/c2[n-]c(=O)[n-]c2[O-])cc(C)n1-c1ccccc1C(=O)[NH+]1CCN(c2cc(Cl)ccc2C)CC1 (nonaromatic ring conformer: 156.3099625032586 kcal/mol)

>  <smiles>  (22) 
C=c1c(=Cc2[nH]c(=O)[nH]c2O)cc(C)n1-c1ccccc1C(=O)N1CCN(c2cc(Cl)ccc2C)CC1

>  <score_type>  (22) 
oracle

>  <origin>  (22) 
adg

>  <m_score__min__energy>  (22) 
-16.07

>  <m_primary>  (22) 
energy

$$$$
22:0
     RDKit          3D

 61 64  0  0  0  0  0  0  0  0999 V2000
   67.3600   32.3880   50.6760 C   0  0  0  0  0  0  0  0  0  0  0  0
   66.3900   31.6290   50.2020 C   0  0  0  0  0  0  0  0  0  0  0  0
   65.0280   32.1130   50.0180 C   0  0  0  0  0  0  0  0  0  0  0  0
   64.2230   32.2450   51.0010 O   0  0  0  0  0  0  0  0  0  0  0  0
   64.4990   32.4710   48.7480 N   0  0  0  0  0  0  0  0  0  0  0  0
   63.1460   32.9300   48.7280 C   0  0  0  0  0  0  0  0  0  0  0  0
   62.8890   34.1140   49.4160 C   0  0  0  0  0  0  0  0  0  0  0  0
   61.6020   34.6090   49.4340 C   0  0  0  0  0  0  0  0  0  0  0  0
   60.6230   33.9160   48.7720 C   0  0  0  0  0  0  0  0  0  0  0  0
   60.8740   32.7380   48.0860 C   0  0  0  0  0  0  0  0  0  0  0  0
   59.7450   32.0970   47.4220 C   0  0  0  0  0  0  0  0  0  0  0  0
   58.7090   32.8490   46.8630 C   0  0  0  0  0  0  0  0  0  0  0  0
   57.8570   31.9330   46.3450 N   0  0  0  0  0  0  0  0  0  0  0  0
   58.3170   30.7150   46.5610 N   0  0  0  0  0  0  0  0  0  0  0  0
   57.7850   29.5280   46.2150 C   0  0  0  0  0  0  0  0  0  0  0  0
   56.6670   29.4550   45.5780 N   0  0  0  0  0  0  0  0  0  0  0  0
   58.4320   28.3530   46.5370 C   0  0  0  0  0  0  0  0  0  0  0  0
   57.8500   27.0710   46.1600 C   0  0  0  0  0  0  0  0  0  0  0  0
   57.2250   26.2670   47.0870 C   0  0  0  0  0  0  0  0  0  0  0  0
   56.6790   25.0500   46.6940 C   0  0  0  0  0  0  0  0  0  0  0  0
   56.7250   24.5880   45.4050 C   0  0  0  0  0  0  0  0  0  0  0  0
   56.1900   23.3650   44.9480 N   0  0  0  0  0  0  0  0  0  0  0  0
   56.8810   22.3610   44.2470 C   0  0  0  0  0  0  0  0  0  0  0  0
   58.0890   22.4290   43.9340 O   0  0  0  0  0  0  0  0  0  0  0  0
   56.2150   21.1840   43.8510 O   0  0  0  0  0  0  0  0  0  0  0  0
   55.9650   20.2260   44.8560 C   0  0  0  0  0  0  0  0  0  0  0  0
   55.5220   18.9580   44.1330 C   0  0  0  0  0  0  0  0  0  0  0  0
   54.7790   20.6380   45.7340 C   0  0  0  0  0  0  0  0  0  0  0  0
   57.1480   19.8810   45.6960 C   0  0  0  0  0  0  0  0  0  0  0  0
   57.3520   25.3980   44.4780 C   0  0  0  0  0  0  0  0  0  0  0  0
   57.8940   26.6040   44.8630 C   0  0  0  0  0  0  0  0  0  0  0  0
   59.6270   28.4710   47.2190 C   0  0  0  0  0  0  0  0  0  0  0  0
   60.1580   29.6630   47.5650 N   0  0  0  0  0  0  0  0  0  0  0  0
   59.4860   30.7560   47.2250 C   0  0  0  0  0  0  0  0  0  0  0  0
   62.1520   32.2460   48.0680 C   0  0  0  0  0  0  0  0  0  0  0  0
   68.3725   31.9752   50.7963 H   0  0  0  0  0  0  0  0  0  0  0  0
   67.1560   33.4334   50.9508 H   0  0  0  0  0  0  0  0  0  0  0  0
   66.6194   30.5870   49.9345 H   0  0  0  0  0  0  0  0  0  0  0  0
   65.0870   32.3950   47.8910 H   0  0  0  0  0  0  0  0  0  0  0  0
   63.6995   34.6453   49.9364 H   0  0  0  0  0  0  0  0  0  0  0  0
   61.3664   35.5409   49.9688 H   0  0  0  0  0  0  0  0  0  0  0  0
   59.5962   34.3104   48.7854 H   0  0  0  0  0  0  0  0  0  0  0  0
   58.6077   33.9442   46.8471 H   0  0  0  0  0  0  0  0  0  0  0  0
   55.7520   29.7200   45.9870 H   0  0  0  0  0  0  0  0  0  0  0  0
   57.1577   26.5871   48.1372 H   0  0  0  0  0  0  0  0  0  0  0  0
   56.1860   24.4277   47.4554 H   0  0  0  0  0  0  0  0  0  0  0  0
   55.1650   23.1620   45.1420 H   0  0  0  0  0  0  0  0  0  0  0  0
   55.2534   18.1892   44.8724 H   0  0  0  0  0  0  0  0  0  0  0  0
   54.6487   19.1815   43.5026 H   0  0  0  0  0  0  0  0  0  0  0  0
   56.3445   18.5890   43.5026 H   0  0  0  0  0  0  0  0  0  0  0  0
   55.0566   20.5416   46.7940 H   0  0  0  0  0  0  0  0  0  0  0  0
   54.5092   21.6825   45.5192 H   0  0  0  0  0  0  0  0  0  0  0  0
   53.9197   19.9857   45.5192 H   0  0  0  0  0  0  0  0  0  0  0  0
   56.8781   19.9597   46.7595 H   0  0  0  0  0  0  0  0  0  0  0  0
   57.4678   18.8522   45.4741 H   0  0  0  0  0  0  0  0  0  0  0  0
   57.9707   20.5766   45.4741 H   0  0  0  0  0  0  0  0  0  0  0  0
   57.4186   25.0782   43.4276 H   0  0  0  0  0  0  0  0  0  0  0  0
   58.3856   27.2247   44.0994 H   0  0  0  0  0  0  0  0  0  0  0  0
   60.1697   27.5540   47.4922 H   0  0  0  0  0  0  0  0  0  0  0  0
   61.0610   29.7430   48.0790 H   0  0  0  0  0  0  0  0  0  0  0  0
   62.3810   31.3135   47.5313 H   0  0  0  0  0  0  0  0  0  0  0  0
  1  2  2  0
  2  3  1  0
  3  4  2  0
  3  5  1  0
  5  6  1  0
  6  7  2  0
  7  8  1  0
  8  9  2  0
  9 10  1  0
 10 11  1  0
 11 12  1  0
 12 13  2  0
 13 14  1  0
 14 15  1  0
 15 16  2  3
 15 17  1  0
 17 18  1  0
 18 19  2  0
 19 20  1  0
 20 21  2  0
 21 22  1  0
 22 23  1  0
 23 24  2  0
 23 25  1  0
 25 26  1  0
 26 27  1  0
 26 28  1  0
 26 29  1  0
 21 30  1  0
 30 31  2  0
 17 32  2  0
 32 33  1  0
 33 34  1  0
 10 35  2  0
 35  6  1  0
 34 11  2  0
 34 14  1  0
 31 18  1  0
  1 36  1  0
  1 37  1  0
  2 38  1  0
  5 39  1  0
  7 40  1  0
  8 41  1  0
  9 42  1  0
 12 43  1  0
 16 44  1  0
 19 45  1  0
 20 46  1  0
 22 47  1  0
 27 48  1  0
 27 49  1  0
 27 50  1  0
 28 51  1  0
 28 52  1  0
 28 53  1  0
 29 54  1  0
 29 55  1  0
 29 56  1  0
 30 57  1  0
 31 58  1  0
 32 59  1  0
 33 60  1  0
 35 61  1  0
M  END
>  <smiles>  (23) 
C=CC(=O)Nc1cccc(-c2cnn3c(=N)c(-c4ccc(NC(=O)OC(C)(C)C)cc4)c[nH]c23)c1

>  <score_type>  (23) 
oracle

>  <origin>  (23) 
adg

>  <m_score__min__energy>  (23) 
-7.8799999999999999

>  <m_primary>  (23) 
energy

$$$$
23:0
     RDKit          3D

 48 51  0  0  0  0  0  0  0  0999 V2000
   56.3770   29.4210   44.6200 C   0  0  0  0  0  0  0  0  0  0  0  0
   57.5960   29.0180   45.0130 C   0  0  0  0  0  0  0  0  0  0  0  0
   58.1390   27.7280   44.8820 C   0  0  0  0  0  0  0  0  0  0  0  0
   57.5590   26.5570   44.5600 C   0  0  0  0  0  0  0  0  0  0  0  0
   56.9750   25.5960   45.5110 C   0  0  0  0  0  0  0  0  0  0  0  0
   57.6480   24.5400   46.0050 N   0  0  0  0  0  0  0  0  0  0  0  0
   56.7940   24.0260   46.9200 C   0  0  0  0  0  0  0  0  0  0  0  0
   57.0670   23.0050   47.6030 O   0  0  0  0  0  0  0  0  0  0  0  0
   55.6410   24.7140   47.0670 N   0  0  0  0  0  0  0  0  0  0  0  0
   55.7720   25.7090   46.1740 C   0  0  0  0  0  0  0  0  0  0  0  0
   54.8260   26.7100   45.9900 O   0  0  0  0  0  0  0  0  0  0  0  0
   59.4930   27.8470   45.1550 C   0  0  0  0  0  0  0  0  0  0  0  0
   59.7160   29.1590   45.5120 C   0  0  0  0  0  0  0  0  0  0  0  0
   61.0600   29.7190   45.8810 C   0  0  0  0  0  0  0  0  0  0  0  0
   58.5680   29.8720   45.4300 N   0  0  0  0  0  0  0  0  0  0  0  0
   58.4290   31.2840   45.6810 C   0  0  0  0  0  0  0  0  0  0  0  0
   57.6560   32.0820   44.8220 C   0  0  0  0  0  0  0  0  0  0  0  0
   57.5350   33.4580   45.0530 C   0  0  0  0  0  0  0  0  0  0  0  0
   58.1850   34.0460   46.1410 C   0  0  0  0  0  0  0  0  0  0  0  0
   58.9540   33.2540   47.0110 C   0  0  0  0  0  0  0  0  0  0  0  0
   59.6170   33.8550   48.1760 C   0  0  0  0  0  0  0  0  0  0  0  0
   59.1370   33.6380   49.3240 O   0  0  0  0  0  0  0  0  0  0  0  0
   60.8630   34.5810   48.0200 N   0  0  2  0  0  0  0  0  0  0  0  0
   61.5120   34.1980   46.7600 C   0  0  0  0  0  0  0  0  0  0  0  0
   62.4660   33.0620   47.0750 C   0  0  0  0  0  0  0  0  0  0  0  0
   62.8320   33.2510   48.5350 C   0  0  1  0  0  0  0  0  0  0  0  0
   64.1260   33.7450   48.6430 F   0  0  0  0  0  0  0  0  0  0  0  0
   61.8290   34.2660   49.0910 C   0  0  0  0  0  0  0  0  0  0  0  0
   59.0700   31.8750   46.7800 C   0  0  0  0  0  0  0  0  0  0  0  0
   56.0649   30.4638   44.7784 H   0  0  0  0  0  0  0  0  0  0  0  0
   55.6904   28.7083   44.1397 H   0  0  0  0  0  0  0  0  0  0  0  0
   57.5175   26.2946   43.4926 H   0  0  0  0  0  0  0  0  0  0  0  0
   60.2456   27.0468   45.0976 H   0  0  0  0  0  0  0  0  0  0  0  0
   61.1529   29.7577   46.9764 H   0  0  0  0  0  0  0  0  0  0  0  0
   61.8511   29.0756   45.4684 H   0  0  0  0  0  0  0  0  0  0  0  0
   61.1602   30.7338   45.4684 H   0  0  0  0  0  0  0  0  0  0  0  0
   57.1430   31.6240   43.9635 H   0  0  0  0  0  0  0  0  0  0  0  0
   56.9271   34.0769   44.3766 H   0  0  0  0  0  0  0  0  0  0  0  0
   58.0950   35.1282   46.3166 H   0  0  0  0  0  0  0  0  0  0  0  0
   60.6680   35.6120   48.0150 H   0  0  0  0  0  0  0  0  0  0  0  0
   60.7567   33.8653   46.0328 H   0  0  0  0  0  0  0  0  0  0  0  0
   62.0513   35.0514   46.3230 H   0  0  0  0  0  0  0  0  0  0  0  0
   61.9739   32.0901   46.9223 H   0  0  0  0  0  0  0  0  0  0  0  0
   63.3512   33.0724   46.4221 H   0  0  0  0  0  0  0  0  0  0  0  0
   62.7946   32.3015   49.0892 H   0  0  0  0  0  0  0  0  0  0  0  0
   61.3019   33.8359   49.9554 H   0  0  0  0  0  0  0  0  0  0  0  0
   62.3485   35.1782   49.4196 H   0  0  0  0  0  0  0  0  0  0  0  0
   59.6667   31.2540   47.4643 H   0  0  0  0  0  0  0  0  0  0  0  0
  1  2  2  0
  2  3  1  0
  3  4  2  3
  4  5  1  0
  5  6  1  0
  6  7  1  0
  7  8  2  0
  7  9  1  0
  9 10  1  0
 10 11  1  0
  3 12  1  0
 12 13  2  0
 13 14  1  0
 13 15  1  0
 15 16  1  0
 16 17  2  0
 17 18  1  0
 18 19  2  0
 19 20  1  0
 20 21  1  0
 21 22  2  0
 21 23  1  0
 23 24  1  0
 24 25  1  0
 25 26  1  0
 26 27  1  0
 26 28  1  0
 20 29  2  0
 15  2  1  0
 29 16  1  0
 10  5  2  0
 28 23  1  0
  1 30  1  0
  1 31  1  0
  4 32  1  0
 12 33  1  0
 14 34  1  0
 14 35  1  0
 14 36  1  0
 17 37  1  0
 18 38  1  0
 19 39  1  0
 23 40  1  6
 24 41  1  0
 24 42  1  0
 25 43  1  0
 25 44  1  0
 26 45  1  1
 28 46  1  0
 28 47  1  0
 29 48  1  0
M  CHG  4   6  -1   9  -1  11  -1  23   1
M  END
>  <UniqueID>  (24) 
23

>  <SMILES>  (24) 
C=c1c(=Cc2[n-]c(=O)[n-]c2[O-])cc(C)n1-c1cccc(C(=O)[N@@H+]2CC[C@@H](F)C2)c1

>  <Energy>  (24) 
138.3204281180018

>  <Genealogy>  (24) 
C=c1c(=Cc2[n-]c(=O)[n-]c2[O-])cc(C)n1-c1cccc(C(=O)[NH+]2CCC(F)C2)c1 (protonated)
C=c1c(=Cc2[n-]c(=O)[n-]c2[O-])cc(C)n1-c1cccc(C(=O)[N@@H+]2CC[C@@H](F)C2)c1 (chirality)
C=c1c(=Cc2[n-]c(=O)[n-]c2[O-])cc(C)n1-c1cccc(C(=O)[N@@H+]2CC[C@@H](F)C2)c1 (3D coordinates assigned)
C=c1c(=Cc2[n-]c(=O)[n-]c2[O-])cc(C)n1-c1cccc(C(=O)[N@@H+]2CC[C@@H](F)C2)c1 (nonaromatic ring conformer: 138.3204281180018 kcal/mol)

>  <smiles>  (24) 
C=c1c(=Cc2[nH]c(=O)[nH]c2O)cc(C)n1-c1cccc(C(=O)N2CCC(F)C2)c1

>  <score_type>  (24) 
oracle

>  <origin>  (24) 
adg

>  <m_score__min__energy>  (24) 
-14.84

>  <m_primary>  (24) 
energy

$$$$
24:0
     RDKit          3D

 70 73  0  0  0  0  0  0  0  0999 V2000
   68.4274   33.4576   50.5331 H   0  0  0  0  0  0  0  0  0  0  0  0
   67.4980   32.8750   50.6150 C   0  0  0  0  0  0  0  0  0  0  0  0
   66.3330   33.3840   50.1350 N   0  0  0  0  0  0  0  0  0  0  0  0
   65.1580   32.7010   50.2230 C   0  0  0  0  0  0  0  0  0  0  0  0
   63.9040   33.3160   49.6700 C   0  0  0  0  0  0  0  0  0  0  0  0
   64.0967   34.3689   49.4166 H   0  0  0  0  0  0  0  0  0  0  0  0
   63.1084   33.2518   50.4269 H   0  0  0  0  0  0  0  0  0  0  0  0
   63.4740   32.5920   48.4550 N   0  0  0  0  0  0  0  0  0  0  0  0
   63.6590   33.3920   47.2120 C   0  0  0  0  0  0  0  0  0  0  0  0
   64.2381   32.7889   46.4972 H   0  0  0  0  0  0  0  0  0  0  0  0
   64.1749   34.3176   47.5071 H   0  0  0  0  0  0  0  0  0  0  0  0
   62.3440   33.8180   46.5300 C   0  0  0  0  0  0  0  0  0  0  0  0
   61.9506   32.9720   45.9473 H   0  0  0  0  0  0  0  0  0  0  0  0
   62.5520   34.6753   45.8729 H   0  0  0  0  0  0  0  0  0  0  0  0
   61.2960   34.2420   47.5700 C   0  0  0  0  0  0  0  0  0  0  0  0
   61.6957   35.1030   48.1258 H   0  0  0  0  0  0  0  0  0  0  0  0
   60.0250   34.6610   46.8790 C   0  0  0  0  0  0  0  0  0  0  0  0
   60.0190   35.6950   46.1580 O   0  0  0  0  0  0  0  0  0  0  0  0
   58.8270   33.8960   47.0650 N   0  0  0  0  0  0  0  0  0  0  0  0
   58.5500   32.6140   46.4880 C   0  0  0  0  0  0  0  0  0  0  0  0
   58.2910   32.4610   45.1010 C   0  0  0  0  0  0  0  0  0  0  0  0
   58.2730   33.3471   44.4494 H   0  0  0  0  0  0  0  0  0  0  0  0
   58.0570   31.1870   44.5510 C   0  0  0  0  0  0  0  0  0  0  0  0
   57.8469   31.0619   43.4785 H   0  0  0  0  0  0  0  0  0  0  0  0
   58.1000   30.0850   45.4110 C   0  0  0  0  0  0  0  0  0  0  0  0
   58.3360   30.2340   46.7470 C   0  0  0  0  0  0  0  0  0  0  0  0
   58.2420   29.0550   47.3790 N   0  0  0  0  0  0  0  0  0  0  0  0
   57.9540   28.1900   46.3700 C   0  0  0  0  0  0  0  0  0  0  0  0
   57.7700   26.9150   46.5680 N   0  0  0  0  0  0  0  0  0  0  0  0
   56.4810   26.2820   46.5170 C   0  0  0  0  0  0  0  0  0  0  0  0
   55.5170   26.8680   45.9570 O   0  0  0  0  0  0  0  0  0  0  0  0
   56.2690   24.9630   47.0360 N   0  0  0  0  0  0  0  0  0  0  0  0
   56.2710   23.6940   46.3010 C   0  0  0  0  0  0  0  0  0  0  0  0
   55.0680   23.7120   45.3450 C   0  0  0  0  0  0  0  0  0  0  0  0
   54.1359   23.7259   45.9289 H   0  0  0  0  0  0  0  0  0  0  0  0
   55.1169   24.6095   44.7109 H   0  0  0  0  0  0  0  0  0  0  0  0
   55.0901   22.8134   44.7109 H   0  0  0  0  0  0  0  0  0  0  0  0
   56.1180   22.5180   47.2840 C   0  0  0  0  0  0  0  0  0  0  0  0
   56.1670   22.8944   48.3164 H   0  0  0  0  0  0  0  0  0  0  0  0
   55.1482   22.0258   47.1188 H   0  0  0  0  0  0  0  0  0  0  0  0
   56.9295   21.7940   47.1188 H   0  0  0  0  0  0  0  0  0  0  0  0
   57.5600   23.5410   45.4780 C   0  0  0  0  0  0  0  0  0  0  0  0
   58.4190   23.4390   46.1575 H   0  0  0  0  0  0  0  0  0  0  0  0
   57.4859   22.6453   44.8437 H   0  0  0  0  0  0  0  0  0  0  0  0
   57.6976   24.4291   44.8437 H   0  0  0  0  0  0  0  0  0  0  0  0
   57.8810   28.7820   45.1400 N   0  0  0  0  0  0  0  0  0  0  0  0
   57.3840   28.2310   43.8630 C   0  0  0  0  0  0  0  0  0  0  0  0
   56.5524   27.5505   44.0983 H   0  0  0  0  0  0  0  0  0  0  0  0
   56.8120   29.3110   42.9420 C   0  0  0  0  0  0  0  0  0  0  0  0
   56.3828   30.1214   43.5496 H   0  0  0  0  0  0  0  0  0  0  0  0
   57.6147   29.7144   42.3072 H   0  0  0  0  0  0  0  0  0  0  0  0
   56.0273   28.8736   42.3072 H   0  0  0  0  0  0  0  0  0  0  0  0
   58.4910   27.4400   43.1640 C   0  0  0  0  0  0  0  0  0  0  0  0
   59.1420   26.9749   43.9189 H   0  0  0  0  0  0  0  0  0  0  0  0
   58.0414   26.6574   42.5352 H   0  0  0  0  0  0  0  0  0  0  0  0
   59.0857   28.1189   42.5352 H   0  0  0  0  0  0  0  0  0  0  0  0
   58.5830   31.4780   47.3200 C   0  0  0  0  0  0  0  0  0  0  0  0
   58.7984   31.5716   48.3946 H   0  0  0  0  0  0  0  0  0  0  0  0
   61.0300   33.1260   48.6120 C   0  0  0  0  0  0  0  0  0  0  0  0
   60.0580   32.6613   48.3900 H   0  0  0  0  0  0  0  0  0  0  0  0
   61.0392   33.5919   49.6084 H   0  0  0  0  0  0  0  0  0  0  0  0
   62.1140   32.0320   48.5990 C   0  0  0  0  0  0  0  0  0  0  0  0
   61.9203   31.3521   47.7563 H   0  0  0  0  0  0  0  0  0  0  0  0
   62.0685   31.5016   49.5616 H   0  0  0  0  0  0  0  0  0  0  0  0
   65.1370   31.4300   50.8170 C   0  0  0  0  0  0  0  0  0  0  0  0
   64.1954   30.8663   50.8920 H   0  0  0  0  0  0  0  0  0  0  0  0
   66.3260   30.8890   51.3120 C   0  0  0  0  0  0  0  0  0  0  0  0
   66.3249   29.8936   51.7801 H   0  0  0  0  0  0  0  0  0  0  0  0
   67.5160   31.6130   51.2120 C   0  0  0  0  0  0  0  0  0  0  0  0
   68.4565   31.1939   51.5991 H   0  0  0  0  0  0  0  0  0  0  0  0
  1  2  1  0
  2  3  2  0
  3  4  1  0
  4  5  1  0
  5  6  1  0
  5  7  1  0
  5  8  1  0
  8  9  1  0
  9 10  1  0
  9 11  1  0
  9 12  1  0
 12 13  1  0
 12 14  1  0
 12 15  1  0
 15 16  1  0
 15 17  1  0
 17 18  2  0
 17 19  1  0
 19 20  1  0
 20 21  2  0
 21 22  1  0
 21 23  1  0
 23 24  1  0
 23 25  2  0
 25 26  1  0
 26 27  1  0
 27 28  1  0
 28 29  2  0
 29 30  1  0
 30 31  2  0
 30 32  1  0
 32 33  1  0
 33 34  1  0
 34 35  1  0
 34 36  1  0
 34 37  1  0
 33 38  1  0
 38 39  1  0
 38 40  1  0
 38 41  1  0
 33 42  1  0
 42 43  1  0
 42 44  1  0
 42 45  1  0
 28 46  1  0
 46 47  1  0
 47 48  1  0
 47 49  1  0
 49 50  1  0
 49 51  1  0
 49 52  1  0
 47 53  1  0
 53 54  1  0
 53 55  1  0
 53 56  1  0
 26 57  2  0
 57 58  1  0
 15 59  1  0
 59 60  1  0
 59 61  1  0
 59 62  1  0
 62 63  1  0
 62 64  1  0
  4 65  2  0
 65 66  1  0
 65 67  1  0
 67 68  1  0
 67 69  2  0
 69 70  1  0
 69  2  1  0
 62  8  1  0
 57 20  1  0
 46 25  1  0
M  CHG  3  19  -1  27  -1  32  -1
M  END
>  <UniqueID>  (25) 
24

>  <SMILES>  (25) 
CC(C)n1/c(=N/C(=O)[N-]C(C)(C)C)[n-]c2cc([N-]C(=O)C3CCN(Cc4ccccn4)CC3)ccc21

>  <Energy>  (25) 
121.67734954722764

>  <Genealogy>  (25) 
CC(C)n1c(=NC(=O)[N-]C(C)(C)C)[n-]c2cc([N-]C(=O)C3CCN(Cc4ccccn4)CC3)ccc21 (protonated)
CC(C)n1/c(=N/C(=O)[N-]C(C)(C)C)[n-]c2cc([N-]C(=O)C3CCN(Cc4ccccn4)CC3)ccc21 (cis-trans isomerization)
CC(C)n1/c(=N/C(=O)[N-]C(C)(C)C)[n-]c2cc([N-]C(=O)C3CCN(Cc4ccccn4)CC3)ccc21 (3D coordinates assigned)
CC(C)n1/c(=N/C(=O)[N-]C(C)(C)C)[n-]c2cc([N-]C(=O)C3CCN(Cc4ccccn4)CC3)ccc21 (nonaromatic ring conformer: 121.67734954722764 kcal/mol)

>  <smiles>  (25) 
CC(C)n1c(=NC(=O)NC(C)(C)C)[nH]c2cc(NC(=O)C3CCN(Cc4ccccn4)CC3)ccc21

>  <score_type>  (25) 
oracle

>  <origin>  (25) 
adg

>  <m_score__min__energy>  (25) 
-14.26

>  <m_primary>  (25) 
energy

$$$$
25:0
     RDKit          3D

 62 65  0  0  0  0  0  0  0  0999 V2000
   55.1630   29.2440   44.6680 O   0  0  0  0  0  0  0  0  0  0  0  0
   55.9320   30.1160   44.1880 C   0  0  0  0  0  0  0  0  0  0  0  0
   56.8710   29.7380   43.0620 C   0  0  0  0  0  0  0  0  0  0  0  0
   57.6560   28.5270   43.3720 N   0  0  0  0  0  0  0  0  0  0  0  0
   58.2790   28.5540   44.6870 C   0  0  0  0  0  0  0  0  0  0  0  0
   59.4840   29.2640   44.8830 C   0  0  0  0  0  0  0  0  0  0  0  0
   60.0660   29.3630   46.1450 C   0  0  0  0  0  0  0  0  0  0  0  0
   59.4790   28.7250   47.2390 C   0  0  0  0  0  0  0  0  0  0  0  0
   60.2450   28.8090   48.8230 S   0  0  0  0  0  0  0  0  0  0  0  0
   61.3190   29.8660   48.8170 O   0  0  0  0  0  0  0  0  0  0  0  0
   60.8840   27.4810   49.1280 O   0  0  0  0  0  0  0  0  0  0  0  0
   59.0390   29.1760   50.0310 N   0  0  0  0  0  0  0  0  0  0  0  0
   58.5430   30.5540   49.8540 C   0  0  0  0  0  0  0  0  0  0  0  0
   57.7420   31.0180   51.0880 C   0  0  0  0  0  0  0  0  0  0  0  0
   57.3730   29.9140   51.8890 O   0  0  0  0  0  0  0  0  0  0  0  0
   58.5320   29.3160   52.4410 C   0  0  0  0  0  0  0  0  0  0  0  0
   59.6070   29.0030   51.3760 C   0  0  0  0  0  0  0  0  0  0  0  0
   58.3220   27.9580   47.0560 C   0  0  0  0  0  0  0  0  0  0  0  0
   57.7180   27.8490   45.7880 C   0  0  0  0  0  0  0  0  0  0  0  0
   56.5790   26.9820   45.6140 N   0  0  0  0  0  0  0  0  0  0  0  0
   56.4090   25.7150   46.3210 C   0  0  0  0  0  0  0  0  0  0  0  0
   56.7400   24.5540   45.4250 C   0  0  0  0  0  0  0  0  0  0  0  0
   57.9900   23.9200   45.5330 C   0  0  0  0  0  0  0  0  0  0  0  0
   58.3100   22.8520   44.6870 C   0  0  0  0  0  0  0  0  0  0  0  0
   57.3830   22.4010   43.7410 C   0  0  0  0  0  0  0  0  0  0  0  0
   56.1360   23.0230   43.6320 C   0  0  0  0  0  0  0  0  0  0  0  0
   55.8140   24.0970   44.4670 C   0  0  0  0  0  0  0  0  0  0  0  0
   55.9900   31.4080   44.8060 N   0  0  0  0  0  0  0  0  0  0  0  0
   57.2020   32.1240   45.0910 C   0  0  0  0  0  0  0  0  0  0  0  0
   57.7330   33.0540   44.1780 C   0  0  0  0  0  0  0  0  0  0  0  0
   58.9040   33.7520   44.4870 C   0  0  0  0  0  0  0  0  0  0  0  0
   59.5360   33.5490   45.7190 C   0  0  0  0  0  0  0  0  0  0  0  0
   60.6730   34.2270   46.0170 F   0  0  0  0  0  0  0  0  0  0  0  0
   58.9960   32.6490   46.6440 C   0  0  0  0  0  0  0  0  0  0  0  0
   57.8290   31.9430   46.3330 C   0  0  0  0  0  0  0  0  0  0  0  0
   56.2784   29.5530   42.1539 H   0  0  0  0  0  0  0  0  0  0  0  0
   57.5766   30.5695   42.9178 H   0  0  0  0  0  0  0  0  0  0  0  0
   58.4110   28.4290   42.6580 H   0  0  0  0  0  0  0  0  0  0  0  0
   57.0120   27.7160   43.2660 H   0  0  0  0  0  0  0  0  0  0  0  0
   59.9718   29.7475   44.0238 H   0  0  0  0  0  0  0  0  0  0  0  0
   60.9897   29.9450   46.2795 H   0  0  0  0  0  0  0  0  0  0  0  0
   59.3997   31.2282   49.7073 H   0  0  0  0  0  0  0  0  0  0  0  0
   57.8790   30.5767   48.9773 H   0  0  0  0  0  0  0  0  0  0  0  0
   58.3618   31.7047   51.6833 H   0  0  0  0  0  0  0  0  0  0  0  0
   56.8289   31.5269   50.7456 H   0  0  0  0  0  0  0  0  0  0  0  0
   58.9626   30.0033   53.1841 H   0  0  0  0  0  0  0  0  0  0  0  0
   58.2284   28.3620   52.8967 H   0  0  0  0  0  0  0  0  0  0  0  0
   60.4584   29.6877   51.5040 H   0  0  0  0  0  0  0  0  0  0  0  0
   59.9466   27.9637   51.4965 H   0  0  0  0  0  0  0  0  0  0  0  0
   57.8783   27.4330   47.9147 H   0  0  0  0  0  0  0  0  0  0  0  0
   55.8730   27.2110   44.8850 H   0  0  0  0  0  0  0  0  0  0  0  0
   57.0766   25.6976   47.1951 H   0  0  0  0  0  0  0  0  0  0  0  0
   55.3595   25.6269   46.6384 H   0  0  0  0  0  0  0  0  0  0  0  0
   58.7174   24.2637   46.2832 H   0  0  0  0  0  0  0  0  0  0  0  0
   59.2934   22.3656   44.7661 H   0  0  0  0  0  0  0  0  0  0  0  0
   57.6356   21.5566   43.0828 H   0  0  0  0  0  0  0  0  0  0  0  0
   55.4075   22.6672   42.8886 H   0  0  0  0  0  0  0  0  0  0  0  0
   54.8335   24.5872   44.3755 H   0  0  0  0  0  0  0  0  0  0  0  0
   57.2252   33.2321   43.2186 H   0  0  0  0  0  0  0  0  0  0  0  0
   59.3289   34.4612   43.7614 H   0  0  0  0  0  0  0  0  0  0  0  0
   59.4889   32.4965   47.6155 H   0  0  0  0  0  0  0  0  0  0  0  0
   57.4010   31.2428   47.0655 H   0  0  0  0  0  0  0  0  0  0  0  0
  1  2  2  0
  2  3  1  0
  3  4  1  0
  4  5  1  0
  5  6  2  0
  6  7  1  0
  7  8  2  0
  8  9  1  0
  9 10  2  0
  9 11  2  0
  9 12  1  0
 12 13  1  0
 13 14  1  0
 14 15  1  0
 15 16  1  0
 16 17  1  0
  8 18  1  0
 18 19  2  0
 19 20  1  0
 20 21  1  0
 21 22  1  0
 22 23  2  0
 23 24  1  0
 24 25  2  0
 25 26  1  0
 26 27  2  0
  2 28  1  0
 28 29  1  0
 29 30  2  0
 30 31  1  0
 31 32  2  0
 32 33  1  0
 32 34  1  0
 34 35  2  0
 19  5  1  0
 27 22  1  0
 35 29  1  0
 17 12  1  0
  3 36  1  0
  3 37  1  0
  4 38  1  0
  4 39  1  0
  6 40  1  0
  7 41  1  0
 13 42  1  0
 13 43  1  0
 14 44  1  0
 14 45  1  0
 16 46  1  0
 16 47  1  0
 17 48  1  0
 17 49  1  0
 18 50  1  0
 20 51  1  0
 21 52  1  0
 21 53  1  0
 23 54  1  0
 24 55  1  0
 25 56  1  0
 26 57  1  0
 27 58  1  0
 30 59  1  0
 31 60  1  0
 34 61  1  0
 35 62  1  0
M  CHG  2   4   1  28  -1
M  END
>  <UniqueID>  (26) 
25

>  <SMILES>  (26) 
O=C(C[NH2+]c1ccc(S(=O)(=O)N2CCOCC2)cc1NCc1ccccc1)[N-]c1ccc(F)cc1

>  <Energy>  (26) 
81.66455791741285

>  <Genealogy>  (26) 
O=C(C[NH2+]c1ccc(S(=O)(=O)N2CCOCC2)cc1NCc1ccccc1)[N-]c1ccc(F)cc1 (protonated)
O=C(C[NH2+]c1ccc(S(=O)(=O)N2CCOCC2)cc1NCc1ccccc1)[N-]c1ccc(F)cc1 (3D coordinates assigned)
O=C(C[NH2+]c1ccc(S(=O)(=O)N2CCOCC2)cc1NCc1ccccc1)[N-]c1ccc(F)cc1 (nonaromatic ring conformer: 81.66455791741285 kcal/mol)

>  <smiles>  (26) 
O=C(CNc1ccc(S(=O)(=O)N2CCOCC2)cc1NCc1ccccc1)Nc1ccc(F)cc1

>  <score_type>  (26) 
oracle

>  <origin>  (26) 
adg

>  <m_score__min__energy>  (26) 
-10.19

>  <m_primary>  (26) 
energy

$$$$
26:0
     RDKit          3D

 39 42  0  0  0  0  0  0  0  0999 V2000
   56.8231   32.0600   43.3489 H   0  0  0  0  0  0  0  0  0  0  0  0
   56.7120   31.0580   43.7890 C   0  0  0  0  0  0  0  0  0  0  0  0
   55.9457   30.3697   43.4030 H   0  0  0  0  0  0  0  0  0  0  0  0
   57.5100   30.6760   44.7950 C   0  0  0  0  0  0  0  0  0  0  0  0
   57.5050   29.4500   45.4640 C   0  0  0  0  0  0  0  0  0  0  0  0
   56.7120   28.3940   45.2140 C   0  0  0  0  0  0  0  0  0  0  0  0
   56.0282   28.4535   44.3544 H   0  0  0  0  0  0  0  0  0  0  0  0
   56.7030   27.1590   46.0230 C   0  0  0  0  0  0  0  0  0  0  0  0
   55.6740   26.2560   46.2180 C   0  0  0  0  0  0  0  0  0  0  0  0
   54.3970   26.3370   45.6780 O   0  0  0  0  0  0  0  0  0  0  0  0
   56.0890   25.2240   46.9770 N   0  0  0  0  0  0  0  0  0  0  0  0
   57.3840   25.5240   47.2130 C   0  0  0  0  0  0  0  0  0  0  0  0
   58.1430   24.7890   47.8970 O   0  0  0  0  0  0  0  0  0  0  0  0
   57.7920   26.6750   46.6430 N   0  0  0  0  0  0  0  0  0  0  0  0
   58.7470   27.0980   46.6800 H   0  0  0  0  0  0  0  0  0  0  0  0
   58.4820   29.4490   46.3980 N   0  0  0  0  0  0  0  0  0  0  0  0
   59.0470   30.6680   46.2870 C   0  0  0  0  0  0  0  0  0  0  0  0
   60.0150   31.0360   47.0030 O   0  0  0  0  0  0  0  0  0  0  0  0
   58.4840   31.4420   45.3360 N   0  0  0  0  0  0  0  0  0  0  0  0
   58.9000   32.7970   44.9490 C   0  0  0  0  0  0  0  0  0  0  0  0
   59.9643   32.7824   44.6713 H   0  0  0  0  0  0  0  0  0  0  0  0
   58.2872   33.1248   44.0963 H   0  0  0  0  0  0  0  0  0  0  0  0
   58.7000   33.7600   46.0860 C   0  0  0  0  0  0  0  0  0  0  0  0
   57.7340   34.5690   46.0440 O   0  0  0  0  0  0  0  0  0  0  0  0
   59.6020   33.7880   47.2550 C   0  0  0  0  0  0  0  0  0  0  0  0
   59.1860   33.8250   48.5840 C   0  0  0  0  0  0  0  0  0  0  0  0
   58.1358   33.8493   48.9102 H   0  0  0  0  0  0  0  0  0  0  0  0
   60.2490   33.8270   49.4170 N   0  0  0  0  0  0  0  0  0  0  0  0
   60.2250   33.8510   50.4600 H   0  0  0  0  0  0  0  0  0  0  0  0
   61.3390   33.8030   48.6310 C   0  0  0  0  0  0  0  0  0  0  0  0
   62.6700   33.8230   49.0440 C   0  0  0  0  0  0  0  0  0  0  0  0
   62.9317   33.8300   50.1124 H   0  0  0  0  0  0  0  0  0  0  0  0
   63.6670   33.8340   48.0550 C   0  0  0  0  0  0  0  0  0  0  0  0
   64.7274   33.8403   48.3474 H   0  0  0  0  0  0  0  0  0  0  0  0
   63.3160   33.8370   46.6880 C   0  0  0  0  0  0  0  0  0  0  0  0
   64.1052   33.8520   45.9218 H   0  0  0  0  0  0  0  0  0  0  0  0
   61.9650   33.8210   46.2980 C   0  0  0  0  0  0  0  0  0  0  0  0
   61.6828   33.8363   45.2349 H   0  0  0  0  0  0  0  0  0  0  0  0
   60.9900   33.7850   47.3010 C   0  0  0  0  0  0  0  0  0  0  0  0
  1  2  1  0
  2  3  1  0
  2  4  2  0
  4  5  1  0
  5  6  2  0
  6  7  1  0
  6  8  1  0
  8  9  2  0
  9 10  1  0
  9 11  1  0
 11 12  1  0
 12 13  2  0
 12 14  1  0
 14 15  1  0
  5 16  1  0
 16 17  1  0
 17 18  2  0
 17 19  1  0
 19 20  1  0
 20 21  1  0
 20 22  1  0
 20 23  1  0
 23 24  2  0
 23 25  1  0
 25 26  2  0
 26 27  1  0
 26 28  1  0
 28 29  1  0
 28 30  1  0
 30 31  2  0
 31 32  1  0
 31 33  1  0
 33 34  1  0
 33 35  2  0
 35 36  1  0
 35 37  1  0
 37 38  1  0
 37 39  2  0
 19  4  1  0
 39 25  1  0
 14  8  1  0
 39 30  1  0
M  CHG  3  10  -1  11  -1  16  -1
M  END
>  <UniqueID>  (27) 
26

>  <SMILES>  (27) 
C=c1/c(=C/c2[nH]c(=O)[n-]c2[O-])[n-]c(=O)n1CC(=O)c1c[nH]c2ccccc12

>  <Energy>  (27) 
147.67546391597966

>  <Genealogy>  (27) 
C=c1c(=Cc2[nH]c(=O)[n-]c2[O-])[n-]c(=O)n1CC(=O)c1c[nH]c2ccccc12 (protonated)
C=c1/c(=C/c2[nH]c(=O)[n-]c2[O-])[n-]c(=O)n1CC(=O)c1c[nH]c2ccccc12 (cis-trans isomerization)
C=c1/c(=C/c2[nH]c(=O)[n-]c2[O-])[n-]c(=O)n1CC(=O)c1c[nH]c2ccccc12 (3D coordinates assigned)
C=c1/c(=C/c2[nH]c(=O)[n-]c2[O-])[n-]c(=O)n1CC(=O)c1c[nH]c2ccccc12 (optimized conformer: 147.67546391597966 kcal/mol)

>  <smiles>  (27) 
C=c1c(=Cc2[nH]c(=O)[nH]c2O)[nH]c(=O)n1CC(=O)c1c[nH]c2ccccc12

>  <score_type>  (27) 
oracle

>  <origin>  (27) 
adg

>  <m_score__min__energy>  (27) 
-16.449999999999999

>  <m_primary>  (27) 
energy

$$$$
27:0
     RDKit          3D

 45 47  0  0  0  0  0  0  0  0999 V2000
   54.8250   27.0900   46.4220 H   0  0  0  0  0  0  0  0  0  0  0  0
   54.5750   26.1730   45.9890 N   0  0  0  0  0  0  0  0  0  0  0  0
   55.9300   25.1250   46.2110 S   0  0  0  0  0  0  0  0  0  0  0  0
   56.0180   24.1690   45.0540 O   0  0  0  0  0  0  0  0  0  0  0  0
   55.7530   24.3330   47.4770 O   0  0  0  0  0  0  0  0  0  0  0  0
   57.4040   26.0830   46.3090 C   0  0  0  0  0  0  0  0  0  0  0  0
   58.6570   25.4560   46.2890 C   0  0  0  0  0  0  0  0  0  0  0  0
   58.7214   24.3608   46.2094 H   0  0  0  0  0  0  0  0  0  0  0  0
   59.8250   26.2190   46.3700 C   0  0  0  0  0  0  0  0  0  0  0  0
   60.8066   25.7225   46.3660 H   0  0  0  0  0  0  0  0  0  0  0  0
   59.7480   27.6110   46.4560 C   0  0  0  0  0  0  0  0  0  0  0  0
   60.6685   28.2070   46.5428 H   0  0  0  0  0  0  0  0  0  0  0  0
   58.4980   28.2520   46.4320 C   0  0  0  0  0  0  0  0  0  0  0  0
   58.3940   29.6790   46.5570 N   0  0  0  0  0  0  0  0  0  0  0  0
   58.0800   30.5310   45.6190 C   0  0  0  0  0  0  0  0  0  0  0  0
   57.6690   30.0350   44.3760 C   0  0  0  0  0  0  0  0  0  0  0  0
   57.6071   28.9497   44.2077 H   0  0  0  0  0  0  0  0  0  0  0  0
   57.3380   30.9230   43.3510 C   0  0  0  0  0  0  0  0  0  0  0  0
   57.0139   30.5361   42.3736 H   0  0  0  0  0  0  0  0  0  0  0  0
   57.4150   32.2630   43.5570 N   0  0  0  0  0  0  0  0  0  0  0  0
   57.8080   32.7860   44.7510 C   0  0  0  0  0  0  0  0  0  0  0  0
   57.9070   34.2500   44.8940 C   0  0  0  0  0  0  0  0  0  0  0  0
   56.8530   34.9370   44.8290 O   0  0  0  0  0  0  0  0  0  0  0  0
   59.1520   34.9200   45.1370 N   0  0  0  0  0  0  0  0  0  0  0  0
   59.8540   35.0100   46.4190 C   0  0  0  0  0  0  0  0  0  0  0  0
   60.1420   36.0521   46.6218 H   0  0  0  0  0  0  0  0  0  0  0  0
   61.1770   34.1990   46.3820 C   0  0  0  0  0  0  0  0  0  0  0  0
   61.5120   34.1149   45.3376 H   0  0  0  0  0  0  0  0  0  0  0  0
   61.9170   34.7311   46.9978 H   0  0  0  0  0  0  0  0  0  0  0  0
   61.0080   32.7910   46.9610 C   0  0  0  0  0  0  0  0  0  0  0  0
   60.2530   32.2506   46.3711 H   0  0  0  0  0  0  0  0  0  0  0  0
   61.9814   32.2808   46.9149 H   0  0  0  0  0  0  0  0  0  0  0  0
   60.5550   32.8340   48.4350 C   0  0  0  0  0  0  0  0  0  0  0  0
   59.9803   31.9210   48.6500 H   0  0  0  0  0  0  0  0  0  0  0  0
   61.4628   32.9087   49.0517 H   0  0  0  0  0  0  0  0  0  0  0  0
   59.6750   34.0560   48.7700 C   0  0  0  0  0  0  0  0  0  0  0  0
   58.9586   33.7753   49.5561 H   0  0  0  0  0  0  0  0  0  0  0  0
   60.3319   34.8703   49.1098 H   0  0  0  0  0  0  0  0  0  0  0  0
   58.9000   34.5460   47.5430 C   0  0  0  0  0  0  0  0  0  0  0  0
   58.2739   33.7247   47.1642 H   0  0  0  0  0  0  0  0  0  0  0  0
   58.2804   35.4030   47.8456 H   0  0  0  0  0  0  0  0  0  0  0  0
   58.1790   31.9260   45.7940 C   0  0  0  0  0  0  0  0  0  0  0  0
   58.5460   32.3384   46.7454 H   0  0  0  0  0  0  0  0  0  0  0  0
   57.3290   27.4810   46.3870 C   0  0  0  0  0  0  0  0  0  0  0  0
   56.3466   27.9753   46.4130 H   0  0  0  0  0  0  0  0  0  0  0  0
  1  2  1  0
  2  3  1  0
  3  4  2  0
  3  5  2  0
  3  6  1  0
  6  7  2  0
  7  8  1  0
  7  9  1  0
  9 10  1  0
  9 11  2  0
 11 12  1  0
 11 13  1  0
 13 14  1  0
 14 15  2  0
 15 16  1  0
 16 17  1  0
 16 18  2  0
 18 19  1  0
 18 20  1  0
 20 21  1  0
 21 22  1  0
 22 23  2  0
 22 24  1  0
 24 25  1  0
 25 26  1  0
 25 27  1  0
 27 28  1  0
 27 29  1  0
 27 30  1  0
 30 31  1  0
 30 32  1  0
 30 33  1  0
 33 34  1  0
 33 35  1  0
 33 36  1  0
 36 37  1  0
 36 38  1  0
 36 39  1  0
 39 40  1  0
 39 41  1  0
 21 42  2  0
 42 43  1  0
 13 44  2  0
 44 45  1  0
 44  6  1  0
 42 15  1  0
 39 25  1  0
M  CHG  3   2  -1  20  -1  24  -1
M  END
>  <UniqueID>  (28) 
27

>  <SMILES>  (28) 
[NH-]S(=O)(=O)c1cccc(/N=c2/cc[n-]c(C(=O)[N-]C3CCCCC3)c2)c1

>  <Energy>  (28) 
60.95468244388865

>  <Genealogy>  (28) 
[NH-]S(=O)(=O)c1cccc(N=c2cc[n-]c(C(=O)[N-]C3CCCCC3)c2)c1 (protonated)
[NH-]S(=O)(=O)c1cccc(/N=c2/cc[n-]c(C(=O)[N-]C3CCCCC3)c2)c1 (cis-trans isomerization)
[NH-]S(=O)(=O)c1cccc(/N=c2/cc[n-]c(C(=O)[N-]C3CCCCC3)c2)c1 (3D coordinates assigned)
[NH-]S(=O)(=O)c1cccc(/N=c2/cc[n-]c(C(=O)[N-]C3CCCCC3)c2)c1 (nonaromatic ring conformer: 60.95468244388865 kcal/mol)

>  <smiles>  (28) 
NS(=O)(=O)c1cccc(N=c2cc[nH]c(C(=O)NC3CCCCC3)c2)c1

>  <score_type>  (28) 
oracle

>  <origin>  (28) 
adg

>  <m_score__min__energy>  (28) 
-13.779999999999999

>  <m_primary>  (28) 
energy

$$$$
28:0
     RDKit          3D

 47 49  0  0  0  0  0  0  0  0999 V2000
   56.2930   23.9650   48.1720 C   0  0  0  0  0  0  0  0  0  0  0  0
   56.2730   23.4480   46.7900 N   0  0  0  0  0  0  0  0  0  0  0  0
   55.7440   24.2050   45.7710 C   0  0  0  0  0  0  0  0  0  0  0  0
   55.2480   25.5890   45.9850 C   0  0  0  0  0  0  0  0  0  0  0  0
   54.0800   25.8920   45.6250 O   0  0  0  0  0  0  0  0  0  0  0  0
   56.0300   26.5700   46.6800 N   0  0  0  0  0  0  0  0  0  0  0  0
   57.4360   26.8070   46.5130 C   0  0  0  0  0  0  0  0  0  0  0  0
   58.3260   25.7680   46.1890 C   0  0  0  0  0  0  0  0  0  0  0  0
   59.6870   26.0360   46.0230 C   0  0  0  0  0  0  0  0  0  0  0  0
   60.1670   27.3400   46.1610 C   0  0  0  0  0  0  0  0  0  0  0  0
   59.2840   28.3900   46.4510 C   0  0  0  0  0  0  0  0  0  0  0  0
   59.8840   30.0450   46.5920 S   0  0  0  0  0  0  0  0  0  0  0  0
   59.6720   30.5300   48.0000 O   0  0  0  0  0  0  0  0  0  0  0  0
   61.3610   30.0600   46.3130 O   0  0  0  0  0  0  0  0  0  0  0  0
   59.0750   31.1230   45.4770 N   0  0  0  0  0  0  0  0  0  0  0  0
   58.1170   31.9850   46.1960 C   0  0  0  0  0  0  0  0  0  0  0  0
   57.0660   32.5500   45.2280 C   0  0  0  0  0  0  0  0  0  0  0  0
   56.2930   31.5550   44.5670 O   0  0  0  0  0  0  0  0  0  0  0  0
   56.9310   30.2880   44.4910 C   0  0  0  0  0  0  0  0  0  0  0  0
   58.4610   30.3850   44.3510 C   0  0  0  0  0  0  0  0  0  0  0  0
   57.9190   28.1160   46.6240 C   0  0  0  0  0  0  0  0  0  0  0  0
   55.6760   23.6760   44.4820 C   0  0  0  0  0  0  0  0  0  0  0  0
   56.1780   22.4060   44.2390 C   0  0  0  0  0  0  0  0  0  0  0  0
   56.0880   21.9280   43.0740 O   0  0  0  0  0  0  0  0  0  0  0  0
   56.7660   21.6920   45.2460 N   0  0  0  0  0  0  0  0  0  0  0  0
   57.2910   20.3410   44.9830 C   0  0  0  0  0  0  0  0  0  0  0  0
   56.7980   22.2050   46.5200 C   0  0  0  0  0  0  0  0  0  0  0  0
   57.3140   21.5250   47.4510 O   0  0  0  0  0  0  0  0  0  0  0  0
   56.2604   23.1229   48.8790 H   0  0  0  0  0  0  0  0  0  0  0  0
   57.2142   24.5440   48.3336 H   0  0  0  0  0  0  0  0  0  0  0  0
   55.4193   24.6134   48.3336 H   0  0  0  0  0  0  0  0  0  0  0  0
   57.9498   24.7417   46.0659 H   0  0  0  0  0  0  0  0  0  0  0  0
   60.3821   25.2179   45.7830 H   0  0  0  0  0  0  0  0  0  0  0  0
   61.2413   27.5442   46.0418 H   0  0  0  0  0  0  0  0  0  0  0  0
   57.6114   31.3935   46.9735 H   0  0  0  0  0  0  0  0  0  0  0  0
   58.6660   32.8223   46.6516 H   0  0  0  0  0  0  0  0  0  0  0  0
   56.3827   33.1964   45.7983 H   0  0  0  0  0  0  0  0  0  0  0  0
   57.6145   33.0973   44.4472 H   0  0  0  0  0  0  0  0  0  0  0  0
   56.6991   29.7246   45.4069 H   0  0  0  0  0  0  0  0  0  0  0  0
   56.5521   29.7856   43.5887 H   0  0  0  0  0  0  0  0  0  0  0  0
   58.8801   29.3684   44.3221 H   0  0  0  0  0  0  0  0  0  0  0  0
   58.6832   30.9336   43.4238 H   0  0  0  0  0  0  0  0  0  0  0  0
   57.2223   28.9370   46.8488 H   0  0  0  0  0  0  0  0  0  0  0  0
   55.2281   24.2610   43.6652 H   0  0  0  0  0  0  0  0  0  0  0  0
   57.4887   19.8321   45.9380 H   0  0  0  0  0  0  0  0  0  0  0  0
   56.5510   19.7657   44.4073 H   0  0  0  0  0  0  0  0  0  0  0  0
   58.2253   20.4163   44.4073 H   0  0  0  0  0  0  0  0  0  0  0  0
  1  2  1  0
  2  3  1  0
  3  4  1  0
  4  5  2  0
  4  6  1  0
  6  7  1  0
  7  8  2  0
  8  9  1  0
  9 10  2  0
 10 11  1  0
 11 12  1  0
 12 13  2  0
 12 14  2  0
 12 15  1  0
 15 16  1  0
 16 17  1  0
 17 18  1  0
 18 19  1  0
 19 20  1  0
 11 21  2  0
  3 22  2  0
 22 23  1  0
 23 24  2  0
 23 25  1  0
 25 26  1  0
 25 27  1  0
 27 28  2  0
 27  2  1  0
 21  7  1  0
 20 15  1  0
  1 29  1  0
  1 30  1  0
  1 31  1  0
  8 32  1  0
  9 33  1  0
 10 34  1  0
 16 35  1  0
 16 36  1  0
 17 37  1  0
 17 38  1  0
 19 39  1  0
 19 40  1  0
 20 41  1  0
 20 42  1  0
 21 43  1  0
 22 44  1  0
 26 45  1  0
 26 46  1  0
 26 47  1  0
M  CHG  1   6  -1
M  END
>  <UniqueID>  (29) 
28

>  <SMILES>  (29) 
Cn1c(C(=O)[N-]c2cccc(S(=O)(=O)N3CCOCC3)c2)cc(=O)n(C)c1=O

>  <Energy>  (29) 
76.62119142484069

>  <Genealogy>  (29) 
Cn1c(C(=O)[N-]c2cccc(S(=O)(=O)N3CCOCC3)c2)cc(=O)n(C)c1=O (protonated)
Cn1c(C(=O)[N-]c2cccc(S(=O)(=O)N3CCOCC3)c2)cc(=O)n(C)c1=O (3D coordinates assigned)
Cn1c(C(=O)[N-]c2cccc(S(=O)(=O)N3CCOCC3)c2)cc(=O)n(C)c1=O (nonaromatic ring conformer: 76.62119142484069 kcal/mol)

>  <smiles>  (29) 
Cn1c(C(=O)Nc2cccc(S(=O)(=O)N3CCOCC3)c2)cc(=O)n(C)c1=O

>  <score_type>  (29) 
oracle

>  <origin>  (29) 
adg

>  <m_score__min__energy>  (29) 
-11.289999999999999

>  <m_primary>  (29) 
energy

$$$$
29:0
     RDKit          3D

 58 61  0  0  0  0  0  0  0  0999 V2000
   63.4558   25.2096   53.7174 H   0  0  0  0  0  0  0  0  0  0  0  0
   62.9260   26.0650   53.2730 C   0  0  0  0  0  0  0  0  0  0  0  0
   63.0060   27.3220   53.8720 C   0  0  0  0  0  0  0  0  0  0  0  0
   63.5912   27.4547   54.7939 H   0  0  0  0  0  0  0  0  0  0  0  0
   62.3440   28.4130   53.3030 C   0  0  0  0  0  0  0  0  0  0  0  0
   62.4064   29.3999   53.7848 H   0  0  0  0  0  0  0  0  0  0  0  0
   61.5980   28.2610   52.1190 C   0  0  0  0  0  0  0  0  0  0  0  0
   60.9120   29.4400   51.5380 C   0  0  0  0  0  0  0  0  0  0  0  0
   61.3840   30.5930   51.7440 O   0  0  0  0  0  0  0  0  0  0  0  0
   59.7520   29.2880   50.7030 N   0  0  0  0  0  0  0  0  0  0  0  0
   59.6270   28.3810   50.2000 H   0  0  0  0  0  0  0  0  0  0  0  0
   58.9860   30.4110   50.2390 C   0  0  0  0  0  0  0  0  0  0  0  0
   58.7490   30.5320   48.8290 N   0  0  0  0  0  0  0  0  0  0  0  0
   58.5610   29.6510   48.3010 H   0  0  0  0  0  0  0  0  0  0  0  0
   58.9000   31.7620   48.1000 C   0  0  0  0  0  0  0  0  0  0  0  0
   59.1790   32.8320   48.7040 O   0  0  0  0  0  0  0  0  0  0  0  0
   58.7070   31.8040   46.6810 N   0  0  0  0  0  0  0  0  0  0  0  0
   58.5590   30.6670   45.8220 C   0  0  0  0  0  0  0  0  0  0  0  0
   59.3940   29.5430   45.9400 C   0  0  0  0  0  0  0  0  0  0  0  0
   60.1687   29.5148   46.7205 H   0  0  0  0  0  0  0  0  0  0  0  0
   59.2430   28.4600   45.0680 C   0  0  0  0  0  0  0  0  0  0  0  0
   59.8894   27.5765   45.1754 H   0  0  0  0  0  0  0  0  0  0  0  0
   58.2740   28.4950   44.0600 C   0  0  0  0  0  0  0  0  0  0  0  0
   58.1150   27.1140   42.9840 Cl  0  0  0  0  0  0  0  0  0  0  0  0
   57.4560   29.6280   43.9190 C   0  0  0  0  0  0  0  0  0  0  0  0
   56.2350   29.7190   42.6570 Cl  0  0  0  0  0  0  0  0  0  0  0  0
   57.6100   30.7110   44.7940 C   0  0  0  0  0  0  0  0  0  0  0  0
   56.9795   31.6041   44.6722 H   0  0  0  0  0  0  0  0  0  0  0  0
   58.4590   31.2730   51.0730 N   0  0  0  0  0  0  0  0  0  0  0  0
   58.3940   32.2790   50.7970 H   0  0  0  0  0  0  0  0  0  0  0  0
   57.8930   30.9330   52.3490 C   0  0  0  0  0  0  0  0  0  0  0  0
   58.6150   31.1340   53.5380 C   0  0  0  0  0  0  0  0  0  0  0  0
   59.6220   31.5750   53.4996 H   0  0  0  0  0  0  0  0  0  0  0  0
   58.0590   30.7760   54.7680 C   0  0  0  0  0  0  0  0  0  0  0  0
   58.6224   30.9496   55.6966 H   0  0  0  0  0  0  0  0  0  0  0  0
   56.7890   30.1980   54.8210 C   0  0  0  0  0  0  0  0  0  0  0  0
   56.3548   29.9185   55.7923 H   0  0  0  0  0  0  0  0  0  0  0  0
   56.0640   29.9720   53.6410 C   0  0  0  0  0  0  0  0  0  0  0  0
   54.7190   29.3000   53.6920 C   0  0  0  0  0  0  0  0  0  0  0  0
   54.7474   28.3839   53.0837 H   0  0  0  0  0  0  0  0  0  0  0  0
   54.4823   29.0504   54.7368 H   0  0  0  0  0  0  0  0  0  0  0  0
   53.6570   30.2200   53.1550 C   0  0  0  0  0  0  0  0  0  0  0  0
   53.6390   30.5630   51.7930 C   0  0  0  0  0  0  0  0  0  0  0  0
   54.4217   30.1809   51.1211 H   0  0  0  0  0  0  0  0  0  0  0  0
   52.6290   31.3890   51.2880 C   0  0  0  0  0  0  0  0  0  0  0  0
   52.6233   31.6604   50.2220 H   0  0  0  0  0  0  0  0  0  0  0  0
   51.6270   31.8700   52.1360 C   0  0  0  0  0  0  0  0  0  0  0  0
   50.6240   32.6900   51.6330 O   0  0  0  0  0  0  0  0  0  0  0  0
   51.6330   31.5230   53.4910 C   0  0  0  0  0  0  0  0  0  0  0  0
   50.8440   31.9007   54.1580 H   0  0  0  0  0  0  0  0  0  0  0  0
   52.6400   30.6970   53.9990 C   0  0  0  0  0  0  0  0  0  0  0  0
   52.6361   30.4195   55.0634 H   0  0  0  0  0  0  0  0  0  0  0  0
   56.6320   30.3240   52.4050 C   0  0  0  0  0  0  0  0  0  0  0  0
   56.0827   30.1200   51.4741 H   0  0  0  0  0  0  0  0  0  0  0  0
   61.5010   26.9770   51.5350 C   0  0  0  0  0  0  0  0  0  0  0  0
   60.7230   26.7560   50.4050 O   0  0  0  0  0  0  0  0  0  0  0  0
   62.1740   25.8920   52.1100 C   0  0  0  0  0  0  0  0  0  0  0  0
   62.1097   24.8983   51.6427 H   0  0  0  0  0  0  0  0  0  0  0  0
  1  2  1  0
  2  3  2  0
  3  4  1  0
  3  5  1  0
  5  6  1  0
  5  7  2  0
  7  8  1  0
  8  9  2  0
  8 10  1  0
 10 11  1  0
 10 12  1  0
 12 13  1  0
 13 14  1  0
 13 15  1  0
 15 16  2  0
 15 17  1  0
 17 18  1  0
 18 19  2  0
 19 20  1  0
 19 21  1  0
 21 22  1  0
 21 23  2  0
 23 24  1  0
 23 25  1  0
 25 26  1  0
 25 27  2  0
 27 28  1  0
 12 29  2  0
 29 30  1  0
 29 31  1  0
 31 32  2  0
 32 33  1  0
 32 34  1  0
 34 35  1  0
 34 36  2  0
 36 37  1  0
 36 38  1  0
 38 39  1  0
 39 40  1  0
 39 41  1  0
 39 42  1  0
 42 43  2  0
 43 44  1  0
 43 45  1  0
 45 46  1  0
 45 47  2  0
 47 48  1  0
 47 49  1  0
 49 50  1  0
 49 51  2  0
 51 52  1  0
 38 53  2  0
 53 54  1  0
  7 55  1  0
 55 56  1  0
 55 57  2  0
 57 58  1  0
 57  2  1  0
 27 18  1  0
 53 31  1  0
 51 42  1  0
M  CHG  4  17  -1  29   1  48  -1  56  -1
M  END
>  <UniqueID>  (30) 
29

>  <SMILES>  (30) 
O=C([N-]c1ccc(Cl)c(Cl)c1)N/C(NC(=O)c1ccccc1[O-])=[NH+]/c1cccc(Cc2ccc([O-])cc2)c1

>  <Energy>  (30) 
84.22253112124866

>  <Genealogy>  (30) 
O=C([N-]c1ccc(Cl)c(Cl)c1)NC(NC(=O)c1ccccc1[O-])=[NH+]c1cccc(Cc2ccc([O-])cc2)c1 (protonated)
O=C([N-]c1ccc(Cl)c(Cl)c1)N/C(NC(=O)c1ccccc1[O-])=[NH+]/c1cccc(Cc2ccc([O-])cc2)c1 (cis-trans isomerization)
O=C([N-]c1ccc(Cl)c(Cl)c1)N/C(NC(=O)c1ccccc1[O-])=[NH+]/c1cccc(Cc2ccc([O-])cc2)c1 (3D coordinates assigned)
O=C([N-]c1ccc(Cl)c(Cl)c1)N/C(NC(=O)c1ccccc1[O-])=[NH+]/c1cccc(Cc2ccc([O-])cc2)c1 (optimized conformer: 84.22253112124866 kcal/mol)

>  <smiles>  (30) 
O=C(NC(=Nc1cccc(Cc2ccc(O)cc2)c1)NC(=O)c1ccccc1O)Nc1ccc(Cl)c(Cl)c1

>  <score_type>  (30) 
oracle

>  <origin>  (30) 
adg

>  <m_score__min__energy>  (30) 
-14.59

>  <m_primary>  (30) 
energy

$$$$
30:0
     RDKit          3D

 41 43  0  0  1  0  0  0  0  0999 V2000
   57.0210   31.2820   42.4600 C   0  0  0  0  0  0  0  0  0  0  0  0
   56.9990   30.4900   43.7200 C   0  0  0  0  0  0  0  0  0  0  0  0
   56.1140   30.7550   44.5750 O   0  0  0  0  0  0  0  0  0  0  0  0
   57.9780   29.4730   43.8970 N   0  0  0  0  0  0  0  0  0  0  0  0
   58.0520   28.6560   45.0590 C   0  0  0  0  0  0  0  0  0  0  0  0
   57.1230   27.6610   45.2200 C   0  0  0  0  0  0  0  0  0  0  0  0
   57.1960   26.8590   46.3600 C   0  0  0  0  0  0  0  0  0  0  0  0
   58.1980   27.1130   47.2640 C   0  0  0  0  0  0  0  0  0  0  0  0
   59.1290   28.1120   47.1030 C   0  0  0  0  0  0  0  0  0  0  0  0
   60.2030   28.3530   48.1120 C   0  0  0  0  0  0  0  0  0  0  0  0
   59.5940   28.8520   49.3430 N   0  0  0  0  0  0  0  0  0  0  0  0
   59.3480   30.1120   49.4700 C   0  0  0  0  0  0  0  0  0  0  0  0
   59.1440   30.8260   48.3550 N   0  0  0  0  0  0  0  0  0  0  0  0
   58.8830   32.1490   48.4380 C   0  0  0  0  0  0  0  0  0  0  0  0
   58.6600   32.9380   47.2340 C   0  0  0  0  0  0  0  0  0  0  0  0
   59.5600   33.8550   46.7420 C   0  0  0  0  0  0  0  0  0  0  0  0
   59.3230   34.5950   45.5930 C   0  0  0  0  0  0  0  0  0  0  0  0
   58.1220   34.3980   44.9080 C   0  0  0  0  0  0  0  0  0  0  0  0
   57.2540   33.4830   45.4220 C   0  0  0  0  0  0  0  0  0  0  0  0
   57.5160   32.7750   46.5490 N   0  0  0  0  0  0  0  0  0  0  0  0
   58.8450   32.6880   49.7060 C   0  0  0  0  0  0  0  0  0  0  0  0
   59.0590   31.9330   50.8510 C   0  0  0  0  0  0  0  0  0  0  0  0
   59.3140   30.6210   50.7100 N   0  0  0  0  0  0  0  0  0  0  0  0
   59.0590   28.9080   45.9730 C   0  0  0  0  0  0  0  0  0  0  0  0
   57.0508   32.3547   42.7017 H   0  0  0  0  0  0  0  0  0  0  0  0
   57.9120   31.0134   41.8736 H   0  0  0  0  0  0  0  0  0  0  0  0
   56.1164   31.0632   41.8736 H   0  0  0  0  0  0  0  0  0  0  0  0
   58.6900   29.3050   43.1390 H   0  0  0  0  0  0  0  0  0  0  0  0
   56.3374   27.4982   44.4675 H   0  0  0  0  0  0  0  0  0  0  0  0
   56.4726   26.0478   46.5292 H   0  0  0  0  0  0  0  0  0  0  0  0
   58.2591   26.4841   48.1644 H   0  0  0  0  0  0  0  0  0  0  0  0
   60.7338   27.4118   48.3180 H   0  0  0  0  0  0  0  0  0  0  0  0
   60.9187   29.0929   47.7243 H   0  0  0  0  0  0  0  0  0  0  0  0
   60.5062   34.0075   47.2819 H   0  0  0  0  0  0  0  0  0  0  0  0
   60.0648   35.3212   45.2293 H   0  0  0  0  0  0  0  0  0  0  0  0
   57.8868   34.9586   43.9913 H   0  0  0  0  0  0  0  0  0  0  0  0
   56.3004   33.3109   44.9014 H   0  0  0  0  0  0  0  0  0  0  0  0
   58.6362   33.7624   49.8153 H   0  0  0  0  0  0  0  0  0  0  0  0
   59.0209   32.3965   51.8479 H   0  0  0  0  0  0  0  0  0  0  0  0
   59.4780   30.0340   51.5560 H   0  0  0  0  0  0  0  0  0  0  0  0
   59.7839   29.7184   45.8065 H   0  0  0  0  0  0  0  0  0  0  0  0
  1  2  1  0
  2  3  2  0
  2  4  1  0
  4  5  1  0
  5  6  2  0
  6  7  1  0
  7  8  2  0
  8  9  1  0
  9 10  1  0
 10 11  1  0
 11 12  2  0
 12 13  1  0
 13 14  2  0
 14 15  1  0
 15 16  2  0
 16 17  1  0
 17 18  2  0
 18 19  1  0
 19 20  2  0
 14 21  1  0
 21 22  2  0
 22 23  1  0
  9 24  2  0
 24  5  1  0
 23 12  1  0
 20 15  1  0
  1 25  1  0
  1 26  1  0
  1 27  1  0
  4 28  1  0
  6 29  1  0
  7 30  1  0
  8 31  1  0
 10 32  1  0
 10 33  1  0
 16 34  1  0
 17 35  1  0
 18 36  1  0
 19 37  1  0
 21 38  1  0
 22 39  1  0
 23 40  1  0
 24 41  1  0
M  END
>  <smiles>  (31) 
CC(=O)Nc1cccc(CN=c2nc(-c3ccccn3)cc[nH]2)c1

>  <score_type>  (31) 
oracle

>  <origin>  (31) 
adg

>  <m_score__min__energy>  (31) 
-8.2100000000000009

>  <m_primary>  (31) 
energy

$$$$
31:0
     RDKit          3D

 49 51  0  0  0  0  0  0  0  0999 V2000
   58.1699   34.3775   43.5095 H   0  0  0  0  0  0  0  0  0  0  0  0
   58.2350   33.8400   44.4670 C   0  0  0  0  0  0  0  0  0  0  0  0
   56.6130   28.3760   45.1730 N   0  0  0  0  0  0  0  0  0  0  0  0
   57.3920   27.5590   45.9310 C   0  0  0  0  0  0  0  0  0  0  0  0
   57.1190   26.2830   45.9340 N   0  0  0  0  0  0  0  0  0  0  0  0
   59.6230   34.0730   49.0510 C   0  0  0  0  0  0  0  0  0  0  0  0
   59.3900   34.5460   50.1980 O   0  0  0  0  0  0  0  0  0  0  0  0
   60.5360   32.9790   48.8820 N   0  0  0  0  0  0  0  0  0  0  0  0
   61.6510   32.9360   48.2050 C   0  0  0  0  0  0  0  0  0  0  0  0
   61.9690   33.8460   47.1740 C   0  0  0  0  0  0  0  0  0  0  0  0
   61.2684   34.6527   46.9125 H   0  0  0  0  0  0  0  0  0  0  0  0
   63.1800   33.7160   46.4870 C   0  0  0  0  0  0  0  0  0  0  0  0
   63.4330   34.4253   45.6852 H   0  0  0  0  0  0  0  0  0  0  0  0
   64.0470   32.7170   46.8050 N   0  0  0  0  0  0  0  0  0  0  0  0
   64.9460   32.6330   46.2820 H   0  0  0  0  0  0  0  0  0  0  0  0
   63.7600   31.8200   47.7860 C   0  0  0  0  0  0  0  0  0  0  0  0
   64.4770   31.0202   48.0229 H   0  0  0  0  0  0  0  0  0  0  0  0
   62.5600   31.9090   48.4940 C   0  0  0  0  0  0  0  0  0  0  0  0
   62.3280   31.1734   49.2783 H   0  0  0  0  0  0  0  0  0  0  0  0
   58.4730   28.1190   46.6420 C   0  0  0  0  0  0  0  0  0  0  0  0
   59.1356   27.4761   47.2401 H   0  0  0  0  0  0  0  0  0  0  0  0
   58.0990   31.7820   45.7350 C   0  0  0  0  0  0  0  0  0  0  0  0
   57.8660   30.3180   45.8070 C   0  0  0  0  0  0  0  0  0  0  0  0
   56.8170   29.7180   45.0910 C   0  0  0  0  0  0  0  0  0  0  0  0
   56.1587   30.3354   44.4622 H   0  0  0  0  0  0  0  0  0  0  0  0
   58.5370   34.5170   45.6050 N   0  0  0  0  0  0  0  0  0  0  0  0
   58.6330   33.8930   46.8130 C   0  0  0  0  0  0  0  0  0  0  0  0
   58.9150   34.5560   47.8990 N   0  0  0  0  0  0  0  0  0  0  0  0
   55.8450   25.6250   45.8080 C   0  0  0  0  0  0  0  0  0  0  0  0
   54.7740   26.2690   45.9830 O   0  0  0  0  0  0  0  0  0  0  0  0
   55.7690   24.1790   45.3440 C   0  0  0  0  0  0  0  0  0  0  0  0
   54.2890   23.7680   45.2110 C   0  0  0  0  0  0  0  0  0  0  0  0
   53.8508   23.6463   46.2126 H   0  0  0  0  0  0  0  0  0  0  0  0
   53.7398   24.5476   44.6628 H   0  0  0  0  0  0  0  0  0  0  0  0
   54.2204   22.8168   44.6628 H   0  0  0  0  0  0  0  0  0  0  0  0
   56.4600   23.2330   46.3500 C   0  0  0  0  0  0  0  0  0  0  0  0
   56.2255   23.5540   47.3757 H   0  0  0  0  0  0  0  0  0  0  0  0
   56.0981   22.2058   46.1955 H   0  0  0  0  0  0  0  0  0  0  0  0
   57.5486   23.2653   46.1955 H   0  0  0  0  0  0  0  0  0  0  0  0
   56.4640   24.0490   43.9740 C   0  0  0  0  0  0  0  0  0  0  0  0
   57.5352   23.8486   44.1238 H   0  0  0  0  0  0  0  0  0  0  0  0
   56.0112   23.2200   43.4103 H   0  0  0  0  0  0  0  0  0  0  0  0
   56.3415   24.9856   43.4103 H   0  0  0  0  0  0  0  0  0  0  0  0
   58.4160   32.5120   46.8940 C   0  0  0  0  0  0  0  0  0  0  0  0
   58.4935   31.9986   47.8638 H   0  0  0  0  0  0  0  0  0  0  0  0
   58.6960   29.4960   46.5810 C   0  0  0  0  0  0  0  0  0  0  0  0
   59.5299   29.9391   47.1451 H   0  0  0  0  0  0  0  0  0  0  0  0
   58.0070   32.4630   44.5100 C   0  0  0  0  0  0  0  0  0  0  0  0
   57.7568   31.9148   43.5898 H   0  0  0  0  0  0  0  0  0  0  0  0
  1  2  1  0
  2  3  1  0
  3  4  1  0
  4  5  2  0
  5  6  1  0
  6  7  2  0
  6  8  1  0
  8  9  2  3
  9 10  1  0
 10 11  1  0
 10 12  2  0
 12 13  1  0
 12 14  1  0
 14 15  1  0
 14 16  1  0
 16 17  1  0
 16 18  2  0
 18 19  1  0
  4 20  1  0
 20 21  1  0
 20 22  2  0
 22 23  1  0
 23 24  2  0
 24 25  1  0
 24 26  1  0
 26 27  1  0
 27 28  2  0
 28 29  1  0
 29 30  2  0
 29 31  1  0
 31 32  1  0
 32 33  1  0
 32 34  1  0
 32 35  1  0
 31 36  1  0
 36 37  1  0
 36 38  1  0
 36 39  1  0
 31 40  1  0
 40 41  1  0
 40 42  1  0
 40 43  1  0
 27 44  1  0
 44 45  1  0
 44 46  2  0
 46 47  1  0
 22 48  1  0
 48 49  1  0
 48  2  2  0
 18  9  1  0
 46 23  1  0
M  CHG  2   3  -1  26  -1
M  END
>  <UniqueID>  (32) 
30

>  <SMILES>  (32) 
CC(C)(C)C(=O)/N=c1\ccc(-c2cc[n-]/c(=N\C(=O)N=c3cc[nH]cc3)c2)c[n-]1

>  <Energy>  (32) 
71.904122169857

>  <Genealogy>  (32) 
CC(C)(C)C(=O)N=c1ccc(-c2cc[n-]c(=NC(=O)N=c3cc[nH]cc3)c2)c[n-]1 (protonated)
CC(C)(C)C(=O)/N=c1\ccc(-c2cc[n-]/c(=N\C(=O)N=c3cc[nH]cc3)c2)c[n-]1 (cis-trans isomerization)
CC(C)(C)C(=O)/N=c1\ccc(-c2cc[n-]/c(=N\C(=O)N=c3cc[nH]cc3)c2)c[n-]1 (3D coordinates assigned)
CC(C)(C)C(=O)/N=c1\ccc(-c2cc[n-]/c(=N\C(=O)N=c3cc[nH]cc3)c2)c[n-]1 (optimized conformer: 71.904122169857 kcal/mol)

>  <smiles>  (32) 
CC(C)(C)C(=O)N=c1ccc(-c2cc[nH]c(=NC(=O)N=c3cc[nH]cc3)c2)c[nH]1

>  <score_type>  (32) 
oracle

>  <origin>  (32) 
adg

>  <m_score__min__energy>  (32) 
-12.01

>  <m_primary>  (32) 
energy

$$$$
32:0
     RDKit          3D

 40 42  0  0  0  0  0  0  0  0999 V2000
   60.6500   34.0580   50.7710 O   0  0  0  0  0  0  0  0  0  0  0  0
   61.2160   33.4820   49.5040 S   0  0  0  0  0  0  0  0  0  0  0  0
   62.5100   34.1690   49.1680 O   0  0  0  0  0  0  0  0  0  0  0  0
   61.4930   31.7810   49.6900 N   0  0  0  0  0  0  0  0  0  0  0  0
   60.6840   30.7420   49.1190 C   0  0  0  0  0  0  0  0  0  0  0  0
   61.2150   29.7900   48.2320 C   0  0  0  0  0  0  0  0  0  0  0  0
   60.3990   28.7910   47.6950 C   0  0  0  0  0  0  0  0  0  0  0  0
   59.0380   28.7260   48.0380 C   0  0  0  0  0  0  0  0  0  0  0  0
   58.1660   27.7150   47.5160 N   0  0  0  0  0  0  0  0  0  0  0  0
   57.6790   27.5730   45.8590 S   0  0  0  0  0  0  0  0  0  0  0  0
   58.8570   27.8640   44.9710 O   0  0  0  0  0  0  0  0  0  0  0  0
   56.5990   28.5760   45.5730 O   0  0  0  0  0  0  0  0  0  0  0  0
   57.0450   25.9540   45.5560 C   0  0  0  0  0  0  0  0  0  0  0  0
   57.9170   24.9100   45.2040 C   0  0  0  0  0  0  0  0  0  0  0  0
   57.4190   23.6220   44.9780 C   0  0  0  0  0  0  0  0  0  0  0  0
   58.6120   22.2080   44.5070 Br  0  0  0  0  0  0  0  0  0  0  0  0
   56.0490   23.3710   45.0990 C   0  0  0  0  0  0  0  0  0  0  0  0
   55.1760   24.4060   45.4440 C   0  0  0  0  0  0  0  0  0  0  0  0
   55.6680   25.6960   45.6720 C   0  0  0  0  0  0  0  0  0  0  0  0
   54.7820   26.7120   46.0130 O   0  0  0  0  0  0  0  0  0  0  0  0
   58.5090   29.6790   48.9160 C   0  0  0  0  0  0  0  0  0  0  0  0
   59.3250   30.6820   49.4580 C   0  0  0  0  0  0  0  0  0  0  0  0
   58.7870   31.6230   50.3360 O   0  0  0  0  0  0  0  0  0  0  0  0
   60.0730   33.7300   48.1960 C   0  0  0  0  0  0  0  0  0  0  0  0
   60.4830   34.3500   47.0100 C   0  0  0  0  0  0  0  0  0  0  0  0
   59.5570   34.5410   45.9830 C   0  0  0  0  0  0  0  0  0  0  0  0
   58.2360   34.1160   46.1500 C   0  0  0  0  0  0  0  0  0  0  0  0
   57.0610   34.3510   44.8700 Cl  0  0  0  0  0  0  0  0  0  0  0  0
   57.8630   33.5010   47.3490 C   0  0  0  0  0  0  0  0  0  0  0  0
   58.7820   33.3240   48.3380 N   0  0  0  0  0  0  0  0  0  0  0  0
   62.2797   29.8316   47.9588 H   0  0  0  0  0  0  0  0  0  0  0  0
   60.8242   28.0517   47.0003 H   0  0  0  0  0  0  0  0  0  0  0  0
   58.9950   25.1059   45.1057 H   0  0  0  0  0  0  0  0  0  0  0  0
   55.6581   22.3581   44.9225 H   0  0  0  0  0  0  0  0  0  0  0  0
   54.0983   24.2061   45.5367 H   0  0  0  0  0  0  0  0  0  0  0  0
   57.4427   29.6407   49.1834 H   0  0  0  0  0  0  0  0  0  0  0  0
   59.1230   32.5780   50.3630 H   0  0  0  0  0  0  0  0  0  0  0  0
   61.5242   34.6833   46.8884 H   0  0  0  0  0  0  0  0  0  0  0  0
   59.8662   35.0248   45.0447 H   0  0  0  0  0  0  0  0  0  0  0  0
   56.8271   33.1602   47.4933 H   0  0  0  0  0  0  0  0  0  0  0  0
  1  2  2  0
  2  3  2  0
  2  4  1  0
  4  5  1  0
  5  6  2  0
  6  7  1  0
  7  8  2  0
  8  9  1  0
  9 10  1  0
 10 11  2  0
 10 12  2  0
 10 13  1  0
 13 14  2  0
 14 15  1  0
 15 16  1  0
 15 17  2  0
 17 18  1  0
 18 19  2  0
 19 20  1  0
  8 21  1  0
 21 22  2  0
 22 23  1  0
  2 24  1  0
 24 25  2  0
 25 26  1  0
 26 27  2  0
 27 28  1  0
 27 29  1  0
 29 30  2  0
 22  5  1  0
 30 24  1  0
 19 13  1  0
  6 31  1  0
  7 32  1  0
 14 33  1  0
 17 34  1  0
 18 35  1  0
 21 36  1  0
 23 37  1  0
 25 38  1  0
 26 39  1  0
 29 40  1  0
M  CHG  3   4  -1   9  -1  20  -1
M  END
>  <UniqueID>  (33) 
31

>  <SMILES>  (33) 
O=S(=O)([N-]c1ccc([N-]S(=O)(=O)c2cc(Br)ccc2[O-])cc1O)c1ccc(Cl)cn1

>  <Energy>  (33) 
50.89573433729731

>  <Genealogy>  (33) 
O=S(=O)([N-]c1ccc([N-]S(=O)(=O)c2cc(Br)ccc2[O-])cc1O)c1ccc(Cl)cn1 (protonated)
O=S(=O)([N-]c1ccc([N-]S(=O)(=O)c2cc(Br)ccc2[O-])cc1O)c1ccc(Cl)cn1 (3D coordinates assigned)
O=S(=O)([N-]c1ccc([N-]S(=O)(=O)c2cc(Br)ccc2[O-])cc1O)c1ccc(Cl)cn1 (optimized conformer: 50.89573433729731 kcal/mol)

>  <smiles>  (33) 
O=S(=O)(Nc1ccc(NS(=O)(=O)c2cc(Br)ccc2O)cc1O)c1ccc(Cl)cn1

>  <score_type>  (33) 
oracle

>  <origin>  (33) 
adg

>  <m_score__min__energy>  (33) 
-15.130000000000001

>  <m_primary>  (33) 
energy

$$$$
33:0
     RDKit          3D

 36 38  0  0  0  0  0  0  0  0999 V2000
   55.1430   27.6250   45.2850 H   0  0  0  0  0  0  0  0  0  0  0  0
   55.5570   28.5480   45.2550 O   0  0  0  0  0  0  0  0  0  0  0  0
   56.8880   28.7700   45.6070 C   0  0  0  0  0  0  0  0  0  0  0  0
   57.7290   27.8850   46.2620 C   0  0  0  0  0  0  0  0  0  0  0  0
   57.3980   26.5570   46.8060 C   0  0  0  0  0  0  0  0  0  0  0  0
   57.5766   26.3695   47.8751 H   0  0  0  0  0  0  0  0  0  0  0  0
   56.8900   25.5670   46.0610 C   0  0  0  0  0  0  0  0  0  0  0  0
   57.6170   24.5430   45.5520 N   0  0  0  0  0  0  0  0  0  0  0  0
   56.7450   23.7910   44.8430 C   0  0  0  0  0  0  0  0  0  0  0  0
   57.0940   22.6830   44.1950 C   0  0  0  0  0  0  0  0  0  0  0  0
   56.3387   22.1126   43.6345 H   0  0  0  0  0  0  0  0  0  0  0  0
   58.1379   22.3371   44.2197 H   0  0  0  0  0  0  0  0  0  0  0  0
   55.4770   24.3340   44.8940 C   0  0  0  0  0  0  0  0  0  0  0  0
   54.3290   23.8410   44.2850 O   0  0  0  0  0  0  0  0  0  0  0  0
   55.5690   25.4640   45.6630 C   0  0  0  0  0  0  0  0  0  0  0  0
   54.5310   26.3350   45.9760 O   0  0  0  0  0  0  0  0  0  0  0  0
   58.9750   28.4010   46.2990 N   0  0  0  0  0  0  0  0  0  0  0  0
   58.8460   29.6020   45.6960 C   0  0  0  0  0  0  0  0  0  0  0  0
   59.8150   30.3930   45.5490 O   0  0  0  0  0  0  0  0  0  0  0  0
   57.5910   29.8700   45.2720 N   0  0  0  0  0  0  0  0  0  0  0  0
   57.1400   31.0410   44.5650 C   0  0  0  0  0  0  0  0  0  0  0  0
   55.9020   31.2400   44.4200 O   0  0  0  0  0  0  0  0  0  0  0  0
   58.1210   32.0580   44.0410 C   0  0  0  0  0  0  0  0  0  0  0  0
   59.0264   31.5356   43.6985 H   0  0  0  0  0  0  0  0  0  0  0  0
   57.6407   32.6012   43.2138 H   0  0  0  0  0  0  0  0  0  0  0  0
   58.5070   33.0610   45.0980 C   0  0  0  0  0  0  0  0  0  0  0  0
   58.1150   32.8730   46.4340 C   0  0  0  0  0  0  0  0  0  0  0  0
   57.5426   31.9771   46.7164 H   0  0  0  0  0  0  0  0  0  0  0  0
   58.4500   33.8210   47.4060 C   0  0  0  0  0  0  0  0  0  0  0  0
   58.1471   33.6659   48.4520 H   0  0  0  0  0  0  0  0  0  0  0  0
   59.1690   34.9650   47.0500 C   0  0  0  0  0  0  0  0  0  0  0  0
   59.4330   35.7088   47.8162 H   0  0  0  0  0  0  0  0  0  0  0  0
   59.5530   35.1650   45.7210 C   0  0  0  0  0  0  0  0  0  0  0  0
   60.1177   36.0668   45.4420 H   0  0  0  0  0  0  0  0  0  0  0  0
   59.2200   34.2200   44.7460 C   0  0  0  0  0  0  0  0  0  0  0  0
   59.5171   34.3841   43.6997 H   0  0  0  0  0  0  0  0  0  0  0  0
  1  2  1  0
  2  3  1  0
  3  4  2  0
  4  5  1  0
  5  6  1  0
  5  7  2  0
  7  8  1  0
  8  9  1  0
  9 10  2  0
 10 11  1  0
 10 12  1  0
  9 13  1  0
 13 14  1  0
 13 15  2  0
 15 16  1  0
  4 17  1  0
 17 18  1  0
 18 19  2  0
 18 20  1  0
 20 21  1  0
 21 22  2  0
 21 23  1  0
 23 24  1  0
 23 25  1  0
 23 26  1  0
 26 27  2  0
 27 28  1  0
 27 29  1  0
 29 30  1  0
 29 31  2  0
 31 32  1  0
 31 33  1  0
 33 34  1  0
 33 35  2  0
 35 36  1  0
 20  3  1  0
 35 26  1  0
 15  7  1  0
M  CHG  4   8  -1  14  -1  16  -1  17  -1
M  END
>  <UniqueID>  (34) 
32

>  <SMILES>  (34) 
C=c1[n-]/c(=C\c2[n-]c(=O)n(C(=O)Cc3ccccc3)c2O)c([O-])c1[O-]

>  <Energy>  (34) 
106.09411372216087

>  <Genealogy>  (34) 
C=c1[n-]c(=Cc2[n-]c(=O)n(C(=O)Cc3ccccc3)c2O)c([O-])c1[O-] (protonated)
C=c1[n-]/c(=C\c2[n-]c(=O)n(C(=O)Cc3ccccc3)c2O)c([O-])c1[O-] (cis-trans isomerization)
C=c1[n-]/c(=C\c2[n-]c(=O)n(C(=O)Cc3ccccc3)c2O)c([O-])c1[O-] (3D coordinates assigned)
C=c1[n-]/c(=C\c2[n-]c(=O)n(C(=O)Cc3ccccc3)c2O)c([O-])c1[O-] (optimized conformer: 106.09411372216087 kcal/mol)

>  <smiles>  (34) 
C=c1[nH]c(=Cc2[nH]c(=O)n(C(=O)Cc3ccccc3)c2O)c(O)c1O

>  <score_type>  (34) 
oracle

>  <origin>  (34) 
adg

>  <m_score__min__energy>  (34) 
-17.079999999999998

>  <m_primary>  (34) 
energy

$$$$
34:0
     RDKit          3D

 55 59  0  0  0  0  0  0  0  0999 V2000
   64.0610   33.1140   47.8910 C   0  0  0  0  0  0  0  0  0  0  0  0
   63.0830   33.7390   47.2350 C   0  0  0  0  0  0  0  0  0  0  0  0
   61.6380   33.5760   47.5350 C   0  0  0  0  0  0  0  0  0  0  0  0
   60.9260   34.4730   48.3580 C   0  0  0  0  0  0  0  0  0  0  0  0
   59.5640   34.2790   48.6010 C   0  0  0  0  0  0  0  0  0  0  0  0
   58.8940   33.1980   48.0270 C   0  0  0  0  0  0  0  0  0  0  0  0
   59.5820   32.2990   47.1990 C   0  0  0  0  0  0  0  0  0  0  0  0
   58.8880   31.1890   46.5920 N   0  0  0  0  0  0  0  0  0  0  0  0
   57.8410   31.4450   45.7300 C   0  0  0  0  0  0  0  0  0  0  0  0
   57.1520   30.4250   45.1410 N   0  0  0  0  0  0  0  0  0  0  0  0
   57.5180   29.1520   45.4170 C   0  0  0  0  0  0  0  0  0  0  0  0
   56.9540   28.0400   44.9230 N   0  0  0  0  0  0  0  0  0  0  0  0
   57.6550   27.0100   45.4660 C   0  0  0  0  0  0  0  0  0  0  0  0
   57.3740   25.5780   45.1920 C   0  0  0  0  0  0  0  0  0  0  0  0
   56.0620   25.0800   45.2530 C   0  0  0  0  0  0  0  0  0  0  0  0
   55.7990   23.7320   44.9960 C   0  0  0  0  0  0  0  0  0  0  0  0
   56.8400   22.8490   44.6620 C   0  0  0  0  0  0  0  0  0  0  0  0
   56.5340   21.4160   44.3990 C   0  0  0  0  0  0  0  0  0  0  0  0
   56.2760   21.0600   43.2140 O   0  0  0  0  0  0  0  0  0  0  0  0
   56.4940   20.4350   45.4670 N   0  0  0  0  0  0  0  0  0  0  0  0
   55.4350   20.7600   46.4440 C   0  0  0  0  0  0  0  0  0  0  0  0
   55.4030   19.7110   47.5800 C   0  0  0  0  0  0  0  0  0  0  0  0
   56.5220   18.8430   47.5510 O   0  0  0  0  0  0  0  0  0  0  0  0
   57.7140   19.5980   47.4790 C   0  0  0  0  0  0  0  0  0  0  0  0
   57.8090   20.3560   46.1380 C   0  0  0  0  0  0  0  0  0  0  0  0
   58.1550   23.3450   44.6100 C   0  0  0  0  0  0  0  0  0  0  0  0
   58.4170   24.6940   44.8700 C   0  0  0  0  0  0  0  0  0  0  0  0
   58.6650   27.4930   46.3060 C   0  0  0  0  0  0  0  0  0  0  0  0
   58.5460   28.8640   46.2530 C   0  0  0  0  0  0  0  0  0  0  0  0
   59.2590   29.8900   46.8600 C   0  0  0  0  0  0  0  0  0  0  0  0
   60.2310   29.6280   47.6210 O   0  0  0  0  0  0  0  0  0  0  0  0
   60.9490   32.4990   46.9510 C   0  0  0  0  0  0  0  0  0  0  0  0
   65.1102   33.2870   47.6094 H   0  0  0  0  0  0  0  0  0  0  0  0
   63.8187   32.4254   48.7139 H   0  0  0  0  0  0  0  0  0  0  0  0
   63.3650   34.4198   46.4183 H   0  0  0  0  0  0  0  0  0  0  0  0
   61.4459   35.3300   48.8110 H   0  0  0  0  0  0  0  0  0  0  0  0
   59.0175   34.9814   49.2475 H   0  0  0  0  0  0  0  0  0  0  0  0
   57.8220   33.0503   48.2247 H   0  0  0  0  0  0  0  0  0  0  0  0
   57.5579   32.4859   45.5147 H   0  0  0  0  0  0  0  0  0  0  0  0
   56.1620   27.9960   44.2460 H   0  0  0  0  0  0  0  0  0  0  0  0
   55.2334   25.7580   45.5056 H   0  0  0  0  0  0  0  0  0  0  0  0
   54.7663   23.3580   45.0557 H   0  0  0  0  0  0  0  0  0  0  0  0
   56.2560   19.4970   45.0660 H   0  0  0  0  0  0  0  0  0  0  0  0
   55.6322   21.7530   46.8742 H   0  0  0  0  0  0  0  0  0  0  0  0
   54.4631   20.7551   45.9288 H   0  0  0  0  0  0  0  0  0  0  0  0
   55.3904   20.2376   48.5457 H   0  0  0  0  0  0  0  0  0  0  0  0
   54.5010   19.0968   47.4413 H   0  0  0  0  0  0  0  0  0  0  0  0
   57.7299   20.3246   48.3047 H   0  0  0  0  0  0  0  0  0  0  0  0
   58.5692   18.9103   47.5540 H   0  0  0  0  0  0  0  0  0  0  0  0
   58.1750   21.3756   46.3287 H   0  0  0  0  0  0  0  0  0  0  0  0
   58.5003   19.8090   45.4801 H   0  0  0  0  0  0  0  0  0  0  0  0
   58.9845   22.6662   44.3627 H   0  0  0  0  0  0  0  0  0  0  0  0
   59.4508   25.0667   44.8218 H   0  0  0  0  0  0  0  0  0  0  0  0
   59.3947   26.9056   46.8827 H   0  0  0  0  0  0  0  0  0  0  0  0
   61.4882   31.8037   46.2909 H   0  0  0  0  0  0  0  0  0  0  0  0
  1  2  2  0
  2  3  1  0
  3  4  2  0
  4  5  1  0
  5  6  2  0
  6  7  1  0
  7  8  1  0
  8  9  1  0
  9 10  2  0
 10 11  1  0
 11 12  1  0
 12 13  1  0
 13 14  1  0
 14 15  2  0
 15 16  1  0
 16 17  2  0
 17 18  1  0
 18 19  2  0
 18 20  1  0
 20 21  1  0
 21 22  1  0
 22 23  1  0
 23 24  1  0
 24 25  1  0
 17 26  1  0
 26 27  2  0
 13 28  2  0
 28 29  1  0
 29 30  1  0
 30 31  2  0
  7 32  2  0
 32  3  1  0
 30  8  1  0
 29 11  2  0
 27 14  1  0
 25 20  1  0
  1 33  1  0
  1 34  1  0
  2 35  1  0
  4 36  1  0
  5 37  1  0
  6 38  1  0
  9 39  1  0
 12 40  1  0
 15 41  1  0
 16 42  1  0
 20 43  1  0
 21 44  1  0
 21 45  1  0
 22 46  1  0
 22 47  1  0
 24 48  1  0
 24 49  1  0
 25 50  1  0
 25 51  1  0
 26 52  1  0
 27 53  1  0
 28 54  1  0
 32 55  1  0
M  CHG  1  20   1
M  END
>  <UniqueID>  (35) 
33

>  <SMILES>  (35) 
C=Cc1cccc(-n2cnc3[nH]c(-c4ccc(C(=O)[NH+]5CCOCC5)cc4)cc3c2=O)c1

>  <Energy>  (35) 
122.61429565328721

>  <Genealogy>  (35) 
C=Cc1cccc(-n2cnc3[nH]c(-c4ccc(C(=O)[NH+]5CCOCC5)cc4)cc3c2=O)c1 (protonated)
C=Cc1cccc(-n2cnc3[nH]c(-c4ccc(C(=O)[NH+]5CCOCC5)cc4)cc3c2=O)c1 (3D coordinates assigned)
C=Cc1cccc(-n2cnc3[nH]c(-c4ccc(C(=O)[NH+]5CCOCC5)cc4)cc3c2=O)c1 (nonaromatic ring conformer: 122.61429565328721 kcal/mol)

>  <smiles>  (35) 
C=Cc1cccc(-n2cnc3[nH]c(-c4ccc(C(=O)N5CCOCC5)cc4)cc3c2=O)c1

>  <score_type>  (35) 
oracle

>  <origin>  (35) 
adg

>  <m_score__min__energy>  (35) 
-7.8099999999999996

>  <m_primary>  (35) 
energy

$$$$
35:0
     RDKit          3D

 50 53  0  0  0  0  0  0  0  0999 V2000
   52.4186   24.9786   44.7287 H   0  0  0  0  0  0  0  0  0  0  0  0
   53.2040   24.4210   45.2600 C   0  0  0  0  0  0  0  0  0  0  0  0
   54.2650   25.0370   45.8480 N   0  0  0  0  0  0  0  0  0  0  0  0
   55.0890   24.1530   46.4480 C   0  0  0  0  0  0  0  0  0  0  0  0
   56.1870   24.5250   47.0370 N   0  0  0  0  0  0  0  0  0  0  0  0
   56.9740   25.6830   46.7230 C   0  0  0  0  0  0  0  0  0  0  0  0
   58.1940   25.6890   47.0380 O   0  0  0  0  0  0  0  0  0  0  0  0
   56.4230   26.7740   45.9720 N   0  0  0  0  0  0  0  0  0  0  0  0
   55.6520   26.5600   45.3000 H   0  0  0  0  0  0  0  0  0  0  0  0
   57.0170   28.0810   45.9270 C   0  0  0  0  0  0  0  0  0  0  0  0
   58.2690   28.2830   46.5260 C   0  0  0  0  0  0  0  0  0  0  0  0
   58.7671   27.4447   47.0351 H   0  0  0  0  0  0  0  0  0  0  0  0
   58.8980   29.5410   46.4860 C   0  0  0  0  0  0  0  0  0  0  0  0
   60.2080   29.7190   47.0700 N   0  0  0  0  0  0  0  0  0  0  0  0
   61.1680   30.6480   46.4640 C   0  0  0  0  0  0  0  0  0  0  0  0
   61.7374   30.1170   45.6870 H   0  0  0  0  0  0  0  0  0  0  0  0
   60.6075   31.4903   46.0322 H   0  0  0  0  0  0  0  0  0  0  0  0
   62.1520   31.2080   47.5120 C   0  0  0  0  0  0  0  0  0  0  0  0
   63.0100   30.5239   47.5891 H   0  0  0  0  0  0  0  0  0  0  0  0
   62.4575   32.2101   47.1767 H   0  0  0  0  0  0  0  0  0  0  0  0
   61.5410   31.3540   48.8540 N   0  0  0  0  0  0  0  0  0  0  0  0
   60.9080   32.6630   49.1360 C   0  0  0  0  0  0  0  0  0  0  0  0
   60.2346   32.5445   49.9977 H   0  0  0  0  0  0  0  0  0  0  0  0
   61.7211   33.3770   49.3334 H   0  0  0  0  0  0  0  0  0  0  0  0
   60.1070   33.2150   47.9760 C   0  0  0  0  0  0  0  0  0  0  0  0
   60.7410   33.9040   46.9280 C   0  0  0  0  0  0  0  0  0  0  0  0
   61.8344   34.0241   46.9349 H   0  0  0  0  0  0  0  0  0  0  0  0
   59.9890   34.4380   45.8760 C   0  0  0  0  0  0  0  0  0  0  0  0
   60.4909   34.9861   45.0650 H   0  0  0  0  0  0  0  0  0  0  0  0
   58.6010   34.2760   45.8540 C   0  0  0  0  0  0  0  0  0  0  0  0
   58.0091   34.7094   45.0344 H   0  0  0  0  0  0  0  0  0  0  0  0
   57.9660   33.5630   46.8740 C   0  0  0  0  0  0  0  0  0  0  0  0
   56.6210   33.3970   46.8460 F   0  0  0  0  0  0  0  0  0  0  0  0
   58.7150   33.0260   47.9260 C   0  0  0  0  0  0  0  0  0  0  0  0
   58.2120   32.4526   48.7186 H   0  0  0  0  0  0  0  0  0  0  0  0
   60.8230   30.1700   49.3880 C   0  0  0  0  0  0  0  0  0  0  0  0
   61.4183   29.7394   50.2066 H   0  0  0  0  0  0  0  0  0  0  0  0
   59.8361   30.5126   49.7325 H   0  0  0  0  0  0  0  0  0  0  0  0
   60.5870   29.0840   48.3330 C   0  0  0  0  0  0  0  0  0  0  0  0
   61.5094   28.5019   48.1906 H   0  0  0  0  0  0  0  0  0  0  0  0
   59.7828   28.4116   48.6662 H   0  0  0  0  0  0  0  0  0  0  0  0
   58.2540   30.5980   45.8190 C   0  0  0  0  0  0  0  0  0  0  0  0
   58.7278   31.5901   45.7841 H   0  0  0  0  0  0  0  0  0  0  0  0
   57.0190   30.3990   45.2010 C   0  0  0  0  0  0  0  0  0  0  0  0
   56.5268   31.2344   44.6814 H   0  0  0  0  0  0  0  0  0  0  0  0
   56.4040   29.1460   45.2380 C   0  0  0  0  0  0  0  0  0  0  0  0
   55.2030   28.9610   44.5610 O   0  0  0  0  0  0  0  0  0  0  0  0
   54.5430   22.5680   46.2510 S   0  0  0  0  0  0  0  0  0  0  0  0
   53.1840   23.0360   45.3790 C   0  0  0  0  0  0  0  0  0  0  0  0
   52.4135   22.3638   44.9734 H   0  0  0  0  0  0  0  0  0  0  0  0
  1  2  1  0
  2  3  1  0
  3  4  1  0
  4  5  2  0
  5  6  1  0
  6  7  2  0
  6  8  1  0
  8  9  1  0
  8 10  1  0
 10 11  2  0
 11 12  1  0
 11 13  1  0
 13 14  1  0
 14 15  1  0
 15 16  1  0
 15 17  1  0
 15 18  1  0
 18 19  1  0
 18 20  1  0
 18 21  1  0
 21 22  1  0
 22 23  1  0
 22 24  1  0
 22 25  1  0
 25 26  2  0
 26 27  1  0
 26 28  1  0
 28 29  1  0
 28 30  2  0
 30 31  1  0
 30 32  1  0
 32 33  1  0
 32 34  2  0
 34 35  1  0
 21 36  1  0
 36 37  1  0
 36 38  1  0
 36 39  1  0
 39 40  1  0
 39 41  1  0
 13 42  2  0
 42 43  1  0
 42 44  1  0
 44 45  1  0
 44 46  2  0
 46 47  1  0
  4 48  1  0
 48 49  1  0
 49 50  1  0
 49  2  2  0
 46 10  1  0
 39 14  1  0
 34 25  1  0
M  CHG  2   3  -1  47  -1
M  END
>  <UniqueID>  (36) 
34

>  <SMILES>  (36) 
O=C(/N=c1/[n-]ccs1)Nc1cc(N2CCN(Cc3cccc(F)c3)CC2)ccc1[O-]

>  <Energy>  (36) 
107.01340545966436

>  <Genealogy>  (36) 
O=C(N=c1[n-]ccs1)Nc1cc(N2CCN(Cc3cccc(F)c3)CC2)ccc1[O-] (protonated)
O=C(/N=c1/[n-]ccs1)Nc1cc(N2CCN(Cc3cccc(F)c3)CC2)ccc1[O-] (cis-trans isomerization)
O=C(/N=c1/[n-]ccs1)Nc1cc(N2CCN(Cc3cccc(F)c3)CC2)ccc1[O-] (3D coordinates assigned)
O=C(/N=c1/[n-]ccs1)Nc1cc(N2CCN(Cc3cccc(F)c3)CC2)ccc1[O-] (nonaromatic ring conformer: 107.01340545966436 kcal/mol)

>  <smiles>  (36) 
O=C(N=c1[nH]ccs1)Nc1cc(N2CCN(Cc3cccc(F)c3)CC2)ccc1O

>  <score_type>  (36) 
oracle

>  <origin>  (36) 
adg

>  <m_score__min__energy>  (36) 
-12.460000000000001

>  <m_primary>  (36) 
energy

$$$$
36:0
     RDKit          3D

 48 50  0  0  0  0  0  0  0  0999 V2000
   55.3656   23.2438   45.1770 H   0  0  0  0  0  0  0  0  0  0  0  0
   55.9140   24.1960   45.2270 C   0  0  0  0  0  0  0  0  0  0  0  0
   55.5000   25.1730   46.0740 N   0  0  0  0  0  0  0  0  0  0  0  0
   56.1600   26.3590   46.1760 C   0  0  0  0  0  0  0  0  0  0  0  0
   55.7982   27.1290   46.8733 H   0  0  0  0  0  0  0  0  0  0  0  0
   57.3020   26.6040   45.3940 C   0  0  0  0  0  0  0  0  0  0  0  0
   58.0070   27.8570   45.4760 N   0  0  0  0  0  0  0  0  0  0  0  0
   59.2480   28.1990   46.5330 S   0  0  0  0  0  0  0  0  0  0  0  0
   59.4920   29.7730   46.0290 C   0  0  0  0  0  0  0  0  0  0  0  0
   60.3800   30.6150   46.4780 N   0  0  0  0  0  0  0  0  0  0  0  0
   60.1580   31.6430   47.4540 C   0  0  0  0  0  0  0  0  0  0  0  0
   58.9750   31.6800   48.2150 C   0  0  0  0  0  0  0  0  0  0  0  0
   58.2226   30.8866   48.0953 H   0  0  0  0  0  0  0  0  0  0  0  0
   58.7510   32.7180   49.1210 C   0  0  0  0  0  0  0  0  0  0  0  0
   57.8314   32.7327   49.7244 H   0  0  0  0  0  0  0  0  0  0  0  0
   59.6940   33.7370   49.2610 C   0  0  0  0  0  0  0  0  0  0  0  0
   59.5207   34.5491   49.9825 H   0  0  0  0  0  0  0  0  0  0  0  0
   60.8570   33.7290   48.4880 C   0  0  0  0  0  0  0  0  0  0  0  0
   61.5919   34.5402   48.5969 H   0  0  0  0  0  0  0  0  0  0  0  0
   61.0940   32.6870   47.5690 C   0  0  0  0  0  0  0  0  0  0  0  0
   62.2460   32.6390   46.7630 O   0  0  0  0  0  0  0  0  0  0  0  0
   63.4210   33.4300   46.9410 C   0  0  0  0  0  0  0  0  0  0  0  0
   64.1170   33.2338   46.1121 H   0  0  0  0  0  0  0  0  0  0  0  0
   63.1330   34.4915   46.9554 H   0  0  0  0  0  0  0  0  0  0  0  0
   64.1060   33.0910   48.2600 C   0  0  0  0  0  0  0  0  0  0  0  0
   63.4665   33.4075   49.0972 H   0  0  0  0  0  0  0  0  0  0  0  0
   64.2745   32.0055   48.3173 H   0  0  0  0  0  0  0  0  0  0  0  0
   65.0712   33.6154   48.3173 H   0  0  0  0  0  0  0  0  0  0  0  0
   58.6310   30.0560   45.0180 N   0  0  0  0  0  0  0  0  0  0  0  0
   58.5320   31.3700   44.3710 C   0  0  0  0  0  0  0  0  0  0  0  0
   58.4398   31.2354   43.2832 H   0  0  0  0  0  0  0  0  0  0  0  0
   59.4357   31.9551   44.5967 H   0  0  0  0  0  0  0  0  0  0  0  0
   57.3330   32.0970   44.8840 C   0  0  0  0  0  0  0  0  0  0  0  0
   56.2010   31.5400   44.8490 O   0  0  0  0  0  0  0  0  0  0  0  0
   57.4930   33.3660   45.4490 O   0  0  0  0  0  0  0  0  0  0  0  0
   58.2940   34.3880   44.8640 C   0  0  0  0  0  0  0  0  0  0  0  0
   57.6424   35.1975   44.5034 H   0  0  0  0  0  0  0  0  0  0  0  0
   58.8632   33.9597   44.0259 H   0  0  0  0  0  0  0  0  0  0  0  0
   59.2710   34.9490   45.8900 C   0  0  0  0  0  0  0  0  0  0  0  0
   58.9005   34.7363   46.9037 H   0  0  0  0  0  0  0  0  0  0  0  0
   60.2561   34.4790   45.7535 H   0  0  0  0  0  0  0  0  0  0  0  0
   59.3616   36.0367   45.7535 H   0  0  0  0  0  0  0  0  0  0  0  0
   57.8030   28.9930   44.7440 C   0  0  0  0  0  0  0  0  0  0  0  0
   56.8820   29.0750   43.8860 O   0  0  0  0  0  0  0  0  0  0  0  0
   57.7250   25.6080   44.5010 C   0  0  0  0  0  0  0  0  0  0  0  0
   58.6040   25.7812   43.8627 H   0  0  0  0  0  0  0  0  0  0  0  0
   57.0340   24.3980   44.4200 C   0  0  0  0  0  0  0  0  0  0  0  0
   57.3689   23.6120   43.7272 H   0  0  0  0  0  0  0  0  0  0  0  0
  1  2  1  0
  2  3  2  0
  3  4  1  0
  4  5  1  0
  4  6  2  0
  6  7  1  0
  7  8  1  0
  8  9  1  0
  9 10  2  0
 10 11  1  0
 11 12  2  0
 12 13  1  0
 12 14  1  0
 14 15  1  0
 14 16  2  0
 16 17  1  0
 16 18  1  0
 18 19  1  0
 18 20  2  0
 20 21  1  0
 21 22  1  0
 22 23  1  0
 22 24  1  0
 22 25  1  0
 25 26  1  0
 25 27  1  0
 25 28  1  0
  9 29  1  0
 29 30  1  0
 30 31  1  0
 30 32  1  0
 30 33  1  0
 33 34  2  0
 33 35  1  0
 35 36  1  0
 36 37  1  0
 36 38  1  0
 36 39  1  0
 39 40  1  0
 39 41  1  0
 39 42  1  0
 29 43  1  0
 43 44  2  0
  6 45  1  0
 45 46  1  0
 45 47  2  0
 47 48  1  0
 47  2  1  0
 43  7  1  0
 20 11  1  0
M  END
>  <UniqueID>  (37) 
35

>  <SMILES>  (37) 
CCOC(=O)Cn1c(=O)n(-c2cccnc2)s/c1=N\c1ccccc1OCC

>  <Energy>  (37) 
94.59470422242919

>  <Genealogy>  (37) 
CCOC(=O)Cn1c(=O)n(-c2cccnc2)s/c1=N\c1ccccc1OCC (cis-trans isomerization)
CCOC(=O)Cn1c(=O)n(-c2cccnc2)s/c1=N\c1ccccc1OCC (3D coordinates assigned)
CCOC(=O)Cn1c(=O)n(-c2cccnc2)s/c1=N\c1ccccc1OCC (optimized conformer: 94.59470422242919 kcal/mol)

>  <smiles>  (37) 
CCOC(=O)Cn1c(=Nc2ccccc2OCC)sn(-c2cccnc2)c1=O

>  <score_type>  (37) 
oracle

>  <origin>  (37) 
adg

>  <m_score__min__energy>  (37) 
-7.4299999999999997

>  <m_primary>  (37) 
energy

$$$$
37:0
     RDKit          3D

 79 83  0  0  0  0  0  0  0  0999 V2000
   56.2711   30.1022   41.2757 H   0  0  0  0  0  0  0  0  0  0  0  0
   56.6310   30.4670   42.2490 C   0  0  0  0  0  0  0  0  0  0  0  0
   56.4480   29.7140   43.3690 N   0  0  0  0  0  0  0  0  0  0  0  0
   56.8870   30.1220   44.5920 C   0  0  0  0  0  0  0  0  0  0  0  0
   56.6570   29.4110   45.6590 N   0  0  0  0  0  0  0  0  0  0  0  0
   57.3070   28.1790   45.9950 C   0  0  0  0  0  0  0  0  0  0  0  0
   57.2400   27.1880   45.2190 O   0  0  0  0  0  0  0  0  0  0  0  0
   58.1210   28.0930   47.1680 N   0  0  0  0  0  0  0  0  0  0  0  0
   59.3290   28.8350   47.3860 C   0  0  0  0  0  0  0  0  0  0  0  0
   59.8040   28.9820   48.6950 C   0  0  0  0  0  0  0  0  0  0  0  0
   59.3165   28.4393   49.5183 H   0  0  0  0  0  0  0  0  0  0  0  0
   60.8960   29.8160   48.9610 C   0  0  0  0  0  0  0  0  0  0  0  0
   61.2627   29.9242   49.9924 H   0  0  0  0  0  0  0  0  0  0  0  0
   61.5260   30.5150   47.9200 C   0  0  0  0  0  0  0  0  0  0  0  0
   62.5870   31.4460   48.2000 N   0  0  0  0  0  0  0  0  0  0  0  0
   63.2700   31.3610   49.4990 C   0  0  0  0  0  0  0  0  0  0  0  0
   62.5269   31.4596   50.3040 H   0  0  0  0  0  0  0  0  0  0  0  0
   63.7806   30.3889   49.5654 H   0  0  0  0  0  0  0  0  0  0  0  0
   64.3130   32.4730   49.6400 C   0  0  0  0  0  0  0  0  0  0  0  0
   64.5345   32.6227   50.7070 H   0  0  0  0  0  0  0  0  0  0  0  0
   65.2177   32.1705   49.0922 H   0  0  0  0  0  0  0  0  0  0  0  0
   63.8260   33.7450   49.0670 N   0  0  0  0  0  0  0  0  0  0  0  0
   62.6550   34.2610   49.8070 C   0  0  0  0  0  0  0  0  0  0  0  0
   62.8396   34.1796   50.8883 H   0  0  0  0  0  0  0  0  0  0  0  0
   62.4892   35.3156   49.5417 H   0  0  0  0  0  0  0  0  0  0  0  0
   61.7648   33.6718   49.5417 H   0  0  0  0  0  0  0  0  0  0  0  0
   63.5600   33.6460   47.6080 C   0  0  0  0  0  0  0  0  0  0  0  0
   62.7247   34.3189   47.3642 H   0  0  0  0  0  0  0  0  0  0  0  0
   64.4954   33.9217   47.0990 H   0  0  0  0  0  0  0  0  0  0  0  0
   63.1950   32.2270   47.1210 C   0  0  0  0  0  0  0  0  0  0  0  0
   62.4825   32.3045   46.2866 H   0  0  0  0  0  0  0  0  0  0  0  0
   64.1146   31.7196   46.7942 H   0  0  0  0  0  0  0  0  0  0  0  0
   61.0690   30.3420   46.6050 C   0  0  0  0  0  0  0  0  0  0  0  0
   61.5736   30.8631   45.7781 H   0  0  0  0  0  0  0  0  0  0  0  0
   59.9770   29.5120   46.3390 C   0  0  0  0  0  0  0  0  0  0  0  0
   59.6228   29.3879   45.3050 H   0  0  0  0  0  0  0  0  0  0  0  0
   57.5790   31.3380   44.7120 C   0  0  0  0  0  0  0  0  0  0  0  0
   58.1020   31.6910   45.9610 O   0  0  0  0  0  0  0  0  0  0  0  0
   58.9930   32.7750   46.1990 C   0  0  0  0  0  0  0  0  0  0  0  0
   58.6410   33.6709   45.6667 H   0  0  0  0  0  0  0  0  0  0  0  0
   60.0015   32.5264   45.8368 H   0  0  0  0  0  0  0  0  0  0  0  0
   59.0210   33.0390   47.6770 C   0  0  0  0  0  0  0  0  0  0  0  0
   59.5390   34.2470   48.1750 C   0  0  0  0  0  0  0  0  0  0  0  0
   59.8461   35.0405   47.4778 H   0  0  0  0  0  0  0  0  0  0  0  0
   59.6650   34.4430   49.5500 C   0  0  0  0  0  0  0  0  0  0  0  0
   60.0431   35.4013   49.9356 H   0  0  0  0  0  0  0  0  0  0  0  0
   59.3120   33.4250   50.4380 C   0  0  0  0  0  0  0  0  0  0  0  0
   59.4105   33.5867   51.5216 H   0  0  0  0  0  0  0  0  0  0  0  0
   58.8320   32.1960   49.9570 C   0  0  0  0  0  0  0  0  0  0  0  0
   58.4910   31.1140   50.9070 C   0  0  0  0  0  0  0  0  0  0  0  0
   57.3690   30.5400   50.8000 O   0  0  0  0  0  0  0  0  0  0  0  0
   59.4120   30.6870   51.9290 N   0  0  0  0  0  0  0  0  0  0  0  0
   59.3870   29.2880   52.3750 C   0  0  0  0  0  0  0  0  0  0  0  0
   59.5020   28.6293   51.5016 H   0  0  0  0  0  0  0  0  0  0  0  0
   58.4272   29.0958   52.8769 H   0  0  0  0  0  0  0  0  0  0  0  0
   60.5250   29.0100   53.3680 C   0  0  0  0  0  0  0  0  0  0  0  0
   60.7046   27.9256   53.4104 H   0  0  0  0  0  0  0  0  0  0  0  0
   60.2243   29.3977   54.3525 H   0  0  0  0  0  0  0  0  0  0  0  0
   61.7800   29.6900   52.9660 N   0  0  0  0  0  0  0  0  0  0  0  0
   62.4790   29.4630   53.7130 H   0  0  0  0  0  0  0  0  0  0  0  0
   62.3120   29.1430   51.6890 C   0  0  0  0  0  0  0  0  0  0  0  0
   62.0290   29.8192   50.8688 H   0  0  0  0  0  0  0  0  0  0  0  0
   61.8835   28.1399   51.5467 H   0  0  0  0  0  0  0  0  0  0  0  0
   63.8400   29.0040   51.7100 C   0  0  0  0  0  0  0  0  0  0  0  0
   64.1910   28.9721   52.7520 H   0  0  0  0  0  0  0  0  0  0  0  0
   64.1308   28.0757   51.1965 H   0  0  0  0  0  0  0  0  0  0  0  0
   64.2936   29.8646   51.1965 H   0  0  0  0  0  0  0  0  0  0  0  0
   61.6260   31.1750   52.9330 C   0  0  0  0  0  0  0  0  0  0  0  0
   62.2481   31.5671   52.1149 H   0  0  0  0  0  0  0  0  0  0  0  0
   61.9348   31.5443   53.9221 H   0  0  0  0  0  0  0  0  0  0  0  0
   60.1780   31.6620   52.7140 C   0  0  0  0  0  0  0  0  0  0  0  0
   60.1979   32.6215   52.1765 H   0  0  0  0  0  0  0  0  0  0  0  0
   59.6947   31.7818   53.6949 H   0  0  0  0  0  0  0  0  0  0  0  0
   58.6630   32.0210   48.5730 C   0  0  0  0  0  0  0  0  0  0  0  0
   58.2466   31.0780   48.1892 H   0  0  0  0  0  0  0  0  0  0  0  0
   57.7590   32.1350   43.5690 C   0  0  0  0  0  0  0  0  0  0  0  0
   58.2812   33.1000   43.6469 H   0  0  0  0  0  0  0  0  0  0  0  0
   57.2750   31.7010   42.3370 C   0  0  0  0  0  0  0  0  0  0  0  0
   57.3997   32.3265   41.4408 H   0  0  0  0  0  0  0  0  0  0  0  0
  1  2  1  0
  2  3  1  0
  3  4  1  0
  4  5  2  0
  5  6  1  0
  6  7  2  0
  6  8  1  0
  8  9  1  0
  9 10  2  0
 10 11  1  0
 10 12  1  0
 12 13  1  0
 12 14  2  0
 14 15  1  0
 15 16  1  0
 16 17  1  0
 16 18  1  0
 16 19  1  0
 19 20  1  0
 19 21  1  0
 19 22  1  0
 22 23  1  0
 23 24  1  0
 23 25  1  0
 23 26  1  0
 22 27  1  0
 27 28  1  0
 27 29  1  0
 27 30  1  0
 30 31  1  0
 30 32  1  0
 14 33  1  0
 33 34  1  0
 33 35  2  0
 35 36  1  0
  4 37  1  0
 37 38  1  0
 38 39  1  0
 39 40  1  0
 39 41  1  0
 39 42  1  0
 42 43  2  0
 43 44  1  0
 43 45  1  0
 45 46  1  0
 45 47  2  0
 47 48  1  0
 47 49  1  0
 49 50  1  0
 50 51  2  0
 50 52  1  0
 52 53  1  0
 53 54  1  0
 53 55  1  0
 53 56  1  0
 56 57  1  0
 56 58  1  0
 56 59  1  0
 59 60  1  0
 59 61  1  0
 61 62  1  0
 61 63  1  0
 61 64  1  0
 64 65  1  0
 64 66  1  0
 64 67  1  0
 59 68  1  0
 68 69  1  0
 68 70  1  0
 68 71  1  0
 71 72  1  0
 71 73  1  0
 49 74  2  0
 74 75  1  0
 37 76  2  0
 76 77  1  0
 76 78  1  0
 78 79  1  0
 78  2  2  0
 35  9  1  0
 74 42  1  0
 30 15  1  0
 71 52  1  0
M  CHG  3   3  -1   8  -1  59   1
M  END
>  <UniqueID>  (38) 
36

>  <SMILES>  (38) 
CC[NH+]1CCN(C(=O)c2cccc(COc3ccc[n-]/c3=N\C(=O)[N-]c3ccc(N4CCN(C)CC4)cc3)c2)CC1

>  <Energy>  (38) 
110.32476747000902

>  <Genealogy>  (38) 
CC[NH+]1CCN(C(=O)c2cccc(COc3ccc[n-]c3=NC(=O)[N-]c3ccc(N4CCN(C)CC4)cc3)c2)CC1 (protonated)
CC[NH+]1CCN(C(=O)c2cccc(COc3ccc[n-]/c3=N\C(=O)[N-]c3ccc(N4CCN(C)CC4)cc3)c2)CC1 (cis-trans isomerization)
CC[NH+]1CCN(C(=O)c2cccc(COc3ccc[n-]/c3=N\C(=O)[N-]c3ccc(N4CCN(C)CC4)cc3)c2)CC1 (3D coordinates assigned)
CC[NH+]1CCN(C(=O)c2cccc(COc3ccc[n-]/c3=N\C(=O)[N-]c3ccc(N4CCN(C)CC4)cc3)c2)CC1 (nonaromatic ring conformer: 110.32476747000902 kcal/mol)

>  <smiles>  (38) 
CCN1CCN(C(=O)c2cccc(COc3ccc[nH]c3=NC(=O)Nc3ccc(N4CCN(C)CC4)cc3)c2)CC1

>  <score_type>  (38) 
oracle

>  <origin>  (38) 
adg

>  <m_score__min__energy>  (38) 
-10.390000000000001

>  <m_primary>  (38) 
energy

$$$$
38:0
     RDKit          3D

 57 60  0  0  0  0  0  0  0  0999 V2000
   58.7619   30.6310   48.5412 H   0  0  0  0  0  0  0  0  0  0  0  0
   58.5480   29.6270   48.1460 C   0  0  0  0  0  0  0  0  0  0  0  0
   58.6921   28.7426   48.7840 H   0  0  0  0  0  0  0  0  0  0  0  0
   58.1110   29.4810   46.8850 C   0  0  0  0  0  0  0  0  0  0  0  0
   57.8020   28.2710   46.2570 C   0  0  0  0  0  0  0  0  0  0  0  0
   57.8070   27.0400   46.8050 C   0  0  0  0  0  0  0  0  0  0  0  0
   58.3763   26.8907   47.7343 H   0  0  0  0  0  0  0  0  0  0  0  0
   57.0960   25.8810   46.2350 C   0  0  0  0  0  0  0  0  0  0  0  0
   57.7250   24.7970   45.7500 N   0  0  0  0  0  0  0  0  0  0  0  0
   56.7170   24.0420   45.2620 C   0  0  0  0  0  0  0  0  0  0  0  0
   56.9080   22.9180   44.7270 O   0  0  0  0  0  0  0  0  0  0  0  0
   55.4880   24.5890   45.3820 N   0  0  0  0  0  0  0  0  0  0  0  0
   55.7460   25.7590   45.9890 C   0  0  0  0  0  0  0  0  0  0  0  0
   54.7720   26.7100   46.2650 O   0  0  0  0  0  0  0  0  0  0  0  0
   57.4390   28.5900   44.9560 C   0  0  0  0  0  0  0  0  0  0  0  0
   57.1293   27.8861   44.1695 H   0  0  0  0  0  0  0  0  0  0  0  0
   57.5420   29.9630   44.8400 C   0  0  0  0  0  0  0  0  0  0  0  0
   57.2790   30.7220   43.5750 C   0  0  0  0  0  0  0  0  0  0  0  0
   56.9280   31.7350   43.8214 H   0  0  0  0  0  0  0  0  0  0  0  0
   58.2066   30.7882   42.9875 H   0  0  0  0  0  0  0  0  0  0  0  0
   56.5093   30.2000   42.9875 H   0  0  0  0  0  0  0  0  0  0  0  0
   57.9380   30.5110   46.0150 N   0  0  0  0  0  0  0  0  0  0  0  0
   58.1510   31.9450   46.2750 C   0  0  0  0  0  0  0  0  0  0  0  0
   58.0131   32.5028   45.3370 H   0  0  0  0  0  0  0  0  0  0  0  0
   57.4242   32.2700   47.0341 H   0  0  0  0  0  0  0  0  0  0  0  0
   59.5420   32.2110   46.8050 C   0  0  0  0  0  0  0  0  0  0  0  0
   60.5380   31.2300   46.6750 C   0  0  0  0  0  0  0  0  0  0  0  0
   60.2977   30.2685   46.1977 H   0  0  0  0  0  0  0  0  0  0  0  0
   61.8320   31.4650   47.1470 C   0  0  0  0  0  0  0  0  0  0  0  0
   62.6030   30.6881   47.0378 H   0  0  0  0  0  0  0  0  0  0  0  0
   62.1540   32.6850   47.7590 C   0  0  0  0  0  0  0  0  0  0  0  0
   63.5290   32.9330   48.2440 C   0  0  0  0  0  0  0  0  0  0  0  0
   64.3840   33.4140   47.4500 O   0  0  0  0  0  0  0  0  0  0  0  0
   63.9150   32.6230   49.5960 N   0  0  0  0  0  0  0  0  0  0  0  0
   63.5530   31.3180   50.1720 C   0  0  0  0  0  0  0  0  0  0  0  0
   62.4730   31.3088   50.3806 H   0  0  0  0  0  0  0  0  0  0  0  0
   63.8237   30.5381   49.4450 H   0  0  0  0  0  0  0  0  0  0  0  0
   64.3130   31.0360   51.4770 C   0  0  0  0  0  0  0  0  0  0  0  0
   63.8602   31.6199   52.2919 H   0  0  0  0  0  0  0  0  0  0  0  0
   64.2499   29.9601   51.6973 H   0  0  0  0  0  0  0  0  0  0  0  0
   65.7330   31.4100   51.3450 N   0  0  0  0  0  0  0  0  0  0  0  0
   66.7810   30.6190   51.9470 C   0  0  0  0  0  0  0  0  0  0  0  0
   67.9860   30.8540   51.6560 O   0  0  0  0  0  0  0  0  0  0  0  0
   66.4840   29.5080   52.9070 C   0  0  0  0  0  0  0  0  0  0  0  0
   66.5829   29.8781   53.9381 H   0  0  0  0  0  0  0  0  0  0  0  0
   65.4578   29.1470   52.7439 H   0  0  0  0  0  0  0  0  0  0  0  0
   67.1932   28.6831   52.7439 H   0  0  0  0  0  0  0  0  0  0  0  0
   66.0980   32.6810   50.6990 C   0  0  0  0  0  0  0  0  0  0  0  0
   66.7054   33.2748   51.3979 H   0  0  0  0  0  0  0  0  0  0  0  0
   66.6631   32.4512   49.7837 H   0  0  0  0  0  0  0  0  0  0  0  0
   64.8610   33.4900   50.3060 C   0  0  0  0  0  0  0  0  0  0  0  0
   64.3822   33.8910   51.2115 H   0  0  0  0  0  0  0  0  0  0  0  0
   65.1596   34.3212   49.6503 H   0  0  0  0  0  0  0  0  0  0  0  0
   61.1690   33.6790   47.8590 C   0  0  0  0  0  0  0  0  0  0  0  0
   61.4181   34.6489   48.3143 H   0  0  0  0  0  0  0  0  0  0  0  0
   59.8750   33.4490   47.3860 C   0  0  0  0  0  0  0  0  0  0  0  0
   58.9530   34.4380   47.4910 F   0  0  0  0  0  0  0  0  0  0  0  0
  1  2  1  0
  2  3  1  0
  2  4  2  0
  4  5  1  0
  5  6  2  0
  6  7  1  0
  6  8  1  0
  8  9  1  0
  9 10  1  0
 10 11  2  0
 10 12  1  0
 12 13  1  0
 13 14  1  0
  5 15  1  0
 15 16  1  0
 15 17  2  0
 17 18  1  0
 18 19  1  0
 18 20  1  0
 18 21  1  0
 17 22  1  0
 22 23  1  0
 23 24  1  0
 23 25  1  0
 23 26  1  0
 26 27  2  0
 27 28  1  0
 27 29  1  0
 29 30  1  0
 29 31  2  0
 31 32  1  0
 32 33  2  0
 32 34  1  0
 34 35  1  0
 35 36  1  0
 35 37  1  0
 35 38  1  0
 38 39  1  0
 38 40  1  0
 38 41  1  0
 41 42  1  0
 42 43  2  0
 42 44  1  0
 44 45  1  0
 44 46  1  0
 44 47  1  0
 41 48  1  0
 48 49  1  0
 48 50  1  0
 48 51  1  0
 51 52  1  0
 51 53  1  0
 31 54  1  0
 54 55  1  0
 54 56  2  0
 56 57  1  0
 22  4  1  0
 56 26  1  0
 13  8  2  0
 51 34  1  0
M  CHG  3   9  -1  12  -1  14  -1
M  END
>  <UniqueID>  (39) 
37

>  <SMILES>  (39) 
C=c1/c(=C/c2[n-]c(=O)[n-]c2[O-])cc(C)n1Cc1ccc(C(=O)N2CCN(C(C)=O)CC2)cc1F

>  <Energy>  (39) 
130.31543892337743

>  <Genealogy>  (39) 
C=c1c(=Cc2[n-]c(=O)[n-]c2[O-])cc(C)n1Cc1ccc(C(=O)N2CCN(C(C)=O)CC2)cc1F (protonated)
C=c1/c(=C/c2[n-]c(=O)[n-]c2[O-])cc(C)n1Cc1ccc(C(=O)N2CCN(C(C)=O)CC2)cc1F (cis-trans isomerization)
C=c1/c(=C/c2[n-]c(=O)[n-]c2[O-])cc(C)n1Cc1ccc(C(=O)N2CCN(C(C)=O)CC2)cc1F (3D coordinates assigned)
C=c1/c(=C/c2[n-]c(=O)[n-]c2[O-])cc(C)n1Cc1ccc(C(=O)N2CCN(C(C)=O)CC2)cc1F (nonaromatic ring conformer: 130.31543892337743 kcal/mol)

>  <smiles>  (39) 
C=c1c(=Cc2[nH]c(=O)[nH]c2O)cc(C)n1Cc1ccc(C(=O)N2CCN(C(C)=O)CC2)cc1F

>  <score_type>  (39) 
oracle

>  <origin>  (39) 
adg

>  <m_score__min__energy>  (39) 
-16.739999999999998

>  <m_primary>  (39) 
energy

$$$$
39:0
     RDKit          3D

 49 51  0  0  0  0  0  0  0  0999 V2000
   56.4600   21.8060   49.1960 C   0  0  0  0  0  0  0  0  0  0  0  0
   57.3880   22.1180   48.1630 O   0  0  0  0  0  0  0  0  0  0  0  0
   57.0520   22.7520   46.9570 C   0  0  0  0  0  0  0  0  0  0  0  0
   56.0670   23.7590   46.8880 C   0  0  0  0  0  0  0  0  0  0  0  0
   55.7520   24.3640   45.6610 C   0  0  0  0  0  0  0  0  0  0  0  0
   54.7140   25.4530   45.6050 C   0  0  0  0  0  0  0  0  0  0  0  0
   55.2660   26.7090   46.1060 N   0  0  0  0  0  0  0  0  0  0  0  0
   56.5480   27.2500   45.7650 C   0  0  0  0  0  0  0  0  0  0  0  0
   57.5640   26.5160   45.8810 O   0  0  0  0  0  0  0  0  0  0  0  0
   56.7200   28.6280   45.2730 C   0  0  0  0  0  0  0  0  0  0  0  0
   55.7930   29.3210   44.5030 C   0  0  0  0  0  0  0  0  0  0  0  0
   56.2310   30.5940   44.1210 C   0  0  0  0  0  0  0  0  0  0  0  0
   57.5080   30.8980   44.5790 C   0  0  0  0  0  0  0  0  0  0  0  0
   58.2680   32.1460   44.2680 C   0  0  0  0  0  0  0  0  0  0  0  0
   57.8690   33.2100   45.1840 N   0  0  0  0  0  0  0  0  0  0  0  0
   58.6890   34.2890   45.6510 C   0  0  0  0  0  0  0  0  0  0  0  0
   58.9380   35.2400   44.8660 O   0  0  0  0  0  0  0  0  0  0  0  0
   59.2950   34.3100   47.0290 C   0  0  0  0  0  0  0  0  0  0  0  0
   60.4700   33.3730   47.1380 C   0  0  0  0  0  0  0  0  0  0  0  0
   60.2650   32.0140   47.4360 C   0  0  0  0  0  0  0  0  0  0  0  0
   61.3560   31.1570   47.6050 C   0  0  0  0  0  0  0  0  0  0  0  0
   61.1500   29.8470   47.8860 F   0  0  0  0  0  0  0  0  0  0  0  0
   62.6580   31.6470   47.4770 C   0  0  0  0  0  0  0  0  0  0  0  0
   62.8710   32.9960   47.1820 C   0  0  0  0  0  0  0  0  0  0  0  0
   64.1350   33.4710   47.0610 F   0  0  0  0  0  0  0  0  0  0  0  0
   61.7830   33.8580   47.0150 C   0  0  0  0  0  0  0  0  0  0  0  0
   58.1030   29.5780   45.4340 S   0  0  0  0  0  0  0  0  0  0  0  0
   56.4440   23.9770   44.5040 C   0  0  0  0  0  0  0  0  0  0  0  0
   57.4210   22.9820   44.5670 C   0  0  0  0  0  0  0  0  0  0  0  0
   57.7250   22.3670   45.7880 C   0  0  0  0  0  0  0  0  0  0  0  0
   58.6980   21.3730   45.8490 O   0  0  0  0  0  0  0  0  0  0  0  0
   56.9344   21.9655   50.1755 H   0  0  0  0  0  0  0  0  0  0  0  0
   55.5780   22.4570   49.1054 H   0  0  0  0  0  0  0  0  0  0  0  0
   56.1504   20.7544   49.1054 H   0  0  0  0  0  0  0  0  0  0  0  0
   55.5418   24.0726   47.8022 H   0  0  0  0  0  0  0  0  0  0  0  0
   54.3885   25.5902   44.5633 H   0  0  0  0  0  0  0  0  0  0  0  0
   53.8588   25.1634   46.2333 H   0  0  0  0  0  0  0  0  0  0  0  0
   54.8124   28.9095   44.2218 H   0  0  0  0  0  0  0  0  0  0  0  0
   55.6247   31.2859   43.5179 H   0  0  0  0  0  0  0  0  0  0  0  0
   59.3455   31.9543   44.3784 H   0  0  0  0  0  0  0  0  0  0  0  0
   58.0501   32.4557   43.2352 H   0  0  0  0  0  0  0  0  0  0  0  0
   59.6329   35.3324   47.2538 H   0  0  0  0  0  0  0  0  0  0  0  0
   58.5276   33.9807   47.7450 H   0  0  0  0  0  0  0  0  0  0  0  0
   59.2415   31.6238   47.5365 H   0  0  0  0  0  0  0  0  0  0  0  0
   63.5155   30.9707   47.6085 H   0  0  0  0  0  0  0  0  0  0  0  0
   61.9556   34.9201   46.7864 H   0  0  0  0  0  0  0  0  0  0  0  0
   56.2157   24.4599   43.5424 H   0  0  0  0  0  0  0  0  0  0  0  0
   57.9544   22.6797   43.6537 H   0  0  0  0  0  0  0  0  0  0  0  0
   58.7200   20.6100   45.1820 H   0  0  0  0  0  0  0  0  0  0  0  0
  1  2  1  0
  2  3  1  0
  3  4  2  0
  4  5  1  0
  5  6  1  0
  6  7  1  0
  7  8  1  0
  8  9  2  0
  8 10  1  0
 10 11  2  0
 11 12  1  0
 12 13  2  0
 13 14  1  0
 14 15  1  0
 15 16  1  0
 16 17  2  0
 16 18  1  0
 18 19  1  0
 19 20  2  0
 20 21  1  0
 21 22  1  0
 21 23  2  0
 23 24  1  0
 24 25  1  0
 24 26  2  0
 13 27  1  0
  5 28  2  0
 28 29  1  0
 29 30  2  0
 30 31  1  0
 30  3  1  0
 27 10  1  0
 26 19  1  0
  1 32  1  0
  1 33  1  0
  1 34  1  0
  4 35  1  0
  6 36  1  0
  6 37  1  0
 11 38  1  0
 12 39  1  0
 14 40  1  0
 14 41  1  0
 18 42  1  0
 18 43  1  0
 20 44  1  0
 23 45  1  0
 26 46  1  0
 28 47  1  0
 29 48  1  0
 31 49  1  0
M  CHG  2   7  -1  15  -1
M  END
>  <UniqueID>  (40) 
38

>  <SMILES>  (40) 
COc1cc(C[N-]C(=O)c2ccc(C[N-]C(=O)Cc3cc(F)cc(F)c3)s2)ccc1O

>  <Energy>  (40) 
71.83678093713569

>  <Genealogy>  (40) 
COc1cc(C[N-]C(=O)c2ccc(C[N-]C(=O)Cc3cc(F)cc(F)c3)s2)ccc1O (protonated)
COc1cc(C[N-]C(=O)c2ccc(C[N-]C(=O)Cc3cc(F)cc(F)c3)s2)ccc1O (3D coordinates assigned)
COc1cc(C[N-]C(=O)c2ccc(C[N-]C(=O)Cc3cc(F)cc(F)c3)s2)ccc1O (optimized conformer: 71.83678093713569 kcal/mol)

>  <smiles>  (40) 
COc1cc(CNC(=O)c2ccc(CNC(=O)Cc3cc(F)cc(F)c3)s2)ccc1O

>  <score_type>  (40) 
oracle

>  <origin>  (40) 
adg

>  <m_score__min__energy>  (40) 
-11.380000000000001

>  <m_primary>  (40) 
energy

$$$$
40:0
     RDKit          3D

 43 45  0  0  0  0  0  0  0  0999 V2000
   52.6430   28.9040   54.5420 C   0  0  0  0  0  0  0  0  0  0  0  0
   53.6980   29.1230   53.7380 C   0  0  0  0  0  0  0  0  0  0  0  0
   54.9110   28.6210   54.1290 N   0  0  0  0  0  0  0  0  0  0  0  0
   56.0760   28.9850   53.5340 C   0  0  0  0  0  0  0  0  0  0  0  0
   56.0810   29.9180   52.4970 C   0  0  0  0  0  0  0  0  0  0  0  0
   57.3570   30.3460   51.8730 C   0  0  0  0  0  0  0  0  0  0  0  0
   57.8000   29.7170   50.8740 O   0  0  0  0  0  0  0  0  0  0  0  0
   58.0880   31.4780   52.3740 N   0  0  0  0  0  0  0  0  0  0  0  0
   58.5010   31.5090   53.7790 C   0  0  0  0  0  0  0  0  0  0  0  0
   58.5480   32.9590   54.2720 C   0  0  0  0  0  0  0  0  0  0  0  0
   59.3760   33.8160   53.3990 N   0  0  0  0  0  0  0  0  0  0  0  0
   60.8230   33.5450   53.5370 C   0  0  0  0  0  0  0  0  0  0  0  0
   61.4870   33.5350   52.1920 C   0  0  0  0  0  0  0  0  0  0  0  0
   61.8680   32.4820   51.7080 O   0  0  0  0  0  0  0  0  0  0  0  0
   58.9040   33.7740   51.9940 C   0  0  0  0  0  0  0  0  0  0  0  0
   58.8010   32.3450   51.4350 C   0  0  0  0  0  0  0  0  0  0  0  0
   54.8550   30.3950   52.0210 C   0  0  0  0  0  0  0  0  0  0  0  0
   53.6340   29.9560   52.5740 C   0  0  0  0  0  0  0  0  0  0  0  0
   52.4980   30.3420   51.9380 C   0  0  0  0  0  0  0  0  0  0  0  0
   51.5610   31.3900   52.3820 C   0  0  0  0  0  0  0  0  0  0  0  0
   51.3020   31.6520   53.6750 N   0  0  0  0  0  0  0  0  0  0  0  0
   50.4920   32.7320   53.6190 C   0  0  0  0  0  0  0  0  0  0  0  0
   50.0160   33.2750   54.6500 O   0  0  0  0  0  0  0  0  0  0  0  0
   50.2430   33.1910   52.3740 N   0  0  0  0  0  0  0  0  0  0  0  0
   50.9370   32.3410   51.6030 C   0  0  0  0  0  0  0  0  0  0  0  0
   51.0240   32.4510   50.2200 O   0  0  0  0  0  0  0  0  0  0  0  0
   51.6509   29.2900   54.2650 H   0  0  0  0  0  0  0  0  0  0  0  0
   52.7719   28.3388   55.4768 H   0  0  0  0  0  0  0  0  0  0  0  0
   54.9760   27.9740   54.9480 H   0  0  0  0  0  0  0  0  0  0  0  0
   57.0236   28.5405   53.8725 H   0  0  0  0  0  0  0  0  0  0  0  0
   57.7801   30.9402   54.3846 H   0  0  0  0  0  0  0  0  0  0  0  0
   59.5003   31.0593   53.8748 H   0  0  0  0  0  0  0  0  0  0  0  0
   57.5238   33.3596   54.2940 H   0  0  0  0  0  0  0  0  0  0  0  0
   58.9990   32.9613   55.2753 H   0  0  0  0  0  0  0  0  0  0  0  0
   61.2799   34.3278   54.1603 H   0  0  0  0  0  0  0  0  0  0  0  0
   60.9568   32.5594   54.0068 H   0  0  0  0  0  0  0  0  0  0  0  0
   61.6303   34.4769   51.6422 H   0  0  0  0  0  0  0  0  0  0  0  0
   57.9097   34.2418   51.9445 H   0  0  0  0  0  0  0  0  0  0  0  0
   59.6434   34.3128   51.3832 H   0  0  0  0  0  0  0  0  0  0  0  0
   58.2570   32.3684   50.4792 H   0  0  0  0  0  0  0  0  0  0  0  0
   59.8156   31.9479   51.2839 H   0  0  0  0  0  0  0  0  0  0  0  0
   54.8430   31.1265   51.1996 H   0  0  0  0  0  0  0  0  0  0  0  0
   52.2530   29.8220   51.0001 H   0  0  0  0  0  0  0  0  0  0  0  0
  1  2  2  0
  2  3  1  0
  3  4  2  0
  4  5  1  0
  5  6  1  0
  6  7  2  0
  6  8  1  0
  8  9  1  0
  9 10  1  0
 10 11  1  0
 11 12  1  0
 12 13  1  0
 13 14  2  0
 11 15  1  0
 15 16  1  0
  5 17  2  0
 17 18  1  0
 18 19  2  3
 19 20  1  0
 20 21  1  0
 21 22  1  0
 22 23  2  0
 22 24  1  0
 24 25  1  0
 25 26  1  0
 18  2  1  0
 25 20  2  0
 16  8  1  0
  1 27  1  0
  1 28  1  0
  3 29  1  0
  4 30  1  0
  9 31  1  0
  9 32  1  0
 10 33  1  0
 10 34  1  0
 12 35  1  0
 12 36  1  0
 13 37  1  0
 15 38  1  0
 15 39  1  0
 16 40  1  0
 16 41  1  0
 17 42  1  0
 19 43  1  0
M  CHG  4   3   1  21  -1  24  -1  26  -1
M  END
>  <UniqueID>  (41) 
39

>  <SMILES>  (41) 
C=c1[nH+]cc(C(=O)N2CCN(CC=O)CC2)cc1=Cc1[n-]c(=O)[n-]c1[O-]

>  <Energy>  (41) 
101.32677380045847

>  <Genealogy>  (41) 
C=c1[nH+]cc(C(=O)N2CCN(CC=O)CC2)cc1=Cc1[n-]c(=O)[n-]c1[O-] (protonated)
C=c1[nH+]cc(C(=O)N2CCN(CC=O)CC2)cc1=Cc1[n-]c(=O)[n-]c1[O-] (3D coordinates assigned)
C=c1[nH+]cc(C(=O)N2CCN(CC=O)CC2)cc1=Cc1[n-]c(=O)[n-]c1[O-] (nonaromatic ring conformer: 101.32677380045847 kcal/mol)

>  <smiles>  (41) 
C=c1ncc(C(=O)N2CCN(CC=O)CC2)cc1=Cc1[nH]c(=O)[nH]c1O

>  <score_type>  (41) 
oracle

>  <origin>  (41) 
adg

>  <m_score__min__energy>  (41) 
-14.76

>  <m_primary>  (41) 
energy

$$$$
41:0
     RDKit          3D

 38 39  0  0  0  0  0  0  0  0999 V2000
   54.7800   26.3010   45.9970 N   0  0  0  0  0  0  0  0  0  0  0  0
   56.4090   25.7310   46.0820 S   0  0  0  0  0  0  0  0  0  0  0  0
   56.5870   24.5890   45.1210 O   0  0  0  0  0  0  0  0  0  0  0  0
   56.6990   25.2390   47.4730 O   0  0  0  0  0  0  0  0  0  0  0  0
   57.5130   27.0400   45.6730 C   0  0  0  0  0  0  0  0  0  0  0  0
   58.8930   26.8120   45.6320 C   0  0  0  0  0  0  0  0  0  0  0  0
   59.7650   27.8460   45.2840 C   0  0  0  0  0  0  0  0  0  0  0  0
   59.2630   29.1130   44.9780 C   0  0  0  0  0  0  0  0  0  0  0  0
   57.8790   29.3620   45.0180 C   0  0  0  0  0  0  0  0  0  0  0  0
   57.3640   30.7130   44.6900 C   0  0  0  0  0  0  0  0  0  0  0  0
   56.1200   30.8850   44.5730 O   0  0  0  0  0  0  0  0  0  0  0  0
   58.2580   31.8190   44.4770 N   0  0  0  0  0  0  0  0  0  0  0  0
   57.7820   33.1620   44.1500 C   0  0  0  0  0  0  0  0  0  0  0  0
   57.1460   33.8770   45.3670 C   0  0  0  0  0  0  0  0  0  0  0  0
   58.0850   34.3180   46.4290 N   0  0  0  0  0  0  0  0  0  0  0  0
   58.4520   33.2810   47.3990 C   0  0  0  0  0  0  0  0  0  0  0  0
   59.8810   32.8660   47.1030 C   0  0  0  0  0  0  0  0  0  0  0  0
   60.4980   34.0530   46.3880 C   0  0  0  0  0  0  0  0  0  0  0  0
   59.3300   34.9250   45.9370 C   0  0  0  0  0  0  0  0  0  0  0  0
   57.0080   28.3090   45.3560 C   0  0  0  0  0  0  0  0  0  0  0  0
   54.6930   27.0770   46.6920 H   0  0  0  0  0  0  0  0  0  0  0  0
   59.2920   25.8160   45.8744 H   0  0  0  0  0  0  0  0  0  0  0  0
   60.8490   27.6622   45.2508 H   0  0  0  0  0  0  0  0  0  0  0  0
   59.9553   29.9225   44.7036 H   0  0  0  0  0  0  0  0  0  0  0  0
   59.2880   31.6850   44.5710 H   0  0  0  0  0  0  0  0  0  0  0  0
   58.6330   33.7611   43.7937 H   0  0  0  0  0  0  0  0  0  0  0  0
   57.0059   33.0630   43.3768 H   0  0  0  0  0  0  0  0  0  0  0  0
   56.6170   34.7669   44.9953 H   0  0  0  0  0  0  0  0  0  0  0  0
   56.4933   33.1293   45.8413 H   0  0  0  0  0  0  0  0  0  0  0  0
   58.3810   33.6808   48.4213 H   0  0  0  0  0  0  0  0  0  0  0  0
   57.7736   32.4187   47.3201 H   0  0  0  0  0  0  0  0  0  0  0  0
   60.4225   32.6535   48.0366 H   0  0  0  0  0  0  0  0  0  0  0  0
   59.9264   31.9501   46.4954 H   0  0  0  0  0  0  0  0  0  0  0  0
   61.1519   34.6137   47.0721 H   0  0  0  0  0  0  0  0  0  0  0  0
   61.1155   33.7337   45.5355 H   0  0  0  0  0  0  0  0  0  0  0  0
   59.4397   35.9377   46.3522 H   0  0  0  0  0  0  0  0  0  0  0  0
   59.3102   34.9945   44.8394 H   0  0  0  0  0  0  0  0  0  0  0  0
   55.9220   28.4832   45.3715 H   0  0  0  0  0  0  0  0  0  0  0  0
  1  2  1  0
  2  3  2  0
  2  4  2  0
  2  5  1  0
  5  6  2  0
  6  7  1  0
  7  8  2  0
  8  9  1  0
  9 10  1  0
 10 11  2  0
 10 12  1  0
 12 13  1  0
 13 14  1  0
 14 15  1  0
 15 16  1  0
 16 17  1  0
 17 18  1  0
 18 19  1  0
  9 20  2  0
 20  5  1  0
 19 15  1  0
  1 21  1  0
  6 22  1  0
  7 23  1  0
  8 24  1  0
 12 25  1  0
 13 26  1  0
 13 27  1  0
 14 28  1  0
 14 29  1  0
 16 30  1  0
 16 31  1  0
 17 32  1  0
 17 33  1  0
 18 34  1  0
 18 35  1  0
 19 36  1  0
 19 37  1  0
 20 38  1  0
M  CHG  1   1  -1
M  END
>  <UniqueID>  (42) 
40

>  <SMILES>  (42) 
[NH-]S(=O)(=O)c1cccc(C(=O)NCCN2CCCC2)c1

>  <Energy>  (42) 
42.95958242792172

>  <Genealogy>  (42) 
[NH-]S(=O)(=O)c1cccc(C(=O)NCCN2CCCC2)c1 (protonated)
[NH-]S(=O)(=O)c1cccc(C(=O)NCCN2CCCC2)c1 (3D coordinates assigned)
[NH-]S(=O)(=O)c1cccc(C(=O)NCCN2CCCC2)c1 (nonaromatic ring conformer: 42.95958242792172 kcal/mol)

>  <smiles>  (42) 
NS(=O)(=O)c1cccc(C(=O)NCCN2CCCC2)c1

>  <score_type>  (42) 
oracle

>  <origin>  (42) 
adg

>  <m_score__min__energy>  (42) 
-11

>  <m_primary>  (42) 
energy

$$$$
42:0
     RDKit          3D

 67 71  0  0  0  0  0  0  0  0999 V2000
   58.3640   26.7460   43.1190 O   0  0  0  0  0  0  0  0  0  0  0  0
   57.8090   26.7080   44.2510 C   0  0  0  0  0  0  0  0  0  0  0  0
   57.4790   27.9280   44.9410 N   0  0  0  0  0  0  0  0  0  0  0  0
   57.3640   29.2020   44.2900 C   0  0  0  0  0  0  0  0  0  0  0  0
   56.8650   29.2590   42.9810 C   0  0  0  0  0  0  0  0  0  0  0  0
   56.7240   30.4850   42.3310 C   0  0  0  0  0  0  0  0  0  0  0  0
   57.0610   31.6700   42.9890 C   0  0  0  0  0  0  0  0  0  0  0  0
   57.5460   31.6360   44.3070 C   0  0  0  0  0  0  0  0  0  0  0  0
   57.8500   32.8590   45.0030 N   0  0  0  0  0  0  0  0  0  0  0  0
   57.2780   33.1160   46.3310 C   0  0  0  0  0  0  0  0  0  0  0  0
   58.1400   34.1210   47.1040 C   0  0  0  0  0  0  0  0  0  0  0  0
   59.5650   33.8600   46.8160 N   0  0  0  0  0  0  0  0  0  0  0  0
   60.4290   34.6010   47.7570 C   0  0  0  0  0  0  0  0  0  0  0  0
   61.6660   33.8040   48.0840 C   0  0  0  0  0  0  0  0  0  0  0  0
   62.6560   33.6110   47.1080 C   0  0  0  0  0  0  0  0  0  0  0  0
   63.8170   32.8940   47.4130 C   0  0  0  0  0  0  0  0  0  0  0  0
   63.9970   32.3670   48.6950 C   0  0  0  0  0  0  0  0  0  0  0  0
   63.0190   32.5620   49.6750 C   0  0  0  0  0  0  0  0  0  0  0  0
   61.8570   33.2800   49.3740 C   0  0  0  0  0  0  0  0  0  0  0  0
   59.8990   34.1840   45.4050 C   0  0  0  0  0  0  0  0  0  0  0  0
   58.7560   33.8580   44.4230 C   0  0  0  0  0  0  0  0  0  0  0  0
   57.6840   30.3960   44.9560 C   0  0  0  0  0  0  0  0  0  0  0  0
   57.4950   25.3930   44.8550 C   0  0  0  0  0  0  0  0  0  0  0  0
   57.1350   24.3210   44.0190 C   0  0  0  0  0  0  0  0  0  0  0  0
   56.8280   23.0730   44.5630 C   0  0  0  0  0  0  0  0  0  0  0  0
   56.8640   22.8830   45.9440 C   0  0  0  0  0  0  0  0  0  0  0  0
   57.2040   23.9410   46.7900 C   0  0  0  0  0  0  0  0  0  0  0  0
   57.5120   25.2080   46.2560 C   0  0  0  0  0  0  0  0  0  0  0  0
   57.8130   26.3010   47.0830 O   0  0  0  0  0  0  0  0  0  0  0  0
   59.0830   26.5670   47.6680 C   0  0  0  0  0  0  0  0  0  0  0  0
   59.4260   28.0090   47.4260 C   0  0  0  0  0  0  0  0  0  0  0  0
   58.9310   29.0040   48.2880 C   0  0  0  0  0  0  0  0  0  0  0  0
   59.3060   30.3400   48.1120 C   0  0  0  0  0  0  0  0  0  0  0  0
   60.1900   30.6890   47.0870 C   0  0  0  0  0  0  0  0  0  0  0  0
   60.7010   29.7060   46.2360 C   0  0  0  0  0  0  0  0  0  0  0  0
   60.3280   28.3680   46.4050 C   0  0  0  0  0  0  0  0  0  0  0  0
   60.8550   27.4230   45.5850 F   0  0  0  0  0  0  0  0  0  0  0  0
   57.1560   27.8670   45.9330 H   0  0  0  0  0  0  0  0  0  0  0  0
   56.5828   28.3305   42.4631 H   0  0  0  0  0  0  0  0  0  0  0  0
   56.3467   30.5187   41.2983 H   0  0  0  0  0  0  0  0  0  0  0  0
   56.9461   32.6345   42.4727 H   0  0  0  0  0  0  0  0  0  0  0  0
   56.2632   33.5242   46.2148 H   0  0  0  0  0  0  0  0  0  0  0  0
   57.2456   32.1706   46.8924 H   0  0  0  0  0  0  0  0  0  0  0  0
   57.8826   35.1437   46.7913 H   0  0  0  0  0  0  0  0  0  0  0  0
   57.9551   34.0140   48.1830 H   0  0  0  0  0  0  0  0  0  0  0  0
   60.7254   35.5564   47.2994 H   0  0  0  0  0  0  0  0  0  0  0  0
   59.8680   34.7809   48.6859 H   0  0  0  0  0  0  0  0  0  0  0  0
   62.5179   34.0257   46.0986 H   0  0  0  0  0  0  0  0  0  0  0  0
   64.5890   32.7446   46.6438 H   0  0  0  0  0  0  0  0  0  0  0  0
   64.9083   31.7987   48.9330 H   0  0  0  0  0  0  0  0  0  0  0  0
   63.1637   32.1500   50.6846 H   0  0  0  0  0  0  0  0  0  0  0  0
   61.0912   33.4348   50.1484 H   0  0  0  0  0  0  0  0  0  0  0  0
   60.1238   35.2586   45.3363 H   0  0  0  0  0  0  0  0  0  0  0  0
   60.7621   33.5638   45.1214 H   0  0  0  0  0  0  0  0  0  0  0  0
   58.1912   34.7768   44.2068 H   0  0  0  0  0  0  0  0  0  0  0  0
   59.1877   33.4518   43.4964 H   0  0  0  0  0  0  0  0  0  0  0  0
   58.0457   30.3612   45.9942 H   0  0  0  0  0  0  0  0  0  0  0  0
   57.0951   24.4671   42.9295 H   0  0  0  0  0  0  0  0  0  0  0  0
   56.5570   22.2374   43.9010 H   0  0  0  0  0  0  0  0  0  0  0  0
   56.6239   21.8969   46.3683 H   0  0  0  0  0  0  0  0  0  0  0  0
   57.2315   23.7844   47.8784 H   0  0  0  0  0  0  0  0  0  0  0  0
   59.0415   26.3719   48.7498 H   0  0  0  0  0  0  0  0  0  0  0  0
   59.8485   25.9169   47.2193 H   0  0  0  0  0  0  0  0  0  0  0  0
   58.2460   28.7304   49.1041 H   0  0  0  0  0  0  0  0  0  0  0  0
   58.9051   31.1162   48.7804 H   0  0  0  0  0  0  0  0  0  0  0  0
   60.4840   31.7401   46.9501 H   0  0  0  0  0  0  0  0  0  0  0  0
   61.3978   29.9843   45.4316 H   0  0  0  0  0  0  0  0  0  0  0  0
  1  2  2  0
  2  3  1  0
  3  4  1  0
  4  5  2  0
  5  6  1  0
  6  7  2  0
  7  8  1  0
  8  9  1  0
  9 10  1  0
 10 11  1  0
 11 12  1  0
 12 13  1  0
 13 14  1  0
 14 15  2  0
 15 16  1  0
 16 17  2  0
 17 18  1  0
 18 19  2  0
 12 20  1  0
 20 21  1  0
  8 22  2  0
  2 23  1  0
 23 24  2  0
 24 25  1  0
 25 26  2  0
 26 27  1  0
 27 28  2  0
 28 29  1  0
 29 30  1  0
 30 31  1  0
 31 32  2  0
 32 33  1  0
 33 34  2  0
 34 35  1  0
 35 36  2  0
 36 37  1  0
 22  4  1  0
 28 23  1  0
 36 31  1  0
 21  9  1  0
 19 14  1  0
  3 38  1  0
  5 39  1  0
  6 40  1  0
  7 41  1  0
 10 42  1  0
 10 43  1  0
 11 44  1  0
 11 45  1  0
 13 46  1  0
 13 47  1  0
 15 48  1  0
 16 49  1  0
 17 50  1  0
 18 51  1  0
 19 52  1  0
 20 53  1  0
 20 54  1  0
 21 55  1  0
 21 56  1  0
 22 57  1  0
 24 58  1  0
 25 59  1  0
 26 60  1  0
 27 61  1  0
 30 62  1  0
 30 63  1  0
 32 64  1  0
 33 65  1  0
 34 66  1  0
 35 67  1  0
M  END
>  <UniqueID>  (43) 
41

>  <SMILES>  (43) 
O=C(Nc1cccc(N2CCN(Cc3ccccc3)CC2)c1)c1ccccc1OCc1ccccc1F

>  <Energy>  (43) 
88.49143846147236

>  <Genealogy>  (43) 
O=C(Nc1cccc(N2CCN(Cc3ccccc3)CC2)c1)c1ccccc1OCc1ccccc1F (3D coordinates assigned)
O=C(Nc1cccc(N2CCN(Cc3ccccc3)CC2)c1)c1ccccc1OCc1ccccc1F (nonaromatic ring conformer: 88.49143846147236 kcal/mol)

>  <smiles>  (43) 
O=C(Nc1cccc(N2CCN(Cc3ccccc3)CC2)c1)c1ccccc1OCc1ccccc1F

>  <score_type>  (43) 
oracle

>  <origin>  (43) 
adg

>  <m_score__min__energy>  (43) 
-9.8300000000000001

>  <m_primary>  (43) 
energy

$$$$
43:0
     RDKit          3D

 52 56  0  0  0  0  0  0  0  0999 V2000
   59.9510   35.3970   46.6380 O   0  0  0  0  0  0  0  0  0  0  0  0
   59.4620   34.3210   47.0780 C   0  0  0  0  0  0  0  0  0  0  0  0
   58.6220   33.5200   46.2310 N   0  0  0  0  0  0  0  0  0  0  0  0
   58.3380   33.8860   44.8450 C   0  0  0  0  0  0  0  0  0  0  0  0
   57.8270   32.6960   44.0880 C   0  0  0  0  0  0  0  0  0  0  0  0
   57.7780   32.7070   42.6880 C   0  0  0  0  0  0  0  0  0  0  0  0
   57.2700   31.5970   42.0130 C   0  0  0  0  0  0  0  0  0  0  0  0
   56.8110   30.4930   42.7330 C   0  0  0  0  0  0  0  0  0  0  0  0
   56.8630   30.5140   44.1360 C   0  0  0  0  0  0  0  0  0  0  0  0
   56.3820   29.3740   44.9390 C   0  0  0  0  0  0  0  0  0  0  0  0
   55.1870   28.9910   44.8140 O   0  0  0  0  0  0  0  0  0  0  0  0
   57.2810   28.6730   45.8100 N   0  0  0  0  0  0  0  0  0  0  0  0
   58.4860   29.1900   46.3920 C   0  0  0  0  0  0  0  0  0  0  0  0
   59.4680   29.7140   45.5420 C   0  0  0  0  0  0  0  0  0  0  0  0
   60.6530   30.2460   46.0630 C   0  0  0  0  0  0  0  0  0  0  0  0
   60.8600   30.2710   47.4450 C   0  0  0  0  0  0  0  0  0  0  0  0
   62.0100   30.7900   47.9530 N   0  0  0  0  0  0  0  0  0  0  0  0
   62.2420   30.8410   49.2920 C   0  0  0  0  0  0  0  0  0  0  0  0
   63.4660   31.3930   49.7760 N   0  0  0  0  0  0  0  0  0  0  0  0
   64.3630   31.1950   50.9290 C   0  0  0  0  0  0  0  0  0  0  0  0
   65.3560   32.2390   50.5370 C   0  0  0  0  0  0  0  0  0  0  0  0
   64.4370   32.4270   49.3750 C   0  0  0  0  0  0  0  0  0  0  0  0
   61.2830   30.3540   50.1880 C   0  0  0  0  0  0  0  0  0  0  0  0
   60.0900   29.8200   49.6960 C   0  0  0  0  0  0  0  0  0  0  0  0
   59.8680   29.7690   48.3140 C   0  0  0  0  0  0  0  0  0  0  0  0
   58.6810   29.2380   47.7860 C   0  0  0  0  0  0  0  0  0  0  0  0
   57.3650   31.6100   44.7700 N   0  0  0  0  0  0  0  0  0  0  0  0
   59.7630   33.9100   48.4610 C   0  0  0  0  0  0  0  0  0  0  0  0
   58.9860   33.1340   49.3010 C   0  0  0  0  0  0  0  0  0  0  0  0
   59.7000   33.0310   50.4770 C   0  0  0  0  0  0  0  0  0  0  0  0
   60.8310   33.6920   50.3720 O   0  0  0  0  0  0  0  0  0  0  0  0
   60.9010   34.2290   49.1770 C   0  0  0  0  0  0  0  0  0  0  0  0
   58.1780   32.6530   46.6060 H   0  0  0  0  0  0  0  0  0  0  0  0
   57.5780   34.6811   44.8278 H   0  0  0  0  0  0  0  0  0  0  0  0
   59.2649   34.2413   44.3710 H   0  0  0  0  0  0  0  0  0  0  0  0
   58.1366   33.5823   42.1265 H   0  0  0  0  0  0  0  0  0  0  0  0
   57.2312   31.5918   40.9137 H   0  0  0  0  0  0  0  0  0  0  0  0
   56.4119   29.6139   42.2058 H   0  0  0  0  0  0  0  0  0  0  0  0
   59.3063   29.7074   44.4540 H   0  0  0  0  0  0  0  0  0  0  0  0
   61.4217   30.6446   45.3846 H   0  0  0  0  0  0  0  0  0  0  0  0
   63.8741   31.4133   51.8899 H   0  0  0  0  0  0  0  0  0  0  0  0
   64.7455   30.1775   51.0977 H   0  0  0  0  0  0  0  0  0  0  0  0
   65.4380   33.0967   51.2209 H   0  0  0  0  0  0  0  0  0  0  0  0
   66.4362   32.0541   50.4419 H   0  0  0  0  0  0  0  0  0  0  0  0
   63.9955   33.4340   49.3412 H   0  0  0  0  0  0  0  0  0  0  0  0
   64.8754   32.3402   48.3699 H   0  0  0  0  0  0  0  0  0  0  0  0
   61.4677   30.3916   51.2717 H   0  0  0  0  0  0  0  0  0  0  0  0
   59.3271   29.4406   50.3917 H   0  0  0  0  0  0  0  0  0  0  0  0
   57.9011   28.8584   48.4625 H   0  0  0  0  0  0  0  0  0  0  0  0
   58.0039   32.6913   49.0783 H   0  0  0  0  0  0  0  0  0  0  0  0
   59.3716   32.4781   51.3694 H   0  0  0  0  0  0  0  0  0  0  0  0
   61.7365   34.8389   48.8029 H   0  0  0  0  0  0  0  0  0  0  0  0
  1  2  2  0
  2  3  1  0
  3  4  1  0
  4  5  1  0
  5  6  2  0
  6  7  1  0
  7  8  2  0
  8  9  1  0
  9 10  1  0
 10 11  2  0
 10 12  1  0
 12 13  1  0
 13 14  2  0
 14 15  1  0
 15 16  2  0
 16 17  1  0
 17 18  2  0
 18 19  1  0
 19 20  1  0
 20 21  1  0
 21 22  1  0
 18 23  1  0
 23 24  2  0
 24 25  1  0
 25 26  2  0
  9 27  2  0
  2 28  1  0
 28 29  1  0
 29 30  2  0
 30 31  1  0
 31 32  1  0
 27  5  1  0
 32 28  2  0
 26 13  1  0
 25 16  1  0
 22 19  1  0
  3 33  1  0
  4 34  1  0
  4 35  1  0
  6 36  1  0
  7 37  1  0
  8 38  1  0
 14 39  1  0
 15 40  1  0
 20 41  1  0
 20 42  1  0
 21 43  1  0
 21 44  1  0
 22 45  1  0
 22 46  1  0
 23 47  1  0
 24 48  1  0
 26 49  1  0
 29 50  1  0
 30 51  1  0
 32 52  1  0
M  CHG  1  12  -1
M  END
>  <UniqueID>  (44) 
42

>  <SMILES>  (44) 
O=C(NCc1cccc(C(=O)[N-]c2ccc3nc(N4CCC4)ccc3c2)n1)c1ccoc1

>  <Energy>  (44) 
130.2314185357965

>  <Genealogy>  (44) 
O=C(NCc1cccc(C(=O)[N-]c2ccc3nc(N4CCC4)ccc3c2)n1)c1ccoc1 (protonated)
O=C(NCc1cccc(C(=O)[N-]c2ccc3nc(N4CCC4)ccc3c2)n1)c1ccoc1 (3D coordinates assigned)
O=C(NCc1cccc(C(=O)[N-]c2ccc3nc(N4CCC4)ccc3c2)n1)c1ccoc1 (nonaromatic ring conformer: 130.2314185357965 kcal/mol)

>  <smiles>  (44) 
O=C(NCc1cccc(C(=O)Nc2ccc3nc(N4CCC4)ccc3c2)n1)c1ccoc1

>  <score_type>  (44) 
oracle

>  <origin>  (44) 
adg

>  <m_score__min__energy>  (44) 
-10.539999999999999

>  <m_primary>  (44) 
energy

$$$$
44:0
     RDKit          3D

 47 50  0  0  0  0  0  0  0  0999 V2000
   56.6240   30.4240   42.8340 C   0  0  0  0  0  0  0  0  0  0  0  0
   57.3270   31.2220   43.8810 C   0  0  0  0  0  0  0  0  0  0  0  0
   57.9050   32.4060   43.5590 N   0  0  0  0  0  0  0  0  0  0  0  0
   58.5060   33.1750   44.5020 C   0  0  0  0  0  0  0  0  0  0  0  0
   58.5350   32.7560   45.8410 C   0  0  0  0  0  0  0  0  0  0  0  0
   59.1870   33.5680   46.8980 C   0  0  0  0  0  0  0  0  0  0  0  0
   58.5170   34.4400   47.5130 O   0  0  0  0  0  0  0  0  0  0  0  0
   60.5900   33.4460   47.1710 N   0  0  0  0  0  0  0  0  0  0  0  0
   61.5620   34.1910   46.3850 C   0  0  0  0  0  0  0  0  0  0  0  0
   62.9280   33.6640   46.8010 C   0  0  0  0  0  0  0  0  0  0  0  0
   62.6460   32.3460   47.5160 C   0  0  0  0  0  0  0  0  0  0  0  0
   61.2260   32.4960   48.0990 C   0  0  0  0  0  0  0  0  0  0  0  0
   61.3240   33.0910   49.5230 C   0  0  0  0  0  0  0  0  0  0  0  0
   59.9840   33.1320   50.2560 C   0  0  0  0  0  0  0  0  0  0  0  0
   59.3030   31.8290   50.2180 N   0  0  0  0  0  0  0  0  0  0  0  0
   58.3360   31.5200   51.2540 C   0  0  0  0  0  0  0  0  0  0  0  0
   57.4690   30.4840   51.0990 N   0  0  0  0  0  0  0  0  0  0  0  0
   56.5800   30.1540   52.0780 C   0  0  0  0  0  0  0  0  0  0  0  0
   56.5450   30.8790   53.2700 C   0  0  0  0  0  0  0  0  0  0  0  0
   57.4270   31.9410   53.4170 C   0  0  0  0  0  0  0  0  0  0  0  0
   58.3000   32.2390   52.4140 N   0  0  0  0  0  0  0  0  0  0  0  0
   59.2160   31.0970   48.9450 C   0  0  0  0  0  0  0  0  0  0  0  0
   60.5400   31.1110   48.1640 C   0  0  0  0  0  0  0  0  0  0  0  0
   57.9160   31.5380   46.1490 C   0  0  0  0  0  0  0  0  0  0  0  0
   57.3230   30.8050   45.1710 N   0  0  0  0  0  0  0  0  0  0  0  0
   55.9703   29.6820   43.3158 H   0  0  0  0  0  0  0  0  0  0  0  0
   56.0178   31.0946   42.2072 H   0  0  0  0  0  0  0  0  0  0  0  0
   57.3657   29.9072   42.2072 H   0  0  0  0  0  0  0  0  0  0  0  0
   58.9718   34.1296   44.2159 H   0  0  0  0  0  0  0  0  0  0  0  0
   61.3970   34.0202   45.3109 H   0  0  0  0  0  0  0  0  0  0  0  0
   61.4770   35.2738   46.5591 H   0  0  0  0  0  0  0  0  0  0  0  0
   63.5622   33.4961   45.9180 H   0  0  0  0  0  0  0  0  0  0  0  0
   63.4648   34.3754   47.4457 H   0  0  0  0  0  0  0  0  0  0  0  0
   62.6846   31.5065   46.8062 H   0  0  0  0  0  0  0  0  0  0  0  0
   63.3906   32.1357   48.2979 H   0  0  0  0  0  0  0  0  0  0  0  0
   62.0240   32.4781   50.1098 H   0  0  0  0  0  0  0  0  0  0  0  0
   61.6692   34.1302   49.4182 H   0  0  0  0  0  0  0  0  0  0  0  0
   60.1600   33.4118   51.3052 H   0  0  0  0  0  0  0  0  0  0  0  0
   59.3409   33.8697   49.7538 H   0  0  0  0  0  0  0  0  0  0  0  0
   55.8873   29.3128   51.9280 H   0  0  0  0  0  0  0  0  0  0  0  0
   55.8382   30.6163   54.0708 H   0  0  0  0  0  0  0  0  0  0  0  0
   57.4212   32.5397   54.3398 H   0  0  0  0  0  0  0  0  0  0  0  0
   58.9429   30.0527   49.1569 H   0  0  0  0  0  0  0  0  0  0  0  0
   58.4575   31.5965   48.3244 H   0  0  0  0  0  0  0  0  0  0  0  0
   61.2324   30.4059   48.6471 H   0  0  0  0  0  0  0  0  0  0  0  0
   60.2978   30.8304   47.1283 H   0  0  0  0  0  0  0  0  0  0  0  0
   57.9100   31.1735   47.1868 H   0  0  0  0  0  0  0  0  0  0  0  0
  1  2  1  0
  2  3  2  0
  3  4  1  0
  4  5  2  0
  5  6  1  0
  6  7  2  0
  6  8  1  0
  8  9  1  0
  9 10  1  0
 10 11  1  0
 11 12  1  0
 12 13  1  0
 13 14  1  0
 14 15  1  0
 15 16  1  0
 16 17  2  0
 17 18  1  0
 18 19  2  0
 19 20  1  0
 20 21  2  0
 15 22  1  0
 22 23  1  0
  5 24  1  0
 24 25  2  0
 25  2  1  0
 12  8  1  0
 21 16  1  0
 23 12  1  0
  1 26  1  0
  1 27  1  0
  1 28  1  0
  4 29  1  0
  9 30  1  0
  9 31  1  0
 10 32  1  0
 10 33  1  0
 11 34  1  0
 11 35  1  0
 13 36  1  0
 13 37  1  0
 14 38  1  0
 14 39  1  0
 18 40  1  0
 19 41  1  0
 20 42  1  0
 22 43  1  0
 22 44  1  0
 23 45  1  0
 23 46  1  0
 24 47  1  0
M  END
>  <UniqueID>  (45) 
43

>  <SMILES>  (45) 
Cc1ncc(C(=O)N2CCCC23CCN(c2ncccn2)CC3)cn1

>  <Energy>  (45) 
62.77167725713049

>  <Genealogy>  (45) 
Cc1ncc(C(=O)N2CCCC23CCN(c2ncccn2)CC3)cn1 (3D coordinates assigned)
Cc1ncc(C(=O)N2CCCC23CCN(c2ncccn2)CC3)cn1 (nonaromatic ring conformer: 62.77167725713049 kcal/mol)

>  <smiles>  (45) 
Cc1ncc(C(=O)N2CCCC23CCN(c2ncccn2)CC3)cn1

>  <score_type>  (45) 
oracle

>  <origin>  (45) 
adg

>  <m_score__min__energy>  (45) 
-7.5599999999999996

>  <m_primary>  (45) 
energy

$$$$
45:0
     RDKit          3D

 47 48  0  0  0  0  0  0  0  0999 V2000
   59.1970   32.6220   49.3080 C   0  0  0  0  0  0  0  0  0  0  0  0
   59.2410   33.7190   48.2860 C   0  0  0  0  0  0  0  0  0  0  0  0
   59.6660   34.8500   48.6430 O   0  0  0  0  0  0  0  0  0  0  0  0
   58.7940   33.5060   46.8830 C   0  0  0  0  0  0  0  0  0  0  0  0
   59.1930   34.4010   45.8730 C   0  0  0  0  0  0  0  0  0  0  0  0
   58.7910   34.2070   44.5500 C   0  0  0  0  0  0  0  0  0  0  0  0
   57.9760   33.1240   44.2160 C   0  0  0  0  0  0  0  0  0  0  0  0
   57.5430   32.2340   45.2100 C   0  0  0  0  0  0  0  0  0  0  0  0
   56.7330   31.0940   44.8920 N   0  0  0  0  0  0  0  0  0  0  0  0
   57.0280   29.7300   45.2220 C   0  0  0  0  0  0  0  0  0  0  0  0
   56.0900   28.8910   45.2380 O   0  0  0  0  0  0  0  0  0  0  0  0
   58.4350   29.2620   45.4840 C   0  0  0  0  0  0  0  0  0  0  0  0
   58.6050   27.8560   45.0620 N   0  0  0  0  0  0  0  0  0  0  0  0
   58.0830   27.6240   43.7070 C   0  0  0  0  0  0  0  0  0  0  0  0
   58.1210   26.8610   46.0520 C   0  0  0  0  0  0  0  0  0  0  0  0
   58.9880   25.6250   46.2100 C   0  0  0  0  0  0  0  0  0  0  0  0
   60.2420   25.7320   46.2230 O   0  0  0  0  0  0  0  0  0  0  0  0
   58.4240   24.3070   46.1470 N   0  0  0  0  0  0  0  0  0  0  0  0
   57.4580   23.8430   45.1940 C   0  0  0  0  0  0  0  0  0  0  0  0
   57.8680   23.0010   44.1460 C   0  0  0  0  0  0  0  0  0  0  0  0
   56.9590   22.5790   43.1760 C   0  0  0  0  0  0  0  0  0  0  0  0
   55.6350   23.0060   43.2300 C   0  0  0  0  0  0  0  0  0  0  0  0
   55.2160   23.8650   44.2470 C   0  0  0  0  0  0  0  0  0  0  0  0
   56.1170   24.3030   45.2390 C   0  0  0  0  0  0  0  0  0  0  0  0
   55.6280   25.2150   46.3100 C   0  0  0  0  0  0  0  0  0  0  0  0
   54.8100   26.3390   45.9830 N   0  0  0  0  0  0  0  0  0  0  0  0
   55.9150   25.0080   47.5190 O   0  0  0  0  0  0  0  0  0  0  0  0
   57.9700   32.4160   46.5320 C   0  0  0  0  0  0  0  0  0  0  0  0
   59.2146   33.0599   50.3169 H   0  0  0  0  0  0  0  0  0  0  0  0
   58.2747   32.0368   49.1783 H   0  0  0  0  0  0  0  0  0  0  0  0
   60.0695   31.9648   49.1783 H   0  0  0  0  0  0  0  0  0  0  0  0
   59.8280   35.2621   46.1284 H   0  0  0  0  0  0  0  0  0  0  0  0
   59.1174   34.9094   43.7689 H   0  0  0  0  0  0  0  0  0  0  0  0
   57.6725   32.9681   43.1703 H   0  0  0  0  0  0  0  0  0  0  0  0
   59.1368   29.8952   44.9214 H   0  0  0  0  0  0  0  0  0  0  0  0
   58.6365   29.3342   46.5630 H   0  0  0  0  0  0  0  0  0  0  0  0
   57.0796   27.1780   43.7720 H   0  0  0  0  0  0  0  0  0  0  0  0
   58.0247   28.5809   43.1677 H   0  0  0  0  0  0  0  0  0  0  0  0
   58.7542   26.9395   43.1677 H   0  0  0  0  0  0  0  0  0  0  0  0
   58.0583   27.3590   47.0308 H   0  0  0  0  0  0  0  0  0  0  0  0
   57.1512   26.5047   45.6744 H   0  0  0  0  0  0  0  0  0  0  0  0
   58.9160   22.6716   44.0903 H   0  0  0  0  0  0  0  0  0  0  0  0
   57.2882   21.9088   42.3683 H   0  0  0  0  0  0  0  0  0  0  0  0
   54.9173   22.6655   42.4691 H   0  0  0  0  0  0  0  0  0  0  0  0
   54.1701   24.2044   44.2750 H   0  0  0  0  0  0  0  0  0  0  0  0
   55.1530   27.0850   45.3390 H   0  0  0  0  0  0  0  0  0  0  0  0
   57.6586   31.6995   47.3064 H   0  0  0  0  0  0  0  0  0  0  0  0
  1  2  1  0
  2  3  2  0
  2  4  1  0
  4  5  2  0
  5  6  1  0
  6  7  2  0
  7  8  1  0
  8  9  1  0
  9 10  1  0
 10 11  2  0
 10 12  1  0
 12 13  1  0
 13 14  1  0
 13 15  1  0
 15 16  1  0
 16 17  2  0
 16 18  1  0
 18 19  1  0
 19 20  2  0
 20 21  1  0
 21 22  2  0
 22 23  1  0
 23 24  2  0
 24 25  1  0
 25 26  1  0
 25 27  2  0
  8 28  2  0
 28  4  1  0
 24 19  1  0
  1 29  1  0
  1 30  1  0
  1 31  1  0
  5 32  1  0
  6 33  1  0
  7 34  1  0
 12 35  1  0
 12 36  1  0
 14 37  1  0
 14 38  1  0
 14 39  1  0
 15 40  1  0
 15 41  1  0
 20 42  1  0
 21 43  1  0
 22 44  1  0
 23 45  1  0
 26 46  1  0
 28 47  1  0
M  CHG  3   9  -1  18  -1  26  -1
M  END
>  <UniqueID>  (46) 
44

>  <SMILES>  (46) 
CC(=O)c1cccc([N-]C(=O)CN(C)CC(=O)[N-]c2ccccc2C([NH-])=O)c1

>  <Energy>  (46) 
66.05305946348584

>  <Genealogy>  (46) 
CC(=O)c1cccc([N-]C(=O)CN(C)CC(=O)[N-]c2ccccc2C([NH-])=O)c1 (protonated)
CC(=O)c1cccc([N-]C(=O)CN(C)CC(=O)[N-]c2ccccc2C([NH-])=O)c1 (3D coordinates assigned)
CC(=O)c1cccc([N-]C(=O)CN(C)CC(=O)[N-]c2ccccc2C([NH-])=O)c1 (optimized conformer: 66.05305946348584 kcal/mol)

>  <smiles>  (46) 
CC(=O)c1cccc(NC(=O)CN(C)CC(=O)Nc2ccccc2C(N)=O)c1

>  <score_type>  (46) 
oracle

>  <origin>  (46) 
adg

>  <m_score__min__energy>  (46) 
-14.970000000000001

>  <m_primary>  (46) 
energy

$$$$
46:0
     RDKit          3D

 49 52  0  0  0  0  0  0  0  0999 V2000
   61.0220   22.6370   45.0790 H   0  0  0  0  0  0  0  0  0  0  0  0
   60.3040   23.1040   45.6190 O   0  0  0  0  0  0  0  0  0  0  0  0
   58.9900   23.1480   45.1630 C   0  0  0  0  0  0  0  0  0  0  0  0
   58.3640   22.1100   44.5840 N   0  0  0  0  0  0  0  0  0  0  0  0
   57.1420   22.6170   44.3150 C   0  0  0  0  0  0  0  0  0  0  0  0
   56.2360   21.9450   43.7580 O   0  0  0  0  0  0  0  0  0  0  0  0
   56.9680   23.9030   44.6890 N   0  0  0  0  0  0  0  0  0  0  0  0
   58.1520   24.2370   45.2360 C   0  0  0  0  0  0  0  0  0  0  0  0
   58.5130   25.5580   45.7940 C   0  0  0  0  0  0  0  0  0  0  0  0
   59.3640   25.5913   46.4902 H   0  0  0  0  0  0  0  0  0  0  0  0
   57.8920   26.7280   45.5260 C   0  0  0  0  0  0  0  0  0  0  0  0
   56.5270   26.9970   45.6040 C   0  0  0  0  0  0  0  0  0  0  0  0
   55.7311   26.2943   45.8917 H   0  0  0  0  0  0  0  0  0  0  0  0
   56.3740   28.3180   45.2490 C   0  0  0  0  0  0  0  0  0  0  0  0
   55.1550   28.9810   45.1810 O   0  0  0  0  0  0  0  0  0  0  0  0
   57.5570   28.8860   44.9600 N   0  0  0  0  0  0  0  0  0  0  0  0
   57.7440   30.2450   44.5270 C   0  0  0  0  0  0  0  0  0  0  0  0
   57.3470   30.6160   43.2330 C   0  0  0  0  0  0  0  0  0  0  0  0
   56.9212   29.8619   42.5548 H   0  0  0  0  0  0  0  0  0  0  0  0
   57.4890   31.9360   42.8010 C   0  0  0  0  0  0  0  0  0  0  0  0
   57.1727   32.2194   41.7863 H   0  0  0  0  0  0  0  0  0  0  0  0
   58.0320   32.8960   43.6560 C   0  0  0  0  0  0  0  0  0  0  0  0
   58.1438   33.9355   43.3140 H   0  0  0  0  0  0  0  0  0  0  0  0
   58.4340   32.5390   44.9460 C   0  0  0  0  0  0  0  0  0  0  0  0
   58.8700   33.2980   45.6122 H   0  0  0  0  0  0  0  0  0  0  0  0
   58.2850   31.2180   45.3970 C   0  0  0  0  0  0  0  0  0  0  0  0
   58.7570   30.8470   46.7480 C   0  0  0  0  0  0  0  0  0  0  0  0
   58.1380   29.9540   47.3850 O   0  0  0  0  0  0  0  0  0  0  0  0
   59.8720   31.4940   47.3770 N   0  0  0  0  0  0  0  0  0  0  0  0
   61.1560   31.7990   46.7430 C   0  0  0  0  0  0  0  0  0  0  0  0
   61.1346   31.5124   45.6812 H   0  0  0  0  0  0  0  0  0  0  0  0
   62.2860   30.9830   47.4100 C   0  0  0  0  0  0  0  0  0  0  0  0
   61.8453   30.1089   47.9118 H   0  0  0  0  0  0  0  0  0  0  0  0
   62.9931   30.6743   46.6259 H   0  0  0  0  0  0  0  0  0  0  0  0
   63.0560   31.8150   48.4460 C   0  0  0  0  0  0  0  0  0  0  0  0
   62.3585   32.1262   49.2376 H   0  0  0  0  0  0  0  0  0  0  0  0
   63.8656   31.1864   48.8451 H   0  0  0  0  0  0  0  0  0  0  0  0
   63.6720   33.0200   47.8570 N   0  0  0  0  0  0  0  0  0  0  0  0
   64.6240   32.7660   47.5010 H   0  0  0  0  0  0  0  0  0  0  0  0
   62.9090   33.6180   46.7410 C   0  0  0  0  0  0  0  0  0  0  0  0
   63.0513   34.7086   46.7605 H   0  0  0  0  0  0  0  0  0  0  0  0
   63.2847   33.1785   45.8052 H   0  0  0  0  0  0  0  0  0  0  0  0
   61.4090   33.3160   46.8290 C   0  0  0  0  0  0  0  0  0  0  0  0
   61.0196   33.6939   47.7858 H   0  0  0  0  0  0  0  0  0  0  0  0
   60.8979   33.8092   45.9891 H   0  0  0  0  0  0  0  0  0  0  0  0
   58.5020   27.9280   45.1220 C   0  0  0  0  0  0  0  0  0  0  0  0
   59.8140   28.1380   44.9360 C   0  0  0  0  0  0  0  0  0  0  0  0
   60.1728   29.1276   44.6166 H   0  0  0  0  0  0  0  0  0  0  0  0
   60.5309   27.3206   45.1029 H   0  0  0  0  0  0  0  0  0  0  0  0
  1  2  1  0
  2  3  1  0
  3  4  1  0
  4  5  1  0
  5  6  2  0
  5  7  1  0
  7  8  1  0
  8  9  1  0
  9 10  1  0
  9 11  2  0
 11 12  1  0
 12 13  1  0
 12 14  2  0
 14 15  1  0
 14 16  1  0
 16 17  1  0
 17 18  2  0
 18 19  1  0
 18 20  1  0
 20 21  1  0
 20 22  2  0
 22 23  1  0
 22 24  1  0
 24 25  1  0
 24 26  2  0
 26 27  1  0
 27 28  2  0
 27 29  1  0
 29 30  1  0
 30 31  1  0
 30 32  1  0
 32 33  1  0
 32 34  1  0
 32 35  1  0
 35 36  1  0
 35 37  1  0
 35 38  1  0
 38 39  1  0
 38 40  1  0
 40 41  1  0
 40 42  1  0
 40 43  1  0
 43 44  1  0
 43 45  1  0
 16 46  1  0
 46 47  2  0
 47 48  1  0
 47 49  1  0
  8  3  2  0
 46 11  1  0
 26 17  1  0
 43 30  1  0
M  CHG  4   4  -1   7  -1  15  -1  29  -1
M  END
>  <UniqueID>  (47) 
45

>  <SMILES>  (47) 
C=c1/c(=C/c2[n-]c(=O)[n-]c2O)cc([O-])n1-c1ccccc1C(=O)[N-]C1CCNCC1

>  <Energy>  (47) 
132.8761630876819

>  <Genealogy>  (47) 
C=c1c(=Cc2[n-]c(=O)[n-]c2O)cc([O-])n1-c1ccccc1C(=O)[N-]C1CCNCC1 (protonated)
C=c1/c(=C/c2[n-]c(=O)[n-]c2O)cc([O-])n1-c1ccccc1C(=O)[N-]C1CCNCC1 (cis-trans isomerization)
C=c1/c(=C/c2[n-]c(=O)[n-]c2O)cc([O-])n1-c1ccccc1C(=O)[N-]C1CCNCC1 (3D coordinates assigned)
C=c1/c(=C/c2[n-]c(=O)[n-]c2O)cc([O-])n1-c1ccccc1C(=O)[N-]C1CCNCC1 (nonaromatic ring conformer: 132.8761630876819 kcal/mol)

>  <smiles>  (47) 
C=c1c(=Cc2[nH]c(=O)[nH]c2O)cc(O)n1-c1ccccc1C(=O)NC1CCNCC1

>  <score_type>  (47) 
oracle

>  <origin>  (47) 
adg

>  <m_score__min__energy>  (47) 
-15.93

>  <m_primary>  (47) 
energy

$$$$
47:0
     RDKit          3D

 41 43  0  0  0  0  0  0  0  0999 V2000
   57.6700   30.1710   44.2620 C   0  0  0  0  0  0  0  0  0  0  0  0
   58.0670   29.7280   45.4650 C   0  0  0  0  0  0  0  0  0  0  0  0
   58.0040   28.4100   45.9460 C   0  0  0  0  0  0  0  0  0  0  0  0
   57.7020   27.2510   45.3270 C   0  0  0  0  0  0  0  0  0  0  0  0
   57.1450   26.0510   45.9730 C   0  0  0  0  0  0  0  0  0  0  0  0
   57.8790   25.0510   46.4950 N   0  0  0  0  0  0  0  0  0  0  0  0
   56.9560   24.2680   47.0950 C   0  0  0  0  0  0  0  0  0  0  0  0
   57.2570   23.2030   47.6930 O   0  0  0  0  0  0  0  0  0  0  0  0
   55.6870   24.7230   47.0120 N   0  0  0  0  0  0  0  0  0  0  0  0
   55.8290   25.8600   46.3120 C   0  0  0  0  0  0  0  0  0  0  0  0
   54.7750   26.7090   45.9970 O   0  0  0  0  0  0  0  0  0  0  0  0
   58.3670   28.4670   47.2800 C   0  0  0  0  0  0  0  0  0  0  0  0
   58.6860   29.7800   47.5590 C   0  0  0  0  0  0  0  0  0  0  0  0
   59.1610   30.2510   48.8760 C   0  0  0  0  0  0  0  0  0  0  0  0
   60.3470   30.6650   48.9850 O   0  0  0  0  0  0  0  0  0  0  0  0
   58.3090   30.2070   50.0310 N   0  0  0  0  0  0  0  0  0  0  0  0
   58.6670   30.8470   51.2950 C   0  0  0  0  0  0  0  0  0  0  0  0
   57.4160   31.3120   52.0430 C   0  0  0  0  0  0  0  0  0  0  0  0
   56.2560   30.8420   51.4100 O   0  0  0  0  0  0  0  0  0  0  0  0
   58.5120   30.5470   46.4550 N   0  0  0  0  0  0  0  0  0  0  0  0
   58.8080   31.9520   46.3460 C   0  0  0  0  0  0  0  0  0  0  0  0
   60.1230   32.4150   46.5020 C   0  0  0  0  0  0  0  0  0  0  0  0
   60.4110   33.7750   46.3620 C   0  0  0  0  0  0  0  0  0  0  0  0
   59.3880   34.6800   46.0600 C   0  0  0  0  0  0  0  0  0  0  0  0
   59.6680   35.9990   45.9220 F   0  0  0  0  0  0  0  0  0  0  0  0
   58.0770   34.2230   45.8980 C   0  0  0  0  0  0  0  0  0  0  0  0
   57.7860   32.8630   46.0380 C   0  0  0  0  0  0  0  0  0  0  0  0
   57.7742   31.2357   44.0061 H   0  0  0  0  0  0  0  0  0  0  0  0
   57.2404   29.4694   43.5318 H   0  0  0  0  0  0  0  0  0  0  0  0
   57.8881   27.1972   44.2442 H   0  0  0  0  0  0  0  0  0  0  0  0
   58.3958   27.6237   47.9857 H   0  0  0  0  0  0  0  0  0  0  0  0
   57.4040   29.6900   49.9850 H   0  0  0  0  0  0  0  0  0  0  0  0
   59.2146   30.1272   51.9211 H   0  0  0  0  0  0  0  0  0  0  0  0
   59.2953   31.7240   51.0802 H   0  0  0  0  0  0  0  0  0  0  0  0
   57.4468   30.9263   53.0727 H   0  0  0  0  0  0  0  0  0  0  0  0
   57.3953   32.4118   52.0476 H   0  0  0  0  0  0  0  0  0  0  0  0
   55.8930   31.6010   50.8830 H   0  0  0  0  0  0  0  0  0  0  0  0
   60.9301   31.7050   46.7353 H   0  0  0  0  0  0  0  0  0  0  0  0
   61.4428   34.1343   46.4893 H   0  0  0  0  0  0  0  0  0  0  0  0
   57.2729   34.9348   45.6599 H   0  0  0  0  0  0  0  0  0  0  0  0
   56.7538   32.5061   45.9065 H   0  0  0  0  0  0  0  0  0  0  0  0
  1  2  2  0
  2  3  1  0
  3  4  2  3
  4  5  1  0
  5  6  1  0
  6  7  1  0
  7  8  2  0
  7  9  1  0
  9 10  1  0
 10 11  1  0
  3 12  1  0
 12 13  2  0
 13 14  1  0
 14 15  2  0
 14 16  1  0
 16 17  1  0
 17 18  1  0
 18 19  1  0
 13 20  1  0
 20 21  1  0
 21 22  2  0
 22 23  1  0
 23 24  2  0
 24 25  1  0
 24 26  1  0
 26 27  2  0
 20  2  1  0
 27 21  1  0
 10  5  2  0
  1 28  1  0
  1 29  1  0
  4 30  1  0
 12 31  1  0
 16 32  1  0
 17 33  1  0
 17 34  1  0
 18 35  1  0
 18 36  1  0
 19 37  1  0
 22 38  1  0
 23 39  1  0
 26 40  1  0
 27 41  1  0
M  CHG  3   6  -1   9  -1  11  -1
M  END
>  <UniqueID>  (48) 
46

>  <SMILES>  (48) 
C=c1c(=Cc2[n-]c(=O)[n-]c2[O-])cc(C(=O)NCCO)n1-c1ccc(F)cc1

>  <Energy>  (48) 
117.95039817314458

>  <Genealogy>  (48) 
C=c1c(=Cc2[n-]c(=O)[n-]c2[O-])cc(C(=O)NCCO)n1-c1ccc(F)cc1 (protonated)
C=c1c(=Cc2[n-]c(=O)[n-]c2[O-])cc(C(=O)NCCO)n1-c1ccc(F)cc1 (3D coordinates assigned)
C=c1c(=Cc2[n-]c(=O)[n-]c2[O-])cc(C(=O)NCCO)n1-c1ccc(F)cc1 (optimized conformer: 117.95039817314458 kcal/mol)

>  <smiles>  (48) 
C=c1c(=Cc2[nH]c(=O)[nH]c2O)cc(C(=O)NCCO)n1-c1ccc(F)cc1

>  <score_type>  (48) 
oracle

>  <origin>  (48) 
adg

>  <m_score__min__energy>  (48) 
-15.199999999999999

>  <m_primary>  (48) 
energy

$$$$
48:0
     RDKit          3D

 51 54  0  0  0  0  0  0  0  0999 V2000
   55.4090   29.0940   44.8230 N   0  0  0  0  0  0  0  0  0  0  0  0
   56.7650   29.4210   45.1250 C   0  0  0  0  0  0  0  0  0  0  0  0
   57.4060   28.6930   45.9290 O   0  0  0  0  0  0  0  0  0  0  0  0
   57.3950   30.6220   44.5270 C   0  0  0  0  0  0  0  0  0  0  0  0
   57.1680   30.9020   43.1660 C   0  0  0  0  0  0  0  0  0  0  0  0
   57.6640   32.0730   42.5850 C   0  0  0  0  0  0  0  0  0  0  0  0
   57.3570   32.4110   40.8910 Cl  0  0  0  0  0  0  0  0  0  0  0  0
   58.3900   32.9820   43.3560 C   0  0  0  0  0  0  0  0  0  0  0  0
   58.6390   32.7140   44.7020 C   0  0  0  0  0  0  0  0  0  0  0  0
   58.1720   31.5310   45.2930 C   0  0  0  0  0  0  0  0  0  0  0  0
   58.5170   31.2690   46.6610 N   0  0  0  0  0  0  0  0  0  0  0  0
   59.6410   30.4450   47.0200 C   0  0  0  0  0  0  0  0  0  0  0  0
   60.4520   30.0770   46.1270 O   0  0  0  0  0  0  0  0  0  0  0  0
   59.8690   30.0380   48.4270 C   0  0  0  0  0  0  0  0  0  0  0  0
   60.4440   28.7880   48.7140 C   0  0  0  0  0  0  0  0  0  0  0  0
   60.6550   28.3940   50.0380 C   0  0  0  0  0  0  0  0  0  0  0  0
   60.2910   29.2360   51.0890 C   0  0  0  0  0  0  0  0  0  0  0  0
   59.7020   30.4870   50.8230 C   0  0  0  0  0  0  0  0  0  0  0  0
   59.3100   31.3760   51.8390 O   0  0  0  0  0  0  0  0  0  0  0  0
   59.1110   32.7830   51.6870 C   0  0  0  0  0  0  0  0  0  0  0  0
   60.3730   33.4610   51.2270 C   0  0  0  0  0  0  0  0  0  0  0  0
   61.2290   33.8190   52.0800 O   0  0  0  0  0  0  0  0  0  0  0  0
   60.6080   33.7510   49.8380 N   0  0  0  0  0  0  0  0  0  0  0  0
   59.6000   34.3640   48.9730 C   0  0  0  0  0  0  0  0  0  0  0  0
   60.1560   34.2770   47.5330 C   0  0  0  0  0  0  0  0  0  0  0  0
   61.5060   33.6800   47.7200 C   0  0  0  0  0  0  0  0  0  0  0  0
   62.4820   33.4560   46.7480 C   0  0  0  0  0  0  0  0  0  0  0  0
   63.7240   32.9430   47.1520 C   0  0  0  0  0  0  0  0  0  0  0  0
   63.9750   32.6850   48.5130 C   0  0  0  0  0  0  0  0  0  0  0  0
   62.9790   32.9250   49.4740 C   0  0  0  0  0  0  0  0  0  0  0  0
   61.7320   33.3970   49.0410 C   0  0  0  0  0  0  0  0  0  0  0  0
   59.4950   30.8760   49.4940 C   0  0  0  0  0  0  0  0  0  0  0  0
   55.1480   28.1380   44.4940 H   0  0  0  0  0  0  0  0  0  0  0  0
   56.5940   30.1916   42.5529 H   0  0  0  0  0  0  0  0  0  0  0  0
   58.7662   33.9106   42.9018 H   0  0  0  0  0  0  0  0  0  0  0  0
   59.2070   33.4373   45.3056 H   0  0  0  0  0  0  0  0  0  0  0  0
   58.1020   31.8890   47.3930 H   0  0  0  0  0  0  0  0  0  0  0  0
   60.7296   28.1158   47.8915 H   0  0  0  0  0  0  0  0  0  0  0  0
   61.1100   27.4158   50.2524 H   0  0  0  0  0  0  0  0  0  0  0  0
   60.4646   28.9217   52.1287 H   0  0  0  0  0  0  0  0  0  0  0  0
   58.3187   32.9557   50.9437 H   0  0  0  0  0  0  0  0  0  0  0  0
   58.8238   33.2030   52.6622 H   0  0  0  0  0  0  0  0  0  0  0  0
   58.6491   33.8162   49.0482 H   0  0  0  0  0  0  0  0  0  0  0  0
   59.4028   35.4063   49.2640 H   0  0  0  0  0  0  0  0  0  0  0  0
   59.5238   33.6318   46.9053 H   0  0  0  0  0  0  0  0  0  0  0  0
   60.1843   35.2517   47.0240 H   0  0  0  0  0  0  0  0  0  0  0  0
   62.2822   33.6766   45.6890 H   0  0  0  0  0  0  0  0  0  0  0  0
   64.5040   32.7418   46.4029 H   0  0  0  0  0  0  0  0  0  0  0  0
   64.9547   32.2940   48.8250 H   0  0  0  0  0  0  0  0  0  0  0  0
   63.1731   32.7466   50.5420 H   0  0  0  0  0  0  0  0  0  0  0  0
   59.0331   31.8513   49.2807 H   0  0  0  0  0  0  0  0  0  0  0  0
  1  2  1  0
  2  3  2  0
  2  4  1  0
  4  5  2  0
  5  6  1  0
  6  7  1  0
  6  8  2  0
  8  9  1  0
  9 10  2  0
 10 11  1  0
 11 12  1  0
 12 13  2  0
 12 14  1  0
 14 15  2  0
 15 16  1  0
 16 17  2  0
 17 18  1  0
 18 19  1  0
 19 20  1  0
 20 21  1  0
 21 22  2  0
 21 23  1  0
 23 24  1  0
 24 25  1  0
 25 26  1  0
 26 27  2  0
 27 28  1  0
 28 29  2  0
 29 30  1  0
 30 31  2  0
 18 32  2  0
 10  4  1  0
 32 14  1  0
 31 23  1  0
 31 26  1  0
  1 33  1  0
  5 34  1  0
  8 35  1  0
  9 36  1  0
 11 37  1  0
 15 38  1  0
 16 39  1  0
 17 40  1  0
 20 41  1  0
 20 42  1  0
 24 43  1  0
 24 44  1  0
 25 45  1  0
 25 46  1  0
 27 47  1  0
 28 48  1  0
 29 49  1  0
 30 50  1  0
 32 51  1  0
M  CHG  1   1  -1
M  END
>  <UniqueID>  (49) 
47

>  <SMILES>  (49) 
[NH-]C(=O)c1cc(Cl)ccc1NC(=O)c1cccc(OCC(=O)N2CCc3ccccc32)c1

>  <Energy>  (49) 
84.87216483729696

>  <Genealogy>  (49) 
[NH-]C(=O)c1cc(Cl)ccc1NC(=O)c1cccc(OCC(=O)N2CCc3ccccc32)c1 (protonated)
[NH-]C(=O)c1cc(Cl)ccc1NC(=O)c1cccc(OCC(=O)N2CCc3ccccc32)c1 (3D coordinates assigned)
[NH-]C(=O)c1cc(Cl)ccc1NC(=O)c1cccc(OCC(=O)N2CCc3ccccc32)c1 (nonaromatic ring conformer: 84.87216483729696 kcal/mol)

>  <smiles>  (49) 
NC(=O)c1cc(Cl)ccc1NC(=O)c1cccc(OCC(=O)N2CCc3ccccc32)c1

>  <score_type>  (49) 
oracle

>  <origin>  (49) 
adg

>  <m_score__min__energy>  (49) 
-12.550000000000001

>  <m_primary>  (49) 
energy

$$$$
49:0
     RDKit          3D

 67 70  0  0  0  0  0  0  0  0999 V2000
   65.0260   31.1970   52.4290 C   0  0  0  0  0  0  0  0  0  0  0  0
   65.4500   31.1490   50.9560 C   0  0  0  0  0  0  0  0  0  0  0  0
   66.7840   31.8730   50.7430 C   0  0  0  0  0  0  0  0  0  0  0  0
   64.3710   31.7190   50.0540 C   0  0  0  0  0  0  0  0  0  0  0  0
   64.5650   32.9180   49.3590 C   0  0  0  0  0  0  0  0  0  0  0  0
   63.5640   33.4330   48.5330 C   0  0  0  0  0  0  0  0  0  0  0  0
   62.3380   32.7460   48.3420 C   0  0  0  0  0  0  0  0  0  0  0  0
   62.1420   31.5560   49.0720 C   0  0  0  0  0  0  0  0  0  0  0  0
   63.1460   31.0530   49.9170 C   0  0  0  0  0  0  0  0  0  0  0  0
   60.8150   30.8790   49.0440 C   0  0  0  0  0  0  0  0  0  0  0  0
   60.2440   30.8200   47.6350 C   0  0  0  0  0  0  0  0  0  0  0  0
   60.4220   32.0990   46.7260 C   0  0  1  0  0  0  0  0  0  0  0  0
   59.0390   32.4960   46.0300 C   0  0  1  0  0  0  0  0  0  0  0  0
   59.2090   33.2880   44.6970 C   0  0  0  0  0  0  0  0  0  0  0  0
   58.2680   31.2360   45.6120 C   0  0  0  0  0  0  0  0  0  0  0  0
   57.7380   30.4910   46.4840 O   0  0  0  0  0  0  0  0  0  0  0  0
   58.1210   30.9090   44.2200 N   0  0  0  0  0  0  0  0  0  0  0  0
   57.4140   29.7140   43.7680 C   0  0  0  0  0  0  0  0  0  0  0  0
   56.1350   29.5510   44.5290 C   0  0  0  0  0  0  0  0  0  0  0  0
   55.2730   30.4710   44.5010 O   0  0  0  0  0  0  0  0  0  0  0  0
   55.8910   28.3350   45.2470 N   0  0  0  0  0  0  0  0  0  0  0  0
   56.8830   27.4320   45.7550 C   0  0  0  0  0  0  0  0  0  0  0  0
   58.2430   27.7880   45.8330 C   0  0  0  0  0  0  0  0  0  0  0  0
   59.1850   26.8690   46.3070 C   0  0  0  0  0  0  0  0  0  0  0  0
   58.7830   25.5870   46.6920 C   0  0  0  0  0  0  0  0  0  0  0  0
   57.4380   25.2190   46.5920 C   0  0  0  0  0  0  0  0  0  0  0  0
   56.4930   26.1350   46.1200 C   0  0  0  0  0  0  0  0  0  0  0  0
   55.1910   25.7600   46.0250 F   0  0  0  0  0  0  0  0  0  0  0  0
   58.1910   33.3280   47.0350 C   0  0  0  0  0  0  0  0  0  0  0  0
   58.9400   34.5340   47.6210 C   0  0  0  0  0  0  0  0  0  0  0  0
   60.2270   34.1140   48.3390 C   0  0  0  0  0  0  0  0  0  0  0  0
   61.1960   33.2960   47.4430 C   0  0  1  0  0  0  0  0  0  0  0  0
   61.8200   34.2420   46.3730 C   0  0  0  0  0  0  0  0  0  0  0  0
   65.9144   31.0964   53.0697 H   0  0  0  0  0  0  0  0  0  0  0  0
   64.5308   32.1569   52.6369 H   0  0  0  0  0  0  0  0  0  0  0  0
   64.3287   30.3721   52.6369 H   0  0  0  0  0  0  0  0  0  0  0  0
   65.5907   30.0927   50.6832 H   0  0  0  0  0  0  0  0  0  0  0  0
   67.2298   32.1150   51.7191 H   0  0  0  0  0  0  0  0  0  0  0  0
   67.4682   31.2224   50.1785 H   0  0  0  0  0  0  0  0  0  0  0  0
   66.6114   32.8012   50.1785 H   0  0  0  0  0  0  0  0  0  0  0  0
   65.5161   33.4605   49.4645 H   0  0  0  0  0  0  0  0  0  0  0  0
   63.7297   34.3916   48.0196 H   0  0  0  0  0  0  0  0  0  0  0  0
   62.9677   30.1240   50.4783 H   0  0  0  0  0  0  0  0  0  0  0  0
   60.9296   29.8537   49.4256 H   0  0  0  0  0  0  0  0  0  0  0  0
   60.1212   31.4575   49.6716 H   0  0  0  0  0  0  0  0  0  0  0  0
   60.7269   29.9777   47.1180 H   0  0  0  0  0  0  0  0  0  0  0  0
   59.1573   30.7228   47.7751 H   0  0  0  0  0  0  0  0  0  0  0  0
   61.1072   31.8367   45.9064 H   0  0  0  0  0  0  0  0  0  0  0  0
   59.4350   34.3407   44.9222 H   0  0  0  0  0  0  0  0  0  0  0  0
   60.0341   32.8524   44.1144 H   0  0  0  0  0  0  0  0  0  0  0  0
   58.2778   33.2294   44.1144 H   0  0  0  0  0  0  0  0  0  0  0  0
   58.5410   31.5330   43.4960 H   0  0  0  0  0  0  0  0  0  0  0  0
   57.1891   29.8088   42.6954 H   0  0  0  0  0  0  0  0  0  0  0  0
   58.0499   28.8334   43.9420 H   0  0  0  0  0  0  0  0  0  0  0  0
   58.5657   28.7920   45.5202 H   0  0  0  0  0  0  0  0  0  0  0  0
   60.2446   27.1560   46.3769 H   0  0  0  0  0  0  0  0  0  0  0  0
   59.5238   24.8687   47.0731 H   0  0  0  0  0  0  0  0  0  0  0  0
   57.1226   24.2068   46.8852 H   0  0  0  0  0  0  0  0  0  0  0  0
   57.8892   32.6701   47.8633 H   0  0  0  0  0  0  0  0  0  0  0  0
   57.3282   33.7234   46.4789 H   0  0  0  0  0  0  0  0  0  0  0  0
   58.2829   35.0458   48.3395 H   0  0  0  0  0  0  0  0  0  0  0  0
   59.2152   35.2006   46.7904 H   0  0  0  0  0  0  0  0  0  0  0  0
   59.9554   33.4995   49.2100 H   0  0  0  0  0  0  0  0  0  0  0  0
   60.7529   35.0361   48.6274 H   0  0  0  0  0  0  0  0  0  0  0  0
   62.3588   35.0589   46.8754 H   0  0  0  0  0  0  0  0  0  0  0  0
   62.5205   33.6728   45.7442 H   0  0  0  0  0  0  0  0  0  0  0  0
   61.0211   34.6619   45.7442 H   0  0  0  0  0  0  0  0  0  0  0  0
  1  2  1  0
  2  3  1  0
  2  4  1  0
  4  5  2  0
  5  6  1  0
  6  7  2  0
  7  8  1  0
  8  9  2  0
  8 10  1  0
 10 11  1  0
 11 12  1  0
 12 13  1  0
 13 14  1  6
 13 15  1  0
 15 16  2  0
 15 17  1  0
 17 18  1  0
 18 19  1  0
 19 20  2  0
 19 21  1  0
 21 22  1  0
 22 23  2  0
 23 24  1  0
 24 25  2  0
 25 26  1  0
 26 27  2  0
 27 28  1  0
 13 29  1  0
 29 30  1  0
 30 31  1  0
 31 32  1  0
 32 33  1  6
  9  4  1  0
 32 12  1  0
 32  7  1  0
 27 22  1  0
  1 34  1  0
  1 35  1  0
  1 36  1  0
  2 37  1  0
  3 38  1  0
  3 39  1  0
  3 40  1  0
  5 41  1  0
  6 42  1  0
  9 43  1  0
 10 44  1  0
 10 45  1  0
 11 46  1  0
 11 47  1  0
 12 48  1  6
 14 49  1  0
 14 50  1  0
 14 51  1  0
 17 52  1  0
 18 53  1  0
 18 54  1  0
 23 55  1  0
 24 56  1  0
 25 57  1  0
 26 58  1  0
 29 59  1  0
 29 60  1  0
 30 61  1  0
 30 62  1  0
 31 63  1  0
 31 64  1  0
 33 65  1  0
 33 66  1  0
 33 67  1  0
M  CHG  1  21  -1
M  END
>  <UniqueID>  (50) 
48

>  <SMILES>  (50) 
CC(C)c1ccc2c(c1)CC[C@@H]1C2(C)CCC[C@]1(C)C(=O)NCC(=O)[N-]c1ccccc1F

>  <Energy>  (50) 
92.93524326313742

>  <Genealogy>  (50) 
CC(C)c1ccc2c(c1)CCC1C(C)(C(=O)NCC(=O)[N-]c3ccccc3F)CCCC21C (protonated)
CC(C)c1ccc2c(c1)CC[C@@H]1C2(C)CCC[C@]1(C)C(=O)NCC(=O)[N-]c1ccccc1F (chirality)
CC(C)c1ccc2c(c1)CC[C@@H]1C2(C)CCC[C@]1(C)C(=O)NCC(=O)[N-]c1ccccc1F (3D coordinates assigned)
CC(C)c1ccc2c(c1)CC[C@@H]1C2(C)CCC[C@]1(C)C(=O)NCC(=O)[N-]c1ccccc1F (nonaromatic ring conformer: 92.93524326313742 kcal/mol)

>  <smiles>  (50) 
CC(C)c1ccc2c(c1)CCC1C(C)(C(=O)NCC(=O)Nc3ccccc3F)CCCC21C

>  <score_type>  (50) 
oracle

>  <origin>  (50) 
adg

>  <m_score__min__energy>  (50) 
-12.48

>  <m_primary>  (50) 
energy

$$$$
50:0
     RDKit          3D

 26 27  0  0  0  0  0  0  0  0999 V2000
   56.1020   24.5200   46.9630 H   0  0  0  0  0  0  0  0  0  0  0  0
   57.0140   24.9440   46.8440 O   0  0  0  0  0  0  0  0  0  0  0  0
   57.1750   26.2060   46.2750 C   0  0  0  0  0  0  0  0  0  0  0  0
   58.4650   26.7250   46.1240 C   0  0  0  0  0  0  0  0  0  0  0  0
   59.3335   26.1377   46.4567 H   0  0  0  0  0  0  0  0  0  0  0  0
   58.6560   27.9850   45.5530 C   0  0  0  0  0  0  0  0  0  0  0  0
   59.6733   28.3900   45.4475 H   0  0  0  0  0  0  0  0  0  0  0  0
   57.5550   28.7370   45.1130 C   0  0  0  0  0  0  0  0  0  0  0  0
   57.7530   30.0660   44.5010 C   0  0  0  0  0  0  0  0  0  0  0  0
   58.5427   30.1800   43.7438 H   0  0  0  0  0  0  0  0  0  0  0  0
   57.0390   31.1110   44.8130 N   0  0  0  0  0  0  0  0  0  0  0  0
   57.2970   32.4940   44.4080 C   0  0  0  0  0  0  0  0  0  0  0  0
   57.9019   32.4930   43.4893 H   0  0  0  0  0  0  0  0  0  0  0  0
   56.3328   32.9940   44.2338 H   0  0  0  0  0  0  0  0  0  0  0  0
   58.0340   33.2380   45.4790 C   0  0  0  0  0  0  0  0  0  0  0  0
   57.9670   32.9420   46.7570 O   0  0  0  0  0  0  0  0  0  0  0  0
   58.7490   33.7640   47.4170 C   0  0  0  0  0  0  0  0  0  0  0  0
   58.8991   33.7576   48.5067 H   0  0  0  0  0  0  0  0  0  0  0  0
   59.3540   34.6370   46.5370 C   0  0  0  0  0  0  0  0  0  0  0  0
   60.0628   35.4406   46.7858 H   0  0  0  0  0  0  0  0  0  0  0  0
   58.8920   34.3000   45.2840 C   0  0  0  0  0  0  0  0  0  0  0  0
   59.1527   34.7778   44.3281 H   0  0  0  0  0  0  0  0  0  0  0  0
   56.2570   28.2280   45.2840 C   0  0  0  0  0  0  0  0  0  0  0  0
   55.1520   28.9670   44.8700 O   0  0  0  0  0  0  0  0  0  0  0  0
   56.0670   26.9620   45.8570 C   0  0  0  0  0  0  0  0  0  0  0  0
   54.7790   26.4610   46.0080 O   0  0  0  0  0  0  0  0  0  0  0  0
  1  2  1  0
  2  3  1  0
  3  4  2  0
  4  5  1  0
  4  6  1  0
  6  7  1  0
  6  8  2  0
  8  9  1  0
  9 10  1  0
  9 11  2  0
 11 12  1  0
 12 13  1  0
 12 14  1  0
 12 15  1  0
 15 16  1  0
 16 17  1  0
 17 18  1  0
 17 19  2  0
 19 20  1  0
 19 21  1  0
 21 22  1  0
  8 23  1  0
 23 24  1  0
 23 25  2  0
 25 26  1  0
 25  3  1  0
 21 15  2  0
M  CHG  2  24  -1  26  -1
M  END
>  <UniqueID>  (51) 
49

>  <SMILES>  (51) 
[O-]c1c(O)ccc(/C=N\Cc2ccco2)c1[O-]

>  <Energy>  (51) 
57.66600913341109

>  <Genealogy>  (51) 
[O-]c1c(O)ccc(C=NCc2ccco2)c1[O-] (protonated)
[O-]c1c(O)ccc(/C=N\Cc2ccco2)c1[O-] (cis-trans isomerization)
[O-]c1c(O)ccc(/C=N\Cc2ccco2)c1[O-] (3D coordinates assigned)
[O-]c1c(O)ccc(/C=N\Cc2ccco2)c1[O-] (optimized conformer: 57.66600913341109 kcal/mol)

>  <smiles>  (51) 
Oc1ccc(C=NCc2ccco2)c(O)c1O

>  <score_type>  (51) 
oracle

>  <origin>  (51) 
adg

>  <m_score__min__energy>  (51) 
-13.369999999999999

>  <m_primary>  (51) 
energy

$$$$
51:0
     RDKit          3D

 56 58  0  0  0  0  0  0  0  0999 V2000
   63.8530   32.7950   48.1050 C   0  0  0  0  0  0  0  0  0  0  0  0
   62.4650   33.1350   48.4010 N   0  0  0  0  0  0  0  0  0  0  0  0
   62.0260   34.0920   49.2440 C   0  0  0  0  0  0  0  0  0  0  0  0
   62.8580   34.9470   49.9560 O   0  0  0  0  0  0  0  0  0  0  0  0
   60.6460   34.1000   49.3150 C   0  0  0  0  0  0  0  0  0  0  0  0
   60.2220   33.0920   48.4650 C   0  0  0  0  0  0  0  0  0  0  0  0
   58.8080   32.6400   48.2640 C   0  0  0  0  0  0  0  0  0  0  0  0
   58.4140   32.8020   46.8220 C   0  0  0  0  0  0  0  0  0  0  0  0
   58.5950   34.0330   46.1730 C   0  0  0  0  0  0  0  0  0  0  0  0
   58.1770   34.1990   44.8510 C   0  0  0  0  0  0  0  0  0  0  0  0
   57.5740   33.1400   44.1670 C   0  0  0  0  0  0  0  0  0  0  0  0
   57.3980   31.9010   44.7950 C   0  0  0  0  0  0  0  0  0  0  0  0
   56.7370   30.8490   44.0800 N   0  0  0  0  0  0  0  0  0  0  0  0
   56.3700   29.5660   44.6020 C   0  0  0  0  0  0  0  0  0  0  0  0
   55.1600   29.3470   44.8780 O   0  0  0  0  0  0  0  0  0  0  0  0
   57.3780   28.4640   44.7850 C   0  0  0  0  0  0  0  0  0  0  0  0
   57.0020   27.5970   45.9440 C   0  0  0  0  0  0  0  0  0  0  0  0
   55.9350   26.9250   45.9060 O   0  0  0  0  0  0  0  0  0  0  0  0
   57.8820   27.4990   47.0690 N   0  0  0  0  0  0  0  0  0  0  0  0
   58.5370   28.6480   47.6850 C   0  0  0  0  0  0  0  0  0  0  0  0
   60.0200   28.3500   47.9330 C   0  0  0  0  0  0  0  0  0  0  0  0
   60.3200   28.1340   49.4210 C   0  0  0  0  0  0  0  0  0  0  0  0
   60.4200   29.4100   50.1320 N   0  0  0  0  0  0  0  0  0  0  0  0
   61.6700   30.0630   50.4720 C   0  0  0  0  0  0  0  0  0  0  0  0
   61.2830   31.3620   51.2050 C   0  0  0  0  0  0  0  0  0  0  0  0
   59.7690   31.3050   51.4680 C   0  0  0  0  0  0  0  0  0  0  0  0
   59.3420   30.1010   50.7320 C   0  0  0  0  0  0  0  0  0  0  0  0
   58.1460   29.7090   50.6650 O   0  0  0  0  0  0  0  0  0  0  0  0
   57.7950   31.7450   46.1350 C   0  0  0  0  0  0  0  0  0  0  0  0
   61.3620   32.5130   47.9380 C   0  0  0  0  0  0  0  0  0  0  0  0
   61.3730   31.4290   47.0620 O   0  0  0  0  0  0  0  0  0  0  0  0
   64.4060   32.6595   49.0462 H   0  0  0  0  0  0  0  0  0  0  0  0
   63.8859   31.8622   47.5229 H   0  0  0  0  0  0  0  0  0  0  0  0
   64.3133   33.6070   47.5229 H   0  0  0  0  0  0  0  0  0  0  0  0
   60.0156   34.7678   49.9205 H   0  0  0  0  0  0  0  0  0  0  0  0
   58.7206   31.5810   48.5483 H   0  0  0  0  0  0  0  0  0  0  0  0
   58.1419   33.2517   48.8902 H   0  0  0  0  0  0  0  0  0  0  0  0
   59.0678   34.8701   46.7075 H   0  0  0  0  0  0  0  0  0  0  0  0
   58.3227   35.1657   44.3468 H   0  0  0  0  0  0  0  0  0  0  0  0
   57.2358   33.2806   43.1297 H   0  0  0  0  0  0  0  0  0  0  0  0
   57.4147   27.8517   43.8719 H   0  0  0  0  0  0  0  0  0  0  0  0
   58.3632   28.9122   44.9811 H   0  0  0  0  0  0  0  0  0  0  0  0
   58.4491   29.5167   47.0160 H   0  0  0  0  0  0  0  0  0  0  0  0
   58.0506   28.8612   48.6483 H   0  0  0  0  0  0  0  0  0  0  0  0
   60.2973   27.4411   47.3790 H   0  0  0  0  0  0  0  0  0  0  0  0
   60.6034   29.2174   47.5906 H   0  0  0  0  0  0  0  0  0  0  0  0
   59.5108   27.5372   49.8671 H   0  0  0  0  0  0  0  0  0  0  0  0
   61.2830   27.6097   49.5095 H   0  0  0  0  0  0  0  0  0  0  0  0
   62.2722   29.4180   51.1288 H   0  0  0  0  0  0  0  0  0  0  0  0
   62.2740   30.2697   49.5762 H   0  0  0  0  0  0  0  0  0  0  0  0
   61.8281   31.4333   52.1578 H   0  0  0  0  0  0  0  0  0  0  0  0
   61.5400   32.2429   50.5983 H   0  0  0  0  0  0  0  0  0  0  0  0
   59.5593   31.2046   52.5432 H   0  0  0  0  0  0  0  0  0  0  0  0
   59.2417   32.2154   51.1468 H   0  0  0  0  0  0  0  0  0  0  0  0
   57.6195   30.7883   46.6487 H   0  0  0  0  0  0  0  0  0  0  0  0
   60.5310   31.1200   46.5910 H   0  0  0  0  0  0  0  0  0  0  0  0
  1  2  1  0
  2  3  1  0
  3  4  1  0
  3  5  2  0
  5  6  1  0
  6  7  1  0
  7  8  1  0
  8  9  2  0
  9 10  1  0
 10 11  2  0
 11 12  1  0
 12 13  1  0
 13 14  1  0
 14 15  2  0
 14 16  1  0
 16 17  1  0
 17 18  2  0
 17 19  1  0
 19 20  1  0
 20 21  1  0
 21 22  1  0
 22 23  1  0
 23 24  1  0
 24 25  1  0
 25 26  1  0
 26 27  1  0
 27 28  2  0
 12 29  2  0
  6 30  2  0
 30 31  1  0
 30  2  1  0
 29  8  1  0
 27 23  1  0
  1 32  1  0
  1 33  1  0
  1 34  1  0
  5 35  1  0
  7 36  1  0
  7 37  1  0
  9 38  1  0
 10 39  1  0
 11 40  1  0
 16 41  1  0
 16 42  1  0
 20 43  1  0
 20 44  1  0
 21 45  1  0
 21 46  1  0
 22 47  1  0
 22 48  1  0
 24 49  1  0
 24 50  1  0
 25 51  1  0
 25 52  1  0
 26 53  1  0
 26 54  1  0
 29 55  1  0
 31 56  1  0
M  CHG  3   4  -1  13  -1  19  -1
M  END
>  <UniqueID>  (52) 
50

>  <SMILES>  (52) 
Cn1c([O-])cc(Cc2cccc([N-]C(=O)CC(=O)[N-]CCCN3CCCC3=O)c2)c1O

>  <Energy>  (52) 
82.81239817317696

>  <Genealogy>  (52) 
Cn1c([O-])cc(Cc2cccc([N-]C(=O)CC(=O)[N-]CCCN3CCCC3=O)c2)c1O (protonated)
Cn1c([O-])cc(Cc2cccc([N-]C(=O)CC(=O)[N-]CCCN3CCCC3=O)c2)c1O (3D coordinates assigned)
Cn1c([O-])cc(Cc2cccc([N-]C(=O)CC(=O)[N-]CCCN3CCCC3=O)c2)c1O (nonaromatic ring conformer: 82.81239817317696 kcal/mol)

>  <smiles>  (52) 
Cn1c(O)cc(Cc2cccc(NC(=O)CC(=O)NCCCN3CCCC3=O)c2)c1O

>  <score_type>  (52) 
oracle

>  <origin>  (52) 
adg

>  <m_score__min__energy>  (52) 
-13.01

>  <m_primary>  (52) 
energy

$$$$
52:0
     RDKit          3D

 48 50  0  0  0  0  0  0  0  0999 V2000
   59.7770   27.8950   45.3050 C   0  0  0  0  0  0  0  0  0  0  0  0
   58.4990   27.2190   45.6830 C   0  0  0  0  0  0  0  0  0  0  0  0
   58.4500   26.0130   46.2900 N   0  0  0  0  0  0  0  0  0  0  0  0
   57.1760   25.7040   46.4710 N   0  0  0  0  0  0  0  0  0  0  0  0
   56.7250   24.4800   47.1320 C   0  0  0  0  0  0  0  0  0  0  0  0
   56.3650   23.3960   46.0960 C   0  0  0  0  0  0  0  0  0  0  0  0
   55.1550   23.8350   45.2280 C   0  0  0  0  0  0  0  0  0  0  0  0
   55.1330   23.1060   43.8820 C   0  0  0  0  0  0  0  0  0  0  0  0
   56.3880   23.4270   43.0440 C   0  0  0  0  0  0  0  0  0  0  0  0
   57.6280   23.7540   43.8990 C   0  0  0  0  0  0  0  0  0  0  0  0
   57.6030   23.0110   45.2390 C   0  0  0  0  0  0  0  0  0  0  0  0
   56.4070   26.7000   45.9920 C   0  0  0  0  0  0  0  0  0  0  0  0
   55.1470   26.6860   45.9970 O   0  0  0  0  0  0  0  0  0  0  0  0
   57.2090   27.7010   45.4770 C   0  0  0  0  0  0  0  0  0  0  0  0
   56.8010   28.9650   44.8270 C   0  0  0  0  0  0  0  0  0  0  0  0
   55.7080   29.5010   45.1510 O   0  0  0  0  0  0  0  0  0  0  0  0
   57.6270   29.5800   43.8280 N   0  0  0  0  0  0  0  0  0  0  0  0
   57.3810   30.9350   43.3380 C   0  0  0  0  0  0  0  0  0  0  0  0
   57.8950   31.9450   44.3280 C   0  0  0  0  0  0  0  0  0  0  0  0
   57.7330   33.3170   44.0800 C   0  0  0  0  0  0  0  0  0  0  0  0
   58.2320   34.2610   44.9810 C   0  0  0  0  0  0  0  0  0  0  0  0
   58.9030   33.8420   46.1360 C   0  0  0  0  0  0  0  0  0  0  0  0
   59.5310   35.0280   47.2660 Cl  0  0  0  0  0  0  0  0  0  0  0  0
   59.0740   32.4770   46.3860 C   0  0  0  0  0  0  0  0  0  0  0  0
   58.5750   31.5300   45.4850 C   0  0  0  0  0  0  0  0  0  0  0  0
   60.3225   28.1835   46.2156 H   0  0  0  0  0  0  0  0  0  0  0  0
   60.3946   27.2056   44.7106 H   0  0  0  0  0  0  0  0  0  0  0  0
   59.5547   28.7935   44.7106 H   0  0  0  0  0  0  0  0  0  0  0  0
   57.5291   24.1043   47.7818 H   0  0  0  0  0  0  0  0  0  0  0  0
   55.8280   24.7109   47.7253 H   0  0  0  0  0  0  0  0  0  0  0  0
   56.0567   22.4883   46.6356 H   0  0  0  0  0  0  0  0  0  0  0  0
   54.2255   23.6096   45.7713 H   0  0  0  0  0  0  0  0  0  0  0  0
   55.2446   24.9140   45.0335 H   0  0  0  0  0  0  0  0  0  0  0  0
   55.0921   22.0218   44.0634 H   0  0  0  0  0  0  0  0  0  0  0  0
   54.2485   23.4431   43.3216 H   0  0  0  0  0  0  0  0  0  0  0  0
   56.6189   22.5553   42.4140 H   0  0  0  0  0  0  0  0  0  0  0  0
   56.1597   24.3225   42.4474 H   0  0  0  0  0  0  0  0  0  0  0  0
   58.5313   23.4595   43.3446 H   0  0  0  0  0  0  0  0  0  0  0  0
   57.6276   24.8345   44.1054 H   0  0  0  0  0  0  0  0  0  0  0  0
   57.5773   21.9287   45.0444 H   0  0  0  0  0  0  0  0  0  0  0  0
   58.5057   23.2934   45.8006 H   0  0  0  0  0  0  0  0  0  0  0  0
   58.4090   29.0400   43.3960 H   0  0  0  0  0  0  0  0  0  0  0  0
   57.8969   31.0732   42.3764 H   0  0  0  0  0  0  0  0  0  0  0  0
   56.2984   31.0789   43.2065 H   0  0  0  0  0  0  0  0  0  0  0  0
   57.2104   33.6508   43.1714 H   0  0  0  0  0  0  0  0  0  0  0  0
   58.0975   35.3346   44.7826 H   0  0  0  0  0  0  0  0  0  0  0  0
   59.6019   32.1470   47.2929 H   0  0  0  0  0  0  0  0  0  0  0  0
   58.7156   30.4572   45.6833 H   0  0  0  0  0  0  0  0  0  0  0  0
  1  2  1  0
  2  3  1  0
  3  4  1  0
  4  5  1  0
  5  6  1  0
  6  7  1  0
  7  8  1  0
  8  9  1  0
  9 10  1  0
 10 11  1  0
  4 12  1  0
 12 13  2  0
 12 14  1  0
 14 15  1  0
 15 16  2  0
 15 17  1  0
 17 18  1  0
 18 19  1  0
 19 20  2  0
 20 21  1  0
 21 22  2  0
 22 23  1  0
 22 24  1  0
 24 25  2  0
 14  2  2  0
 25 19  1  0
 11  6  1  0
  1 26  1  0
  1 27  1  0
  1 28  1  0
  5 29  1  0
  5 30  1  0
  6 31  1  0
  7 32  1  0
  7 33  1  0
  8 34  1  0
  8 35  1  0
  9 36  1  0
  9 37  1  0
 10 38  1  0
 10 39  1  0
 11 40  1  0
 11 41  1  0
 17 42  1  0
 18 43  1  0
 18 44  1  0
 20 45  1  0
 21 46  1  0
 24 47  1  0
 25 48  1  0
M  CHG  1   3  -1
M  END
>  <UniqueID>  (53) 
51

>  <SMILES>  (53) 
Cc1[n-]n(CC2CCCCC2)c(=O)c1C(=O)NCc1ccc(Cl)cc1

>  <Energy>  (53) 
78.7390657653298

>  <Genealogy>  (53) 
Cc1[n-]n(CC2CCCCC2)c(=O)c1C(=O)NCc1ccc(Cl)cc1 (protonated)
Cc1[n-]n(CC2CCCCC2)c(=O)c1C(=O)NCc1ccc(Cl)cc1 (3D coordinates assigned)
Cc1[n-]n(CC2CCCCC2)c(=O)c1C(=O)NCc1ccc(Cl)cc1 (nonaromatic ring conformer: 78.7390657653298 kcal/mol)

>  <smiles>  (53) 
Cc1[nH]n(CC2CCCCC2)c(=O)c1C(=O)NCc1ccc(Cl)cc1

>  <score_type>  (53) 
oracle

>  <origin>  (53) 
adg

>  <m_score__min__energy>  (53) 
-10.699999999999999

>  <m_primary>  (53) 
energy

$$$$
53:0
     RDKit          3D

 48 51  0  0  0  0  0  0  0  0999 V2000
   55.4040   29.6520   43.1690 O   0  0  0  0  0  0  0  0  0  0  0  0
   56.3420   29.3900   43.9670 C   0  0  0  0  0  0  0  0  0  0  0  0
   57.3350   28.3140   43.5980 C   0  0  0  0  0  0  0  0  0  0  0  0
   57.8200   27.5440   44.8070 C   0  0  0  0  0  0  0  0  0  0  0  0
   59.1950   27.3050   44.9770 C   0  0  0  0  0  0  0  0  0  0  0  0
   59.6650   26.6440   46.1150 C   0  0  0  0  0  0  0  0  0  0  0  0
   58.7680   26.1950   47.0830 C   0  0  0  0  0  0  0  0  0  0  0  0
   57.3980   26.4020   46.9140 C   0  0  0  0  0  0  0  0  0  0  0  0
   56.9150   27.0700   45.7790 C   0  0  0  0  0  0  0  0  0  0  0  0
   55.5440   27.2690   45.6190 O   0  0  0  0  0  0  0  0  0  0  0  0
   56.4130   30.1060   45.2070 N   0  0  0  0  0  0  0  0  0  0  0  0
   57.6000   30.7080   45.7280 C   0  0  0  0  0  0  0  0  0  0  0  0
   58.3560   30.0180   46.6820 C   0  0  0  0  0  0  0  0  0  0  0  0
   59.5560   30.5570   47.1490 C   0  0  0  0  0  0  0  0  0  0  0  0
   59.9960   31.8120   46.6970 C   0  0  0  0  0  0  0  0  0  0  0  0
   61.2660   32.3900   47.1850 C   0  0  0  0  0  0  0  0  0  0  0  0
   61.8610   33.5260   46.6350 C   0  0  0  0  0  0  0  0  0  0  0  0
   63.2820   33.8280   47.4790 S   0  0  0  0  0  0  0  0  0  0  0  0
   63.0870   32.5080   48.5060 C   0  0  0  0  0  0  0  0  0  0  0  0
   64.0190   32.0990   49.5280 N   0  0  0  0  0  0  0  0  0  0  0  0
   63.5700   31.2000   50.6010 C   0  0  0  0  0  0  0  0  0  0  0  0
   64.7650   30.5600   51.3140 C   0  0  0  0  0  0  0  0  0  0  0  0
   65.7180   31.5380   51.6780 O   0  0  0  0  0  0  0  0  0  0  0  0
   66.2870   32.0920   50.5100 C   0  0  0  0  0  0  0  0  0  0  0  0
   65.2420   32.8880   49.7230 C   0  0  0  0  0  0  0  0  0  0  0  0
   61.9510   31.8340   48.2230 N   0  0  0  0  0  0  0  0  0  0  0  0
   59.2030   32.5220   45.7780 C   0  0  0  0  0  0  0  0  0  0  0  0
   58.0180   31.9680   45.2840 C   0  0  0  0  0  0  0  0  0  0  0  0
   56.8540   27.6122   42.9008 H   0  0  0  0  0  0  0  0  0  0  0  0
   58.2063   28.8025   43.1373 H   0  0  0  0  0  0  0  0  0  0  0  0
   59.9064   27.6409   44.2082 H   0  0  0  0  0  0  0  0  0  0  0  0
   60.7443   26.4778   46.2471 H   0  0  0  0  0  0  0  0  0  0  0  0
   59.1397   25.6777   47.9798 H   0  0  0  0  0  0  0  0  0  0  0  0
   56.6925   26.0389   47.6758 H   0  0  0  0  0  0  0  0  0  0  0  0
   55.1530   28.1940   45.5010 H   0  0  0  0  0  0  0  0  0  0  0  0
   58.0040   29.0487   47.0648 H   0  0  0  0  0  0  0  0  0  0  0  0
   60.1611   29.9952   47.8758 H   0  0  0  0  0  0  0  0  0  0  0  0
   61.4686   34.1196   45.7961 H   0  0  0  0  0  0  0  0  0  0  0  0
   62.9815   31.7758   51.3305 H   0  0  0  0  0  0  0  0  0  0  0  0
   62.9570   30.4018   50.1571 H   0  0  0  0  0  0  0  0  0  0  0  0
   64.4111   30.0471   52.2205 H   0  0  0  0  0  0  0  0  0  0  0  0
   65.2409   29.8436   50.6282 H   0  0  0  0  0  0  0  0  0  0  0  0
   67.1126   32.7615   50.7932 H   0  0  0  0  0  0  0  0  0  0  0  0
   66.6591   31.2738   49.8759 H   0  0  0  0  0  0  0  0  0  0  0  0
   64.9944   33.8046   50.2784 H   0  0  0  0  0  0  0  0  0  0  0  0
   65.6601   33.1372   48.7366 H   0  0  0  0  0  0  0  0  0  0  0  0
   59.5177   33.5220   45.4448 H   0  0  0  0  0  0  0  0  0  0  0  0
   57.4157   32.5210   44.5482 H   0  0  0  0  0  0  0  0  0  0  0  0
  1  2  2  0
  2  3  1  0
  3  4  1  0
  4  5  2  0
  5  6  1  0
  6  7  2  0
  7  8  1  0
  8  9  2  0
  9 10  1  0
  2 11  1  0
 11 12  1  0
 12 13  2  0
 13 14  1  0
 14 15  2  0
 15 16  1  0
 16 17  2  0
 17 18  1  0
 18 19  1  0
 19 20  1  0
 20 21  1  0
 21 22  1  0
 22 23  1  0
 23 24  1  0
 24 25  1  0
 19 26  2  0
 15 27  1  0
 27 28  2  0
  9  4  1  0
 28 12  1  0
 26 16  1  0
 25 20  1  0
  3 29  1  0
  3 30  1  0
  5 31  1  0
  6 32  1  0
  7 33  1  0
  8 34  1  0
 10 35  1  0
 13 36  1  0
 14 37  1  0
 17 38  1  0
 21 39  1  0
 21 40  1  0
 22 41  1  0
 22 42  1  0
 24 43  1  0
 24 44  1  0
 25 45  1  0
 25 46  1  0
 27 47  1  0
 28 48  1  0
M  CHG  1  11  -1
M  END
>  <UniqueID>  (54) 
52

>  <SMILES>  (54) 
O=C(Cc1ccccc1O)[N-]c1ccc(-c2csc(N3CCOCC3)n2)cc1

>  <Energy>  (54) 
89.13363384446386

>  <Genealogy>  (54) 
O=C(Cc1ccccc1O)[N-]c1ccc(-c2csc(N3CCOCC3)n2)cc1 (protonated)
O=C(Cc1ccccc1O)[N-]c1ccc(-c2csc(N3CCOCC3)n2)cc1 (3D coordinates assigned)
O=C(Cc1ccccc1O)[N-]c1ccc(-c2csc(N3CCOCC3)n2)cc1 (nonaromatic ring conformer: 89.13363384446386 kcal/mol)

>  <smiles>  (54) 
O=C(Cc1ccccc1O)Nc1ccc(-c2csc(N3CCOCC3)n2)cc1

>  <score_type>  (54) 
oracle

>  <origin>  (54) 
adg

>  <m_score__min__energy>  (54) 
-11.699999999999999

>  <m_primary>  (54) 
energy

$$$$
54:0
     RDKit          3D

 60 63  0  0  1  0  0  0  0  0999 V2000
   58.1970   21.8340   45.2280 C   0  0  0  0  0  0  0  0  0  0  0  0
   57.2970   21.3870   46.3630 C   0  0  0  0  0  0  0  0  0  0  0  0
   57.2800   22.3000   47.4430 O   0  0  0  0  0  0  0  0  0  0  0  0
   56.6200   23.5220   47.4160 C   0  0  0  0  0  0  0  0  0  0  0  0
   55.5000   23.5640   48.0160 O   0  0  0  0  0  0  0  0  0  0  0  0
   57.1770   24.7000   46.7390 C   0  0  0  0  0  0  0  0  0  0  0  0
   56.9100   24.9810   45.4110 C   0  0  0  0  0  0  0  0  0  0  0  0
   57.4450   26.0960   44.7950 C   0  0  0  0  0  0  0  0  0  0  0  0
   58.2570   26.9200   45.5520 C   0  0  0  0  0  0  0  0  0  0  0  0
   58.8590   28.0990   45.0060 N   0  0  0  0  0  0  0  0  0  0  0  0
   58.1300   29.2970   45.0980 C   0  0  0  0  0  0  0  0  0  0  0  0
   56.9880   29.2640   45.6560 O   0  0  0  0  0  0  0  0  0  0  0  0
   58.6210   30.6100   44.5780 C   0  0  1  0  0  0  0  0  0  0  0  0
   57.8040   30.8700   43.3340 C   0  0  0  0  0  0  0  0  0  0  0  0
   57.8650   32.2760   42.8380 C   0  0  0  0  0  0  0  0  0  0  0  0
   57.7730   33.2690   43.9710 C   0  0  0  0  0  0  0  0  0  0  0  0
   58.7760   32.9610   44.9710 N   0  0  0  0  0  0  0  0  0  0  0  0
   58.8860   34.2290   46.1430 S   0  0  0  0  0  0  0  0  0  0  0  0
   57.5440   34.5780   46.7020 O   0  0  0  0  0  0  0  0  0  0  0  0
   59.3730   35.4680   45.4090 O   0  0  0  0  0  0  0  0  0  0  0  0
   60.0650   33.8570   47.3700 C   0  0  0  0  0  0  0  0  0  0  0  0
   59.6800   33.7800   48.7080 C   0  0  0  0  0  0  0  0  0  0  0  0
   60.6160   33.4850   49.6760 C   0  0  0  0  0  0  0  0  0  0  0  0
   61.9330   33.2700   49.2900 C   0  0  0  0  0  0  0  0  0  0  0  0
   62.8570   32.9800   50.2390 N   0  0  0  0  0  0  0  0  0  0  0  0
   63.6070   33.1380   47.5630 C   0  0  0  0  0  0  0  0  0  0  0  0
   65.0430   32.4980   50.6920 O   0  0  0  0  0  0  0  0  0  0  0  0
   64.5020   32.8480   48.5550 N   0  0  0  0  0  0  0  0  0  0  0  0
   64.1290   32.7740   49.8450 C   0  0  0  0  0  0  0  0  0  0  0  0
   64.0610   33.1820   46.3850 N   0  0  0  0  0  0  0  0  0  0  0  0
   62.3190   33.3460   47.9580 C   0  0  0  0  0  0  0  0  0  0  0  0
   61.3790   33.6390   47.0100 C   0  0  0  0  0  0  0  0  0  0  0  0
   58.3740   31.7150   45.5910 C   0  0  0  0  0  0  0  0  0  0  0  0
   58.5390   26.6580   46.8850 C   0  0  0  0  0  0  0  0  0  0  0  0
   57.9850   25.5340   47.4670 C   0  0  0  0  0  0  0  0  0  0  0  0
   59.1101   22.2875   45.6410 H   0  0  0  0  0  0  0  0  0  0  0  0
   58.4665   20.9650   44.6097 H   0  0  0  0  0  0  0  0  0  0  0  0
   57.6675   22.5738   44.6097 H   0  0  0  0  0  0  0  0  0  0  0  0
   56.2724   21.2801   45.9774 H   0  0  0  0  0  0  0  0  0  0  0  0
   57.6926   20.4334   46.7426 H   0  0  0  0  0  0  0  0  0  0  0  0
   56.2605   24.3050   44.8355 H   0  0  0  0  0  0  0  0  0  0  0  0
   57.2323   26.3202   43.7393 H   0  0  0  0  0  0  0  0  0  0  0  0
   59.7990   28.0990   44.5530 H   0  0  0  0  0  0  0  0  0  0  0  0
   59.7024   30.5877   44.3776 H   0  0  0  0  0  0  0  0  0  0  0  0
   58.1718   30.2078   42.5364 H   0  0  0  0  0  0  0  0  0  0  0  0
   56.7547   30.6774   43.6021 H   0  0  0  0  0  0  0  0  0  0  0  0
   58.8169   32.4265   42.3077 H   0  0  0  0  0  0  0  0  0  0  0  0
   57.0104   32.4411   42.1654 H   0  0  0  0  0  0  0  0  0  0  0  0
   57.9430   34.2841   43.5827 H   0  0  0  0  0  0  0  0  0  0  0  0
   56.7735   33.2113   44.4267 H   0  0  0  0  0  0  0  0  0  0  0  0
   58.6313   33.9543   48.9905 H   0  0  0  0  0  0  0  0  0  0  0  0
   60.3253   33.4210   50.7350 H   0  0  0  0  0  0  0  0  0  0  0  0
   62.6370   32.9090   51.2380 H   0  0  0  0  0  0  0  0  0  0  0  0
   65.5190   32.6760   48.3030 H   0  0  0  0  0  0  0  0  0  0  0  0
   64.8910   32.7000   46.0280 H   0  0  0  0  0  0  0  0  0  0  0  0
   61.6724   33.7015   45.9517 H   0  0  0  0  0  0  0  0  0  0  0  0
   58.9703   31.5354   46.4977 H   0  0  0  0  0  0  0  0  0  0  0  0
   57.3139   31.7478   45.8829 H   0  0  0  0  0  0  0  0  0  0  0  0
   59.1887   27.3297   47.4652 H   0  0  0  0  0  0  0  0  0  0  0  0
   58.1941   25.3068   48.5228 H   0  0  0  0  0  0  0  0  0  0  0  0
  1  2  1  0
  2  3  1  0
  3  4  1  0
  4  5  2  0
  4  6  1  0
  6  7  2  0
  7  8  1  0
  8  9  2  0
  9 10  1  0
 10 11  1  0
 11 12  2  0
 11 13  1  0
 13 14  1  0
 14 15  1  0
 15 16  1  0
 16 17  1  0
 17 18  1  0
 18 19  2  0
 18 20  2  0
 18 21  1  0
 21 22  2  0
 22 23  1  0
 23 24  2  0
 24 25  1  0
 25 26  1  0
 26 27  2  0
 26 28  1  0
 28 29  1  0
 29 30  2  3
 29 31  1  0
 31 32  2  0
 17 33  1  0
  9 34  1  0
 34 35  2  0
 35  6  1  0
 33 13  1  0
 32 21  1  0
 31 24  1  0
  1 36  1  0
  1 37  1  0
  1 38  1  0
  2 39  1  0
  2 40  1  0
  7 41  1  0
  8 42  1  0
 10 43  1  0
 13 44  1  6
 14 45  1  0
 14 46  1  0
 15 47  1  0
 15 48  1  0
 16 49  1  0
 16 50  1  0
 22 51  1  0
 23 52  1  0
 25 53  1  0
 28 54  1  0
 30 55  1  0
 32 56  1  0
 33 57  1  0
 33 58  1  0
 34 59  1  0
 35 60  1  0
M  END
>  <smiles>  (55) 
CCOC(=O)c1ccc(NC(=O)C2CCCN(S(=O)(=O)c3ccc4[nH]c(=O)[nH]c(=N)c4c3)C2)cc1

>  <score_type>  (55) 
oracle

>  <origin>  (55) 
adg

>  <m_score__min__energy>  (55) 
-10.35

>  <m_primary>  (55) 
energy

$$$$
55:0
     RDKit          3D

 48 51  0  0  0  0  0  0  0  0999 V2000
   59.6370   29.4990   47.7220 C   0  0  0  0  0  0  0  0  0  0  0  0
   59.0420   30.1380   46.7020 C   0  0  0  0  0  0  0  0  0  0  0  0
   58.4710   29.5690   45.5500 C   0  0  0  0  0  0  0  0  0  0  0  0
   58.4500   28.2970   45.1030 C   0  0  0  0  0  0  0  0  0  0  0  0
   57.5550   27.2290   45.5880 C   0  0  0  0  0  0  0  0  0  0  0  0
   56.1680   27.4300   45.6210 C   0  0  0  0  0  0  0  0  0  0  0  0
   55.6230   28.6550   45.2460 O   0  0  0  0  0  0  0  0  0  0  0  0
   55.3500   26.4240   46.0280 N   0  0  0  0  0  0  0  0  0  0  0  0
   55.8500   25.2160   46.3920 C   0  0  0  0  0  0  0  0  0  0  0  0
   55.0720   24.3020   46.7710 O   0  0  0  0  0  0  0  0  0  0  0  0
   57.1880   24.9910   46.3440 N   0  0  0  0  0  0  0  0  0  0  0  0
   58.0480   25.9620   45.9430 C   0  0  0  0  0  0  0  0  0  0  0  0
   59.2820   25.7120   45.8920 O   0  0  0  0  0  0  0  0  0  0  0  0
   57.8870   30.6130   44.8500 C   0  0  0  0  0  0  0  0  0  0  0  0
   58.1430   31.7660   45.5620 C   0  0  0  0  0  0  0  0  0  0  0  0
   57.7100   33.1390   45.1470 C   0  0  0  0  0  0  0  0  0  0  0  0
   58.8490   31.4830   46.6780 N   0  0  0  0  0  0  0  0  0  0  0  0
   59.2520   32.4420   47.6710 C   0  0  0  0  0  0  0  0  0  0  0  0
   60.0130   33.5570   47.3050 C   0  0  0  0  0  0  0  0  0  0  0  0
   60.3890   34.4780   48.2800 C   0  0  0  0  0  0  0  0  0  0  0  0
   60.0120   34.2950   49.5730 N   0  0  0  0  0  0  0  0  0  0  0  0
   59.2600   33.2290   49.9680 C   0  0  0  0  0  0  0  0  0  0  0  0
   58.8900   33.0940   51.3590 N   0  0  0  0  0  0  0  0  0  0  0  0
   57.8570   32.1210   51.7360 C   0  0  0  0  0  0  0  0  0  0  0  0
   58.0570   31.6700   53.1850 C   0  0  0  0  0  0  0  0  0  0  0  0
   58.1660   32.7850   54.0490 O   0  0  0  0  0  0  0  0  0  0  0  0
   59.3460   33.5010   53.7460 C   0  0  0  0  0  0  0  0  0  0  0  0
   59.2690   34.1150   52.3450 C   0  0  0  0  0  0  0  0  0  0  0  0
   58.8690   32.2770   49.0080 C   0  0  0  0  0  0  0  0  0  0  0  0
   60.0441   30.0725   48.5678 H   0  0  0  0  0  0  0  0  0  0  0  0
   59.7174   28.4020   47.7118 H   0  0  0  0  0  0  0  0  0  0  0  0
   59.1622   28.0326   44.3075 H   0  0  0  0  0  0  0  0  0  0  0  0
   54.7370   28.9670   45.6220 H   0  0  0  0  0  0  0  0  0  0  0  0
   57.3264   30.5365   43.9067 H   0  0  0  0  0  0  0  0  0  0  0  0
   57.5176   33.7490   46.0420 H   0  0  0  0  0  0  0  0  0  0  0  0
   58.5038   33.6082   44.5472 H   0  0  0  0  0  0  0  0  0  0  0  0
   56.7907   33.0679   44.5472 H   0  0  0  0  0  0  0  0  0  0  0  0
   60.3118   33.7052   46.2568 H   0  0  0  0  0  0  0  0  0  0  0  0
   60.9922   35.3552   48.0030 H   0  0  0  0  0  0  0  0  0  0  0  0
   56.8655   32.5863   51.6342 H   0  0  0  0  0  0  0  0  0  0  0  0
   57.9314   31.2451   51.0747 H   0  0  0  0  0  0  0  0  0  0  0  0
   57.1970   31.0575   53.4938 H   0  0  0  0  0  0  0  0  0  0  0  0
   58.9864   31.0849   53.2465 H   0  0  0  0  0  0  0  0  0  0  0  0
   59.4789   34.3052   54.4847 H   0  0  0  0  0  0  0  0  0  0  0  0
   60.1971   32.8049   53.7780 H   0  0  0  0  0  0  0  0  0  0  0  0
   58.5176   34.9184   52.3421 H   0  0  0  0  0  0  0  0  0  0  0  0
   60.2562   34.5201   52.0780 H   0  0  0  0  0  0  0  0  0  0  0  0
   58.2653   31.4072   49.3064 H   0  0  0  0  0  0  0  0  0  0  0  0
  1  2  2  0
  2  3  1  0
  3  4  2  3
  4  5  1  0
  5  6  2  0
  6  7  1  0
  6  8  1  0
  8  9  1  0
  9 10  2  0
  9 11  1  0
 11 12  1  0
 12 13  2  0
  3 14  1  0
 14 15  2  0
 15 16  1  0
 15 17  1  0
 17 18  1  0
 18 19  2  0
 19 20  1  0
 20 21  2  0
 21 22  1  0
 22 23  1  0
 23 24  1  0
 24 25  1  0
 25 26  1  0
 26 27  1  0
 27 28  1  0
 22 29  2  0
 17  2  1  0
 29 18  1  0
 12  5  1  0
 28 23  1  0
  1 30  1  0
  1 31  1  0
  4 32  1  0
  7 33  1  0
 14 34  1  0
 16 35  1  0
 16 36  1  0
 16 37  1  0
 19 38  1  0
 20 39  1  0
 24 40  1  0
 24 41  1  0
 25 42  1  0
 25 43  1  0
 27 44  1  0
 27 45  1  0
 28 46  1  0
 28 47  1  0
 29 48  1  0
M  CHG  2   8  -1  11  -1
M  END
>  <UniqueID>  (56) 
53

>  <SMILES>  (56) 
C=c1c(=Cc2c(O)[n-]c(=O)[n-]c2=O)cc(C)n1-c1ccnc(N2CCOCC2)c1

>  <Energy>  (56) 
104.69605277337344

>  <Genealogy>  (56) 
C=c1c(=Cc2c(O)[n-]c(=O)[n-]c2=O)cc(C)n1-c1ccnc(N2CCOCC2)c1 (protonated)
C=c1c(=Cc2c(O)[n-]c(=O)[n-]c2=O)cc(C)n1-c1ccnc(N2CCOCC2)c1 (3D coordinates assigned)
C=c1c(=Cc2c(O)[n-]c(=O)[n-]c2=O)cc(C)n1-c1ccnc(N2CCOCC2)c1 (nonaromatic ring conformer: 104.69605277337344 kcal/mol)

>  <smiles>  (56) 
C=c1c(=Cc2c(O)[nH]c(=O)[nH]c2=O)cc(C)n1-c1ccnc(N2CCOCC2)c1

>  <score_type>  (56) 
oracle

>  <origin>  (56) 
adg

>  <m_score__min__energy>  (56) 
-13.32

>  <m_primary>  (56) 
energy

$$$$
56:0
     RDKit          3D

 46 49  0  0  0  0  0  0  0  0999 V2000
   65.4031   32.4452   48.6959 H   0  0  0  0  0  0  0  0  0  0  0  0
   64.8310   33.0510   49.4140 C   0  0  0  0  0  0  0  0  0  0  0  0
   63.5660   33.3950   49.2580 C   0  0  0  0  0  0  0  0  0  0  0  0
   62.7360   33.0360   48.0890 C   0  0  0  0  0  0  0  0  0  0  0  0
   63.2680   32.9690   46.9470 O   0  0  0  0  0  0  0  0  0  0  0  0
   61.3420   32.7300   48.2550 N   0  0  0  0  0  0  0  0  0  0  0  0
   61.0020   32.4680   49.2080 H   0  0  0  0  0  0  0  0  0  0  0  0
   60.4050   32.6480   47.1680 C   0  0  0  0  0  0  0  0  0  0  0  0
   60.1470   33.7890   46.3930 C   0  0  0  0  0  0  0  0  0  0  0  0
   60.6486   34.7379   46.6339 H   0  0  0  0  0  0  0  0  0  0  0  0
   59.2570   33.7280   45.3170 C   0  0  0  0  0  0  0  0  0  0  0  0
   59.0518   34.6306   44.7227 H   0  0  0  0  0  0  0  0  0  0  0  0
   58.6280   32.5240   44.9950 C   0  0  0  0  0  0  0  0  0  0  0  0
   57.9242   32.4814   44.1507 H   0  0  0  0  0  0  0  0  0  0  0  0
   58.8910   31.3690   45.7450 C   0  0  0  0  0  0  0  0  0  0  0  0
   58.2670   30.1220   45.3930 N   0  0  0  0  0  0  0  0  0  0  0  0
   57.0370   29.9790   44.8490 C   0  0  0  0  0  0  0  0  0  0  0  0
   56.1250   31.1090   44.4800 C   0  0  0  0  0  0  0  0  0  0  0  0
   55.7414   31.5843   45.3948 H   0  0  0  0  0  0  0  0  0  0  0  0
   56.6809   31.8502   43.8871 H   0  0  0  0  0  0  0  0  0  0  0  0
   55.2831   30.7221   43.8871 H   0  0  0  0  0  0  0  0  0  0  0  0
   56.7580   28.6450   44.6330 C   0  0  0  0  0  0  0  0  0  0  0  0
   55.8412   28.2293   44.1895 H   0  0  0  0  0  0  0  0  0  0  0  0
   57.8590   27.9290   45.0840 C   0  0  0  0  0  0  0  0  0  0  0  0
   58.0200   26.5920   45.0270 C   0  0  0  0  0  0  0  0  0  0  0  0
   58.7299   26.1885   44.2899 H   0  0  0  0  0  0  0  0  0  0  0  0
   57.3030   25.6370   45.8920 C   0  0  0  0  0  0  0  0  0  0  0  0
   57.9010   24.5920   46.4900 N   0  0  0  0  0  0  0  0  0  0  0  0
   56.9140   24.0510   47.2370 C   0  0  0  0  0  0  0  0  0  0  0  0
   57.0850   23.0260   47.9450 O   0  0  0  0  0  0  0  0  0  0  0  0
   55.7330   24.7020   47.1720 N   0  0  0  0  0  0  0  0  0  0  0  0
   55.9980   25.7110   46.3280 C   0  0  0  0  0  0  0  0  0  0  0  0
   55.0790   26.7010   46.0030 O   0  0  0  0  0  0  0  0  0  0  0  0
   58.7840   28.8750   45.5400 C   0  0  0  0  0  0  0  0  0  0  0  0
   60.0070   28.6220   46.0290 C   0  0  0  0  0  0  0  0  0  0  0  0
   60.6498   29.4514   46.3589 H   0  0  0  0  0  0  0  0  0  0  0  0
   60.3672   27.5851   46.1001 H   0  0  0  0  0  0  0  0  0  0  0  0
   59.7840   31.4330   46.8240 C   0  0  0  0  0  0  0  0  0  0  0  0
   60.0011   30.5256   47.4067 H   0  0  0  0  0  0  0  0  0  0  0  0
   63.1090   34.2160   50.4190 C   0  0  0  0  0  0  0  0  0  0  0  0
   62.2831   33.7220   50.9518 H   0  0  0  0  0  0  0  0  0  0  0  0
   62.7205   35.2026   50.1261 H   0  0  0  0  0  0  0  0  0  0  0  0
   64.3640   34.2970   51.3000 C   0  0  0  0  0  0  0  0  0  0  0  0
   64.1742   33.8535   52.2886 H   0  0  0  0  0  0  0  0  0  0  0  0
   64.6808   35.3346   51.4816 H   0  0  0  0  0  0  0  0  0  0  0  0
   65.3430   33.5500   50.5950 O   0  0  0  0  0  0  0  0  0  0  0  0
  1  2  1  0
  2  3  2  0
  3  4  1  0
  4  5  2  0
  4  6  1  0
  6  7  1  0
  6  8  1  0
  8  9  2  0
  9 10  1  0
  9 11  1  0
 11 12  1  0
 11 13  2  0
 13 14  1  0
 13 15  1  0
 15 16  1  0
 16 17  1  0
 17 18  1  0
 18 19  1  0
 18 20  1  0
 18 21  1  0
 17 22  2  0
 22 23  1  0
 22 24  1  0
 24 25  2  0
 25 26  1  0
 25 27  1  0
 27 28  1  0
 28 29  1  0
 29 30  2  0
 29 31  1  0
 31 32  1  0
 32 33  1  0
 24 34  1  0
 34 35  2  0
 35 36  1  0
 35 37  1  0
 15 38  2  0
 38 39  1  0
  3 40  1  0
 40 41  1  0
 40 42  1  0
 40 43  1  0
 43 44  1  0
 43 45  1  0
 43 46  1  0
 46  2  1  0
 38  8  1  0
 34 16  1  0
 32 27  2  0
M  CHG  3  28  -1  31  -1  33  -1
M  END
>  <UniqueID>  (57) 
54

>  <SMILES>  (57) 
C=c1/c(=C/c2[n-]c(=O)[n-]c2[O-])cc(C)n1-c1cccc(NC(=O)C2=COCC2)c1

>  <Energy>  (57) 
133.9948470926958

>  <Genealogy>  (57) 
C=c1c(=Cc2[n-]c(=O)[n-]c2[O-])cc(C)n1-c1cccc(NC(=O)C2=COCC2)c1 (protonated)
C=c1/c(=C/c2[n-]c(=O)[n-]c2[O-])cc(C)n1-c1cccc(NC(=O)C2=COCC2)c1 (cis-trans isomerization)
C=c1/c(=C/c2[n-]c(=O)[n-]c2[O-])cc(C)n1-c1cccc(NC(=O)C2=COCC2)c1 (3D coordinates assigned)
C=c1/c(=C/c2[n-]c(=O)[n-]c2[O-])cc(C)n1-c1cccc(NC(=O)C2=COCC2)c1 (nonaromatic ring conformer: 133.9948470926958 kcal/mol)

>  <smiles>  (57) 
C=c1c(=Cc2[nH]c(=O)[nH]c2O)cc(C)n1-c1cccc(NC(=O)C2=COCC2)c1

>  <score_type>  (57) 
oracle

>  <origin>  (57) 
adg

>  <m_score__min__energy>  (57) 
-16.34

>  <m_primary>  (57) 
energy

$$$$
57:0
     RDKit          3D

 55 58  0  0  0  0  0  0  0  0999 V2000
   54.2450   26.7250   46.7450 H   0  0  0  0  0  0  0  0  0  0  0  0
   54.9580   26.5680   46.0420 O   0  0  0  0  0  0  0  0  0  0  0  0
   55.4210   25.2900   45.7400 C   0  0  0  0  0  0  0  0  0  0  0  0
   54.6710   24.3650   45.1190 N   0  0  0  0  0  0  0  0  0  0  0  0
   55.4830   23.2860   45.0990 C   0  0  0  0  0  0  0  0  0  0  0  0
   55.1330   22.1840   44.6020 O   0  0  0  0  0  0  0  0  0  0  0  0
   56.6930   23.4760   45.6660 N   0  0  0  0  0  0  0  0  0  0  0  0
   56.6580   24.7620   46.0560 C   0  0  0  0  0  0  0  0  0  0  0  0
   57.7640   25.4140   46.7770 C   0  0  0  0  0  0  0  0  0  0  0  0
   58.2681   24.8482   47.5744 H   0  0  0  0  0  0  0  0  0  0  0  0
   58.1940   26.6640   46.5160 C   0  0  0  0  0  0  0  0  0  0  0  0
   57.3990   27.7910   46.3650 C   0  0  0  0  0  0  0  0  0  0  0  0
   56.3031   27.8379   46.4476 H   0  0  0  0  0  0  0  0  0  0  0  0
   58.2510   28.8420   46.0910 C   0  0  0  0  0  0  0  0  0  0  0  0
   57.7970   30.2240   45.8480 C   0  0  0  0  0  0  0  0  0  0  0  0
   57.0190   30.4370   44.8780 O   0  0  0  0  0  0  0  0  0  0  0  0
   58.2080   31.3220   46.6900 N   0  0  0  0  0  0  0  0  0  0  0  0
   58.4770   31.1210   48.1220 C   0  0  0  0  0  0  0  0  0  0  0  0
   57.6058   31.4528   48.7059 H   0  0  0  0  0  0  0  0  0  0  0  0
   58.6665   30.0532   48.3063 H   0  0  0  0  0  0  0  0  0  0  0  0
   59.7080   31.9290   48.5450 C   0  0  0  0  0  0  0  0  0  0  0  0
   59.8010   31.8747   49.6397 H   0  0  0  0  0  0  0  0  0  0  0  0
   60.5757   31.4903   48.0307 H   0  0  0  0  0  0  0  0  0  0  0  0
   59.6390   33.4240   48.1310 C   0  0  0  0  0  0  0  0  0  0  0  0
   59.4753   34.0070   49.0493 H   0  0  0  0  0  0  0  0  0  0  0  0
   60.9560   33.8660   47.5140 C   0  0  0  0  0  0  0  0  0  0  0  0
   60.9650   34.3620   46.3530 O   0  0  0  0  0  0  0  0  0  0  0  0
   62.2080   33.6540   48.1940 N   0  0  0  0  0  0  0  0  0  0  0  0
   62.3420   33.1020   49.5330 C   0  0  0  0  0  0  0  0  0  0  0  0
   61.7818   33.7118   50.2571 H   0  0  0  0  0  0  0  0  0  0  0  0
   61.9402   32.0798   49.5930 H   0  0  0  0  0  0  0  0  0  0  0  0
   63.8330   33.1400   49.8470 C   0  0  0  0  0  0  0  0  0  0  0  0
   64.0573   33.9679   50.5356 H   0  0  0  0  0  0  0  0  0  0  0  0
   64.1654   32.2111   50.3334 H   0  0  0  0  0  0  0  0  0  0  0  0
   64.5410   33.3550   48.5110 C   0  0  0  0  0  0  0  0  0  0  0  0
   65.3747   34.0628   48.6296 H   0  0  0  0  0  0  0  0  0  0  0  0
   64.9634   32.4165   48.1227 H   0  0  0  0  0  0  0  0  0  0  0  0
   63.4910   33.9270   47.5680 C   0  0  0  0  0  0  0  0  0  0  0  0
   63.6351   35.0107   47.4459 H   0  0  0  0  0  0  0  0  0  0  0  0
   63.5574   33.4772   46.5664 H   0  0  0  0  0  0  0  0  0  0  0  0
   58.4290   33.7500   47.2210 C   0  0  0  0  0  0  0  0  0  0  0  0
   57.5280   33.8224   47.8479 H   0  0  0  0  0  0  0  0  0  0  0  0
   58.6484   34.6978   46.7077 H   0  0  0  0  0  0  0  0  0  0  0  0
   58.1890   32.6850   46.1390 C   0  0  0  0  0  0  0  0  0  0  0  0
   57.2084   32.8661   45.6745 H   0  0  0  0  0  0  0  0  0  0  0  0
   59.0010   32.7632   45.4011 H   0  0  0  0  0  0  0  0  0  0  0  0
   59.5330   28.4100   46.0290 N   0  0  0  0  0  0  0  0  0  0  0  0
   60.7100   29.2000   45.6530 C   0  0  0  0  0  0  0  0  0  0  0  0
   61.2250   29.5457   46.5614 H   0  0  0  0  0  0  0  0  0  0  0  0
   61.3944   28.5777   45.0578 H   0  0  0  0  0  0  0  0  0  0  0  0
   60.3933   30.0692   45.0578 H   0  0  0  0  0  0  0  0  0  0  0  0
   59.5100   27.0790   46.2950 C   0  0  0  0  0  0  0  0  0  0  0  0
   60.6050   26.3040   46.3320 C   0  0  0  0  0  0  0  0  0  0  0  0
   61.5957   26.7422   46.1408 H   0  0  0  0  0  0  0  0  0  0  0  0
   60.5119   25.2306   46.5535 H   0  0  0  0  0  0  0  0  0  0  0  0
  1  2  1  0
  2  3  1  0
  3  4  1  0
  4  5  1  0
  5  6  2  0
  5  7  1  0
  7  8  1  0
  8  9  1  0
  9 10  1  0
  9 11  2  0
 11 12  1  0
 12 13  1  0
 12 14  2  0
 14 15  1  0
 15 16  2  0
 15 17  1  0
 17 18  1  0
 18 19  1  0
 18 20  1  0
 18 21  1  0
 21 22  1  0
 21 23  1  0
 21 24  1  0
 24 25  1  0
 24 26  1  0
 26 27  2  0
 26 28  1  0
 28 29  1  0
 29 30  1  0
 29 31  1  0
 29 32  1  0
 32 33  1  0
 32 34  1  0
 32 35  1  0
 35 36  1  0
 35 37  1  0
 35 38  1  0
 38 39  1  0
 38 40  1  0
 24 41  1  0
 41 42  1  0
 41 43  1  0
 41 44  1  0
 44 45  1  0
 44 46  1  0
 14 47  1  0
 47 48  1  0
 48 49  1  0
 48 50  1  0
 48 51  1  0
 47 52  1  0
 52 53  2  0
 53 54  1  0
 53 55  1  0
  8  3  2  0
 52 11  1  0
 44 17  1  0
 38 28  1  0
M  CHG  2   4  -1   7  -1
M  END
>  <UniqueID>  (58) 
55

>  <SMILES>  (58) 
C=c1/c(=C/c2[n-]c(=O)[n-]c2O)cc(C(=O)N2CCC(C(=O)N3CCCC3)CC2)n1C

>  <Energy>  (58) 
129.34124493570084

>  <Genealogy>  (58) 
C=c1c(=Cc2[n-]c(=O)[n-]c2O)cc(C(=O)N2CCC(C(=O)N3CCCC3)CC2)n1C (protonated)
C=c1/c(=C/c2[n-]c(=O)[n-]c2O)cc(C(=O)N2CCC(C(=O)N3CCCC3)CC2)n1C (cis-trans isomerization)
C=c1/c(=C/c2[n-]c(=O)[n-]c2O)cc(C(=O)N2CCC(C(=O)N3CCCC3)CC2)n1C (3D coordinates assigned)
C=c1/c(=C/c2[n-]c(=O)[n-]c2O)cc(C(=O)N2CCC(C(=O)N3CCCC3)CC2)n1C (nonaromatic ring conformer: 129.34124493570084 kcal/mol)

>  <smiles>  (58) 
C=c1c(=Cc2[nH]c(=O)[nH]c2O)cc(C(=O)N2CCC(C(=O)N3CCCC3)CC2)n1C

>  <score_type>  (58) 
oracle

>  <origin>  (58) 
adg

>  <m_score__min__energy>  (58) 
-14.220000000000001

>  <m_primary>  (58) 
energy

$$$$
58:0
     RDKit          3D

 52 55  0  0  0  0  0  0  0  0999 V2000
   60.7690   26.4950   47.2560 O   0  0  0  0  0  0  0  0  0  0  0  0
   59.8110   27.1810   47.7100 C   0  0  0  0  0  0  0  0  0  0  0  0
   58.4500   26.9580   47.1710 C   0  0  0  0  0  0  0  0  0  0  0  0
   57.7480   25.7760   47.4590 C   0  0  0  0  0  0  0  0  0  0  0  0
   56.4660   25.5720   46.9440 C   0  0  0  0  0  0  0  0  0  0  0  0
   55.8720   26.5400   46.1310 C   0  0  0  0  0  0  0  0  0  0  0  0
   54.5940   26.3250   45.6280 O   0  0  0  0  0  0  0  0  0  0  0  0
   56.5590   27.7210   45.8220 C   0  0  0  0  0  0  0  0  0  0  0  0
   55.9320   28.6670   44.9930 O   0  0  0  0  0  0  0  0  0  0  0  0
   56.5780   29.7530   44.3900 C   0  0  0  0  0  0  0  0  0  0  0  0
   56.4250   29.9380   43.0530 N   0  0  0  0  0  0  0  0  0  0  0  0
   57.0450   30.9570   42.4090 C   0  0  0  0  0  0  0  0  0  0  0  0
   57.8500   31.8050   43.0950 N   0  0  0  0  0  0  0  0  0  0  0  0
   58.0410   31.6800   44.4370 C   0  0  0  0  0  0  0  0  0  0  0  0
   58.9110   32.6100   45.1130 N   0  0  0  0  0  0  0  0  0  0  0  0
   58.9250   34.0360   44.7310 C   0  0  0  0  0  0  0  0  0  0  0  0
   59.1920   34.9140   45.9260 C   0  0  0  0  0  0  0  0  0  0  0  0
   60.0360   34.5050   46.8790 C   0  0  0  0  0  0  0  0  0  0  0  0
   60.7110   33.1710   46.7490 C   0  0  0  0  0  0  0  0  0  0  0  0
   59.7040   32.1210   46.2570 C   0  0  0  0  0  0  0  0  0  0  0  0
   57.3590   30.6600   45.1330 C   0  0  0  0  0  0  0  0  0  0  0  0
   57.4260   30.5910   46.5250 O   0  0  0  0  0  0  0  0  0  0  0  0
   57.8590   27.9170   46.3300 C   0  0  0  0  0  0  0  0  0  0  0  0
   60.0700   28.1570   48.7390 N   0  0  0  0  0  0  0  0  0  0  0  0
   61.1630   27.9160   49.6920 C   0  0  0  0  0  0  0  0  0  0  0  0
   61.1030   28.8980   50.8680 C   0  0  0  0  0  0  0  0  0  0  0  0
   61.0670   30.3650   50.3980 C   0  0  0  0  0  0  0  0  0  0  0  0
   60.2820   30.5810   49.0880 C   0  0  0  0  0  0  0  0  0  0  0  0
   59.3250   29.4260   48.7800 C   0  0  0  0  0  0  0  0  0  0  0  0
   58.2108   25.0063   48.0941 H   0  0  0  0  0  0  0  0  0  0  0  0
   55.9220   24.6454   47.1795 H   0  0  0  0  0  0  0  0  0  0  0  0
   56.8947   31.0960   41.3282 H   0  0  0  0  0  0  0  0  0  0  0  0
   59.7133   34.1996   43.9814 H   0  0  0  0  0  0  0  0  0  0  0  0
   57.9395   34.2973   44.3182 H   0  0  0  0  0  0  0  0  0  0  0  0
   58.6931   35.8904   46.0143 H   0  0  0  0  0  0  0  0  0  0  0  0
   60.2344   35.1426   47.7531 H   0  0  0  0  0  0  0  0  0  0  0  0
   61.5378   33.2494   46.0277 H   0  0  0  0  0  0  0  0  0  0  0  0
   61.1016   32.8657   47.7309 H   0  0  0  0  0  0  0  0  0  0  0  0
   60.2532   31.2191   45.9489 H   0  0  0  0  0  0  0  0  0  0  0  0
   59.0107   31.9018   47.0824 H   0  0  0  0  0  0  0  0  0  0  0  0
   57.0580   29.8110   47.0520 H   0  0  0  0  0  0  0  0  0  0  0  0
   58.4159   28.8282   46.0662 H   0  0  0  0  0  0  0  0  0  0  0  0
   61.0820   26.8892   50.0781 H   0  0  0  0  0  0  0  0  0  0  0  0
   62.1191   28.0601   49.1676 H   0  0  0  0  0  0  0  0  0  0  0  0
   60.1966   28.6918   51.4562 H   0  0  0  0  0  0  0  0  0  0  0  0
   62.0116   28.7584   51.4721 H   0  0  0  0  0  0  0  0  0  0  0  0
   60.5974   30.9704   51.1873 H   0  0  0  0  0  0  0  0  0  0  0  0
   62.1072   30.6633   50.2005 H   0  0  0  0  0  0  0  0  0  0  0  0
   59.6980   31.5090   49.1757 H   0  0  0  0  0  0  0  0  0  0  0  0
   61.0117   30.6381   48.2669 H   0  0  0  0  0  0  0  0  0  0  0  0
   58.5545   29.3717   49.5632 H   0  0  0  0  0  0  0  0  0  0  0  0
   58.8499   29.5993   47.8032 H   0  0  0  0  0  0  0  0  0  0  0  0
  1  2  2  0
  2  3  1  0
  3  4  2  0
  4  5  1  0
  5  6  2  0
  6  7  1  0
  6  8  1  0
  8  9  1  0
  9 10  1  0
 10 11  2  0
 11 12  1  0
 12 13  2  0
 13 14  1  0
 14 15  1  0
 15 16  1  0
 16 17  1  0
 17 18  2  0
 18 19  1  0
 19 20  1  0
 14 21  2  0
 21 22  1  0
  8 23  2  0
  2 24  1  0
 24 25  1  0
 25 26  1  0
 26 27  1  0
 27 28  1  0
 28 29  1  0
 23  3  1  0
 29 24  1  0
 21 10  1  0
 20 15  1  0
  4 30  1  0
  5 31  1  0
 12 32  1  0
 16 33  1  0
 16 34  1  0
 17 35  1  0
 18 36  1  0
 19 37  1  0
 19 38  1  0
 20 39  1  0
 20 40  1  0
 22 41  1  0
 23 42  1  0
 25 43  1  0
 25 44  1  0
 26 45  1  0
 26 46  1  0
 27 47  1  0
 27 48  1  0
 28 49  1  0
 28 50  1  0
 29 51  1  0
 29 52  1  0
M  CHG  1   7  -1
M  END
>  <UniqueID>  (59) 
56

>  <SMILES>  (59) 
O=C(c1ccc([O-])c(Oc2ncnc(N3CC=CCC3)c2O)c1)N1CCCCC1

>  <Energy>  (59) 
72.88508120039458

>  <Genealogy>  (59) 
O=C(c1ccc([O-])c(Oc2ncnc(N3CC=CCC3)c2O)c1)N1CCCCC1 (protonated)
O=C(c1ccc([O-])c(Oc2ncnc(N3CC=CCC3)c2O)c1)N1CCCCC1 (3D coordinates assigned)
O=C(c1ccc([O-])c(Oc2ncnc(N3CC=CCC3)c2O)c1)N1CCCCC1 (nonaromatic ring conformer: 72.88508120039458 kcal/mol)

>  <smiles>  (59) 
O=C(c1ccc(O)c(Oc2ncnc(N3CC=CCC3)c2O)c1)N1CCCCC1

>  <score_type>  (59) 
oracle

>  <origin>  (59) 
adg

>  <m_score__min__energy>  (59) 
-11.44

>  <m_primary>  (59) 
energy

$$$$
59:0
     RDKit          3D

 55 58  0  0  0  0  0  0  0  0999 V2000
   56.6750   28.1930   45.6170 O   0  0  0  0  0  0  0  0  0  0  0  0
   57.1430   29.3370   45.3810 C   0  0  0  0  0  0  0  0  0  0  0  0
   56.3290   30.2920   44.6970 N   0  0  0  0  0  0  0  0  0  0  0  0
   56.8510   31.2540   43.7370 C   0  0  0  0  0  0  0  0  0  0  0  0
   57.5110   32.3760   44.4750 C   0  0  0  0  0  0  0  0  0  0  0  0
   57.0320   32.7840   45.7300 C   0  0  0  0  0  0  0  0  0  0  0  0
   57.6400   33.8610   46.3770 C   0  0  0  0  0  0  0  0  0  0  0  0
   58.7090   34.5240   45.7680 C   0  0  0  0  0  0  0  0  0  0  0  0
   59.1520   34.0980   44.5130 C   0  0  0  0  0  0  0  0  0  0  0  0
   58.5470   33.0460   43.8970 N   0  0  0  0  0  0  0  0  0  0  0  0
   58.4730   29.6710   45.8040 N   0  0  0  0  0  0  0  0  0  0  0  0
   59.1230   28.9950   46.8900 C   0  0  0  0  0  0  0  0  0  0  0  0
   59.3380   27.6120   46.8050 C   0  0  0  0  0  0  0  0  0  0  0  0
   59.9550   26.9270   47.8560 C   0  0  0  0  0  0  0  0  0  0  0  0
   60.3750   27.6190   48.9930 C   0  0  0  0  0  0  0  0  0  0  0  0
   60.1930   29.0020   49.0790 C   0  0  0  0  0  0  0  0  0  0  0  0
   59.5690   29.7010   48.0330 C   0  0  0  0  0  0  0  0  0  0  0  0
   59.4930   31.1740   48.0870 C   0  0  0  0  0  0  0  0  0  0  0  0
   58.3900   31.6990   48.4030 O   0  0  0  0  0  0  0  0  0  0  0  0
   60.6530   32.0050   47.8420 N   0  0  0  0  0  0  0  0  0  0  0  0
   61.9450   31.3960   47.4770 C   0  0  0  0  0  0  0  0  0  0  0  0
   63.0900   32.4120   47.5480 C   0  0  0  0  0  0  0  0  0  0  0  0
   62.9500   33.2300   48.7610 N   0  0  0  0  0  0  0  0  0  0  0  0
   64.0290   33.3300   49.7090 C   0  0  0  0  0  0  0  0  0  0  0  0
   65.2700   32.7230   49.4410 C   0  0  0  0  0  0  0  0  0  0  0  0
   66.3230   32.8360   50.3560 C   0  0  0  0  0  0  0  0  0  0  0  0
   66.1470   33.5510   51.5430 C   0  0  0  0  0  0  0  0  0  0  0  0
   64.9180   34.1620   51.8130 C   0  0  0  0  0  0  0  0  0  0  0  0
   63.8640   34.0540   50.9010 C   0  0  0  0  0  0  0  0  0  0  0  0
   61.6680   33.8880   49.0510 C   0  0  0  0  0  0  0  0  0  0  0  0
   60.5840   33.4620   48.0550 C   0  0  0  0  0  0  0  0  0  0  0  0
   57.5858   30.7605   43.0839 H   0  0  0  0  0  0  0  0  0  0  0  0
   56.0275   31.6486   43.1237 H   0  0  0  0  0  0  0  0  0  0  0  0
   56.1860   32.2601   46.1988 H   0  0  0  0  0  0  0  0  0  0  0  0
   57.2788   34.1870   47.3635 H   0  0  0  0  0  0  0  0  0  0  0  0
   59.1964   35.3721   46.2712 H   0  0  0  0  0  0  0  0  0  0  0  0
   59.9907   34.6136   44.0224 H   0  0  0  0  0  0  0  0  0  0  0  0
   59.0280   30.3570   45.2470 H   0  0  0  0  0  0  0  0  0  0  0  0
   59.0195   27.0631   45.9065 H   0  0  0  0  0  0  0  0  0  0  0  0
   60.1098   25.8402   47.7867 H   0  0  0  0  0  0  0  0  0  0  0  0
   60.8500   27.0750   49.8227 H   0  0  0  0  0  0  0  0  0  0  0  0
   60.5401   29.5455   49.9701 H   0  0  0  0  0  0  0  0  0  0  0  0
   62.1582   30.5694   48.1707 H   0  0  0  0  0  0  0  0  0  0  0  0
   61.8726   31.0324   46.4414 H   0  0  0  0  0  0  0  0  0  0  0  0
   64.0515   31.8784   47.5755 H   0  0  0  0  0  0  0  0  0  0  0  0
   63.0551   33.0636   46.6624 H   0  0  0  0  0  0  0  0  0  0  0  0
   65.4130   32.1574   48.5085 H   0  0  0  0  0  0  0  0  0  0  0  0
   67.2912   32.3608   50.1399 H   0  0  0  0  0  0  0  0  0  0  0  0
   66.9735   33.6334   52.2642 H   0  0  0  0  0  0  0  0  0  0  0  0
   64.7805   34.7290   52.7455 H   0  0  0  0  0  0  0  0  0  0  0  0
   62.9006   34.5385   51.1181 H   0  0  0  0  0  0  0  0  0  0  0  0
   61.3475   33.6154   50.0674 H   0  0  0  0  0  0  0  0  0  0  0  0
   61.8094   34.9755   48.9653 H   0  0  0  0  0  0  0  0  0  0  0  0
   59.5944   33.7269   48.4555 H   0  0  0  0  0  0  0  0  0  0  0  0
   60.7443   33.9791   47.0974 H   0  0  0  0  0  0  0  0  0  0  0  0
  1  2  2  0
  2  3  1  0
  3  4  1  0
  4  5  1  0
  5  6  2  0
  6  7  1  0
  7  8  2  0
  8  9  1  0
  9 10  2  0
  2 11  1  0
 11 12  1  0
 12 13  2  0
 13 14  1  0
 14 15  2  0
 15 16  1  0
 16 17  2  0
 17 18  1  0
 18 19  2  0
 18 20  1  0
 20 21  1  0
 21 22  1  0
 22 23  1  0
 23 24  1  0
 24 25  2  0
 25 26  1  0
 26 27  2  0
 27 28  1  0
 28 29  2  0
 23 30  1  0
 30 31  1  0
 10  5  1  0
 17 12  1  0
 31 20  1  0
 29 24  1  0
  4 32  1  0
  4 33  1  0
  6 34  1  0
  7 35  1  0
  8 36  1  0
  9 37  1  0
 11 38  1  0
 13 39  1  0
 14 40  1  0
 15 41  1  0
 16 42  1  0
 21 43  1  0
 21 44  1  0
 22 45  1  0
 22 46  1  0
 25 47  1  0
 26 48  1  0
 27 49  1  0
 28 50  1  0
 29 51  1  0
 30 52  1  0
 30 53  1  0
 31 54  1  0
 31 55  1  0
M  CHG  1   3  -1
M  END
>  <UniqueID>  (60) 
57

>  <SMILES>  (60) 
O=C([N-]Cc1ccccn1)Nc1ccccc1C(=O)N1CCN(c2ccccc2)CC1

>  <Energy>  (60) 
72.42050261826255

>  <Genealogy>  (60) 
O=C([N-]Cc1ccccn1)Nc1ccccc1C(=O)N1CCN(c2ccccc2)CC1 (protonated)
O=C([N-]Cc1ccccn1)Nc1ccccc1C(=O)N1CCN(c2ccccc2)CC1 (3D coordinates assigned)
O=C([N-]Cc1ccccn1)Nc1ccccc1C(=O)N1CCN(c2ccccc2)CC1 (nonaromatic ring conformer: 72.42050261826255 kcal/mol)

>  <smiles>  (60) 
O=C(NCc1ccccn1)Nc1ccccc1C(=O)N1CCN(c2ccccc2)CC1

>  <score_type>  (60) 
oracle

>  <origin>  (60) 
adg

>  <m_score__min__energy>  (60) 
-10.890000000000001

>  <m_primary>  (60) 
energy

$$$$
60:0
     RDKit          3D

 30 31  0  0  0  0  0  0  0  0999 V2000
   55.8930   28.9240   45.2610 O   0  0  0  0  0  0  0  0  0  0  0  0
   56.9080   28.2080   45.0500 C   0  0  0  0  0  0  0  0  0  0  0  0
   57.8410   28.5590   43.9380 C   0  0  0  0  0  0  0  0  0  0  0  0
   59.5790   28.4250   44.4840 S   0  0  0  0  0  0  0  0  0  0  0  0
   59.3850   29.5110   45.9000 C   0  0  0  0  0  0  0  0  0  0  0  0
   59.6550   29.0380   47.1900 C   0  0  0  0  0  0  0  0  0  0  0  0
   59.5020   29.8840   48.2920 C   0  0  0  0  0  0  0  0  0  0  0  0
   59.0740   31.2030   48.1090 C   0  0  0  0  0  0  0  0  0  0  0  0
   58.8670   32.3600   49.6150 Br  0  0  0  0  0  0  0  0  0  0  0  0
   58.7960   31.6750   46.8220 C   0  0  0  0  0  0  0  0  0  0  0  0
   58.9470   30.8290   45.7190 C   0  0  0  0  0  0  0  0  0  0  0  0
   57.2250   27.1100   45.9160 N   0  0  0  0  0  0  0  0  0  0  0  0
   56.9760   25.7200   45.6590 C   0  0  0  0  0  0  0  0  0  0  0  0
   58.0250   24.8110   45.4240 C   0  0  0  0  0  0  0  0  0  0  0  0
   57.7470   23.4580   45.1970 C   0  0  0  0  0  0  0  0  0  0  0  0
   59.0590   22.3310   44.9030 Cl  0  0  0  0  0  0  0  0  0  0  0  0
   56.4260   23.0020   45.2150 C   0  0  0  0  0  0  0  0  0  0  0  0
   55.3820   23.8930   45.4700 C   0  0  0  0  0  0  0  0  0  0  0  0
   55.6530   25.2500   45.6990 C   0  0  0  0  0  0  0  0  0  0  0  0
   54.6110   26.1390   45.9590 O   0  0  0  0  0  0  0  0  0  0  0  0
   57.6734   27.8715   43.0958 H   0  0  0  0  0  0  0  0  0  0  0  0
   57.6472   29.5968   43.6290 H   0  0  0  0  0  0  0  0  0  0  0  0
   59.9878   27.9998   47.3362 H   0  0  0  0  0  0  0  0  0  0  0  0
   59.7184   29.5121   49.3043 H   0  0  0  0  0  0  0  0  0  0  0  0
   58.4585   32.7119   46.6776 H   0  0  0  0  0  0  0  0  0  0  0  0
   58.7215   31.1990   44.7079 H   0  0  0  0  0  0  0  0  0  0  0  0
   59.0664   25.1651   45.4187 H   0  0  0  0  0  0  0  0  0  0  0  0
   56.2087   21.9400   45.0281 H   0  0  0  0  0  0  0  0  0  0  0  0
   54.3439   23.5298   45.4914 H   0  0  0  0  0  0  0  0  0  0  0  0
   54.7620   27.1410   45.9810 H   0  0  0  0  0  0  0  0  0  0  0  0
  1  2  2  0
  2  3  1  0
  3  4  1  0
  4  5  1  0
  5  6  2  0
  6  7  1  0
  7  8  2  0
  8  9  1  0
  8 10  1  0
 10 11  2  0
  2 12  1  0
 12 13  1  0
 13 14  2  0
 14 15  1  0
 15 16  1  0
 15 17  2  0
 17 18  1  0
 18 19  2  0
 19 20  1  0
 11  5  1  0
 19 13  1  0
  3 21  1  0
  3 22  1  0
  6 23  1  0
  7 24  1  0
 10 25  1  0
 11 26  1  0
 14 27  1  0
 17 28  1  0
 18 29  1  0
 20 30  1  0
M  CHG  1  12  -1
M  END
>  <UniqueID>  (61) 
58

>  <SMILES>  (61) 
O=C(CSc1ccc(Br)cc1)[N-]c1cc(Cl)ccc1O

>  <Energy>  (61) 
28.386937123473505

>  <Genealogy>  (61) 
O=C(CSc1ccc(Br)cc1)[N-]c1cc(Cl)ccc1O (protonated)
O=C(CSc1ccc(Br)cc1)[N-]c1cc(Cl)ccc1O (3D coordinates assigned)
O=C(CSc1ccc(Br)cc1)[N-]c1cc(Cl)ccc1O (optimized conformer: 28.386937123473505 kcal/mol)

>  <smiles>  (61) 
O=C(CSc1ccc(Br)cc1)Nc1cc(Cl)ccc1O

>  <score_type>  (61) 
oracle

>  <origin>  (61) 
adg

>  <m_score__min__energy>  (61) 
-11.369999999999999

>  <m_primary>  (61) 
energy

$$$$
61:0
     RDKit          3D

 34 36  0  0  0  0  0  0  0  0999 V2000
   60.2081   26.0750   46.0034 H   0  0  0  0  0  0  0  0  0  0  0  0
   60.6830   26.8460   46.6280 C   0  0  0  0  0  0  0  0  0  0  0  0
   61.7402   26.7468   46.9154 H   0  0  0  0  0  0  0  0  0  0  0  0
   59.9750   27.9040   47.0380 C   0  0  0  0  0  0  0  0  0  0  0  0
   58.6320   28.1830   46.7650 C   0  0  0  0  0  0  0  0  0  0  0  0
   57.7920   27.4650   45.9960 C   0  0  0  0  0  0  0  0  0  0  0  0
   57.5337   27.8637   45.0039 H   0  0  0  0  0  0  0  0  0  0  0  0
   57.1960   26.1770   46.4000 C   0  0  0  0  0  0  0  0  0  0  0  0
   55.8580   25.8540   46.3520 C   0  0  0  0  0  0  0  0  0  0  0  0
   54.8300   26.7170   45.9950 O   0  0  0  0  0  0  0  0  0  0  0  0
   55.6680   24.5670   46.6960 N   0  0  0  0  0  0  0  0  0  0  0  0
   56.9240   24.1320   46.9310 C   0  0  0  0  0  0  0  0  0  0  0  0
   57.1860   22.9480   47.2690 O   0  0  0  0  0  0  0  0  0  0  0  0
   57.8750   25.0720   46.7540 N   0  0  0  0  0  0  0  0  0  0  0  0
   58.9090   24.9390   46.8180 H   0  0  0  0  0  0  0  0  0  0  0  0
   58.3580   29.3930   47.3930 C   0  0  0  0  0  0  0  0  0  0  0  0
   57.4022   29.9373   47.3863 H   0  0  0  0  0  0  0  0  0  0  0  0
   59.5240   29.7760   48.0270 C   0  0  0  0  0  0  0  0  0  0  0  0
   59.7280   31.0680   48.7550 C   0  0  0  0  0  0  0  0  0  0  0  0
   58.8602   31.2625   49.4024 H   0  0  0  0  0  0  0  0  0  0  0  0
   60.6403   30.9988   49.3657 H   0  0  0  0  0  0  0  0  0  0  0  0
   59.8770   32.1940   47.7700 C   0  0  0  0  0  0  0  0  0  0  0  0
   61.1540   32.6790   47.4380 C   0  0  0  0  0  0  0  0  0  0  0  0
   62.0487   32.2138   47.8774 H   0  0  0  0  0  0  0  0  0  0  0  0
   61.2900   33.7520   46.5500 C   0  0  0  0  0  0  0  0  0  0  0  0
   62.5250   34.2130   46.2300 F   0  0  0  0  0  0  0  0  0  0  0  0
   60.1550   34.3520   45.9990 C   0  0  0  0  0  0  0  0  0  0  0  0
   60.2639   35.1937   45.2993 H   0  0  0  0  0  0  0  0  0  0  0  0
   58.8820   33.8850   46.3350 C   0  0  0  0  0  0  0  0  0  0  0  0
   57.7820   34.4750   45.8060 F   0  0  0  0  0  0  0  0  0  0  0  0
   58.7420   32.8130   47.2220 C   0  0  0  0  0  0  0  0  0  0  0  0
   57.7382   32.4530   47.4917 H   0  0  0  0  0  0  0  0  0  0  0  0
   60.5030   28.8790   47.8040 N   0  0  0  0  0  0  0  0  0  0  0  0
   61.4890   28.9440   48.1460 H   0  0  0  0  0  0  0  0  0  0  0  0
  1  2  1  0
  2  3  1  0
  2  4  2  0
  4  5  1  0
  5  6  2  0
  6  7  1  0
  6  8  1  0
  8  9  2  0
  9 10  1  0
  9 11  1  0
 11 12  1  0
 12 13  2  0
 12 14  1  0
 14 15  1  0
  5 16  1  0
 16 17  1  0
 16 18  2  0
 18 19  1  0
 19 20  1  0
 19 21  1  0
 19 22  1  0
 22 23  2  0
 23 24  1  0
 23 25  1  0
 25 26  1  0
 25 27  2  0
 27 28  1  0
 27 29  1  0
 29 30  1  0
 29 31  2  0
 31 32  1  0
 18 33  1  0
 33 34  1  0
 33  4  1  0
 14  8  1  0
 31 22  1  0
M  CHG  2  10  -1  11  -1
M  END
>  <UniqueID>  (62) 
59

>  <SMILES>  (62) 
C=c1[nH]c(Cc2cc(F)cc(F)c2)c/c1=C\c1[nH]c(=O)[n-]c1[O-]

>  <Energy>  (62) 
97.43912221910303

>  <Genealogy>  (62) 
C=c1[nH]c(Cc2cc(F)cc(F)c2)cc1=Cc1[nH]c(=O)[n-]c1[O-] (protonated)
C=c1[nH]c(Cc2cc(F)cc(F)c2)c/c1=C\c1[nH]c(=O)[n-]c1[O-] (cis-trans isomerization)
C=c1[nH]c(Cc2cc(F)cc(F)c2)c/c1=C\c1[nH]c(=O)[n-]c1[O-] (3D coordinates assigned)
C=c1[nH]c(Cc2cc(F)cc(F)c2)c/c1=C\c1[nH]c(=O)[n-]c1[O-] (optimized conformer: 97.43912221910303 kcal/mol)

>  <smiles>  (62) 
C=c1[nH]c(Cc2cc(F)cc(F)c2)cc1=Cc1[nH]c(=O)[nH]c1O

>  <score_type>  (62) 
oracle

>  <origin>  (62) 
adg

>  <m_score__min__energy>  (62) 
-13.77

>  <m_primary>  (62) 
energy

$$$$
62:0
     RDKit          3D

 36 38  0  0  0  0  0  0  0  0999 V2000
   55.3710   26.6700   46.0340 O   0  0  0  0  0  0  0  0  0  0  0  0
   56.5920   26.9130   45.8380 C   0  0  0  0  0  0  0  0  0  0  0  0
   57.0400   28.3210   45.8500 C   0  0  0  0  0  0  0  0  0  0  0  0
   56.2950   29.3030   45.1910 C   0  0  0  0  0  0  0  0  0  0  0  0
   55.1340   28.9720   44.5010 O   0  0  0  0  0  0  0  0  0  0  0  0
   56.7030   30.5950   45.2230 N   0  0  0  0  0  0  0  0  0  0  0  0
   57.8330   30.9660   45.8770 C   0  0  0  0  0  0  0  0  0  0  0  0
   58.1540   32.1850   45.8970 O   0  0  0  0  0  0  0  0  0  0  0  0
   58.6050   30.0260   46.5100 N   0  0  0  0  0  0  0  0  0  0  0  0
   59.8040   30.4240   47.2070 C   0  0  0  0  0  0  0  0  0  0  0  0
   60.8250   31.1050   46.5250 C   0  0  0  0  0  0  0  0  0  0  0  0
   61.9850   31.4940   47.2010 C   0  0  0  0  0  0  0  0  0  0  0  0
   62.1340   31.2070   48.5610 C   0  0  0  0  0  0  0  0  0  0  0  0
   61.1200   30.5290   49.2480 C   0  0  0  0  0  0  0  0  0  0  0  0
   59.9590   30.1390   48.5750 C   0  0  0  0  0  0  0  0  0  0  0  0
   58.2310   28.7060   46.4860 C   0  0  0  0  0  0  0  0  0  0  0  0
   58.9670   27.8290   47.0170 O   0  0  0  0  0  0  0  0  0  0  0  0
   57.5360   25.7550   45.5650 C   0  0  0  0  0  0  0  0  0  0  0  0
   57.0210   24.4460   46.1650 C   0  0  0  0  0  0  0  0  0  0  0  0
   56.4080   23.6400   45.0210 C   0  0  0  0  0  0  0  0  0  0  0  0
   56.7150   24.3870   43.7260 C   0  0  0  0  0  0  0  0  0  0  0  0
   57.7320   25.4610   44.0790 C   0  0  0  0  0  0  0  0  0  0  0  0
   60.7117   31.3332   45.4549 H   0  0  0  0  0  0  0  0  0  0  0  0
   62.7821   32.0269   46.6618 H   0  0  0  0  0  0  0  0  0  0  0  0
   63.0477   31.5138   49.0912 H   0  0  0  0  0  0  0  0  0  0  0  0
   61.2372   30.3031   50.3182 H   0  0  0  0  0  0  0  0  0  0  0  0
   59.1635   29.6071   49.1175 H   0  0  0  0  0  0  0  0  0  0  0  0
   58.4821   26.0810   46.0218 H   0  0  0  0  0  0  0  0  0  0  0  0
   57.8519   23.8859   46.6187 H   0  0  0  0  0  0  0  0  0  0  0  0
   56.2761   24.6409   46.9506 H   0  0  0  0  0  0  0  0  0  0  0  0
   56.8511   22.6337   44.9895 H   0  0  0  0  0  0  0  0  0  0  0  0
   55.3224   23.5296   45.1596 H   0  0  0  0  0  0  0  0  0  0  0  0
   57.1346   23.6968   42.9793 H   0  0  0  0  0  0  0  0  0  0  0  0
   55.8040   24.8276   43.2949 H   0  0  0  0  0  0  0  0  0  0  0  0
   58.7530   25.0963   43.8930 H   0  0  0  0  0  0  0  0  0  0  0  0
   57.5919   26.3648   43.4678 H   0  0  0  0  0  0  0  0  0  0  0  0
  1  2  2  0
  2  3  1  0
  3  4  2  0
  4  5  1  0
  4  6  1  0
  6  7  1  0
  7  8  2  0
  7  9  1  0
  9 10  1  0
 10 11  2  0
 11 12  1  0
 12 13  2  0
 13 14  1  0
 14 15  2  0
  9 16  1  0
 16 17  2  0
  2 18  1  0
 18 19  1  0
 19 20  1  0
 20 21  1  0
 21 22  1  0
 16  3  1  0
 22 18  1  0
 15 10  1  0
 11 23  1  0
 12 24  1  0
 13 25  1  0
 14 26  1  0
 15 27  1  0
 18 28  1  0
 19 29  1  0
 19 30  1  0
 20 31  1  0
 20 32  1  0
 21 33  1  0
 21 34  1  0
 22 35  1  0
 22 36  1  0
M  CHG  2   5  -1   6  -1
M  END
>  <UniqueID>  (63) 
60

>  <SMILES>  (63) 
O=C(c1c([O-])[n-]c(=O)n(-c2ccccc2)c1=O)C1CCCC1

>  <Energy>  (63) 
57.7168039934055

>  <Genealogy>  (63) 
O=C(c1c([O-])[n-]c(=O)n(-c2ccccc2)c1=O)C1CCCC1 (protonated)
O=C(c1c([O-])[n-]c(=O)n(-c2ccccc2)c1=O)C1CCCC1 (3D coordinates assigned)
O=C(c1c([O-])[n-]c(=O)n(-c2ccccc2)c1=O)C1CCCC1 (nonaromatic ring conformer: 57.7168039934055 kcal/mol)

>  <smiles>  (63) 
O=C(c1c(O)[nH]c(=O)n(-c2ccccc2)c1=O)C1CCCC1

>  <score_type>  (63) 
oracle

>  <origin>  (63) 
adg

>  <m_score__min__energy>  (63) 
-11.720000000000001

>  <m_primary>  (63) 
energy

$$$$
63:0
     RDKit          3D

 65 69  0  0  0  0  0  0  0  0999 V2000
   60.7390   33.6280   51.6090 C   0  0  0  0  0  0  0  0  0  0  0  0
   60.8070   33.8140   50.1260 C   0  0  0  0  0  0  0  0  0  0  0  0
   59.6480   34.0750   49.3890 C   0  0  0  0  0  0  0  0  0  0  0  0
   59.7510   34.2140   48.0000 C   0  0  0  0  0  0  0  0  0  0  0  0
   58.5280   34.4820   47.1500 C   0  0  0  0  0  0  0  0  0  0  0  0
   58.9340   34.9290   45.7220 C   0  0  0  0  0  0  0  0  0  0  0  0
   59.1850   33.7500   44.7690 C   0  0  0  0  0  0  0  0  0  0  0  0
   58.1170   32.7440   44.8520 N   0  0  0  0  0  0  0  0  0  0  0  0
   58.1660   31.6040   43.9820 C   0  0  0  0  0  0  0  0  0  0  0  0
   58.4270   31.7650   42.7580 O   0  0  0  0  0  0  0  0  0  0  0  0
   57.9860   30.2400   44.5040 C   0  0  0  0  0  0  0  0  0  0  0  0
   56.7640   29.6780   44.6900 N   0  0  0  0  0  0  0  0  0  0  0  0
   57.0680   28.4820   45.2140 C   0  0  0  0  0  0  0  0  0  0  0  0
   56.1880   27.4860   45.6190 C   0  0  0  0  0  0  0  0  0  0  0  0
   56.7320   26.3040   46.1540 C   0  0  0  0  0  0  0  0  0  0  0  0
   55.8500   25.2630   46.5740 N   0  0  0  0  0  0  0  0  0  0  0  0
   56.3450   23.6080   46.7400 S   0  0  0  0  0  0  0  0  0  0  0  0
   55.4610   22.9300   47.7520 O   0  0  0  0  0  0  0  0  0  0  0  0
   57.7620   23.5690   47.2440 O   0  0  0  0  0  0  0  0  0  0  0  0
   56.2460   22.7300   45.2130 C   0  0  0  0  0  0  0  0  0  0  0  0
   56.4950   23.1990   43.9380 C   0  0  0  0  0  0  0  0  0  0  0  0
   56.9350   24.5750   43.5550 C   0  0  0  0  0  0  0  0  0  0  0  0
   56.2750   22.2070   43.0510 N   0  0  0  0  0  0  0  0  0  0  0  0
   55.8940   21.1640   43.7310 O   0  0  0  0  0  0  0  0  0  0  0  0
   55.8520   21.4220   45.0180 C   0  0  0  0  0  0  0  0  0  0  0  0
   55.4510   20.4320   46.0630 C   0  0  0  0  0  0  0  0  0  0  0  0
   58.1350   26.1770   46.3120 C   0  0  0  0  0  0  0  0  0  0  0  0
   59.0030   27.1990   45.8720 C   0  0  0  0  0  0  0  0  0  0  0  0
   60.4880   27.0780   46.0440 C   0  0  0  0  0  0  0  0  0  0  0  0
   58.4170   28.3490   45.3360 C   0  0  0  0  0  0  0  0  0  0  0  0
   59.0300   29.4610   44.8970 N   0  0  0  0  0  0  0  0  0  0  0  0
   57.0030   32.9340   45.7900 C   0  0  0  0  0  0  0  0  0  0  0  0
   57.5610   33.2640   47.1730 C   0  0  0  0  0  0  0  0  0  0  0  0
   60.9710   34.0900   47.4080 N   0  0  0  0  0  0  0  0  0  0  0  0
   62.0920   33.8310   48.1340 C   0  0  0  0  0  0  0  0  0  0  0  0
   63.3930   33.6740   47.4630 C   0  0  0  0  0  0  0  0  0  0  0  0
   64.5330   33.1860   48.1750 N   0  0  0  0  0  0  0  0  0  0  0  0
   63.5090   33.9880   46.2510 O   0  0  0  0  0  0  0  0  0  0  0  0
   61.9990   33.6870   49.4830 N   0  0  0  0  0  0  0  0  0  0  0  0
   61.0753   34.5479   52.1097 H   0  0  0  0  0  0  0  0  0  0  0  0
   59.7023   33.4081   51.9038 H   0  0  0  0  0  0  0  0  0  0  0  0
   61.3894   32.7913   51.9038 H   0  0  0  0  0  0  0  0  0  0  0  0
   58.6738   34.1693   49.8911 H   0  0  0  0  0  0  0  0  0  0  0  0
   57.9664   35.3236   47.5816 H   0  0  0  0  0  0  0  0  0  0  0  0
   58.1260   35.5490   45.3064 H   0  0  0  0  0  0  0  0  0  0  0  0
   59.8782   35.4866   45.8092 H   0  0  0  0  0  0  0  0  0  0  0  0
   59.2366   34.1303   43.7381 H   0  0  0  0  0  0  0  0  0  0  0  0
   60.1305   33.2697   45.0611 H   0  0  0  0  0  0  0  0  0  0  0  0
   55.1000   27.6175   45.5243 H   0  0  0  0  0  0  0  0  0  0  0  0
   57.1239   25.1657   44.4635 H   0  0  0  0  0  0  0  0  0  0  0  0
   57.8579   24.5125   42.9598 H   0  0  0  0  0  0  0  0  0  0  0  0
   56.1470   25.0596   42.9598 H   0  0  0  0  0  0  0  0  0  0  0  0
   55.6249   20.8613   47.0607 H   0  0  0  0  0  0  0  0  0  0  0  0
   54.3840   20.1902   45.9488 H   0  0  0  0  0  0  0  0  0  0  0  0
   56.0489   19.5158   45.9488 H   0  0  0  0  0  0  0  0  0  0  0  0
   58.5509   25.2735   46.7819 H   0  0  0  0  0  0  0  0  0  0  0  0
   60.7325   27.0581   47.1163 H   0  0  0  0  0  0  0  0  0  0  0  0
   60.8374   26.1484   45.5709 H   0  0  0  0  0  0  0  0  0  0  0  0
   60.9833   27.9388   45.5709 H   0  0  0  0  0  0  0  0  0  0  0  0
   56.3670   33.7617   45.4429 H   0  0  0  0  0  0  0  0  0  0  0  0
   56.4040   32.0129   45.8435 H   0  0  0  0  0  0  0  0  0  0  0  0
   56.7219   33.4924   47.8466 H   0  0  0  0  0  0  0  0  0  0  0  0
   58.1321   32.3903   47.5202 H   0  0  0  0  0  0  0  0  0  0  0  0
   64.4760   32.9370   49.1890 H   0  0  0  0  0  0  0  0  0  0  0  0
   65.4550   33.1050   47.6940 H   0  0  0  0  0  0  0  0  0  0  0  0
  1  2  1  0
  2  3  2  0
  3  4  1  0
  4  5  1  0
  5  6  1  0
  6  7  1  0
  7  8  1  0
  8  9  1  0
  9 10  2  0
  9 11  1  0
 11 12  2  0
 12 13  1  0
 13 14  2  0
 14 15  1  0
 15 16  1  0
 16 17  1  0
 17 18  2  0
 17 19  2  0
 17 20  1  0
 20 21  1  0
 21 22  1  0
 21 23  2  0
 23 24  1  0
 24 25  1  0
 25 26  1  0
 15 27  2  0
 27 28  1  0
 28 29  1  0
 28 30  2  0
 30 31  1  0
  8 32  1  0
 32 33  1  0
  4 34  2  0
 34 35  1  0
 35 36  1  0
 36 37  1  0
 36 38  2  0
 35 39  2  0
 39  2  1  0
 33  5  1  0
 31 11  1  0
 30 13  1  0
 25 20  2  0
  1 40  1  0
  1 41  1  0
  1 42  1  0
  3 43  1  0
  5 44  1  0
  6 45  1  0
  6 46  1  0
  7 47  1  0
  7 48  1  0
 14 49  1  0
 22 50  1  0
 22 51  1  0
 22 52  1  0
 26 53  1  0
 26 54  1  0
 26 55  1  0
 27 56  1  0
 29 57  1  0
 29 58  1  0
 29 59  1  0
 32 60  1  0
 32 61  1  0
 33 62  1  0
 33 63  1  0
 37 64  1  0
 37 65  1  0
M  CHG  2  16  -1  31  -1
M  END
>  <UniqueID>  (64) 
61

>  <SMILES>  (64) 
Cc1cc(C2CCN(C(=O)c3nc4cc([N-]S(=O)(=O)c5c(C)noc5C)cc(C)c4[n-]3)CC2)nc(C(N)=O)n1

>  <Energy>  (64) 
141.95324763012866

>  <Genealogy>  (64) 
Cc1cc(C2CCN(C(=O)c3nc4cc([N-]S(=O)(=O)c5c(C)noc5C)cc(C)c4[n-]3)CC2)nc(C(N)=O)n1 (protonated)
Cc1cc(C2CCN(C(=O)c3nc4cc([N-]S(=O)(=O)c5c(C)noc5C)cc(C)c4[n-]3)CC2)nc(C(N)=O)n1 (3D coordinates assigned)
Cc1cc(C2CCN(C(=O)c3nc4cc([N-]S(=O)(=O)c5c(C)noc5C)cc(C)c4[n-]3)CC2)nc(C(N)=O)n1 (nonaromatic ring conformer: 141.95324763012866 kcal/mol)

>  <smiles>  (64) 
Cc1cc(C2CCN(C(=O)c3nc4cc(NS(=O)(=O)c5c(C)noc5C)cc(C)c4[nH]3)CC2)nc(C(N)=O)n1

>  <score_type>  (64) 
oracle

>  <origin>  (64) 
adg

>  <m_score__min__energy>  (64) 
-14.93

>  <m_primary>  (64) 
energy

$$$$
64:0
     RDKit          3D

 67 70  0  0  0  0  0  0  0  0999 V2000
   68.9324   33.4987   50.6842 H   0  0  0  0  0  0  0  0  0  0  0  0
   67.8430   33.4950   50.5320 C   0  0  0  0  0  0  0  0  0  0  0  0
   67.3293   34.4134   50.2115 H   0  0  0  0  0  0  0  0  0  0  0  0
   67.1450   32.3770   50.7360 C   0  0  0  0  0  0  0  0  0  0  0  0
   67.6936   31.4788   51.0559 H   0  0  0  0  0  0  0  0  0  0  0  0
   65.6750   32.2670   50.5590 C   0  0  0  0  0  0  0  0  0  0  0  0
   64.9610   31.0890   50.8500 C   0  0  0  0  0  0  0  0  0  0  0  0
   65.4971   30.2027   51.2201 H   0  0  0  0  0  0  0  0  0  0  0  0
   63.5770   31.0380   50.6720 C   0  0  0  0  0  0  0  0  0  0  0  0
   63.0331   30.1075   50.8919 H   0  0  0  0  0  0  0  0  0  0  0  0
   62.8750   32.1610   50.2160 C   0  0  0  0  0  0  0  0  0  0  0  0
   63.5790   33.3440   49.9150 C   0  0  0  0  0  0  0  0  0  0  0  0
   64.9680   33.3940   50.1100 C   0  0  0  0  0  0  0  0  0  0  0  0
   65.5105   34.3294   49.9082 H   0  0  0  0  0  0  0  0  0  0  0  0
   62.8420   34.5870   49.4730 C   0  0  0  0  0  0  0  0  0  0  0  0
   62.6526   35.2169   50.3547 H   0  0  0  0  0  0  0  0  0  0  0  0
   63.4721   35.1037   48.7341 H   0  0  0  0  0  0  0  0  0  0  0  0
   61.5520   34.2800   48.8250 N   0  0  0  0  0  0  0  0  0  0  0  0
   61.7420   33.7500   47.4550 C   0  0  0  0  0  0  0  0  0  0  0  0
   62.2340   34.5169   46.8388 H   0  0  0  0  0  0  0  0  0  0  0  0
   62.3625   32.8437   47.5154 H   0  0  0  0  0  0  0  0  0  0  0  0
   60.4240   33.3840   46.8240 C   0  0  0  0  0  0  0  0  0  0  0  0
   60.0380   32.0400   46.7120 C   0  0  0  0  0  0  0  0  0  0  0  0
   60.6978   31.2475   47.0950 H   0  0  0  0  0  0  0  0  0  0  0  0
   58.8210   31.7030   46.1170 C   0  0  0  0  0  0  0  0  0  0  0  0
   58.5219   30.6470   46.0430 H   0  0  0  0  0  0  0  0  0  0  0  0
   57.9760   32.7060   45.6120 C   0  0  0  0  0  0  0  0  0  0  0  0
   56.6900   32.3350   44.9180 C   0  0  0  0  0  0  0  0  0  0  0  0
   55.8820   32.2950   45.6634 H   0  0  0  0  0  0  0  0  0  0  0  0
   56.4837   33.0962   44.1512 H   0  0  0  0  0  0  0  0  0  0  0  0
   56.7860   31.0340   44.2530 N   0  0  0  0  0  0  0  0  0  0  0  0
   56.5160   29.7660   44.8640 C   0  0  0  0  0  0  0  0  0  0  0  0
   55.3370   29.3290   44.8800 O   0  0  0  0  0  0  0  0  0  0  0  0
   57.5800   28.9370   45.3360 N   0  0  0  0  0  0  0  0  0  0  0  0
   57.4700   27.8120   45.9820 C   0  0  0  0  0  0  0  0  0  0  0  0
   56.7190   26.7540   45.5270 C   0  0  0  0  0  0  0  0  0  0  0  0
   56.0771   26.7141   44.6346 H   0  0  0  0  0  0  0  0  0  0  0  0
   56.9570   25.7490   46.4520 C   0  0  0  0  0  0  0  0  0  0  0  0
   56.4330   24.3270   46.3670 C   0  0  0  0  0  0  0  0  0  0  0  0
   56.2980   23.7430   47.7870 C   0  0  0  0  0  0  0  0  0  0  0  0
   56.4811   24.5350   48.5281 H   0  0  0  0  0  0  0  0  0  0  0  0
   55.2832   23.3409   47.9231 H   0  0  0  0  0  0  0  0  0  0  0  0
   57.0334   22.9363   47.9231 H   0  0  0  0  0  0  0  0  0  0  0  0
   57.3980   23.4400   45.5510 C   0  0  0  0  0  0  0  0  0  0  0  0
   58.0307   22.8584   46.2376 H   0  0  0  0  0  0  0  0  0  0  0  0
   56.8176   22.7536   44.9170 H   0  0  0  0  0  0  0  0  0  0  0  0
   58.0332   24.0761   44.9170 H   0  0  0  0  0  0  0  0  0  0  0  0
   55.0540   24.3350   45.6770 C   0  0  0  0  0  0  0  0  0  0  0  0
   54.2620   24.3396   46.4404 H   0  0  0  0  0  0  0  0  0  0  0  0
   54.9633   25.2337   45.0492 H   0  0  0  0  0  0  0  0  0  0  0  0
   54.9529   23.4374   45.0492 H   0  0  0  0  0  0  0  0  0  0  0  0
   57.7860   26.2070   47.4170 N   0  0  0  0  0  0  0  0  0  0  0  0
   58.0960   27.4630   47.1340 N   0  0  0  0  0  0  0  0  0  0  0  0
   58.9010   28.2900   48.0310 C   0  0  0  0  0  0  0  0  0  0  0  0
   58.6590   28.0414   49.0749 H   0  0  0  0  0  0  0  0  0  0  0  0
   59.9685   28.0990   47.8466 H   0  0  0  0  0  0  0  0  0  0  0  0
   58.6813   29.3519   47.8466 H   0  0  0  0  0  0  0  0  0  0  0  0
   58.3460   34.0520   45.7540 C   0  0  0  0  0  0  0  0  0  0  0  0
   57.6745   34.8455   45.3943 H   0  0  0  0  0  0  0  0  0  0  0  0
   59.5650   34.3890   46.3510 C   0  0  0  0  0  0  0  0  0  0  0  0
   59.8522   35.4462   46.4505 H   0  0  0  0  0  0  0  0  0  0  0  0
   60.7300   33.4080   49.6940 C   0  0  0  0  0  0  0  0  0  0  0  0
   60.5667   33.9212   50.6531 H   0  0  0  0  0  0  0  0  0  0  0  0
   59.7833   33.2145   49.1683 H   0  0  0  0  0  0  0  0  0  0  0  0
   61.3920   32.0480   49.9710 C   0  0  0  0  0  0  0  0  0  0  0  0
   60.9216   31.6024   50.8599 H   0  0  0  0  0  0  0  0  0  0  0  0
   61.2500   31.4218   49.0779 H   0  0  0  0  0  0  0  0  0  0  0  0
  1  2  1  0
  2  3  1  0
  2  4  2  0
  4  5  1  0
  4  6  1  0
  6  7  2  0
  7  8  1  0
  7  9  1  0
  9 10  1  0
  9 11  2  0
 11 12  1  0
 12 13  2  0
 13 14  1  0
 12 15  1  0
 15 16  1  0
 15 17  1  0
 15 18  1  0
 18 19  1  0
 19 20  1  0
 19 21  1  0
 19 22  1  0
 22 23  2  0
 23 24  1  0
 23 25  1  0
 25 26  1  0
 25 27  2  0
 27 28  1  0
 28 29  1  0
 28 30  1  0
 28 31  1  0
 31 32  1  0
 32 33  2  0
 32 34  1  0
 34 35  2  0
 35 36  1  0
 36 37  1  0
 36 38  2  0
 38 39  1  0
 39 40  1  0
 40 41  1  0
 40 42  1  0
 40 43  1  0
 39 44  1  0
 44 45  1  0
 44 46  1  0
 44 47  1  0
 39 48  1  0
 48 49  1  0
 48 50  1  0
 48 51  1  0
 38 52  1  0
 52 53  1  0
 53 54  1  0
 54 55  1  0
 54 56  1  0
 54 57  1  0
 27 58  1  0
 58 59  1  0
 58 60  2  0
 60 61  1  0
 18 62  1  0
 62 63  1  0
 62 64  1  0
 62 65  1  0
 65 66  1  0
 65 67  1  0
 13  6  1  0
 60 22  1  0
 65 11  1  0
 53 35  1  0
M  CHG  2  31  -1  52  -1
M  END
>  <UniqueID>  (65) 
62

>  <SMILES>  (65) 
C=Cc1ccc2c(c1)CN(Cc1ccc(C[N-]C(=O)/N=c3/cc(C(C)(C)C)[n-]n3C)cc1)CC2

>  <Energy>  (65) 
111.82455779804643

>  <Genealogy>  (65) 
C=Cc1ccc2c(c1)CN(Cc1ccc(C[N-]C(=O)N=c3cc(C(C)(C)C)[n-]n3C)cc1)CC2 (protonated)
C=Cc1ccc2c(c1)CN(Cc1ccc(C[N-]C(=O)/N=c3/cc(C(C)(C)C)[n-]n3C)cc1)CC2 (cis-trans isomerization)
C=Cc1ccc2c(c1)CN(Cc1ccc(C[N-]C(=O)/N=c3/cc(C(C)(C)C)[n-]n3C)cc1)CC2 (3D coordinates assigned)
C=Cc1ccc2c(c1)CN(Cc1ccc(C[N-]C(=O)/N=c3/cc(C(C)(C)C)[n-]n3C)cc1)CC2 (nonaromatic ring conformer: 111.82455779804643 kcal/mol)

>  <smiles>  (65) 
C=Cc1ccc2c(c1)CN(Cc1ccc(CNC(=O)N=c3cc(C(C)(C)C)[nH]n3C)cc1)CC2

>  <score_type>  (65) 
oracle

>  <origin>  (65) 
adg

>  <m_score__min__energy>  (65) 
-12.039999999999999

>  <m_primary>  (65) 
energy

$$$$
65:0
     RDKit          3D

 58 60  0  0  0  0  0  0  0  0999 V2000
   54.7340   26.3310   45.9600 O   0  0  0  0  0  0  0  0  0  0  0  0
   55.9740   26.1710   46.1410 C   0  0  0  0  0  0  0  0  0  0  0  0
   56.9600   26.9830   45.3610 C   0  0  0  0  0  0  0  0  0  0  0  0
   57.1360   28.3010   45.9620 N   0  0  0  0  0  0  0  0  0  0  0  0
   56.9580   29.5300   45.2500 C   0  0  0  0  0  0  0  0  0  0  0  0
   55.8060   29.8790   44.8730 O   0  0  0  0  0  0  0  0  0  0  0  0
   58.1650   30.3830   44.9390 C   0  0  0  0  0  0  0  0  0  0  0  0
   57.7740   31.7340   44.3290 C   0  0  0  0  0  0  0  0  0  0  0  0
   57.2350   32.7220   45.3730 C   0  0  0  0  0  0  0  0  0  0  0  0
   58.1080   32.8640   46.5520 N   0  0  0  0  0  0  0  0  0  0  0  0
   59.3640   34.0740   46.3860 S   0  0  0  0  0  0  0  0  0  0  0  0
   59.6080   34.3190   44.9220 O   0  0  0  0  0  0  0  0  0  0  0  0
   58.8890   35.3680   46.9880 O   0  0  0  0  0  0  0  0  0  0  0  0
   60.8940   33.6290   47.1440 C   0  0  0  0  0  0  0  0  0  0  0  0
   62.0840   33.6500   46.3990 C   0  0  0  0  0  0  0  0  0  0  0  0
   63.3030   33.3280   47.0070 C   0  0  0  0  0  0  0  0  0  0  0  0
   63.3410   33.0010   48.3660 C   0  0  0  0  0  0  0  0  0  0  0  0
   62.1630   32.9990   49.1180 C   0  0  0  0  0  0  0  0  0  0  0  0
   60.9440   33.3220   48.5120 C   0  0  0  0  0  0  0  0  0  0  0  0
   58.5530   31.5970   47.1660 C   0  0  0  0  0  0  0  0  0  0  0  0
   59.0900   30.5770   46.1500 C   0  0  0  0  0  0  0  0  0  0  0  0
   56.4480   25.1690   47.0480 N   0  0  0  0  0  0  0  0  0  0  0  0
   56.9550   23.8690   46.6220 C   0  0  0  0  0  0  0  0  0  0  0  0
   58.2470   24.0130   45.8000 C   0  0  0  0  0  0  0  0  0  0  0  0
   58.1340   23.3650   44.4750 N   0  0  0  0  0  0  0  0  0  0  0  0
   57.1380   24.0480   43.6130 C   0  0  0  0  0  0  0  0  0  0  0  0
   55.7980   23.2900   43.5700 C   0  0  0  0  0  0  0  0  0  0  0  0
   55.9110   21.9600   43.0790 O   0  0  0  0  0  0  0  0  0  0  0  0
   57.1770   21.3660   43.3330 C   0  0  0  0  0  0  0  0  0  0  0  0
   57.8730   21.9110   44.5930 C   0  0  0  0  0  0  0  0  0  0  0  0
   57.9278   26.4603   45.3481 H   0  0  0  0  0  0  0  0  0  0  0  0
   56.5802   27.1103   44.3365 H   0  0  0  0  0  0  0  0  0  0  0  0
   58.7369   29.8228   44.1846 H   0  0  0  0  0  0  0  0  0  0  0  0
   58.6619   32.1751   43.8526 H   0  0  0  0  0  0  0  0  0  0  0  0
   56.9707   31.5495   43.6006 H   0  0  0  0  0  0  0  0  0  0  0  0
   57.1288   33.7081   44.8973 H   0  0  0  0  0  0  0  0  0  0  0  0
   56.2726   32.3251   45.7283 H   0  0  0  0  0  0  0  0  0  0  0  0
   62.0582   33.9206   45.3331 H   0  0  0  0  0  0  0  0  0  0  0  0
   64.2307   33.3322   46.4159 H   0  0  0  0  0  0  0  0  0  0  0  0
   64.2984   32.7452   48.8434 H   0  0  0  0  0  0  0  0  0  0  0  0
   62.1942   32.7432   50.1874 H   0  0  0  0  0  0  0  0  0  0  0  0
   60.0212   33.3353   49.1105 H   0  0  0  0  0  0  0  0  0  0  0  0
   59.3516   31.8221   47.8882 H   0  0  0  0  0  0  0  0  0  0  0  0
   57.6724   31.1433   47.6443 H   0  0  0  0  0  0  0  0  0  0  0  0
   60.0692   30.9252   45.7895 H   0  0  0  0  0  0  0  0  0  0  0  0
   59.1597   29.6080   46.6660 H   0  0  0  0  0  0  0  0  0  0  0  0
   57.1632   23.2568   47.5119 H   0  0  0  0  0  0  0  0  0  0  0  0
   56.1932   23.3906   45.9890 H   0  0  0  0  0  0  0  0  0  0  0  0
   58.4591   25.0827   45.6556 H   0  0  0  0  0  0  0  0  0  0  0  0
   59.0592   23.5183   46.3528 H   0  0  0  0  0  0  0  0  0  0  0  0
   56.9615   25.0598   44.0069 H   0  0  0  0  0  0  0  0  0  0  0  0
   57.5413   24.0847   42.5902 H   0  0  0  0  0  0  0  0  0  0  0  0
   55.3881   23.2504   44.5900 H   0  0  0  0  0  0  0  0  0  0  0  0
   55.1415   23.8351   42.8759 H   0  0  0  0  0  0  0  0  0  0  0  0
   57.0340   20.2823   43.4562 H   0  0  0  0  0  0  0  0  0  0  0  0
   57.8241   21.6086   42.4772 H   0  0  0  0  0  0  0  0  0  0  0  0
   57.2272   21.7321   45.4653 H   0  0  0  0  0  0  0  0  0  0  0  0
   58.8362   21.3928   44.7104 H   0  0  0  0  0  0  0  0  0  0  0  0
  1  2  2  0
  2  3  1  0
  3  4  1  0
  4  5  1  0
  5  6  2  0
  5  7  1  0
  7  8  1  0
  8  9  1  0
  9 10  1  0
 10 11  1  0
 11 12  2  0
 11 13  2  0
 11 14  1  0
 14 15  2  0
 15 16  1  0
 16 17  2  0
 17 18  1  0
 18 19  2  0
 10 20  1  0
 20 21  1  0
  2 22  1  0
 22 23  1  0
 23 24  1  0
 24 25  1  0
 25 26  1  0
 26 27  1  0
 27 28  1  0
 28 29  1  0
 29 30  1  0
 21  7  1  0
 30 25  1  0
 19 14  1  0
  3 31  1  0
  3 32  1  0
  7 33  1  0
  8 34  1  0
  8 35  1  0
  9 36  1  0
  9 37  1  0
 15 38  1  0
 16 39  1  0
 17 40  1  0
 18 41  1  0
 19 42  1  0
 20 43  1  0
 20 44  1  0
 21 45  1  0
 21 46  1  0
 23 47  1  0
 23 48  1  0
 24 49  1  0
 24 50  1  0
 26 51  1  0
 26 52  1  0
 27 53  1  0
 27 54  1  0
 29 55  1  0
 29 56  1  0
 30 57  1  0
 30 58  1  0
M  CHG  2   4  -1  22  -1
M  END
>  <UniqueID>  (66) 
63

>  <SMILES>  (66) 
O=C(C[N-]C(=O)C1CCN(S(=O)(=O)c2ccccc2)CC1)[N-]CCN1CCOCC1

>  <Energy>  (66) 
71.81351454765812

>  <Genealogy>  (66) 
O=C(C[N-]C(=O)C1CCN(S(=O)(=O)c2ccccc2)CC1)[N-]CCN1CCOCC1 (protonated)
O=C(C[N-]C(=O)C1CCN(S(=O)(=O)c2ccccc2)CC1)[N-]CCN1CCOCC1 (3D coordinates assigned)
O=C(C[N-]C(=O)C1CCN(S(=O)(=O)c2ccccc2)CC1)[N-]CCN1CCOCC1 (nonaromatic ring conformer: 71.81351454765812 kcal/mol)

>  <smiles>  (66) 
O=C(CNC(=O)C1CCN(S(=O)(=O)c2ccccc2)CC1)NCCN1CCOCC1

>  <score_type>  (66) 
oracle

>  <origin>  (66) 
adg

>  <m_score__min__energy>  (66) 
-14.300000000000001

>  <m_primary>  (66) 
energy

$$$$
66:0
     RDKit          3D

 50 54  0  0  0  0  0  0  0  0999 V2000
   55.5390   29.1770   44.9380 O   0  0  0  0  0  0  0  0  0  0  0  0
   56.6650   29.7430   44.9180 C   0  0  0  0  0  0  0  0  0  0  0  0
   56.7290   31.1260   44.5380 N   0  0  0  0  0  0  0  0  0  0  0  0
   57.5140   32.1680   45.1410 C   0  0  0  0  0  0  0  0  0  0  0  0
   57.0200   33.4770   45.1130 C   0  0  0  0  0  0  0  0  0  0  0  0
   57.7810   34.5300   45.6210 C   0  0  0  0  0  0  0  0  0  0  0  0
   59.0510   34.2900   46.1510 C   0  0  0  0  0  0  0  0  0  0  0  0
   59.5790   32.9870   46.1780 C   0  0  0  0  0  0  0  0  0  0  0  0
   60.9230   32.7430   46.7730 C   0  0  0  0  0  0  0  0  0  0  0  0
   61.9110   33.3970   46.3460 O   0  0  0  0  0  0  0  0  0  0  0  0
   61.1350   31.8400   47.8700 N   0  0  0  0  0  0  0  0  0  0  0  0
   60.1600   31.4210   48.8360 C   0  0  0  0  0  0  0  0  0  0  0  0
   59.9250   30.0630   49.0990 C   0  0  0  0  0  0  0  0  0  0  0  0
   58.9240   29.6850   49.9990 C   0  0  0  0  0  0  0  0  0  0  0  0
   58.1510   30.6570   50.6560 C   0  0  0  0  0  0  0  0  0  0  0  0
   57.0740   30.2590   51.5880 C   0  0  0  0  0  0  0  0  0  0  0  0
   57.1930   29.2150   52.4530 N   0  0  0  0  0  0  0  0  0  0  0  0
   56.0130   29.2220   53.0890 C   0  0  0  0  0  0  0  0  0  0  0  0
   55.5780   28.3600   54.0910 C   0  0  0  0  0  0  0  0  0  0  0  0
   54.2850   28.5620   54.6130 C   0  0  0  0  0  0  0  0  0  0  0  0
   53.4720   29.6080   54.1180 C   0  0  0  0  0  0  0  0  0  0  0  0
   53.9470   30.4610   53.1030 C   0  0  0  0  0  0  0  0  0  0  0  0
   55.2310   30.2300   52.6140 C   0  0  0  0  0  0  0  0  0  0  0  0
   55.8800   30.9080   51.6580 N   0  0  0  0  0  0  0  0  0  0  0  0
   58.4140   32.0170   50.4110 C   0  0  0  0  0  0  0  0  0  0  0  0
   59.4170   32.3930   49.5130 C   0  0  0  0  0  0  0  0  0  0  0  0
   58.7930   31.9300   45.6780 C   0  0  0  0  0  0  0  0  0  0  0  0
   57.8620   28.9760   45.3240 C   0  0  0  0  0  0  0  0  0  0  0  0
   59.0080   28.9760   44.5090 C   0  0  0  0  0  0  0  0  0  0  0  0
   60.1580   28.2870   44.9090 C   0  0  0  0  0  0  0  0  0  0  0  0
   60.1690   27.5840   46.1160 C   0  0  0  0  0  0  0  0  0  0  0  0
   59.0300   27.5660   46.9250 C   0  0  0  0  0  0  0  0  0  0  0  0
   57.8780   28.2560   46.5310 C   0  0  0  0  0  0  0  0  0  0  0  0
   56.0254   33.6769   44.6878 H   0  0  0  0  0  0  0  0  0  0  0  0
   57.3792   35.5539   45.6042 H   0  0  0  0  0  0  0  0  0  0  0  0
   59.6427   35.1269   46.5504 H   0  0  0  0  0  0  0  0  0  0  0  0
   60.5296   29.2940   48.5960 H   0  0  0  0  0  0  0  0  0  0  0  0
   58.7402   28.6182   50.1942 H   0  0  0  0  0  0  0  0  0  0  0  0
   56.2214   27.5489   54.4627 H   0  0  0  0  0  0  0  0  0  0  0  0
   53.9064   27.9035   55.4087 H   0  0  0  0  0  0  0  0  0  0  0  0
   52.4622   29.7563   54.5284 H   0  0  0  0  0  0  0  0  0  0  0  0
   53.3266   31.2801   52.7104 H   0  0  0  0  0  0  0  0  0  0  0  0
   57.8267   32.7893   50.9293 H   0  0  0  0  0  0  0  0  0  0  0  0
   59.6229   33.4593   49.3380 H   0  0  0  0  0  0  0  0  0  0  0  0
   59.1851   30.9027   45.7078 H   0  0  0  0  0  0  0  0  0  0  0  0
   59.0002   29.5200   43.5530 H   0  0  0  0  0  0  0  0  0  0  0  0
   61.0548   28.2989   44.2721 H   0  0  0  0  0  0  0  0  0  0  0  0
   61.0747   27.0444   46.4297 H   0  0  0  0  0  0  0  0  0  0  0  0
   59.0388   27.0085   47.8732 H   0  0  0  0  0  0  0  0  0  0  0  0
   56.9817   28.2348   47.1683 H   0  0  0  0  0  0  0  0  0  0  0  0
  1  2  2  0
  2  3  1  0
  3  4  1  0
  4  5  2  0
  5  6  1  0
  6  7  2  0
  7  8  1  0
  8  9  1  0
  9 10  2  0
  9 11  1  0
 11 12  1  0
 12 13  2  0
 13 14  1  0
 14 15  2  0
 15 16  1  0
 16 17  2  0
 17 18  1  0
 18 19  2  0
 19 20  1  0
 20 21  2  0
 21 22  1  0
 22 23  2  0
 23 24  1  0
 15 25  1  0
 25 26  2  0
  8 27  2  0
  2 28  1  0
 28 29  2  0
 29 30  1  0
 30 31  2  0
 31 32  1  0
 32 33  2  0
 27  4  1  0
 33 28  1  0
 26 12  1  0
 24 16  1  0
 23 18  1  0
  5 34  1  0
  6 35  1  0
  7 36  1  0
 13 37  1  0
 14 38  1  0
 19 39  1  0
 20 40  1  0
 21 41  1  0
 22 42  1  0
 25 43  1  0
 26 44  1  0
 27 45  1  0
 29 46  1  0
 30 47  1  0
 31 48  1  0
 32 49  1  0
 33 50  1  0
M  CHG  3   3  -1  11  -1  24  -1
M  END
>  <UniqueID>  (67) 
64

>  <SMILES>  (67) 
O=C([N-]c1cccc(C(=O)[N-]c2ccc(-c3nc4ccccc4[n-]3)cc2)c1)c1ccccc1

>  <Energy>  (67) 
105.29988108988144

>  <Genealogy>  (67) 
O=C([N-]c1cccc(C(=O)[N-]c2ccc(-c3nc4ccccc4[n-]3)cc2)c1)c1ccccc1 (protonated)
O=C([N-]c1cccc(C(=O)[N-]c2ccc(-c3nc4ccccc4[n-]3)cc2)c1)c1ccccc1 (3D coordinates assigned)
O=C([N-]c1cccc(C(=O)[N-]c2ccc(-c3nc4ccccc4[n-]3)cc2)c1)c1ccccc1 (optimized conformer: 105.29988108988144 kcal/mol)

>  <smiles>  (67) 
O=C(Nc1cccc(C(=O)Nc2ccc(-c3nc4ccccc4[nH]3)cc2)c1)c1ccccc1

>  <score_type>  (67) 
oracle

>  <origin>  (67) 
adg

>  <m_score__min__energy>  (67) 
-13.49

>  <m_primary>  (67) 
energy

$$$$
67:0
     RDKit          3D

 41 42  0  0  0  0  0  0  0  0999 V2000
   54.9610   29.3180   44.4850 O   0  0  0  0  0  0  0  0  0  0  0  0
   56.0970   29.8070   44.7250 C   0  0  0  0  0  0  0  0  0  0  0  0
   57.1960   28.9150   45.2170 C   0  0  0  0  0  0  0  0  0  0  0  0
   56.8600   27.5120   44.9920 N   0  0  0  0  0  0  0  0  0  0  0  0
   56.3290   26.6500   46.0040 C   0  0  0  0  0  0  0  0  0  0  0  0
   55.0980   26.3740   46.0260 O   0  0  0  0  0  0  0  0  0  0  0  0
   57.2080   26.1120   46.9960 N   0  0  0  0  0  0  0  0  0  0  0  0
   58.6470   25.9650   46.8050 C   0  0  0  0  0  0  0  0  0  0  0  0
   59.3300   27.3010   46.9100 C   0  0  0  0  0  0  0  0  0  0  0  0
   59.1430   28.1140   48.0410 C   0  0  0  0  0  0  0  0  0  0  0  0
   59.7600   29.3660   48.1170 C   0  0  0  0  0  0  0  0  0  0  0  0
   60.5630   29.8190   47.0660 C   0  0  0  0  0  0  0  0  0  0  0  0
   61.3350   31.3910   47.1630 Cl  0  0  0  0  0  0  0  0  0  0  0  0
   60.7520   29.0160   45.9380 C   0  0  0  0  0  0  0  0  0  0  0  0
   60.1370   27.7630   45.8580 C   0  0  0  0  0  0  0  0  0  0  0  0
   56.3500   31.1970   44.4960 N   0  0  0  0  0  0  0  0  0  0  0  0
   57.6410   31.8310   44.7440 C   0  0  0  0  0  0  0  0  0  0  0  0
   57.4490   33.3050   45.1100 C   0  0  0  0  0  0  0  0  0  0  0  0
   58.3210   33.6780   46.2800 C   0  0  0  0  0  0  0  0  0  0  0  0
   58.1480   33.0490   47.5260 C   0  0  0  0  0  0  0  0  0  0  0  0
   58.9790   33.3750   48.6020 C   0  0  0  0  0  0  0  0  0  0  0  0
   59.9940   34.3210   48.4410 C   0  0  0  0  0  0  0  0  0  0  0  0
   60.1810   34.9420   47.2010 C   0  0  0  0  0  0  0  0  0  0  0  0
   59.3510   34.6210   46.1230 C   0  0  0  0  0  0  0  0  0  0  0  0
   58.1246   29.1550   44.6784 H   0  0  0  0  0  0  0  0  0  0  0  0
   57.3285   29.0787   46.2966 H   0  0  0  0  0  0  0  0  0  0  0  0
   59.0480   25.2915   47.5768 H   0  0  0  0  0  0  0  0  0  0  0  0
   58.8329   25.5473   45.8045 H   0  0  0  0  0  0  0  0  0  0  0  0
   58.5091   27.7640   48.8691 H   0  0  0  0  0  0  0  0  0  0  0  0
   59.6133   29.9966   49.0063 H   0  0  0  0  0  0  0  0  0  0  0  0
   61.3857   29.3704   45.1117 H   0  0  0  0  0  0  0  0  0  0  0  0
   60.2861   27.1360   44.9665 H   0  0  0  0  0  0  0  0  0  0  0  0
   58.1454   31.3141   45.5737 H   0  0  0  0  0  0  0  0  0  0  0  0
   58.2520   31.7661   43.8316 H   0  0  0  0  0  0  0  0  0  0  0  0
   57.7170   33.9301   44.2455 H   0  0  0  0  0  0  0  0  0  0  0  0
   56.3966   33.4681   45.3855 H   0  0  0  0  0  0  0  0  0  0  0  0
   57.3553   32.2972   47.6545 H   0  0  0  0  0  0  0  0  0  0  0  0
   58.8333   32.8860   49.5765 H   0  0  0  0  0  0  0  0  0  0  0  0
   60.6462   34.5778   49.2888 H   0  0  0  0  0  0  0  0  0  0  0  0
   60.9828   35.6843   47.0743 H   0  0  0  0  0  0  0  0  0  0  0  0
   59.5046   35.1081   45.1487 H   0  0  0  0  0  0  0  0  0  0  0  0
  1  2  2  0
  2  3  1  0
  3  4  1  0
  4  5  1  0
  5  6  2  0
  5  7  1  0
  7  8  1  0
  8  9  1  0
  9 10  2  0
 10 11  1  0
 11 12  2  0
 12 13  1  0
 12 14  1  0
 14 15  2  0
  2 16  1  0
 16 17  1  0
 17 18  1  0
 18 19  1  0
 19 20  2  0
 20 21  1  0
 21 22  2  0
 22 23  1  0
 23 24  2  0
 15  9  1  0
 24 19  1  0
  3 25  1  0
  3 26  1  0
  8 27  1  0
  8 28  1  0
 10 29  1  0
 11 30  1  0
 14 31  1  0
 15 32  1  0
 17 33  1  0
 17 34  1  0
 18 35  1  0
 18 36  1  0
 20 37  1  0
 21 38  1  0
 22 39  1  0
 23 40  1  0
 24 41  1  0
M  CHG  3   4  -1   7  -1  16  -1
M  END
>  <UniqueID>  (68) 
65

>  <SMILES>  (68) 
O=C(C[N-]C(=O)[N-]Cc1ccc(Cl)cc1)[N-]CCc1ccccc1

>  <Energy>  (68) 
31.896577614101005

>  <Genealogy>  (68) 
O=C(C[N-]C(=O)[N-]Cc1ccc(Cl)cc1)[N-]CCc1ccccc1 (protonated)
O=C(C[N-]C(=O)[N-]Cc1ccc(Cl)cc1)[N-]CCc1ccccc1 (3D coordinates assigned)
O=C(C[N-]C(=O)[N-]Cc1ccc(Cl)cc1)[N-]CCc1ccccc1 (optimized conformer: 31.896577614101005 kcal/mol)

>  <smiles>  (68) 
O=C(CNC(=O)NCc1ccc(Cl)cc1)NCCc1ccccc1

>  <score_type>  (68) 
oracle

>  <origin>  (68) 
adg

>  <m_score__min__energy>  (68) 
-13.890000000000001

>  <m_primary>  (68) 
energy

$$$$
68:0
     RDKit          3D

 46 49  0  0  0  0  0  0  0  0999 V2000
   55.8850   29.8830   44.8750 O   0  0  0  0  0  0  0  0  0  0  0  0
   57.0610   30.1640   44.5150 C   0  0  0  0  0  0  0  0  0  0  0  0
   57.3060   31.4330   43.7360 C   0  0  0  0  0  0  0  0  0  0  0  0
   57.8660   32.5180   44.6160 C   0  0  0  0  0  0  0  0  0  0  0  0
   58.7920   33.4430   44.1040 C   0  0  0  0  0  0  0  0  0  0  0  0
   59.2860   34.4680   44.9190 C   0  0  0  0  0  0  0  0  0  0  0  0
   58.8540   34.5810   46.2440 C   0  0  0  0  0  0  0  0  0  0  0  0
   57.9240   33.6720   46.7560 C   0  0  0  0  0  0  0  0  0  0  0  0
   57.4270   32.6460   45.9460 C   0  0  0  0  0  0  0  0  0  0  0  0
   58.1340   29.2440   44.8110 N   0  0  0  0  0  0  0  0  0  0  0  0
   57.8580   27.7990   44.8380 C   0  0  0  0  0  0  0  0  0  0  0  0
   57.8850   27.2570   46.2740 C   0  0  0  0  0  0  0  0  0  0  0  0
   59.2940   27.1940   46.8890 C   0  0  0  0  0  0  0  0  0  0  0  0
   59.7520   28.5140   47.3200 N   0  0  0  0  0  0  0  0  0  0  0  0
   60.2270   28.7820   48.5270 N   0  0  0  0  0  0  0  0  0  0  0  0
   60.6180   30.0470   48.5800 N   0  0  0  0  0  0  0  0  0  0  0  0
   60.3890   30.6080   47.3770 C   0  0  0  0  0  0  0  0  0  0  0  0
   60.7920   31.9990   46.9940 C   0  0  0  0  0  0  0  0  0  0  0  0
   61.7110   32.5420   47.9900 N   0  0  0  0  0  0  0  0  0  0  0  0
   62.9720   32.9570   47.7630 C   0  0  0  0  0  0  0  0  0  0  0  0
   63.5210   33.3440   48.9650 C   0  0  0  0  0  0  0  0  0  0  0  0
   62.5220   33.1260   49.8950 C   0  0  0  0  0  0  0  0  0  0  0  0
   61.4300   32.6330   49.2790 N   0  0  0  0  0  0  0  0  0  0  0  0
   59.8350   29.6330   46.5700 C   0  0  0  0  0  0  0  0  0  0  0  0
   59.4920   29.7370   45.1040 C   0  0  0  0  0  0  0  0  0  0  0  0
   58.0211   31.2238   42.9268 H   0  0  0  0  0  0  0  0  0  0  0  0
   56.3452   31.7797   43.3278 H   0  0  0  0  0  0  0  0  0  0  0  0
   59.1293   33.3612   43.0602 H   0  0  0  0  0  0  0  0  0  0  0  0
   60.0155   35.1861   44.5164 H   0  0  0  0  0  0  0  0  0  0  0  0
   59.2462   35.3855   46.8835 H   0  0  0  0  0  0  0  0  0  0  0  0
   57.5825   33.7637   47.7976 H   0  0  0  0  0  0  0  0  0  0  0  0
   56.6901   31.9366   46.3506 H   0  0  0  0  0  0  0  0  0  0  0  0
   56.8644   27.6150   44.4034 H   0  0  0  0  0  0  0  0  0  0  0  0
   58.6365   27.2841   44.2559 H   0  0  0  0  0  0  0  0  0  0  0  0
   57.2614   27.9097   46.9026 H   0  0  0  0  0  0  0  0  0  0  0  0
   57.5074   26.2247   46.2333 H   0  0  0  0  0  0  0  0  0  0  0  0
   59.2741   26.5213   47.7591 H   0  0  0  0  0  0  0  0  0  0  0  0
   59.9885   26.8223   46.1212 H   0  0  0  0  0  0  0  0  0  0  0  0
   61.0530   30.4990   49.4150 H   0  0  0  0  0  0  0  0  0  0  0  0
   61.2886   31.9777   46.0127 H   0  0  0  0  0  0  0  0  0  0  0  0
   59.8958   32.6348   46.9434 H   0  0  0  0  0  0  0  0  0  0  0  0
   63.4764   32.9824   46.7858 H   0  0  0  0  0  0  0  0  0  0  0  0
   64.5315   33.7394   49.1453 H   0  0  0  0  0  0  0  0  0  0  0  0
   62.6058   33.3247   50.9736 H   0  0  0  0  0  0  0  0  0  0  0  0
   59.5589   30.7917   44.7990 H   0  0  0  0  0  0  0  0  0  0  0  0
   60.2047   29.1116   44.5464 H   0  0  0  0  0  0  0  0  0  0  0  0
  1  2  2  0
  2  3  1  0
  3  4  1  0
  4  5  2  0
  5  6  1  0
  6  7  2  0
  7  8  1  0
  8  9  2  0
  2 10  1  0
 10 11  1  0
 11 12  1  0
 12 13  1  0
 13 14  1  0
 14 15  1  0
 15 16  2  0
 16 17  1  0
 17 18  1  0
 18 19  1  0
 19 20  1  0
 20 21  2  0
 21 22  1  0
 22 23  2  0
 17 24  2  0
 24 25  1  0
  9  4  1  0
 25 10  1  0
 24 14  1  0
 23 19  1  0
  3 26  1  0
  3 27  1  0
  5 28  1  0
  6 29  1  0
  7 30  1  0
  8 31  1  0
  9 32  1  0
 11 33  1  0
 11 34  1  0
 12 35  1  0
 12 36  1  0
 13 37  1  0
 13 38  1  0
 16 39  1  0
 18 40  1  0
 18 41  1  0
 20 42  1  0
 21 43  1  0
 22 44  1  0
 25 45  1  0
 25 46  1  0
M  CHG  1  16   1
M  END
>  <UniqueID>  (69) 
66

>  <SMILES>  (69) 
O=C(Cc1ccccc1)N1CCCn2n[nH+]c(Cn3cccn3)c2C1

>  <Energy>  (69) 
115.14002482148851

>  <Genealogy>  (69) 
O=C(Cc1ccccc1)N1CCCn2n[nH+]c(Cn3cccn3)c2C1 (protonated)
O=C(Cc1ccccc1)N1CCCn2n[nH+]c(Cn3cccn3)c2C1 (3D coordinates assigned)
O=C(Cc1ccccc1)N1CCCn2n[nH+]c(Cn3cccn3)c2C1 (nonaromatic ring conformer: 115.14002482148851 kcal/mol)

>  <smiles>  (69) 
O=C(Cc1ccccc1)N1CCCn2nnc(Cn3cccn3)c2C1

>  <score_type>  (69) 
oracle

>  <origin>  (69) 
adg

>  <m_score__min__energy>  (69) 
-4.9000000000000004

>  <m_primary>  (69) 
energy

$$$$
69:0
     RDKit          3D

 61 65  0  0  0  0  0  0  0  0999 V2000
   50.4430   31.2350   53.3990 C   0  0  0  0  0  0  0  0  0  0  0  0
   51.9020   31.0910   53.0800 C   0  0  0  0  0  0  0  0  0  0  0  0
   52.7920   30.5980   54.0450 C   0  0  0  0  0  0  0  0  0  0  0  0
   54.1440   30.4150   53.7310 C   0  0  0  0  0  0  0  0  0  0  0  0
   54.6240   30.7300   52.4510 C   0  0  0  0  0  0  0  0  0  0  0  0
   56.0430   30.4860   52.1190 C   0  0  0  0  0  0  0  0  0  0  0  0
   56.5600   29.2460   52.0010 N   0  0  0  0  0  0  0  0  0  0  0  0
   57.8540   29.3840   51.7600 N   0  0  0  0  0  0  0  0  0  0  0  0
   58.1070   30.7050   51.7290 C   0  0  0  0  0  0  0  0  0  0  0  0
   59.7690   31.3790   51.6120 S   0  0  0  0  0  0  0  0  0  0  0  0
   60.2800   30.3660   50.1750 C   0  0  0  0  0  0  0  0  0  0  0  0
   59.2850   30.3480   49.0480 C   0  0  0  0  0  0  0  0  0  0  0  0
   58.5380   29.3410   48.9190 O   0  0  0  0  0  0  0  0  0  0  0  0
   59.2450   31.3930   48.0660 N   0  0  0  0  0  0  0  0  0  0  0  0
   58.7090   31.2050   46.7470 C   0  0  0  0  0  0  0  0  0  0  0  0
   58.8560   29.9680   46.0980 C   0  0  0  0  0  0  0  0  0  0  0  0
   58.4550   29.8160   44.7680 C   0  0  0  0  0  0  0  0  0  0  0  0
   57.9240   30.9020   44.0690 C   0  0  0  0  0  0  0  0  0  0  0  0
   57.7680   32.1360   44.7060 C   0  0  0  0  0  0  0  0  0  0  0  0
   58.1330   32.2850   46.0510 C   0  0  0  0  0  0  0  0  0  0  0  0
   57.7820   33.8370   46.8960 S   0  0  0  0  0  0  0  0  0  0  0  0
   59.2930   34.7090   46.3360 C   0  0  0  0  0  0  0  0  0  0  0  0
   60.5260   34.2630   47.0740 C   0  0  0  0  0  0  0  0  0  0  0  0
   61.6590   33.8370   46.3780 C   0  0  0  0  0  0  0  0  0  0  0  0
   62.7880   33.4390   47.0950 C   0  0  0  0  0  0  0  0  0  0  0  0
   63.8140   33.0690   46.4580 O   0  0  0  0  0  0  0  0  0  0  0  0
   62.7720   33.4470   48.4680 N   0  0  0  0  0  0  0  0  0  0  0  0
   63.8750   33.0560   49.1840 C   0  0  0  0  0  0  0  0  0  0  0  0
   63.8580   33.0570   50.5810 C   0  0  0  0  0  0  0  0  0  0  0  0
   62.7070   33.4600   51.2530 C   0  0  0  0  0  0  0  0  0  0  0  0
   61.5880   33.8560   50.5270 C   0  0  0  0  0  0  0  0  0  0  0  0
   61.6330   33.8570   49.1290 C   0  0  0  0  0  0  0  0  0  0  0  0
   60.5400   34.2620   48.4300 N   0  0  0  0  0  0  0  0  0  0  0  0
   56.9910   31.4340   51.9440 N   0  0  0  0  0  0  0  0  0  0  0  0
   56.9300   32.8400   52.3440 C   0  0  0  0  0  0  0  0  0  0  0  0
   53.7240   31.1910   51.4770 C   0  0  0  0  0  0  0  0  0  0  0  0
   52.3730   31.3680   51.7880 C   0  0  0  0  0  0  0  0  0  0  0  0
   50.3059   31.2485   54.4903 H   0  0  0  0  0  0  0  0  0  0  0  0
   50.0650   32.1748   52.9703 H   0  0  0  0  0  0  0  0  0  0  0  0
   49.8885   30.3872   52.9703 H   0  0  0  0  0  0  0  0  0  0  0  0
   52.4262   30.3539   55.0533 H   0  0  0  0  0  0  0  0  0  0  0  0
   54.8339   30.0220   54.4923 H   0  0  0  0  0  0  0  0  0  0  0  0
   61.2294   30.7670   49.7905 H   0  0  0  0  0  0  0  0  0  0  0  0
   60.3690   29.3302   50.5344 H   0  0  0  0  0  0  0  0  0  0  0  0
   59.6700   32.3190   48.2840 H   0  0  0  0  0  0  0  0  0  0  0  0
   59.2892   29.1142   46.6397 H   0  0  0  0  0  0  0  0  0  0  0  0
   58.5577   28.8400   44.2712 H   0  0  0  0  0  0  0  0  0  0  0  0
   57.6282   30.7860   43.0159 H   0  0  0  0  0  0  0  0  0  0  0  0
   57.3578   32.9923   44.1506 H   0  0  0  0  0  0  0  0  0  0  0  0
   59.4350   34.5139   45.2628 H   0  0  0  0  0  0  0  0  0  0  0  0
   59.1532   35.7811   46.5386 H   0  0  0  0  0  0  0  0  0  0  0  0
   61.6616   33.8154   45.2782 H   0  0  0  0  0  0  0  0  0  0  0  0
   64.7836   32.7379   48.6518 H   0  0  0  0  0  0  0  0  0  0  0  0
   64.7476   32.7417   51.1460 H   0  0  0  0  0  0  0  0  0  0  0  0
   62.6825   33.4653   52.3527 H   0  0  0  0  0  0  0  0  0  0  0  0
   60.6718   34.1670   51.0503 H   0  0  0  0  0  0  0  0  0  0  0  0
   56.9270   32.9091   53.4418 H   0  0  0  0  0  0  0  0  0  0  0  0
   57.8059   33.3729   51.9455 H   0  0  0  0  0  0  0  0  0  0  0  0
   56.0113   33.2951   51.9455 H   0  0  0  0  0  0  0  0  0  0  0  0
   54.0847   31.4144   50.4621 H   0  0  0  0  0  0  0  0  0  0  0  0
   51.6759   31.7261   51.0162 H   0  0  0  0  0  0  0  0  0  0  0  0
  1  2  1  0
  2  3  2  0
  3  4  1  0
  4  5  2  0
  5  6  1  0
  6  7  2  0
  7  8  1  0
  8  9  2  0
  9 10  1  0
 10 11  1  0
 11 12  1  0
 12 13  2  0
 12 14  1  0
 14 15  1  0
 15 16  2  0
 16 17  1  0
 17 18  2  0
 18 19  1  0
 19 20  2  0
 20 21  1  0
 21 22  1  0
 22 23  1  0
 23 24  2  0
 24 25  1  0
 25 26  2  0
 25 27  1  0
 27 28  1  0
 28 29  2  0
 29 30  1  0
 30 31  2  0
 31 32  1  0
 32 33  2  0
  9 34  1  0
 34 35  1  0
  5 36  1  0
 36 37  2  0
 37  2  1  0
 34  6  1  0
 20 15  1  0
 33 23  1  0
 32 27  1  0
  1 38  1  0
  1 39  1  0
  1 40  1  0
  3 41  1  0
  4 42  1  0
 11 43  1  0
 11 44  1  0
 14 45  1  0
 16 46  1  0
 17 47  1  0
 18 48  1  0
 19 49  1  0
 22 50  1  0
 22 51  1  0
 24 52  1  0
 28 53  1  0
 29 54  1  0
 30 55  1  0
 31 56  1  0
 35 57  1  0
 35 58  1  0
 35 59  1  0
 36 60  1  0
 37 61  1  0
M  END
>  <UniqueID>  (70) 
67

>  <SMILES>  (70) 
Cc1ccc(-c2nnc(SCC(=O)Nc3ccccc3SCc3cc(=O)n4ccccc4n3)n2C)cc1

>  <Energy>  (70) 
104.77254647293759

>  <Genealogy>  (70) 
Cc1ccc(-c2nnc(SCC(=O)Nc3ccccc3SCc3cc(=O)n4ccccc4n3)n2C)cc1 (3D coordinates assigned)
Cc1ccc(-c2nnc(SCC(=O)Nc3ccccc3SCc3cc(=O)n4ccccc4n3)n2C)cc1 (optimized conformer: 104.77254647293759 kcal/mol)

>  <smiles>  (70) 
Cc1ccc(-c2nnc(SCC(=O)Nc3ccccc3SCc3cc(=O)n4ccccc4n3)n2C)cc1

>  <score_type>  (70) 
oracle

>  <origin>  (70) 
adg

>  <m_score__min__energy>  (70) 
-10.199999999999999

>  <m_primary>  (70) 
energy

$$$$
70:0
     RDKit          3D

 77 81  0  0  1  0  0  0  0  0999 V2000
   57.8070   26.4300   42.6040 C   0  0  0  0  0  0  0  0  0  0  0  0
   58.0330   27.3080   43.8030 C   0  0  0  0  0  0  0  0  0  0  0  0
   58.8940   26.8480   44.7610 C   0  0  0  0  0  0  0  0  0  0  0  0
   59.1400   27.6170   45.8820 C   0  0  0  0  0  0  0  0  0  0  0  0
   60.0610   27.1660   46.9330 C   0  0  0  0  0  0  0  0  0  0  0  0
   60.9390   26.3490   46.6160 O   0  0  0  0  0  0  0  0  0  0  0  0
   59.9120   27.6760   48.2480 N   0  0  0  0  0  0  0  0  0  0  0  0
   60.7560   27.3120   49.3630 C   0  0  0  0  0  0  0  0  0  0  0  0
   60.8980   28.4270   50.3060 C   0  0  0  0  0  0  0  0  0  0  0  0
   61.9720   28.6270   51.1430 C   0  0  0  0  0  0  0  0  0  0  0  0
   62.0520   29.7060   52.0180 C   0  0  0  0  0  0  0  0  0  0  0  0
   61.0320   30.6250   52.0670 C   0  0  0  0  0  0  0  0  0  0  0  0
   59.9330   30.4530   51.2360 C   0  0  0  0  0  0  0  0  0  0  0  0
   58.8860   31.4640   51.3350 C   0  0  0  0  0  0  0  0  0  0  0  0
   58.9330   32.5230   50.6850 O   0  0  0  0  0  0  0  0  0  0  0  0
   57.7760   31.2100   52.2140 N   0  0  0  0  0  0  0  0  0  0  0  0
   57.7040   29.9680   52.9890 C   0  0  0  0  0  0  0  0  0  0  0  0
   56.3730   29.3030   52.8420 C   0  0  0  0  0  0  0  0  0  0  0  0
   55.4450   30.0850   52.0450 N   0  0  0  0  0  0  0  0  0  0  0  0
   54.1620   29.4680   51.9340 C   0  0  0  0  0  0  0  0  0  0  0  0
   53.0120   30.3920   52.0130 C   0  0  0  0  0  0  0  0  0  0  0  0
   52.5440   31.1440   50.9590 C   0  0  0  0  0  0  0  0  0  0  0  0
   51.4530   31.9850   51.1490 C   0  0  0  0  0  0  0  0  0  0  0  0
   50.8110   32.0990   52.3640 C   0  0  0  0  0  0  0  0  0  0  0  0
   51.2980   31.3360   53.4040 C   0  0  0  0  0  0  0  0  0  0  0  0
   52.3790   30.4890   53.2570 C   0  0  0  0  0  0  0  0  0  0  0  0
   55.4040   31.4610   52.4320 C   0  0  0  0  0  0  0  0  0  0  0  0
   56.7100   32.1810   52.3480 C   0  0  0  0  0  0  0  0  0  0  0  0
   59.8800   29.3790   50.3830 C   0  0  0  0  0  0  0  0  0  0  0  0
   58.4920   28.8000   45.9490 N   0  0  0  0  0  0  0  0  0  0  0  0
   57.6600   29.2410   45.0190 C   0  0  0  0  0  0  0  0  0  0  0  0
   57.0300   30.3790   45.0740 N   0  0  0  0  0  0  0  0  0  0  0  0
   57.7150   31.5920   45.3690 C   0  0  0  0  0  0  0  0  0  0  0  0
   57.7570   32.5320   44.3500 C   0  0  0  0  0  0  0  0  0  0  0  0
   58.3810   33.7520   44.4870 C   0  0  0  0  0  0  0  0  0  0  0  0
   58.9810   34.0170   45.7050 C   0  0  0  0  0  0  0  0  0  0  0  0
   59.6700   35.3310   45.8950 C   0  0  0  0  0  0  0  0  0  0  0  0
   58.9380   33.0820   46.7150 C   0  0  0  0  0  0  0  0  0  0  0  0
   59.6070   33.4200   48.0200 C   0  0  0  0  0  0  0  0  0  0  0  0
   58.3110   31.8530   46.5830 C   0  0  0  0  0  0  0  0  0  0  0  0
   57.4090   28.4970   43.9120 N   0  0  0  0  0  0  0  0  0  0  0  0
   57.5457   25.4147   42.9370 H   0  0  0  0  0  0  0  0  0  0  0  0
   56.9852   26.8403   41.9988 H   0  0  0  0  0  0  0  0  0  0  0  0
   58.7248   26.3925   41.9988 H   0  0  0  0  0  0  0  0  0  0  0  0
   59.3873   25.8723   44.6397 H   0  0  0  0  0  0  0  0  0  0  0  0
   59.1300   28.3660   48.3980 H   0  0  0  0  0  0  0  0  0  0  0  0
   60.3091   26.4539   49.8864 H   0  0  0  0  0  0  0  0  0  0  0  0
   61.7527   27.0535   48.9760 H   0  0  0  0  0  0  0  0  0  0  0  0
   62.8010   27.9044   51.1193 H   0  0  0  0  0  0  0  0  0  0  0  0
   62.9306   29.8229   52.6695 H   0  0  0  0  0  0  0  0  0  0  0  0
   61.0851   31.4830   52.7533 H   0  0  0  0  0  0  0  0  0  0  0  0
   58.4871   29.2810   52.6357 H   0  0  0  0  0  0  0  0  0  0  0  0
   57.8487   30.2165   54.0507 H   0  0  0  0  0  0  0  0  0  0  0  0
   56.5184   28.3265   52.3570 H   0  0  0  0  0  0  0  0  0  0  0  0
   55.9407   29.1951   53.8477 H   0  0  0  0  0  0  0  0  0  0  0  0
   54.1162   28.9494   50.9650 H   0  0  0  0  0  0  0  0  0  0  0  0
   54.0716   28.7928   52.7977 H   0  0  0  0  0  0  0  0  0  0  0  0
   53.0295   31.0800   49.9740 H   0  0  0  0  0  0  0  0  0  0  0  0
   51.0889   32.5810   50.2992 H   0  0  0  0  0  0  0  0  0  0  0  0
   49.9487   32.7688   52.4976 H   0  0  0  0  0  0  0  0  0  0  0  0
   50.8078   31.4043   54.3864 H   0  0  0  0  0  0  0  0  0  0  0  0
   52.7392   29.8959   54.1105 H   0  0  0  0  0  0  0  0  0  0  0  0
   54.6869   31.9781   51.7775 H   0  0  0  0  0  0  0  0  0  0  0  0
   55.1149   31.4727   53.4933 H   0  0  0  0  0  0  0  0  0  0  0  0
   56.7074   32.8488   51.4739 H   0  0  0  0  0  0  0  0  0  0  0  0
   56.8641   32.7787   53.2585 H   0  0  0  0  0  0  0  0  0  0  0  0
   58.9996   29.2638   49.7337 H   0  0  0  0  0  0  0  0  0  0  0  0
   57.2715   32.2930   43.3923 H   0  0  0  0  0  0  0  0  0  0  0  0
   58.4014   34.4828   43.6651 H   0  0  0  0  0  0  0  0  0  0  0  0
   59.7777   35.5364   46.9703 H   0  0  0  0  0  0  0  0  0  0  0  0
   60.6649   35.2944   45.4272 H   0  0  0  0  0  0  0  0  0  0  0  0
   59.0741   36.1285   45.4272 H   0  0  0  0  0  0  0  0  0  0  0  0
   58.9673   33.0968   48.8545 H   0  0  0  0  0  0  0  0  0  0  0  0
   60.5763   32.9035   48.0797 H   0  0  0  0  0  0  0  0  0  0  0  0
   59.7663   34.5068   48.0797 H   0  0  0  0  0  0  0  0  0  0  0  0
   58.2904   31.1232   47.4058 H   0  0  0  0  0  0  0  0  0  0  0  0
   56.7490   28.8330   43.1620 H   0  0  0  0  0  0  0  0  0  0  0  0
  1  2  1  0
  2  3  2  0
  3  4  1  0
  4  5  1  0
  5  6  2  0
  5  7  1  0
  7  8  1  0
  8  9  1  0
  9 10  2  0
 10 11  1  0
 11 12  2  0
 12 13  1  0
 13 14  1  0
 14 15  2  0
 14 16  1  0
 16 17  1  0
 17 18  1  0
 18 19  1  0
 19 20  1  0
 20 21  1  0
 21 22  2  0
 22 23  1  0
 23 24  2  0
 24 25  1  0
 25 26  2  0
 19 27  1  0
 27 28  1  0
 13 29  2  0
  4 30  2  0
 30 31  1  0
 31 32  2  0
 32 33  1  0
 33 34  2  0
 34 35  1  0
 35 36  2  0
 36 37  1  0
 36 38  1  0
 38 39  1  0
 38 40  2  0
 31 41  1  0
 41  2  1  0
 29  9  1  0
 40 33  1  0
 28 16  1  0
 26 21  1  0
  1 42  1  0
  1 43  1  0
  1 44  1  0
  3 45  1  0
  7 46  1  0
  8 47  1  0
  8 48  1  0
 10 49  1  0
 11 50  1  0
 12 51  1  0
 17 52  1  0
 17 53  1  0
 18 54  1  0
 18 55  1  0
 20 56  1  0
 20 57  1  0
 22 58  1  0
 23 59  1  0
 24 60  1  0
 25 61  1  0
 26 62  1  0
 27 63  1  0
 27 64  1  0
 28 65  1  0
 28 66  1  0
 29 67  1  0
 34 68  1  0
 35 69  1  0
 37 70  1  0
 37 71  1  0
 37 72  1  0
 39 73  1  0
 39 74  1  0
 39 75  1  0
 40 76  1  0
 41 77  1  0
M  END
>  <smiles>  (71) 
Cc1cc(C(=O)NCc2cccc(C(=O)N3CCN(Cc4ccccc4)CC3)c2)nc(=Nc2ccc(C)c(C)c2)[nH]1

>  <score_type>  (71) 
oracle

>  <origin>  (71) 
adg

>  <m_score__min__energy>  (71) 
-11.890000000000001

>  <m_primary>  (71) 
energy

$$$$
71:0
     RDKit          3D

 58 62  0  0  0  0  0  0  0  0999 V2000
   61.5290   30.4370   48.5350 N   0  0  0  0  0  0  0  0  0  0  0  0
   60.1050   30.5140   48.6180 C   0  0  0  0  0  0  0  0  0  0  0  0
   59.4700   29.6100   49.2260 O   0  0  0  0  0  0  0  0  0  0  0  0
   59.3590   31.6620   47.9790 C   0  0  2  0  0  0  0  0  0  0  0  0
   59.5290   31.5760   46.4480 C   0  0  0  0  0  0  0  0  0  0  0  0
   58.9770   32.8090   45.8190 C   0  0  0  0  0  0  0  0  0  0  0  0
   58.9800   34.0230   46.4350 C   0  0  0  0  0  0  0  0  0  0  0  0
   58.5170   34.9710   45.5970 N   0  0  0  0  0  0  0  0  0  0  0  0
   58.2440   34.2850   44.4620 C   0  0  0  0  0  0  0  0  0  0  0  0
   58.5320   32.9680   44.5610 N   0  0  0  0  0  0  0  0  0  0  0  0
   58.3410   31.9480   43.5310 C   0  0  0  0  0  0  0  0  0  0  0  0
   57.5940   30.7700   44.0950 C   0  0  0  0  0  0  0  0  0  0  0  0
   56.1900   30.7740   44.1610 C   0  0  0  0  0  0  0  0  0  0  0  0
   55.5040   29.6670   44.6690 C   0  0  0  0  0  0  0  0  0  0  0  0
   56.2130   28.5490   45.1180 C   0  0  0  0  0  0  0  0  0  0  0  0
   55.5280   27.4490   45.6220 O   0  0  0  0  0  0  0  0  0  0  0  0
   57.6090   28.5380   45.0610 C   0  0  0  0  0  0  0  0  0  0  0  0
   58.2980   29.6430   44.5530 C   0  0  0  0  0  0  0  0  0  0  0  0
   59.4830   34.2500   47.8240 C   0  0  0  0  0  0  0  0  0  0  0  0
   59.8040   32.9820   48.5110 N   0  0  0  0  0  0  0  0  0  0  0  0
   60.3120   33.1070   49.8540 C   0  0  0  0  0  0  0  0  0  0  0  0
   59.4990   33.1370   50.8170 O   0  0  0  0  0  0  0  0  0  0  0  0
   61.7650   33.1920   50.1240 C   0  0  0  0  0  0  0  0  0  0  0  0
   62.6790   33.3690   49.0740 C   0  0  0  0  0  0  0  0  0  0  0  0
   64.0480   33.4700   49.3350 C   0  0  0  0  0  0  0  0  0  0  0  0
   64.5310   33.3930   50.6530 C   0  0  0  0  0  0  0  0  0  0  0  0
   65.9430   33.4890   50.9270 N   0  0  0  0  0  0  0  0  0  0  0  0
   66.9240   32.4730   50.5800 C   0  0  0  0  0  0  0  0  0  0  0  0
   68.3040   33.1040   50.8470 C   0  0  0  0  0  0  0  0  0  0  0  0
   68.0640   34.3880   51.6530 C   0  0  0  0  0  0  0  0  0  0  0  0
   66.5990   34.5600   51.5870 C   0  0  0  0  0  0  0  0  0  0  0  0
   65.9900   35.5220   52.1260 O   0  0  0  0  0  0  0  0  0  0  0  0
   63.6170   33.1820   51.6990 C   0  0  0  0  0  0  0  0  0  0  0  0
   62.2480   33.0820   51.4380 C   0  0  0  0  0  0  0  0  0  0  0  0
   62.0780   31.1670   48.0290 H   0  0  0  0  0  0  0  0  0  0  0  0
   62.0380   29.6360   48.9710 H   0  0  0  0  0  0  0  0  0  0  0  0
   58.2913   31.5796   48.2306 H   0  0  0  0  0  0  0  0  0  0  0  0
   60.5972   31.4850   46.2018 H   0  0  0  0  0  0  0  0  0  0  0  0
   58.9898   30.6961   46.0672 H   0  0  0  0  0  0  0  0  0  0  0  0
   57.8313   34.7504   43.5548 H   0  0  0  0  0  0  0  0  0  0  0  0
   57.7657   32.3772   42.6975 H   0  0  0  0  0  0  0  0  0  0  0  0
   59.3254   31.6103   43.1749 H   0  0  0  0  0  0  0  0  0  0  0  0
   55.6282   31.6526   43.8112 H   0  0  0  0  0  0  0  0  0  0  0  0
   54.4050   29.6756   44.7155 H   0  0  0  0  0  0  0  0  0  0  0  0
   58.1665   27.6588   45.4163 H   0  0  0  0  0  0  0  0  0  0  0  0
   59.3971   29.6305   44.5114 H   0  0  0  0  0  0  0  0  0  0  0  0
   60.3919   34.8678   47.7760 H   0  0  0  0  0  0  0  0  0  0  0  0
   58.6889   34.7538   48.3946 H   0  0  0  0  0  0  0  0  0  0  0  0
   62.3150   33.4287   48.0377 H   0  0  0  0  0  0  0  0  0  0  0  0
   64.7533   33.6109   48.5027 H   0  0  0  0  0  0  0  0  0  0  0  0
   66.7854   31.5789   51.2055 H   0  0  0  0  0  0  0  0  0  0  0  0
   66.8222   32.1572   49.5312 H   0  0  0  0  0  0  0  0  0  0  0  0
   68.9320   32.4085   51.4232 H   0  0  0  0  0  0  0  0  0  0  0  0
   68.8229   33.3254   49.9027 H   0  0  0  0  0  0  0  0  0  0  0  0
   68.4006   34.2691   52.6935 H   0  0  0  0  0  0  0  0  0  0  0  0
   68.6177   35.2534   51.2600 H   0  0  0  0  0  0  0  0  0  0  0  0
   63.9825   33.0947   52.7328 H   0  0  0  0  0  0  0  0  0  0  0  0
   61.5442   32.9161   52.2669 H   0  0  0  0  0  0  0  0  0  0  0  0
  1  2  1  0
  2  3  2  0
  2  4  1  0
  4  5  1  0
  5  6  1  0
  6  7  2  0
  7  8  1  0
  8  9  2  0
  9 10  1  0
 10 11  1  0
 11 12  1  0
 12 13  2  0
 13 14  1  0
 14 15  2  0
 15 16  1  0
 15 17  1  0
 17 18  2  0
  7 19  1  0
 19 20  1  0
 20 21  1  0
 21 22  2  0
 21 23  1  0
 23 24  2  0
 24 25  1  0
 25 26  2  0
 26 27  1  0
 27 28  1  0
 28 29  1  0
 29 30  1  0
 30 31  1  0
 31 32  2  0
 26 33  1  0
 33 34  2  0
 20  4  1  0
 34 23  1  0
 10  6  1  0
 18 12  1  0
 31 27  1  0
  1 35  1  0
  1 36  1  0
  4 37  1  6
  5 38  1  0
  5 39  1  0
  9 40  1  0
 11 41  1  0
 11 42  1  0
 13 43  1  0
 14 44  1  0
 17 45  1  0
 18 46  1  0
 19 47  1  0
 19 48  1  0
 24 49  1  0
 25 50  1  0
 28 51  1  0
 28 52  1  0
 29 53  1  0
 29 54  1  0
 30 55  1  0
 30 56  1  0
 33 57  1  0
 34 58  1  0
M  CHG  1  16  -1
M  END
>  <UniqueID>  (72) 
68

>  <SMILES>  (72) 
NC(=O)[C@@H]1Cc2c(ncn2Cc2ccc([O-])cc2)CN1C(=O)c1ccc(N2CCCC2=O)cc1

>  <Energy>  (72) 
110.0585371881298

>  <Genealogy>  (72) 
NC(=O)C1Cc2c(ncn2Cc2ccc([O-])cc2)CN1C(=O)c1ccc(N2CCCC2=O)cc1 (protonated)
NC(=O)[C@@H]1Cc2c(ncn2Cc2ccc([O-])cc2)CN1C(=O)c1ccc(N2CCCC2=O)cc1 (chirality)
NC(=O)[C@@H]1Cc2c(ncn2Cc2ccc([O-])cc2)CN1C(=O)c1ccc(N2CCCC2=O)cc1 (3D coordinates assigned)
NC(=O)[C@@H]1Cc2c(ncn2Cc2ccc([O-])cc2)CN1C(=O)c1ccc(N2CCCC2=O)cc1 (nonaromatic ring conformer: 110.0585371881298 kcal/mol)

>  <smiles>  (72) 
NC(=O)C1Cc2c(ncn2Cc2ccc(O)cc2)CN1C(=O)c1ccc(N2CCCC2=O)cc1

>  <score_type>  (72) 
oracle

>  <origin>  (72) 
adg

>  <m_score__min__energy>  (72) 
-11.619999999999999

>  <m_primary>  (72) 
energy

$$$$
72:0
     RDKit          3D

 66 70  0  0  1  0  0  0  0  0999 V2000
   68.5480   27.2990   52.4670 C   0  0  0  0  0  0  0  0  0  0  0  0
   67.1450   27.4760   52.0020 C   0  0  0  0  0  0  0  0  0  0  0  0
   66.4540   26.5420   51.5760 O   0  0  0  0  0  0  0  0  0  0  0  0
   66.5690   28.7940   52.0520 N   0  0  0  0  0  0  0  0  0  0  0  0
   65.2070   28.9920   51.6150 C   0  0  0  0  0  0  0  0  0  0  0  0
   64.8750   30.4460   51.6530 C   0  0  0  0  0  0  0  0  0  0  0  0
   65.9490   31.2630   51.0960 N   0  0  0  0  0  0  0  0  0  0  0  0
   65.6910   32.3170   50.1680 C   0  0  0  0  0  0  0  0  0  0  0  0
   66.6310   33.0150   49.6990 O   0  0  0  0  0  0  0  0  0  0  0  0
   64.3470   32.6530   49.7060 C   0  0  0  0  0  0  0  0  0  0  0  0
   63.7460   33.7380   50.3590 C   0  0  0  0  0  0  0  0  0  0  0  0
   62.4770   34.1400   50.0050 C   0  0  0  0  0  0  0  0  0  0  0  0
   61.8180   33.4480   48.9910 C   0  0  0  0  0  0  0  0  0  0  0  0
   62.3910   32.3780   48.3350 C   0  0  0  0  0  0  0  0  0  0  0  0
   63.6810   31.9840   48.7090 C   0  0  0  0  0  0  0  0  0  0  0  0
   61.4190   31.8650   47.3120 C   0  0  0  0  0  0  0  0  0  0  0  0
   60.3940   32.8880   47.2870 N   0  0  0  0  0  0  0  0  0  0  0  0
   59.3770   33.1030   46.2840 C   0  0  0  0  0  0  0  0  0  0  0  0
   59.1200   34.3890   45.7970 C   0  0  0  0  0  0  0  0  0  0  0  0
   58.1310   34.6290   44.8650 C   0  0  0  0  0  0  0  0  0  0  0  0
   57.4000   33.5930   44.4200 N   0  0  0  0  0  0  0  0  0  0  0  0
   57.6390   32.3570   44.8810 C   0  0  0  0  0  0  0  0  0  0  0  0
   56.9080   31.3880   44.4580 N   0  0  0  0  0  0  0  0  0  0  0  0
   57.1300   30.0850   45.0040 C   0  0  0  0  0  0  0  0  0  0  0  0
   56.0890   29.4110   45.2250 O   0  0  0  0  0  0  0  0  0  0  0  0
   58.4200   29.5730   45.2800 N   0  0  0  0  0  0  0  0  0  0  0  0
   58.7260   28.3080   45.8120 C   0  0  0  0  0  0  0  0  0  0  0  0
   59.1600   28.0500   47.0870 C   0  0  0  0  0  0  0  0  0  0  0  0
   59.4380   26.7620   47.5450 C   0  0  0  0  0  0  0  0  0  0  0  0
   59.2830   25.6750   46.7120 C   0  0  0  0  0  0  0  0  0  0  0  0
   58.8500   25.9210   45.4360 C   0  0  0  0  0  0  0  0  0  0  0  0
   58.5740   27.2100   44.9850 C   0  0  0  0  0  0  0  0  0  0  0  0
   58.1100   27.3640   43.5780 C   0  0  0  0  0  0  0  0  0  0  0  0
   58.6190   32.1060   45.8050 N   0  0  0  0  0  0  0  0  0  0  0  0
   60.4580   33.7230   48.4700 C   0  0  0  0  0  0  0  0  0  0  0  0
   67.3400   31.0210   51.4690 C   0  0  0  0  0  0  0  0  0  0  0  0
   67.3440   29.9370   52.5370 C   0  0  0  0  0  0  0  0  0  0  0  0
   68.5722   27.2960   53.5667 H   0  0  0  0  0  0  0  0  0  0  0  0
   68.9419   26.3440   52.0889 H   0  0  0  0  0  0  0  0  0  0  0  0
   69.1667   28.1262   52.0889 H   0  0  0  0  0  0  0  0  0  0  0  0
   65.0945   28.6176   50.5868 H   0  0  0  0  0  0  0  0  0  0  0  0
   64.5260   28.4444   52.2831 H   0  0  0  0  0  0  0  0  0  0  0  0
   63.9584   30.6171   51.0694 H   0  0  0  0  0  0  0  0  0  0  0  0
   64.7348   30.7369   52.7045 H   0  0  0  0  0  0  0  0  0  0  0  0
   64.2884   34.2690   51.1551 H   0  0  0  0  0  0  0  0  0  0  0  0
   61.9944   34.9887   50.5117 H   0  0  0  0  0  0  0  0  0  0  0  0
   64.1631   31.1351   48.2022 H   0  0  0  0  0  0  0  0  0  0  0  0
   61.8993   31.7637   46.3276 H   0  0  0  0  0  0  0  0  0  0  0  0
   61.0259   30.8664   47.5532 H   0  0  0  0  0  0  0  0  0  0  0  0
   59.7225   35.2317   46.1670 H   0  0  0  0  0  0  0  0  0  0  0  0
   57.9448   35.6477   44.4939 H   0  0  0  0  0  0  0  0  0  0  0  0
   56.6610   33.8100   43.7170 H   0  0  0  0  0  0  0  0  0  0  0  0
   59.2160   30.2330   45.0490 H   0  0  0  0  0  0  0  0  0  0  0  0
   59.2947   28.8950   47.7783 H   0  0  0  0  0  0  0  0  0  0  0  0
   59.7835   26.6128   48.5786 H   0  0  0  0  0  0  0  0  0  0  0  0
   59.4980   24.6530   47.0573 H   0  0  0  0  0  0  0  0  0  0  0  0
   58.7160   25.0748   44.7461 H   0  0  0  0  0  0  0  0  0  0  0  0
   57.0660   27.7105   43.5720 H   0  0  0  0  0  0  0  0  0  0  0  0
   58.7436   28.1000   43.0614 H   0  0  0  0  0  0  0  0  0  0  0  0
   58.1777   26.3952   43.0614 H   0  0  0  0  0  0  0  0  0  0  0  0
   60.3396   34.7858   48.2120 H   0  0  0  0  0  0  0  0  0  0  0  0
   59.6610   33.5102   49.1976 H   0  0  0  0  0  0  0  0  0  0  0  0
   67.9116   30.6856   50.5910 H   0  0  0  0  0  0  0  0  0  0  0  0
   67.8055   31.9422   51.8495 H   0  0  0  0  0  0  0  0  0  0  0  0
   68.3782   29.6227   52.7408 H   0  0  0  0  0  0  0  0  0  0  0  0
   66.8976   30.3246   53.4646 H   0  0  0  0  0  0  0  0  0  0  0  0
  1  2  1  0
  2  3  2  0
  2  4  1  0
  4  5  1  0
  5  6  1  0
  6  7  1  0
  7  8  1  0
  8  9  2  0
  8 10  1  0
 10 11  2  0
 11 12  1  0
 12 13  2  0
 13 14  1  0
 14 15  2  0
 14 16  1  0
 16 17  1  0
 17 18  1  0
 18 19  1  0
 19 20  2  0
 20 21  1  0
 21 22  1  0
 22 23  2  0
 23 24  1  0
 24 25  2  0
 24 26  1  0
 26 27  1  0
 27 28  2  0
 28 29  1  0
 29 30  2  0
 30 31  1  0
 31 32  2  0
 32 33  1  0
 22 34  1  0
 17 35  1  0
  7 36  1  0
 36 37  1  0
 37  4  1  0
 15 10  1  0
 34 18  2  0
 35 13  1  0
 32 27  1  0
  1 38  1  0
  1 39  1  0
  1 40  1  0
  5 41  1  0
  5 42  1  0
  6 43  1  0
  6 44  1  0
 11 45  1  0
 12 46  1  0
 15 47  1  0
 16 48  1  0
 16 49  1  0
 19 50  1  0
 20 51  1  0
 21 52  1  0
 26 53  1  0
 28 54  1  0
 29 55  1  0
 30 56  1  0
 31 57  1  0
 33 58  1  0
 33 59  1  0
 33 60  1  0
 35 61  1  0
 35 62  1  0
 36 63  1  0
 36 64  1  0
 37 65  1  0
 37 66  1  0
M  END
>  <smiles>  (73) 
CC(=O)N1CCN(C(=O)c2ccc3c(c2)CN(c2cc[nH]c(=NC(=O)Nc4ccccc4C)n2)C3)CC1

>  <score_type>  (73) 
oracle

>  <origin>  (73) 
adg

>  <m_score__min__energy>  (73) 
-10.19

>  <m_primary>  (73) 
energy

$$$$
73:0
     RDKit          3D

 43 45  0  0  0  0  0  0  0  0999 V2000
   59.9186   27.6706   48.3177 H   0  0  0  0  0  0  0  0  0  0  0  0
   59.6330   28.1660   47.3780 C   0  0  0  0  0  0  0  0  0  0  0  0
   58.1870   27.9430   46.5480 S   0  0  0  0  0  0  0  0  0  0  0  0
   58.5240   29.0220   45.3040 C   0  0  0  0  0  0  0  0  0  0  0  0
   57.6560   29.2640   44.1120 C   0  0  0  0  0  0  0  0  0  0  0  0
   57.3744   28.3002   43.6628 H   0  0  0  0  0  0  0  0  0  0  0  0
   58.2074   29.8670   43.3756 H   0  0  0  0  0  0  0  0  0  0  0  0
   56.4230   29.9970   44.5290 C   0  0  0  0  0  0  0  0  0  0  0  0
   55.3920   29.3470   44.8510 O   0  0  0  0  0  0  0  0  0  0  0  0
   56.4190   31.4330   44.5140 N   0  0  0  0  0  0  0  0  0  0  0  0
   57.3310   32.2520   44.9640 C   0  0  0  0  0  0  0  0  0  0  0  0
   57.7990   32.2100   46.2960 C   0  0  0  0  0  0  0  0  0  0  0  0
   57.4000   31.4624   46.9973 H   0  0  0  0  0  0  0  0  0  0  0  0
   58.7780   33.1280   46.7240 C   0  0  0  0  0  0  0  0  0  0  0  0
   59.2830   33.1700   48.0350 O   0  0  0  0  0  0  0  0  0  0  0  0
   60.2940   34.0440   48.5420 C   0  0  0  0  0  0  0  0  0  0  0  0
   60.6384   34.6958   47.7256 H   0  0  0  0  0  0  0  0  0  0  0  0
   59.8512   34.6247   49.3646 H   0  0  0  0  0  0  0  0  0  0  0  0
   61.5110   33.2770   49.1110 C   0  0  0  0  0  0  0  0  0  0  0  0
   61.3566   33.2433   50.1996 H   0  0  0  0  0  0  0  0  0  0  0  0
   62.8520   34.0120   48.8980 C   0  0  0  0  0  0  0  0  0  0  0  0
   62.6739   35.0938   48.9872 H   0  0  0  0  0  0  0  0  0  0  0  0
   63.5498   33.6392   49.6623 H   0  0  0  0  0  0  0  0  0  0  0  0
   63.4970   33.7340   47.5190 C   0  0  0  0  0  0  0  0  0  0  0  0
   63.5303   34.6766   46.9530 H   0  0  0  0  0  0  0  0  0  0  0  0
   64.5014   33.3263   47.7060 H   0  0  0  0  0  0  0  0  0  0  0  0
   62.7920   32.7750   46.7530 O   0  0  0  0  0  0  0  0  0  0  0  0
   62.6150   31.5970   47.5110 C   0  0  0  0  0  0  0  0  0  0  0  0
   62.2799   30.7871   46.8463 H   0  0  0  0  0  0  0  0  0  0  0  0
   63.5733   31.3331   47.9823 H   0  0  0  0  0  0  0  0  0  0  0  0
   61.5660   31.8110   48.6130 C   0  0  0  0  0  0  0  0  0  0  0  0
   60.5775   31.5372   48.2156 H   0  0  0  0  0  0  0  0  0  0  0  0
   61.8500   31.1804   49.4684 H   0  0  0  0  0  0  0  0  0  0  0  0
   59.2840   34.0500   45.8070 C   0  0  0  0  0  0  0  0  0  0  0  0
   60.0451   34.7790   46.1220 H   0  0  0  0  0  0  0  0  0  0  0  0
   58.8240   34.0460   44.4920 C   0  0  0  0  0  0  0  0  0  0  0  0
   59.2306   34.7672   43.7677 H   0  0  0  0  0  0  0  0  0  0  0  0
   57.8760   33.1560   44.1000 N   0  0  0  0  0  0  0  0  0  0  0  0
   57.5500   33.1830   43.1070 H   0  0  0  0  0  0  0  0  0  0  0  0
   59.7910   29.5560   45.5090 C   0  0  0  0  0  0  0  0  0  0  0  0
   60.2630   30.2770   44.8254 H   0  0  0  0  0  0  0  0  0  0  0  0
   60.4050   29.0820   46.6750 C   0  0  0  0  0  0  0  0  0  0  0  0
   61.4041   29.4046   47.0031 H   0  0  0  0  0  0  0  0  0  0  0  0
  1  2  1  0
  2  3  1  0
  3  4  1  0
  4  5  1  0
  5  6  1  0
  5  7  1  0
  5  8  1  0
  8  9  2  0
  8 10  1  0
 10 11  2  0
 11 12  1  0
 12 13  1  0
 12 14  2  0
 14 15  1  0
 15 16  1  0
 16 17  1  0
 16 18  1  0
 16 19  1  0
 19 20  1  0
 19 21  1  0
 21 22  1  0
 21 23  1  0
 21 24  1  0
 24 25  1  0
 24 26  1  0
 24 27  1  0
 27 28  1  0
 28 29  1  0
 28 30  1  0
 28 31  1  0
 31 32  1  0
 31 33  1  0
 14 34  1  0
 34 35  1  0
 34 36  2  0
 36 37  1  0
 36 38  1  0
 38 39  1  0
  4 40  2  0
 40 41  1  0
 40 42  1  0
 42 43  1  0
 42  2  2  0
 38 11  1  0
 31 19  1  0
M  END
>  <UniqueID>  (74) 
69

>  <SMILES>  (74) 
O=C(Cc1cccs1)/N=c1\cc(OCC2CCOCC2)cc[nH]1

>  <Energy>  (74) 
84.53456549190373

>  <Genealogy>  (74) 
O=C(Cc1cccs1)/N=c1\cc(OCC2CCOCC2)cc[nH]1 (cis-trans isomerization)
O=C(Cc1cccs1)/N=c1\cc(OCC2CCOCC2)cc[nH]1 (3D coordinates assigned)
O=C(Cc1cccs1)/N=c1\cc(OCC2CCOCC2)cc[nH]1 (nonaromatic ring conformer: 84.53456549190373 kcal/mol)

>  <smiles>  (74) 
O=C(Cc1cccs1)N=c1cc(OCC2CCOCC2)cc[nH]1

>  <score_type>  (74) 
oracle

>  <origin>  (74) 
adg

>  <m_score__min__energy>  (74) 
-8.3000000000000007

>  <m_primary>  (74) 
energy

$$$$
74:0
     RDKit          3D

 33 34  0  0  0  0  0  0  0  0999 V2000
   60.6279   36.2049   46.8465 H   0  0  0  0  0  0  0  0  0  0  0  0
   60.0180   35.7990   46.0260 C   0  0  0  0  0  0  0  0  0  0  0  0
   60.0501   36.2694   45.0322 H   0  0  0  0  0  0  0  0  0  0  0  0
   59.2400   34.7370   46.2360 C   0  0  0  0  0  0  0  0  0  0  0  0
   59.0990   34.0530   47.4310 C   0  0  0  0  0  0  0  0  0  0  0  0
   59.8790   34.4050   48.9650 Cl  0  0  0  0  0  0  0  0  0  0  0  0
   58.1980   33.0330   47.2030 C   0  0  0  0  0  0  0  0  0  0  0  0
   57.8429   32.2894   47.9317 H   0  0  0  0  0  0  0  0  0  0  0  0
   57.8300   33.1350   45.8670 C   0  0  0  0  0  0  0  0  0  0  0  0
   56.9480   32.3660   45.2080 C   0  0  0  0  0  0  0  0  0  0  0  0
   55.9580   32.7931   44.9903 H   0  0  0  0  0  0  0  0  0  0  0  0
   57.2170   30.9840   44.7550 C   0  0  0  0  0  0  0  0  0  0  0  0
   56.4250   30.3670   43.7740 C   0  0  0  0  0  0  0  0  0  0  0  0
   55.6017   30.9263   43.3056 H   0  0  0  0  0  0  0  0  0  0  0  0
   56.6750   29.0470   43.3880 C   0  0  0  0  0  0  0  0  0  0  0  0
   56.0574   28.5817   42.6057 H   0  0  0  0  0  0  0  0  0  0  0  0
   57.7110   28.3070   43.9920 C   0  0  0  0  0  0  0  0  0  0  0  0
   57.9950   26.8970   43.5990 C   0  0  0  0  0  0  0  0  0  0  0  0
   58.1900   26.6210   42.3830 O   0  0  0  0  0  0  0  0  0  0  0  0
   58.0880   25.7780   44.6010 C   0  0  0  0  0  0  0  0  0  0  0  0
   57.5850   24.8884   44.1941 H   0  0  0  0  0  0  0  0  0  0  0  0
   59.1505   25.5672   44.7923 H   0  0  0  0  0  0  0  0  0  0  0  0
   57.4340   26.1610   45.9020 C   0  0  0  0  0  0  0  0  0  0  0  0
   58.1220   26.7280   46.7930 O   0  0  0  0  0  0  0  0  0  0  0  0
   56.0230   25.8480   46.1810 C   0  0  0  0  0  0  0  0  0  0  0  0
   55.1260   26.7170   46.0240 O   0  0  0  0  0  0  0  0  0  0  0  0
   55.6710   24.5770   46.6190 O   0  0  0  0  0  0  0  0  0  0  0  0
   58.4780   28.9220   44.9980 C   0  0  0  0  0  0  0  0  0  0  0  0
   59.2843   28.3573   45.4889 H   0  0  0  0  0  0  0  0  0  0  0  0
   58.2270   30.2430   45.3810 C   0  0  0  0  0  0  0  0  0  0  0  0
   58.8271   30.7035   46.1797 H   0  0  0  0  0  0  0  0  0  0  0  0
   58.4640   34.1790   45.2880 N   0  0  0  0  0  0  0  0  0  0  0  0
   58.3690   34.4950   44.2960 H   0  0  0  0  0  0  0  0  0  0  0  0
  1  2  1  0
  2  3  1  0
  2  4  2  0
  4  5  1  0
  5  6  1  0
  5  7  2  0
  7  8  1  0
  7  9  1  0
  9 10  2  0
 10 11  1  0
 10 12  1  0
 12 13  2  0
 13 14  1  0
 13 15  1  0
 15 16  1  0
 15 17  2  0
 17 18  1  0
 18 19  2  0
 18 20  1  0
 20 21  1  0
 20 22  1  0
 20 23  1  0
 23 24  2  0
 23 25  1  0
 25 26  2  0
 25 27  1  0
 17 28  1  0
 28 29  1  0
 28 30  2  0
 30 31  1  0
  9 32  1  0
 32 33  1  0
 32  4  1  0
 30 12  1  0
M  CHG  1  27  -1
M  END
>  <UniqueID>  (75) 
70

>  <SMILES>  (75) 
C=c1[nH]/c(=C/c2ccc(C(=O)CC(=O)C(=O)[O-])cc2)cc1Cl

>  <Energy>  (75) 
65.70247847214037

>  <Genealogy>  (75) 
C=c1[nH]c(=Cc2ccc(C(=O)CC(=O)C(=O)[O-])cc2)cc1Cl (protonated)
C=c1[nH]/c(=C/c2ccc(C(=O)CC(=O)C(=O)[O-])cc2)cc1Cl (cis-trans isomerization)
C=c1[nH]/c(=C/c2ccc(C(=O)CC(=O)C(=O)[O-])cc2)cc1Cl (3D coordinates assigned)
C=c1[nH]/c(=C/c2ccc(C(=O)CC(=O)C(=O)[O-])cc2)cc1Cl (optimized conformer: 65.70247847214037 kcal/mol)

>  <smiles>  (75) 
C=c1[nH]c(=Cc2ccc(C(=O)CC(=O)C(=O)O)cc2)cc1Cl

>  <score_type>  (75) 
oracle

>  <origin>  (75) 
adg

>  <m_score__min__energy>  (75) 
-10.74

>  <m_primary>  (75) 
energy

$$$$
75:0
     RDKit          3D

 70 73  0  0  0  0  0  0  0  0999 V2000
   60.6840   34.6710   48.0220 O   0  0  0  0  0  0  0  0  0  0  0  0
   60.8420   33.8610   47.0690 C   0  0  0  0  0  0  0  0  0  0  0  0
   62.1650   33.5520   46.6070 N   0  0  0  0  0  0  0  0  0  0  0  0
   63.3630   33.9590   47.3380 C   0  0  0  0  0  0  0  0  0  0  0  0
   63.6460   32.9860   48.4500 C   0  0  0  0  0  0  0  0  0  0  0  0
   62.7540   31.9310   48.7040 C   0  0  0  0  0  0  0  0  0  0  0  0
   62.9990   31.0390   49.7520 C   0  0  0  0  0  0  0  0  0  0  0  0
   64.1320   31.1960   50.5550 C   0  0  0  0  0  0  0  0  0  0  0  0
   65.0210   32.2460   50.3120 C   0  0  0  0  0  0  0  0  0  0  0  0
   64.7800   33.1420   49.2650 C   0  0  0  0  0  0  0  0  0  0  0  0
   59.6520   33.2690   46.4150 C   0  0  0  0  0  0  0  0  0  0  0  0
   59.2110   33.7800   45.1840 C   0  0  0  0  0  0  0  0  0  0  0  0
   58.1030   33.2230   44.5390 C   0  0  0  0  0  0  0  0  0  0  0  0
   57.4020   32.1540   45.1270 C   0  0  0  0  0  0  0  0  0  0  0  0
   56.2900   31.5480   44.5230 O   0  0  0  0  0  0  0  0  0  0  0  0
   56.1470   30.1540   44.2420 C   0  0  0  0  0  0  0  0  0  0  0  0
   57.4370   29.5730   43.6440 C   0  0  0  0  0  0  0  0  0  0  0  0
   58.0020   28.4960   44.4880 N   0  0  0  0  0  0  0  0  0  0  0  0
   59.4870   28.5290   44.4840 C   0  0  0  0  0  0  0  0  0  0  0  0
   60.0530   29.2890   45.6960 C   0  0  0  0  0  0  0  0  0  0  0  0
   59.6200   28.6970   46.9890 N   0  0  0  0  0  0  0  0  0  0  0  0
   60.6980   27.9500   47.6790 C   0  0  0  0  0  0  0  0  0  0  0  0
   60.2620   27.5680   49.1000 C   0  0  0  0  0  0  0  0  0  0  0  0
   60.5090   28.6880   50.1190 C   0  0  0  0  0  0  0  0  0  0  0  0
   59.2700   29.2460   50.5590 O   0  0  0  0  0  0  0  0  0  0  0  0
   59.0610   30.5830   50.9340 C   0  0  0  0  0  0  0  0  0  0  0  0
   60.0950   31.5430   50.9550 C   0  0  0  0  0  0  0  0  0  0  0  0
   59.8230   32.8610   51.3370 C   0  0  0  0  0  0  0  0  0  0  0  0
   58.5260   33.2330   51.7010 C   0  0  0  0  0  0  0  0  0  0  0  0
   57.4960   32.2900   51.6780 C   0  0  0  0  0  0  0  0  0  0  0  0
   57.7640   30.9720   51.2930 C   0  0  0  0  0  0  0  0  0  0  0  0
   58.3780   27.8980   46.8850 C   0  0  0  0  0  0  0  0  0  0  0  0
   57.4200   28.5100   45.8560 C   0  0  0  0  0  0  0  0  0  0  0  0
   57.8310   31.6580   46.3620 C   0  0  0  0  0  0  0  0  0  0  0  0
   58.9420   32.2080   47.0090 C   0  0  0  0  0  0  0  0  0  0  0  0
   59.2910   31.7290   48.2300 F   0  0  0  0  0  0  0  0  0  0  0  0
   62.2890   33.0670   45.6890 H   0  0  0  0  0  0  0  0  0  0  0  0
   64.2196   33.9824   46.6483 H   0  0  0  0  0  0  0  0  0  0  0  0
   63.2005   34.9587   47.7672 H   0  0  0  0  0  0  0  0  0  0  0  0
   61.8595   31.8063   48.0760 H   0  0  0  0  0  0  0  0  0  0  0  0
   62.2992   30.2125   49.9449 H   0  0  0  0  0  0  0  0  0  0  0  0
   64.3239   30.4926   51.3787 H   0  0  0  0  0  0  0  0  0  0  0  0
   65.9122   32.3684   50.9451 H   0  0  0  0  0  0  0  0  0  0  0  0
   65.4796   33.9703   49.0794 H   0  0  0  0  0  0  0  0  0  0  0  0
   59.7419   34.6260   44.7231 H   0  0  0  0  0  0  0  0  0  0  0  0
   57.7775   33.6223   43.5671 H   0  0  0  0  0  0  0  0  0  0  0  0
   55.9129   29.6219   45.1758 H   0  0  0  0  0  0  0  0  0  0  0  0
   55.3358   30.0276   43.5099 H   0  0  0  0  0  0  0  0  0  0  0  0
   57.2139   29.1637   42.6477 H   0  0  0  0  0  0  0  0  0  0  0  0
   58.1790   30.3828   43.5837 H   0  0  0  0  0  0  0  0  0  0  0  0
   59.8647   27.4961   44.5053 H   0  0  0  0  0  0  0  0  0  0  0  0
   59.8114   29.0543   43.5736 H   0  0  0  0  0  0  0  0  0  0  0  0
   61.1516   29.2646   45.6466 H   0  0  0  0  0  0  0  0  0  0  0  0
   59.6704   30.3195   45.6542 H   0  0  0  0  0  0  0  0  0  0  0  0
   60.9250   27.0353   47.1117 H   0  0  0  0  0  0  0  0  0  0  0  0
   61.5910   28.5893   47.7404 H   0  0  0  0  0  0  0  0  0  0  0  0
   59.1870   27.3353   49.0872 H   0  0  0  0  0  0  0  0  0  0  0  0
   60.8636   26.7005   49.4090 H   0  0  0  0  0  0  0  0  0  0  0  0
   61.0488   28.2770   50.9849 H   0  0  0  0  0  0  0  0  0  0  0  0
   61.1055   29.4789   49.6408 H   0  0  0  0  0  0  0  0  0  0  0  0
   61.1175   31.2543   50.6703 H   0  0  0  0  0  0  0  0  0  0  0  0
   60.6319   33.6063   51.3509 H   0  0  0  0  0  0  0  0  0  0  0  0
   58.3163   34.2689   52.0057 H   0  0  0  0  0  0  0  0  0  0  0  0
   56.4747   32.5834   51.9624 H   0  0  0  0  0  0  0  0  0  0  0  0
   56.9485   30.2341   51.2720 H   0  0  0  0  0  0  0  0  0  0  0  0
   58.6332   26.8738   46.5753 H   0  0  0  0  0  0  0  0  0  0  0  0
   57.8817   27.8894   47.8666 H   0  0  0  0  0  0  0  0  0  0  0  0
   56.4844   27.9315   45.8515 H   0  0  0  0  0  0  0  0  0  0  0  0
   57.2344   29.5565   46.1395 H   0  0  0  0  0  0  0  0  0  0  0  0
   57.2875   30.8244   46.8307 H   0  0  0  0  0  0  0  0  0  0  0  0
  1  2  2  0
  2  3  1  0
  3  4  1  0
  4  5  1  0
  5  6  2  0
  6  7  1  0
  7  8  2  0
  8  9  1  0
  9 10  2  0
  2 11  1  0
 11 12  2  0
 12 13  1  0
 13 14  2  0
 14 15  1  0
 15 16  1  0
 16 17  1  0
 17 18  1  0
 18 19  1  0
 19 20  1  0
 20 21  1  0
 21 22  1  0
 22 23  1  0
 23 24  1  0
 24 25  1  0
 25 26  1  0
 26 27  2  0
 27 28  1  0
 28 29  2  0
 29 30  1  0
 30 31  2  0
 21 32  1  0
 32 33  1  0
 14 34  1  0
 34 35  2  0
 35 36  1  0
 10  5  1  0
 35 11  1  0
 33 18  1  0
 31 26  1  0
  3 37  1  0
  4 38  1  0
  4 39  1  0
  6 40  1  0
  7 41  1  0
  8 42  1  0
  9 43  1  0
 10 44  1  0
 12 45  1  0
 13 46  1  0
 16 47  1  0
 16 48  1  0
 17 49  1  0
 17 50  1  0
 19 51  1  0
 19 52  1  0
 20 53  1  0
 20 54  1  0
 22 55  1  0
 22 56  1  0
 23 57  1  0
 23 58  1  0
 24 59  1  0
 24 60  1  0
 27 61  1  0
 28 62  1  0
 29 63  1  0
 30 64  1  0
 31 65  1  0
 32 66  1  0
 32 67  1  0
 33 68  1  0
 33 69  1  0
 34 70  1  0
M  END
>  <UniqueID>  (76) 
71

>  <SMILES>  (76) 
O=C(NCc1ccccc1)c1ccc(OCCN2CCN(CCCOc3ccccc3)CC2)cc1F

>  <Energy>  (76) 
86.49156981308357

>  <Genealogy>  (76) 
O=C(NCc1ccccc1)c1ccc(OCCN2CCN(CCCOc3ccccc3)CC2)cc1F (3D coordinates assigned)
O=C(NCc1ccccc1)c1ccc(OCCN2CCN(CCCOc3ccccc3)CC2)cc1F (nonaromatic ring conformer: 86.49156981308357 kcal/mol)

>  <smiles>  (76) 
O=C(NCc1ccccc1)c1ccc(OCCN2CCN(CCCOc3ccccc3)CC2)cc1F

>  <score_type>  (76) 
oracle

>  <origin>  (76) 
adg

>  <m_score__min__energy>  (76) 
-8.9800000000000004

>  <m_primary>  (76) 
energy

$$$$
76:0
     RDKit          3D

 68 72  0  0  0  0  0  0  0  0999 V2000
   60.3850   29.5980   55.3200 N   0  0  0  0  0  0  0  0  0  0  0  0
   59.6150   29.9000   54.5090 C   0  0  0  0  0  0  0  0  0  0  0  0
   58.6690   30.2810   53.4890 C   0  0  0  0  0  0  0  0  0  0  0  0
   57.5490   31.0430   53.8500 C   0  0  0  0  0  0  0  0  0  0  0  0
   56.5740   31.3550   52.8980 C   0  0  0  0  0  0  0  0  0  0  0  0
   56.7000   30.8910   51.5870 C   0  0  0  0  0  0  0  0  0  0  0  0
   57.8040   30.1180   51.2240 C   0  0  0  0  0  0  0  0  0  0  0  0
   58.8110   29.8350   52.1590 C   0  0  0  0  0  0  0  0  0  0  0  0
   60.2450   28.8720   51.6530 S   0  0  0  0  0  0  0  0  0  0  0  0
   60.5310   29.8280   50.1500 C   0  0  0  0  0  0  0  0  0  0  0  0
   60.2410   29.2200   48.9190 C   0  0  0  0  0  0  0  0  0  0  0  0
   60.4400   29.9090   47.7230 C   0  0  0  0  0  0  0  0  0  0  0  0
   60.9050   31.2250   47.7430 C   0  0  0  0  0  0  0  0  0  0  0  0
   61.1830   31.8550   48.9640 C   0  0  0  0  0  0  0  0  0  0  0  0
   61.6110   33.2200   48.9760 N   0  0  0  0  0  0  0  0  0  0  0  0
   60.6610   34.3250   48.8740 C   0  0  0  0  0  0  0  0  0  0  0  0
   59.8350   34.1680   47.6270 C   0  0  0  0  0  0  0  0  0  0  0  0
   58.5380   33.6390   47.6950 C   0  0  0  0  0  0  0  0  0  0  0  0
   57.7980   33.4310   46.5270 C   0  0  0  0  0  0  0  0  0  0  0  0
   58.3420   33.7370   45.2740 C   0  0  0  0  0  0  0  0  0  0  0  0
   57.5550   33.5040   44.1360 O   0  0  0  0  0  0  0  0  0  0  0  0
   57.7610   32.4570   43.1890 C   0  0  0  0  0  0  0  0  0  0  0  0
   57.5420   31.1090   43.8230 C   0  0  0  0  0  0  0  0  0  0  0  0
   58.6090   30.4120   44.4140 C   0  0  0  0  0  0  0  0  0  0  0  0
   58.3830   29.1780   45.0350 C   0  0  0  0  0  0  0  0  0  0  0  0
   57.0950   28.6350   45.0760 C   0  0  0  0  0  0  0  0  0  0  0  0
   56.0280   29.3270   44.4960 C   0  0  0  0  0  0  0  0  0  0  0  0
   56.2480   30.5590   43.8720 C   0  0  0  0  0  0  0  0  0  0  0  0
   59.6500   34.2560   45.2040 C   0  0  0  0  0  0  0  0  0  0  0  0
   60.3890   34.4660   46.3730 C   0  0  0  0  0  0  0  0  0  0  0  0
   61.0220   31.1520   50.1740 C   0  0  0  0  0  0  0  0  0  0  0  0
   61.4100   31.8050   51.4400 C   0  0  0  0  0  0  0  0  0  0  0  0
   62.5030   31.4700   51.9750 O   0  0  0  0  0  0  0  0  0  0  0  0
   60.5320   32.7390   52.1080 N   0  0  0  0  0  0  0  0  0  0  0  0
   60.8340   33.0930   53.5060 C   0  0  0  0  0  0  0  0  0  0  0  0
   59.9510   34.2290   54.0230 C   0  0  0  0  0  0  0  0  0  0  0  0
   58.6130   34.0450   53.6240 O   0  0  0  0  0  0  0  0  0  0  0  0
   58.5270   34.2250   52.2280 C   0  0  0  0  0  0  0  0  0  0  0  0
   59.2430   33.0970   51.4850 C   0  0  0  0  0  0  0  0  0  0  0  0
   57.4370   31.3965   54.8856 H   0  0  0  0  0  0  0  0  0  0  0  0
   55.7056   31.9674   53.1823 H   0  0  0  0  0  0  0  0  0  0  0  0
   55.9295   31.1346   50.8407 H   0  0  0  0  0  0  0  0  0  0  0  0
   57.8850   29.7283   50.1985 H   0  0  0  0  0  0  0  0  0  0  0  0
   59.8533   28.1908   48.8972 H   0  0  0  0  0  0  0  0  0  0  0  0
   60.2303   29.4149   46.7628 H   0  0  0  0  0  0  0  0  0  0  0  0
   61.0536   31.7689   46.7985 H   0  0  0  0  0  0  0  0  0  0  0  0
   62.6380   33.4240   48.9820 H   0  0  0  0  0  0  0  0  0  0  0  0
   60.0002   34.3218   49.7534 H   0  0  0  0  0  0  0  0  0  0  0  0
   61.2113   35.2764   48.8298 H   0  0  0  0  0  0  0  0  0  0  0  0
   58.1006   33.3864   48.6722 H   0  0  0  0  0  0  0  0  0  0  0  0
   56.7786   33.0230   46.5934 H   0  0  0  0  0  0  0  0  0  0  0  0
   57.0549   32.5817   42.3548 H   0  0  0  0  0  0  0  0  0  0  0  0
   58.7979   32.5105   42.8257 H   0  0  0  0  0  0  0  0  0  0  0  0
   59.6235   30.8365   44.3887 H   0  0  0  0  0  0  0  0  0  0  0  0
   59.2220   28.6332   45.4926 H   0  0  0  0  0  0  0  0  0  0  0  0
   56.9218   27.6645   45.5641 H   0  0  0  0  0  0  0  0  0  0  0  0
   55.0140   28.9020   44.5304 H   0  0  0  0  0  0  0  0  0  0  0  0
   55.4054   31.1006   43.4174 H   0  0  0  0  0  0  0  0  0  0  0  0
   60.0919   34.4971   44.2260 H   0  0  0  0  0  0  0  0  0  0  0  0
   61.4111   34.8674   46.3086 H   0  0  0  0  0  0  0  0  0  0  0  0
   60.6747   32.2064   54.1373 H   0  0  0  0  0  0  0  0  0  0  0  0
   61.8788   33.4347   53.5474 H   0  0  0  0  0  0  0  0  0  0  0  0
   59.9996   34.2518   55.1217 H   0  0  0  0  0  0  0  0  0  0  0  0
   60.3163   35.1779   53.6032 H   0  0  0  0  0  0  0  0  0  0  0  0
   57.4678   34.2357   51.9313 H   0  0  0  0  0  0  0  0  0  0  0  0
   59.0099   35.1783   51.9672 H   0  0  0  0  0  0  0  0  0  0  0  0
   58.5939   32.2089   51.4820 H   0  0  0  0  0  0  0  0  0  0  0  0
   59.4516   33.4490   50.4639 H   0  0  0  0  0  0  0  0  0  0  0  0
  1  2  3  0
  2  3  1  0
  3  4  2  0
  4  5  1  0
  5  6  2  0
  6  7  1  0
  7  8  2  0
  8  9  1  0
  9 10  1  0
 10 11  2  0
 11 12  1  0
 12 13  2  0
 13 14  1  0
 14 15  1  0
 15 16  1  0
 16 17  1  0
 17 18  2  0
 18 19  1  0
 19 20  2  0
 20 21  1  0
 21 22  1  0
 22 23  1  0
 23 24  2  0
 24 25  1  0
 25 26  2  0
 26 27  1  0
 27 28  2  0
 20 29  1  0
 29 30  2  0
 14 31  2  0
 31 32  1  0
 32 33  2  0
 32 34  1  0
 34 35  1  0
 35 36  1  0
 36 37  1  0
 37 38  1  0
 38 39  1  0
  8  3  1  0
 31 10  1  0
 39 34  1  0
 30 17  1  0
 28 23  1  0
  4 40  1  0
  5 41  1  0
  6 42  1  0
  7 43  1  0
 11 44  1  0
 12 45  1  0
 13 46  1  0
 15 47  1  0
 16 48  1  0
 16 49  1  0
 18 50  1  0
 19 51  1  0
 22 52  1  0
 22 53  1  0
 24 54  1  0
 25 55  1  0
 26 56  1  0
 27 57  1  0
 28 58  1  0
 29 59  1  0
 30 60  1  0
 35 61  1  0
 35 62  1  0
 36 63  1  0
 36 64  1  0
 38 65  1  0
 38 66  1  0
 39 67  1  0
 39 68  1  0
M  END
>  <UniqueID>  (77) 
72

>  <SMILES>  (77) 
N#Cc1ccccc1Sc1cccc(NCc2ccc(OCc3ccccc3)cc2)c1C(=O)N1CCOCC1

>  <Energy>  (77) 
81.85723961840216

>  <Genealogy>  (77) 
N#Cc1ccccc1Sc1cccc(NCc2ccc(OCc3ccccc3)cc2)c1C(=O)N1CCOCC1 (3D coordinates assigned)
N#Cc1ccccc1Sc1cccc(NCc2ccc(OCc3ccccc3)cc2)c1C(=O)N1CCOCC1 (nonaromatic ring conformer: 81.85723961840216 kcal/mol)

>  <smiles>  (77) 
N#Cc1ccccc1Sc1cccc(NCc2ccc(OCc3ccccc3)cc2)c1C(=O)N1CCOCC1

>  <score_type>  (77) 
oracle

>  <origin>  (77) 
adg

>  <m_score__min__energy>  (77) 
-9.5199999999999996

>  <m_primary>  (77) 
energy

$$$$
77:0
     RDKit          3D

 50 53  0  0  0  0  0  0  0  0999 V2000
   54.1950   27.8960   54.7110 C   0  0  0  0  0  0  0  0  0  0  0  0
   55.0130   28.6890   53.9970 C   0  0  0  0  0  0  0  0  0  0  0  0
   56.2580   28.2060   53.7580 N   0  0  0  0  0  0  0  0  0  0  0  0
   57.1870   28.8890   53.0540 C   0  0  0  0  0  0  0  0  0  0  0  0
   58.3010   28.3440   52.8280 O   0  0  0  0  0  0  0  0  0  0  0  0
   56.9120   30.1440   52.5890 N   0  0  0  0  0  0  0  0  0  0  0  0
   57.9020   30.8650   51.8180 C   0  0  0  0  0  0  0  0  0  0  0  0
   58.7540   31.7980   52.4320 C   0  0  0  0  0  0  0  0  0  0  0  0
   59.7100   32.4810   51.6770 C   0  0  0  0  0  0  0  0  0  0  0  0
   59.8240   32.2430   50.3040 C   0  0  0  0  0  0  0  0  0  0  0  0
   58.9820   31.3140   49.6700 C   0  0  0  0  0  0  0  0  0  0  0  0
   59.0800   31.0910   48.2050 C   0  0  0  0  0  0  0  0  0  0  0  0
   59.9760   31.6840   47.5460 O   0  0  0  0  0  0  0  0  0  0  0  0
   58.1440   30.2660   47.4960 N   0  0  0  0  0  0  0  0  0  0  0  0
   58.4810   29.1660   46.6380 C   0  0  0  0  0  0  0  0  0  0  0  0
   59.5650   28.3290   46.9650 C   0  0  0  0  0  0  0  0  0  0  0  0
   59.9330   27.2820   46.1210 C   0  0  0  0  0  0  0  0  0  0  0  0
   59.2340   27.0630   44.9360 C   0  0  0  0  0  0  0  0  0  0  0  0
   58.1620   27.8870   44.5920 C   0  0  0  0  0  0  0  0  0  0  0  0
   57.7640   28.9440   45.4350 C   0  0  0  0  0  0  0  0  0  0  0  0
   56.5830   29.7630   45.0520 C   0  0  0  0  0  0  0  0  0  0  0  0
   55.2960   29.1700   44.8890 N   0  0  0  0  0  0  0  0  0  0  0  0
   56.7170   30.9970   44.8330 O   0  0  0  0  0  0  0  0  0  0  0  0
   58.0150   30.6400   50.4360 C   0  0  0  0  0  0  0  0  0  0  0  0
   55.6840   30.7070   52.8250 C   0  0  0  0  0  0  0  0  0  0  0  0
   55.4960   31.9150   52.5040 O   0  0  0  0  0  0  0  0  0  0  0  0
   54.6490   29.9650   53.4660 C   0  0  0  0  0  0  0  0  0  0  0  0
   53.3760   30.4520   53.5640 C   0  0  0  0  0  0  0  0  0  0  0  0
   52.5400   30.9030   52.4250 C   0  0  0  0  0  0  0  0  0  0  0  0
   52.7380   30.3870   51.1290 C   0  0  0  0  0  0  0  0  0  0  0  0
   53.6880   29.3990   50.8690 O   0  0  0  0  0  0  0  0  0  0  0  0
   51.9800   30.8480   50.1020 N   0  0  0  0  0  0  0  0  0  0  0  0
   51.0370   31.8070   50.2910 C   0  0  0  0  0  0  0  0  0  0  0  0
   50.3470   32.2100   49.3200 O   0  0  0  0  0  0  0  0  0  0  0  0
   50.8420   32.3320   51.5260 N   0  0  0  0  0  0  0  0  0  0  0  0
   51.5720   31.9120   52.5910 C   0  0  0  0  0  0  0  0  0  0  0  0
   51.3760   32.4380   53.7190 O   0  0  0  0  0  0  0  0  0  0  0  0
   53.1713   28.2265   54.9410 H   0  0  0  0  0  0  0  0  0  0  0  0
   54.5494   26.9168   55.0652 H   0  0  0  0  0  0  0  0  0  0  0  0
   58.6679   31.9913   53.5114 H   0  0  0  0  0  0  0  0  0  0  0  0
   60.3756   33.2087   52.1642 H   0  0  0  0  0  0  0  0  0  0  0  0
   60.5781   32.7868   49.7161 H   0  0  0  0  0  0  0  0  0  0  0  0
   60.1266   28.5027   47.8947 H   0  0  0  0  0  0  0  0  0  0  0  0
   60.7757   26.6286   46.3909 H   0  0  0  0  0  0  0  0  0  0  0  0
   59.5280   26.2384   44.2699 H   0  0  0  0  0  0  0  0  0  0  0  0
   57.6206   27.7095   43.6510 H   0  0  0  0  0  0  0  0  0  0  0  0
   54.5330   29.3440   45.5790 H   0  0  0  0  0  0  0  0  0  0  0  0
   57.3368   29.9259   49.9460 H   0  0  0  0  0  0  0  0  0  0  0  0
   52.9353   30.5146   54.5699 H   0  0  0  0  0  0  0  0  0  0  0  0
   53.7480   28.5410   51.4030 H   0  0  0  0  0  0  0  0  0  0  0  0
  1  2  2  0
  2  3  1  0
  3  4  1  0
  4  5  2  0
  4  6  1  0
  6  7  1  0
  7  8  2  0
  8  9  1  0
  9 10  2  0
 10 11  1  0
 11 12  1  0
 12 13  2  0
 12 14  1  0
 14 15  1  0
 15 16  2  0
 16 17  1  0
 17 18  2  0
 18 19  1  0
 19 20  2  0
 20 21  1  0
 21 22  1  0
 21 23  2  0
 11 24  2  0
  6 25  1  0
 25 26  2  0
 25 27  1  0
 27 28  2  3
 28 29  1  0
 29 30  2  0
 30 31  1  0
 30 32  1  0
 32 33  1  0
 33 34  2  0
 33 35  1  0
 35 36  1  0
 36 37  2  0
 27  2  1  0
 36 29  1  0
 24  7  1  0
 20 15  1  0
  1 38  1  0
  1 39  1  0
  8 40  1  0
  9 41  1  0
 10 42  1  0
 16 43  1  0
 17 44  1  0
 18 45  1  0
 19 46  1  0
 22 47  1  0
 24 48  1  0
 28 49  1  0
 31 50  1  0
M  CHG  5   3  -1  14  -1  22  -1  32  -1  35  -1
M  END
>  <UniqueID>  (78) 
73

>  <SMILES>  (78) 
C=c1[n-]c(=O)n(-c2cccc(C(=O)[N-]c3ccccc3C([NH-])=O)c2)c(=O)c1=Cc1c(O)[n-]c(=O)[n-]c1=O

>  <Energy>  (78) 
98.39652733517244

>  <Genealogy>  (78) 
C=c1[n-]c(=O)n(-c2cccc(C(=O)[N-]c3ccccc3C([NH-])=O)c2)c(=O)c1=Cc1c(O)[n-]c(=O)[n-]c1=O (protonated)
C=c1[n-]c(=O)n(-c2cccc(C(=O)[N-]c3ccccc3C([NH-])=O)c2)c(=O)c1=Cc1c(O)[n-]c(=O)[n-]c1=O (3D coordinates assigned)
C=c1[n-]c(=O)n(-c2cccc(C(=O)[N-]c3ccccc3C([NH-])=O)c2)c(=O)c1=Cc1c(O)[n-]c(=O)[n-]c1=O (optimized conformer: 98.39652733517244 kcal/mol)

>  <smiles>  (78) 
C=c1[nH]c(=O)n(-c2cccc(C(=O)Nc3ccccc3C(N)=O)c2)c(=O)c1=Cc1c(O)[nH]c(=O)[nH]c1=O

>  <score_type>  (78) 
oracle

>  <origin>  (78) 
adg

>  <m_score__min__energy>  (78) 
-19.32

>  <m_primary>  (78) 
energy

$$$$
78:0
     RDKit          3D

 34 36  0  0  0  0  0  0  0  0999 V2000
   58.0840   26.9580   45.7840 O   0  0  0  0  0  0  0  0  0  0  0  0
   57.0000   27.5990   45.8060 C   0  0  0  0  0  0  0  0  0  0  0  0
   55.7750   26.8730   45.9830 N   0  0  0  0  0  0  0  0  0  0  0  0
   55.6470   25.4560   46.1670 C   0  0  0  0  0  0  0  0  0  0  0  0
   54.6190   24.7780   45.4980 C   0  0  0  0  0  0  0  0  0  0  0  0
   54.4710   23.3950   45.6450 C   0  0  0  0  0  0  0  0  0  0  0  0
   55.3610   22.6780   46.4490 C   0  0  0  0  0  0  0  0  0  0  0  0
   56.4060   23.3420   47.1000 C   0  0  0  0  0  0  0  0  0  0  0  0
   57.3010   22.6260   47.8860 O   0  0  0  0  0  0  0  0  0  0  0  0
   56.5560   24.7250   46.9550 C   0  0  0  0  0  0  0  0  0  0  0  0
   57.0210   29.0680   45.6010 C   0  0  0  0  0  0  0  0  0  0  0  0
   56.0070   29.7110   44.8760 C   0  0  0  0  0  0  0  0  0  0  0  0
   54.9700   28.9860   44.3000 O   0  0  0  0  0  0  0  0  0  0  0  0
   56.0410   31.0550   44.7130 N   0  0  0  0  0  0  0  0  0  0  0  0
   57.0440   31.8090   45.2270 C   0  0  0  0  0  0  0  0  0  0  0  0
   57.0310   33.0550   45.0360 O   0  0  0  0  0  0  0  0  0  0  0  0
   58.0620   31.2180   45.9290 N   0  0  0  0  0  0  0  0  0  0  0  0
   59.1280   32.0240   46.4710 C   0  0  0  0  0  0  0  0  0  0  0  0
   58.8460   33.2630   47.0700 C   0  0  0  0  0  0  0  0  0  0  0  0
   59.8800   34.0430   47.5960 C   0  0  0  0  0  0  0  0  0  0  0  0
   61.2010   33.5920   47.5280 C   0  0  0  0  0  0  0  0  0  0  0  0
   61.4900   32.3610   46.9340 C   0  0  0  0  0  0  0  0  0  0  0  0
   60.4590   31.5780   46.4060 C   0  0  0  0  0  0  0  0  0  0  0  0
   58.0630   29.8590   46.1200 C   0  0  0  0  0  0  0  0  0  0  0  0
   58.9860   29.3130   46.7880 O   0  0  0  0  0  0  0  0  0  0  0  0
   53.9245   25.3368   44.8535 H   0  0  0  0  0  0  0  0  0  0  0  0
   53.6536   22.8715   45.1275 H   0  0  0  0  0  0  0  0  0  0  0  0
   55.2398   21.5914   46.5700 H   0  0  0  0  0  0  0  0  0  0  0  0
   57.3862   25.2426   47.4579 H   0  0  0  0  0  0  0  0  0  0  0  0
   57.8073   33.6209   47.1254 H   0  0  0  0  0  0  0  0  0  0  0  0
   59.6537   35.0125   48.0638 H   0  0  0  0  0  0  0  0  0  0  0  0
   62.0137   34.2066   47.9424 H   0  0  0  0  0  0  0  0  0  0  0  0
   62.5302   32.0072   46.8816 H   0  0  0  0  0  0  0  0  0  0  0  0
   60.6905   30.6097   45.9382 H   0  0  0  0  0  0  0  0  0  0  0  0
  1  2  2  0
  2  3  1  0
  3  4  1  0
  4  5  2  0
  5  6  1  0
  6  7  2  0
  7  8  1  0
  8  9  1  0
  8 10  2  0
  2 11  1  0
 11 12  2  0
 12 13  1  0
 12 14  1  0
 14 15  1  0
 15 16  2  0
 15 17  1  0
 17 18  1  0
 18 19  2  0
 19 20  1  0
 20 21  2  0
 21 22  1  0
 22 23  2  0
 17 24  1  0
 24 25  2  0
 10  4  1  0
 24 11  1  0
 23 18  1  0
  5 26  1  0
  6 27  1  0
  7 28  1  0
 10 29  1  0
 19 30  1  0
 20 31  1  0
 21 32  1  0
 22 33  1  0
 23 34  1  0
M  CHG  4   3  -1   9  -1  13  -1  14  -1
M  END
>  <UniqueID>  (79) 
74

>  <SMILES>  (79) 
O=C([N-]c1cccc([O-])c1)c1c([O-])[n-]c(=O)n(-c2ccccc2)c1=O

>  <Energy>  (79) 
57.87878889921812

>  <Genealogy>  (79) 
O=C([N-]c1cccc([O-])c1)c1c([O-])[n-]c(=O)n(-c2ccccc2)c1=O (protonated)
O=C([N-]c1cccc([O-])c1)c1c([O-])[n-]c(=O)n(-c2ccccc2)c1=O (3D coordinates assigned)
O=C([N-]c1cccc([O-])c1)c1c([O-])[n-]c(=O)n(-c2ccccc2)c1=O (optimized conformer: 57.87878889921812 kcal/mol)

>  <smiles>  (79) 
O=C(Nc1cccc(O)c1)c1c(O)[nH]c(=O)n(-c2ccccc2)c1=O

>  <score_type>  (79) 
oracle

>  <origin>  (79) 
adg

>  <m_score__min__energy>  (79) 
-15.76

>  <m_primary>  (79) 
energy

$$$$
79:0
     RDKit          3D

 53 55  0  0  1  0  0  0  0  0999 V2000
   59.3940   31.9900   49.9520 C   0  0  0  0  0  0  0  0  0  0  0  0
   59.5120   32.0390   48.5490 O   0  0  0  0  0  0  0  0  0  0  0  0
   60.6600   32.5300   47.9510 C   0  0  0  0  0  0  0  0  0  0  0  0
   61.8750   31.9030   48.1200 C   0  0  0  0  0  0  0  0  0  0  0  0
   62.9890   32.4300   47.5040 C   0  0  0  0  0  0  0  0  0  0  0  0
   62.8970   33.5640   46.7300 C   0  0  0  0  0  0  0  0  0  0  0  0
   61.6940   34.2160   46.5400 C   0  0  0  0  0  0  0  0  0  0  0  0
   60.5740   33.6780   47.1660 C   0  0  0  0  0  0  0  0  0  0  0  0
   59.2630   34.3140   47.0120 C   0  0  0  0  0  0  0  0  0  0  0  0
   58.5010   33.8610   45.7780 C   0  0  0  0  0  0  0  0  0  0  0  0
   57.8070   32.6920   46.0850 N   0  0  0  0  0  0  0  0  0  0  0  0
   57.9690   31.5400   45.5220 C   0  0  0  0  0  0  0  0  0  0  0  0
   57.1310   31.2040   44.5020 N   0  0  0  0  0  0  0  0  0  0  0  0
   57.2270   30.0260   43.8580 C   0  0  0  0  0  0  0  0  0  0  0  0
   56.2940   29.6730   42.7360 C   0  0  0  0  0  0  0  0  0  0  0  0
   58.2050   29.1490   44.2570 C   0  0  0  0  0  0  0  0  0  0  0  0
   59.0710   29.4560   45.2860 C   0  0  0  0  0  0  0  0  0  0  0  0
   59.9850   28.6240   45.6500 N   0  0  0  0  0  0  0  0  0  0  0  0
   60.1890   28.4500   47.0550 C   0  0  0  0  0  0  0  0  0  0  0  0
   60.6960   29.3540   47.7540 O   0  0  0  0  0  0  0  0  0  0  0  0
   59.7680   27.1460   47.6270 C   0  0  0  0  0  0  0  0  0  0  0  0
   58.7170   26.4740   46.8550 C   0  0  0  0  0  0  0  0  0  0  0  0
   59.0390   25.3250   46.1700 C   0  0  0  0  0  0  0  0  0  0  0  0
   58.0990   24.6370   45.4180 C   0  0  0  0  0  0  0  0  0  0  0  0
   56.7930   25.1030   45.3430 C   0  0  0  0  0  0  0  0  0  0  0  0
   56.4530   26.2400   46.0150 C   0  0  0  0  0  0  0  0  0  0  0  0
   55.1350   26.7170   45.9440 O   0  0  0  0  0  0  0  0  0  0  0  0
   57.4090   26.9210   46.7670 C   0  0  0  0  0  0  0  0  0  0  0  0
   58.9230   30.6660   45.8980 N   0  0  0  0  0  0  0  0  0  0  0  0
   60.3171   32.3733   50.4112 H   0  0  0  0  0  0  0  0  0  0  0  0
   58.5419   32.6087   50.2701 H   0  0  0  0  0  0  0  0  0  0  0  0
   59.2308   30.9497   50.2701 H   0  0  0  0  0  0  0  0  0  0  0  0
   61.9545   30.9959   48.7371 H   0  0  0  0  0  0  0  0  0  0  0  0
   63.9644   31.9380   47.6326 H   0  0  0  0  0  0  0  0  0  0  0  0
   63.8039   33.9612   46.2506 H   0  0  0  0  0  0  0  0  0  0  0  0
   61.6245   35.1220   45.9201 H   0  0  0  0  0  0  0  0  0  0  0  0
   58.6571   34.0782   47.8993 H   0  0  0  0  0  0  0  0  0  0  0  0
   59.4427   35.3933   46.8984 H   0  0  0  0  0  0  0  0  0  0  0  0
   57.7908   34.6439   45.4735 H   0  0  0  0  0  0  0  0  0  0  0  0
   59.2029   33.6740   44.9520 H   0  0  0  0  0  0  0  0  0  0  0  0
   56.4040   31.8620   44.2110 H   0  0  0  0  0  0  0  0  0  0  0  0
   55.3412   29.3125   43.1511 H   0  0  0  0  0  0  0  0  0  0  0  0
   56.1108   30.5640   42.1174 H   0  0  0  0  0  0  0  0  0  0  0  0
   56.7464   28.8839   42.1174 H   0  0  0  0  0  0  0  0  0  0  0  0
   58.3002   28.1801   43.7449 H   0  0  0  0  0  0  0  0  0  0  0  0
   60.6461   26.4847   47.6667 H   0  0  0  0  0  0  0  0  0  0  0  0
   59.3518   27.3522   48.6241 H   0  0  0  0  0  0  0  0  0  0  0  0
   60.0690   24.9423   46.2203 H   0  0  0  0  0  0  0  0  0  0  0  0
   58.3879   23.7217   44.8806 H   0  0  0  0  0  0  0  0  0  0  0  0
   56.0420   24.5617   44.7489 H   0  0  0  0  0  0  0  0  0  0  0  0
   54.3800   26.2130   46.3830 H   0  0  0  0  0  0  0  0  0  0  0  0
   57.1174   27.8358   47.3037 H   0  0  0  0  0  0  0  0  0  0  0  0
   59.5560   30.9470   46.6860 H   0  0  0  0  0  0  0  0  0  0  0  0
  1  2  1  0
  2  3  1  0
  3  4  2  0
  4  5  1  0
  5  6  2  0
  6  7  1  0
  7  8  2  0
  8  9  1  0
  9 10  1  0
 10 11  1  0
 11 12  2  0
 12 13  1  0
 13 14  1  0
 14 15  1  0
 14 16  2  0
 16 17  1  0
 17 18  2  0
 18 19  1  0
 19 20  2  0
 19 21  1  0
 21 22  1  0
 22 23  2  0
 23 24  1  0
 24 25  2  0
 25 26  1  0
 26 27  1  0
 26 28  2  0
 17 29  1  0
  8  3  1  0
 29 12  1  0
 28 22  1  0
  1 30  1  0
  1 31  1  0
  1 32  1  0
  4 33  1  0
  5 34  1  0
  6 35  1  0
  7 36  1  0
  9 37  1  0
  9 38  1  0
 10 39  1  0
 10 40  1  0
 13 41  1  0
 15 42  1  0
 15 43  1  0
 15 44  1  0
 16 45  1  0
 21 46  1  0
 21 47  1  0
 23 48  1  0
 24 49  1  0
 25 50  1  0
 27 51  1  0
 28 52  1  0
 29 53  1  0
M  END
>  <smiles>  (80) 
COc1ccccc1CCN=c1[nH]c(C)cc(=NC(=O)Cc2cccc(O)c2)[nH]1

>  <score_type>  (80) 
oracle

>  <origin>  (80) 
adg

>  <m_score__min__energy>  (80) 
-9.4499999999999993

>  <m_primary>  (80) 
energy

$$$$
80:0
     RDKit          3D

 56 59  0  0  0  0  0  0  0  0999 V2000
   59.1200   31.0277   47.7862 H   0  0  0  0  0  0  0  0  0  0  0  0
   59.8570   31.3670   48.5290 C   0  0  0  0  0  0  0  0  0  0  0  0
   60.1000   32.5610   48.6350 O   0  0  0  0  0  0  0  0  0  0  0  0
   60.5580   30.3460   49.4080 C   0  0  2  0  0  0  0  0  0  0  0  0
   60.6870   29.0070   48.6920 C   0  0  0  0  0  0  0  0  0  0  0  0
   60.7586   28.0910   49.2968 H   0  0  0  0  0  0  0  0  0  0  0  0
   60.7170   28.8980   47.3520 C   0  0  0  0  0  0  0  0  0  0  0  0
   61.6871   28.8083   46.8413 H   0  0  0  0  0  0  0  0  0  0  0  0
   59.4550   28.8960   46.5370 C   0  0  0  0  0  0  0  0  0  0  0  0
   58.6891   29.4948   47.0517 H   0  0  0  0  0  0  0  0  0  0  0  0
   59.6662   29.3270   45.5472 H   0  0  0  0  0  0  0  0  0  0  0  0
   58.9500   27.4850   46.3620 C   0  0  0  0  0  0  0  0  0  0  0  0
   59.8760   26.4430   46.2480 C   0  0  0  0  0  0  0  0  0  0  0  0
   60.9512   26.6641   46.3197 H   0  0  0  0  0  0  0  0  0  0  0  0
   59.4580   25.1290   46.0450 C   0  0  0  0  0  0  0  0  0  0  0  0
   60.4330   24.1400   45.9510 O   0  0  0  0  0  0  0  0  0  0  0  0
   58.0830   24.8260   45.9360 C   0  0  0  0  0  0  0  0  0  0  0  0
   57.6330   23.4980   45.7290 C   0  0  0  0  0  0  0  0  0  0  0  0
   58.5230   22.4320   45.6370 O   0  0  0  0  0  0  0  0  0  0  0  0
   56.2690   23.2290   45.6130 C   0  0  0  0  0  0  0  0  0  0  0  0
   55.9280   22.1958   45.4508 H   0  0  0  0  0  0  0  0  0  0  0  0
   55.3370   24.2580   45.7010 C   0  0  0  0  0  0  0  0  0  0  0  0
   54.2650   24.0314   45.6040 H   0  0  0  0  0  0  0  0  0  0  0  0
   55.7480   25.5740   45.9110 C   0  0  0  0  0  0  0  0  0  0  0  0
   54.7710   26.5600   45.9920 O   0  0  0  0  0  0  0  0  0  0  0  0
   57.1260   25.8820   46.0330 C   0  0  0  0  0  0  0  0  0  0  0  0
   57.5750   27.2080   46.2490 C   0  0  0  0  0  0  0  0  0  0  0  0
   56.6650   28.2580   46.3520 O   0  0  0  0  0  0  0  0  0  0  0  0
   59.7680   30.1670   50.6950 C   0  0  0  0  0  0  0  0  0  0  0  0
   59.8925   29.2368   51.2688 H   0  0  0  0  0  0  0  0  0  0  0  0
   58.9220   31.1060   51.1570 C   0  0  0  0  0  0  0  0  0  0  0  0
   59.2706   32.1493   51.1577 H   0  0  0  0  0  0  0  0  0  0  0  0
   57.5500   30.8380   51.6670 C   0  0  0  0  0  0  0  0  0  0  0  0
   57.0850   29.5510   52.0090 C   0  0  0  0  0  0  0  0  0  0  0  0
   57.7555   28.6845   51.9105 H   0  0  0  0  0  0  0  0  0  0  0  0
   55.7790   29.3680   52.4720 C   0  0  0  0  0  0  0  0  0  0  0  0
   55.4326   28.3584   52.7378 H   0  0  0  0  0  0  0  0  0  0  0  0
   54.9080   30.4540   52.6010 C   0  0  0  0  0  0  0  0  0  0  0  0
   53.6100   30.2150   53.0740 O   0  0  0  0  0  0  0  0  0  0  0  0
   52.4270   30.4070   52.3490 C   0  0  0  0  0  0  0  0  0  0  0  0
   52.0600   29.5780   51.4720 O   0  0  0  0  0  0  0  0  0  0  0  0
   51.5790   31.5650   52.6650 C   0  0  0  0  0  0  0  0  0  0  0  0
   51.2710   31.9460   53.9170 N   0  0  0  0  0  0  0  0  0  0  0  0
   50.4840   33.0290   53.7310 C   0  0  0  0  0  0  0  0  0  0  0  0
   49.9860   33.6770   54.6870 O   0  0  0  0  0  0  0  0  0  0  0  0
   50.2740   33.3610   52.4390 N   0  0  0  0  0  0  0  0  0  0  0  0
   50.9750   32.4260   51.7760 C   0  0  0  0  0  0  0  0  0  0  0  0
   51.0580   32.3630   50.3900 O   0  0  0  0  0  0  0  0  0  0  0  0
   55.3740   31.7440   52.2950 C   0  0  0  0  0  0  0  0  0  0  0  0
   54.7102   32.6113   52.4257 H   0  0  0  0  0  0  0  0  0  0  0  0
   56.6780   31.9300   51.8250 C   0  0  0  0  0  0  0  0  0  0  0  0
   57.0260   32.9433   51.5757 H   0  0  0  0  0  0  0  0  0  0  0  0
   61.9670   30.8690   49.7580 C   0  0  0  0  0  0  0  0  0  0  0  0
   62.0813   30.9114   50.8512 H   0  0  0  0  0  0  0  0  0  0  0  0
   62.7246   30.1922   49.3361 H   0  0  0  0  0  0  0  0  0  0  0  0
   62.0995   31.8762   49.3361 H   0  0  0  0  0  0  0  0  0  0  0  0
  1  2  1  0
  2  3  2  0
  2  4  1  0
  4  5  1  0
  5  6  1  0
  5  7  2  3
  7  8  1  0
  7  9  1  0
  9 10  1  0
  9 11  1  0
  9 12  1  0
 12 13  2  0
 13 14  1  0
 13 15  1  0
 15 16  1  0
 15 17  2  0
 17 18  1  0
 18 19  1  0
 18 20  2  0
 20 21  1  0
 20 22  1  0
 22 23  1  0
 22 24  2  0
 24 25  1  0
 24 26  1  0
 26 27  2  0
 27 28  1  0
  4 29  1  0
 29 30  1  0
 29 31  2  0
 31 32  1  0
 31 33  1  0
 33 34  2  0
 34 35  1  0
 34 36  1  0
 36 37  1  0
 36 38  2  0
 38 39  1  0
 39 40  1  0
 40 41  2  0
 40 42  1  0
 42 43  1  0
 43 44  1  0
 44 45  2  0
 44 46  1  0
 46 47  1  0
 47 48  1  0
 38 49  1  0
 49 50  1  0
 49 51  2  0
 51 52  1  0
  4 53  1  1
 53 54  1  0
 53 55  1  0
 53 56  1  0
 27 12  1  0
 51 33  1  0
 26 17  1  0
 47 42  2  0
M  CHG  7  16  -1  19  -1  25  -1  28  -1  43  -1  46  -1  48  -1
M  END
>  <UniqueID>  (81) 
75

>  <SMILES>  (81) 
C[C@@](C=O)(C=CCc1cc([O-])c2c([O-])ccc([O-])c2c1[O-])/C=C/c1ccc(OC(=O)c2[n-]c(=O)[n-]c2[O-])cc1

>  <Energy>  (81) 
102.93062503406105

>  <Genealogy>  (81) 
CC(C=O)(C=CCc1cc([O-])c2c([O-])ccc([O-])c2c1[O-])C=Cc1ccc(OC(=O)c2[n-]c(=O)[n-]c2[O-])cc1 (protonated)
C[C@@](C=O)(C=CCc1cc([O-])c2c([O-])ccc([O-])c2c1[O-])C=Cc1ccc(OC(=O)c2[n-]c(=O)[n-]c2[O-])cc1 (chirality)
C[C@@](C=O)(C=CCc1cc([O-])c2c([O-])ccc([O-])c2c1[O-])/C=C/c1ccc(OC(=O)c2[n-]c(=O)[n-]c2[O-])cc1 (cis-trans isomerization)
C[C@@](C=O)(C=CCc1cc([O-])c2c([O-])ccc([O-])c2c1[O-])/C=C/c1ccc(OC(=O)c2[n-]c(=O)[n-]c2[O-])cc1 (3D coordinates assigned)
C[C@@](C=O)(C=CCc1cc([O-])c2c([O-])ccc([O-])c2c1[O-])/C=C/c1ccc(OC(=O)c2[n-]c(=O)[n-]c2[O-])cc1 (optimized conformer: 102.93062503406105 kcal/mol)

>  <smiles>  (81) 
CC(C=O)(C=CCc1cc(O)c2c(O)ccc(O)c2c1O)C=Cc1ccc(OC(=O)c2[nH]c(=O)[nH]c2O)cc1

>  <score_type>  (81) 
oracle

>  <origin>  (81) 
adg

>  <m_score__min__energy>  (81) 
-26.309999999999999

>  <m_primary>  (81) 
energy

$$$$
81:0
     RDKit          3D

 50 53  0  0  0  0  0  0  0  0999 V2000
   50.8590   28.1170   53.3010 O   0  0  0  0  0  0  0  0  0  0  0  0
   51.7320   28.9770   53.0070 C   0  0  0  0  0  0  0  0  0  0  0  0
   53.0720   28.5300   52.7530 N   0  0  0  0  0  0  0  0  0  0  0  0
   54.2560   29.3400   52.7800 C   0  0  0  0  0  0  0  0  0  0  0  0
   54.4010   30.3550   51.8270 C   0  0  0  0  0  0  0  0  0  0  0  0
   55.5450   31.1570   51.8160 C   0  0  0  0  0  0  0  0  0  0  0  0
   56.5750   30.9380   52.7450 C   0  0  0  0  0  0  0  0  0  0  0  0
   57.7820   31.7930   52.7450 C   0  0  0  0  0  0  0  0  0  0  0  0
   58.4200   31.9520   53.8220 O   0  0  0  0  0  0  0  0  0  0  0  0
   58.2490   32.4300   51.5420 N   0  0  0  0  0  0  0  0  0  0  0  0
   58.3120   31.6580   50.2900 C   0  0  0  0  0  0  0  0  0  0  0  0
   59.0390   32.4300   49.1810 C   0  0  0  0  0  0  0  0  0  0  0  0
   60.2670   33.0480   49.7050 N   0  0  0  0  0  0  0  0  0  0  0  0
   61.4610   33.0890   48.8970 C   0  0  0  0  0  0  0  0  0  0  0  0
   61.4630   33.7890   47.6780 C   0  0  0  0  0  0  0  0  0  0  0  0
   62.6170   33.8380   46.8910 C   0  0  0  0  0  0  0  0  0  0  0  0
   63.7790   33.1850   47.3100 C   0  0  0  0  0  0  0  0  0  0  0  0
   63.7870   32.4800   48.5150 C   0  0  0  0  0  0  0  0  0  0  0  0
   62.6350   32.4270   49.3070 C   0  0  0  0  0  0  0  0  0  0  0  0
   62.6610   31.7070   50.4550 F   0  0  0  0  0  0  0  0  0  0  0  0
   60.2500   33.7420   51.0030 C   0  0  0  0  0  0  0  0  0  0  0  0
   58.8400   33.7720   51.6020 C   0  0  0  0  0  0  0  0  0  0  0  0
   56.4310   29.9180   53.6990 C   0  0  0  0  0  0  0  0  0  0  0  0
   55.2860   29.1150   53.7080 C   0  0  0  0  0  0  0  0  0  0  0  0
   51.3370   30.3980   52.8760 C   0  0  0  0  0  0  0  0  0  0  0  0
   50.9510   31.1530   53.9960 C   0  0  0  0  0  0  0  0  0  0  0  0
   50.5890   32.4930   53.8480 C   0  0  0  0  0  0  0  0  0  0  0  0
   50.6270   33.0770   52.5800 C   0  0  0  0  0  0  0  0  0  0  0  0
   50.3080   34.2850   52.4310 O   0  0  0  0  0  0  0  0  0  0  0  0
   51.0140   32.3400   51.5060 N   0  0  0  0  0  0  0  0  0  0  0  0
   51.3670   31.0320   51.6230 C   0  0  0  0  0  0  0  0  0  0  0  0
   53.6092   30.5223   51.0820 H   0  0  0  0  0  0  0  0  0  0  0  0
   55.6394   31.9647   51.0753 H   0  0  0  0  0  0  0  0  0  0  0  0
   58.8483   30.7164   50.4788 H   0  0  0  0  0  0  0  0  0  0  0  0
   57.2822   31.4658   49.9544 H   0  0  0  0  0  0  0  0  0  0  0  0
   59.3009   31.7362   48.3685 H   0  0  0  0  0  0  0  0  0  0  0  0
   58.3748   33.2215   48.8036 H   0  0  0  0  0  0  0  0  0  0  0  0
   60.5500   34.3018   47.3411 H   0  0  0  0  0  0  0  0  0  0  0  0
   62.6104   34.3914   45.9404 H   0  0  0  0  0  0  0  0  0  0  0  0
   64.6872   33.2264   46.6907 H   0  0  0  0  0  0  0  0  0  0  0  0
   64.7019   31.9646   48.8427 H   0  0  0  0  0  0  0  0  0  0  0  0
   60.9230   33.2183   51.6978 H   0  0  0  0  0  0  0  0  0  0  0  0
   60.5817   34.7790   50.8457 H   0  0  0  0  0  0  0  0  0  0  0  0
   58.8949   34.1010   52.6502 H   0  0  0  0  0  0  0  0  0  0  0  0
   58.2148   34.4716   51.0278 H   0  0  0  0  0  0  0  0  0  0  0  0
   57.2231   29.7495   54.4434 H   0  0  0  0  0  0  0  0  0  0  0  0
   55.1917   28.3038   54.4449 H   0  0  0  0  0  0  0  0  0  0  0  0
   50.9340   30.6870   54.9923 H   0  0  0  0  0  0  0  0  0  0  0  0
   50.2767   33.0835   54.7220 H   0  0  0  0  0  0  0  0  0  0  0  0
   51.6777   30.4674   50.7316 H   0  0  0  0  0  0  0  0  0  0  0  0
  1  2  2  0
  2  3  1  0
  3  4  1  0
  4  5  2  0
  5  6  1  0
  6  7  2  0
  7  8  1  0
  8  9  2  0
  8 10  1  0
 10 11  1  0
 11 12  1  0
 12 13  1  0
 13 14  1  0
 14 15  2  0
 15 16  1  0
 16 17  2  0
 17 18  1  0
 18 19  2  0
 19 20  1  0
 13 21  1  0
 21 22  1  0
  7 23  1  0
 23 24  2  0
  2 25  1  0
 25 26  1  0
 26 27  2  0
 27 28  1  0
 28 29  2  0
 28 30  1  0
 30 31  1  0
 24  4  1  0
 31 25  2  0
 22 10  1  0
 19 14  1  0
  5 32  1  0
  6 33  1  0
 11 34  1  0
 11 35  1  0
 12 36  1  0
 12 37  1  0
 15 38  1  0
 16 39  1  0
 17 40  1  0
 18 41  1  0
 21 42  1  0
 21 43  1  0
 22 44  1  0
 22 45  1  0
 23 46  1  0
 24 47  1  0
 26 48  1  0
 27 49  1  0
 31 50  1  0
M  CHG  2   3  -1  30  -1
M  END
>  <UniqueID>  (82) 
76

>  <SMILES>  (82) 
O=C([N-]c1ccc(C(=O)N2CCN(c3ccccc3F)CC2)cc1)c1ccc(=O)[n-]c1

>  <Energy>  (82) 
72.33875284752936

>  <Genealogy>  (82) 
O=C([N-]c1ccc(C(=O)N2CCN(c3ccccc3F)CC2)cc1)c1ccc(=O)[n-]c1 (protonated)
O=C([N-]c1ccc(C(=O)N2CCN(c3ccccc3F)CC2)cc1)c1ccc(=O)[n-]c1 (3D coordinates assigned)
O=C([N-]c1ccc(C(=O)N2CCN(c3ccccc3F)CC2)cc1)c1ccc(=O)[n-]c1 (nonaromatic ring conformer: 72.33875284752936 kcal/mol)

>  <smiles>  (82) 
O=C(Nc1ccc(C(=O)N2CCN(c3ccccc3F)CC2)cc1)c1ccc(=O)[nH]c1

>  <score_type>  (82) 
oracle

>  <origin>  (82) 
adg

>  <m_score__min__energy>  (82) 
-12.48

>  <m_primary>  (82) 
energy

$$$$
82:0
     RDKit          3D

 65 67  0  0  0  0  0  0  0  0999 V2000
   51.9400   28.1990   53.1330 C   0  0  0  0  0  0  0  0  0  0  0  0
   53.2010   28.9090   53.6240 C   0  0  0  0  0  0  0  0  0  0  0  0
   53.7730   29.7430   52.5390 N   0  0  0  0  0  0  0  0  0  0  0  0
   55.1620   30.1660   52.8610 C   0  0  0  0  0  0  0  0  0  0  0  0
   55.8420   30.7810   51.6280 C   0  0  0  0  0  0  0  0  0  0  0  0
   57.2230   31.3900   51.9150 C   0  0  0  0  0  0  0  0  0  0  0  0
   57.9070   31.8040   50.6900 N   0  0  0  0  0  0  0  0  0  0  0  0
   59.1420   31.2770   50.1850 C   0  0  0  0  0  0  0  0  0  0  0  0
   60.1020   31.1180   50.9830 O   0  0  0  0  0  0  0  0  0  0  0  0
   59.3190   30.8960   48.7710 C   0  0  0  0  0  0  0  0  0  0  0  0
   60.3810   30.0550   48.4050 C   0  0  0  0  0  0  0  0  0  0  0  0
   60.5650   29.6950   47.0700 C   0  0  0  0  0  0  0  0  0  0  0  0
   59.7050   30.1870   46.0850 C   0  0  0  0  0  0  0  0  0  0  0  0
   58.6640   31.0650   46.4310 C   0  0  0  0  0  0  0  0  0  0  0  0
   57.7680   31.6170   45.3960 C   0  0  0  0  0  0  0  0  0  0  0  0
   56.8850   30.8740   44.8920 O   0  0  0  0  0  0  0  0  0  0  0  0
   57.8370   32.9870   44.9800 N   0  0  0  0  0  0  0  0  0  0  0  0
   57.9380   34.1250   45.8870 C   0  0  0  0  0  0  0  0  0  0  0  0
   59.3120   34.7770   45.7420 C   0  0  0  0  0  0  0  0  0  0  0  0
   60.2090   34.3720   46.8810 C   0  0  0  0  0  0  0  0  0  0  0  0
   61.5020   33.8840   46.6260 C   0  0  0  0  0  0  0  0  0  0  0  0
   62.3160   33.4660   47.6820 C   0  0  0  0  0  0  0  0  0  0  0  0
   61.8440   33.5200   48.9960 C   0  0  0  0  0  0  0  0  0  0  0  0
   60.5550   33.9910   49.2620 C   0  0  0  0  0  0  0  0  0  0  0  0
   60.0960   34.0320   50.5770 O   0  0  0  0  0  0  0  0  0  0  0  0
   59.7360   34.4130   48.2030 C   0  0  0  0  0  0  0  0  0  0  0  0
   58.4690   31.4050   47.7780 C   0  0  0  0  0  0  0  0  0  0  0  0
   52.9190   30.9210   52.2620 C   0  0  0  0  0  0  0  0  0  0  0  0
   52.2400   30.8100   50.9140 C   0  0  0  0  0  0  0  0  0  0  0  0
   52.5150   29.7090   50.0830 C   0  0  0  0  0  0  0  0  0  0  0  0
   51.9060   29.5980   48.8290 C   0  0  0  0  0  0  0  0  0  0  0  0
   51.0160   30.5830   48.3940 C   0  0  0  0  0  0  0  0  0  0  0  0
   50.7260   31.6750   49.2150 C   0  0  0  0  0  0  0  0  0  0  0  0
   51.3290   31.7920   50.4740 C   0  0  0  0  0  0  0  0  0  0  0  0
   51.0200   32.8830   51.2770 O   0  0  0  0  0  0  0  0  0  0  0  0
   51.3471   27.8652   53.9973 H   0  0  0  0  0  0  0  0  0  0  0  0
   51.3420   28.8930   52.5241 H   0  0  0  0  0  0  0  0  0  0  0  0
   52.2233   27.3278   52.5241 H   0  0  0  0  0  0  0  0  0  0  0  0
   52.9468   29.5508   54.4804 H   0  0  0  0  0  0  0  0  0  0  0  0
   53.9428   28.1555   53.9274 H   0  0  0  0  0  0  0  0  0  0  0  0
   55.1341   30.9128   53.6681 H   0  0  0  0  0  0  0  0  0  0  0  0
   55.7362   29.2829   53.1779 H   0  0  0  0  0  0  0  0  0  0  0  0
   55.9622   29.9929   50.8701 H   0  0  0  0  0  0  0  0  0  0  0  0
   55.1965   31.6031   51.2853 H   0  0  0  0  0  0  0  0  0  0  0  0
   57.0952   32.2687   52.5642 H   0  0  0  0  0  0  0  0  0  0  0  0
   57.8383   30.6196   52.4028 H   0  0  0  0  0  0  0  0  0  0  0  0
   61.0713   29.6781   49.1741 H   0  0  0  0  0  0  0  0  0  0  0  0
   61.3894   29.0219   46.7920 H   0  0  0  0  0  0  0  0  0  0  0  0
   59.8432   29.8863   45.0360 H   0  0  0  0  0  0  0  0  0  0  0  0
   57.1568   34.8593   45.6411 H   0  0  0  0  0  0  0  0  0  0  0  0
   57.8059   33.7789   46.9227 H   0  0  0  0  0  0  0  0  0  0  0  0
   59.7660   34.4579   44.7922 H   0  0  0  0  0  0  0  0  0  0  0  0
   59.1909   35.8702   45.7551 H   0  0  0  0  0  0  0  0  0  0  0  0
   61.8743   33.8309   45.5923 H   0  0  0  0  0  0  0  0  0  0  0  0
   63.3308   33.0935   47.4784 H   0  0  0  0  0  0  0  0  0  0  0  0
   62.4890   33.1907   49.8240 H   0  0  0  0  0  0  0  0  0  0  0  0
   59.5760   33.2610   50.9810 H   0  0  0  0  0  0  0  0  0  0  0  0
   58.7189   34.7776   48.4094 H   0  0  0  0  0  0  0  0  0  0  0  0
   57.6433   32.0758   48.0576 H   0  0  0  0  0  0  0  0  0  0  0  0
   52.1496   30.9965   53.0445 H   0  0  0  0  0  0  0  0  0  0  0  0
   53.5584   31.8161   52.2534 H   0  0  0  0  0  0  0  0  0  0  0  0
   53.2138   28.9300   50.4218 H   0  0  0  0  0  0  0  0  0  0  0  0
   52.1279   28.7345   48.1847 H   0  0  0  0  0  0  0  0  0  0  0  0
   50.5434   30.4985   47.4043 H   0  0  0  0  0  0  0  0  0  0  0  0
   50.0211   32.4465   48.8715 H   0  0  0  0  0  0  0  0  0  0  0  0
  1  2  1  0
  2  3  1  0
  3  4  1  0
  4  5  1  0
  5  6  1  0
  6  7  1  0
  7  8  1  0
  8  9  2  0
  8 10  1  0
 10 11  2  0
 11 12  1  0
 12 13  2  0
 13 14  1  0
 14 15  1  0
 15 16  2  0
 15 17  1  0
 17 18  1  0
 18 19  1  0
 19 20  1  0
 20 21  2  0
 21 22  1  0
 22 23  2  0
 23 24  1  0
 24 25  1  0
 24 26  2  0
 14 27  2  0
  3 28  1  0
 28 29  1  0
 29 30  2  0
 30 31  1  0
 31 32  2  0
 32 33  1  0
 33 34  2  0
 34 35  1  0
 27 10  1  0
 34 29  1  0
 26 20  1  0
  1 36  1  0
  1 37  1  0
  1 38  1  0
  2 39  1  0
  2 40  1  0
  4 41  1  0
  4 42  1  0
  5 43  1  0
  5 44  1  0
  6 45  1  0
  6 46  1  0
 11 47  1  0
 12 48  1  0
 13 49  1  0
 18 50  1  0
 18 51  1  0
 19 52  1  0
 19 53  1  0
 21 54  1  0
 22 55  1  0
 23 56  1  0
 25 57  1  0
 26 58  1  0
 27 59  1  0
 28 60  1  0
 28 61  1  0
 30 62  1  0
 31 63  1  0
 32 64  1  0
 33 65  1  0
M  CHG  3   7  -1  17  -1  35  -1
M  END
>  <UniqueID>  (83) 
77

>  <SMILES>  (83) 
CCN(CCC[N-]C(=O)c1cccc(C(=O)[N-]CCc2cccc(O)c2)c1)Cc1ccccc1[O-]

>  <Energy>  (83) 
71.08924154270632

>  <Genealogy>  (83) 
CCN(CCC[N-]C(=O)c1cccc(C(=O)[N-]CCc2cccc(O)c2)c1)Cc1ccccc1[O-] (protonated)
CCN(CCC[N-]C(=O)c1cccc(C(=O)[N-]CCc2cccc(O)c2)c1)Cc1ccccc1[O-] (3D coordinates assigned)
CCN(CCC[N-]C(=O)c1cccc(C(=O)[N-]CCc2cccc(O)c2)c1)Cc1ccccc1[O-] (optimized conformer: 71.08924154270632 kcal/mol)

>  <smiles>  (83) 
CCN(CCCNC(=O)c1cccc(C(=O)NCCc2cccc(O)c2)c1)Cc1ccccc1O

>  <score_type>  (83) 
oracle

>  <origin>  (83) 
adg

>  <m_score__min__energy>  (83) 
-16.350000000000001

>  <m_primary>  (83) 
energy

$$$$
83:0
     RDKit          3D

 37 38  0  0  0  0  0  0  0  0999 V2000
   58.9760   34.3820   46.6710 C   0  0  0  0  0  0  0  0  0  0  0  0
   58.7280   34.5790   44.8770 S   0  0  0  0  0  0  0  0  0  0  0  0
   58.1690   32.8950   44.6540 C   0  0  0  0  0  0  0  0  0  0  0  0
   58.1930   32.0250   45.6990 N   0  0  0  0  0  0  0  0  0  0  0  0
   57.7770   30.7400   45.5480 C   0  0  0  0  0  0  0  0  0  0  0  0
   57.3070   30.2980   44.3050 C   0  0  0  0  0  0  0  0  0  0  0  0
   56.8890   28.8700   44.0990 C   0  0  0  0  0  0  0  0  0  0  0  0
   56.0940   28.4340   45.2380 N   0  0  0  0  0  0  0  0  0  0  0  0
   56.2230   27.1380   45.8280 C   0  0  0  0  0  0  0  0  0  0  0  0
   55.2250   26.3700   45.9050 O   0  0  0  0  0  0  0  0  0  0  0  0
   57.5430   26.7050   46.3810 C   0  0  0  0  0  0  0  0  0  0  0  0
   58.3600   27.8740   46.6970 N   0  0  0  0  0  0  0  0  0  0  0  0
   59.6550   27.7660   47.3070 C   0  0  0  0  0  0  0  0  0  0  0  0
   60.1920   26.6340   47.4440 O   0  0  0  0  0  0  0  0  0  0  0  0
   60.3810   28.9760   47.7520 C   0  0  0  0  0  0  0  0  0  0  0  0
   60.6180   29.1960   49.1240 C   0  0  0  0  0  0  0  0  0  0  0  0
   60.2130   28.2890   50.0510 F   0  0  0  0  0  0  0  0  0  0  0  0
   61.2990   30.3410   49.5470 C   0  0  0  0  0  0  0  0  0  0  0  0
   61.7380   31.2810   48.6140 C   0  0  0  0  0  0  0  0  0  0  0  0
   61.4980   31.0800   47.2520 C   0  0  0  0  0  0  0  0  0  0  0  0
   60.8230   29.9350   46.8180 C   0  0  0  0  0  0  0  0  0  0  0  0
   60.5650   29.7870   45.4930 F   0  0  0  0  0  0  0  0  0  0  0  0
   57.3020   31.2090   43.2410 C   0  0  0  0  0  0  0  0  0  0  0  0
   57.7260   32.4850   43.4370 N   0  0  0  0  0  0  0  0  0  0  0  0
   58.2262   34.9776   47.2124 H   0  0  0  0  0  0  0  0  0  0  0  0
   58.8671   33.3215   46.9419 H   0  0  0  0  0  0  0  0  0  0  0  0
   59.9844   34.7280   46.9419 H   0  0  0  0  0  0  0  0  0  0  0  0
   57.8095   30.0473   46.4019 H   0  0  0  0  0  0  0  0  0  0  0  0
   56.2893   28.7912   43.1802 H   0  0  0  0  0  0  0  0  0  0  0  0
   57.7815   28.2337   44.0065 H   0  0  0  0  0  0  0  0  0  0  0  0
   57.3794   26.1168   47.2960 H   0  0  0  0  0  0  0  0  0  0  0  0
   58.0648   26.0917   45.6316 H   0  0  0  0  0  0  0  0  0  0  0  0
   57.9990   28.8160   46.4260 H   0  0  0  0  0  0  0  0  0  0  0  0
   61.4894   30.5015   50.6185 H   0  0  0  0  0  0  0  0  0  0  0  0
   62.2734   32.1810   48.9508 H   0  0  0  0  0  0  0  0  0  0  0  0
   61.8412   31.8250   46.5190 H   0  0  0  0  0  0  0  0  0  0  0  0
   56.9548   30.8914   42.2467 H   0  0  0  0  0  0  0  0  0  0  0  0
  1  2  1  0
  2  3  1  0
  3  4  2  0
  4  5  1  0
  5  6  2  0
  6  7  1  0
  7  8  1  0
  8  9  1  0
  9 10  2  0
  9 11  1  0
 11 12  1  0
 12 13  1  0
 13 14  2  0
 13 15  1  0
 15 16  2  0
 16 17  1  0
 16 18  1  0
 18 19  2  0
 19 20  1  0
 20 21  2  0
 21 22  1  0
  6 23  1  0
 23 24  2  0
 24  3  1  0
 21 15  1  0
  1 25  1  0
  1 26  1  0
  1 27  1  0
  5 28  1  0
  7 29  1  0
  7 30  1  0
 11 31  1  0
 11 32  1  0
 12 33  1  0
 18 34  1  0
 19 35  1  0
 20 36  1  0
 23 37  1  0
M  CHG  1   8  -1
M  END
>  <UniqueID>  (84) 
78

>  <SMILES>  (84) 
CSc1ncc(C[N-]C(=O)CNC(=O)c2c(F)cccc2F)cn1

>  <Energy>  (84) 
33.35462775597465

>  <Genealogy>  (84) 
CSc1ncc(C[N-]C(=O)CNC(=O)c2c(F)cccc2F)cn1 (protonated)
CSc1ncc(C[N-]C(=O)CNC(=O)c2c(F)cccc2F)cn1 (3D coordinates assigned)
CSc1ncc(C[N-]C(=O)CNC(=O)c2c(F)cccc2F)cn1 (optimized conformer: 33.35462775597465 kcal/mol)

>  <smiles>  (84) 
CSc1ncc(CNC(=O)CNC(=O)c2c(F)cccc2F)cn1

>  <score_type>  (84) 
oracle

>  <origin>  (84) 
adg

>  <m_score__min__energy>  (84) 
-8.7400000000000002

>  <m_primary>  (84) 
energy

$$$$
84:0
     RDKit          3D

 49 50  0  0  0  0  0  0  0  0999 V2000
   58.0820   27.5380   47.1730 C   0  0  0  0  0  0  0  0  0  0  0  0
   59.5440   27.0930   47.2990 C   0  0  0  0  0  0  0  0  0  0  0  0
   60.0770   27.4370   48.6950 C   0  0  0  0  0  0  0  0  0  0  0  0
   60.4400   27.7280   46.2130 C   0  0  0  0  0  0  0  0  0  0  0  0
   60.0470   29.1220   45.9290 N   0  0  0  0  0  0  0  0  0  0  0  0
   60.1820   30.1900   46.9110 C   0  0  0  0  0  0  0  0  0  0  0  0
   59.1850   30.5190   47.6090 O   0  0  0  0  0  0  0  0  0  0  0  0
   61.4720   30.9390   47.1720 C   0  0  0  0  0  0  0  0  0  0  0  0
   61.3210   31.9480   48.2290 N   0  0  0  0  0  0  0  0  0  0  0  0
   61.1610   33.5510   47.5670 S   0  0  0  0  0  0  0  0  0  0  0  0
   61.1410   34.5620   48.6800 O   0  0  0  0  0  0  0  0  0  0  0  0
   62.3120   33.8340   46.6430 O   0  0  0  0  0  0  0  0  0  0  0  0
   59.6530   33.6780   46.6620 C   0  0  0  0  0  0  0  0  0  0  0  0
   59.6690   34.0610   45.3110 C   0  0  0  0  0  0  0  0  0  0  0  0
   58.4730   34.1520   44.5920 C   0  0  0  0  0  0  0  0  0  0  0  0
   57.2560   33.8570   45.2130 C   0  0  0  0  0  0  0  0  0  0  0  0
   57.2340   33.4680   46.5550 C   0  0  0  0  0  0  0  0  0  0  0  0
   58.4270   33.3740   47.2790 C   0  0  0  0  0  0  0  0  0  0  0  0
   58.3860   32.9820   48.5780 F   0  0  0  0  0  0  0  0  0  0  0  0
   59.5070   29.4050   44.5770 C   0  0  1  0  0  0  0  0  0  0  0  0
   58.9130   28.1310   43.9140 C   0  0  0  0  0  0  0  0  0  0  0  0
   57.3930   28.2270   43.7800 C   0  0  0  0  0  0  0  0  0  0  0  0
   56.9860   29.9350   43.9290 S   0  0  0  0  0  0  0  0  0  0  0  0
   56.6940   30.5410   42.5850 O   0  0  0  0  0  0  0  0  0  0  0  0
   55.8300   30.1470   44.8670 O   0  0  0  0  0  0  0  0  0  0  0  0
   58.4910   30.5630   44.6000 C   0  0  0  0  0  0  0  0  0  0  0  0
   57.6509   27.6692   48.1765 H   0  0  0  0  0  0  0  0  0  0  0  0
   58.0347   28.4912   46.6261 H   0  0  0  0  0  0  0  0  0  0  0  0
   57.5116   26.7728   46.6261 H   0  0  0  0  0  0  0  0  0  0  0  0
   59.5743   26.0033   47.1517 H   0  0  0  0  0  0  0  0  0  0  0  0
   59.4111   27.0073   49.4579 H   0  0  0  0  0  0  0  0  0  0  0  0
   61.0881   27.0206   48.8143 H   0  0  0  0  0  0  0  0  0  0  0  0
   60.1141   28.5299   48.8143 H   0  0  0  0  0  0  0  0  0  0  0  0
   61.4839   27.7153   46.5596 H   0  0  0  0  0  0  0  0  0  0  0  0
   60.3251   27.1436   45.2882 H   0  0  0  0  0  0  0  0  0  0  0  0
   62.2450   30.2184   47.4773 H   0  0  0  0  0  0  0  0  0  0  0  0
   61.7551   31.4592   46.2451 H   0  0  0  0  0  0  0  0  0  0  0  0
   60.4710   31.7440   48.8020 H   0  0  0  0  0  0  0  0  0  0  0  0
   60.6248   34.2900   44.8170 H   0  0  0  0  0  0  0  0  0  0  0  0
   58.4900   34.4565   43.5351 H   0  0  0  0  0  0  0  0  0  0  0  0
   56.3164   33.9310   44.6458 H   0  0  0  0  0  0  0  0  0  0  0  0
   56.2761   33.2352   47.0431 H   0  0  0  0  0  0  0  0  0  0  0  0
   60.3530   29.7283   43.9527 H   0  0  0  0  0  0  0  0  0  0  0  0
   59.3533   28.0103   42.9132 H   0  0  0  0  0  0  0  0  0  0  0  0
   59.1497   27.2670   44.5523 H   0  0  0  0  0  0  0  0  0  0  0  0
   57.0727   27.8439   42.7999 H   0  0  0  0  0  0  0  0  0  0  0  0
   56.8865   27.6281   44.5512 H   0  0  0  0  0  0  0  0  0  0  0  0
   58.8577   31.4005   43.9884 H   0  0  0  0  0  0  0  0  0  0  0  0
   58.3410   30.9357   45.6240 H   0  0  0  0  0  0  0  0  0  0  0  0
  1  2  1  0
  2  3  1  0
  2  4  1  0
  4  5  1  0
  5  6  1  0
  6  7  2  0
  6  8  1  0
  8  9  1  0
  9 10  1  0
 10 11  2  0
 10 12  2  0
 10 13  1  0
 13 14  2  0
 14 15  1  0
 15 16  2  0
 16 17  1  0
 17 18  2  0
 18 19  1  0
  5 20  1  0
 20 21  1  0
 21 22  1  0
 22 23  1  0
 23 24  2  0
 23 25  2  0
 23 26  1  0
 18 13  1  0
 26 20  1  0
  1 27  1  0
  1 28  1  0
  1 29  1  0
  2 30  1  0
  3 31  1  0
  3 32  1  0
  3 33  1  0
  4 34  1  0
  4 35  1  0
  8 36  1  0
  8 37  1  0
  9 38  1  0
 14 39  1  0
 15 40  1  0
 16 41  1  0
 17 42  1  0
 20 43  1  6
 21 44  1  0
 21 45  1  0
 22 46  1  0
 22 47  1  0
 26 48  1  0
 26 49  1  0
M  END
>  <UniqueID>  (85) 
79

>  <SMILES>  (85) 
CC(C)CN(C(=O)CNS(=O)(=O)c1ccccc1F)[C@H]1CCS(=O)(=O)C1

>  <Energy>  (85) 
45.11202665129929

>  <Genealogy>  (85) 
CC(C)CN(C(=O)CNS(=O)(=O)c1ccccc1F)[C@H]1CCS(=O)(=O)C1 (chirality)
CC(C)CN(C(=O)CNS(=O)(=O)c1ccccc1F)[C@H]1CCS(=O)(=O)C1 (3D coordinates assigned)
CC(C)CN(C(=O)CNS(=O)(=O)c1ccccc1F)[C@H]1CCS(=O)(=O)C1 (nonaromatic ring conformer: 45.11202665129929 kcal/mol)

>  <smiles>  (85) 
CC(C)CN(C(=O)CNS(=O)(=O)c1ccccc1F)C1CCS(=O)(=O)C1

>  <score_type>  (85) 
oracle

>  <origin>  (85) 
adg

>  <m_score__min__energy>  (85) 
-9.2899999999999991

>  <m_primary>  (85) 
energy

$$$$
85:0
     RDKit          3D

 57 60  0  0  0  0  0  0  0  0999 V2000
   53.2840   28.5690   54.2460 C   0  0  0  0  0  0  0  0  0  0  0  0
   54.2060   29.2090   53.5060 C   0  0  0  0  0  0  0  0  0  0  0  0
   54.0130   30.4170   52.8310 C   0  0  0  0  0  0  0  0  0  0  0  0
   52.8640   31.1100   52.7090 C   0  0  0  0  0  0  0  0  0  0  0  0
   52.1300   31.2680   51.4400 C   0  0  0  0  0  0  0  0  0  0  0  0
   52.2540   30.4170   50.4030 N   0  0  0  0  0  0  0  0  0  0  0  0
   51.3540   30.8780   49.5060 C   0  0  0  0  0  0  0  0  0  0  0  0
   51.1830   30.3410   48.3770 O   0  0  0  0  0  0  0  0  0  0  0  0
   50.6460   31.9510   49.9150 N   0  0  0  0  0  0  0  0  0  0  0  0
   51.1390   32.1790   51.1470 C   0  0  0  0  0  0  0  0  0  0  0  0
   50.6580   33.1690   51.9960 O   0  0  0  0  0  0  0  0  0  0  0  0
   55.2360   30.7540   52.2740 C   0  0  0  0  0  0  0  0  0  0  0  0
   56.1280   29.7560   52.6230 C   0  0  0  0  0  0  0  0  0  0  0  0
   57.5840   29.7720   52.3050 C   0  0  0  0  0  0  0  0  0  0  0  0
   58.3010   28.7950   52.6600 O   0  0  0  0  0  0  0  0  0  0  0  0
   58.2090   30.9380   51.7090 N   0  0  0  0  0  0  0  0  0  0  0  0
   58.0470   32.0910   52.6090 C   0  0  0  0  0  0  0  0  0  0  0  0
   58.4910   33.3770   51.9050 C   0  0  0  0  0  0  0  0  0  0  0  0
   59.7660   33.2180   51.1750 N   0  0  0  0  0  0  0  0  0  0  0  0
   59.7960   33.7840   49.8110 C   0  0  0  0  0  0  0  0  0  0  0  0
   58.8350   33.0970   48.8300 C   0  0  0  0  0  0  0  0  0  0  0  0
   58.8600   31.6840   49.0250 O   0  0  0  0  0  0  0  0  0  0  0  0
   58.8770   30.7440   47.9880 C   0  0  0  0  0  0  0  0  0  0  0  0
   58.9090   29.3540   48.2260 C   0  0  0  0  0  0  0  0  0  0  0  0
   58.9000   28.4540   47.1540 C   0  0  0  0  0  0  0  0  0  0  0  0
   58.8680   28.9320   45.8400 C   0  0  0  0  0  0  0  0  0  0  0  0
   58.8580   28.0610   44.8030 F   0  0  0  0  0  0  0  0  0  0  0  0
   58.8650   30.3130   45.5970 C   0  0  0  0  0  0  0  0  0  0  0  0
   58.8690   31.2110   46.6670 C   0  0  0  0  0  0  0  0  0  0  0  0
   60.5140   31.9600   51.3850 C   0  0  0  0  0  0  0  0  0  0  0  0
   59.6340   30.6850   51.3830 C   0  0  0  0  0  0  0  0  0  0  0  0
   55.4950   28.8010   53.3540 N   0  0  0  0  0  0  0  0  0  0  0  0
   56.1080   27.5690   53.8690 C   0  0  0  0  0  0  0  0  0  0  0  0
   53.5373   27.6189   54.7390 H   0  0  0  0  0  0  0  0  0  0  0  0
   52.2763   28.9955   54.3585 H   0  0  0  0  0  0  0  0  0  0  0  0
   52.4489   31.5862   53.6095 H   0  0  0  0  0  0  0  0  0  0  0  0
   55.4559   31.6460   51.6690 H   0  0  0  0  0  0  0  0  0  0  0  0
   57.7240   31.1460   50.8080 H   0  0  0  0  0  0  0  0  0  0  0  0
   56.9894   32.1811   52.8975 H   0  0  0  0  0  0  0  0  0  0  0  0
   58.6683   31.9384   53.5038 H   0  0  0  0  0  0  0  0  0  0  0  0
   57.7104   33.6734   51.1889 H   0  0  0  0  0  0  0  0  0  0  0  0
   58.6455   34.1427   52.6795 H   0  0  0  0  0  0  0  0  0  0  0  0
   59.5259   34.8486   49.8719 H   0  0  0  0  0  0  0  0  0  0  0  0
   60.8134   33.6275   49.4231 H   0  0  0  0  0  0  0  0  0  0  0  0
   57.8141   33.4694   49.0003 H   0  0  0  0  0  0  0  0  0  0  0  0
   59.1500   33.3232   47.8006 H   0  0  0  0  0  0  0  0  0  0  0  0
   58.9412   28.9757   49.2584 H   0  0  0  0  0  0  0  0  0  0  0  0
   58.9181   27.3709   47.3450 H   0  0  0  0  0  0  0  0  0  0  0  0
   58.8595   30.6894   44.5634 H   0  0  0  0  0  0  0  0  0  0  0  0
   58.8658   32.2934   46.4709 H   0  0  0  0  0  0  0  0  0  0  0  0
   61.2596   31.8648   50.5819 H   0  0  0  0  0  0  0  0  0  0  0  0
   60.9675   32.0272   52.3849 H   0  0  0  0  0  0  0  0  0  0  0  0
   59.6851   30.2304   50.3826 H   0  0  0  0  0  0  0  0  0  0  0  0
   60.0287   30.0232   52.1681 H   0  0  0  0  0  0  0  0  0  0  0  0
   56.0990   27.5870   54.9688 H   0  0  0  0  0  0  0  0  0  0  0  0
   55.5378   26.6987   53.5119 H   0  0  0  0  0  0  0  0  0  0  0  0
   57.1461   27.4989   53.5119 H   0  0  0  0  0  0  0  0  0  0  0  0
  1  2  2  0
  2  3  1  0
  3  4  2  3
  4  5  1  0
  5  6  1  0
  6  7  1  0
  7  8  2  0
  7  9  1  0
  9 10  1  0
 10 11  1  0
  3 12  1  0
 12 13  2  0
 13 14  1  0
 14 15  2  0
 14 16  1  0
 16 17  1  0
 17 18  1  0
 18 19  1  0
 19 20  1  0
 20 21  1  0
 21 22  1  0
 22 23  1  0
 23 24  2  0
 24 25  1  0
 25 26  2  0
 26 27  1  0
 26 28  1  0
 28 29  2  0
 19 30  1  0
 30 31  1  0
 13 32  1  0
 32 33  1  0
 32  2  1  0
 10  5  2  0
 31 16  1  0
 29 23  1  0
  1 34  1  0
  1 35  1  0
  4 36  1  0
 12 37  1  0
 16 38  1  0
 17 39  1  0
 17 40  1  0
 18 41  1  0
 18 42  1  0
 20 43  1  0
 20 44  1  0
 21 45  1  0
 21 46  1  0
 24 47  1  0
 25 48  1  0
 28 49  1  0
 29 50  1  0
 30 51  1  0
 30 52  1  0
 31 53  1  0
 31 54  1  0
 33 55  1  0
 33 56  1  0
 33 57  1  0
M  CHG  4   6  -1   9  -1  11  -1  16   1
M  END
>  <UniqueID>  (86) 
80

>  <SMILES>  (86) 
C=c1c(=Cc2[n-]c(=O)[n-]c2[O-])cc(C(=O)[NH+]2CCN(CCOc3ccc(F)cc3)CC2)n1C

>  <Energy>  (86) 
146.07197798985774

>  <Genealogy>  (86) 
C=c1c(=Cc2[n-]c(=O)[n-]c2[O-])cc(C(=O)[NH+]2CCN(CCOc3ccc(F)cc3)CC2)n1C (protonated)
C=c1c(=Cc2[n-]c(=O)[n-]c2[O-])cc(C(=O)[NH+]2CCN(CCOc3ccc(F)cc3)CC2)n1C (3D coordinates assigned)
C=c1c(=Cc2[n-]c(=O)[n-]c2[O-])cc(C(=O)[NH+]2CCN(CCOc3ccc(F)cc3)CC2)n1C (nonaromatic ring conformer: 146.07197798985774 kcal/mol)

>  <smiles>  (86) 
C=c1c(=Cc2[nH]c(=O)[nH]c2O)cc(C(=O)N2CCN(CCOc3ccc(F)cc3)CC2)n1C

>  <score_type>  (86) 
oracle

>  <origin>  (86) 
adg

>  <m_score__min__energy>  (86) 
-16.670000000000002

>  <m_primary>  (86) 
energy

$$$$
