0:0
     RDKit          3D

 42 45  0  0  0  0  0  0  0  0999 V2000
   59.8220   27.7270   47.2790 C   0  0  0  0  0  0  0  0  0  0  0  0
   59.1610   28.5640   46.4640 C   0  0  0  0  0  0  0  0  0  0  0  0
   58.0970   28.2420   45.6060 C   0  0  0  0  0  0  0  0  0  0  0  0
   57.6180   27.0510   45.1990 C   0  0  0  0  0  0  0  0  0  0  0  0
   57.1650   25.9630   46.0810 C   0  0  0  0  0  0  0  0  0  0  0  0
   57.9720   25.0430   46.6410 N   0  0  0  0  0  0  0  0  0  0  0  0
   57.1080   24.1910   47.2340 C   0  0  0  0  0  0  0  0  0  0  0  0
   57.4890   23.1850   47.8880 O   0  0  0  0  0  0  0  0  0  0  0  0
   55.8040   24.4940   47.0620 N   0  0  0  0  0  0  0  0  0  0  0  0
   55.8580   25.6120   46.3170 C   0  0  0  0  0  0  0  0  0  0  0  0
   54.7390   26.2950   45.8570 O   0  0  0  0  0  0  0  0  0  0  0  0
   57.5630   29.4480   45.1820 C   0  0  0  0  0  0  0  0  0  0  0  0
   58.3520   30.4460   45.7170 C   0  0  0  0  0  0  0  0  0  0  0  0
   58.1380   31.9120   45.4900 C   0  0  0  0  0  0  0  0  0  0  0  0
   59.3210   29.9130   46.4950 N   0  0  0  0  0  0  0  0  0  0  0  0
   60.3030   30.6540   47.2410 C   0  0  0  0  0  0  0  0  0  0  0  0
   59.9470   31.3060   48.4280 C   0  0  0  0  0  0  0  0  0  0  0  0
   60.9020   32.0300   49.1480 C   0  0  0  0  0  0  0  0  0  0  0  0
   62.2320   32.1150   48.6930 C   0  0  0  0  0  0  0  0  0  0  0  0
   63.2420   32.8830   49.4630 C   0  0  0  0  0  0  0  0  0  0  0  0
   64.4580   32.4680   49.5790 N   0  0  0  0  0  0  0  0  0  0  0  0
   65.3160   33.2910   50.4110 C   0  0  0  0  0  0  0  0  0  0  0  0
   64.4040   34.1310   51.2970 C   0  0  0  0  0  0  0  0  0  0  0  0
   62.8540   34.3730   50.3760 S   0  0  0  0  0  0  0  0  0  0  0  0
   62.5810   31.4540   47.5010 C   0  0  0  0  0  0  0  0  0  0  0  0
   61.6240   30.7310   46.7820 C   0  0  0  0  0  0  0  0  0  0  0  0
   60.6432   28.1042   47.9062 H   0  0  0  0  0  0  0  0  0  0  0  0
   59.5425   26.6639   47.3197 H   0  0  0  0  0  0  0  0  0  0  0  0
   57.5603   26.8762   44.1145 H   0  0  0  0  0  0  0  0  0  0  0  0
   54.3890   27.1060   46.3530 H   0  0  0  0  0  0  0  0  0  0  0  0
   56.6792   29.5841   44.5414 H   0  0  0  0  0  0  0  0  0  0  0  0
   58.0630   32.4261   46.4596 H   0  0  0  0  0  0  0  0  0  0  0  0
   58.9857   32.3227   44.9219 H   0  0  0  0  0  0  0  0  0  0  0  0
   57.2083   32.0632   44.9219 H   0  0  0  0  0  0  0  0  0  0  0  0
   58.9118   31.2483   48.7954 H   0  0  0  0  0  0  0  0  0  0  0  0
   60.6116   32.5384   50.0793 H   0  0  0  0  0  0  0  0  0  0  0  0
   65.9639   32.6544   51.0315 H   0  0  0  0  0  0  0  0  0  0  0  0
   65.9634   33.9318   49.7944 H   0  0  0  0  0  0  0  0  0  0  0  0
   64.2047   33.6047   52.2421 H   0  0  0  0  0  0  0  0  0  0  0  0
   64.8718   35.0957   51.5428 H   0  0  0  0  0  0  0  0  0  0  0  0
   63.6157   31.5064   47.1314 H   0  0  0  0  0  0  0  0  0  0  0  0
   61.9103   30.2200   45.8509 H   0  0  0  0  0  0  0  0  0  0  0  0
  1  2  2  0
  2  3  1  0
  3  4  2  3
  4  5  1  0
  5  6  1  0
  6  7  1  0
  7  8  2  0
  7  9  1  0
  9 10  1  0
 10 11  1  0
  3 12  1  0
 12 13  2  0
 13 14  1  0
 13 15  1  0
 15 16  1  0
 16 17  2  0
 17 18  1  0
 18 19  2  0
 19 20  1  0
 20 21  2  0
 21 22  1  0
 22 23  1  0
 23 24  1  0
 19 25  1  0
 25 26  2  0
 15  2  1  0
 26 16  1  0
 10  5  2  0
 24 20  1  0
  1 27  1  0
  1 28  1  0
  4 29  1  0
 11 30  1  0
 12 31  1  0
 14 32  1  0
 14 33  1  0
 14 34  1  0
 17 35  1  0
 18 36  1  0
 22 37  1  0
 22 38  1  0
 23 39  1  0
 23 40  1  0
 25 41  1  0
 26 42  1  0
M  CHG  2   6  -1   9  -1
M  END
>  <UniqueID>  (1) 
1

>  <SMILES>  (1) 
C=c1c(=Cc2[n-]c(=O)[n-]c2O)cc(C)n1-c1ccc(C2=NCCS2)cc1

>  <Energy>  (1) 
126.55587883016848

>  <Genealogy>  (1) 
C=c1c(=Cc2[n-]c(=O)[n-]c2O)cc(C)n1-c1ccc(C2=NCCS2)cc1 (protonated)
C=c1c(=Cc2[n-]c(=O)[n-]c2O)cc(C)n1-c1ccc(C2=NCCS2)cc1 (3D coordinates assigned)
C=c1c(=Cc2[n-]c(=O)[n-]c2O)cc(C)n1-c1ccc(C2=NCCS2)cc1 (nonaromatic ring conformer: 126.55587883016848 kcal/mol)

>  <smiles>  (1) 
C=c1c(=Cc2[nH]c(=O)[nH]c2O)cc(C)n1-c1ccc(C2=NCCS2)cc1

>  <score_type>  (1) 
oracle

>  <origin>  (1) 
adg

>  <m_score__min__energy>  (1) 
-12.220000000000001

>  <m_primary>  (1) 
energy

$$$$
1:0
     RDKit          3D

 64 67  0  0  0  0  0  0  0  0999 V2000
   58.2370   21.7090   44.1350 C   0  0  0  0  0  0  0  0  0  0  0  0
   56.7140   21.6030   44.1330 C   0  0  0  0  0  0  0  0  0  0  0  0
   55.9620   23.2220   44.1150 S   0  0  0  0  0  0  0  0  0  0  0  0
   55.8840   23.7120   42.6970 O   0  0  0  0  0  0  0  0  0  0  0  0
   54.5690   23.1290   44.6670 O   0  0  0  0  0  0  0  0  0  0  0  0
   56.8880   24.3540   45.0970 C   0  0  0  0  0  0  0  0  0  0  0  0
   57.7310   25.2880   44.4770 C   0  0  0  0  0  0  0  0  0  0  0  0
   58.5080   26.1640   45.2460 C   0  0  0  0  0  0  0  0  0  0  0  0
   58.4600   26.1060   46.6470 C   0  0  0  0  0  0  0  0  0  0  0  0
   59.3020   27.0380   47.4750 C   0  0  0  0  0  0  0  0  0  0  0  0
   59.0150   28.4700   47.1330 C   0  0  0  0  0  0  0  0  0  0  0  0
   58.2440   29.1490   47.8690 O   0  0  0  0  0  0  0  0  0  0  0  0
   59.5930   29.0550   45.9560 N   0  0  0  0  0  0  0  0  0  0  0  0
   58.9370   30.0590   45.1550 C   0  0  0  0  0  0  0  0  0  0  0  0
   58.0330   29.6610   44.1570 C   0  0  0  0  0  0  0  0  0  0  0  0
   57.2710   30.6090   43.4740 C   0  0  0  0  0  0  0  0  0  0  0  0
   57.4010   31.9670   43.7770 C   0  0  0  0  0  0  0  0  0  0  0  0
   58.3160   32.3800   44.7480 C   0  0  0  0  0  0  0  0  0  0  0  0
   58.4420   34.1170   45.1790 S   0  0  0  0  0  0  0  0  0  0  0  0
   58.7730   33.7600   46.9010 C   0  0  0  0  0  0  0  0  0  0  0  0
   59.8290   34.2810   47.6340 C   0  0  0  0  0  0  0  0  0  0  0  0
   59.8900   33.8490   48.9210 N   0  0  0  0  0  0  0  0  0  0  0  0
   58.8890   32.9910   49.2130 C   0  0  0  0  0  0  0  0  0  0  0  0
   58.7790   32.4470   50.3900 N   0  0  0  0  0  0  0  0  0  0  0  0
   58.5920   31.0590   50.7090 C   0  0  0  0  0  0  0  0  0  0  0  0
   57.5230   30.6430   51.2330 O   0  0  0  0  0  0  0  0  0  0  0  0
   59.6790   30.0860   50.3530 C   0  0  0  0  0  0  0  0  0  0  0  0
   61.0840   30.6050   50.7030 C   0  0  0  0  0  0  0  0  0  0  0  0
   61.7750   31.2350   49.5190 C   0  0  0  0  0  0  0  0  0  0  0  0
   62.7710   32.2090   49.7130 C   0  0  0  0  0  0  0  0  0  0  0  0
   63.3870   32.8180   48.6140 C   0  0  0  0  0  0  0  0  0  0  0  0
   63.0200   32.4550   47.3150 C   0  0  0  0  0  0  0  0  0  0  0  0
   62.0430   31.4760   47.1120 C   0  0  0  0  0  0  0  0  0  0  0  0
   61.4210   30.8680   48.2080 C   0  0  0  0  0  0  0  0  0  0  0  0
   57.8770   32.7260   47.8800 S   0  0  0  0  0  0  0  0  0  0  0  0
   59.0800   31.4300   45.4370 C   0  0  0  0  0  0  0  0  0  0  0  0
   57.5970   25.1870   47.2680 C   0  0  0  0  0  0  0  0  0  0  0  0
   56.8180   24.3150   46.4970 C   0  0  0  0  0  0  0  0  0  0  0  0
   58.6014   21.7344   45.1726 H   0  0  0  0  0  0  0  0  0  0  0  0
   58.6658   20.8385   43.6169 H   0  0  0  0  0  0  0  0  0  0  0  0
   58.5411   22.6305   43.6169 H   0  0  0  0  0  0  0  0  0  0  0  0
   56.3930   21.0470   43.2398 H   0  0  0  0  0  0  0  0  0  0  0  0
   56.3973   21.0788   45.0467 H   0  0  0  0  0  0  0  0  0  0  0  0
   57.7824   25.3329   43.3791 H   0  0  0  0  0  0  0  0  0  0  0  0
   59.1579   26.8998   44.7498 H   0  0  0  0  0  0  0  0  0  0  0  0
   59.0817   26.8715   48.5398 H   0  0  0  0  0  0  0  0  0  0  0  0
   60.3619   26.8332   47.2638 H   0  0  0  0  0  0  0  0  0  0  0  0
   60.5220   28.6950   45.6350 H   0  0  0  0  0  0  0  0  0  0  0  0
   57.9249   28.5941   43.9120 H   0  0  0  0  0  0  0  0  0  0  0  0
   56.5654   30.2865   42.6942 H   0  0  0  0  0  0  0  0  0  0  0  0
   56.7833   32.7100   43.2512 H   0  0  0  0  0  0  0  0  0  0  0  0
   60.5578   34.9864   47.2082 H   0  0  0  0  0  0  0  0  0  0  0  0
   59.5044   29.1484   50.9012 H   0  0  0  0  0  0  0  0  0  0  0  0
   59.6441   29.9355   49.2639 H   0  0  0  0  0  0  0  0  0  0  0  0
   60.9944   31.3567   51.5010 H   0  0  0  0  0  0  0  0  0  0  0  0
   61.6888   29.7449   51.0261 H   0  0  0  0  0  0  0  0  0  0  0  0
   63.0671   32.4934   50.7335 H   0  0  0  0  0  0  0  0  0  0  0  0
   64.1610   33.5834   48.7725 H   0  0  0  0  0  0  0  0  0  0  0  0
   63.5001   32.9399   46.4522 H   0  0  0  0  0  0  0  0  0  0  0  0
   61.7629   31.1833   46.0893 H   0  0  0  0  0  0  0  0  0  0  0  0
   60.6515   30.0993   48.0437 H   0  0  0  0  0  0  0  0  0  0  0  0
   59.7970   31.7579   46.2041 H   0  0  0  0  0  0  0  0  0  0  0  0
   57.5330   25.1523   48.3656 H   0  0  0  0  0  0  0  0  0  0  0  0
   56.1483   23.5963   46.9919 H   0  0  0  0  0  0  0  0  0  0  0  0
  1  2  1  0
  2  3  1  0
  3  4  2  0
  3  5  2  0
  3  6  1  0
  6  7  2  0
  7  8  1  0
  8  9  2  0
  9 10  1  0
 10 11  1  0
 11 12  2  0
 11 13  1  0
 13 14  1  0
 14 15  2  0
 15 16  1  0
 16 17  2  0
 17 18  1  0
 18 19  1  0
 19 20  1  0
 20 21  2  0
 21 22  1  0
 22 23  1  0
 23 24  2  3
 24 25  1  0
 25 26  2  0
 25 27  1  0
 27 28  1  0
 28 29  1  0
 29 30  2  0
 30 31  1  0
 31 32  2  0
 32 33  1  0
 33 34  2  0
 23 35  1  0
 18 36  2  0
  9 37  1  0
 37 38  2  0
 38  6  1  0
 36 14  1  0
 35 20  1  0
 34 29  1  0
  1 39  1  0
  1 40  1  0
  1 41  1  0
  2 42  1  0
  2 43  1  0
  7 44  1  0
  8 45  1  0
 10 46  1  0
 10 47  1  0
 13 48  1  0
 15 49  1  0
 16 50  1  0
 17 51  1  0
 21 52  1  0
 27 53  1  0
 27 54  1  0
 28 55  1  0
 28 56  1  0
 30 57  1  0
 31 58  1  0
 32 59  1  0
 33 60  1  0
 34 61  1  0
 36 62  1  0
 37 63  1  0
 38 64  1  0
M  CHG  1  22  -1
M  END
>  <UniqueID>  (2) 
2

>  <SMILES>  (2) 
CCS(=O)(=O)c1ccc(CC(=O)Nc2cccc(Sc3c[n-]c(=NC(=O)CCc4ccccc4)s3)c2)cc1

>  <Energy>  (2) 
93.17671712654224

>  <Genealogy>  (2) 
CCS(=O)(=O)c1ccc(CC(=O)Nc2cccc(Sc3c[n-]c(=NC(=O)CCc4ccccc4)s3)c2)cc1 (protonated)
CCS(=O)(=O)c1ccc(CC(=O)Nc2cccc(Sc3c[n-]c(=NC(=O)CCc4ccccc4)s3)c2)cc1 (3D coordinates assigned)
CCS(=O)(=O)c1ccc(CC(=O)Nc2cccc(Sc3c[n-]c(=NC(=O)CCc4ccccc4)s3)c2)cc1 (optimized conformer: 93.17671712654224 kcal/mol)

>  <smiles>  (2) 
CCS(=O)(=O)c1ccc(CC(=O)Nc2cccc(Sc3c[nH]c(=NC(=O)CCc4ccccc4)s3)c2)cc1

>  <score_type>  (2) 
oracle

>  <origin>  (2) 
adg

>  <m_score__min__energy>  (2) 
-10.9

>  <m_primary>  (2) 
energy

$$$$
2:0
     RDKit          3D

 58 61  0  0  0  0  0  0  0  0999 V2000
   57.7260   26.7920   47.4330 O   0  0  0  0  0  0  0  0  0  0  0  0
   58.2840   27.4590   46.5200 C   0  0  0  0  0  0  0  0  0  0  0  0
   57.6130   27.5800   45.1850 C   0  0  0  0  0  0  0  0  0  0  0  0
   57.5560   28.9920   44.7710 N   0  0  0  0  0  0  0  0  0  0  0  0
   58.7260   29.6670   44.5450 C   0  0  0  0  0  0  0  0  0  0  0  0
   58.7150   31.0080   44.1500 C   0  0  0  0  0  0  0  0  0  0  0  0
   57.5000   31.6690   43.9830 C   0  0  0  0  0  0  0  0  0  0  0  0
   57.5270   33.0210   43.6080 O   0  0  0  0  0  0  0  0  0  0  0  0
   57.3550   34.1280   44.4960 C   0  0  0  0  0  0  0  0  0  0  0  0
   58.1630   33.9410   45.7540 C   0  0  0  0  0  0  0  0  0  0  0  0
   59.4060   34.5790   45.9010 C   0  0  0  0  0  0  0  0  0  0  0  0
   60.1570   34.4000   47.0690 C   0  0  0  0  0  0  0  0  0  0  0  0
   59.6780   33.5740   48.0890 C   0  0  0  0  0  0  0  0  0  0  0  0
   58.4530   32.9180   47.9410 C   0  0  0  0  0  0  0  0  0  0  0  0
   57.6950   33.1010   46.7800 C   0  0  0  0  0  0  0  0  0  0  0  0
   56.3040   30.9630   44.1930 C   0  0  0  0  0  0  0  0  0  0  0  0
   56.3490   29.6180   44.5810 C   0  0  0  0  0  0  0  0  0  0  0  0
   55.2670   28.9920   44.7560 O   0  0  0  0  0  0  0  0  0  0  0  0
   59.5820   28.0310   46.7350 N   0  0  0  0  0  0  0  0  0  0  0  0
   60.1550   28.1650   48.0460 C   0  0  0  0  0  0  0  0  0  0  0  0
   60.3990   27.0190   48.8180 C   0  0  0  0  0  0  0  0  0  0  0  0
   60.9440   27.1370   50.1030 C   0  0  0  0  0  0  0  0  0  0  0  0
   61.2640   28.3990   50.6190 C   0  0  0  0  0  0  0  0  0  0  0  0
   61.0410   29.5550   49.8520 C   0  0  0  0  0  0  0  0  0  0  0  0
   61.4210   30.8860   50.3750 C   0  0  0  0  0  0  0  0  0  0  0  0
   61.2050   31.1350   51.5930 O   0  0  0  0  0  0  0  0  0  0  0  0
   62.0950   31.8650   49.5510 N   0  0  0  0  0  0  0  0  0  0  0  0
   62.9190   31.4070   48.4180 C   0  0  0  0  0  0  0  0  0  0  0  0
   63.5540   32.5650   47.6480 C   0  0  0  0  0  0  0  0  0  0  0  0
   64.0230   33.5600   48.5330 O   0  0  0  0  0  0  0  0  0  0  0  0
   62.9060   34.2130   49.1130 C   0  0  0  0  0  0  0  0  0  0  0  0
   62.1150   33.2600   50.0310 C   0  0  0  0  0  0  0  0  0  0  0  0
   60.5020   29.4320   48.5570 C   0  0  0  0  0  0  0  0  0  0  0  0
   60.3250   30.5410   47.7900 F   0  0  0  0  0  0  0  0  0  0  0  0
   58.1815   27.0052   44.4391 H   0  0  0  0  0  0  0  0  0  0  0  0
   56.5886   27.1865   45.2610 H   0  0  0  0  0  0  0  0  0  0  0  0
   59.6867   29.1474   44.6759 H   0  0  0  0  0  0  0  0  0  0  0  0
   59.6617   31.5390   43.9718 H   0  0  0  0  0  0  0  0  0  0  0  0
   57.6831   35.0486   43.9912 H   0  0  0  0  0  0  0  0  0  0  0  0
   56.2917   34.1966   44.7691 H   0  0  0  0  0  0  0  0  0  0  0  0
   59.7907   35.2216   45.0954 H   0  0  0  0  0  0  0  0  0  0  0  0
   61.1248   34.9100   47.1837 H   0  0  0  0  0  0  0  0  0  0  0  0
   60.2656   33.4400   49.0092 H   0  0  0  0  0  0  0  0  0  0  0  0
   58.0843   32.2566   48.7389 H   0  0  0  0  0  0  0  0  0  0  0  0
   56.7293   32.5860   46.6691 H   0  0  0  0  0  0  0  0  0  0  0  0
   55.3352   31.4648   44.0532 H   0  0  0  0  0  0  0  0  0  0  0  0
   60.1690   28.2740   45.9000 H   0  0  0  0  0  0  0  0  0  0  0  0
   60.1615   26.0244   48.4127 H   0  0  0  0  0  0  0  0  0  0  0  0
   61.1211   26.2359   50.7085 H   0  0  0  0  0  0  0  0  0  0  0  0
   61.6916   28.4856   51.6288 H   0  0  0  0  0  0  0  0  0  0  0  0
   63.7198   30.7591   48.8038 H   0  0  0  0  0  0  0  0  0  0  0  0
   62.2596   30.8663   47.7232 H   0  0  0  0  0  0  0  0  0  0  0  0
   64.3981   32.1834   47.0548 H   0  0  0  0  0  0  0  0  0  0  0  0
   62.7927   33.0096   46.9901 H   0  0  0  0  0  0  0  0  0  0  0  0
   63.2595   35.0699   49.7053 H   0  0  0  0  0  0  0  0  0  0  0  0
   62.2405   34.5477   48.3036 H   0  0  0  0  0  0  0  0  0  0  0  0
   62.5740   33.2781   51.0305 H   0  0  0  0  0  0  0  0  0  0  0  0
   61.0733   33.6132   50.0448 H   0  0  0  0  0  0  0  0  0  0  0  0
  1  2  2  0
  2  3  1  0
  3  4  1  0
  4  5  1  0
  5  6  2  0
  6  7  1  0
  7  8  1  0
  8  9  1  0
  9 10  1  0
 10 11  2  0
 11 12  1  0
 12 13  2  0
 13 14  1  0
 14 15  2  0
  7 16  2  0
 16 17  1  0
 17 18  2  0
  2 19  1  0
 19 20  1  0
 20 21  2  0
 21 22  1  0
 22 23  2  0
 23 24  1  0
 24 25  1  0
 25 26  2  0
 25 27  1  0
 27 28  1  0
 28 29  1  0
 29 30  1  0
 30 31  1  0
 31 32  1  0
 24 33  2  0
 33 34  1  0
 17  4  1  0
 33 20  1  0
 15 10  1  0
 32 27  1  0
  3 35  1  0
  3 36  1  0
  5 37  1  0
  6 38  1  0
  9 39  1  0
  9 40  1  0
 11 41  1  0
 12 42  1  0
 13 43  1  0
 14 44  1  0
 15 45  1  0
 16 46  1  0
 19 47  1  0
 21 48  1  0
 22 49  1  0
 23 50  1  0
 28 51  1  0
 28 52  1  0
 29 53  1  0
 29 54  1  0
 31 55  1  0
 31 56  1  0
 32 57  1  0
 32 58  1  0
M  END
>  <UniqueID>  (3) 
3

>  <SMILES>  (3) 
O=C(Cn1ccc(OCc2ccccc2)cc1=O)Nc1cccc(C(=O)N2CCOCC2)c1F

>  <Energy>  (3) 
77.09508273730674

>  <Genealogy>  (3) 
O=C(Cn1ccc(OCc2ccccc2)cc1=O)Nc1cccc(C(=O)N2CCOCC2)c1F (3D coordinates assigned)
O=C(Cn1ccc(OCc2ccccc2)cc1=O)Nc1cccc(C(=O)N2CCOCC2)c1F (nonaromatic ring conformer: 77.09508273730674 kcal/mol)

>  <smiles>  (3) 
O=C(Cn1ccc(OCc2ccccc2)cc1=O)Nc1cccc(C(=O)N2CCOCC2)c1F

>  <score_type>  (3) 
oracle

>  <origin>  (3) 
adg

>  <m_score__min__energy>  (3) 
-9.9499999999999993

>  <m_primary>  (3) 
energy

$$$$
3:0
     RDKit          3D

 61 63  0  0  0  0  0  0  0  0999 V2000
   60.1766   35.1787   49.3112 H   0  0  0  0  0  0  0  0  0  0  0  0
   59.7470   34.5780   48.4960 C   0  0  0  0  0  0  0  0  0  0  0  0
   58.9950   33.4390   48.7900 C   0  0  0  0  0  0  0  0  0  0  0  0
   58.8342   33.1423   49.8370 H   0  0  0  0  0  0  0  0  0  0  0  0
   58.4460   32.6750   47.7560 C   0  0  0  0  0  0  0  0  0  0  0  0
   57.8540   31.7787   47.9929 H   0  0  0  0  0  0  0  0  0  0  0  0
   58.6470   33.0470   46.4120 C   0  0  0  0  0  0  0  0  0  0  0  0
   58.0610   32.2430   45.3180 C   0  0  0  0  0  0  0  0  0  0  0  0
   57.4650   31.0460   45.5160 N   0  0  0  0  0  0  0  0  0  0  0  0
   57.0700   30.6720   44.2880 C   0  0  0  0  0  0  0  0  0  0  0  0
   56.3930   29.3730   43.9950 C   0  0  0  0  0  0  0  0  0  0  0  0
   57.0976   28.6990   43.4858 H   0  0  0  0  0  0  0  0  0  0  0  0
   55.5225   29.5515   43.3467 H   0  0  0  0  0  0  0  0  0  0  0  0
   55.9520   28.7620   45.2430 N   0  0  0  0  0  0  0  0  0  0  0  0
   56.2880   27.5660   45.6230 C   0  0  0  0  0  0  0  0  0  0  0  0
   55.3270   26.6270   45.7980 N   0  0  0  0  0  0  0  0  0  0  0  0
   55.6610   25.3630   46.1800 C   0  0  0  0  0  0  0  0  0  0  0  0
   54.7490   24.4540   46.3480 N   0  0  0  0  0  0  0  0  0  0  0  0
   53.7820   24.0680   45.3270 C   0  0  0  0  0  0  0  0  0  0  0  0
   52.8645   23.7018   45.8108 H   0  0  0  0  0  0  0  0  0  0  0  0
   53.5431   24.9397   44.7000 H   0  0  0  0  0  0  0  0  0  0  0  0
   54.2090   23.2714   44.7000 H   0  0  0  0  0  0  0  0  0  0  0  0
   56.9650   25.0460   46.3820 N   0  0  0  0  0  0  0  0  0  0  0  0
   57.9340   25.9790   46.2070 C   0  0  0  0  0  0  0  0  0  0  0  0
   59.1770   25.6510   46.4000 N   0  0  0  0  0  0  0  0  0  0  0  0
   60.2510   26.5850   46.7410 C   0  0  0  0  0  0  0  0  0  0  0  0
   60.4191   27.2653   45.8931 H   0  0  0  0  0  0  0  0  0  0  0  0
   61.1621   26.0081   46.9579 H   0  0  0  0  0  0  0  0  0  0  0  0
   59.8870   27.4100   47.9820 C   0  0  0  0  0  0  0  0  0  0  0  0
   60.8083   27.6771   48.5204 H   0  0  0  0  0  0  0  0  0  0  0  0
   59.2285   26.8075   48.6250 H   0  0  0  0  0  0  0  0  0  0  0  0
   59.1420   28.7010   47.5830 C   0  0  0  0  0  0  0  0  0  0  0  0
   58.6757   29.1155   48.4890 H   0  0  0  0  0  0  0  0  0  0  0  0
   58.4223   28.4032   46.8063 H   0  0  0  0  0  0  0  0  0  0  0  0
   59.9810   29.7700   46.9700 N   0  0  0  0  0  0  0  0  0  0  0  0
   59.2570   30.4550   46.6370 H   0  0  0  0  0  0  0  0  0  0  0  0
   60.6710   29.4040   45.7000 C   0  0  0  0  0  0  0  0  0  0  0  0
   61.3919   28.6044   45.9257 H   0  0  0  0  0  0  0  0  0  0  0  0
   61.1335   30.3319   45.3326 H   0  0  0  0  0  0  0  0  0  0  0  0
   59.7630   28.9130   44.5660 C   0  0  0  0  0  0  0  0  0  0  0  0
   58.8713   28.4308   44.9930 H   0  0  0  0  0  0  0  0  0  0  0  0
   59.4560   29.7680   43.9458 H   0  0  0  0  0  0  0  0  0  0  0  0
   60.3104   28.1880   43.9458 H   0  0  0  0  0  0  0  0  0  0  0  0
   60.7760   30.5980   47.9210 C   0  0  0  0  0  0  0  0  0  0  0  0
   60.0876   31.3013   48.4125 H   0  0  0  0  0  0  0  0  0  0  0  0
   61.2550   29.8850   48.6081 H   0  0  0  0  0  0  0  0  0  0  0  0
   61.9210   31.4140   47.3040 C   0  0  0  0  0  0  0  0  0  0  0  0
   62.5338   31.8507   48.1063 H   0  0  0  0  0  0  0  0  0  0  0  0
   62.5460   30.7565   46.6818 H   0  0  0  0  0  0  0  0  0  0  0  0
   61.5035   32.2193   46.6818 H   0  0  0  0  0  0  0  0  0  0  0  0
   57.5920   27.2410   45.8320 N   0  0  0  0  0  0  0  0  0  0  0  0
   57.4530   31.6300   43.3770 C   0  0  0  0  0  0  0  0  0  0  0  0
   57.1940   31.6220   41.9050 C   0  0  0  0  0  0  0  0  0  0  0  0
   56.1096   31.5885   41.7237 H   0  0  0  0  0  0  0  0  0  0  0  0
   57.6132   32.5335   41.4540 H   0  0  0  0  0  0  0  0  0  0  0  0
   57.6686   30.7381   41.4540 H   0  0  0  0  0  0  0  0  0  0  0  0
   58.0700   32.6350   44.0230 N   0  0  0  0  0  0  0  0  0  0  0  0
   59.4060   34.1960   46.1280 C   0  0  0  0  0  0  0  0  0  0  0  0
   59.5696   34.4994   45.0834 H   0  0  0  0  0  0  0  0  0  0  0  0
   59.9540   34.9550   47.1670 C   0  0  0  0  0  0  0  0  0  0  0  0
   60.5494   35.8509   46.9371 H   0  0  0  0  0  0  0  0  0  0  0  0
  1  2  1  0
  2  3  2  0
  3  4  1  0
  3  5  1  0
  5  6  1  0
  5  7  2  0
  7  8  1  0
  8  9  2  0
  9 10  1  0
 10 11  1  0
 11 12  1  0
 11 13  1  0
 11 14  1  0
 14 15  2  3
 15 16  1  0
 16 17  1  0
 17 18  2  0
 18 19  1  0
 19 20  1  0
 19 21  1  0
 19 22  1  0
 17 23  1  0
 23 24  1  0
 24 25  2  0
 25 26  1  0
 26 27  1  0
 26 28  1  0
 26 29  1  0
 29 30  1  0
 29 31  1  0
 29 32  1  0
 32 33  1  0
 32 34  1  0
 32 35  1  0
 35 36  1  0
 35 37  1  0
 37 38  1  0
 37 39  1  0
 37 40  1  0
 40 41  1  0
 40 42  1  0
 40 43  1  0
 35 44  1  0
 44 45  1  0
 44 46  1  0
 44 47  1  0
 47 48  1  0
 47 49  1  0
 47 50  1  0
 24 51  1  0
 10 52  2  0
 52 53  1  0
 53 54  1  0
 53 55  1  0
 53 56  1  0
 52 57  1  0
  7 58  1  0
 58 59  1  0
 58 60  2  0
 60 61  1  0
 60  2  1  0
 57  8  1  0
 51 15  1  0
M  CHG  5  16  -1  23  -1  35   1  51  -1  57  -1
M  END
>  <UniqueID>  (4) 
4

>  <SMILES>  (4) 
CC[NH+](CC)CCC/N=c1\[n-]c(=NCc2nc(-c3ccccc3)[n-]c2C)[n-]/c(=N\C)[n-]1

>  <Energy>  (4) 
95.80042651068669

>  <Genealogy>  (4) 
CC[NH+](CC)CCCN=c1[n-]c(=NC)[n-]c(=NCc2nc(-c3ccccc3)[n-]c2C)[n-]1 (protonated)
CC[NH+](CC)CCC/N=c1\[n-]c(=NCc2nc(-c3ccccc3)[n-]c2C)[n-]/c(=N\C)[n-]1 (cis-trans isomerization)
CC[NH+](CC)CCC/N=c1\[n-]c(=NCc2nc(-c3ccccc3)[n-]c2C)[n-]/c(=N\C)[n-]1 (3D coordinates assigned)
CC[NH+](CC)CCC/N=c1\[n-]c(=NCc2nc(-c3ccccc3)[n-]c2C)[n-]/c(=N\C)[n-]1 (optimized conformer: 95.80042651068669 kcal/mol)

>  <smiles>  (4) 
CCN(CC)CCCN=c1[nH]c(=NC)[nH]c(=NCc2nc(-c3ccccc3)[nH]c2C)[nH]1

>  <score_type>  (4) 
oracle

>  <origin>  (4) 
adg

>  <m_score__min__energy>  (4) 
-13.050000000000001

>  <m_primary>  (4) 
energy

$$$$
4:0
     RDKit          3D

 57 59  0  0  0  0  0  0  0  0999 V2000
   50.4290   32.4420   53.4520 C   0  0  0  0  0  0  0  0  0  0  0  0
   50.3900   32.7140   52.0210 N   0  0  0  0  0  0  0  0  0  0  0  0
   51.0710   31.9450   51.0130 C   0  0  0  0  0  0  0  0  0  0  0  0
   51.4080   32.5130   49.9380 O   0  0  0  0  0  0  0  0  0  0  0  0
   51.4060   30.4900   51.2010 C   0  0  0  0  0  0  0  0  0  0  0  0
   52.7440   30.3470   51.8730 C   0  0  0  0  0  0  0  0  0  0  0  0
   53.8190   31.1690   51.5010 C   0  0  0  0  0  0  0  0  0  0  0  0
   55.0630   31.0250   52.1190 C   0  0  0  0  0  0  0  0  0  0  0  0
   55.2480   30.0700   53.1290 C   0  0  0  0  0  0  0  0  0  0  0  0
   56.5980   29.8730   53.7610 C   0  0  0  0  0  0  0  0  0  0  0  0
   57.6140   30.4550   52.8980 N   0  0  0  0  0  0  0  0  0  0  0  0
   58.2790   29.7510   51.8470 C   0  0  0  0  0  0  0  0  0  0  0  0
   59.1040   28.8360   52.1090 O   0  0  0  0  0  0  0  0  0  0  0  0
   58.0370   30.1180   50.4880 N   0  0  0  0  0  0  0  0  0  0  0  0
   59.1050   30.5480   49.6400 C   0  0  0  0  0  0  0  0  0  0  0  0
   59.2350   31.9060   49.3300 C   0  0  0  0  0  0  0  0  0  0  0  0
   60.1960   32.3320   48.4000 C   0  0  0  0  0  0  0  0  0  0  0  0
   60.2520   34.0200   47.8890 S   0  0  0  0  0  0  0  0  0  0  0  0
   61.5060   34.2530   47.0910 O   0  0  0  0  0  0  0  0  0  0  0  0
   60.3010   34.9050   49.1030 O   0  0  0  0  0  0  0  0  0  0  0  0
   58.8610   34.4350   46.9090 N   0  0  0  0  0  0  0  0  0  0  0  0
   57.9050   33.3060   46.8610 C   0  0  0  0  0  0  0  0  0  0  0  0
   56.9250   33.4470   45.6900 C   0  0  0  0  0  0  0  0  0  0  0  0
   57.6660   33.4300   44.3400 C   0  0  0  0  0  0  0  0  0  0  0  0
   59.1180   33.9250   44.4540 C   0  0  0  0  0  0  0  0  0  0  0  0
   59.2650   34.9620   45.5790 C   0  0  0  0  0  0  0  0  0  0  0  0
   61.0680   31.3930   47.8280 C   0  0  0  0  0  0  0  0  0  0  0  0
   60.9580   30.0400   48.1540 C   0  0  0  0  0  0  0  0  0  0  0  0
   59.9690   29.6090   49.0500 C   0  0  0  0  0  0  0  0  0  0  0  0
   59.8390   28.2540   49.3550 O   0  0  0  0  0  0  0  0  0  0  0  0
   54.1640   29.2710   53.5230 C   0  0  0  0  0  0  0  0  0  0  0  0
   52.9210   29.4100   52.9000 C   0  0  0  0  0  0  0  0  0  0  0  0
   50.2943   33.3817   54.0077 H   0  0  0  0  0  0  0  0  0  0  0  0
   49.6220   31.7420   53.7143 H   0  0  0  0  0  0  0  0  0  0  0  0
   51.4001   31.9969   53.7143 H   0  0  0  0  0  0  0  0  0  0  0  0
   50.6336   30.0171   51.8253 H   0  0  0  0  0  0  0  0  0  0  0  0
   51.4450   30.0008   50.2165 H   0  0  0  0  0  0  0  0  0  0  0  0
   53.6810   31.9302   50.7190 H   0  0  0  0  0  0  0  0  0  0  0  0
   55.9032   31.6649   51.8115 H   0  0  0  0  0  0  0  0  0  0  0  0
   56.6211   30.3674   54.7433 H   0  0  0  0  0  0  0  0  0  0  0  0
   56.7934   28.7986   53.8931 H   0  0  0  0  0  0  0  0  0  0  0  0
   58.5807   32.6437   49.8176 H   0  0  0  0  0  0  0  0  0  0  0  0
   58.4665   32.3672   46.7458 H   0  0  0  0  0  0  0  0  0  0  0  0
   57.3262   33.3046   47.7964 H   0  0  0  0  0  0  0  0  0  0  0  0
   56.2100   32.6115   45.7176 H   0  0  0  0  0  0  0  0  0  0  0  0
   56.4006   34.4090   45.7879 H   0  0  0  0  0  0  0  0  0  0  0  0
   57.6746   32.3992   43.9562 H   0  0  0  0  0  0  0  0  0  0  0  0
   57.1345   34.1124   43.6604 H   0  0  0  0  0  0  0  0  0  0  0  0
   59.7735   33.0680   44.6681 H   0  0  0  0  0  0  0  0  0  0  0  0
   59.3996   34.4006   43.5029 H   0  0  0  0  0  0  0  0  0  0  0  0
   60.3179   35.2762   45.6312 H   0  0  0  0  0  0  0  0  0  0  0  0
   58.5976   35.8034   45.3411 H   0  0  0  0  0  0  0  0  0  0  0  0
   61.8416   31.7245   47.1197 H   0  0  0  0  0  0  0  0  0  0  0  0
   61.6489   29.3101   47.7069 H   0  0  0  0  0  0  0  0  0  0  0  0
   59.3170   27.9400   50.1640 H   0  0  0  0  0  0  0  0  0  0  0  0
   54.2934   28.5312   54.3267 H   0  0  0  0  0  0  0  0  0  0  0  0
   52.0767   28.7804   53.2174 H   0  0  0  0  0  0  0  0  0  0  0  0
  1  2  1  0
  2  3  1  0
  3  4  2  0
  3  5  1  0
  5  6  1  0
  6  7  2  0
  7  8  1  0
  8  9  2  0
  9 10  1  0
 10 11  1  0
 11 12  1  0
 12 13  2  0
 12 14  1  0
 14 15  1  0
 15 16  2  0
 16 17  1  0
 17 18  1  0
 18 19  2  0
 18 20  2  0
 18 21  1  0
 21 22  1  0
 22 23  1  0
 23 24  1  0
 24 25  1  0
 25 26  1  0
 17 27  2  0
 27 28  1  0
 28 29  2  0
 29 30  1  0
  9 31  1  0
 31 32  2  0
 32  6  1  0
 29 15  1  0
 26 21  1  0
  1 33  1  0
  1 34  1  0
  1 35  1  0
  5 36  1  0
  5 37  1  0
  7 38  1  0
  8 39  1  0
 10 40  1  0
 10 41  1  0
 16 42  1  0
 22 43  1  0
 22 44  1  0
 23 45  1  0
 23 46  1  0
 24 47  1  0
 24 48  1  0
 25 49  1  0
 25 50  1  0
 26 51  1  0
 26 52  1  0
 27 53  1  0
 28 54  1  0
 30 55  1  0
 31 56  1  0
 32 57  1  0
M  CHG  3   2  -1  11  -1  14  -1
M  END
>  <UniqueID>  (5) 
5

>  <SMILES>  (5) 
C[N-]C(=O)Cc1ccc(C[N-]C(=O)[N-]c2cc(S(=O)(=O)N3CCCCC3)ccc2O)cc1

>  <Energy>  (5) 
59.2956054474422

>  <Genealogy>  (5) 
C[N-]C(=O)Cc1ccc(C[N-]C(=O)[N-]c2cc(S(=O)(=O)N3CCCCC3)ccc2O)cc1 (protonated)
C[N-]C(=O)Cc1ccc(C[N-]C(=O)[N-]c2cc(S(=O)(=O)N3CCCCC3)ccc2O)cc1 (3D coordinates assigned)
C[N-]C(=O)Cc1ccc(C[N-]C(=O)[N-]c2cc(S(=O)(=O)N3CCCCC3)ccc2O)cc1 (nonaromatic ring conformer: 59.2956054474422 kcal/mol)

>  <smiles>  (5) 
CNC(=O)Cc1ccc(CNC(=O)Nc2cc(S(=O)(=O)N3CCCCC3)ccc2O)cc1

>  <score_type>  (5) 
oracle

>  <origin>  (5) 
adg

>  <m_score__min__energy>  (5) 
-13.92

>  <m_primary>  (5) 
energy

$$$$
5:0
     RDKit          3D

 27 28  0  0  0  0  0  0  0  0999 V2000
   55.1790   29.3400   44.8840 N   0  0  0  0  0  0  0  0  0  0  0  0
   56.8370   29.7390   44.5950 S   0  0  0  0  0  0  0  0  0  0  0  0
   57.0290   29.9660   43.1220 O   0  0  0  0  0  0  0  0  0  0  0  0
   57.1680   30.9980   45.3470 O   0  0  0  0  0  0  0  0  0  0  0  0
   57.9050   28.4340   45.1290 C   0  0  0  0  0  0  0  0  0  0  0  0
   57.5020   27.0980   44.9710 C   0  0  0  0  0  0  0  0  0  0  0  0
   58.3330   26.0390   45.3810 C   0  0  0  0  0  0  0  0  0  0  0  0
   57.9070   24.6240   45.2210 C   0  0  0  0  0  0  0  0  0  0  0  0
   58.7780   23.7140   45.1550 O   0  0  0  0  0  0  0  0  0  0  0  0
   56.4800   24.2440   45.1180 C   0  0  0  0  0  0  0  0  0  0  0  0
   56.0430   23.2540   44.2140 C   0  0  0  0  0  0  0  0  0  0  0  0
   56.9330   22.5410   43.4100 O   0  0  0  0  0  0  0  0  0  0  0  0
   54.7190   22.9610   44.1290 N   0  0  0  0  0  0  0  0  0  0  0  0
   53.8020   23.5970   44.9000 C   0  0  0  0  0  0  0  0  0  0  0  0
   52.5830   23.3030   44.8010 O   0  0  0  0  0  0  0  0  0  0  0  0
   54.1980   24.5510   45.7780 N   0  0  0  0  0  0  0  0  0  0  0  0
   55.5070   24.8900   45.9030 C   0  0  0  0  0  0  0  0  0  0  0  0
   55.8330   25.7960   46.7180 O   0  0  0  0  0  0  0  0  0  0  0  0
   59.5740   26.3380   45.9670 C   0  0  0  0  0  0  0  0  0  0  0  0
   59.9830   27.6620   46.1240 C   0  0  0  0  0  0  0  0  0  0  0  0
   59.1610   28.7130   45.7060 C   0  0  0  0  0  0  0  0  0  0  0  0
   59.7410   30.3600   45.9220 Cl  0  0  0  0  0  0  0  0  0  0  0  0
   55.1650   28.6130   45.6330 H   0  0  0  0  0  0  0  0  0  0  0  0
   56.5233   26.8763   44.5205 H   0  0  0  0  0  0  0  0  0  0  0  0
   57.9140   22.4330   43.6350 H   0  0  0  0  0  0  0  0  0  0  0  0
   60.2287   25.5211   46.3049 H   0  0  0  0  0  0  0  0  0  0  0  0
   60.9597   27.8811   46.5801 H   0  0  0  0  0  0  0  0  0  0  0  0
  1  2  1  0
  2  3  2  0
  2  4  2  0
  2  5  1  0
  5  6  2  0
  6  7  1  0
  7  8  1  0
  8  9  2  0
  8 10  1  0
 10 11  2  0
 11 12  1  0
 11 13  1  0
 13 14  1  0
 14 15  2  0
 14 16  1  0
 16 17  1  0
 17 18  2  0
  7 19  2  0
 19 20  1  0
 20 21  2  0
 21 22  1  0
 21  5  1  0
 17 10  1  0
  1 23  1  0
  6 24  1  0
 12 25  1  0
 19 26  1  0
 20 27  1  0
M  CHG  3   1  -1  13  -1  16  -1
M  END
>  <UniqueID>  (6) 
6

>  <SMILES>  (6) 
[NH-]S(=O)(=O)c1cc(C(=O)c2c(O)[n-]c(=O)[n-]c2=O)ccc1Cl

>  <Energy>  (6) 
40.222418588046054

>  <Genealogy>  (6) 
[NH-]S(=O)(=O)c1cc(C(=O)c2c(O)[n-]c(=O)[n-]c2=O)ccc1Cl (protonated)
[NH-]S(=O)(=O)c1cc(C(=O)c2c(O)[n-]c(=O)[n-]c2=O)ccc1Cl (3D coordinates assigned)
[NH-]S(=O)(=O)c1cc(C(=O)c2c(O)[n-]c(=O)[n-]c2=O)ccc1Cl (optimized conformer: 40.222418588046054 kcal/mol)

>  <smiles>  (6) 
NS(=O)(=O)c1cc(C(=O)c2c(O)[nH]c(=O)[nH]c2=O)ccc1Cl

>  <score_type>  (6) 
oracle

>  <origin>  (6) 
adg

>  <m_score__min__energy>  (6) 
-14.49

>  <m_primary>  (6) 
energy

$$$$
6:0
     RDKit          3D

 69 73  0  0  0  0  0  0  0  0999 V2000
   56.4420   29.5180   42.7910 N   0  0  0  0  0  0  0  0  0  0  0  0
   56.3350   29.3480   44.2050 C   0  0  0  0  0  0  0  0  0  0  0  0
   55.2210   29.5590   44.7590 O   0  0  0  0  0  0  0  0  0  0  0  0
   57.5030   28.9500   45.0300 C   0  0  0  0  0  0  0  0  0  0  0  0
   57.6860   27.6150   45.4400 C   0  0  0  0  0  0  0  0  0  0  0  0
   58.7990   27.2540   46.2050 C   0  0  0  0  0  0  0  0  0  0  0  0
   59.7370   28.2180   46.5820 C   0  0  0  0  0  0  0  0  0  0  0  0
   59.5590   29.5580   46.2070 C   0  0  0  0  0  0  0  0  0  0  0  0
   60.5880   30.5940   46.5740 C   0  0  0  0  0  0  0  0  0  0  0  0
   59.9920   32.0000   46.4790 C   0  0  0  0  0  0  0  0  0  0  0  0
   59.7210   32.5630   47.8490 C   0  0  0  0  0  0  0  0  0  0  0  0
   59.9550   33.9120   48.1170 C   0  0  0  0  0  0  0  0  0  0  0  0
   59.7140   34.4120   49.3550 N   0  0  0  0  0  0  0  0  0  0  0  0
   59.2500   33.6530   50.3860 C   0  0  0  0  0  0  0  0  0  0  0  0
   58.9920   32.2710   50.1620 C   0  0  0  0  0  0  0  0  0  0  0  0
   59.2140   31.7540   48.8720 C   0  0  0  0  0  0  0  0  0  0  0  0
   58.4900   31.3280   51.1920 C   0  0  0  0  0  0  0  0  0  0  0  0
   57.7870   30.3500   50.8120 O   0  0  0  0  0  0  0  0  0  0  0  0
   58.8440   31.4490   52.5860 N   0  0  0  0  0  0  0  0  0  0  0  0
   59.4970   30.3360   53.2910 C   0  0  0  0  0  0  0  0  0  0  0  0
   60.9820   30.5730   53.3970 C   0  0  0  0  0  0  0  0  0  0  0  0
   61.5960   30.6590   54.6540 C   0  0  0  0  0  0  0  0  0  0  0  0
   62.9700   30.9000   54.7510 C   0  0  0  0  0  0  0  0  0  0  0  0
   63.7390   31.0610   53.5960 C   0  0  0  0  0  0  0  0  0  0  0  0
   63.1420   30.9700   52.3300 C   0  0  0  0  0  0  0  0  0  0  0  0
   63.9460   31.1570   51.1030 C   0  0  0  0  0  0  0  0  0  0  0  0
   64.8680   30.3320   50.8470 O   0  0  0  0  0  0  0  0  0  0  0  0
   63.6830   32.2390   50.1870 N   0  0  0  0  0  0  0  0  0  0  0  0
   63.4390   33.5920   50.7030 C   0  0  0  0  0  0  0  0  0  0  0  0
   62.7170   34.4460   49.6490 C   0  0  0  0  0  0  0  0  0  0  0  0
   63.3680   34.3740   48.3940 O   0  0  0  0  0  0  0  0  0  0  0  0
   63.3190   33.0490   47.9050 C   0  0  0  0  0  0  0  0  0  0  0  0
   64.1380   32.1180   48.8000 C   0  0  0  0  0  0  0  0  0  0  0  0
   61.7590   30.7420   52.2380 C   0  0  0  0  0  0  0  0  0  0  0  0
   58.4540   32.6380   53.3450 C   0  0  0  0  0  0  0  0  0  0  0  0
   59.3700   33.7960   52.9690 C   0  0  0  0  0  0  0  0  0  0  0  0
   59.0370   34.3180   51.6480 N   0  0  0  0  0  0  0  0  0  0  0  0
   58.4460   29.9180   45.4290 C   0  0  0  0  0  0  0  0  0  0  0  0
   57.3650   29.5280   42.3060 H   0  0  0  0  0  0  0  0  0  0  0  0
   55.5870   29.7120   42.2220 H   0  0  0  0  0  0  0  0  0  0  0  0
   56.9476   26.8507   45.1561 H   0  0  0  0  0  0  0  0  0  0  0  0
   58.9367   26.2065   46.5113 H   0  0  0  0  0  0  0  0  0  0  0  0
   60.6169   27.9258   47.1740 H   0  0  0  0  0  0  0  0  0  0  0  0
   60.9303   30.4150   47.6040 H   0  0  0  0  0  0  0  0  0  0  0  0
   61.4334   30.5185   45.8743 H   0  0  0  0  0  0  0  0  0  0  0  0
   60.7009   32.6568   45.9536 H   0  0  0  0  0  0  0  0  0  0  0  0
   59.0413   31.9420   45.9287 H   0  0  0  0  0  0  0  0  0  0  0  0
   60.3356   34.5715   47.3231 H   0  0  0  0  0  0  0  0  0  0  0  0
   58.9855   30.6981   48.6648 H   0  0  0  0  0  0  0  0  0  0  0  0
   59.0718   30.2492   54.3018 H   0  0  0  0  0  0  0  0  0  0  0  0
   59.3256   29.4085   52.7250 H   0  0  0  0  0  0  0  0  0  0  0  0
   60.9951   30.5365   55.5672 H   0  0  0  0  0  0  0  0  0  0  0  0
   63.4469   30.9630   55.7402 H   0  0  0  0  0  0  0  0  0  0  0  0
   64.8176   31.2600   53.6797 H   0  0  0  0  0  0  0  0  0  0  0  0
   62.8152   33.5281   51.6068 H   0  0  0  0  0  0  0  0  0  0  0  0
   64.4044   34.0618   50.9421 H   0  0  0  0  0  0  0  0  0  0  0  0
   61.6849   34.0818   49.5386 H   0  0  0  0  0  0  0  0  0  0  0  0
   62.7265   35.4933   49.9852 H   0  0  0  0  0  0  0  0  0  0  0  0
   62.2734   32.7077   47.8880 H   0  0  0  0  0  0  0  0  0  0  0  0
   63.7408   33.0285   46.8893 H   0  0  0  0  0  0  0  0  0  0  0  0
   64.0087   31.0792   48.4622 H   0  0  0  0  0  0  0  0  0  0  0  0
   65.2004   32.3969   48.7398 H   0  0  0  0  0  0  0  0  0  0  0  0
   61.2794   30.6953   51.2492 H   0  0  0  0  0  0  0  0  0  0  0  0
   57.4126   32.9007   53.1075 H   0  0  0  0  0  0  0  0  0  0  0  0
   58.5408   32.4333   54.4223 H   0  0  0  0  0  0  0  0  0  0  0  0
   59.2579   34.5993   53.7120 H   0  0  0  0  0  0  0  0  0  0  0  0
   60.4074   33.4306   52.9503 H   0  0  0  0  0  0  0  0  0  0  0  0
   58.7390   35.3200   51.6100 H   0  0  0  0  0  0  0  0  0  0  0  0
   58.3092   30.9671   45.1280 H   0  0  0  0  0  0  0  0  0  0  0  0
  1  2  1  0
  2  3  2  0
  2  4  1  0
  4  5  2  0
  5  6  1  0
  6  7  2  0
  7  8  1  0
  8  9  1  0
  9 10  1  0
 10 11  1  0
 11 12  2  0
 12 13  1  0
 13 14  2  0
 14 15  1  0
 15 16  2  0
 15 17  1  0
 17 18  2  0
 17 19  1  0
 19 20  1  0
 20 21  1  0
 21 22  2  0
 22 23  1  0
 23 24  2  0
 24 25  1  0
 25 26  1  0
 26 27  2  0
 26 28  1  0
 28 29  1  0
 29 30  1  0
 30 31  1  0
 31 32  1  0
 32 33  1  0
 25 34  2  0
 19 35  1  0
 35 36  1  0
 36 37  1  0
  8 38  2  0
 38  4  1  0
 16 11  1  0
 34 21  1  0
 37 14  1  0
 33 28  1  0
  1 39  1  0
  1 40  1  0
  5 41  1  0
  6 42  1  0
  7 43  1  0
  9 44  1  0
  9 45  1  0
 10 46  1  0
 10 47  1  0
 12 48  1  0
 16 49  1  0
 20 50  1  0
 20 51  1  0
 22 52  1  0
 23 53  1  0
 24 54  1  0
 29 55  1  0
 29 56  1  0
 30 57  1  0
 30 58  1  0
 32 59  1  0
 32 60  1  0
 33 61  1  0
 33 62  1  0
 34 63  1  0
 35 64  1  0
 35 65  1  0
 36 66  1  0
 36 67  1  0
 37 68  1  0
 38 69  1  0
M  END
>  <UniqueID>  (7) 
7

>  <SMILES>  (7) 
NC(=O)c1cccc(CCc2cnc3c(c2)C(=O)N(Cc2cccc(C(=O)N4CCOCC4)c2)CCN3)c1

>  <Energy>  (7) 
87.40277317330832

>  <Genealogy>  (7) 
NC(=O)c1cccc(CCc2cnc3c(c2)C(=O)N(Cc2cccc(C(=O)N4CCOCC4)c2)CCN3)c1 (3D coordinates assigned)
NC(=O)c1cccc(CCc2cnc3c(c2)C(=O)N(Cc2cccc(C(=O)N4CCOCC4)c2)CCN3)c1 (nonaromatic ring conformer: 87.40277317330832 kcal/mol)

>  <smiles>  (7) 
NC(=O)c1cccc(CCc2cnc3c(c2)C(=O)N(Cc2cccc(C(=O)N4CCOCC4)c2)CCN3)c1

>  <score_type>  (7) 
oracle

>  <origin>  (7) 
adg

>  <m_score__min__energy>  (7) 
-9.1699999999999999

>  <m_primary>  (7) 
energy

$$$$
7:0
     RDKit          3D

 46 48  0  0  0  0  0  0  0  0999 V2000
   56.6520   21.0950   43.7040 C   0  0  0  0  0  0  0  0  0  0  0  0
   56.0000   21.2350   45.0770 C   0  0  0  0  0  0  0  0  0  0  0  0
   55.8450   22.6600   45.4320 N   0  0  0  0  0  0  0  0  0  0  0  0
   54.6210   23.2670   45.3160 C   0  0  0  0  0  0  0  0  0  0  0  0
   53.6110   22.6180   44.9270 O   0  0  0  0  0  0  0  0  0  0  0  0
   54.4780   24.5820   45.6110 N   0  0  0  0  0  0  0  0  0  0  0  0
   55.5200   25.3450   46.0190 C   0  0  0  0  0  0  0  0  0  0  0  0
   55.2880   26.7020   46.2500 O   0  0  0  0  0  0  0  0  0  0  0  0
   56.7940   24.7600   46.1600 C   0  0  0  0  0  0  0  0  0  0  0  0
   57.9570   25.5300   46.6580 C   0  0  0  0  0  0  0  0  0  0  0  0
   59.1000   24.9990   46.6810 O   0  0  0  0  0  0  0  0  0  0  0  0
   57.7690   26.8720   47.1260 N   0  0  0  0  0  0  0  0  0  0  0  0
   58.3760   28.0580   46.5920 C   0  0  0  0  0  0  0  0  0  0  0  0
   59.7600   28.2200   46.7230 C   0  0  0  0  0  0  0  0  0  0  0  0
   60.3860   29.3730   46.2440 C   0  0  0  0  0  0  0  0  0  0  0  0
   59.6300   30.3820   45.6430 C   0  0  0  0  0  0  0  0  0  0  0  0
   58.2420   30.2440   45.5220 C   0  0  0  0  0  0  0  0  0  0  0  0
   57.2960   31.5430   44.8000 S   0  0  0  0  0  0  0  0  0  0  0  0
   55.9220   31.0440   44.4470 O   0  0  0  0  0  0  0  0  0  0  0  0
   57.9830   31.9870   43.5380 O   0  0  0  0  0  0  0  0  0  0  0  0
   57.1890   32.8880   45.9170 N   0  0  0  0  0  0  0  0  0  0  0  0
   57.3620   34.1610   45.2110 C   0  0  0  0  0  0  0  0  0  0  0  0
   58.8350   34.5390   45.2690 C   0  0  0  0  0  0  0  0  0  0  0  0
   59.4320   33.6770   46.3650 C   0  0  0  0  0  0  0  0  0  0  0  0
   58.2830   32.8300   46.8920 C   0  0  0  0  0  0  0  0  0  0  0  0
   57.6140   29.0860   46.0070 C   0  0  0  0  0  0  0  0  0  0  0  0
   56.9320   23.3950   45.8370 C   0  0  0  0  0  0  0  0  0  0  0  0
   58.0640   22.8440   45.9390 O   0  0  0  0  0  0  0  0  0  0  0  0
   57.7207   20.8655   43.8273 H   0  0  0  0  0  0  0  0  0  0  0  0
   56.1640   20.2812   43.1476 H   0  0  0  0  0  0  0  0  0  0  0  0
   56.5411   22.0374   43.1476 H   0  0  0  0  0  0  0  0  0  0  0  0
   55.0096   20.7567   45.0581 H   0  0  0  0  0  0  0  0  0  0  0  0
   56.6412   20.7488   45.8270 H   0  0  0  0  0  0  0  0  0  0  0  0
   55.8880   27.2790   46.8240 H   0  0  0  0  0  0  0  0  0  0  0  0
   60.3587   27.4340   47.2064 H   0  0  0  0  0  0  0  0  0  0  0  0
   61.4759   29.4866   46.3402 H   0  0  0  0  0  0  0  0  0  0  0  0
   60.1264   31.2874   45.2638 H   0  0  0  0  0  0  0  0  0  0  0  0
   57.0464   34.0517   44.1629 H   0  0  0  0  0  0  0  0  0  0  0  0
   56.7494   34.9438   45.6822 H   0  0  0  0  0  0  0  0  0  0  0  0
   59.3238   34.3296   44.3061 H   0  0  0  0  0  0  0  0  0  0  0  0
   58.9734   35.6112   45.4723 H   0  0  0  0  0  0  0  0  0  0  0  0
   60.2271   33.0349   45.9581 H   0  0  0  0  0  0  0  0  0  0  0  0
   59.8859   34.2867   47.1602 H   0  0  0  0  0  0  0  0  0  0  0  0
   58.6148   31.7889   47.0184 H   0  0  0  0  0  0  0  0  0  0  0  0
   57.9449   33.2110   47.8669 H   0  0  0  0  0  0  0  0  0  0  0  0
   56.5217   28.9819   45.9294 H   0  0  0  0  0  0  0  0  0  0  0  0
  1  2  1  0
  2  3  1  0
  3  4  1  0
  4  5  2  0
  4  6  1  0
  6  7  1  0
  7  8  1  0
  7  9  2  0
  9 10  1  0
 10 11  2  0
 10 12  1  0
 12 13  1  0
 13 14  2  0
 14 15  1  0
 15 16  2  0
 16 17  1  0
 17 18  1  0
 18 19  2  0
 18 20  2  0
 18 21  1  0
 21 22  1  0
 22 23  1  0
 23 24  1  0
 24 25  1  0
 17 26  2  0
  9 27  1  0
 27 28  2  0
 27  3  1  0
 26 13  1  0
 25 21  1  0
  1 29  1  0
  1 30  1  0
  1 31  1  0
  2 32  1  0
  2 33  1  0
  8 34  1  0
 14 35  1  0
 15 36  1  0
 16 37  1  0
 22 38  1  0
 22 39  1  0
 23 40  1  0
 23 41  1  0
 24 42  1  0
 24 43  1  0
 25 44  1  0
 25 45  1  0
 26 46  1  0
M  CHG  2   6  -1  12  -1
M  END
>  <UniqueID>  (8) 
8

>  <SMILES>  (8) 
CCn1c(=O)[n-]c(O)c(C(=O)[N-]c2cccc(S(=O)(=O)N3CCCC3)c2)c1=O

>  <Energy>  (8) 
60.26290428801395

>  <Genealogy>  (8) 
CCn1c(=O)[n-]c(O)c(C(=O)[N-]c2cccc(S(=O)(=O)N3CCCC3)c2)c1=O (protonated)
CCn1c(=O)[n-]c(O)c(C(=O)[N-]c2cccc(S(=O)(=O)N3CCCC3)c2)c1=O (3D coordinates assigned)
CCn1c(=O)[n-]c(O)c(C(=O)[N-]c2cccc(S(=O)(=O)N3CCCC3)c2)c1=O (nonaromatic ring conformer: 60.26290428801395 kcal/mol)

>  <smiles>  (8) 
CCn1c(=O)[nH]c(O)c(C(=O)Nc2cccc(S(=O)(=O)N3CCCC3)c2)c1=O

>  <score_type>  (8) 
oracle

>  <origin>  (8) 
adg

>  <m_score__min__energy>  (8) 
-12.4

>  <m_primary>  (8) 
energy

$$$$
8:0
     RDKit          3D

 65 68  0  0  0  0  0  0  0  0999 V2000
   60.9162   35.6690   48.4335 H   0  0  0  0  0  0  0  0  0  0  0  0
   60.8100   34.5950   48.2210 C   0  0  0  0  0  0  0  0  0  0  0  0
   62.0560   33.8170   47.9970 C   0  0  0  0  0  0  0  0  0  0  0  0
   62.2100   33.2020   46.9060 O   0  0  0  0  0  0  0  0  0  0  0  0
   63.0630   33.7040   49.0280 N   0  0  0  0  0  0  0  0  0  0  0  0
   64.3980   33.1720   48.7180 C   0  0  0  0  0  0  0  0  0  0  0  0
   65.1242   33.9981   48.7044 H   0  0  0  0  0  0  0  0  0  0  0  0
   64.3693   32.6812   47.7340 H   0  0  0  0  0  0  0  0  0  0  0  0
   64.8190   32.1430   49.7800 C   0  0  0  0  0  0  0  0  0  0  0  0
   65.9050   31.9879   49.6990 H   0  0  0  0  0  0  0  0  0  0  0  0
   64.2425   31.2277   49.5803 H   0  0  0  0  0  0  0  0  0  0  0  0
   64.5080   32.5490   51.1780 N   0  0  0  0  0  0  0  0  0  0  0  0
   63.6160   31.5810   51.8410 C   0  0  0  0  0  0  0  0  0  0  0  0
   63.7102   31.6833   52.9322 H   0  0  0  0  0  0  0  0  0  0  0  0
   62.5755   31.7773   51.5428 H   0  0  0  0  0  0  0  0  0  0  0  0
   63.8965   30.5600   51.5428 H   0  0  0  0  0  0  0  0  0  0  0  0
   64.0080   33.9330   51.3150 C   0  0  0  0  0  0  0  0  0  0  0  0
   64.8210   34.6308   51.0658 H   0  0  0  0  0  0  0  0  0  0  0  0
   63.6696   34.0713   52.3525 H   0  0  0  0  0  0  0  0  0  0  0  0
   62.8150   34.2080   50.3850 C   0  0  0  0  0  0  0  0  0  0  0  0
   62.6418   35.2932   50.3371 H   0  0  0  0  0  0  0  0  0  0  0  0
   61.9343   33.6884   50.7905 H   0  0  0  0  0  0  0  0  0  0  0  0
   59.5640   34.0930   48.1850 C   0  0  0  0  0  0  0  0  0  0  0  0
   58.9546   34.1932   49.0953 H   0  0  0  0  0  0  0  0  0  0  0  0
   58.9430   33.4180   47.0270 C   0  0  0  0  0  0  0  0  0  0  0  0
   58.7610   34.0840   45.8020 C   0  0  0  0  0  0  0  0  0  0  0  0
   59.1078   35.1214   45.6858 H   0  0  0  0  0  0  0  0  0  0  0  0
   58.1410   33.4330   44.7310 C   0  0  0  0  0  0  0  0  0  0  0  0
   58.0163   33.9550   43.7708 H   0  0  0  0  0  0  0  0  0  0  0  0
   57.6770   32.1160   44.8760 C   0  0  0  0  0  0  0  0  0  0  0  0
   56.9920   31.4320   43.7270 C   0  0  0  0  0  0  0  0  0  0  0  0
   56.4920   32.1838   43.0986 H   0  0  0  0  0  0  0  0  0  0  0  0
   57.7375   30.8888   43.1277 H   0  0  0  0  0  0  0  0  0  0  0  0
   55.9960   30.4850   44.2420 N   0  0  0  0  0  0  0  0  0  0  0  0
   55.8170   30.7270   45.2450 H   0  0  0  0  0  0  0  0  0  0  0  0
   56.4920   29.1020   44.1970 C   0  0  0  0  0  0  0  0  0  0  0  0
   57.3156   28.9938   44.9181 H   0  0  0  0  0  0  0  0  0  0  0  0
   55.6600   28.4282   44.4495 H   0  0  0  0  0  0  0  0  0  0  0  0
   57.0040   28.7330   42.7940 C   0  0  0  0  0  0  0  0  0  0  0  0
   56.1400   28.6388   42.1197 H   0  0  0  0  0  0  0  0  0  0  0  0
   57.6905   29.5312   42.4751 H   0  0  0  0  0  0  0  0  0  0  0  0
   57.7890   27.4180   42.7670 C   0  0  0  0  0  0  0  0  0  0  0  0
   57.1032   26.5814   42.9664 H   0  0  0  0  0  0  0  0  0  0  0  0
   58.2517   27.2967   41.7764 H   0  0  0  0  0  0  0  0  0  0  0  0
   58.8380   27.4350   43.7840 N   0  0  0  0  0  0  0  0  0  0  0  0
   58.6930   27.1900   45.0580 C   0  0  0  0  0  0  0  0  0  0  0  0
   57.9180   26.1060   45.5200 C   0  0  0  0  0  0  0  0  0  0  0  0
   57.4056   25.4503   44.8006 H   0  0  0  0  0  0  0  0  0  0  0  0
   57.8010   25.8650   46.8900 C   0  0  0  0  0  0  0  0  0  0  0  0
   57.1980   25.0174   47.2476 H   0  0  0  0  0  0  0  0  0  0  0  0
   58.4280   26.6720   47.7820 N   0  0  0  0  0  0  0  0  0  0  0  0
   59.1790   27.7350   47.3850 C   0  0  0  0  0  0  0  0  0  0  0  0
   59.8000   28.5430   48.3460 C   0  0  0  0  0  0  0  0  0  0  0  0
   59.6728   28.3193   49.4155 H   0  0  0  0  0  0  0  0  0  0  0  0
   60.5810   29.6330   47.9500 C   0  0  0  0  0  0  0  0  0  0  0  0
   61.3760   30.6260   49.1570 Cl  0  0  0  0  0  0  0  0  0  0  0  0
   60.7370   29.9250   46.5930 C   0  0  0  0  0  0  0  0  0  0  0  0
   61.3510   30.7843   46.2853 H   0  0  0  0  0  0  0  0  0  0  0  0
   60.1170   29.1310   45.6240 C   0  0  0  0  0  0  0  0  0  0  0  0
   60.2410   29.3721   44.5579 H   0  0  0  0  0  0  0  0  0  0  0  0
   59.3330   28.0220   46.0060 C   0  0  0  0  0  0  0  0  0  0  0  0
   57.8150   31.4700   46.1140 C   0  0  0  0  0  0  0  0  0  0  0  0
   57.4300   30.4478   46.2441 H   0  0  0  0  0  0  0  0  0  0  0  0
   58.4390   32.1190   47.1820 C   0  0  0  0  0  0  0  0  0  0  0  0
   58.5356   31.6075   48.1510 H   0  0  0  0  0  0  0  0  0  0  0  0
  1  2  1  0
  2  3  1  0
  3  4  2  0
  3  5  1  0
  5  6  1  0
  6  7  1  0
  6  8  1  0
  6  9  1  0
  9 10  1  0
  9 11  1  0
  9 12  1  0
 12 13  1  0
 13 14  1  0
 13 15  1  0
 13 16  1  0
 12 17  1  0
 17 18  1  0
 17 19  1  0
 17 20  1  0
 20 21  1  0
 20 22  1  0
  2 23  2  0
 23 24  1  0
 23 25  1  0
 25 26  2  0
 26 27  1  0
 26 28  1  0
 28 29  1  0
 28 30  2  0
 30 31  1  0
 31 32  1  0
 31 33  1  0
 31 34  1  0
 34 35  1  0
 34 36  1  0
 36 37  1  0
 36 38  1  0
 36 39  1  0
 39 40  1  0
 39 41  1  0
 39 42  1  0
 42 43  1  0
 42 44  1  0
 42 45  1  0
 45 46  2  0
 46 47  1  0
 47 48  1  0
 47 49  2  0
 49 50  1  0
 49 51  1  0
 51 52  1  0
 52 53  2  0
 53 54  1  0
 53 55  1  0
 55 56  1  0
 55 57  2  0
 57 58  1  0
 57 59  1  0
 59 60  1  0
 59 61  2  0
 30 62  1  0
 62 63  1  0
 62 64  2  0
 64 65  1  0
 20  5  1  0
 64 25  1  0
 61 46  1  0
 61 52  1  0
M  CHG  1  51  -1
M  END
>  <UniqueID>  (9) 
9

>  <SMILES>  (9) 
CN1CCN(C(=O)/C=C\c2ccc(CNCCC/N=c3\cc[n-]c4cc(Cl)ccc34)cc2)CC1

>  <Energy>  (9) 
85.6527948323562

>  <Genealogy>  (9) 
CN1CCN(C(=O)C=Cc2ccc(CNCCCN=c3cc[n-]c4cc(Cl)ccc34)cc2)CC1 (protonated)
CN1CCN(C(=O)/C=C\c2ccc(CNCCC/N=c3\cc[n-]c4cc(Cl)ccc34)cc2)CC1 (cis-trans isomerization)
CN1CCN(C(=O)/C=C\c2ccc(CNCCC/N=c3\cc[n-]c4cc(Cl)ccc34)cc2)CC1 (3D coordinates assigned)
CN1CCN(C(=O)/C=C\c2ccc(CNCCC/N=c3\cc[n-]c4cc(Cl)ccc34)cc2)CC1 (nonaromatic ring conformer: 85.6527948323562 kcal/mol)

>  <smiles>  (9) 
CN1CCN(C(=O)C=Cc2ccc(CNCCCN=c3cc[nH]c4cc(Cl)ccc34)cc2)CC1

>  <score_type>  (9) 
oracle

>  <origin>  (9) 
adg

>  <m_score__min__energy>  (9) 
-11.17

>  <m_primary>  (9) 
energy

$$$$
9:0
     RDKit          3D

 44 46  0  0  0  0  0  0  0  0999 V2000
   57.0300   24.7660   46.8330 C   0  0  0  0  0  0  0  0  0  0  0  0
   56.4950   26.0280   46.2320 C   0  0  0  0  0  0  0  0  0  0  0  0
   55.2610   26.1250   45.9960 O   0  0  0  0  0  0  0  0  0  0  0  0
   57.3880   27.1550   45.9100 C   0  0  0  0  0  0  0  0  0  0  0  0
   57.0010   28.4480   45.5750 C   0  0  0  0  0  0  0  0  0  0  0  0
   58.0850   29.3030   45.3140 C   0  0  0  0  0  0  0  0  0  0  0  0
   57.9440   30.7070   44.8890 C   0  0  0  0  0  0  0  0  0  0  0  0
   58.3790   31.7390   45.6370 N   0  0  0  0  0  0  0  0  0  0  0  0
   58.1400   32.8540   44.9630 N   0  0  0  0  0  0  0  0  0  0  0  0
   58.4660   34.1900   45.4600 C   0  0  0  0  0  0  0  0  0  0  0  0
   59.9730   34.3270   45.7230 C   0  0  0  0  0  0  0  0  0  0  0  0
   60.3330   34.4050   47.1890 C   0  0  0  0  0  0  0  0  0  0  0  0
   59.5170   34.9310   48.0010 O   0  0  0  0  0  0  0  0  0  0  0  0
   61.6050   33.9210   47.6760 N   0  0  0  0  0  0  0  0  0  0  0  0
   62.7590   33.8000   46.7690 C   0  0  0  0  0  0  0  0  0  0  0  0
   63.7880   32.8130   47.3340 C   0  0  0  0  0  0  0  0  0  0  0  0
   64.1030   33.1230   48.6760 O   0  0  0  0  0  0  0  0  0  0  0  0
   62.9590   32.9300   49.4820 C   0  0  0  0  0  0  0  0  0  0  0  0
   61.8690   33.9410   49.1220 C   0  0  0  0  0  0  0  0  0  0  0  0
   57.5570   32.5660   43.7850 C   0  0  0  0  0  0  0  0  0  0  0  0
   57.4030   31.1990   43.7020 C   0  0  0  0  0  0  0  0  0  0  0  0
   56.6900   30.4940   42.6260 C   0  0  0  0  0  0  0  0  0  0  0  0
   55.7450   29.7030   42.8740 O   0  0  0  0  0  0  0  0  0  0  0  0
   59.3230   28.6750   45.4120 C   0  0  0  0  0  0  0  0  0  0  0  0
   59.0680   27.0740   45.8570 S   0  0  0  0  0  0  0  0  0  0  0  0
   56.9985   24.8403   47.9300 H   0  0  0  0  0  0  0  0  0  0  0  0
   56.4154   23.9146   46.5053 H   0  0  0  0  0  0  0  0  0  0  0  0
   58.0692   24.6157   46.5053 H   0  0  0  0  0  0  0  0  0  0  0  0
   55.9505   28.7695   45.5198 H   0  0  0  0  0  0  0  0  0  0  0  0
   58.1622   34.9364   44.7112 H   0  0  0  0  0  0  0  0  0  0  0  0
   57.9290   34.3526   46.4061 H   0  0  0  0  0  0  0  0  0  0  0  0
   60.4816   33.4544   45.2872 H   0  0  0  0  0  0  0  0  0  0  0  0
   60.2929   35.2742   45.2642 H   0  0  0  0  0  0  0  0  0  0  0  0
   62.4125   33.4397   45.7891 H   0  0  0  0  0  0  0  0  0  0  0  0
   63.2337   34.7868   46.6653 H   0  0  0  0  0  0  0  0  0  0  0  0
   63.3733   31.7952   47.2877 H   0  0  0  0  0  0  0  0  0  0  0  0
   64.7069   32.8824   46.7333 H   0  0  0  0  0  0  0  0  0  0  0  0
   62.5737   31.9118   49.3246 H   0  0  0  0  0  0  0  0  0  0  0  0
   63.2401   33.0723   50.5359 H   0  0  0  0  0  0  0  0  0  0  0  0
   60.9455   33.6852   49.6621 H   0  0  0  0  0  0  0  0  0  0  0  0
   62.2091   34.9474   49.4075 H   0  0  0  0  0  0  0  0  0  0  0  0
   57.2552   33.2962   43.0197 H   0  0  0  0  0  0  0  0  0  0  0  0
   56.9903   30.6626   41.5813 H   0  0  0  0  0  0  0  0  0  0  0  0
   60.3005   29.1454   45.2296 H   0  0  0  0  0  0  0  0  0  0  0  0
  1  2  1  0
  2  3  2  0
  2  4  1  0
  4  5  2  0
  5  6  1  0
  6  7  1  0
  7  8  2  0
  8  9  1  0
  9 10  1  0
 10 11  1  0
 11 12  1  0
 12 13  2  0
 12 14  1  0
 14 15  1  0
 15 16  1  0
 16 17  1  0
 17 18  1  0
 18 19  1  0
  9 20  1  0
 20 21  2  0
 21 22  1  0
 22 23  2  0
  6 24  2  0
 24 25  1  0
 25  4  1  0
 21  7  1  0
 19 14  1  0
  1 26  1  0
  1 27  1  0
  1 28  1  0
  5 29  1  0
 10 30  1  0
 10 31  1  0
 11 32  1  0
 11 33  1  0
 15 34  1  0
 15 35  1  0
 16 36  1  0
 16 37  1  0
 18 38  1  0
 18 39  1  0
 19 40  1  0
 19 41  1  0
 20 42  1  0
 22 43  1  0
 24 44  1  0
M  END
>  <UniqueID>  (10) 
10

>  <SMILES>  (10) 
CC(=O)c1cc(-c2nn(CCC(=O)N3CCOCC3)cc2C=O)cs1

>  <Energy>  (10) 
103.37919809553829

>  <Genealogy>  (10) 
CC(=O)c1cc(-c2nn(CCC(=O)N3CCOCC3)cc2C=O)cs1 (3D coordinates assigned)
CC(=O)c1cc(-c2nn(CCC(=O)N3CCOCC3)cc2C=O)cs1 (nonaromatic ring conformer: 103.37919809553829 kcal/mol)

>  <smiles>  (10) 
CC(=O)c1cc(-c2nn(CCC(=O)N3CCOCC3)cc2C=O)cs1

>  <score_type>  (10) 
oracle

>  <origin>  (10) 
adg

>  <m_score__min__energy>  (10) 
-8.4800000000000004

>  <m_primary>  (10) 
energy

$$$$
10:0
     RDKit          3D

 55 58  0  0  0  0  0  0  0  0999 V2000
   64.7180   32.5890   47.0200 H   0  0  0  0  0  0  0  0  0  0  0  0
   63.9420   33.2050   47.0660 O   0  0  0  0  0  0  0  0  0  0  0  0
   62.8940   32.5030   47.6890 C   0  0  1  0  0  0  0  0  0  0  0  0
   62.4356   31.8014   46.9766 H   0  0  0  0  0  0  0  0  0  0  0  0
   63.4570   31.6920   48.8600 C   0  0  0  0  0  0  0  0  0  0  0  0
   63.8414   32.3813   49.6262 H   0  0  0  0  0  0  0  0  0  0  0  0
   64.2676   31.0473   48.4895 H   0  0  0  0  0  0  0  0  0  0  0  0
   62.3720   30.8170   49.4720 C   0  0  0  0  0  0  0  0  0  0  0  0
   62.8075   30.2702   50.3214 H   0  0  0  0  0  0  0  0  0  0  0  0
   62.0159   30.1489   48.6739 H   0  0  0  0  0  0  0  0  0  0  0  0
   61.1270   31.6090   49.9850 C   0  0  2  0  0  0  0  0  0  0  0  0
   61.4670   32.2440   51.3610 C   0  0  0  0  0  0  0  0  0  0  0  0
   61.1136   31.5839   52.1668 H   0  0  0  0  0  0  0  0  0  0  0  0
   62.5559   32.3750   51.4454 H   0  0  0  0  0  0  0  0  0  0  0  0
   60.9723   33.2229   51.4454 H   0  0  0  0  0  0  0  0  0  0  0  0
   59.9990   30.5680   50.2670 C   0  0  0  0  0  0  0  0  0  0  0  0
   59.1401   31.0799   50.7254 H   0  0  0  0  0  0  0  0  0  0  0  0
   60.3881   29.7970   50.9483 H   0  0  0  0  0  0  0  0  0  0  0  0
   59.5590   29.9110   48.9890 C   0  0  0  0  0  0  0  0  0  0  0  0
   59.3610   30.7200   47.8740 C   0  0  0  0  0  0  0  0  0  0  0  0
   58.9950   30.1060   46.6680 C   0  0  0  0  0  0  0  0  0  0  0  0
   58.7650   30.7910   45.6350 O   0  0  0  0  0  0  0  0  0  0  0  0
   58.8810   28.7560   46.6100 N   0  0  0  0  0  0  0  0  0  0  0  0
   59.1040   27.9730   47.6980 C   0  0  0  0  0  0  0  0  0  0  0  0
   58.9740   26.6810   47.5710 N   0  0  0  0  0  0  0  0  0  0  0  0
   57.9910   25.9820   46.7940 C   0  0  0  0  0  0  0  0  0  0  0  0
   58.3460   24.8850   45.9910 C   0  0  0  0  0  0  0  0  0  0  0  0
   59.3849   24.5236   45.9855 H   0  0  0  0  0  0  0  0  0  0  0  0
   57.3840   24.2510   45.1990 C   0  0  0  0  0  0  0  0  0  0  0  0
   57.6667   23.3842   44.5837 H   0  0  0  0  0  0  0  0  0  0  0  0
   56.0590   24.7150   45.1850 C   0  0  0  0  0  0  0  0  0  0  0  0
   55.0290   24.0450   44.3220 C   0  0  0  0  0  0  0  0  0  0  0  0
   54.2778   23.5564   44.9599 H   0  0  0  0  0  0  0  0  0  0  0  0
   54.5376   24.7968   43.6869 H   0  0  0  0  0  0  0  0  0  0  0  0
   55.5170   23.2910   43.6869 H   0  0  0  0  0  0  0  0  0  0  0  0
   55.7150   25.8400   45.9580 C   0  0  0  0  0  0  0  0  0  0  0  0
   54.4150   26.3360   45.9420 O   0  0  0  0  0  0  0  0  0  0  0  0
   56.6810   26.4710   46.7490 C   0  0  0  0  0  0  0  0  0  0  0  0
   56.4086   27.3580   47.3398 H   0  0  0  0  0  0  0  0  0  0  0  0
   59.4230   28.5580   48.8940 N   0  0  0  0  0  0  0  0  0  0  0  0
   59.5440   27.9860   49.7580 H   0  0  0  0  0  0  0  0  0  0  0  0
   59.4050   32.2120   48.0620 C   0  0  0  0  0  0  0  0  0  0  0  0
   58.4716   32.5261   48.5519 H   0  0  0  0  0  0  0  0  0  0  0  0
   59.5298   32.6542   47.0625 H   0  0  0  0  0  0  0  0  0  0  0  0
   60.6190   32.7160   48.9380 C   0  0  2  0  0  0  0  0  0  0  0  0
   60.2065   33.5269   49.5563 H   0  0  0  0  0  0  0  0  0  0  0  0
   61.7730   33.4860   48.1380 C   0  0  0  0  0  0  0  0  0  0  0  0
   61.2430   34.2030   46.8640 C   0  0  0  0  0  0  0  0  0  0  0  0
   60.6130   35.0553   47.1582 H   0  0  0  0  0  0  0  0  0  0  0  0
   62.0928   34.5643   46.2663 H   0  0  0  0  0  0  0  0  0  0  0  0
   60.6483   33.4966   46.2663 H   0  0  0  0  0  0  0  0  0  0  0  0
   62.3650   34.6310   49.0140 C   0  0  0  0  0  0  0  0  0  0  0  0
   62.2366   34.3826   50.0779 H   0  0  0  0  0  0  0  0  0  0  0  0
   63.4360   34.7468   48.7912 H   0  0  0  0  0  0  0  0  0  0  0  0
   61.8403   35.5718   48.7912 H   0  0  0  0  0  0  0  0  0  0  0  0
  1  2  1  0
  2  3  1  0
  3  4  1  6
  3  5  1  0
  5  6  1  0
  5  7  1  0
  5  8  1  0
  8  9  1  0
  8 10  1  0
  8 11  1  0
 11 12  1  1
 12 13  1  0
 12 14  1  0
 12 15  1  0
 11 16  1  0
 16 17  1  0
 16 18  1  0
 16 19  1  0
 19 20  2  0
 20 21  1  0
 21 22  2  0
 21 23  1  0
 23 24  1  0
 24 25  2  0
 25 26  1  0
 26 27  2  0
 27 28  1  0
 27 29  1  0
 29 30  1  0
 29 31  2  0
 31 32  1  0
 32 33  1  0
 32 34  1  0
 32 35  1  0
 31 36  1  0
 36 37  1  0
 36 38  2  0
 38 39  1  0
 24 40  1  0
 40 41  1  0
 20 42  1  0
 42 43  1  0
 42 44  1  0
 42 45  1  0
 45 46  1  1
 45 47  1  0
 47 48  1  0
 48 49  1  0
 48 50  1  0
 48 51  1  0
 47 52  1  0
 52 53  1  0
 52 54  1  0
 52 55  1  0
 47  3  1  0
 45 11  1  0
 40 19  1  0
 38 26  1  0
M  CHG  2  23  -1  37  -1
M  END
>  <UniqueID>  (11) 
11

>  <SMILES>  (11) 
Cc1ccc(/N=c2/[n-]c(=O)c3c([nH]2)C[C@@]2(C)CC[C@H](O)C(C)(C)C2C3)cc1[O-]

>  <Energy>  (11) 
91.53694717312231

>  <Genealogy>  (11) 
Cc1ccc(N=c2[n-]c(=O)c3c([nH]2)CC2(C)CCC(O)C(C)(C)C2C3)cc1[O-] (protonated)
Cc1ccc(N=c2[n-]c(=O)c3c([nH]2)C[C@@]2(C)CC[C@H](O)C(C)(C)C2C3)cc1[O-] (chirality)
Cc1ccc(/N=c2/[n-]c(=O)c3c([nH]2)C[C@@]2(C)CC[C@H](O)C(C)(C)C2C3)cc1[O-] (cis-trans isomerization)
Cc1ccc(/N=c2/[n-]c(=O)c3c([nH]2)C[C@@]2(C)CC[C@H](O)C(C)(C)C2C3)cc1[O-] (3D coordinates assigned)
Cc1ccc(/N=c2/[n-]c(=O)c3c([nH]2)C[C@@]2(C)CC[C@H](O)C(C)(C)C2C3)cc1[O-] (nonaromatic ring conformer: 91.53694717312231 kcal/mol)

>  <smiles>  (11) 
Cc1ccc(N=c2[nH]c3c(c(=O)[nH]2)CC2C(C)(CCC(O)C2(C)C)C3)cc1O

>  <score_type>  (11) 
oracle

>  <origin>  (11) 
adg

>  <m_score__min__energy>  (11) 
-13.43

>  <m_primary>  (11) 
energy

$$$$
11:0
     RDKit          3D

 74 76  0  0  0  0  0  0  0  0999 V2000
   58.2450   22.5400   44.9660 C   0  0  0  0  0  0  0  0  0  0  0  0
   57.9930   22.4890   46.3540 O   0  0  0  0  0  0  0  0  0  0  0  0
   56.6040   22.6110   46.6050 C   0  0  0  0  0  0  0  0  0  0  0  0
   56.3660   23.2470   47.9780 C   0  0  0  0  0  0  0  0  0  0  0  0
   56.1750   24.6560   47.8530 O   0  0  0  0  0  0  0  0  0  0  0  0
   56.9440   25.5190   47.0520 C   0  0  0  0  0  0  0  0  0  0  0  0
   58.3410   25.6310   47.1890 C   0  0  0  0  0  0  0  0  0  0  0  0
   59.0650   26.4930   46.3660 C   0  0  0  0  0  0  0  0  0  0  0  0
   58.4120   27.2630   45.3920 C   0  0  0  0  0  0  0  0  0  0  0  0
   59.2110   28.1740   44.4810 C   0  0  0  0  0  0  0  0  0  0  0  0
   59.1450   29.6110   44.8450 N   0  0  0  0  0  0  0  0  0  0  0  0
   58.8940   29.8560   46.2850 C   0  0  0  0  0  0  0  0  0  0  0  0
   60.2060   29.8730   47.0780 C   0  0  0  0  0  0  0  0  0  0  0  0
   60.0920   29.0510   48.2250 O   0  0  0  0  0  0  0  0  0  0  0  0
   58.9180   29.3620   48.9440 C   0  0  0  0  0  0  0  0  0  0  0  0
   58.2110   30.3690   43.9900 C   0  0  0  0  0  0  0  0  0  0  0  0
   56.9610   30.6710   44.7540 C   0  0  0  0  0  0  0  0  0  0  0  0
   56.1040   29.7650   44.9410 O   0  0  0  0  0  0  0  0  0  0  0  0
   56.7500   32.0000   45.2460 N   0  0  0  0  0  0  0  0  0  0  0  0
   57.7630   32.9730   45.5330 C   0  0  0  0  0  0  0  0  0  0  0  0
   58.0570   34.0280   44.6500 C   0  0  0  0  0  0  0  0  0  0  0  0
   59.0490   34.9580   44.9750 C   0  0  0  0  0  0  0  0  0  0  0  0
   59.7490   34.8480   46.1790 C   0  0  0  0  0  0  0  0  0  0  0  0
   59.4430   33.8170   47.0780 C   0  0  0  0  0  0  0  0  0  0  0  0
   60.3490   33.6560   48.5810 S   0  0  0  0  0  0  0  0  0  0  0  0
   60.2670   32.2320   49.0590 O   0  0  0  0  0  0  0  0  0  0  0  0
   59.7120   34.5360   49.6190 O   0  0  0  0  0  0  0  0  0  0  0  0
   62.0210   34.1410   48.3630 N   0  0  0  0  0  0  0  0  0  0  0  0
   62.5950   33.6300   47.1060 C   0  0  0  0  0  0  0  0  0  0  0  0
   62.8900   32.1110   47.1670 C   0  0  0  0  0  0  0  0  0  0  0  0
   62.8910   31.5940   48.4860 O   0  0  0  0  0  0  0  0  0  0  0  0
   63.6050   32.4530   49.3450 C   0  0  0  0  0  0  0  0  0  0  0  0
   62.8500   33.7830   49.5340 C   0  0  0  0  0  0  0  0  0  0  0  0
   58.4400   32.8930   46.7550 C   0  0  0  0  0  0  0  0  0  0  0  0
   57.0210   27.1510   45.2520 C   0  0  0  0  0  0  0  0  0  0  0  0
   56.2810   26.2920   46.0870 C   0  0  0  0  0  0  0  0  0  0  0  0
   54.8860   26.1710   45.9830 O   0  0  0  0  0  0  0  0  0  0  0  0
   54.2060   24.9760   45.6100 C   0  0  0  0  0  0  0  0  0  0  0  0
   59.3099   22.7555   44.7944 H   0  0  0  0  0  0  0  0  0  0  0  0
   57.9889   21.5718   44.5110 H   0  0  0  0  0  0  0  0  0  0  0  0
   57.6326   23.3324   44.5110 H   0  0  0  0  0  0  0  0  0  0  0  0
   56.1490   23.2433   45.8284 H   0  0  0  0  0  0  0  0  0  0  0  0
   56.1484   21.6099   46.5904 H   0  0  0  0  0  0  0  0  0  0  0  0
   55.4700   22.7997   48.4331 H   0  0  0  0  0  0  0  0  0  0  0  0
   57.2466   23.0634   48.6112 H   0  0  0  0  0  0  0  0  0  0  0  0
   58.8648   25.0344   47.9504 H   0  0  0  0  0  0  0  0  0  0  0  0
   60.1562   26.5698   46.4814 H   0  0  0  0  0  0  0  0  0  0  0  0
   60.2641   27.8579   44.5150 H   0  0  0  0  0  0  0  0  0  0  0  0
   58.7697   28.0823   43.4776 H   0  0  0  0  0  0  0  0  0  0  0  0
   58.3907   30.8271   46.4020 H   0  0  0  0  0  0  0  0  0  0  0  0
   58.2614   29.0440   46.6729 H   0  0  0  0  0  0  0  0  0  0  0  0
   61.0208   29.4981   46.4412 H   0  0  0  0  0  0  0  0  0  0  0  0
   60.4222   30.9042   47.3942 H   0  0  0  0  0  0  0  0  0  0  0  0
   59.1237   29.3075   50.0232 H   0  0  0  0  0  0  0  0  0  0  0  0
   58.5876   30.3786   48.6846 H   0  0  0  0  0  0  0  0  0  0  0  0
   58.1276   28.6422   48.6846 H   0  0  0  0  0  0  0  0  0  0  0  0
   58.6846   31.3110   43.6765 H   0  0  0  0  0  0  0  0  0  0  0  0
   57.9600   29.7689   43.1029 H   0  0  0  0  0  0  0  0  0  0  0  0
   57.5057   34.1213   43.7027 H   0  0  0  0  0  0  0  0  0  0  0  0
   59.2791   35.7792   44.2803 H   0  0  0  0  0  0  0  0  0  0  0  0
   60.5413   35.5714   46.4218 H   0  0  0  0  0  0  0  0  0  0  0  0
   61.8825   33.8191   46.2896 H   0  0  0  0  0  0  0  0  0  0  0  0
   63.5491   34.1507   46.9366 H   0  0  0  0  0  0  0  0  0  0  0  0
   62.1209   31.5821   46.5850 H   0  0  0  0  0  0  0  0  0  0  0  0
   63.8986   31.9577   46.7556 H   0  0  0  0  0  0  0  0  0  0  0  0
   63.7280   31.9652   50.3232 H   0  0  0  0  0  0  0  0  0  0  0  0
   64.5877   32.6640   48.8981 H   0  0  0  0  0  0  0  0  0  0  0  0
   62.1960   33.6942   50.4140 H   0  0  0  0  0  0  0  0  0  0  0  0
   63.6015   34.5757   49.6634 H   0  0  0  0  0  0  0  0  0  0  0  0
   58.1824   32.0970   47.4692 H   0  0  0  0  0  0  0  0  0  0  0  0
   56.5025   27.7406   44.4816 H   0  0  0  0  0  0  0  0  0  0  0  0
   53.8967   24.4324   46.5149 H   0  0  0  0  0  0  0  0  0  0  0  0
   53.3175   25.2306   45.0135 H   0  0  0  0  0  0  0  0  0  0  0  0
   54.8787   24.3422   45.0135 H   0  0  0  0  0  0  0  0  0  0  0  0
  1  2  1  0
  2  3  1  0
  3  4  1  0
  4  5  1  0
  5  6  1  0
  6  7  2  0
  7  8  1  0
  8  9  2  0
  9 10  1  0
 10 11  1  0
 11 12  1  0
 12 13  1  0
 13 14  1  0
 14 15  1  0
 11 16  1  0
 16 17  1  0
 17 18  2  0
 17 19  1  0
 19 20  1  0
 20 21  2  0
 21 22  1  0
 22 23  2  0
 23 24  1  0
 24 25  1  0
 25 26  2  0
 25 27  2  0
 25 28  1  0
 28 29  1  0
 29 30  1  0
 30 31  1  0
 31 32  1  0
 32 33  1  0
 24 34  2  0
  9 35  1  0
 35 36  2  0
 36 37  1  0
 37 38  1  0
 36  6  1  0
 34 20  1  0
 33 28  1  0
  1 39  1  0
  1 40  1  0
  1 41  1  0
  3 42  1  0
  3 43  1  0
  4 44  1  0
  4 45  1  0
  7 46  1  0
  8 47  1  0
 10 48  1  0
 10 49  1  0
 12 50  1  0
 12 51  1  0
 13 52  1  0
 13 53  1  0
 15 54  1  0
 15 55  1  0
 15 56  1  0
 16 57  1  0
 16 58  1  0
 21 59  1  0
 22 60  1  0
 23 61  1  0
 29 62  1  0
 29 63  1  0
 30 64  1  0
 30 65  1  0
 32 66  1  0
 32 67  1  0
 33 68  1  0
 33 69  1  0
 34 70  1  0
 35 71  1  0
 38 72  1  0
 38 73  1  0
 38 74  1  0
M  CHG  1  19  -1
M  END
>  <UniqueID>  (12) 
12

>  <SMILES>  (12) 
COCCOc1ccc(CN(CCOC)CC(=O)[N-]c2cccc(S(=O)(=O)N3CCOCC3)c2)cc1OC

>  <Energy>  (12) 
92.77615328570151

>  <Genealogy>  (12) 
COCCOc1ccc(CN(CCOC)CC(=O)[N-]c2cccc(S(=O)(=O)N3CCOCC3)c2)cc1OC (protonated)
COCCOc1ccc(CN(CCOC)CC(=O)[N-]c2cccc(S(=O)(=O)N3CCOCC3)c2)cc1OC (3D coordinates assigned)
COCCOc1ccc(CN(CCOC)CC(=O)[N-]c2cccc(S(=O)(=O)N3CCOCC3)c2)cc1OC (nonaromatic ring conformer: 92.77615328570151 kcal/mol)

>  <smiles>  (12) 
COCCOc1ccc(CN(CCOC)CC(=O)Nc2cccc(S(=O)(=O)N3CCOCC3)c2)cc1OC

>  <score_type>  (12) 
oracle

>  <origin>  (12) 
adg

>  <m_score__min__energy>  (12) 
-10.619999999999999

>  <m_primary>  (12) 
energy

$$$$
12:0
     RDKit          3D

 35 37  0  0  0  0  0  0  0  0999 V2000
   53.9680   24.6540   45.6210 O   0  0  0  0  0  0  0  0  0  0  0  0
   55.1050   25.1930   45.5510 C   0  0  0  0  0  0  0  0  0  0  0  0
   56.2310   24.4590   44.8960 C   0  0  0  0  0  0  0  0  0  0  0  0
   56.4370   23.1390   45.5690 C   0  0  0  0  0  0  0  0  0  0  0  0
   56.8660   22.9950   46.8350 N   0  0  0  0  0  0  0  0  0  0  0  0
   56.9640   21.6550   46.9790 C   0  0  0  0  0  0  0  0  0  0  0  0
   57.3360   21.1140   48.0530 O   0  0  0  0  0  0  0  0  0  0  0  0
   56.6360   20.9400   45.8810 N   0  0  0  0  0  0  0  0  0  0  0  0
   56.3110   21.8970   44.9960 C   0  0  0  0  0  0  0  0  0  0  0  0
   55.9100   21.6390   43.6910 O   0  0  0  0  0  0  0  0  0  0  0  0
   55.3350   26.4970   46.0980 N   0  0  0  0  0  0  0  0  0  0  0  0
   56.5080   27.2980   45.8960 C   0  0  0  0  0  0  0  0  0  0  0  0
   57.7680   26.8930   46.3740 C   0  0  0  0  0  0  0  0  0  0  0  0
   58.8990   27.7030   46.1780 C   0  0  0  0  0  0  0  0  0  0  0  0
   60.2480   27.2430   46.6550 C   0  0  0  0  0  0  0  0  0  0  0  0
   60.4120   27.5580   48.1100 C   0  0  0  0  0  0  0  0  0  0  0  0
   60.3590   28.8260   48.6600 C   0  0  0  0  0  0  0  0  0  0  0  0
   60.6240   28.6710   50.0030 C   0  0  0  0  0  0  0  0  0  0  0  0
   60.8340   27.3220   50.1870 C   0  0  0  0  0  0  0  0  0  0  0  0
   61.1440   26.7350   51.4080 O   0  0  0  0  0  0  0  0  0  0  0  0
   60.7150   26.6290   49.0390 N   0  0  0  0  0  0  0  0  0  0  0  0
   58.7640   28.9200   45.4950 C   0  0  0  0  0  0  0  0  0  0  0  0
   57.5100   29.3400   45.0450 C   0  0  0  0  0  0  0  0  0  0  0  0
   56.3840   28.5370   45.2500 C   0  0  0  0  0  0  0  0  0  0  0  0
   55.1420   28.9690   44.7980 O   0  0  0  0  0  0  0  0  0  0  0  0
   55.9911   24.2942   43.8352 H   0  0  0  0  0  0  0  0  0  0  0  0
   57.1508   25.0564   44.9803 H   0  0  0  0  0  0  0  0  0  0  0  0
   57.8682   25.9349   46.9051 H   0  0  0  0  0  0  0  0  0  0  0  0
   60.3363   26.1568   46.5053 H   0  0  0  0  0  0  0  0  0  0  0  0
   61.0300   27.7635   46.0826 H   0  0  0  0  0  0  0  0  0  0  0  0
   60.1480   29.7676   48.1319 H   0  0  0  0  0  0  0  0  0  0  0  0
   60.6603   29.4599   50.7687 H   0  0  0  0  0  0  0  0  0  0  0  0
   60.8610   27.1710   52.2780 H   0  0  0  0  0  0  0  0  0  0  0  0
   59.6494   29.5468   45.3127 H   0  0  0  0  0  0  0  0  0  0  0  0
   57.4081   30.3055   44.5278 H   0  0  0  0  0  0  0  0  0  0  0  0
  1  2  2  0
  2  3  1  0
  3  4  1  0
  4  5  1  0
  5  6  1  0
  6  7  2  0
  6  8  1  0
  8  9  1  0
  9 10  1  0
  2 11  1  0
 11 12  1  0
 12 13  2  0
 13 14  1  0
 14 15  1  0
 15 16  1  0
 16 17  2  0
 17 18  1  0
 18 19  2  0
 19 20  1  0
 19 21  1  0
 14 22  2  0
 22 23  1  0
 23 24  2  0
 24 25  1  0
  9  4  2  0
 24 12  1  0
 21 16  1  0
  3 26  1  0
  3 27  1  0
 13 28  1  0
 15 29  1  0
 15 30  1  0
 17 31  1  0
 18 32  1  0
 20 33  1  0
 22 34  1  0
 23 35  1  0
M  CHG  6   5  -1   8  -1  10  -1  11  -1  21  -1  25  -1
M  END
>  <UniqueID>  (13) 
13

>  <SMILES>  (13) 
O=C(Cc1[n-]c(=O)[n-]c1[O-])[N-]c1cc(Cc2ccc(O)[n-]2)ccc1[O-]

>  <Energy>  (13) 
90.36219920236024

>  <Genealogy>  (13) 
O=C(Cc1[n-]c(=O)[n-]c1[O-])[N-]c1cc(Cc2ccc(O)[n-]2)ccc1[O-] (protonated)
O=C(Cc1[n-]c(=O)[n-]c1[O-])[N-]c1cc(Cc2ccc(O)[n-]2)ccc1[O-] (3D coordinates assigned)
O=C(Cc1[n-]c(=O)[n-]c1[O-])[N-]c1cc(Cc2ccc(O)[n-]2)ccc1[O-] (optimized conformer: 90.36219920236024 kcal/mol)

>  <smiles>  (13) 
O=C(Cc1[nH]c(=O)[nH]c1O)Nc1cc(Cc2ccc(O)[nH]2)ccc1O

>  <score_type>  (13) 
oracle

>  <origin>  (13) 
adg

>  <m_score__min__energy>  (13) 
-18.870000000000001

>  <m_primary>  (13) 
energy

$$$$
13:0
     RDKit          3D

 23 23  0  0  0  0  0  0  0  0999 V2000
   57.3820   31.5680   42.5990 C   0  0  0  0  0  0  0  0  0  0  0  0
   57.9710   31.3510   43.9880 C   0  0  0  0  0  0  0  0  0  0  0  0
   56.9750   30.8030   44.9040 N   0  0  0  0  0  0  0  0  0  0  0  0
   56.3960   29.4900   44.8670 C   0  0  0  0  0  0  0  0  0  0  0  0
   55.1410   29.3880   44.9010 O   0  0  0  0  0  0  0  0  0  0  0  0
   57.2240   28.2320   44.7920 C   0  0  0  0  0  0  0  0  0  0  0  0
   57.6870   27.7690   46.1810 C   0  0  0  0  0  0  0  0  0  0  0  0
   57.1730   26.3990   46.5130 C   0  0  0  0  0  0  0  0  0  0  0  0
   57.9500   25.3800   46.9230 N   0  0  0  0  0  0  0  0  0  0  0  0
   57.0760   24.3590   47.0590 C   0  0  0  0  0  0  0  0  0  0  0  0
   57.4290   23.2120   47.4380 O   0  0  0  0  0  0  0  0  0  0  0  0
   55.7950   24.6620   46.7550 N   0  0  0  0  0  0  0  0  0  0  0  0
   55.8760   25.9570   46.4090 C   0  0  0  0  0  0  0  0  0  0  0  0
   54.7860   26.7170   45.9990 O   0  0  0  0  0  0  0  0  0  0  0  0
   56.3535   31.9469   42.6920 H   0  0  0  0  0  0  0  0  0  0  0  0
   57.9942   32.2996   42.0513 H   0  0  0  0  0  0  0  0  0  0  0  0
   57.3732   30.6141   42.0513 H   0  0  0  0  0  0  0  0  0  0  0  0
   58.8151   30.6495   43.9142 H   0  0  0  0  0  0  0  0  0  0  0  0
   58.3072   32.3225   44.3795 H   0  0  0  0  0  0  0  0  0  0  0  0
   56.6196   27.4349   44.3344 H   0  0  0  0  0  0  0  0  0  0  0  0
   58.1180   28.4472   44.1883 H   0  0  0  0  0  0  0  0  0  0  0  0
   58.7867   27.7512   46.2019 H   0  0  0  0  0  0  0  0  0  0  0  0
   57.2881   28.4731   46.9261 H   0  0  0  0  0  0  0  0  0  0  0  0
  1  2  1  0
  2  3  1  0
  3  4  1  0
  4  5  2  0
  4  6  1  0
  6  7  1  0
  7  8  1  0
  8  9  1  0
  9 10  1  0
 10 11  2  0
 10 12  1  0
 12 13  1  0
 13 14  1  0
 13  8  2  0
  1 15  1  0
  1 16  1  0
  1 17  1  0
  2 18  1  0
  2 19  1  0
  6 20  1  0
  6 21  1  0
  7 22  1  0
  7 23  1  0
M  CHG  4   3  -1   9  -1  12  -1  14  -1
M  END
>  <UniqueID>  (14) 
14

>  <SMILES>  (14) 
CC[N-]C(=O)CCc1[n-]c(=O)[n-]c1[O-]

>  <Energy>  (14) 
44.10738483248108

>  <Genealogy>  (14) 
CC[N-]C(=O)CCc1[n-]c(=O)[n-]c1[O-] (protonated)
CC[N-]C(=O)CCc1[n-]c(=O)[n-]c1[O-] (3D coordinates assigned)
CC[N-]C(=O)CCc1[n-]c(=O)[n-]c1[O-] (optimized conformer: 44.10738483248108 kcal/mol)

>  <smiles>  (14) 
CCNC(=O)CCc1[nH]c(=O)[nH]c1O

>  <score_type>  (14) 
oracle

>  <origin>  (14) 
adg

>  <m_score__min__energy>  (14) 
-15.43

>  <m_primary>  (14) 
energy

$$$$
14:0
     RDKit          3D

 30 32  0  0  0  0  0  0  0  0999 V2000
   56.4740   33.3580   45.1010 H   0  0  0  0  0  0  0  0  0  0  0  0
   56.9220   34.0480   45.6920 O   0  0  0  0  0  0  0  0  0  0  0  0
   58.2450   33.9020   46.1110 C   0  0  0  0  0  0  0  0  0  0  0  0
   58.7960   34.7910   47.0420 C   0  0  0  0  0  0  0  0  0  0  0  0
   58.1863   35.6126   47.4460 H   0  0  0  0  0  0  0  0  0  0  0  0
   60.1190   34.6340   47.4570 C   0  0  0  0  0  0  0  0  0  0  0  0
   60.5601   35.3308   48.1850 H   0  0  0  0  0  0  0  0  0  0  0  0
   60.8760   33.5830   46.9380 C   0  0  0  0  0  0  0  0  0  0  0  0
   61.9192   33.4462   47.2589 H   0  0  0  0  0  0  0  0  0  0  0  0
   60.3250   32.7280   46.0360 N   0  0  0  0  0  0  0  0  0  0  0  0
   59.0390   32.8620   45.6020 C   0  0  0  0  0  0  0  0  0  0  0  0
   58.5290   32.0240   44.7450 N   0  0  0  0  0  0  0  0  0  0  0  0
   57.5480   31.0130   45.0300 C   0  0  0  0  0  0  0  0  0  0  0  0
   56.3530   31.2250   44.6950 O   0  0  0  0  0  0  0  0  0  0  0  0
   57.9100   29.7120   45.6460 C   0  0  0  0  0  0  0  0  0  0  0  0
   59.1220   29.5770   46.3420 C   0  0  0  0  0  0  0  0  0  0  0  0
   59.8041   30.4360   46.4245 H   0  0  0  0  0  0  0  0  0  0  0  0
   59.4660   28.3580   46.9300 C   0  0  0  0  0  0  0  0  0  0  0  0
   60.4206   28.2585   47.4674 H   0  0  0  0  0  0  0  0  0  0  0  0
   58.6020   27.2650   46.8380 C   0  0  0  0  0  0  0  0  0  0  0  0
   58.8825   26.3060   47.2981 H   0  0  0  0  0  0  0  0  0  0  0  0
   57.3760   27.3830   46.1610 C   0  0  0  0  0  0  0  0  0  0  0  0
   56.4590   26.2270   46.0660 C   0  0  0  0  0  0  0  0  0  0  0  0
   55.1180   26.3350   46.0070 N   0  0  0  0  0  0  0  0  0  0  0  0
   54.6410   25.1060   45.9270 N   0  0  0  0  0  0  0  0  0  0  0  0
   55.7010   24.2770   45.9390 C   0  0  0  0  0  0  0  0  0  0  0  0
   55.6230   23.1811   45.8840 H   0  0  0  0  0  0  0  0  0  0  0  0
   56.8680   24.9430   46.0260 N   0  0  0  0  0  0  0  0  0  0  0  0
   57.0330   28.6140   45.5760 C   0  0  0  0  0  0  0  0  0  0  0  0
   56.0685   28.7202   45.0578 H   0  0  0  0  0  0  0  0  0  0  0  0
  1  2  1  0
  2  3  1  0
  3  4  2  0
  4  5  1  0
  4  6  1  0
  6  7  1  0
  6  8  2  0
  8  9  1  0
  8 10  1  0
 10 11  1  0
 11 12  2  0
 12 13  1  0
 13 14  2  0
 13 15  1  0
 15 16  2  0
 16 17  1  0
 16 18  1  0
 18 19  1  0
 18 20  2  0
 20 21  1  0
 20 22  1  0
 22 23  1  0
 23 24  2  0
 24 25  1  0
 25 26  1  0
 26 27  1  0
 26 28  2  0
 22 29  2  0
 29 30  1  0
 11  3  1  0
 29 15  1  0
 28 23  1  0
M  CHG  2  10  -1  25  -1
M  END
>  <UniqueID>  (15) 
15

>  <SMILES>  (15) 
O=C(/N=c1\[n-]cccc1O)c1cccc(-c2nc[n-]n2)c1

>  <Energy>  (15) 
73.53626090256697

>  <Genealogy>  (15) 
O=C(N=c1[n-]cccc1O)c1cccc(-c2nc[n-]n2)c1 (protonated)
O=C(/N=c1\[n-]cccc1O)c1cccc(-c2nc[n-]n2)c1 (cis-trans isomerization)
O=C(/N=c1\[n-]cccc1O)c1cccc(-c2nc[n-]n2)c1 (3D coordinates assigned)
O=C(/N=c1\[n-]cccc1O)c1cccc(-c2nc[n-]n2)c1 (optimized conformer: 73.53626090256697 kcal/mol)

>  <smiles>  (15) 
O=C(N=c1[nH]cccc1O)c1cccc(-c2nc[nH]n2)c1

>  <score_type>  (15) 
oracle

>  <origin>  (15) 
adg

>  <m_score__min__energy>  (15) 
-11.109999999999999

>  <m_primary>  (15) 
energy

$$$$
15:0
     RDKit          3D

 69 73  0  0  0  0  0  0  0  0999 V2000
   54.5650   29.3730   52.9320 H   0  0  0  0  0  0  0  0  0  0  0  0
   55.0820   30.2520   53.1580 N   0  0  0  0  0  0  0  0  0  0  0  0
   56.1350   30.6250   52.5010 C   0  0  0  0  0  0  0  0  0  0  0  0
   56.9410   29.6830   51.9420 N   0  0  0  0  0  0  0  0  0  0  0  0
   58.0590   30.0170   51.2410 C   0  0  0  0  0  0  0  0  0  0  0  0
   58.6877   29.2296   50.7998 H   0  0  0  0  0  0  0  0  0  0  0  0
   58.4080   31.3630   51.0820 C   0  0  0  0  0  0  0  0  0  0  0  0
   59.5950   31.7280   50.3590 C   0  0  0  0  0  0  0  0  0  0  0  0
   60.6020   32.0170   49.7630 C   0  0  0  0  0  0  0  0  0  0  0  0
   61.8280   32.3460   49.0700 C   0  0  0  0  0  0  0  0  0  0  0  0
   61.7780   32.9060   47.7740 C   0  0  0  0  0  0  0  0  0  0  0  0
   60.4910   33.1520   47.0820 C   0  0  0  0  0  0  0  0  0  0  0  0
   60.0210   34.4580   46.8900 C   0  0  0  0  0  0  0  0  0  0  0  0
   60.5933   35.3100   47.2855 H   0  0  0  0  0  0  0  0  0  0  0  0
   58.8280   34.6820   46.1980 C   0  0  0  0  0  0  0  0  0  0  0  0
   58.4620   35.7105   46.0628 H   0  0  0  0  0  0  0  0  0  0  0  0
   58.0910   33.6070   45.6730 C   0  0  0  0  0  0  0  0  0  0  0  0
   56.8300   33.8890   44.9020 C   0  0  0  0  0  0  0  0  0  0  0  0
   56.0041   34.0737   45.6047 H   0  0  0  0  0  0  0  0  0  0  0  0
   56.9780   34.7762   44.2688 H   0  0  0  0  0  0  0  0  0  0  0  0
   56.5860   33.0232   44.2688 H   0  0  0  0  0  0  0  0  0  0  0  0
   58.5570   32.2850   45.8750 C   0  0  0  0  0  0  0  0  0  0  0  0
   57.8450   31.1050   45.3390 C   0  0  0  0  0  0  0  0  0  0  0  0
   56.6580   31.2260   44.9290 O   0  0  0  0  0  0  0  0  0  0  0  0
   58.4790   29.8130   45.3210 N   0  0  0  0  0  0  0  0  0  0  0  0
   59.8840   29.6990   44.9140 C   0  0  0  0  0  0  0  0  0  0  0  0
   59.9953   30.0870   43.8907 H   0  0  0  0  0  0  0  0  0  0  0  0
   60.5014   30.2806   45.6144 H   0  0  0  0  0  0  0  0  0  0  0  0
   60.3470   28.2360   44.9500 C   0  0  0  0  0  0  0  0  0  0  0  0
   59.9306   27.7095   44.0786 H   0  0  0  0  0  0  0  0  0  0  0  0
   61.4468   28.2254   44.9308 H   0  0  0  0  0  0  0  0  0  0  0  0
   59.9020   27.5470   46.1840 N   0  0  0  0  0  0  0  0  0  0  0  0
   60.6080   28.0450   47.3900 C   0  0  0  0  0  0  0  0  0  0  0  0
   61.6044   28.2312   46.9628 H   0  0  0  0  0  0  0  0  0  0  0  0
   59.8380   29.1490   48.1220 C   0  0  0  0  0  0  0  0  0  0  0  0
   60.4202   30.0677   48.2864 H   0  0  0  0  0  0  0  0  0  0  0  0
   58.9382   29.5907   47.6690 H   0  0  0  0  0  0  0  0  0  0  0  0
   59.7200   28.2630   49.3510 C   0  0  0  0  0  0  0  0  0  0  0  0
   60.2592   28.6429   50.2313 H   0  0  0  0  0  0  0  0  0  0  0  0
   58.7384   28.0821   49.8133 H   0  0  0  0  0  0  0  0  0  0  0  0
   60.4410   27.1440   48.6180 C   0  0  0  0  0  0  0  0  0  0  0  0
   61.3904   26.8420   49.0843 H   0  0  0  0  0  0  0  0  0  0  0  0
   59.9718   26.1540   48.5191 H   0  0  0  0  0  0  0  0  0  0  0  0
   58.4200   27.5730   46.3560 C   0  0  0  0  0  0  0  0  0  0  0  0
   58.0310   26.5711   46.1218 H   0  0  0  0  0  0  0  0  0  0  0  0
   58.2349   27.8791   47.3962 H   0  0  0  0  0  0  0  0  0  0  0  0
   57.6820   28.5940   45.4660 C   0  0  0  0  0  0  0  0  0  0  0  0
   57.5106   28.1525   44.4732 H   0  0  0  0  0  0  0  0  0  0  0  0
   56.7211   28.8493   45.9365 H   0  0  0  0  0  0  0  0  0  0  0  0
   59.7460   32.0740   46.5930 C   0  0  0  0  0  0  0  0  0  0  0  0
   60.0959   31.0468   46.7731 H   0  0  0  0  0  0  0  0  0  0  0  0
   62.9700   33.2700   47.1390 C   0  0  0  0  0  0  0  0  0  0  0  0
   62.9452   33.7277   46.1390 H   0  0  0  0  0  0  0  0  0  0  0  0
   64.1880   33.0510   47.7770 C   0  0  0  0  0  0  0  0  0  0  0  0
   65.1264   33.3271   47.2738 H   0  0  0  0  0  0  0  0  0  0  0  0
   64.2240   32.4980   49.0180 N   0  0  0  0  0  0  0  0  0  0  0  0
   65.1570   32.3410   49.4610 H   0  0  0  0  0  0  0  0  0  0  0  0
   63.0840   32.1560   49.6900 C   0  0  0  0  0  0  0  0  0  0  0  0
   63.2040   31.5430   51.0670 C   0  0  0  0  0  0  0  0  0  0  0  0
   64.2242   31.7035   51.4457 H   0  0  0  0  0  0  0  0  0  0  0  0
   62.4697   32.0215   51.7317 H   0  0  0  0  0  0  0  0  0  0  0  0
   62.9180   30.0460   51.0190 C   0  0  0  0  0  0  0  0  0  0  0  0
   62.8431   29.6540   52.0440 H   0  0  0  0  0  0  0  0  0  0  0  0
   61.9701   29.8706   50.4892 H   0  0  0  0  0  0  0  0  0  0  0  0
   63.7345   29.5335   50.4892 H   0  0  0  0  0  0  0  0  0  0  0  0
   57.5960   32.3520   51.6480 C   0  0  0  0  0  0  0  0  0  0  0  0
   57.8573   33.4142   51.5320 H   0  0  0  0  0  0  0  0  0  0  0  0
   56.4520   31.9850   52.3610 C   0  0  0  0  0  0  0  0  0  0  0  0
   55.8059   32.7546   52.8084 H   0  0  0  0  0  0  0  0  0  0  0  0
  1  2  1  0
  2  3  2  0
  3  4  1  0
  4  5  1  0
  5  6  1  0
  5  7  2  0
  7  8  1  0
  8  9  3  0
  9 10  1  0
 10 11  1  0
 11 12  1  0
 12 13  2  0
 13 14  1  0
 13 15  1  0
 15 16  1  0
 15 17  2  0
 17 18  1  0
 18 19  1  0
 18 20  1  0
 18 21  1  0
 17 22  1  0
 22 23  1  0
 23 24  2  0
 23 25  1  0
 25 26  1  0
 26 27  1  0
 26 28  1  0
 26 29  1  0
 29 30  1  0
 29 31  1  0
 29 32  1  0
 32 33  1  0
 33 34  1  0
 33 35  1  0
 35 36  1  0
 35 37  1  0
 35 38  1  0
 38 39  1  0
 38 40  1  0
 38 41  1  0
 41 42  1  0
 41 43  1  0
 32 44  1  0
 44 45  1  0
 44 46  1  0
 44 47  1  0
 47 48  1  0
 47 49  1  0
 22 50  2  0
 50 51  1  0
 11 52  2  0
 52 53  1  0
 52 54  1  0
 54 55  1  0
 54 56  2  0
 56 57  1  0
 56 58  1  0
 58 59  1  0
 59 60  1  0
 59 61  1  0
 59 62  1  0
 62 63  1  0
 62 64  1  0
 62 65  1  0
  7 66  1  0
 66 67  1  0
 66 68  2  0
 68 69  1  0
 68  3  1  0
 58 10  2  0
 50 12  1  0
 47 25  1  0
 41 33  1  0
M  CHG  2   4  -1  56   1
M  END
>  <UniqueID>  (16) 
16

>  <SMILES>  (16) 
[H]/N=c1\ccc(C#Cc2c(-c3ccc(C)c(C(=O)N4CCN(C5CCC5)CC4)c3)cc[nH+]c2CC)c[n-]1

>  <Energy>  (16) 
148.5287914756076

>  <Genealogy>  (16) 
CCc1[nH+]ccc(-c2ccc(C)c(C(=O)N3CCN(C4CCC4)CC3)c2)c1C#Cc1ccc(=N)[n-]c1 (protonated)
[H]/N=c1\ccc(C#Cc2c(-c3ccc(C)c(C(=O)N4CCN(C5CCC5)CC4)c3)cc[nH+]c2CC)c[n-]1 (cis-trans isomerization)
[H]/N=c1\ccc(C#Cc2c(-c3ccc(C)c(C(=O)N4CCN(C5CCC5)CC4)c3)cc[nH+]c2CC)c[n-]1 (3D coordinates assigned)
[H]/N=c1\ccc(C#Cc2c(-c3ccc(C)c(C(=O)N4CCN(C5CCC5)CC4)c3)cc[nH+]c2CC)c[n-]1 (nonaromatic ring conformer: 148.5287914756076 kcal/mol)

>  <smiles>  (16) 
CCc1nccc(-c2ccc(C)c(C(=O)N3CCN(C4CCC4)CC3)c2)c1C#Cc1ccc(=N)[nH]c1

>  <score_type>  (16) 
oracle

>  <origin>  (16) 
adg

>  <m_score__min__energy>  (16) 
-11.41

>  <m_primary>  (16) 
energy

$$$$
16:0
     RDKit          3D

 48 51  0  0  0  0  0  0  0  0999 V2000
   57.3410   23.0820   47.0650 O   0  0  0  0  0  0  0  0  0  0  0  0
   56.4320   23.9470   46.9420 C   0  0  0  0  0  0  0  0  0  0  0  0
   55.0530   23.5900   47.1500 N   0  0  0  0  0  0  0  0  0  0  0  0
   54.6000   22.2640   47.4710 C   0  0  0  0  0  0  0  0  0  0  0  0
   53.9630   21.4510   46.5150 C   0  0  0  0  0  0  0  0  0  0  0  0
   53.5100   20.1740   46.8640 C   0  0  0  0  0  0  0  0  0  0  0  0
   53.6740   19.7040   48.1700 C   0  0  0  0  0  0  0  0  0  0  0  0
   54.2820   20.5140   49.1330 C   0  0  0  0  0  0  0  0  0  0  0  0
   54.4720   19.9300   50.7750 Cl  0  0  0  0  0  0  0  0  0  0  0  0
   54.7360   21.7920   48.7860 C   0  0  0  0  0  0  0  0  0  0  0  0
   56.8070   25.3300   46.5760 C   0  0  0  0  0  0  0  0  0  0  0  0
   58.1200   25.7720   46.7790 C   0  0  0  0  0  0  0  0  0  0  0  0
   58.4760   27.0370   46.4390 N   0  0  0  0  0  0  0  0  0  0  0  0
   57.5740   27.9100   45.9130 C   0  0  0  0  0  0  0  0  0  0  0  0
   57.9770   29.2480   45.5510 N   0  0  0  0  0  0  0  0  0  0  0  0
   57.1160   30.0660   44.6870 C   0  0  0  0  0  0  0  0  0  0  0  0
   57.2910   31.5510   45.0130 C   0  0  0  0  0  0  0  0  0  0  0  0
   58.7170   31.9110   44.9650 N   0  0  0  0  0  0  0  0  0  0  0  0
   58.9030   33.6280   45.2330 S   0  0  0  0  0  0  0  0  0  0  0  0
   59.6460   34.2340   44.0760 O   0  0  0  0  0  0  0  0  0  0  0  0
   57.5510   34.2790   45.3170 O   0  0  0  0  0  0  0  0  0  0  0  0
   59.7900   33.9560   46.7140 C   0  0  0  0  0  0  0  0  0  0  0  0
   59.2490   34.4680   47.8850 C   0  0  0  0  0  0  0  0  0  0  0  0
   60.1900   34.5950   48.9130 C   0  0  0  0  0  0  0  0  0  0  0  0
   61.4620   34.1810   48.5400 C   0  0  0  0  0  0  0  0  0  0  0  0
   63.0100   34.1990   49.6520 Br  0  0  0  0  0  0  0  0  0  0  0  0
   61.4280   33.6570   46.9420 S   0  0  0  0  0  0  0  0  0  0  0  0
   59.4600   31.1660   45.9930 C   0  0  0  0  0  0  0  0  0  0  0  0
   59.3780   29.6630   45.7170 C   0  0  0  0  0  0  0  0  0  0  0  0
   56.2870   27.5060   45.7290 N   0  0  0  0  0  0  0  0  0  0  0  0
   55.8830   26.2490   46.0490 C   0  0  0  0  0  0  0  0  0  0  0  0
   54.6740   25.9350   45.8910 O   0  0  0  0  0  0  0  0  0  0  0  0
   54.3350   24.3480   47.1300 H   0  0  0  0  0  0  0  0  0  0  0  0
   53.8206   21.8211   45.4890 H   0  0  0  0  0  0  0  0  0  0  0  0
   53.0238   19.5387   46.1090 H   0  0  0  0  0  0  0  0  0  0  0  0
   53.3245   18.6965   48.4399 H   0  0  0  0  0  0  0  0  0  0  0  0
   55.2029   22.4313   49.5497 H   0  0  0  0  0  0  0  0  0  0  0  0
   58.8658   25.0915   47.2157 H   0  0  0  0  0  0  0  0  0  0  0  0
   57.3869   29.8913   43.6353 H   0  0  0  0  0  0  0  0  0  0  0  0
   56.0667   29.7839   44.8585 H   0  0  0  0  0  0  0  0  0  0  0  0
   56.7381   32.1533   44.2772 H   0  0  0  0  0  0  0  0  0  0  0  0
   56.9022   31.7477   46.0230 H   0  0  0  0  0  0  0  0  0  0  0  0
   58.1901   34.7453   47.9938 H   0  0  0  0  0  0  0  0  0  0  0  0
   59.9471   34.9828   49.9133 H   0  0  0  0  0  0  0  0  0  0  0  0
   60.5138   31.4811   45.9801 H   0  0  0  0  0  0  0  0  0  0  0  0
   59.0183   31.3753   46.9785 H   0  0  0  0  0  0  0  0  0  0  0  0
   59.9357   29.4324   44.7973 H   0  0  0  0  0  0  0  0  0  0  0  0
   59.8126   29.1195   46.5689 H   0  0  0  0  0  0  0  0  0  0  0  0
  1  2  2  0
  2  3  1  0
  3  4  1  0
  4  5  2  0
  5  6  1  0
  6  7  2  0
  7  8  1  0
  8  9  1  0
  8 10  2  0
  2 11  1  0
 11 12  2  0
 12 13  1  0
 13 14  2  0
 14 15  1  0
 15 16  1  0
 16 17  1  0
 17 18  1  0
 18 19  1  0
 19 20  2  0
 19 21  2  0
 19 22  1  0
 22 23  2  0
 23 24  1  0
 24 25  2  0
 25 26  1  0
 25 27  1  0
 18 28  1  0
 28 29  1  0
 14 30  1  0
 30 31  1  0
 31 32  2  0
 10  4  1  0
 31 11  1  0
 29 15  1  0
 27 22  1  0
  3 33  1  0
  5 34  1  0
  6 35  1  0
  7 36  1  0
 10 37  1  0
 12 38  1  0
 16 39  1  0
 16 40  1  0
 17 41  1  0
 17 42  1  0
 23 43  1  0
 24 44  1  0
 28 45  1  0
 28 46  1  0
 29 47  1  0
 29 48  1  0
M  CHG  1  30  -1
M  END
>  <UniqueID>  (17) 
17

>  <SMILES>  (17) 
O=C(Nc1cccc(Cl)c1)c1cnc(N2CCN(S(=O)(=O)c3ccc(Br)s3)CC2)[n-]c1=O

>  <Energy>  (17) 
86.60017381455945

>  <Genealogy>  (17) 
O=C(Nc1cccc(Cl)c1)c1cnc(N2CCN(S(=O)(=O)c3ccc(Br)s3)CC2)[n-]c1=O (protonated)
O=C(Nc1cccc(Cl)c1)c1cnc(N2CCN(S(=O)(=O)c3ccc(Br)s3)CC2)[n-]c1=O (3D coordinates assigned)
O=C(Nc1cccc(Cl)c1)c1cnc(N2CCN(S(=O)(=O)c3ccc(Br)s3)CC2)[n-]c1=O (nonaromatic ring conformer: 86.60017381455945 kcal/mol)

>  <smiles>  (17) 
O=C(Nc1cccc(Cl)c1)c1cnc(N2CCN(S(=O)(=O)c3ccc(Br)s3)CC2)[nH]c1=O

>  <score_type>  (17) 
oracle

>  <origin>  (17) 
adg

>  <m_score__min__energy>  (17) 
-9.9399999999999995

>  <m_primary>  (17) 
energy

$$$$
17:0
     RDKit          3D

 55 58  0  0  0  0  0  0  0  0999 V2000
   55.1510   29.3470   45.1570 O   0  0  0  0  0  0  0  0  0  0  0  0
   56.3770   29.4660   44.8860 C   0  0  0  0  0  0  0  0  0  0  0  0
   56.8460   30.6460   44.2190 N   0  0  0  0  0  0  0  0  0  0  0  0
   57.4910   31.7750   44.8280 C   0  0  0  0  0  0  0  0  0  0  0  0
   57.3940   33.0700   44.2880 C   0  0  0  0  0  0  0  0  0  0  0  0
   58.0260   34.1440   44.9200 C   0  0  0  0  0  0  0  0  0  0  0  0
   58.7480   33.9390   46.0980 C   0  0  0  0  0  0  0  0  0  0  0  0
   58.8310   32.6590   46.6580 C   0  0  0  0  0  0  0  0  0  0  0  0
   59.7470   32.4180   48.1450 S   0  0  0  0  0  0  0  0  0  0  0  0
   59.2420   31.2010   48.8710 O   0  0  0  0  0  0  0  0  0  0  0  0
   59.5560   33.6210   49.0280 O   0  0  0  0  0  0  0  0  0  0  0  0
   61.4440   32.2180   47.7690 N   0  0  0  0  0  0  0  0  0  0  0  0
   61.8590   33.2340   46.7790 C   0  0  0  0  0  0  0  0  0  0  0  0
   63.3850   33.4310   46.8120 C   0  0  0  0  0  0  0  0  0  0  0  0
   63.8950   33.8530   48.0720 O   0  0  0  0  0  0  0  0  0  0  0  0
   63.0290   33.5710   49.1630 C   0  0  0  0  0  0  0  0  0  0  0  0
   62.2710   32.2420   49.0030 C   0  0  0  0  0  0  0  0  0  0  0  0
   58.1950   31.5820   46.0240 C   0  0  0  0  0  0  0  0  0  0  0  0
   57.3290   28.3670   45.2070 C   0  0  0  0  0  0  0  0  0  0  0  0
   58.7070   28.5680   45.0210 C   0  0  0  0  0  0  0  0  0  0  0  0
   59.6120   27.5560   45.3150 C   0  0  0  0  0  0  0  0  0  0  0  0
   59.1470   26.3380   45.8000 C   0  0  0  0  0  0  0  0  0  0  0  0
   57.8110   26.1280   45.9970 N   0  0  0  0  0  0  0  0  0  0  0  0
   57.3690   24.8100   46.4860 C   0  0  0  0  0  0  0  0  0  0  0  0
   57.2040   23.8540   45.3340 C   0  0  0  0  0  0  0  0  0  0  0  0
   56.2220   24.0830   44.3550 C   0  0  0  0  0  0  0  0  0  0  0  0
   56.0980   23.2150   43.2660 C   0  0  0  0  0  0  0  0  0  0  0  0
   56.9540   22.1160   43.1440 C   0  0  0  0  0  0  0  0  0  0  0  0
   57.9370   21.8850   44.1100 C   0  0  0  0  0  0  0  0  0  0  0  0
   58.0660   22.7530   45.1990 C   0  0  0  0  0  0  0  0  0  0  0  0
   56.8970   27.1140   45.7050 C   0  0  0  0  0  0  0  0  0  0  0  0
   55.6650   26.9020   45.8850 O   0  0  0  0  0  0  0  0  0  0  0  0
   56.8189   33.2378   43.3654 H   0  0  0  0  0  0  0  0  0  0  0  0
   57.9548   35.1534   44.4888 H   0  0  0  0  0  0  0  0  0  0  0  0
   59.2525   34.7855   46.5867 H   0  0  0  0  0  0  0  0  0  0  0  0
   61.5460   31.2750   47.3250 H   0  0  0  0  0  0  0  0  0  0  0  0
   61.5589   32.9030   45.7738 H   0  0  0  0  0  0  0  0  0  0  0  0
   61.3727   34.1892   47.0261 H   0  0  0  0  0  0  0  0  0  0  0  0
   63.8613   32.4746   46.5506 H   0  0  0  0  0  0  0  0  0  0  0  0
   63.6141   34.2334   46.0953 H   0  0  0  0  0  0  0  0  0  0  0  0
   63.6294   33.5231   50.0834 H   0  0  0  0  0  0  0  0  0  0  0  0
   62.2785   34.3743   49.2026 H   0  0  0  0  0  0  0  0  0  0  0  0
   63.0008   31.4202   48.9575 H   0  0  0  0  0  0  0  0  0  0  0  0
   61.5977   32.1289   49.8655 H   0  0  0  0  0  0  0  0  0  0  0  0
   58.2492   30.5776   46.4692 H   0  0  0  0  0  0  0  0  0  0  0  0
   59.0717   29.5333   44.6400 H   0  0  0  0  0  0  0  0  0  0  0  0
   60.6898   27.7168   45.1652 H   0  0  0  0  0  0  0  0  0  0  0  0
   59.8629   25.5345   46.0276 H   0  0  0  0  0  0  0  0  0  0  0  0
   58.1200   24.4112   47.1839 H   0  0  0  0  0  0  0  0  0  0  0  0
   56.4021   24.9239   46.9980 H   0  0  0  0  0  0  0  0  0  0  0  0
   55.5487   24.9481   44.4459 H   0  0  0  0  0  0  0  0  0  0  0  0
   55.3259   23.3969   42.5040 H   0  0  0  0  0  0  0  0  0  0  0  0
   56.8536   21.4332   42.2875 H   0  0  0  0  0  0  0  0  0  0  0  0
   58.6097   21.0200   44.0138 H   0  0  0  0  0  0  0  0  0  0  0  0
   58.8461   22.5727   45.9533 H   0  0  0  0  0  0  0  0  0  0  0  0
  1  2  2  0
  2  3  1  0
  3  4  1  0
  4  5  2  0
  5  6  1  0
  6  7  2  0
  7  8  1  0
  8  9  1  0
  9 10  2  0
  9 11  2  0
  9 12  1  0
 12 13  1  0
 13 14  1  0
 14 15  1  0
 15 16  1  0
 16 17  1  0
  8 18  2  0
  2 19  1  0
 19 20  2  0
 20 21  1  0
 21 22  2  0
 22 23  1  0
 23 24  1  0
 24 25  1  0
 25 26  2  0
 26 27  1  0
 27 28  2  0
 28 29  1  0
 29 30  2  0
 23 31  1  0
 31 32  2  0
 18  4  1  0
 31 19  1  0
 17 12  1  0
 30 25  1  0
  5 33  1  0
  6 34  1  0
  7 35  1  0
 12 36  1  0
 13 37  1  0
 13 38  1  0
 14 39  1  0
 14 40  1  0
 16 41  1  0
 16 42  1  0
 17 43  1  0
 17 44  1  0
 18 45  1  0
 20 46  1  0
 21 47  1  0
 22 48  1  0
 24 49  1  0
 24 50  1  0
 26 51  1  0
 27 52  1  0
 28 53  1  0
 29 54  1  0
 30 55  1  0
M  CHG  2   3  -1  12   1
M  END
>  <UniqueID>  (18) 
18

>  <SMILES>  (18) 
O=C([N-]c1cccc(S(=O)(=O)[NH+]2CCOCC2)c1)c1cccn(Cc2ccccc2)c1=O

>  <Energy>  (18) 
78.78535309015516

>  <Genealogy>  (18) 
O=C([N-]c1cccc(S(=O)(=O)[NH+]2CCOCC2)c1)c1cccn(Cc2ccccc2)c1=O (protonated)
O=C([N-]c1cccc(S(=O)(=O)[NH+]2CCOCC2)c1)c1cccn(Cc2ccccc2)c1=O (3D coordinates assigned)
O=C([N-]c1cccc(S(=O)(=O)[NH+]2CCOCC2)c1)c1cccn(Cc2ccccc2)c1=O (nonaromatic ring conformer: 78.78535309015516 kcal/mol)

>  <smiles>  (18) 
O=C(Nc1cccc(S(=O)(=O)N2CCOCC2)c1)c1cccn(Cc2ccccc2)c1=O

>  <score_type>  (18) 
oracle

>  <origin>  (18) 
adg

>  <m_score__min__energy>  (18) 
-10.390000000000001

>  <m_primary>  (18) 
energy

$$$$
18:0
     RDKit          3D

 60 63  0  0  0  0  0  0  0  0999 V2000
   59.5130   28.2410   46.6890 C   0  0  0  0  0  0  0  0  0  0  0  0
   58.6080   28.5930   45.7630 C   0  0  0  0  0  0  0  0  0  0  0  0
   57.9800   27.7500   44.8320 C   0  0  0  0  0  0  0  0  0  0  0  0
   57.9140   26.4070   44.7610 C   0  0  0  0  0  0  0  0  0  0  0  0
   57.2440   25.5300   45.7370 C   0  0  0  0  0  0  0  0  0  0  0  0
   57.8190   24.4740   46.3420 N   0  0  0  0  0  0  0  0  0  0  0  0
   56.8850   24.0790   47.2350 C   0  0  0  0  0  0  0  0  0  0  0  0
   57.0490   23.0910   47.9960 O   0  0  0  0  0  0  0  0  0  0  0  0
   55.7650   24.8350   47.2550 N   0  0  0  0  0  0  0  0  0  0  0  0
   56.0160   25.7560   46.3110 C   0  0  0  0  0  0  0  0  0  0  0  0
   55.1430   26.7870   45.9830 O   0  0  0  0  0  0  0  0  0  0  0  0
   57.3590   28.5810   43.9140 C   0  0  0  0  0  0  0  0  0  0  0  0
   57.5510   29.8750   44.3510 C   0  0  0  0  0  0  0  0  0  0  0  0
   57.0190   31.0930   43.6570 C   0  0  0  0  0  0  0  0  0  0  0  0
   58.3070   29.8870   45.4720 N   0  0  0  0  0  0  0  0  0  0  0  0
   58.7310   31.0590   46.1910 C   0  0  0  0  0  0  0  0  0  0  0  0
   57.7850   31.9250   46.7600 C   0  0  0  0  0  0  0  0  0  0  0  0
   58.2020   33.0550   47.4700 C   0  0  0  0  0  0  0  0  0  0  0  0
   59.5700   33.3400   47.6090 C   0  0  0  0  0  0  0  0  0  0  0  0
   60.0140   34.5320   48.4090 C   0  0  0  0  0  0  0  0  0  0  0  0
   59.8370   34.2600   49.8400 N   0  0  0  0  0  0  0  0  0  0  0  0
   60.4870   32.9940   50.2070 C   0  0  0  0  0  0  0  0  0  0  0  0
   59.4660   31.9900   50.6770 C   0  0  0  0  0  0  0  0  0  0  0  0
   58.3040   32.3850   50.9730 O   0  0  0  0  0  0  0  0  0  0  0  0
   59.7760   30.5820   50.7500 N   0  0  0  0  0  0  0  0  0  0  0  0
   58.9160   29.6810   51.5250 C   0  0  0  0  0  0  0  0  0  0  0  0
   59.7600   28.5360   52.0950 C   0  0  0  0  0  0  0  0  0  0  0  0
   60.4560   27.7600   51.0390 N   0  0  0  0  0  0  0  0  0  0  0  0
   61.6840   27.1500   51.5720 C   0  0  0  0  0  0  0  0  0  0  0  0
   60.7260   28.5130   49.7880 C   0  0  0  0  0  0  0  0  0  0  0  0
   60.9200   30.0190   50.0190 C   0  0  0  0  0  0  0  0  0  0  0  0
   60.5150   32.4660   47.0510 C   0  0  0  0  0  0  0  0  0  0  0  0
   60.0980   31.3360   46.3420 C   0  0  0  0  0  0  0  0  0  0  0  0
   59.9333   29.0010   47.3641 H   0  0  0  0  0  0  0  0  0  0  0  0
   59.8346   27.1924   46.7731 H   0  0  0  0  0  0  0  0  0  0  0  0
   58.4016   25.9237   43.9015 H   0  0  0  0  0  0  0  0  0  0  0  0
   56.8165   28.2686   43.0095 H   0  0  0  0  0  0  0  0  0  0  0  0
   56.6968   31.8307   44.4066 H   0  0  0  0  0  0  0  0  0  0  0  0
   57.8080   31.5304   43.0276 H   0  0  0  0  0  0  0  0  0  0  0  0
   56.1619   30.8114   43.0276 H   0  0  0  0  0  0  0  0  0  0  0  0
   56.7113   31.7141   46.6471 H   0  0  0  0  0  0  0  0  0  0  0  0
   57.4549   33.7240   47.9219 H   0  0  0  0  0  0  0  0  0  0  0  0
   61.0754   34.7355   48.2039 H   0  0  0  0  0  0  0  0  0  0  0  0
   59.4094   35.4064   48.1265 H   0  0  0  0  0  0  0  0  0  0  0  0
   58.8090   34.1570   50.0150 H   0  0  0  0  0  0  0  0  0  0  0  0
   61.0136   32.5904   49.3296 H   0  0  0  0  0  0  0  0  0  0  0  0
   61.1988   33.1846   51.0237 H   0  0  0  0  0  0  0  0  0  0  0  0
   58.4494   30.2389   52.3502 H   0  0  0  0  0  0  0  0  0  0  0  0
   58.1322   29.2696   50.8720 H   0  0  0  0  0  0  0  0  0  0  0  0
   60.5134   28.9588   52.7760 H   0  0  0  0  0  0  0  0  0  0  0  0
   59.0793   27.8492   52.6193 H   0  0  0  0  0  0  0  0  0  0  0  0
   61.6536   27.1651   52.6715 H   0  0  0  0  0  0  0  0  0  0  0  0
   61.7588   26.1100   51.2215 H   0  0  0  0  0  0  0  0  0  0  0  0
   62.5579   27.7187   51.2215 H   0  0  0  0  0  0  0  0  0  0  0  0
   61.6396   28.1093   49.3271 H   0  0  0  0  0  0  0  0  0  0  0  0
   59.8473   28.3923   49.1373 H   0  0  0  0  0  0  0  0  0  0  0  0
   61.8374   30.1797   50.6042 H   0  0  0  0  0  0  0  0  0  0  0  0
   60.9985   30.5202   49.0430 H   0  0  0  0  0  0  0  0  0  0  0  0
   61.5889   32.6710   47.1720 H   0  0  0  0  0  0  0  0  0  0  0  0
   60.8453   30.6605   45.9002 H   0  0  0  0  0  0  0  0  0  0  0  0
  1  2  2  0
  2  3  1  0
  3  4  2  3
  4  5  1  0
  5  6  1  0
  6  7  1  0
  7  8  2  0
  7  9  1  0
  9 10  1  0
 10 11  1  0
  3 12  1  0
 12 13  2  0
 13 14  1  0
 13 15  1  0
 15 16  1  0
 16 17  2  0
 17 18  1  0
 18 19  2  0
 19 20  1  0
 20 21  1  0
 21 22  1  0
 22 23  1  0
 23 24  2  0
 23 25  1  0
 25 26  1  0
 26 27  1  0
 27 28  1  0
 28 29  1  0
 28 30  1  0
 30 31  1  0
 19 32  1  0
 32 33  2  0
 15  2  1  0
 33 16  1  0
 10  5  2  0
 31 25  1  0
  1 34  1  0
  1 35  1  0
  4 36  1  0
 12 37  1  0
 14 38  1  0
 14 39  1  0
 14 40  1  0
 17 41  1  0
 18 42  1  0
 20 43  1  0
 20 44  1  0
 21 45  1  0
 22 46  1  0
 22 47  1  0
 26 48  1  0
 26 49  1  0
 27 50  1  0
 27 51  1  0
 29 52  1  0
 29 53  1  0
 29 54  1  0
 30 55  1  0
 30 56  1  0
 31 57  1  0
 31 58  1  0
 32 59  1  0
 33 60  1  0
M  CHG  3   6  -1   9  -1  11  -1
M  END
>  <UniqueID>  (19) 
19

>  <SMILES>  (19) 
C=c1c(=Cc2[n-]c(=O)[n-]c2[O-])cc(C)n1-c1ccc(CNCC(=O)N2CCN(C)CC2)cc1

>  <Energy>  (19) 
142.46988868820975

>  <Genealogy>  (19) 
C=c1c(=Cc2[n-]c(=O)[n-]c2[O-])cc(C)n1-c1ccc(CNCC(=O)N2CCN(C)CC2)cc1 (protonated)
C=c1c(=Cc2[n-]c(=O)[n-]c2[O-])cc(C)n1-c1ccc(CNCC(=O)N2CCN(C)CC2)cc1 (3D coordinates assigned)
C=c1c(=Cc2[n-]c(=O)[n-]c2[O-])cc(C)n1-c1ccc(CNCC(=O)N2CCN(C)CC2)cc1 (nonaromatic ring conformer: 142.46988868820975 kcal/mol)

>  <smiles>  (19) 
C=c1c(=Cc2[nH]c(=O)[nH]c2O)cc(C)n1-c1ccc(CNCC(=O)N2CCN(C)CC2)cc1

>  <score_type>  (19) 
oracle

>  <origin>  (19) 
adg

>  <m_score__min__energy>  (19) 
-16.059999999999999

>  <m_primary>  (19) 
energy

$$$$
19:0
     RDKit          3D

 30 31  0  0  0  0  0  0  0  0999 V2000
   56.8578   23.8996   45.8134 H   0  0  0  0  0  0  0  0  0  0  0  0
   56.1130   24.7090   45.8170 C   0  0  0  0  0  0  0  0  0  0  0  0
   54.7660   24.6280   45.5350 C   0  0  0  0  0  0  0  0  0  0  0  0
   54.0100   23.3740   45.2260 C   0  0  0  0  0  0  0  0  0  0  0  0
   54.0276   22.7148   46.1064 H   0  0  0  0  0  0  0  0  0  0  0  0
   54.4850   22.8753   44.3683 H   0  0  0  0  0  0  0  0  0  0  0  0
   52.5630   23.6950   44.8690 C   0  0  0  0  0  0  0  0  0  0  0  0
   51.9779   23.8248   45.7914 H   0  0  0  0  0  0  0  0  0  0  0  0
   52.5280   24.6227   44.2790 H   0  0  0  0  0  0  0  0  0  0  0  0
   52.1390   22.8691   44.2790 H   0  0  0  0  0  0  0  0  0  0  0  0
   54.1970   25.8430   45.6550 N   0  0  0  0  0  0  0  0  0  0  0  0
   55.1390   26.7090   45.9940 N   0  0  0  0  0  0  0  0  0  0  0  0
   56.3070   26.0450   46.1050 C   0  0  0  0  0  0  0  0  0  0  0  0
   57.5820   26.6870   46.4680 C   0  0  0  0  0  0  0  0  0  0  0  0
   58.5670   25.9670   46.7790 O   0  0  0  0  0  0  0  0  0  0  0  0
   57.7060   28.1140   46.5590 N   0  0  0  0  0  0  0  0  0  0  0  0
   57.6530   28.9720   45.5770 C   0  0  0  0  0  0  0  0  0  0  0  0
   58.4150   30.1590   45.5700 C   0  0  0  0  0  0  0  0  0  0  0  0
   59.0861   30.3895   46.4106 H   0  0  0  0  0  0  0  0  0  0  0  0
   58.3140   31.0390   44.4930 C   0  0  0  0  0  0  0  0  0  0  0  0
   58.9212   31.9560   44.4741 H   0  0  0  0  0  0  0  0  0  0  0  0
   57.4410   30.7570   43.4360 C   0  0  0  0  0  0  0  0  0  0  0  0
   57.3550   31.6740   42.2540 C   0  0  0  0  0  0  0  0  0  0  0  0
   57.2576   32.7129   42.6022 H   0  0  0  0  0  0  0  0  0  0  0  0
   58.2664   31.5750   41.6461 H   0  0  0  0  0  0  0  0  0  0  0  0
   56.4779   31.4073   41.6461 H   0  0  0  0  0  0  0  0  0  0  0  0
   56.6980   29.5710   43.4750 C   0  0  0  0  0  0  0  0  0  0  0  0
   56.0199   29.3237   42.6449 H   0  0  0  0  0  0  0  0  0  0  0  0
   56.8090   28.7220   44.5330 N   0  0  0  0  0  0  0  0  0  0  0  0
   56.2340   27.8490   44.5310 H   0  0  0  0  0  0  0  0  0  0  0  0
  1  2  1  0
  2  3  1  0
  3  4  1  0
  4  5  1  0
  4  6  1  0
  4  7  1  0
  7  8  1  0
  7  9  1  0
  7 10  1  0
  3 11  2  0
 11 12  1  0
 12 13  1  0
 13 14  1  0
 14 15  2  0
 14 16  1  0
 16 17  2  0
 17 18  1  0
 18 19  1  0
 18 20  2  0
 20 21  1  0
 20 22  1  0
 22 23  1  0
 23 24  1  0
 23 25  1  0
 23 26  1  0
 22 27  2  0
 27 28  1  0
 27 29  1  0
 29 30  1  0
 13  2  2  0
 29 17  1  0
M  CHG  1  12  -1
M  END
>  <UniqueID>  (20) 
20

>  <SMILES>  (20) 
CCc1cc(C(=O)/N=c2\ccc(C)c[nH]2)[n-]n1

>  <Energy>  (20) 
63.45138499419611

>  <Genealogy>  (20) 
CCc1cc(C(=O)N=c2ccc(C)c[nH]2)[n-]n1 (protonated)
CCc1cc(C(=O)/N=c2\ccc(C)c[nH]2)[n-]n1 (cis-trans isomerization)
CCc1cc(C(=O)/N=c2\ccc(C)c[nH]2)[n-]n1 (3D coordinates assigned)
CCc1cc(C(=O)/N=c2\ccc(C)c[nH]2)[n-]n1 (optimized conformer: 63.45138499419611 kcal/mol)

>  <smiles>  (20) 
CCc1cc(C(=O)N=c2ccc(C)c[nH]2)[nH]n1

>  <score_type>  (20) 
oracle

>  <origin>  (20) 
adg

>  <m_score__min__energy>  (20) 
-8.9499999999999993

>  <m_primary>  (20) 
energy

$$$$
20:0
     RDKit          3D

 36 38  0  0  0  0  0  0  0  0999 V2000
   59.4780   34.9070   44.1240 H   0  0  0  0  0  0  0  0  0  0  0  0
   58.8580   34.5210   44.8730 N   0  0  0  0  0  0  0  0  0  0  0  0
   58.6270   33.2540   44.9710 C   0  0  0  0  0  0  0  0  0  0  0  0
   59.0220   32.5690   46.0760 N   0  0  0  0  0  0  0  0  0  0  0  0
   58.7980   31.2330   46.2050 C   0  0  0  0  0  0  0  0  0  0  0  0
   59.1960   30.5720   47.4670 C   0  0  0  0  0  0  0  0  0  0  0  0
   59.8890   29.3500   47.4130 C   0  0  0  0  0  0  0  0  0  0  0  0
   60.1446   28.9094   46.4381 H   0  0  0  0  0  0  0  0  0  0  0  0
   60.2550   28.6920   48.5890 C   0  0  0  0  0  0  0  0  0  0  0  0
   60.8042   27.7403   48.5376 H   0  0  0  0  0  0  0  0  0  0  0  0
   59.9250   29.2400   49.8300 C   0  0  0  0  0  0  0  0  0  0  0  0
   60.2870   28.5810   50.9990 O   0  0  0  0  0  0  0  0  0  0  0  0
   59.2310   30.4520   49.8960 C   0  0  0  0  0  0  0  0  0  0  0  0
   58.9675   30.8775   50.8756 H   0  0  0  0  0  0  0  0  0  0  0  0
   58.8690   31.1280   48.7250 C   0  0  0  0  0  0  0  0  0  0  0  0
   58.2080   32.3520   48.8450 O   0  0  0  0  0  0  0  0  0  0  0  0
   58.1300   33.0120   48.0820 H   0  0  0  0  0  0  0  0  0  0  0  0
   58.1350   30.5400   45.1660 C   0  0  0  0  0  0  0  0  0  0  0  0
   57.8930   29.0770   45.2100 C   0  0  0  0  0  0  0  0  0  0  0  0
   58.9140   28.1730   44.8740 C   0  0  0  0  0  0  0  0  0  0  0  0
   59.9005   28.5519   44.5687 H   0  0  0  0  0  0  0  0  0  0  0  0
   58.6850   26.7960   44.9250 C   0  0  0  0  0  0  0  0  0  0  0  0
   59.4939   26.0966   44.6672 H   0  0  0  0  0  0  0  0  0  0  0  0
   57.4230   26.2990   45.3050 C   0  0  0  0  0  0  0  0  0  0  0  0
   57.1490   24.9240   45.3730 O   0  0  0  0  0  0  0  0  0  0  0  0
   56.7150   24.1340   44.2700 C   0  0  0  0  0  0  0  0  0  0  0  0
   56.2166   23.2268   44.6423 H   0  0  0  0  0  0  0  0  0  0  0  0
   56.0094   24.7150   43.6580 H   0  0  0  0  0  0  0  0  0  0  0  0
   57.5838   23.8501   43.6580 H   0  0  0  0  0  0  0  0  0  0  0  0
   56.4010   27.2020   45.6270 C   0  0  0  0  0  0  0  0  0  0  0  0
   55.1480   26.7310   46.0020 O   0  0  0  0  0  0  0  0  0  0  0  0
   56.6320   28.5810   45.5760 C   0  0  0  0  0  0  0  0  0  0  0  0
   55.8204   29.2807   45.8243 H   0  0  0  0  0  0  0  0  0  0  0  0
   57.7250   31.2750   44.0460 C   0  0  0  0  0  0  0  0  0  0  0  0
   57.1939   30.7711   43.2251 H   0  0  0  0  0  0  0  0  0  0  0  0
   57.9800   32.6060   43.9690 N   0  0  0  0  0  0  0  0  0  0  0  0
  1  2  1  0
  2  3  2  0
  3  4  1  0
  4  5  2  0
  5  6  1  0
  6  7  2  0
  7  8  1  0
  7  9  1  0
  9 10  1  0
  9 11  2  0
 11 12  1  0
 11 13  1  0
 13 14  1  0
 13 15  2  0
 15 16  1  0
 16 17  1  0
  5 18  1  0
 18 19  1  0
 19 20  2  0
 20 21  1  0
 20 22  1  0
 22 23  1  0
 22 24  2  0
 24 25  1  0
 25 26  1  0
 26 27  1  0
 26 28  1  0
 26 29  1  0
 24 30  1  0
 30 31  1  0
 30 32  2  0
 32 33  1  0
 18 34  2  0
 34 35  1  0
 34 36  1  0
 36  3  1  0
 15  6  1  0
 32 19  1  0
M  CHG  3  12  -1  31  -1  36  -1
M  END
>  <UniqueID>  (21) 
21

>  <SMILES>  (21) 
[H]/N=c1\nc(-c2ccc([O-])cc2O)c(-c2ccc(OC)c([O-])c2)c[n-]1

>  <Energy>  (21) 
52.57923825955681

>  <Genealogy>  (21) 
COc1ccc(-c2c[n-]c(=N)nc2-c2ccc([O-])cc2O)cc1[O-] (protonated)
[H]/N=c1\nc(-c2ccc([O-])cc2O)c(-c2ccc(OC)c([O-])c2)c[n-]1 (cis-trans isomerization)
[H]/N=c1\nc(-c2ccc([O-])cc2O)c(-c2ccc(OC)c([O-])c2)c[n-]1 (3D coordinates assigned)
[H]/N=c1\nc(-c2ccc([O-])cc2O)c(-c2ccc(OC)c([O-])c2)c[n-]1 (optimized conformer: 52.57923825955681 kcal/mol)

>  <smiles>  (21) 
COc1ccc(-c2c[nH]c(=N)nc2-c2ccc(O)cc2O)cc1O

>  <score_type>  (21) 
oracle

>  <origin>  (21) 
adg

>  <m_score__min__energy>  (21) 
-11.17

>  <m_primary>  (21) 
energy

$$$$
21:0
     RDKit          3D

 60 64  0  0  0  0  0  0  0  0999 V2000
   61.0090   27.1040   46.6250 O   0  0  0  0  0  0  0  0  0  0  0  0
   60.2190   27.5070   47.5200 C   0  0  0  0  0  0  0  0  0  0  0  0
   60.7300   28.3650   48.5510 N   0  0  0  0  0  0  0  0  0  0  0  0
   60.2260   29.5030   48.9280 C   0  0  0  0  0  0  0  0  0  0  0  0
   59.5280   29.6870   50.0710 N   0  0  0  0  0  0  0  0  0  0  0  0
   59.1550   30.9860   50.2230 C   0  0  0  0  0  0  0  0  0  0  0  0
   59.5620   31.8310   49.1940 C   0  0  0  0  0  0  0  0  0  0  0  0
   59.3720   33.3140   49.1540 C   0  0  0  0  0  0  0  0  0  0  0  0
   59.2390   33.7780   47.7290 C   0  0  0  0  0  0  0  0  0  0  0  0
   59.8280   34.9850   47.3230 C   0  0  0  0  0  0  0  0  0  0  0  0
   59.6500   35.4480   46.0170 C   0  0  0  0  0  0  0  0  0  0  0  0
   58.8830   34.7110   45.1100 C   0  0  0  0  0  0  0  0  0  0  0  0
   58.2960   33.5000   45.4970 C   0  0  0  0  0  0  0  0  0  0  0  0
   57.5120   32.8050   44.5640 O   0  0  0  0  0  0  0  0  0  0  0  0
   57.4520   31.4100   44.4320 C   0  0  0  0  0  0  0  0  0  0  0  0
   58.6130   30.6610   44.6670 C   0  0  0  0  0  0  0  0  0  0  0  0
   58.5860   29.2660   44.5660 C   0  0  0  0  0  0  0  0  0  0  0  0
   57.3960   28.6100   44.2420 C   0  0  0  0  0  0  0  0  0  0  0  0
   56.2310   29.3470   44.0180 C   0  0  0  0  0  0  0  0  0  0  0  0
   56.2540   30.7430   44.1200 C   0  0  0  0  0  0  0  0  0  0  0  0
   58.4590   33.0470   46.8180 C   0  0  0  0  0  0  0  0  0  0  0  0
   60.4350   30.9320   48.0700 S   0  0  0  0  0  0  0  0  0  0  0  0
   58.8230   27.1780   47.4430 N   0  0  0  0  0  0  0  0  0  0  0  0
   58.3160   26.0340   46.7330 C   0  0  0  0  0  0  0  0  0  0  0  0
   58.6480   25.8060   45.3860 C   0  0  0  0  0  0  0  0  0  0  0  0
   58.1490   24.6870   44.7180 C   0  0  0  0  0  0  0  0  0  0  0  0
   57.3170   23.7840   45.3830 C   0  0  0  0  0  0  0  0  0  0  0  0
   56.9850   23.9880   46.7340 C   0  0  0  0  0  0  0  0  0  0  0  0
   56.1090   23.0320   47.4470 C   0  0  0  0  0  0  0  0  0  0  0  0
   56.5720   21.9190   47.8100 O   0  0  0  0  0  0  0  0  0  0  0  0
   54.7270   23.3170   47.7010 N   0  0  0  0  0  0  0  0  0  0  0  0
   53.6750   23.3150   46.7230 C   0  0  0  0  0  0  0  0  0  0  0  0
   52.7980   22.2220   46.5930 C   0  0  0  0  0  0  0  0  0  0  0  0
   51.7960   22.2360   45.6180 C   0  0  0  0  0  0  0  0  0  0  0  0
   51.6690   23.3320   44.7610 C   0  0  0  0  0  0  0  0  0  0  0  0
   52.5480   24.4130   44.8710 C   0  0  0  0  0  0  0  0  0  0  0  0
   53.5530   24.4040   45.8450 C   0  0  0  0  0  0  0  0  0  0  0  0
   54.4260   25.4830   45.9410 O   0  0  0  0  0  0  0  0  0  0  0  0
   57.5060   25.1070   47.4070 C   0  0  0  0  0  0  0  0  0  0  0  0
   58.5779   31.3407   51.0897 H   0  0  0  0  0  0  0  0  0  0  0  0
   58.4608   33.5795   49.7100 H   0  0  0  0  0  0  0  0  0  0  0  0
   60.2447   33.8021   49.6125 H   0  0  0  0  0  0  0  0  0  0  0  0
   60.4312   35.5680   48.0345 H   0  0  0  0  0  0  0  0  0  0  0  0
   60.1142   36.3941   45.7018 H   0  0  0  0  0  0  0  0  0  0  0  0
   58.7396   35.0848   44.0855 H   0  0  0  0  0  0  0  0  0  0  0  0
   59.5500   31.1725   44.9322 H   0  0  0  0  0  0  0  0  0  0  0  0
   59.5032   28.6848   44.7420 H   0  0  0  0  0  0  0  0  0  0  0  0
   57.3765   27.5130   44.1633 H   0  0  0  0  0  0  0  0  0  0  0  0
   55.2946   28.8301   43.7612 H   0  0  0  0  0  0  0  0  0  0  0  0
   55.3320   31.3200   43.9556 H   0  0  0  0  0  0  0  0  0  0  0  0
   57.9727   32.1144   47.1400 H   0  0  0  0  0  0  0  0  0  0  0  0
   58.1350   27.8780   47.8020 H   0  0  0  0  0  0  0  0  0  0  0  0
   59.3039   26.5127   44.8564 H   0  0  0  0  0  0  0  0  0  0  0  0
   58.4120   24.5157   43.6637 H   0  0  0  0  0  0  0  0  0  0  0  0
   56.9196   22.9092   44.8476 H   0  0  0  0  0  0  0  0  0  0  0  0
   52.9012   21.3539   47.2606 H   0  0  0  0  0  0  0  0  0  0  0  0
   51.1071   21.3834   45.5256 H   0  0  0  0  0  0  0  0  0  0  0  0
   50.8761   23.3442   43.9986 H   0  0  0  0  0  0  0  0  0  0  0  0
   52.4498   25.2721   44.1911 H   0  0  0  0  0  0  0  0  0  0  0  0
   57.2765   25.2574   48.4722 H   0  0  0  0  0  0  0  0  0  0  0  0
  1  2  2  0
  2  3  1  0
  3  4  2  3
  4  5  1  0
  5  6  1  0
  6  7  2  0
  7  8  1  0
  8  9  1  0
  9 10  2  0
 10 11  1  0
 11 12  2  0
 12 13  1  0
 13 14  1  0
 14 15  1  0
 15 16  2  0
 16 17  1  0
 17 18  2  0
 18 19  1  0
 19 20  2  0
 13 21  2  0
  7 22  1  0
  2 23  1  0
 23 24  1  0
 24 25  2  0
 25 26  1  0
 26 27  2  0
 27 28  1  0
 28 29  1  0
 29 30  2  0
 29 31  1  0
 31 32  1  0
 32 33  2  0
 33 34  1  0
 34 35  2  0
 35 36  1  0
 36 37  2  0
 37 38  1  0
 28 39  2  0
 22  4  1  0
 39 24  1  0
 21  9  1  0
 37 32  1  0
 20 15  1  0
  6 40  1  0
  8 41  1  0
  8 42  1  0
 10 43  1  0
 11 44  1  0
 12 45  1  0
 16 46  1  0
 17 47  1  0
 18 48  1  0
 19 49  1  0
 20 50  1  0
 21 51  1  0
 23 52  1  0
 25 53  1  0
 26 54  1  0
 27 55  1  0
 33 56  1  0
 34 57  1  0
 35 58  1  0
 36 59  1  0
 39 60  1  0
M  CHG  3   5  -1  31  -1  38  -1
M  END
>  <UniqueID>  (22) 
22

>  <SMILES>  (22) 
O=C(N=c1[n-]cc(Cc2cccc(Oc3ccccc3)c2)s1)Nc1cccc(C(=O)[N-]c2ccccc2[O-])c1

>  <Energy>  (22) 
115.58030028246156

>  <Genealogy>  (22) 
O=C(N=c1[n-]cc(Cc2cccc(Oc3ccccc3)c2)s1)Nc1cccc(C(=O)[N-]c2ccccc2[O-])c1 (protonated)
O=C(N=c1[n-]cc(Cc2cccc(Oc3ccccc3)c2)s1)Nc1cccc(C(=O)[N-]c2ccccc2[O-])c1 (3D coordinates assigned)
O=C(N=c1[n-]cc(Cc2cccc(Oc3ccccc3)c2)s1)Nc1cccc(C(=O)[N-]c2ccccc2[O-])c1 (optimized conformer: 115.58030028246156 kcal/mol)

>  <smiles>  (22) 
O=C(N=c1[nH]cc(Cc2cccc(Oc3ccccc3)c2)s1)Nc1cccc(C(=O)Nc2ccccc2O)c1

>  <score_type>  (22) 
oracle

>  <origin>  (22) 
adg

>  <m_score__min__energy>  (22) 
-17.16

>  <m_primary>  (22) 
energy

$$$$
22:0
     RDKit          3D

 50 53  0  0  0  0  0  0  0  0999 V2000
   60.7270   27.7900   49.6960 O   0  0  0  0  0  0  0  0  0  0  0  0
   60.4290   28.8830   49.1450 C   0  0  0  0  0  0  0  0  0  0  0  0
   60.8000   30.1070   49.7910 N   0  0  0  0  0  0  0  0  0  0  0  0
   62.1710   30.4720   50.1260 C   0  0  0  0  0  0  0  0  0  0  0  0
   62.6080   31.6300   49.2800 C   0  0  0  0  0  0  0  0  0  0  0  0
   62.5970   31.5310   47.8800 C   0  0  0  0  0  0  0  0  0  0  0  0
   63.0180   32.6090   47.0950 C   0  0  0  0  0  0  0  0  0  0  0  0
   63.4410   33.7940   47.7020 C   0  0  0  0  0  0  0  0  0  0  0  0
   63.4370   33.9060   49.0950 C   0  0  0  0  0  0  0  0  0  0  0  0
   63.0170   32.8310   49.8830 C   0  0  0  0  0  0  0  0  0  0  0  0
   59.7420   28.8660   47.8400 C   0  0  0  0  0  0  0  0  0  0  0  0
   60.2180   29.6430   46.7730 C   0  0  0  0  0  0  0  0  0  0  0  0
   59.5730   29.6120   45.5340 C   0  0  0  0  0  0  0  0  0  0  0  0
   58.4280   28.8200   45.3520 C   0  0  0  0  0  0  0  0  0  0  0  0
   57.7820   28.7310   43.9980 C   0  0  0  0  0  0  0  0  0  0  0  0
   56.3260   29.7640   43.9300 S   0  0  0  0  0  0  0  0  0  0  0  0
   56.0040   30.0920   42.5000 O   0  0  0  0  0  0  0  0  0  0  0  0
   55.1630   29.0230   44.5250 O   0  0  0  0  0  0  0  0  0  0  0  0
   56.5850   31.2240   44.8340 N   0  0  0  0  0  0  0  0  0  0  0  0
   57.6220   32.1650   44.5340 C   0  0  0  0  0  0  0  0  0  0  0  0
   57.9340   32.3980   43.3350 O   0  0  0  0  0  0  0  0  0  0  0  0
   58.3330   32.8590   45.6280 C   0  0  0  0  0  0  0  0  0  0  0  0
   59.2320   33.9220   45.3370 C   0  0  0  0  0  0  0  0  0  0  0  0
   59.9310   34.5780   46.3670 C   0  0  0  0  0  0  0  0  0  0  0  0
   59.7130   34.1440   47.6700 C   0  0  0  0  0  0  0  0  0  0  0  0
   60.2830   34.5860   48.7980 N   0  0  0  0  0  0  0  0  0  0  0  0
   59.7390   33.7950   49.7530 C   0  0  0  0  0  0  0  0  0  0  0  0
   60.0340   33.8970   50.9730 O   0  0  0  0  0  0  0  0  0  0  0  0
   58.8550   32.8770   49.2860 N   0  0  0  0  0  0  0  0  0  0  0  0
   58.8590   33.1230   47.9640 C   0  0  0  0  0  0  0  0  0  0  0  0
   58.1440   32.4550   46.9720 C   0  0  0  0  0  0  0  0  0  0  0  0
   57.9410   28.0570   46.4240 C   0  0  0  0  0  0  0  0  0  0  0  0
   58.5880   28.0890   47.6630 C   0  0  0  0  0  0  0  0  0  0  0  0
   62.2250   30.7543   51.1878 H   0  0  0  0  0  0  0  0  0  0  0  0
   62.8324   29.6136   49.9373 H   0  0  0  0  0  0  0  0  0  0  0  0
   62.2561   30.6025   47.3987 H   0  0  0  0  0  0  0  0  0  0  0  0
   63.0161   32.5238   45.9983 H   0  0  0  0  0  0  0  0  0  0  0  0
   63.7773   34.6391   47.0834 H   0  0  0  0  0  0  0  0  0  0  0  0
   63.7649   34.8415   49.5718 H   0  0  0  0  0  0  0  0  0  0  0  0
   63.0066   32.9256   50.9789 H   0  0  0  0  0  0  0  0  0  0  0  0
   61.1038   30.2800   46.9127 H   0  0  0  0  0  0  0  0  0  0  0  0
   59.9638   30.2104   44.6978 H   0  0  0  0  0  0  0  0  0  0  0  0
   58.4983   29.0643   43.2326 H   0  0  0  0  0  0  0  0  0  0  0  0
   57.4868   27.6877   43.8126 H   0  0  0  0  0  0  0  0  0  0  0  0
   59.3828   34.2353   44.2934 H   0  0  0  0  0  0  0  0  0  0  0  0
   60.6244   35.4038   46.1495 H   0  0  0  0  0  0  0  0  0  0  0  0
   60.9900   35.3460   48.9120 H   0  0  0  0  0  0  0  0  0  0  0  0
   57.4529   31.6376   47.2255 H   0  0  0  0  0  0  0  0  0  0  0  0
   57.0465   27.4311   46.2891 H   0  0  0  0  0  0  0  0  0  0  0  0
   58.1898   27.5016   48.5035 H   0  0  0  0  0  0  0  0  0  0  0  0
  1  2  2  0
  2  3  1  0
  3  4  1  0
  4  5  1  0
  5  6  2  0
  6  7  1  0
  7  8  2  0
  8  9  1  0
  9 10  2  0
  2 11  1  0
 11 12  2  0
 12 13  1  0
 13 14  2  0
 14 15  1  0
 15 16  1  0
 16 17  2  0
 16 18  2  0
 16 19  1  0
 19 20  1  0
 20 21  2  0
 20 22  1  0
 22 23  2  0
 23 24  1  0
 24 25  2  0
 25 26  1  0
 26 27  1  0
 27 28  2  0
 27 29  1  0
 29 30  1  0
 30 31  2  0
 14 32  1  0
 32 33  2  0
 10  5  1  0
 33 11  1  0
 31 22  1  0
 30 25  1  0
  4 34  1  0
  4 35  1  0
  6 36  1  0
  7 37  1  0
  8 38  1  0
  9 39  1  0
 10 40  1  0
 12 41  1  0
 13 42  1  0
 15 43  1  0
 15 44  1  0
 23 45  1  0
 24 46  1  0
 26 47  1  0
 31 48  1  0
 32 49  1  0
 33 50  1  0
M  CHG  3   3  -1  19  -1  29  -1
M  END
>  <UniqueID>  (23) 
23

>  <SMILES>  (23) 
O=C([N-]Cc1ccccc1)c1ccc(CS(=O)(=O)[N-]C(=O)c2ccc3[nH]c(=O)[n-]c3c2)cc1

>  <Energy>  (23) 
85.09885488467212

>  <Genealogy>  (23) 
O=C([N-]Cc1ccccc1)c1ccc(CS(=O)(=O)[N-]C(=O)c2ccc3[nH]c(=O)[n-]c3c2)cc1 (protonated)
O=C([N-]Cc1ccccc1)c1ccc(CS(=O)(=O)[N-]C(=O)c2ccc3[nH]c(=O)[n-]c3c2)cc1 (3D coordinates assigned)
O=C([N-]Cc1ccccc1)c1ccc(CS(=O)(=O)[N-]C(=O)c2ccc3[nH]c(=O)[n-]c3c2)cc1 (optimized conformer: 85.09885488467212 kcal/mol)

>  <smiles>  (23) 
O=C(NCc1ccccc1)c1ccc(CS(=O)(=O)NC(=O)c2ccc3[nH]c(=O)[nH]c3c2)cc1

>  <score_type>  (23) 
oracle

>  <origin>  (23) 
adg

>  <m_score__min__energy>  (23) 
-13.800000000000001

>  <m_primary>  (23) 
energy

$$$$
23:0
     RDKit          3D

 51 53  0  0  0  0  0  0  0  0999 V2000
   57.0320   25.4770   46.9120 C   0  0  0  0  0  0  0  0  0  0  0  0
   58.0740   26.4850   46.5240 C   0  0  0  0  0  0  0  0  0  0  0  0
   59.4260   26.1200   46.4580 C   0  0  0  0  0  0  0  0  0  0  0  0
   60.3870   27.0520   46.0590 C   0  0  0  0  0  0  0  0  0  0  0  0
   60.0060   28.3500   45.7090 C   0  0  0  0  0  0  0  0  0  0  0  0
   58.6550   28.7220   45.7550 C   0  0  0  0  0  0  0  0  0  0  0  0
   58.1390   30.3300   45.2560 S   0  0  0  0  0  0  0  0  0  0  0  0
   56.6400   30.4390   45.2310 O   0  0  0  0  0  0  0  0  0  0  0  0
   58.6650   30.6010   43.8750 O   0  0  0  0  0  0  0  0  0  0  0  0
   58.7980   31.4950   46.3570 N   0  0  0  0  0  0  0  0  0  0  0  0
   58.8010   31.3440   47.7820 C   0  0  0  0  0  0  0  0  0  0  0  0
   58.3660   32.3700   48.6380 C   0  0  0  0  0  0  0  0  0  0  0  0
   58.3570   32.1770   50.0210 C   0  0  0  0  0  0  0  0  0  0  0  0
   58.7400   30.9400   50.5710 C   0  0  0  0  0  0  0  0  0  0  0  0
   58.7170   30.7180   52.0640 C   0  0  0  0  0  0  0  0  0  0  0  0
   58.2440   29.3360   52.4020 C   0  0  0  0  0  0  0  0  0  0  0  0
   59.0780   28.4460   52.7210 O   0  0  0  0  0  0  0  0  0  0  0  0
   56.8500   29.0280   52.3140 N   0  0  0  0  0  0  0  0  0  0  0  0
   55.9130   29.2400   53.4100 C   0  0  0  0  0  0  0  0  0  0  0  0
   54.7110   29.9990   52.9150 C   0  0  0  0  0  0  0  0  0  0  0  0
   53.6170   30.2060   53.7690 C   0  0  0  0  0  0  0  0  0  0  0  0
   52.4990   30.9170   53.3270 C   0  0  0  0  0  0  0  0  0  0  0  0
   52.4480   31.4250   52.0170 C   0  0  0  0  0  0  0  0  0  0  0  0
   51.2440   32.1420   51.5380 C   0  0  0  0  0  0  0  0  0  0  0  0
   51.0260   32.3420   50.1420 N   0  0  0  0  0  0  0  0  0  0  0  0
   50.3920   32.5730   52.3610 O   0  0  0  0  0  0  0  0  0  0  0  0
   53.5520   31.2270   51.1680 C   0  0  0  0  0  0  0  0  0  0  0  0
   54.6760   30.5250   51.6150 C   0  0  0  0  0  0  0  0  0  0  0  0
   59.2100   29.9310   49.7150 C   0  0  0  0  0  0  0  0  0  0  0  0
   59.2420   30.1350   48.3320 C   0  0  0  0  0  0  0  0  0  0  0  0
   57.6930   27.7840   46.1540 C   0  0  0  0  0  0  0  0  0  0  0  0
   56.9701   25.4172   48.0086 H   0  0  0  0  0  0  0  0  0  0  0  0
   56.0566   25.7830   46.5059 H   0  0  0  0  0  0  0  0  0  0  0  0
   57.3055   24.4920   46.5059 H   0  0  0  0  0  0  0  0  0  0  0  0
   59.7310   25.0964   46.7213 H   0  0  0  0  0  0  0  0  0  0  0  0
   61.4476   26.7630   46.0202 H   0  0  0  0  0  0  0  0  0  0  0  0
   60.7668   29.0807   45.3971 H   0  0  0  0  0  0  0  0  0  0  0  0
   58.0311   33.3294   48.2168 H   0  0  0  0  0  0  0  0  0  0  0  0
   58.0483   32.9978   50.6850 H   0  0  0  0  0  0  0  0  0  0  0  0
   59.7329   30.8565   52.4626 H   0  0  0  0  0  0  0  0  0  0  0  0
   58.0210   31.4425   52.5121 H   0  0  0  0  0  0  0  0  0  0  0  0
   55.5913   28.2665   53.8086 H   0  0  0  0  0  0  0  0  0  0  0  0
   56.4074   29.8206   54.2028 H   0  0  0  0  0  0  0  0  0  0  0  0
   53.6400   29.8057   54.7933 H   0  0  0  0  0  0  0  0  0  0  0  0
   51.6518   31.0808   54.0092 H   0  0  0  0  0  0  0  0  0  0  0  0
   51.6820   32.9220   49.5740 H   0  0  0  0  0  0  0  0  0  0  0  0
   53.5311   31.6277   50.1438 H   0  0  0  0  0  0  0  0  0  0  0  0
   55.5364   30.3847   50.9442 H   0  0  0  0  0  0  0  0  0  0  0  0
   59.5550   28.9746   50.1348 H   0  0  0  0  0  0  0  0  0  0  0  0
   59.6166   29.3392   47.6714 H   0  0  0  0  0  0  0  0  0  0  0  0
   56.6306   28.0684   46.1773 H   0  0  0  0  0  0  0  0  0  0  0  0
  1  2  1  0
  2  3  2  0
  3  4  1  0
  4  5  2  0
  5  6  1  0
  6  7  1  0
  7  8  2  0
  7  9  2  0
  7 10  1  0
 10 11  1  0
 11 12  2  0
 12 13  1  0
 13 14  2  0
 14 15  1  0
 15 16  1  0
 16 17  2  0
 16 18  1  0
 18 19  1  0
 19 20  1  0
 20 21  2  0
 21 22  1  0
 22 23  2  0
 23 24  1  0
 24 25  1  0
 24 26  2  0
 23 27  1  0
 27 28  2  0
 14 29  1  0
 29 30  2  0
  6 31  2  0
 31  2  1  0
 30 11  1  0
 28 20  1  0
  1 32  1  0
  1 33  1  0
  1 34  1  0
  3 35  1  0
  4 36  1  0
  5 37  1  0
 12 38  1  0
 13 39  1  0
 15 40  1  0
 15 41  1  0
 19 42  1  0
 19 43  1  0
 21 44  1  0
 22 45  1  0
 25 46  1  0
 27 47  1  0
 28 48  1  0
 29 49  1  0
 30 50  1  0
 31 51  1  0
M  CHG  3  10  -1  18  -1  25  -1
M  END
>  <UniqueID>  (24) 
24

>  <SMILES>  (24) 
Cc1cccc(S(=O)(=O)[N-]c2ccc(CC(=O)[N-]Cc3ccc(C([NH-])=O)cc3)cc2)c1

>  <Energy>  (24) 
50.87143441035954

>  <Genealogy>  (24) 
Cc1cccc(S(=O)(=O)[N-]c2ccc(CC(=O)[N-]Cc3ccc(C([NH-])=O)cc3)cc2)c1 (protonated)
Cc1cccc(S(=O)(=O)[N-]c2ccc(CC(=O)[N-]Cc3ccc(C([NH-])=O)cc3)cc2)c1 (3D coordinates assigned)
Cc1cccc(S(=O)(=O)[N-]c2ccc(CC(=O)[N-]Cc3ccc(C([NH-])=O)cc3)cc2)c1 (optimized conformer: 50.87143441035954 kcal/mol)

>  <smiles>  (24) 
Cc1cccc(S(=O)(=O)Nc2ccc(CC(=O)NCc3ccc(C(N)=O)cc3)cc2)c1

>  <score_type>  (24) 
oracle

>  <origin>  (24) 
adg

>  <m_score__min__energy>  (24) 
-13.779999999999999

>  <m_primary>  (24) 
energy

$$$$
24:0
     RDKit          3D

 86 91  0  0  0  0  0  0  0  0999 V2000
   62.0940   30.6490   49.4710 C   0  0  0  0  0  0  0  0  0  0  0  0
   60.6920   30.7910   49.9890 C   0  0  0  0  0  0  0  0  0  0  0  0
   60.1550   31.9100   50.6100 C   0  0  0  0  0  0  0  0  0  0  0  0
   60.8310   33.2380   50.7990 C   0  0  0  0  0  0  0  0  0  0  0  0
   61.1430   33.8510   49.4610 C   0  0  0  0  0  0  0  0  0  0  0  0
   62.1620   34.5200   49.3290 O   0  0  0  0  0  0  0  0  0  0  0  0
   60.2450   33.6620   48.3350 N   0  0  0  0  0  0  0  0  0  0  0  0
   60.9020   32.8270   47.3100 C   0  0  0  0  0  0  0  0  0  0  0  0
   59.8980   32.5030   46.1990 C   0  0  0  0  0  0  0  0  0  0  0  0
   59.2270   33.7110   45.6670 N   0  0  0  0  0  0  0  0  0  0  0  0
   57.7770   33.5590   45.4090 C   0  0  0  0  0  0  0  0  0  0  0  0
   57.4430   32.4560   44.4250 C   0  0  0  0  0  0  0  0  0  0  0  0
   57.6440   32.6610   43.0440 C   0  0  0  0  0  0  0  0  0  0  0  0
   57.3760   31.6350   42.1300 C   0  0  0  0  0  0  0  0  0  0  0  0
   56.9130   30.3970   42.5870 C   0  0  0  0  0  0  0  0  0  0  0  0
   56.7110   30.1830   43.9530 C   0  0  0  0  0  0  0  0  0  0  0  0
   56.9810   31.2030   44.8720 C   0  0  0  0  0  0  0  0  0  0  0  0
   59.6460   35.0060   46.2530 C   0  0  0  0  0  0  0  0  0  0  0  0
   59.7610   34.9660   47.7990 C   0  0  0  0  0  0  0  0  0  0  0  0
   58.8990   31.6660   51.0370 N   0  0  0  0  0  0  0  0  0  0  0  0
   58.6450   30.3880   50.6970 C   0  0  0  0  0  0  0  0  0  0  0  0
   57.4420   29.7580   51.0010 O   0  0  0  0  0  0  0  0  0  0  0  0
   59.7150   29.8070   50.0370 C   0  0  0  0  0  0  0  0  0  0  0  0
   59.8790   28.3810   49.5640 C   0  0  0  0  0  0  0  0  0  0  0  0
   59.6460   28.2050   48.0870 C   0  0  0  0  0  0  0  0  0  0  0  0
   60.6570   28.5310   47.1680 C   0  0  0  0  0  0  0  0  0  0  0  0
   60.4270   28.4060   45.7970 C   0  0  0  0  0  0  0  0  0  0  0  0
   59.1970   27.9360   45.3290 C   0  0  0  0  0  0  0  0  0  0  0  0
   58.1910   27.5620   46.2380 C   0  0  0  0  0  0  0  0  0  0  0  0
   56.8870   27.0470   45.7690 C   0  0  0  0  0  0  0  0  0  0  0  0
   55.9510   27.8790   45.5890 O   0  0  0  0  0  0  0  0  0  0  0  0
   56.6340   25.6330   45.5950 N   0  0  0  0  0  0  0  0  0  0  0  0
   55.2500   25.1420   45.4820 C   0  0  0  0  0  0  0  0  0  0  0  0
   55.0070   24.0290   46.5180 C   0  0  0  0  0  0  0  0  0  0  0  0
   56.1330   23.0760   46.5770 N   0  0  0  0  0  0  0  0  0  0  0  0
   56.2490   22.1490   47.6750 C   0  0  0  0  0  0  0  0  0  0  0  0
   57.3670   21.6190   47.9310 O   0  0  0  0  0  0  0  0  0  0  0  0
   55.1030   21.8070   48.5420 C   0  0  0  0  0  0  0  0  0  0  0  0
   55.2220   21.8500   49.9410 C   0  0  0  0  0  0  0  0  0  0  0  0
   54.1250   21.5370   50.7550 C   0  0  0  0  0  0  0  0  0  0  0  0
   52.9040   21.1760   50.1770 C   0  0  0  0  0  0  0  0  0  0  0  0
   52.7760   21.1390   48.7820 C   0  0  0  0  0  0  0  0  0  0  0  0
   53.8610   21.4790   47.9680 C   0  0  0  0  0  0  0  0  0  0  0  0
   57.2260   23.2120   45.6000 C   0  0  0  0  0  0  0  0  0  0  0  0
   57.7430   24.6570   45.6000 C   0  0  0  0  0  0  0  0  0  0  0  0
   58.4120   27.7210   47.6180 C   0  0  0  0  0  0  0  0  0  0  0  0
   62.7924   30.5783   50.3179 H   0  0  0  0  0  0  0  0  0  0  0  0
   62.1679   29.7388   48.8578 H   0  0  0  0  0  0  0  0  0  0  0  0
   62.3489   31.5259   48.8578 H   0  0  0  0  0  0  0  0  0  0  0  0
   60.1649   33.9092   51.3609 H   0  0  0  0  0  0  0  0  0  0  0  0
   61.7679   33.0904   51.3561 H   0  0  0  0  0  0  0  0  0  0  0  0
   59.4110   33.1300   48.6770 H   0  0  0  0  0  0  0  0  0  0  0  0
   61.7570   33.3728   46.8845 H   0  0  0  0  0  0  0  0  0  0  0  0
   61.2570   31.8925   47.7690 H   0  0  0  0  0  0  0  0  0  0  0  0
   60.4319   32.0054   45.3760 H   0  0  0  0  0  0  0  0  0  0  0  0
   59.1218   31.8539   46.6306 H   0  0  0  0  0  0  0  0  0  0  0  0
   57.2766   33.3360   46.3629 H   0  0  0  0  0  0  0  0  0  0  0  0
   57.4305   34.5026   44.9622 H   0  0  0  0  0  0  0  0  0  0  0  0
   58.0133   33.6323   42.6832 H   0  0  0  0  0  0  0  0  0  0  0  0
   57.5294   31.8024   41.0537 H   0  0  0  0  0  0  0  0  0  0  0  0
   56.7073   29.5894   41.8691 H   0  0  0  0  0  0  0  0  0  0  0  0
   56.3388   29.2102   44.3068 H   0  0  0  0  0  0  0  0  0  0  0  0
   56.8319   31.0255   45.9473 H   0  0  0  0  0  0  0  0  0  0  0  0
   60.6269   35.2778   45.8360 H   0  0  0  0  0  0  0  0  0  0  0  0
   58.8717   35.7456   46.0010 H   0  0  0  0  0  0  0  0  0  0  0  0
   60.4627   35.7521   48.1146 H   0  0  0  0  0  0  0  0  0  0  0  0
   58.7477   35.1192   48.1987 H   0  0  0  0  0  0  0  0  0  0  0  0
   60.9031   28.0534   49.7959 H   0  0  0  0  0  0  0  0  0  0  0  0
   59.1192   27.7793   50.0842 H   0  0  0  0  0  0  0  0  0  0  0  0
   61.6332   28.8860   47.5300 H   0  0  0  0  0  0  0  0  0  0  0  0
   61.2172   28.6786   45.0820 H   0  0  0  0  0  0  0  0  0  0  0  0
   59.0151   27.8583   44.2469 H   0  0  0  0  0  0  0  0  0  0  0  0
   54.5517   25.9717   45.6663 H   0  0  0  0  0  0  0  0  0  0  0  0
   55.0879   24.7398   44.4711 H   0  0  0  0  0  0  0  0  0  0  0  0
   54.8774   24.4880   47.5092 H   0  0  0  0  0  0  0  0  0  0  0  0
   54.1063   23.4740   46.2170 H   0  0  0  0  0  0  0  0  0  0  0  0
   56.1814   22.1309   50.4001 H   0  0  0  0  0  0  0  0  0  0  0  0
   54.2246   21.5754   51.8498 H   0  0  0  0  0  0  0  0  0  0  0  0
   52.0456   20.9216   50.8161 H   0  0  0  0  0  0  0  0  0  0  0  0
   51.8199   20.8419   48.3263 H   0  0  0  0  0  0  0  0  0  0  0  0
   53.7430   21.4901   46.8744 H   0  0  0  0  0  0  0  0  0  0  0  0
   58.0457   22.5304   45.8711 H   0  0  0  0  0  0  0  0  0  0  0  0
   56.8517   22.9590   44.5971 H   0  0  0  0  0  0  0  0  0  0  0  0
   58.3548   24.8169   46.5001 H   0  0  0  0  0  0  0  0  0  0  0  0
   58.3381   24.8088   44.6874 H   0  0  0  0  0  0  0  0  0  0  0  0
   57.6162   27.4657   48.3332 H   0  0  0  0  0  0  0  0  0  0  0  0
  1  2  1  0
  2  3  2  0
  3  4  1  0
  4  5  1  0
  5  6  2  0
  5  7  1  0
  7  8  1  0
  8  9  1  0
  9 10  1  0
 10 11  1  0
 11 12  1  0
 12 13  2  0
 13 14  1  0
 14 15  2  0
 15 16  1  0
 16 17  2  0
 10 18  1  0
 18 19  1  0
  3 20  1  0
 20 21  1  0
 21 22  1  0
 21 23  2  0
 23 24  1  0
 24 25  1  0
 25 26  2  0
 26 27  1  0
 27 28  2  0
 28 29  1  0
 29 30  1  0
 30 31  2  0
 30 32  1  0
 32 33  1  0
 33 34  1  0
 34 35  1  0
 35 36  1  0
 36 37  2  0
 36 38  1  0
 38 39  2  0
 39 40  1  0
 40 41  2  0
 41 42  1  0
 42 43  2  0
 35 44  1  0
 44 45  1  0
 29 46  2  0
 23  2  1  0
 46 25  1  0
 19  7  1  0
 45 32  1  0
 17 12  1  0
 43 38  1  0
  1 47  1  0
  1 48  1  0
  1 49  1  0
  4 50  1  0
  4 51  1  0
  7 52  1  0
  8 53  1  0
  8 54  1  0
  9 55  1  0
  9 56  1  0
 11 57  1  0
 11 58  1  0
 13 59  1  0
 14 60  1  0
 15 61  1  0
 16 62  1  0
 17 63  1  0
 18 64  1  0
 18 65  1  0
 19 66  1  0
 19 67  1  0
 24 68  1  0
 24 69  1  0
 26 70  1  0
 27 71  1  0
 28 72  1  0
 33 73  1  0
 33 74  1  0
 34 75  1  0
 34 76  1  0
 39 77  1  0
 40 78  1  0
 41 79  1  0
 42 80  1  0
 43 81  1  0
 44 82  1  0
 44 83  1  0
 45 84  1  0
 45 85  1  0
 46 86  1  0
M  CHG  3   7   1  20  -1  22  -1
M  END
>  <UniqueID>  (25) 
25

>  <SMILES>  (25) 
Cc1c(CC(=O)[NH+]2CCN(Cc3ccccc3)CC2)[n-]c([O-])c1Cc1cccc(C(=O)N2CCN(C(=O)c3ccccc3)CC2)c1

>  <Energy>  (25) 
142.47514312961877

>  <Genealogy>  (25) 
Cc1c(CC(=O)[NH+]2CCN(Cc3ccccc3)CC2)[n-]c([O-])c1Cc1cccc(C(=O)N2CCN(C(=O)c3ccccc3)CC2)c1 (protonated)
Cc1c(CC(=O)[NH+]2CCN(Cc3ccccc3)CC2)[n-]c([O-])c1Cc1cccc(C(=O)N2CCN(C(=O)c3ccccc3)CC2)c1 (3D coordinates assigned)
Cc1c(CC(=O)[NH+]2CCN(Cc3ccccc3)CC2)[n-]c([O-])c1Cc1cccc(C(=O)N2CCN(C(=O)c3ccccc3)CC2)c1 (nonaromatic ring conformer: 142.47514312961877 kcal/mol)

>  <smiles>  (25) 
Cc1c(CC(=O)N2CCN(Cc3ccccc3)CC2)[nH]c(O)c1Cc1cccc(C(=O)N2CCN(C(=O)c3ccccc3)CC2)c1

>  <score_type>  (25) 
oracle

>  <origin>  (25) 
adg

>  <m_score__min__energy>  (25) 
-13.710000000000001

>  <m_primary>  (25) 
energy

$$$$
25:0
     RDKit          3D

 51 53  0  0  0  0  0  0  0  0999 V2000
   64.6830   33.3700   49.6790 C   0  0  0  0  0  0  0  0  0  0  0  0
   63.4050   33.5050   48.9060 C   0  0  0  0  0  0  0  0  0  0  0  0
   62.1850   33.6730   49.5780 C   0  0  0  0  0  0  0  0  0  0  0  0
   60.9900   33.7650   48.8600 C   0  0  0  0  0  0  0  0  0  0  0  0
   60.9920   33.6780   47.4570 C   0  0  0  0  0  0  0  0  0  0  0  0
   59.7580   33.7600   46.7180 N   0  0  0  0  0  0  0  0  0  0  0  0
   58.5000   33.2630   47.2910 C   0  0  0  0  0  0  0  0  0  0  0  0
   57.7840   32.3220   46.3010 C   0  0  0  0  0  0  0  0  0  0  0  0
   58.1740   32.5650   44.8900 N   0  0  0  0  0  0  0  0  0  0  0  0
   57.2320   31.9320   43.9280 C   0  0  1  0  0  0  0  0  0  0  0  0
   57.7310   31.9590   42.4710 C   0  0  0  0  0  0  0  0  0  0  0  0
   56.8990   30.5220   44.3490 C   0  0  0  0  0  0  0  0  0  0  0  0
   55.7820   30.2540   44.8700 O   0  0  0  0  0  0  0  0  0  0  0  0
   57.8580   29.4810   44.1310 N   0  0  0  0  0  0  0  0  0  0  0  0
   58.2240   28.4960   45.1430 C   0  0  0  0  0  0  0  0  0  0  0  0
   59.1120   29.1210   46.1830 C   0  0  0  0  0  0  0  0  0  0  0  0
   58.6990   29.1660   47.5250 C   0  0  0  0  0  0  0  0  0  0  0  0
   59.5120   29.7680   48.4930 C   0  0  0  0  0  0  0  0  0  0  0  0
   60.7380   30.3310   48.1280 C   0  0  0  0  0  0  0  0  0  0  0  0
   61.1540   30.2930   46.7930 C   0  0  0  0  0  0  0  0  0  0  0  0
   60.3460   29.6910   45.8230 C   0  0  0  0  0  0  0  0  0  0  0  0
   58.4650   33.9890   44.6260 C   0  0  0  0  0  0  0  0  0  0  0  0
   59.7360   34.3820   45.3860 C   0  0  0  0  0  0  0  0  0  0  0  0
   62.2130   33.4800   46.7880 C   0  0  0  0  0  0  0  0  0  0  0  0
   63.4080   33.3910   47.5080 C   0  0  0  0  0  0  0  0  0  0  0  0
   64.4639   33.3931   50.7567 H   0  0  0  0  0  0  0  0  0  0  0  0
   65.1669   32.4157   49.4236 H   0  0  0  0  0  0  0  0  0  0  0  0
   65.3556   34.2021   49.4236 H   0  0  0  0  0  0  0  0  0  0  0  0
   62.1692   33.7326   50.6763 H   0  0  0  0  0  0  0  0  0  0  0  0
   60.0403   33.9066   49.3967 H   0  0  0  0  0  0  0  0  0  0  0  0
   58.7181   32.7131   48.2184 H   0  0  0  0  0  0  0  0  0  0  0  0
   57.8440   34.1206   47.5010 H   0  0  0  0  0  0  0  0  0  0  0  0
   58.0344   31.2828   46.5606 H   0  0  0  0  0  0  0  0  0  0  0  0
   56.7042   32.5151   46.3834 H   0  0  0  0  0  0  0  0  0  0  0  0
   56.3174   32.5426   43.9532 H   0  0  0  0  0  0  0  0  0  0  0  0
   58.8293   32.0184   42.4606 H   0  0  0  0  0  0  0  0  0  0  0  0
   57.4085   31.0421   41.9559 H   0  0  0  0  0  0  0  0  0  0  0  0
   57.3115   32.8358   41.9559 H   0  0  0  0  0  0  0  0  0  0  0  0
   57.3117   28.1158   45.6259 H   0  0  0  0  0  0  0  0  0  0  0  0
   58.7664   27.6705   44.6589 H   0  0  0  0  0  0  0  0  0  0  0  0
   57.7335   28.7267   47.8163 H   0  0  0  0  0  0  0  0  0  0  0  0
   59.1851   29.7979   49.5429 H   0  0  0  0  0  0  0  0  0  0  0  0
   61.3753   30.8036   48.8899 H   0  0  0  0  0  0  0  0  0  0  0  0
   62.1183   30.7374   46.5056 H   0  0  0  0  0  0  0  0  0  0  0  0
   60.6771   29.6633   44.7744 H   0  0  0  0  0  0  0  0  0  0  0  0
   58.6171   34.1415   43.5473 H   0  0  0  0  0  0  0  0  0  0  0  0
   57.6218   34.6112   44.9606 H   0  0  0  0  0  0  0  0  0  0  0  0
   60.6155   34.0471   44.8165 H   0  0  0  0  0  0  0  0  0  0  0  0
   59.7528   35.4753   45.5058 H   0  0  0  0  0  0  0  0  0  0  0  0
   62.2279   33.3946   45.6914 H   0  0  0  0  0  0  0  0  0  0  0  0
   64.3567   33.2305   46.9748 H   0  0  0  0  0  0  0  0  0  0  0  0
  1  2  1  0
  2  3  2  0
  3  4  1  0
  4  5  2  0
  5  6  1  0
  6  7  1  0
  7  8  1  0
  8  9  1  0
  9 10  1  0
 10 11  1  0
 10 12  1  0
 12 13  2  0
 12 14  1  0
 14 15  1  0
 15 16  1  0
 16 17  2  0
 17 18  1  0
 18 19  2  0
 19 20  1  0
 20 21  2  0
  9 22  1  0
 22 23  1  0
  5 24  1  0
 24 25  2  0
 25  2  1  0
 23  6  1  0
 21 16  1  0
  1 26  1  0
  1 27  1  0
  1 28  1  0
  3 29  1  0
  4 30  1  0
  7 31  1  0
  7 32  1  0
  8 33  1  0
  8 34  1  0
 10 35  1  6
 11 36  1  0
 11 37  1  0
 11 38  1  0
 15 39  1  0
 15 40  1  0
 17 41  1  0
 18 42  1  0
 19 43  1  0
 20 44  1  0
 21 45  1  0
 22 46  1  0
 22 47  1  0
 23 48  1  0
 23 49  1  0
 24 50  1  0
 25 51  1  0
M  CHG  1  14  -1
M  END
>  <UniqueID>  (26) 
26

>  <SMILES>  (26) 
Cc1ccc(N2CCN([C@@H](C)C(=O)[N-]Cc3ccccc3)CC2)cc1

>  <Energy>  (26) 
61.35549602606012

>  <Genealogy>  (26) 
Cc1ccc(N2CCN(C(C)C(=O)[N-]Cc3ccccc3)CC2)cc1 (protonated)
Cc1ccc(N2CCN([C@@H](C)C(=O)[N-]Cc3ccccc3)CC2)cc1 (chirality)
Cc1ccc(N2CCN([C@@H](C)C(=O)[N-]Cc3ccccc3)CC2)cc1 (3D coordinates assigned)
Cc1ccc(N2CCN([C@@H](C)C(=O)[N-]Cc3ccccc3)CC2)cc1 (nonaromatic ring conformer: 61.35549602606012 kcal/mol)

>  <smiles>  (26) 
Cc1ccc(N2CCN(C(C)C(=O)NCc3ccccc3)CC2)cc1

>  <score_type>  (26) 
oracle

>  <origin>  (26) 
adg

>  <m_score__min__energy>  (26) 
-9.8000000000000007

>  <m_primary>  (26) 
energy

$$$$
26:0
     RDKit          3D

 52 55  0  0  0  0  0  0  0  0999 V2000
   56.0060   28.5890   45.2470 N   0  0  0  0  0  0  0  0  0  0  0  0
   55.8950   29.6110   43.8570 S   0  0  0  0  0  0  0  0  0  0  0  0
   56.7940   29.0730   42.7800 O   0  0  0  0  0  0  0  0  0  0  0  0
   54.4770   29.6200   43.3560 O   0  0  0  0  0  0  0  0  0  0  0  0
   56.3850   31.2290   44.2570 N   0  0  0  0  0  0  0  0  0  0  0  0
   57.8460   31.3230   44.2140 C   0  0  0  0  0  0  0  0  0  0  0  0
   58.3880   31.6920   45.5780 C   0  0  0  0  0  0  0  0  0  0  0  0
   58.3270   33.0320   45.9940 C   0  0  0  0  0  0  0  0  0  0  0  0
   58.7790   33.4040   47.2620 C   0  0  0  0  0  0  0  0  0  0  0  0
   59.2840   32.4390   48.1360 C   0  0  0  0  0  0  0  0  0  0  0  0
   59.3370   31.1000   47.7450 C   0  0  0  0  0  0  0  0  0  0  0  0
   58.8930   30.7150   46.4710 C   0  0  0  0  0  0  0  0  0  0  0  0
   58.9340   29.2870   46.1070 C   0  0  0  0  0  0  0  0  0  0  0  0
   58.2830   28.3470   46.9160 C   0  0  0  0  0  0  0  0  0  0  0  0
   58.2240   26.9980   46.5330 C   0  0  0  0  0  0  0  0  0  0  0  0
   57.4290   26.0120   47.3470 C   0  0  0  0  0  0  0  0  0  0  0  0
   56.4270   25.3030   46.4690 C   0  0  0  0  0  0  0  0  0  0  0  0
   55.2060   25.8880   46.3280 N   0  0  0  0  0  0  0  0  0  0  0  0
   54.2220   25.3230   45.6300 N   0  0  0  0  0  0  0  0  0  0  0  0
   54.3800   24.1230   45.0210 C   0  0  0  0  0  0  0  0  0  0  0  0
   53.4170   23.6210   44.3840 O   0  0  0  0  0  0  0  0  0  0  0  0
   55.6110   23.4600   45.1140 C   0  0  0  0  0  0  0  0  0  0  0  0
   56.6560   24.0470   45.8510 C   0  0  0  0  0  0  0  0  0  0  0  0
   57.9350   23.2440   45.9810 C   0  0  0  0  0  0  0  0  0  0  0  0
   58.3650   22.6560   44.6260 C   0  0  0  0  0  0  0  0  0  0  0  0
   57.2060   22.0730   43.7790 C   0  0  0  0  0  0  0  0  0  0  0  0
   55.8420   22.1080   44.4830 C   0  0  0  0  0  0  0  0  0  0  0  0
   58.8460   26.5940   45.3400 C   0  0  0  0  0  0  0  0  0  0  0  0
   59.5290   27.5240   44.5520 C   0  0  0  0  0  0  0  0  0  0  0  0
   59.5730   28.8690   44.9300 C   0  0  0  0  0  0  0  0  0  0  0  0
   60.2140   29.7660   44.1380 F   0  0  0  0  0  0  0  0  0  0  0  0
   55.4980   27.7060   45.0150 H   0  0  0  0  0  0  0  0  0  0  0  0
   56.0670   31.3960   45.2400 H   0  0  0  0  0  0  0  0  0  0  0  0
   58.2634   30.3524   43.9079 H   0  0  0  0  0  0  0  0  0  0  0  0
   58.1338   32.1011   43.4917 H   0  0  0  0  0  0  0  0  0  0  0  0
   57.9195   33.7955   45.3150 H   0  0  0  0  0  0  0  0  0  0  0  0
   58.7372   34.4584   47.5726 H   0  0  0  0  0  0  0  0  0  0  0  0
   59.6405   32.7344   49.1338 H   0  0  0  0  0  0  0  0  0  0  0  0
   59.7291   30.3425   48.4396 H   0  0  0  0  0  0  0  0  0  0  0  0
   57.8147   28.6683   47.8581 H   0  0  0  0  0  0  0  0  0  0  0  0
   58.1117   25.2723   47.7906 H   0  0  0  0  0  0  0  0  0  0  0  0
   56.8931   26.5509   48.1422 H   0  0  0  0  0  0  0  0  0  0  0  0
   58.7338   23.9004   46.3566 H   0  0  0  0  0  0  0  0  0  0  0  0
   57.7543   22.4131   46.6788 H   0  0  0  0  0  0  0  0  0  0  0  0
   58.8480   23.4543   44.0433 H   0  0  0  0  0  0  0  0  0  0  0  0
   59.0400   21.8169   44.8503 H   0  0  0  0  0  0  0  0  0  0  0  0
   57.1305   22.6547   42.8485 H   0  0  0  0  0  0  0  0  0  0  0  0
   57.4444   21.0146   43.5974 H   0  0  0  0  0  0  0  0  0  0  0  0
   55.0488   21.9111   43.7468 H   0  0  0  0  0  0  0  0  0  0  0  0
   55.8262   21.3393   45.2696 H   0  0  0  0  0  0  0  0  0  0  0  0
   58.7952   25.5413   45.0249 H   0  0  0  0  0  0  0  0  0  0  0  0
   60.0337   27.1966   43.6311 H   0  0  0  0  0  0  0  0  0  0  0  0
  1  2  1  0
  2  3  2  0
  2  4  2  0
  2  5  1  0
  5  6  1  0
  6  7  1  0
  7  8  2  0
  8  9  1  0
  9 10  2  0
 10 11  1  0
 11 12  2  0
 12 13  1  0
 13 14  2  0
 14 15  1  0
 15 16  1  0
 16 17  1  0
 17 18  2  0
 18 19  1  0
 19 20  1  0
 20 21  2  0
 20 22  1  0
 22 23  2  0
 23 24  1  0
 24 25  1  0
 25 26  1  0
 26 27  1  0
 15 28  2  0
 28 29  1  0
 29 30  2  0
 30 31  1  0
 12  7  1  0
 30 13  1  0
 23 17  1  0
 27 22  1  0
  1 32  1  0
  5 33  1  0
  6 34  1  0
  6 35  1  0
  8 36  1  0
  9 37  1  0
 10 38  1  0
 11 39  1  0
 14 40  1  0
 16 41  1  0
 16 42  1  0
 24 43  1  0
 24 44  1  0
 25 45  1  0
 25 46  1  0
 26 47  1  0
 26 48  1  0
 27 49  1  0
 27 50  1  0
 28 51  1  0
 29 52  1  0
M  CHG  2   1  -1  19  -1
M  END
>  <UniqueID>  (27) 
27

>  <SMILES>  (27) 
[NH-]S(=O)(=O)NCc1ccccc1-c1cc(Cc2n[n-]c(=O)c3c2CCCC3)ccc1F

>  <Energy>  (27) 
64.16772108267402

>  <Genealogy>  (27) 
[NH-]S(=O)(=O)NCc1ccccc1-c1cc(Cc2n[n-]c(=O)c3c2CCCC3)ccc1F (protonated)
[NH-]S(=O)(=O)NCc1ccccc1-c1cc(Cc2n[n-]c(=O)c3c2CCCC3)ccc1F (3D coordinates assigned)
[NH-]S(=O)(=O)NCc1ccccc1-c1cc(Cc2n[n-]c(=O)c3c2CCCC3)ccc1F (nonaromatic ring conformer: 64.16772108267402 kcal/mol)

>  <smiles>  (27) 
NS(=O)(=O)NCc1ccccc1-c1cc(Cc2n[nH]c(=O)c3c2CCCC3)ccc1F

>  <score_type>  (27) 
oracle

>  <origin>  (27) 
adg

>  <m_score__min__energy>  (27) 
-15.35

>  <m_primary>  (27) 
energy

$$$$
27:0
     RDKit          3D

 57 59  0  0  0  0  0  0  0  0999 V2000
   61.4560   29.3340   50.8840 N   0  0  0  0  0  0  0  0  0  0  0  0
   60.7090   30.1270   51.8130 C   0  0  0  0  0  0  0  0  0  0  0  0
   61.2090   31.2420   52.2550 N   0  0  0  0  0  0  0  0  0  0  0  0
   59.3770   29.6640   52.2770 C   0  0  0  0  0  0  0  0  0  0  0  0
   59.2360   28.3750   52.8190 C   0  0  0  0  0  0  0  0  0  0  0  0
   57.9970   27.9310   53.2760 C   0  0  0  0  0  0  0  0  0  0  0  0
   56.8750   28.7520   53.1660 C   0  0  0  0  0  0  0  0  0  0  0  0
   56.9800   30.0260   52.5990 C   0  0  0  0  0  0  0  0  0  0  0  0
   55.7780   30.7870   52.4250 N   0  0  0  0  0  0  0  0  0  0  0  0
   54.4530   30.2720   52.6040 C   0  0  0  0  0  0  0  0  0  0  0  0
   54.2210   29.4250   53.5100 O   0  0  0  0  0  0  0  0  0  0  0  0
   53.3520   30.7370   51.7430 C   0  0  0  0  0  0  0  0  0  0  0  0
   52.9670   30.0170   50.6000 C   0  0  0  0  0  0  0  0  0  0  0  0
   51.9250   30.4960   49.8010 C   0  0  0  0  0  0  0  0  0  0  0  0
   51.5800   29.8610   48.7700 O   0  0  0  0  0  0  0  0  0  0  0  0
   51.2710   31.6810   50.1530 C   0  0  0  0  0  0  0  0  0  0  0  0
   50.2330   32.1730   49.3690 O   0  0  0  0  0  0  0  0  0  0  0  0
   51.6700   32.3660   51.3040 C   0  0  0  0  0  0  0  0  0  0  0  0
   51.0290   33.5400   51.6790 O   0  0  0  0  0  0  0  0  0  0  0  0
   52.6910   31.8840   52.0610 N   0  0  0  0  0  0  0  0  0  0  0  0
   58.2530   30.5160   52.2090 C   0  0  0  0  0  0  0  0  0  0  0  0
   58.4420   31.8400   51.7860 O   0  0  0  0  0  0  0  0  0  0  0  0
   58.4130   32.2560   50.4220 C   0  0  0  0  0  0  0  0  0  0  0  0
   59.8000   32.7650   50.0260 C   0  0  0  0  0  0  0  0  0  0  0  0
   59.8540   33.1920   48.5560 C   0  0  0  0  0  0  0  0  0  0  0  0
   60.7950   32.3650   47.8070 N   0  0  0  0  0  0  0  0  0  0  0  0
   61.0060   30.9710   48.0580 C   0  0  0  0  0  0  0  0  0  0  0  0
   62.1120   30.5740   48.5140 O   0  0  0  0  0  0  0  0  0  0  0  0
   59.9230   29.9880   47.8620 C   0  0  0  0  0  0  0  0  0  0  0  0
   59.7070   29.2750   46.7460 C   0  0  0  0  0  0  0  0  0  0  0  0
   58.4920   28.4840   46.4550 C   0  0  0  0  0  0  0  0  0  0  0  0
   58.3450   27.1700   46.9320 C   0  0  0  0  0  0  0  0  0  0  0  0
   57.1670   26.4580   46.6860 C   0  0  0  0  0  0  0  0  0  0  0  0
   56.1170   27.0610   45.9860 C   0  0  0  0  0  0  0  0  0  0  0  0
   54.9480   26.3490   45.7450 O   0  0  0  0  0  0  0  0  0  0  0  0
   56.2430   28.3800   45.5370 C   0  0  0  0  0  0  0  0  0  0  0  0
   55.1940   28.9900   44.8590 O   0  0  0  0  0  0  0  0  0  0  0  0
   57.4230   29.0920   45.7790 C   0  0  0  0  0  0  0  0  0  0  0  0
   62.3740   29.6660   50.5120 H   0  0  0  0  0  0  0  0  0  0  0  0
   61.1190   28.3880   50.5960 H   0  0  0  0  0  0  0  0  0  0  0  0
   60.5980   32.0740   52.4150 H   0  0  0  0  0  0  0  0  0  0  0  0
   62.2240   31.3340   52.4800 H   0  0  0  0  0  0  0  0  0  0  0  0
   60.1109   27.7113   52.8829 H   0  0  0  0  0  0  0  0  0  0  0  0
   57.9035   26.9309   53.7245 H   0  0  0  0  0  0  0  0  0  0  0  0
   55.8997   28.3946   53.5281 H   0  0  0  0  0  0  0  0  0  0  0  0
   53.4824   29.0819   50.3353 H   0  0  0  0  0  0  0  0  0  0  0  0
   58.1364   31.4046   49.7828 H   0  0  0  0  0  0  0  0  0  0  0  0
   57.6724   33.0593   50.2945 H   0  0  0  0  0  0  0  0  0  0  0  0
   60.0550   33.6293   50.6569 H   0  0  0  0  0  0  0  0  0  0  0  0
   60.5179   31.9439   50.1689 H   0  0  0  0  0  0  0  0  0  0  0  0
   58.8522   33.0880   48.1138 H   0  0  0  0  0  0  0  0  0  0  0  0
   60.1894   34.2384   48.5064 H   0  0  0  0  0  0  0  0  0  0  0  0
   59.2333   29.8258   48.7034 H   0  0  0  0  0  0  0  0  0  0  0  0
   60.5001   29.2793   45.9838 H   0  0  0  0  0  0  0  0  0  0  0  0
   59.1603   26.6997   47.5013 H   0  0  0  0  0  0  0  0  0  0  0  0
   57.0660   25.4226   47.0434 H   0  0  0  0  0  0  0  0  0  0  0  0
   57.5132   30.1338   45.4376 H   0  0  0  0  0  0  0  0  0  0  0  0
  1  2  1  0
  2  3  2  0
  2  4  1  0
  4  5  2  0
  5  6  1  0
  6  7  2  0
  7  8  1  0
  8  9  1  0
  9 10  1  0
 10 11  2  0
 10 12  1  0
 12 13  2  0
 13 14  1  0
 14 15  2  0
 14 16  1  0
 16 17  1  0
 16 18  2  0
 18 19  1  0
 18 20  1  0
  8 21  2  0
 21 22  1  0
 22 23  1  0
 23 24  1  0
 24 25  1  0
 25 26  1  0
 26 27  1  0
 27 28  2  0
 27 29  1  0
 29 30  2  3
 30 31  1  0
 31 32  2  0
 32 33  1  0
 33 34  2  0
 34 35  1  0
 34 36  1  0
 36 37  1  0
 36 38  2  0
 21  4  1  0
 38 31  1  0
 20 12  1  0
  1 39  1  0
  1 40  1  0
  3 41  1  0
  3 42  1  0
  5 43  1  0
  6 44  1  0
  7 45  1  0
 13 46  1  0
 23 47  1  0
 23 48  1  0
 24 49  1  0
 24 50  1  0
 25 51  1  0
 25 52  1  0
 29 53  1  0
 30 54  1  0
 32 55  1  0
 33 56  1  0
 38 57  1  0
M  CHG  8   3   1   9  -1  17  -1  19  -1  20  -1  26  -1  35  -1  37  -1
M  END
>  <UniqueID>  (28) 
28

>  <SMILES>  (28) 
NC(=[NH2+])c1cccc([N-]C(=O)c2cc(=O)c([O-])c([O-])[n-]2)c1OCCC[N-]C(=O)C=Cc1ccc([O-])c([O-])c1

>  <Energy>  (28) 
74.36507498422748

>  <Genealogy>  (28) 
NC(=[NH2+])c1cccc([N-]C(=O)c2cc(=O)c([O-])c([O-])[n-]2)c1OCCC[N-]C(=O)C=Cc1ccc([O-])c([O-])c1 (protonated)
NC(=[NH2+])c1cccc([N-]C(=O)c2cc(=O)c([O-])c([O-])[n-]2)c1OCCC[N-]C(=O)C=Cc1ccc([O-])c([O-])c1 (3D coordinates assigned)
NC(=[NH2+])c1cccc([N-]C(=O)c2cc(=O)c([O-])c([O-])[n-]2)c1OCCC[N-]C(=O)C=Cc1ccc([O-])c([O-])c1 (optimized conformer: 74.36507498422748 kcal/mol)

>  <smiles>  (28) 
N=C(N)c1cccc(NC(=O)c2cc(=O)c(O)c(O)[nH]2)c1OCCCNC(=O)C=Cc1ccc(O)c(O)c1

>  <score_type>  (28) 
oracle

>  <origin>  (28) 
adg

>  <m_score__min__energy>  (28) 
-26.75

>  <m_primary>  (28) 
energy

$$$$
28:0
     RDKit          3D

 43 46  0  0  0  0  0  0  0  0999 V2000
   52.2060   33.1920   49.3800 H   0  0  0  0  0  0  0  0  0  0  0  0
   51.3930   32.7410   49.8570 N   0  0  0  0  0  0  0  0  0  0  0  0
   51.4730   32.2580   51.0560 C   0  0  0  0  0  0  0  0  0  0  0  0
   50.5750   32.6570   51.9970 N   0  0  0  0  0  0  0  0  0  0  0  0
   50.6150   32.1860   53.2710 C   0  0  0  0  0  0  0  0  0  0  0  0
   49.8756   32.5336   54.0076 H   0  0  0  0  0  0  0  0  0  0  0  0
   51.5920   31.2620   53.6480 C   0  0  0  0  0  0  0  0  0  0  0  0
   51.6263   30.8832   54.6801 H   0  0  0  0  0  0  0  0  0  0  0  0
   52.5290   30.8200   52.7030 C   0  0  0  0  0  0  0  0  0  0  0  0
   53.5780   29.8430   53.0870 C   0  0  0  0  0  0  0  0  0  0  0  0
   53.2030   28.5940   53.6140 C   0  0  0  0  0  0  0  0  0  0  0  0
   52.1370   28.3458   53.7236 H   0  0  0  0  0  0  0  0  0  0  0  0
   54.1730   27.6670   53.9990 C   0  0  0  0  0  0  0  0  0  0  0  0
   53.8693   26.6961   54.4174 H   0  0  0  0  0  0  0  0  0  0  0  0
   55.5270   27.9700   53.8540 C   0  0  0  0  0  0  0  0  0  0  0  0
   56.2896   27.2376   54.1575 H   0  0  0  0  0  0  0  0  0  0  0  0
   55.9150   29.2020   53.3240 C   0  0  0  0  0  0  0  0  0  0  0  0
   56.9838   29.4325   53.2034 H   0  0  0  0  0  0  0  0  0  0  0  0
   54.9480   30.1510   52.9430 C   0  0  0  0  0  0  0  0  0  0  0  0
   55.3280   31.3710   52.3600 O   0  0  0  0  0  0  0  0  0  0  0  0
   56.6320   31.7180   51.9800 C   0  0  0  0  0  0  0  0  0  0  0  0
   57.1940   32.9670   52.3010 C   0  0  0  0  0  0  0  0  0  0  0  0
   56.6101   33.6984   52.8790 H   0  0  0  0  0  0  0  0  0  0  0  0
   58.4920   33.2820   51.8880 C   0  0  0  0  0  0  0  0  0  0  0  0
   58.9311   34.2546   52.1549 H   0  0  0  0  0  0  0  0  0  0  0  0
   59.2360   32.3630   51.1350 C   0  0  0  0  0  0  0  0  0  0  0  0
   60.8730   32.7530   50.6210 S   0  0  0  0  0  0  0  0  0  0  0  0
   61.1860   34.1800   50.9740 O   0  0  0  0  0  0  0  0  0  0  0  0
   61.8360   31.8300   51.3140 O   0  0  0  0  0  0  0  0  0  0  0  0
   60.9950   32.5530   48.9020 N   0  0  0  0  0  0  0  0  0  0  0  0
   60.2450   33.1680   48.0390 C   0  0  0  0  0  0  0  0  0  0  0  0
   60.4740   34.4470   47.6700 N   0  0  0  0  0  0  0  0  0  0  0  0
   59.5620   34.8760   46.7580 C   0  0  0  0  0  0  0  0  0  0  0  0
   59.5794   35.8908   46.3338 H   0  0  0  0  0  0  0  0  0  0  0  0
   58.6070   33.9330   46.4040 C   0  0  0  0  0  0  0  0  0  0  0  0
   57.3030   34.1730   45.2590 Cl  0  0  0  0  0  0  0  0  0  0  0  0
   58.9020   32.5110   47.2500 S   0  0  0  0  0  0  0  0  0  0  0  0
   58.6720   31.1240   50.8050 C   0  0  0  0  0  0  0  0  0  0  0  0
   59.2520   30.3965   50.2183 H   0  0  0  0  0  0  0  0  0  0  0  0
   57.3740   30.8090   51.2190 C   0  0  0  0  0  0  0  0  0  0  0  0
   56.9334   29.8393   50.9442 H   0  0  0  0  0  0  0  0  0  0  0  0
   52.4700   31.3310   51.3950 C   0  0  0  0  0  0  0  0  0  0  0  0
   53.2018   31.0057   50.6409 H   0  0  0  0  0  0  0  0  0  0  0  0
  1  2  1  0
  2  3  2  3
  3  4  1  0
  4  5  1  0
  5  6  1  0
  5  7  2  0
  7  8  1  0
  7  9  1  0
  9 10  1  0
 10 11  2  0
 11 12  1  0
 11 13  1  0
 13 14  1  0
 13 15  2  0
 15 16  1  0
 15 17  1  0
 17 18  1  0
 17 19  2  0
 19 20  1  0
 20 21  1  0
 21 22  2  0
 22 23  1  0
 22 24  1  0
 24 25  1  0
 24 26  2  0
 26 27  1  0
 27 28  2  0
 27 29  2  0
 27 30  1  0
 30 31  2  0
 31 32  1  0
 32 33  1  0
 33 34  1  0
 33 35  2  0
 35 36  1  0
 35 37  1  0
 26 38  1  0
 38 39  1  0
 38 40  2  0
 40 41  1  0
  9 42  2  0
 42 43  1  0
 42  3  1  0
 19 10  1  0
 40 21  1  0
 37 31  1  0
M  CHG  2   4  -1  32  -1
M  END
>  <UniqueID>  (29) 
29

>  <SMILES>  (29) 
N=c1cc(-c2ccccc2Oc2ccc(S(=O)(=O)/N=c3/[n-]cc(Cl)s3)cc2)cc[n-]1

>  <Energy>  (29) 
96.24446302848551

>  <Genealogy>  (29) 
N=c1cc(-c2ccccc2Oc2ccc(S(=O)(=O)N=c3[n-]cc(Cl)s3)cc2)cc[n-]1 (protonated)
N=c1cc(-c2ccccc2Oc2ccc(S(=O)(=O)/N=c3/[n-]cc(Cl)s3)cc2)cc[n-]1 (cis-trans isomerization)
N=c1cc(-c2ccccc2Oc2ccc(S(=O)(=O)/N=c3/[n-]cc(Cl)s3)cc2)cc[n-]1 (3D coordinates assigned)
N=c1cc(-c2ccccc2Oc2ccc(S(=O)(=O)/N=c3/[n-]cc(Cl)s3)cc2)cc[n-]1 (optimized conformer: 96.24446302848551 kcal/mol)

>  <smiles>  (29) 
N=c1cc(-c2ccccc2Oc2ccc(S(=O)(=O)N=c3[nH]cc(Cl)s3)cc2)cc[nH]1

>  <score_type>  (29) 
oracle

>  <origin>  (29) 
adg

>  <m_score__min__energy>  (29) 
-12.609999999999999

>  <m_primary>  (29) 
energy

$$$$
29:0
     RDKit          3D

 32 33  0  0  0  0  0  0  0  0999 V2000
   51.2690   20.2000   47.0540 H   0  0  0  0  0  0  0  0  0  0  0  0
   51.3090   20.7120   46.1810 O   0  0  0  0  0  0  0  0  0  0  0  0
   52.1940   21.7720   46.0150 C   0  0  0  0  0  0  0  0  0  0  0  0
   52.0920   22.5810   44.9280 N   0  0  0  0  0  0  0  0  0  0  0  0
   52.9380   23.6260   44.7370 C   0  0  0  0  0  0  0  0  0  0  0  0
   52.8294   24.2640   43.8475 H   0  0  0  0  0  0  0  0  0  0  0  0
   53.9450   23.8930   45.6660 C   0  0  0  0  0  0  0  0  0  0  0  0
   54.6267   24.7422   45.5107 H   0  0  0  0  0  0  0  0  0  0  0  0
   54.0860   23.0780   46.7960 C   0  0  0  0  0  0  0  0  0  0  0  0
   55.0380   23.3550   47.6460 N   0  0  0  0  0  0  0  0  0  0  0  0
   56.4830   23.3890   47.4060 C   0  0  0  0  0  0  0  0  0  0  0  0
   56.6846   23.0542   46.3778 H   0  0  0  0  0  0  0  0  0  0  0  0
   56.9740   22.7240   48.1317 H   0  0  0  0  0  0  0  0  0  0  0  0
   57.0370   24.8020   47.5890 C   0  0  0  0  0  0  0  0  0  0  0  0
   58.0154   24.7445   48.0885 H   0  0  0  0  0  0  0  0  0  0  0  0
   56.3304   25.3828   48.2001 H   0  0  0  0  0  0  0  0  0  0  0  0
   57.1960   25.4640   46.2990 N   0  0  0  0  0  0  0  0  0  0  0  0
   56.5090   26.6610   45.9170 C   0  0  0  0  0  0  0  0  0  0  0  0
   55.2530   26.6910   45.9840 O   0  0  0  0  0  0  0  0  0  0  0  0
   57.2320   27.8470   45.4240 C   0  0  0  0  0  0  0  0  0  0  0  0
   58.6340   27.8480   45.4140 C   0  0  0  0  0  0  0  0  0  0  0  0
   59.1848   26.9660   45.7728 H   0  0  0  0  0  0  0  0  0  0  0  0
   59.3350   28.9650   44.9500 C   0  0  0  0  0  0  0  0  0  0  0  0
   60.4350   28.9637   44.9534 H   0  0  0  0  0  0  0  0  0  0  0  0
   58.6400   30.0830   44.4820 C   0  0  0  0  0  0  0  0  0  0  0  0
   59.1931   30.9637   44.1236 H   0  0  0  0  0  0  0  0  0  0  0  0
   57.2420   30.0830   44.4690 C   0  0  0  0  0  0  0  0  0  0  0  0
   56.6966   30.9626   44.0965 H   0  0  0  0  0  0  0  0  0  0  0  0
   56.5350   28.9660   44.9290 C   0  0  0  0  0  0  0  0  0  0  0  0
   55.1440   28.9680   44.8700 O   0  0  0  0  0  0  0  0  0  0  0  0
   53.1880   22.0040   46.9720 C   0  0  0  0  0  0  0  0  0  0  0  0
   53.2688   21.3536   47.8554 H   0  0  0  0  0  0  0  0  0  0  0  0
  1  2  1  0
  2  3  1  0
  3  4  1  0
  4  5  1  0
  5  6  1  0
  5  7  2  0
  7  8  1  0
  7  9  1  0
  9 10  2  0
 10 11  1  0
 11 12  1  0
 11 13  1  0
 11 14  1  0
 14 15  1  0
 14 16  1  0
 14 17  1  0
 17 18  1  0
 18 19  2  0
 18 20  1  0
 20 21  2  0
 21 22  1  0
 21 23  1  0
 23 24  1  0
 23 25  2  0
 25 26  1  0
 25 27  1  0
 27 28  1  0
 27 29  2  0
 29 30  1  0
  9 31  1  0
 31 32  1  0
 31  3  2  0
 29 20  1  0
M  CHG  3   4  -1  17  -1  30  -1
M  END
>  <UniqueID>  (30) 
30

>  <SMILES>  (30) 
O=C([N-]CC/N=c1/cc[n-]c(O)c1)c1ccccc1[O-]

>  <Energy>  (30) 
39.258646192042285

>  <Genealogy>  (30) 
O=C([N-]CCN=c1cc[n-]c(O)c1)c1ccccc1[O-] (protonated)
O=C([N-]CC/N=c1/cc[n-]c(O)c1)c1ccccc1[O-] (cis-trans isomerization)
O=C([N-]CC/N=c1/cc[n-]c(O)c1)c1ccccc1[O-] (3D coordinates assigned)
O=C([N-]CC/N=c1/cc[n-]c(O)c1)c1ccccc1[O-] (optimized conformer: 39.258646192042285 kcal/mol)

>  <smiles>  (30) 
O=C(NCCN=c1cc[nH]c(O)c1)c1ccccc1O

>  <score_type>  (30) 
oracle

>  <origin>  (30) 
adg

>  <m_score__min__energy>  (30) 
-13.289999999999999

>  <m_primary>  (30) 
energy

$$$$
30:0
     RDKit          3D

 35 37  0  0  0  0  0  0  0  0999 V2000
   57.4775   33.3743   47.8164 H   0  0  0  0  0  0  0  0  0  0  0  0
   58.4930   33.5130   47.4170 C   0  0  0  0  0  0  0  0  0  0  0  0
   59.5810   33.5290   48.2890 C   0  0  0  0  0  0  0  0  0  0  0  0
   59.4185   33.3881   49.3678 H   0  0  0  0  0  0  0  0  0  0  0  0
   60.8840   33.7240   47.7990 C   0  0  0  0  0  0  0  0  0  0  0  0
   62.0320   33.7610   48.6670 N   0  0  0  0  0  0  0  0  0  0  0  0
   62.0000   34.3670   49.5180 H   0  0  0  0  0  0  0  0  0  0  0  0
   63.5030   32.8820   48.3920 S   0  0  0  0  0  0  0  0  0  0  0  0
   64.1690   33.4230   47.1600 O   0  0  0  0  0  0  0  0  0  0  0  0
   63.1950   31.4270   48.1710 O   0  0  0  0  0  0  0  0  0  0  0  0
   64.6130   33.0890   49.7700 C   0  0  0  0  0  0  0  0  0  0  0  0
   64.0529   32.9845   50.7109 H   0  0  0  0  0  0  0  0  0  0  0  0
   65.4004   32.3222   49.7250 H   0  0  0  0  0  0  0  0  0  0  0  0
   65.0711   34.0881   49.7250 H   0  0  0  0  0  0  0  0  0  0  0  0
   61.0690   33.8980   46.4210 C   0  0  0  0  0  0  0  0  0  0  0  0
   62.0824   34.0551   46.0232 H   0  0  0  0  0  0  0  0  0  0  0  0
   59.9800   33.8740   45.5480 C   0  0  0  0  0  0  0  0  0  0  0  0
   60.1426   34.0147   44.4692 H   0  0  0  0  0  0  0  0  0  0  0  0
   58.6800   33.6720   46.0350 C   0  0  0  0  0  0  0  0  0  0  0  0
   57.5240   33.6650   45.1070 C   0  0  0  0  0  0  0  0  0  0  0  0
   56.6440   34.5590   45.2080 O   0  0  0  0  0  0  0  0  0  0  0  0
   57.3350   32.6190   44.1460 N   0  0  0  0  0  0  0  0  0  0  0  0
   57.1430   31.3640   44.4280 C   0  0  0  0  0  0  0  0  0  0  0  0
   55.9130   30.8430   44.6000 N   0  0  0  0  0  0  0  0  0  0  0  0
   55.9280   29.5400   44.8760 N   0  0  0  0  0  0  0  0  0  0  0  0
   57.1710   29.0170   44.9250 C   0  0  0  0  0  0  0  0  0  0  0  0
   57.4350   27.5660   45.1730 C   0  0  0  0  0  0  0  0  0  0  0  0
   56.5331   27.3929   45.7785 H   0  0  0  0  0  0  0  0  0  0  0  0
   58.1170   26.7980   44.0610 C   0  0  0  0  0  0  0  0  0  0  0  0
   57.8857   25.7339   43.9057 H   0  0  0  0  0  0  0  0  0  0  0  0
   58.2238   26.9337   42.9746 H   0  0  0  0  0  0  0  0  0  0  0  0
   58.9050   27.2280   45.2690 C   0  0  0  0  0  0  0  0  0  0  0  0
   59.2498   26.4776   45.9956 H   0  0  0  0  0  0  0  0  0  0  0  0
   59.8261   27.8076   45.4291 H   0  0  0  0  0  0  0  0  0  0  0  0
   58.3400   30.1840   44.5900 S   0  0  0  0  0  0  0  0  0  0  0  0
  1  2  1  0
  2  3  2  0
  3  4  1  0
  3  5  1  0
  5  6  1  0
  6  7  1  0
  6  8  1  0
  8  9  2  0
  8 10  2  0
  8 11  1  0
 11 12  1  0
 11 13  1  0
 11 14  1  0
  5 15  2  0
 15 16  1  0
 15 17  1  0
 17 18  1  0
 17 19  2  0
 19 20  1  0
 20 21  2  0
 20 22  1  0
 22 23  2  0
 23 24  1  0
 24 25  1  0
 25 26  2  0
 26 27  1  0
 27 28  1  0
 27 29  1  0
 29 30  1  0
 29 31  1  0
 29 32  1  0
 32 33  1  0
 32 34  1  0
 26 35  1  0
 19  2  1  0
 35 23  1  0
 32 27  1  0
M  CHG  1  24  -1
M  END
>  <UniqueID>  (31) 
31

>  <SMILES>  (31) 
CS(=O)(=O)Nc1ccc(C(=O)/N=c2/[n-]nc(C3CC3)s2)cc1

>  <Energy>  (31) 
341.2952491070121

>  <Genealogy>  (31) 
CS(=O)(=O)Nc1ccc(C(=O)N=c2[n-]nc(C3CC3)s2)cc1 (protonated)
CS(=O)(=O)Nc1ccc(C(=O)/N=c2/[n-]nc(C3CC3)s2)cc1 (cis-trans isomerization)
CS(=O)(=O)Nc1ccc(C(=O)/N=c2/[n-]nc(C3CC3)s2)cc1 (3D coordinates assigned)
CS(=O)(=O)Nc1ccc(C(=O)/N=c2/[n-]nc(C3CC3)s2)cc1 (nonaromatic ring conformer: 341.2952491070121 kcal/mol)

>  <smiles>  (31) 
CS(=O)(=O)Nc1ccc(C(=O)N=c2[nH]nc(C3CC3)s2)cc1

>  <score_type>  (31) 
oracle

>  <origin>  (31) 
adg

>  <m_score__min__energy>  (31) 
-9.3499999999999996

>  <m_primary>  (31) 
energy

$$$$
31:0
     RDKit          3D

 40 42  0  0  0  0  0  0  0  0999 V2000
   60.6830   29.2610   50.1620 O   0  0  0  0  0  0  0  0  0  0  0  0
   60.0540   29.6370   49.1350 C   0  0  0  0  0  0  0  0  0  0  0  0
   59.5530   31.0500   49.0540 C   0  0  0  0  0  0  0  0  0  0  0  0
   60.6320   32.0030   48.5260 C   0  0  0  0  0  0  0  0  0  0  0  0
   60.0350   33.1160   47.7110 C   0  0  0  0  0  0  0  0  0  0  0  0
   60.0720   34.4720   48.0210 C   0  0  0  0  0  0  0  0  0  0  0  0
   59.3230   35.1790   47.1420 N   0  0  0  0  0  0  0  0  0  0  0  0
   58.8060   34.2800   46.2870 C   0  0  0  0  0  0  0  0  0  0  0  0
   57.9360   34.5290   45.2230 C   0  0  0  0  0  0  0  0  0  0  0  0
   57.4800   33.4280   44.4750 C   0  0  0  0  0  0  0  0  0  0  0  0
   57.8980   32.1180   44.8030 C   0  0  0  0  0  0  0  0  0  0  0  0
   58.7790   31.8980   45.8790 C   0  0  0  0  0  0  0  0  0  0  0  0
   59.2150   33.0090   46.6020 C   0  0  0  0  0  0  0  0  0  0  0  0
   59.7830   28.7200   48.0650 N   0  0  0  0  0  0  0  0  0  0  0  0
   60.0070   27.3030   48.1510 C   0  0  0  0  0  0  0  0  0  0  0  0
   60.3850   26.7750   49.2330 O   0  0  0  0  0  0  0  0  0  0  0  0
   59.7830   26.4300   46.9500 C   0  0  0  0  0  0  0  0  0  0  0  0
   58.3120   26.3270   46.6380 C   0  0  0  0  0  0  0  0  0  0  0  0
   57.5730   25.2160   47.0670 C   0  0  0  0  0  0  0  0  0  0  0  0
   56.2490   25.1290   46.7840 N   0  0  0  0  0  0  0  0  0  0  0  0
   55.6170   26.1030   46.0800 C   0  0  0  0  0  0  0  0  0  0  0  0
   54.3880   25.9940   45.8280 O   0  0  0  0  0  0  0  0  0  0  0  0
   56.3110   27.1900   45.6420 N   0  0  0  0  0  0  0  0  0  0  0  0
   57.6400   27.3220   45.9050 C   0  0  0  0  0  0  0  0  0  0  0  0
   58.2610   28.3350   45.4850 O   0  0  0  0  0  0  0  0  0  0  0  0
   58.6860   31.0830   48.3779 H   0  0  0  0  0  0  0  0  0  0  0  0
   59.2740   31.3743   50.0674 H   0  0  0  0  0  0  0  0  0  0  0  0
   61.1744   32.4364   49.3793 H   0  0  0  0  0  0  0  0  0  0  0  0
   61.3121   31.4291   47.8794 H   0  0  0  0  0  0  0  0  0  0  0  0
   60.6311   34.9083   48.8619 H   0  0  0  0  0  0  0  0  0  0  0  0
   59.1610   36.2110   47.1480 H   0  0  0  0  0  0  0  0  0  0  0  0
   57.6176   35.5529   44.9777 H   0  0  0  0  0  0  0  0  0  0  0  0
   56.7941   33.5875   43.6299 H   0  0  0  0  0  0  0  0  0  0  0  0
   57.5323   31.2644   44.2134 H   0  0  0  0  0  0  0  0  0  0  0  0
   59.1128   30.8832   46.1412 H   0  0  0  0  0  0  0  0  0  0  0  0
   59.3730   29.1050   47.1830 H   0  0  0  0  0  0  0  0  0  0  0  0
   60.3068   26.8631   46.0851 H   0  0  0  0  0  0  0  0  0  0  0  0
   60.1720   25.4237   47.1646 H   0  0  0  0  0  0  0  0  0  0  0  0
   58.0673   24.4134   47.6340 H   0  0  0  0  0  0  0  0  0  0  0  0
   55.8180   27.9300   45.0900 H   0  0  0  0  0  0  0  0  0  0  0  0
  1  2  2  0
  2  3  1  0
  3  4  1  0
  4  5  1  0
  5  6  2  0
  6  7  1  0
  7  8  1  0
  8  9  2  0
  9 10  1  0
 10 11  2  0
 11 12  1  0
 12 13  2  0
  2 14  1  0
 14 15  1  0
 15 16  2  0
 15 17  1  0
 17 18  1  0
 18 19  2  0
 19 20  1  0
 20 21  1  0
 21 22  2  0
 21 23  1  0
 23 24  1  0
 24 25  2  0
 13  5  1  0
 24 18  1  0
 13  8  1  0
  3 26  1  0
  3 27  1  0
  4 28  1  0
  4 29  1  0
  6 30  1  0
  7 31  1  0
  9 32  1  0
 10 33  1  0
 11 34  1  0
 12 35  1  0
 14 36  1  0
 17 37  1  0
 17 38  1  0
 19 39  1  0
 23 40  1  0
M  CHG  1  20  -1
M  END
>  <UniqueID>  (32) 
32

>  <SMILES>  (32) 
O=C(CCc1c[nH]c2ccccc12)NC(=O)Cc1c[n-]c(=O)[nH]c1=O

>  <Energy>  (32) 
70.37962671883207

>  <Genealogy>  (32) 
O=C(CCc1c[nH]c2ccccc12)NC(=O)Cc1c[n-]c(=O)[nH]c1=O (protonated)
O=C(CCc1c[nH]c2ccccc12)NC(=O)Cc1c[n-]c(=O)[nH]c1=O (3D coordinates assigned)
O=C(CCc1c[nH]c2ccccc12)NC(=O)Cc1c[n-]c(=O)[nH]c1=O (optimized conformer: 70.37962671883207 kcal/mol)

>  <smiles>  (32) 
O=C(CCc1c[nH]c2ccccc12)NC(=O)Cc1c[nH]c(=O)[nH]c1=O

>  <score_type>  (32) 
oracle

>  <origin>  (32) 
adg

>  <m_score__min__energy>  (32) 
-10.970000000000001

>  <m_primary>  (32) 
energy

$$$$
32:0
     RDKit          3D

 46 50  0  0  0  0  0  0  0  0999 V2000
   52.1370   32.7170   49.3530 H   0  0  0  0  0  0  0  0  0  0  0  0
   51.2840   32.4230   49.8090 O   0  0  0  0  0  0  0  0  0  0  0  0
   51.2260   32.1580   51.1750 C   0  0  0  0  0  0  0  0  0  0  0  0
   50.3310   32.7340   51.9940 N   0  0  0  0  0  0  0  0  0  0  0  0
   50.6340   32.1980   53.1940 C   0  0  0  0  0  0  0  0  0  0  0  0
   50.0070   32.4910   54.2460 O   0  0  0  0  0  0  0  0  0  0  0  0
   51.6620   31.3250   53.1790 N   0  0  0  0  0  0  0  0  0  0  0  0
   52.0380   31.2960   51.8870 C   0  0  0  0  0  0  0  0  0  0  0  0
   53.1600   30.4980   51.3440 C   0  0  0  0  0  0  0  0  0  0  0  0
   53.3072   30.5074   50.2539 H   0  0  0  0  0  0  0  0  0  0  0  0
   57.2590   29.0060   53.2420 C   0  0  0  0  0  0  0  0  0  0  0  0
   53.7790   28.6550   52.8900 C   0  0  0  0  0  0  0  0  0  0  0  0
   52.7957   28.1951   53.0676 H   0  0  0  0  0  0  0  0  0  0  0  0
   54.9460   28.2320   53.4270 N   0  0  0  0  0  0  0  0  0  0  0  0
   55.9110   29.0230   52.9890 N   0  0  0  0  0  0  0  0  0  0  0  0
   54.0130   29.7630   52.0770 C   0  0  0  0  0  0  0  0  0  0  0  0
   57.8860   28.1520   54.0160 N   0  0  0  0  0  0  0  0  0  0  0  0
   59.2170   27.5630   54.2670 C   0  0  0  0  0  0  0  0  0  0  0  0
   58.8575   26.9803   55.1279 H   0  0  0  0  0  0  0  0  0  0  0  0
   60.0850   27.2570   53.0690 C   0  0  0  0  0  0  0  0  0  0  0  0
   60.7151   26.3554   53.0603 H   0  0  0  0  0  0  0  0  0  0  0  0
   59.9134   27.1448   51.9883 H   0  0  0  0  0  0  0  0  0  0  0  0
   60.4280   28.4290   54.0050 C   0  0  0  0  0  0  0  0  0  0  0  0
   61.3039   28.3678   54.6677 H   0  0  0  0  0  0  0  0  0  0  0  0
   60.6046   29.5069   53.8752 H   0  0  0  0  0  0  0  0  0  0  0  0
   58.0160   29.9610   52.6340 N   0  0  0  0  0  0  0  0  0  0  0  0
   57.4710   30.9020   51.8070 C   0  0  0  0  0  0  0  0  0  0  0  0
   58.3330   31.9240   51.1630 C   0  0  0  0  0  0  0  0  0  0  0  0
   59.0530   32.8490   51.9420 C   0  0  0  0  0  0  0  0  0  0  0  0
   58.9650   32.8248   53.0382 H   0  0  0  0  0  0  0  0  0  0  0  0
   59.8780   33.7970   51.3340 C   0  0  0  0  0  0  0  0  0  0  0  0
   60.4446   34.5083   51.9529 H   0  0  0  0  0  0  0  0  0  0  0  0
   59.9860   33.8450   49.9430 C   0  0  0  0  0  0  0  0  0  0  0  0
   60.6488   34.5852   49.4711 H   0  0  0  0  0  0  0  0  0  0  0  0
   59.2560   32.9570   49.1460 C   0  0  0  0  0  0  0  0  0  0  0  0
   59.4100   33.0190   47.7220 N   0  0  0  0  0  0  0  0  0  0  0  0
   58.9880   34.0860   46.8610 C   0  0  0  0  0  0  0  0  0  0  0  0
   59.3940   35.2540   47.0970 O   0  0  0  0  0  0  0  0  0  0  0  0
   58.0450   33.8620   45.7180 C   0  0  0  0  0  0  0  0  0  0  0  0
   57.0447   33.6244   46.1091 H   0  0  0  0  0  0  0  0  0  0  0  0
   57.9915   34.7724   45.1030 H   0  0  0  0  0  0  0  0  0  0  0  0
   58.4066   33.0248   45.1030 H   0  0  0  0  0  0  0  0  0  0  0  0
   58.4520   31.9800   49.7600 C   0  0  0  0  0  0  0  0  0  0  0  0
   57.9103   31.2518   49.1384 H   0  0  0  0  0  0  0  0  0  0  0  0
   56.1290   30.8930   51.5750 N   0  0  0  0  0  0  0  0  0  0  0  0
   55.3760   29.9460   52.1770 C   0  0  0  0  0  0  0  0  0  0  0  0
  1  2  1  0
  2  3  1  0
  3  4  1  0
  4  5  1  0
  5  6  2  0
  5  7  1  0
  7  8  1  0
  8  9  1  0
  9 10  1  0
  9 11  2  0
 11 12  1  0
 12 13  1  0
 12 14  2  0
 14 15  1  0
 15 16  1  0
 16 17  2  0
 17 18  1  0
 18 19  1  0
 18 20  1  0
 20 21  1  0
 20 22  1  0
 20 23  1  0
 23 24  1  0
 23 25  1  0
 16 26  1  0
 26 27  2  0
 27 28  1  0
 28 29  2  0
 29 30  1  0
 29 31  1  0
 31 32  1  0
 31 33  2  0
 33 34  1  0
 33 35  1  0
 35 36  1  0
 36 37  1  0
 37 38  2  0
 37 39  1  0
 39 40  1  0
 39 41  1  0
 39 42  1  0
 35 43  2  0
 43 44  1  0
 27 45  1  0
 45 46  2  0
  8  3  2  0
 46 11  1  0
 46 15  1  0
 23 18  1  0
 43 28  1  0
M  CHG  3   4  -1   7  -1  36  -1
M  END
>  <UniqueID>  (33) 
33

>  <SMILES>  (33) 
CC(=O)[N-]c1cccc(-c2n/c(=N/C3CC3)n3nc/c(=C\c4[n-]c(=O)[n-]c4O)c3n2)c1

>  <Energy>  (33) 
416.8666044973636

>  <Genealogy>  (33) 
CC(=O)[N-]c1cccc(-c2nc(=NC3CC3)n3ncc(=Cc4[n-]c(=O)[n-]c4O)c3n2)c1 (protonated)
CC(=O)[N-]c1cccc(-c2n/c(=N/C3CC3)n3nc/c(=C\c4[n-]c(=O)[n-]c4O)c3n2)c1 (cis-trans isomerization)
CC(=O)[N-]c1cccc(-c2n/c(=N/C3CC3)n3nc/c(=C\c4[n-]c(=O)[n-]c4O)c3n2)c1 (3D coordinates assigned)
CC(=O)[N-]c1cccc(-c2n/c(=N/C3CC3)n3nc/c(=C\c4[n-]c(=O)[n-]c4O)c3n2)c1 (nonaromatic ring conformer: 416.8666044973636 kcal/mol)

>  <smiles>  (33) 
CC(=O)Nc1cccc(-c2nc(=NC3CC3)n3ncc(=Cc4[nH]c(=O)[nH]c4O)c3n2)c1

>  <score_type>  (33) 
oracle

>  <origin>  (33) 
adg

>  <m_score__min__energy>  (33) 
-14.039999999999999

>  <m_primary>  (33) 
energy

$$$$
33:0
     RDKit          3D

 63 66  0  0  0  0  0  0  0  0999 V2000
   60.1180   29.0510   45.8420 C   0  0  0  0  0  0  0  0  0  0  0  0
   58.8830   29.6220   46.3900 N   0  0  0  0  0  0  0  0  0  0  0  0
   57.6120   29.0720   45.9940 C   0  0  0  0  0  0  0  0  0  0  0  0
   56.8720   29.7160   45.2000 O   0  0  0  0  0  0  0  0  0  0  0  0
   57.1490   27.8430   46.5830 N   0  0  0  0  0  0  0  0  0  0  0  0
   56.7990   26.7380   45.9850 C   0  0  0  0  0  0  0  0  0  0  0  0
   57.6790   25.9950   45.1620 C   0  0  0  0  0  0  0  0  0  0  0  0
   57.2270   24.8160   44.5620 C   0  0  0  0  0  0  0  0  0  0  0  0
   55.9230   24.3760   44.7890 C   0  0  0  0  0  0  0  0  0  0  0  0
   55.0840   25.1200   45.6220 C   0  0  0  0  0  0  0  0  0  0  0  0
   55.5370   26.2660   46.1970 N   0  0  0  0  0  0  0  0  0  0  0  0
   58.9560   30.6180   47.4300 C   0  0  0  0  0  0  0  0  0  0  0  0
   58.5350   30.3220   48.7340 C   0  0  0  0  0  0  0  0  0  0  0  0
   58.5930   31.2630   49.7270 N   0  0  0  0  0  0  0  0  0  0  0  0
   58.1560   30.8860   51.0940 C   0  0  2  0  0  0  0  0  0  0  0  0
   58.9380   31.6560   52.1850 C   0  0  0  0  0  0  0  0  0  0  0  0
   59.3190   30.7600   53.3770 C   0  0  0  0  0  0  0  0  0  0  0  0
   58.2140   29.8620   53.8010 N   0  0  1  0  0  0  0  0  0  0  0  0
   57.0860   30.5980   54.4330 C   0  0  0  0  0  0  0  0  0  0  0  0
   55.8140   30.5360   53.6160 C   0  0  0  0  0  0  0  0  0  0  0  0
   55.6920   31.2890   52.4380 C   0  0  0  0  0  0  0  0  0  0  0  0
   54.5270   31.2170   51.6700 C   0  0  0  0  0  0  0  0  0  0  0  0
   53.4640   30.3980   52.0730 C   0  0  0  0  0  0  0  0  0  0  0  0
   52.2030   30.3370   51.2540 C   0  0  0  0  0  0  0  0  0  0  0  0
   51.4580   31.6280   51.3530 C   0  0  0  0  0  0  0  0  0  0  0  0
   51.0170   32.2880   50.1680 N   0  0  0  0  0  0  0  0  0  0  0  0
   51.2420   32.1490   52.4810 O   0  0  0  0  0  0  0  0  0  0  0  0
   53.5720   29.6650   53.2650 C   0  0  0  0  0  0  0  0  0  0  0  0
   54.7410   29.7300   54.0280 C   0  0  0  0  0  0  0  0  0  0  0  0
   57.7220   28.9730   52.7020 C   0  0  0  0  0  0  0  0  0  0  0  0
   58.2180   29.3610   51.2960 C   0  0  0  0  0  0  0  0  0  0  0  0
   59.0660   32.5220   49.4290 C   0  0  0  0  0  0  0  0  0  0  0  0
   59.1150   33.4230   50.3090 O   0  0  0  0  0  0  0  0  0  0  0  0
   59.4900   32.8170   48.1740 N   0  0  0  0  0  0  0  0  0  0  0  0
   59.4530   31.9010   47.1770 C   0  0  0  0  0  0  0  0  0  0  0  0
   59.8820   32.2120   46.0340 O   0  0  0  0  0  0  0  0  0  0  0  0
   60.7784   28.7457   46.6670 H   0  0  0  0  0  0  0  0  0  0  0  0
   59.8740   28.1743   45.2240 H   0  0  0  0  0  0  0  0  0  0  0  0
   60.6278   29.8048   45.2240 H   0  0  0  0  0  0  0  0  0  0  0  0
   58.7095   26.3423   44.9960 H   0  0  0  0  0  0  0  0  0  0  0  0
   57.8987   24.2362   43.9119 H   0  0  0  0  0  0  0  0  0  0  0  0
   55.5587   23.4518   44.3165 H   0  0  0  0  0  0  0  0  0  0  0  0
   54.0559   24.7785   45.8130 H   0  0  0  0  0  0  0  0  0  0  0  0
   58.1516   29.3168   48.9633 H   0  0  0  0  0  0  0  0  0  0  0  0
   57.1029   31.1854   51.2006 H   0  0  0  0  0  0  0  0  0  0  0  0
   59.8584   32.0618   51.7398 H   0  0  0  0  0  0  0  0  0  0  0  0
   58.2856   32.4570   52.5628 H   0  0  0  0  0  0  0  0  0  0  0  0
   60.1828   30.1424   53.0900 H   0  0  0  0  0  0  0  0  0  0  0  0
   59.5521   31.4203   54.2254 H   0  0  0  0  0  0  0  0  0  0  0  0
   58.6160   29.2310   54.5350 H   0  0  0  0  0  0  0  0  0  0  0  0
   56.8900   30.1586   55.4222 H   0  0  0  0  0  0  0  0  0  0  0  0
   57.3807   31.6552   54.5070 H   0  0  0  0  0  0  0  0  0  0  0  0
   56.5187   31.9399   52.1173 H   0  0  0  0  0  0  0  0  0  0  0  0
   54.4440   31.8060   50.7447 H   0  0  0  0  0  0  0  0  0  0  0  0
   52.4623   30.1474   50.2020 H   0  0  0  0  0  0  0  0  0  0  0  0
   51.5662   29.5259   51.6371 H   0  0  0  0  0  0  0  0  0  0  0  0
   51.6820   32.8310   49.5710 H   0  0  0  0  0  0  0  0  0  0  0  0
   52.7333   29.0370   53.5999 H   0  0  0  0  0  0  0  0  0  0  0  0
   54.8208   29.1462   54.9569 H   0  0  0  0  0  0  0  0  0  0  0  0
   58.0576   27.9471   52.9137 H   0  0  0  0  0  0  0  0  0  0  0  0
   56.6266   29.0725   52.6858 H   0  0  0  0  0  0  0  0  0  0  0  0
   59.2579   29.0235   51.1749 H   0  0  0  0  0  0  0  0  0  0  0  0
   57.5691   28.8805   50.5490 H   0  0  0  0  0  0  0  0  0  0  0  0
  1  2  1  0
  2  3  1  0
  3  4  2  0
  3  5  1  0
  5  6  2  3
  6  7  1  0
  7  8  2  0
  8  9  1  0
  9 10  2  0
 10 11  1  0
  2 12  1  0
 12 13  2  0
 13 14  1  0
 14 15  1  0
 15 16  1  0
 16 17  1  0
 17 18  1  0
 18 19  1  0
 19 20  1  0
 20 21  2  0
 21 22  1  0
 22 23  2  0
 23 24  1  0
 24 25  1  0
 25 26  1  0
 25 27  2  0
 23 28  1  0
 28 29  2  0
 18 30  1  0
 30 31  1  0
 14 32  1  0
 32 33  2  0
 32 34  1  0
 34 35  1  0
 35 36  2  0
 11  6  1  0
 35 12  1  0
 31 15  1  0
 29 20  1  0
  1 37  1  0
  1 38  1  0
  1 39  1  0
  7 40  1  0
  8 41  1  0
  9 42  1  0
 10 43  1  0
 13 44  1  0
 15 45  1  6
 16 46  1  0
 16 47  1  0
 17 48  1  0
 17 49  1  0
 18 50  1  1
 19 51  1  0
 19 52  1  0
 21 53  1  0
 22 54  1  0
 24 55  1  0
 24 56  1  0
 26 57  1  0
 28 58  1  0
 29 59  1  0
 30 60  1  0
 30 61  1  0
 31 62  1  0
 31 63  1  0
M  CHG  4  11  -1  18   1  26  -1  34  -1
M  END
>  <UniqueID>  (34) 
34

>  <SMILES>  (34) 
CN(C(=O)N=c1cccc[n-]1)c1cn(C2CC[NH+](Cc3ccc(CC([NH-])=O)cc3)CC2)c(=O)[n-]c1=O

>  <Energy>  (34) 
94.7093526303396

>  <Genealogy>  (34) 
CN(C(=O)N=c1cccc[n-]1)c1cn(C2CC[NH+](Cc3ccc(CC([NH-])=O)cc3)CC2)c(=O)[n-]c1=O (protonated)
CN(C(=O)N=c1cccc[n-]1)c1cn(C2CC[NH+](Cc3ccc(CC([NH-])=O)cc3)CC2)c(=O)[n-]c1=O (3D coordinates assigned)
CN(C(=O)N=c1cccc[n-]1)c1cn(C2CC[NH+](Cc3ccc(CC([NH-])=O)cc3)CC2)c(=O)[n-]c1=O (nonaromatic ring conformer: 94.7093526303396 kcal/mol)

>  <smiles>  (34) 
CN(C(=O)N=c1cccc[nH]1)c1cn(C2CCN(Cc3ccc(CC(N)=O)cc3)CC2)c(=O)[nH]c1=O

>  <score_type>  (34) 
oracle

>  <origin>  (34) 
adg

>  <m_score__min__energy>  (34) 
-14.119999999999999

>  <m_primary>  (34) 
energy

$$$$
34:0
     RDKit          3D

 53 56  0  0  0  0  0  0  0  0999 V2000
   58.1980   34.2850   46.7320 O   0  0  0  0  0  0  0  0  0  0  0  0
   58.5190   33.0910   46.4870 C   0  0  0  0  0  0  0  0  0  0  0  0
   59.4470   32.3940   47.3350 N   0  0  0  0  0  0  0  0  0  0  0  0
   59.8660   32.8640   48.6280 C   0  0  0  0  0  0  0  0  0  0  0  0
   61.1580   33.3900   48.7810 C   0  0  0  0  0  0  0  0  0  0  0  0
   61.6000   33.8290   50.0320 C   0  0  0  0  0  0  0  0  0  0  0  0
   60.7620   33.7340   51.1450 C   0  0  0  0  0  0  0  0  0  0  0  0
   59.4760   33.1910   51.0120 C   0  0  0  0  0  0  0  0  0  0  0  0
   58.4170   33.0290   52.4120 S   0  0  0  0  0  0  0  0  0  0  0  0
   56.9910   33.0750   51.9330 O   0  0  0  0  0  0  0  0  0  0  0  0
   58.6460   34.1720   53.3620 O   0  0  0  0  0  0  0  0  0  0  0  0
   58.7400   31.5020   53.2040 N   0  0  0  0  0  0  0  0  0  0  0  0
   57.5260   30.9370   53.8350 C   0  0  0  0  0  0  0  0  0  0  0  0
   56.8660   29.8400   52.9800 C   0  0  0  0  0  0  0  0  0  0  0  0
   57.0520   30.1110   51.6090 O   0  0  0  0  0  0  0  0  0  0  0  0
   58.4150   29.9450   51.2600 C   0  0  0  0  0  0  0  0  0  0  0  0
   59.3990   30.5470   52.2940 C   0  0  0  0  0  0  0  0  0  0  0  0
   59.0350   32.7490   49.7570 C   0  0  0  0  0  0  0  0  0  0  0  0
   57.9720   32.4240   45.2950 C   0  0  0  0  0  0  0  0  0  0  0  0
   58.0150   32.9110   44.0010 C   0  0  0  0  0  0  0  0  0  0  0  0
   57.3880   31.9610   43.2220 C   0  0  0  0  0  0  0  0  0  0  0  0
   57.0090   30.9550   44.0920 C   0  0  0  0  0  0  0  0  0  0  0  0
   56.2790   29.7030   43.7180 C   0  0  0  0  0  0  0  0  0  0  0  0
   55.9810   28.9340   44.8830 O   0  0  0  0  0  0  0  0  0  0  0  0
   56.7900   27.9150   45.4130 C   0  0  0  0  0  0  0  0  0  0  0  0
   58.1980   27.9800   45.3950 C   0  0  0  0  0  0  0  0  0  0  0  0
   58.9590   26.9380   45.9360 C   0  0  0  0  0  0  0  0  0  0  0  0
   58.3270   25.8260   46.4960 C   0  0  0  0  0  0  0  0  0  0  0  0
   56.9320   25.7520   46.5170 C   0  0  0  0  0  0  0  0  0  0  0  0
   56.1660   26.7910   45.9780 C   0  0  0  0  0  0  0  0  0  0  0  0
   54.7780   26.7080   46.0080 O   0  0  0  0  0  0  0  0  0  0  0  0
   57.3640   31.2610   45.3180 O   0  0  0  0  0  0  0  0  0  0  0  0
   59.9100   31.5380   46.9540 H   0  0  0  0  0  0  0  0  0  0  0  0
   61.8272   33.4572   47.9106 H   0  0  0  0  0  0  0  0  0  0  0  0
   62.6103   34.2503   50.1402 H   0  0  0  0  0  0  0  0  0  0  0  0
   61.1111   34.0855   52.1271 H   0  0  0  0  0  0  0  0  0  0  0  0
   57.8038   30.5051   54.8078 H   0  0  0  0  0  0  0  0  0  0  0  0
   56.7983   31.7545   53.9450 H   0  0  0  0  0  0  0  0  0  0  0  0
   57.3202   28.8680   53.2228 H   0  0  0  0  0  0  0  0  0  0  0  0
   55.7880   29.8165   53.1974 H   0  0  0  0  0  0  0  0  0  0  0  0
   58.6219   28.8684   51.1693 H   0  0  0  0  0  0  0  0  0  0  0  0
   58.5730   30.4833   50.3138 H   0  0  0  0  0  0  0  0  0  0  0  0
   59.8291   29.7291   52.8907 H   0  0  0  0  0  0  0  0  0  0  0  0
   60.1771   31.0925   51.7399 H   0  0  0  0  0  0  0  0  0  0  0  0
   58.0320   32.3091   49.6544 H   0  0  0  0  0  0  0  0  0  0  0  0
   58.4577   33.8596   43.6631 H   0  0  0  0  0  0  0  0  0  0  0  0
   57.2236   31.9962   42.1349 H   0  0  0  0  0  0  0  0  0  0  0  0
   55.3406   29.9688   43.2093 H   0  0  0  0  0  0  0  0  0  0  0  0
   56.9154   29.1052   43.0489 H   0  0  0  0  0  0  0  0  0  0  0  0
   58.7005   28.8535   44.9538 H   0  0  0  0  0  0  0  0  0  0  0  0
   60.0574   26.9949   45.9201 H   0  0  0  0  0  0  0  0  0  0  0  0
   58.9275   25.0081   46.9207 H   0  0  0  0  0  0  0  0  0  0  0  0
   56.4352   24.8753   46.9581 H   0  0  0  0  0  0  0  0  0  0  0  0
  1  2  2  0
  2  3  1  0
  3  4  1  0
  4  5  2  0
  5  6  1  0
  6  7  2  0
  7  8  1  0
  8  9  1  0
  9 10  2  0
  9 11  2  0
  9 12  1  0
 12 13  1  0
 13 14  1  0
 14 15  1  0
 15 16  1  0
 16 17  1  0
  8 18  2  0
  2 19  1  0
 19 20  2  0
 20 21  1  0
 21 22  2  0
 22 23  1  0
 23 24  1  0
 24 25  1  0
 25 26  2  0
 26 27  1  0
 27 28  2  0
 28 29  1  0
 29 30  2  0
 30 31  1  0
 22 32  1  0
 18  4  1  0
 32 19  1  0
 17 12  1  0
 30 25  1  0
  3 33  1  0
  5 34  1  0
  6 35  1  0
  7 36  1  0
 13 37  1  0
 13 38  1  0
 14 39  1  0
 14 40  1  0
 16 41  1  0
 16 42  1  0
 17 43  1  0
 17 44  1  0
 18 45  1  0
 20 46  1  0
 21 47  1  0
 23 48  1  0
 23 49  1  0
 26 50  1  0
 27 51  1  0
 28 52  1  0
 29 53  1  0
M  CHG  1  31  -1
M  END
>  <UniqueID>  (35) 
35

>  <SMILES>  (35) 
O=C(Nc1cccc(S(=O)(=O)N2CCOCC2)c1)c1ccc(COc2ccccc2[O-])o1

>  <Energy>  (35) 
94.92346626476156

>  <Genealogy>  (35) 
O=C(Nc1cccc(S(=O)(=O)N2CCOCC2)c1)c1ccc(COc2ccccc2[O-])o1 (protonated)
O=C(Nc1cccc(S(=O)(=O)N2CCOCC2)c1)c1ccc(COc2ccccc2[O-])o1 (3D coordinates assigned)
O=C(Nc1cccc(S(=O)(=O)N2CCOCC2)c1)c1ccc(COc2ccccc2[O-])o1 (nonaromatic ring conformer: 94.92346626476156 kcal/mol)

>  <smiles>  (35) 
O=C(Nc1cccc(S(=O)(=O)N2CCOCC2)c1)c1ccc(COc2ccccc2O)o1

>  <score_type>  (35) 
oracle

>  <origin>  (35) 
adg

>  <m_score__min__energy>  (35) 
-14.84

>  <m_primary>  (35) 
energy

$$$$
35:0
     RDKit          3D

 39 42  0  0  0  0  0  0  0  0999 V2000
   58.9800   28.6500   47.7850 C   0  0  0  0  0  0  0  0  0  0  0  0
   58.2590   29.1490   46.7690 C   0  0  0  0  0  0  0  0  0  0  0  0
   57.8810   28.4980   45.5880 C   0  0  0  0  0  0  0  0  0  0  0  0
   57.9500   27.2000   45.2260 C   0  0  0  0  0  0  0  0  0  0  0  0
   57.3840   26.0730   45.9850 C   0  0  0  0  0  0  0  0  0  0  0  0
   58.1160   25.1240   46.5970 N   0  0  0  0  0  0  0  0  0  0  0  0
   57.1940   24.4010   47.2660 C   0  0  0  0  0  0  0  0  0  0  0  0
   57.4940   23.3960   47.9620 O   0  0  0  0  0  0  0  0  0  0  0  0
   55.9260   24.8460   47.1420 N   0  0  0  0  0  0  0  0  0  0  0  0
   56.0630   25.9120   46.3380 C   0  0  0  0  0  0  0  0  0  0  0  0
   54.9980   26.7160   45.9420 O   0  0  0  0  0  0  0  0  0  0  0  0
   57.3630   29.5170   44.7940 C   0  0  0  0  0  0  0  0  0  0  0  0
   56.8060   29.3860   43.4110 C   0  0  0  0  0  0  0  0  0  0  0  0
   57.3740   30.6790   45.4710 N   0  0  0  0  0  0  0  0  0  0  0  0
   57.9020   30.4550   46.6650 N   0  0  0  0  0  0  0  0  0  0  0  0
   58.1430   31.5360   47.6230 C   0  0  0  0  0  0  0  0  0  0  0  0
   59.5770   31.9630   47.5740 C   0  0  0  0  0  0  0  0  0  0  0  0
   60.2480   32.9850   46.4030 S   0  0  0  0  0  0  0  0  0  0  0  0
   61.7910   32.9870   47.0690 C   0  0  0  0  0  0  0  0  0  0  0  0
   62.9270   33.6520   46.6120 C   0  0  0  0  0  0  0  0  0  0  0  0
   64.1170   33.5070   47.3420 C   0  0  0  0  0  0  0  0  0  0  0  0
   64.1480   32.7100   48.5030 C   0  0  0  0  0  0  0  0  0  0  0  0
   62.9890   32.0480   48.9450 C   0  0  0  0  0  0  0  0  0  0  0  0
   61.8080   32.1980   48.2110 C   0  0  0  0  0  0  0  0  0  0  0  0
   60.5660   31.6230   48.4990 C   0  0  0  0  0  0  0  0  0  0  0  0
   60.3390   30.7970   49.5930 O   0  0  0  0  0  0  0  0  0  0  0  0
   59.2056   29.2777   48.6597 H   0  0  0  0  0  0  0  0  0  0  0  0
   59.3454   27.6133   47.7430 H   0  0  0  0  0  0  0  0  0  0  0  0
   58.4720   26.9648   44.2867 H   0  0  0  0  0  0  0  0  0  0  0  0
   55.1440   27.5490   45.3840 H   0  0  0  0  0  0  0  0  0  0  0  0
   55.7367   29.1345   43.4687 H   0  0  0  0  0  0  0  0  0  0  0  0
   56.9303   30.3379   42.8739 H   0  0  0  0  0  0  0  0  0  0  0  0
   57.3416   28.5893   42.8739 H   0  0  0  0  0  0  0  0  0  0  0  0
   57.5004   32.3929   47.3725 H   0  0  0  0  0  0  0  0  0  0  0  0
   57.9114   31.1749   48.6359 H   0  0  0  0  0  0  0  0  0  0  0  0
   62.8922   34.2731   45.7048 H   0  0  0  0  0  0  0  0  0  0  0  0
   65.0307   34.0187   47.0055 H   0  0  0  0  0  0  0  0  0  0  0  0
   65.0859   32.6047   49.0680 H   0  0  0  0  0  0  0  0  0  0  0  0
   63.0107   31.4241   49.8507 H   0  0  0  0  0  0  0  0  0  0  0  0
  1  2  2  0
  2  3  1  0
  3  4  2  3
  4  5  1  0
  5  6  1  0
  6  7  1  0
  7  8  2  0
  7  9  1  0
  9 10  1  0
 10 11  1  0
  3 12  1  0
 12 13  1  0
 12 14  2  0
 14 15  1  0
 15 16  1  0
 16 17  1  0
 17 18  1  0
 18 19  1  0
 19 20  2  0
 20 21  1  0
 21 22  2  0
 22 23  1  0
 23 24  2  0
 24 25  1  0
 25 26  1  0
 15  2  1  0
 25 17  2  0
 10  5  2  0
 24 19  1  0
  1 27  1  0
  1 28  1  0
  4 29  1  0
 11 30  1  0
 13 31  1  0
 13 32  1  0
 13 33  1  0
 16 34  1  0
 16 35  1  0
 20 36  1  0
 21 37  1  0
 22 38  1  0
 23 39  1  0
M  CHG  3   6  -1   9  -1  26  -1
M  END
>  <UniqueID>  (36) 
36

>  <SMILES>  (36) 
C=c1c(=Cc2[n-]c(=O)[n-]c2O)c(C)nn1Cc1sc2ccccc2c1[O-]

>  <Energy>  (36) 
144.49019919164007

>  <Genealogy>  (36) 
C=c1c(=Cc2[n-]c(=O)[n-]c2O)c(C)nn1Cc1sc2ccccc2c1[O-] (protonated)
C=c1c(=Cc2[n-]c(=O)[n-]c2O)c(C)nn1Cc1sc2ccccc2c1[O-] (3D coordinates assigned)
C=c1c(=Cc2[n-]c(=O)[n-]c2O)c(C)nn1Cc1sc2ccccc2c1[O-] (optimized conformer: 144.49019919164007 kcal/mol)

>  <smiles>  (36) 
C=c1c(=Cc2[nH]c(=O)[nH]c2O)c(C)nn1Cc1sc2ccccc2c1O

>  <score_type>  (36) 
oracle

>  <origin>  (36) 
adg

>  <m_score__min__energy>  (36) 
-14.93

>  <m_primary>  (36) 
energy

$$$$
36:0
     RDKit          3D

 64 68  0  0  0  0  0  0  0  0999 V2000
   58.1860   28.3150   44.5840 C   0  0  0  0  0  0  0  0  0  0  0  0
   58.3570   28.4400   46.3550 S   0  0  0  0  0  0  0  0  0  0  0  0
   57.9790   29.8380   46.7660 O   0  0  0  0  0  0  0  0  0  0  0  0
   57.4230   27.4620   47.0130 O   0  0  0  0  0  0  0  0  0  0  0  0
   60.0170   28.1100   46.8110 N   0  0  0  0  0  0  0  0  0  0  0  0
   60.1390   26.9120   47.6760 C   0  0  0  0  0  0  0  0  0  0  0  0
   60.6700   27.2040   49.0920 C   0  0  0  0  0  0  0  0  0  0  0  0
   59.9890   28.4540   49.6770 C   0  0  0  0  0  0  0  0  0  0  0  0
   60.4490   28.6870   51.0660 N   0  0  0  0  0  0  0  0  0  0  0  0
   59.4430   29.3650   51.8650 C   0  0  0  0  0  0  0  0  0  0  0  0
   58.6620   28.5920   52.7420 C   0  0  0  0  0  0  0  0  0  0  0  0
   57.6490   29.1830   53.4940 C   0  0  0  0  0  0  0  0  0  0  0  0
   56.9540   28.4860   54.2770 O   0  0  0  0  0  0  0  0  0  0  0  0
   57.4040   30.5110   53.3790 N   0  0  0  0  0  0  0  0  0  0  0  0
   58.1300   31.3080   52.5550 C   0  0  0  0  0  0  0  0  0  0  0  0
   57.8120   32.6650   52.4690 C   0  0  0  0  0  0  0  0  0  0  0  0
   58.5250   33.5050   51.6160 C   0  0  0  0  0  0  0  0  0  0  0  0
   59.6010   33.0070   50.8600 C   0  0  0  0  0  0  0  0  0  0  0  0
   60.3500   33.8560   49.8420 C   0  0  0  0  0  0  0  0  0  0  0  0
   61.8510   33.5900   49.8720 C   0  0  0  0  0  0  0  0  0  0  0  0
   62.4910   32.8200   48.8770 C   0  0  0  0  0  0  0  0  0  0  0  0
   63.8630   32.5700   48.9480 C   0  0  0  0  0  0  0  0  0  0  0  0
   64.6190   33.0870   50.0050 C   0  0  0  0  0  0  0  0  0  0  0  0
   66.3420   32.7570   50.1000 Cl  0  0  0  0  0  0  0  0  0  0  0  0
   64.0040   33.8640   50.9870 C   0  0  0  0  0  0  0  0  0  0  0  0
   62.6310   34.1200   50.9210 C   0  0  0  0  0  0  0  0  0  0  0  0
   59.7640   33.7870   48.4390 C   0  0  0  0  0  0  0  0  0  0  0  0
   60.2600   34.5790   47.3800 C   0  0  0  0  0  0  0  0  0  0  0  0
   59.7060   34.4750   46.0970 C   0  0  0  0  0  0  0  0  0  0  0  0
   58.6650   33.5740   45.8510 C   0  0  0  0  0  0  0  0  0  0  0  0
   57.9780   33.4410   44.2400 Cl  0  0  0  0  0  0  0  0  0  0  0  0
   58.1810   32.7690   46.8870 C   0  0  0  0  0  0  0  0  0  0  0  0
   58.7320   32.8680   48.1700 C   0  0  0  0  0  0  0  0  0  0  0  0
   59.9310   31.6450   50.9610 C   0  0  0  0  0  0  0  0  0  0  0  0
   59.1890   30.7660   51.7810 C   0  0  0  0  0  0  0  0  0  0  0  0
   60.2260   29.6860   48.7570 C   0  0  0  0  0  0  0  0  0  0  0  0
   60.6870   29.3120   47.3380 C   0  0  0  0  0  0  0  0  0  0  0  0
   57.3195   27.6816   44.3431 H   0  0  0  0  0  0  0  0  0  0  0  0
   58.0365   29.3182   44.1583 H   0  0  0  0  0  0  0  0  0  0  0  0
   59.0965   27.8681   44.1583 H   0  0  0  0  0  0  0  0  0  0  0  0
   59.1443   26.4517   47.7692 H   0  0  0  0  0  0  0  0  0  0  0  0
   60.8733   26.2494   47.1946 H   0  0  0  0  0  0  0  0  0  0  0  0
   60.4617   26.3411   49.7416 H   0  0  0  0  0  0  0  0  0  0  0  0
   61.7537   27.3836   49.0351 H   0  0  0  0  0  0  0  0  0  0  0  0
   58.9021   28.2896   49.7178 H   0  0  0  0  0  0  0  0  0  0  0  0
   60.6300   27.7580   51.5160 H   0  0  0  0  0  0  0  0  0  0  0  0
   61.3720   29.1680   51.0710 H   0  0  0  0  0  0  0  0  0  0  0  0
   58.8522   27.5126   52.8351 H   0  0  0  0  0  0  0  0  0  0  0  0
   56.9929   33.0737   53.0789 H   0  0  0  0  0  0  0  0  0  0  0  0
   58.2441   34.5653   51.5334 H   0  0  0  0  0  0  0  0  0  0  0  0
   60.2056   34.9004   50.1557 H   0  0  0  0  0  0  0  0  0  0  0  0
   61.9047   32.4139   48.0396 H   0  0  0  0  0  0  0  0  0  0  0  0
   64.3508   31.9644   48.1700 H   0  0  0  0  0  0  0  0  0  0  0  0
   64.6002   34.2759   51.8146 H   0  0  0  0  0  0  0  0  0  0  0  0
   62.1547   34.7405   51.6943 H   0  0  0  0  0  0  0  0  0  0  0  0
   61.0862   35.2817   47.5634 H   0  0  0  0  0  0  0  0  0  0  0  0
   60.0911   35.1040   45.2809 H   0  0  0  0  0  0  0  0  0  0  0  0
   57.3656   32.0565   46.6933 H   0  0  0  0  0  0  0  0  0  0  0  0
   58.3549   32.2213   48.9760 H   0  0  0  0  0  0  0  0  0  0  0  0
   60.7857   31.2547   50.3891 H   0  0  0  0  0  0  0  0  0  0  0  0
   59.2844   30.2495   48.6801 H   0  0  0  0  0  0  0  0  0  0  0  0
   61.0315   30.2803   49.2130 H   0  0  0  0  0  0  0  0  0  0  0  0
   60.4717   30.1559   46.6661 H   0  0  0  0  0  0  0  0  0  0  0  0
   61.7634   29.0915   47.3901 H   0  0  0  0  0  0  0  0  0  0  0  0
  1  2  1  0
  2  3  2  0
  2  4  2  0
  2  5  1  0
  5  6  1  0
  6  7  1  0
  7  8  1  0
  8  9  1  0
  9 10  1  0
 10 11  2  0
 11 12  1  0
 12 13  2  0
 12 14  1  0
 14 15  1  0
 15 16  2  0
 16 17  1  0
 17 18  2  0
 18 19  1  0
 19 20  1  0
 20 21  2  0
 21 22  1  0
 22 23  2  0
 23 24  1  0
 23 25  1  0
 25 26  2  0
 19 27  1  0
 27 28  2  0
 28 29  1  0
 29 30  2  0
 30 31  1  0
 30 32  1  0
 32 33  2  0
 18 34  1  0
 34 35  2  0
  8 36  1  0
 36 37  1  0
 37  5  1  0
 35 10  1  0
 35 15  1  0
 26 20  1  0
 33 27  1  0
  1 38  1  0
  1 39  1  0
  1 40  1  0
  6 41  1  0
  6 42  1  0
  7 43  1  0
  7 44  1  0
  8 45  1  0
  9 46  1  0
  9 47  1  0
 11 48  1  0
 16 49  1  0
 17 50  1  0
 19 51  1  0
 21 52  1  0
 22 53  1  0
 25 54  1  0
 26 55  1  0
 28 56  1  0
 29 57  1  0
 32 58  1  0
 33 59  1  0
 34 60  1  0
 36 61  1  0
 36 62  1  0
 37 63  1  0
 37 64  1  0
M  CHG  2   9   1  14  -1
M  END
>  <UniqueID>  (37) 
37

>  <SMILES>  (37) 
CS(=O)(=O)N1CCC([NH2+]c2cc(=O)[n-]c3ccc(C(c4ccc(Cl)cc4)c4ccc(Cl)cc4)cc23)CC1

>  <Energy>  (37) 
86.93591138424263

>  <Genealogy>  (37) 
CS(=O)(=O)N1CCC([NH2+]c2cc(=O)[n-]c3ccc(C(c4ccc(Cl)cc4)c4ccc(Cl)cc4)cc23)CC1 (protonated)
CS(=O)(=O)N1CCC([NH2+]c2cc(=O)[n-]c3ccc(C(c4ccc(Cl)cc4)c4ccc(Cl)cc4)cc23)CC1 (3D coordinates assigned)
CS(=O)(=O)N1CCC([NH2+]c2cc(=O)[n-]c3ccc(C(c4ccc(Cl)cc4)c4ccc(Cl)cc4)cc23)CC1 (nonaromatic ring conformer: 86.93591138424263 kcal/mol)

>  <smiles>  (37) 
CS(=O)(=O)N1CCC(Nc2cc(=O)[nH]c3ccc(C(c4ccc(Cl)cc4)c4ccc(Cl)cc4)cc23)CC1

>  <score_type>  (37) 
oracle

>  <origin>  (37) 
adg

>  <m_score__min__energy>  (37) 
-10.109999999999999

>  <m_primary>  (37) 
energy

$$$$
37:0
     RDKit          3D

 37 39  0  0  0  0  0  0  0  0999 V2000
   58.1190   27.5570   47.4190 C   0  0  0  0  0  0  0  0  0  0  0  0
   58.0390   27.6480   46.0830 C   0  0  0  0  0  0  0  0  0  0  0  0
   57.8150   26.6120   45.1570 C   0  0  0  0  0  0  0  0  0  0  0  0
   57.5050   25.3100   45.3350 C   0  0  0  0  0  0  0  0  0  0  0  0
   56.1590   24.7240   45.1960 C   0  0  0  0  0  0  0  0  0  0  0  0
   55.0290   25.4370   45.6160 C   0  0  0  0  0  0  0  0  0  0  0  0
   55.1540   26.7270   46.1210 O   0  0  0  0  0  0  0  0  0  0  0  0
   53.7970   24.8730   45.5230 N   0  0  0  0  0  0  0  0  0  0  0  0
   53.6380   23.6130   45.0420 C   0  0  0  0  0  0  0  0  0  0  0  0
   52.4870   23.1110   44.9610 O   0  0  0  0  0  0  0  0  0  0  0  0
   54.7210   22.8910   44.6530 N   0  0  0  0  0  0  0  0  0  0  0  0
   55.9730   23.4110   44.7270 C   0  0  0  0  0  0  0  0  0  0  0  0
   56.9580   22.7060   44.3770 O   0  0  0  0  0  0  0  0  0  0  0  0
   57.9660   27.2250   43.9160 C   0  0  0  0  0  0  0  0  0  0  0  0
   57.8330   26.5820   42.5690 C   0  0  0  0  0  0  0  0  0  0  0  0
   58.2200   28.5330   44.0930 N   0  0  0  0  0  0  0  0  0  0  0  0
   58.2640   28.7950   45.3900 N   0  0  0  0  0  0  0  0  0  0  0  0
   58.5890   30.1220   45.9240 C   0  0  0  0  0  0  0  0  0  0  0  0
   58.2330   31.1920   44.9330 C   0  0  0  0  0  0  0  0  0  0  0  0
   58.1790   30.9890   43.6050 N   0  0  0  0  0  0  0  0  0  0  0  0
   57.7910   32.1820   43.1070 C   0  0  0  0  0  0  0  0  0  0  0  0
   57.5920   33.1260   44.0510 N   0  0  0  0  0  0  0  0  0  0  0  0
   57.8820   32.4970   45.2030 C   0  0  0  0  0  0  0  0  0  0  0  0
   57.7540   33.1360   46.5490 C   0  0  0  0  0  0  0  0  0  0  0  0
   58.2998   28.4591   48.0219 H   0  0  0  0  0  0  0  0  0  0  0  0
   58.0038   26.5802   47.9116 H   0  0  0  0  0  0  0  0  0  0  0  0
   58.3253   24.6293   45.6065 H   0  0  0  0  0  0  0  0  0  0  0  0
   57.6116   25.5118   42.6938 H   0  0  0  0  0  0  0  0  0  0  0  0
   57.0153   27.0630   42.0122 H   0  0  0  0  0  0  0  0  0  0  0  0
   58.7744   26.6992   42.0122 H   0  0  0  0  0  0  0  0  0  0  0  0
   58.3690   29.2390   43.3380 H   0  0  0  0  0  0  0  0  0  0  0  0
   58.0229   30.2866   46.8527 H   0  0  0  0  0  0  0  0  0  0  0  0
   59.6697   30.1690   46.1237 H   0  0  0  0  0  0  0  0  0  0  0  0
   57.6501   32.3676   42.0320 H   0  0  0  0  0  0  0  0  0  0  0  0
   57.9060   32.3774   47.3310 H   0  0  0  0  0  0  0  0  0  0  0  0
   58.5116   33.9267   46.6530 H   0  0  0  0  0  0  0  0  0  0  0  0
   56.7503   33.5739   46.6530 H   0  0  0  0  0  0  0  0  0  0  0  0
  1  2  2  0
  2  3  1  0
  3  4  2  3
  4  5  1  0
  5  6  2  0
  6  7  1  0
  6  8  1  0
  8  9  1  0
  9 10  2  0
  9 11  1  0
 11 12  1  0
 12 13  2  0
  3 14  1  0
 14 15  1  0
 14 16  2  0
 16 17  1  0
 17 18  1  0
 18 19  1  0
 19 20  1  0
 20 21  2  0
 21 22  1  0
 22 23  1  0
 23 24  1  0
 17  2  1  0
 23 19  2  0
 12  5  1  0
  1 25  1  0
  1 26  1  0
  4 27  1  0
 15 28  1  0
 15 29  1  0
 15 30  1  0
 16 31  1  0
 18 32  1  0
 18 33  1  0
 21 34  1  0
 24 35  1  0
 24 36  1  0
 24 37  1  0
M  CHG  5   7  -1   8  -1  11  -1  16   1  22  -1
M  END
>  <UniqueID>  (38) 
38

>  <SMILES>  (38) 
C=c1c(=Cc2c([O-])[n-]c(=O)[n-]c2=O)c(C)[nH+]n1Cc1nc[n-]c1C

>  <Energy>  (38) 
110.70500388638986

>  <Genealogy>  (38) 
C=c1c(=Cc2c([O-])[n-]c(=O)[n-]c2=O)c(C)[nH+]n1Cc1nc[n-]c1C (protonated)
C=c1c(=Cc2c([O-])[n-]c(=O)[n-]c2=O)c(C)[nH+]n1Cc1nc[n-]c1C (3D coordinates assigned)
C=c1c(=Cc2c([O-])[n-]c(=O)[n-]c2=O)c(C)[nH+]n1Cc1nc[n-]c1C (optimized conformer: 110.70500388638986 kcal/mol)

>  <smiles>  (38) 
C=c1c(=Cc2c(O)[nH]c(=O)[nH]c2=O)c(C)nn1Cc1nc[nH]c1C

>  <score_type>  (38) 
oracle

>  <origin>  (38) 
adg

>  <m_score__min__energy>  (38) 
-14.220000000000001

>  <m_primary>  (38) 
energy

$$$$
38:0
     RDKit          3D

 59 62  0  0  0  0  0  0  0  0999 V2000
   58.8820   28.7270   44.6810 C   0  0  0  0  0  0  0  0  0  0  0  0
   57.9780   29.8690   44.8190 N   0  0  0  0  0  0  0  0  0  0  0  0
   58.3780   31.0360   45.5630 C   0  0  0  0  0  0  0  0  0  0  0  0
   58.3170   32.3070   44.9720 C   0  0  0  0  0  0  0  0  0  0  0  0
   58.7030   33.4470   45.6870 C   0  0  0  0  0  0  0  0  0  0  0  0
   59.1630   33.3260   47.0080 C   0  0  0  0  0  0  0  0  0  0  0  0
   59.5720   34.4370   47.7650 C   0  0  0  0  0  0  0  0  0  0  0  0
   59.5460   35.6010   47.2790 O   0  0  0  0  0  0  0  0  0  0  0  0
   60.0160   34.2470   49.0720 C   0  0  0  0  0  0  0  0  0  0  0  0
   60.0460   32.9470   49.6060 C   0  0  0  0  0  0  0  0  0  0  0  0
   60.5050   32.7130   50.9540 N   0  0  0  0  0  0  0  0  0  0  0  0
   59.4640   32.1560   51.8500 C   0  0  0  0  0  0  0  0  0  0  0  0
   59.3940   30.6040   51.8120 C   0  0  0  0  0  0  0  0  0  0  0  0
   58.1470   30.1020   51.0670 C   0  0  0  0  0  0  0  0  0  0  0  0
   56.8890   30.6320   51.6450 N   0  0  0  0  0  0  0  0  0  0  0  0
   56.1010   29.6510   52.4260 C   0  0  0  0  0  0  0  0  0  0  0  0
   54.6010   29.7930   52.2580 C   0  0  0  0  0  0  0  0  0  0  0  0
   54.0640   30.7930   51.4270 C   0  0  0  0  0  0  0  0  0  0  0  0
   52.6810   30.9210   51.2760 C   0  0  0  0  0  0  0  0  0  0  0  0
   51.8200   30.0650   51.9640 C   0  0  0  0  0  0  0  0  0  0  0  0
   52.3410   29.0830   52.8110 C   0  0  0  0  0  0  0  0  0  0  0  0
   53.7230   28.9510   52.9640 C   0  0  0  0  0  0  0  0  0  0  0  0
   56.9880   31.9660   52.2870 C   0  0  0  0  0  0  0  0  0  0  0  0
   58.0810   32.8170   51.6350 C   0  0  0  0  0  0  0  0  0  0  0  0
   59.6630   31.9150   48.8550 O   0  0  0  0  0  0  0  0  0  0  0  0
   59.2290   32.0500   47.6060 C   0  0  0  0  0  0  0  0  0  0  0  0
   58.8380   30.9180   46.8860 C   0  0  0  0  0  0  0  0  0  0  0  0
   56.3340   29.6950   44.2760 S   0  0  0  0  0  0  0  0  0  0  0  0
   56.2850   29.3600   42.5280 C   0  0  0  0  0  0  0  0  0  0  0  0
   55.5850   30.9740   44.5260 O   0  0  0  0  0  0  0  0  0  0  0  0
   55.6690   28.5780   45.0290 O   0  0  0  0  0  0  0  0  0  0  0  0
   59.1693   28.3641   45.6789 H   0  0  0  0  0  0  0  0  0  0  0  0
   58.3740   27.9217   44.1302 H   0  0  0  0  0  0  0  0  0  0  0  0
   59.7824   29.0366   44.1302 H   0  0  0  0  0  0  0  0  0  0  0  0
   57.9621   32.4088   43.9358 H   0  0  0  0  0  0  0  0  0  0  0  0
   58.6459   34.4382   45.2135 H   0  0  0  0  0  0  0  0  0  0  0  0
   60.3396   35.1051   49.6794 H   0  0  0  0  0  0  0  0  0  0  0  0
   61.3110   32.0480   50.9160 H   0  0  0  0  0  0  0  0  0  0  0  0
   60.8710   33.6030   51.3700 H   0  0  0  0  0  0  0  0  0  0  0  0
   59.7782   32.4165   52.8715 H   0  0  0  0  0  0  0  0  0  0  0  0
   60.2904   30.2204   51.3027 H   0  0  0  0  0  0  0  0  0  0  0  0
   59.3395   30.2409   52.8489 H   0  0  0  0  0  0  0  0  0  0  0  0
   58.2130   30.4184   50.0156 H   0  0  0  0  0  0  0  0  0  0  0  0
   58.1214   29.0061   51.1586 H   0  0  0  0  0  0  0  0  0  0  0  0
   56.3911   28.6397   52.1047 H   0  0  0  0  0  0  0  0  0  0  0  0
   56.3219   29.8373   53.4874 H   0  0  0  0  0  0  0  0  0  0  0  0
   54.7376   31.4789   50.8924 H   0  0  0  0  0  0  0  0  0  0  0  0
   52.2703   31.6975   50.6139 H   0  0  0  0  0  0  0  0  0  0  0  0
   50.7315   30.1632   51.8397 H   0  0  0  0  0  0  0  0  0  0  0  0
   51.6615   28.4129   53.3581 H   0  0  0  0  0  0  0  0  0  0  0  0
   54.1272   28.1838   53.6408 H   0  0  0  0  0  0  0  0  0  0  0  0
   56.0229   32.4843   52.1872 H   0  0  0  0  0  0  0  0  0  0  0  0
   57.2450   31.8231   53.3470 H   0  0  0  0  0  0  0  0  0  0  0  0
   57.8816   32.9025   50.5566 H   0  0  0  0  0  0  0  0  0  0  0  0
   58.0828   33.8167   52.0940 H   0  0  0  0  0  0  0  0  0  0  0  0
   58.8906   29.9261   47.3586 H   0  0  0  0  0  0  0  0  0  0  0  0
   56.1276   28.2836   42.3652 H   0  0  0  0  0  0  0  0  0  0  0  0
   55.4599   29.9247   42.0694 H   0  0  0  0  0  0  0  0  0  0  0  0
   57.2373   29.6647   42.0694 H   0  0  0  0  0  0  0  0  0  0  0  0
  1  2  1  0
  2  3  1  0
  3  4  2  0
  4  5  1  0
  5  6  2  0
  6  7  1  0
  7  8  2  0
  7  9  1  0
  9 10  2  0
 10 11  1  0
 11 12  1  0
 12 13  1  0
 13 14  1  0
 14 15  1  0
 15 16  1  0
 16 17  1  0
 17 18  2  0
 18 19  1  0
 19 20  2  0
 20 21  1  0
 21 22  2  0
 15 23  1  0
 23 24  1  0
 10 25  1  0
 25 26  1  0
 26 27  2  0
  2 28  1  0
 28 29  1  0
 28 30  2  0
 28 31  2  0
 27  3  1  0
 26  6  1  0
 24 12  1  0
 22 17  1  0
  1 32  1  0
  1 33  1  0
  1 34  1  0
  4 35  1  0
  5 36  1  0
  9 37  1  0
 11 38  1  0
 11 39  1  0
 12 40  1  0
 13 41  1  0
 13 42  1  0
 14 43  1  0
 14 44  1  0
 16 45  1  0
 16 46  1  0
 18 47  1  0
 19 48  1  0
 20 49  1  0
 21 50  1  0
 22 51  1  0
 23 52  1  0
 23 53  1  0
 24 54  1  0
 24 55  1  0
 27 56  1  0
 29 57  1  0
 29 58  1  0
 29 59  1  0
M  CHG  1  11   1
M  END
>  <UniqueID>  (39) 
39

>  <SMILES>  (39) 
CN(c1ccc2c(=O)cc([NH2+]C3CCN(Cc4ccccc4)CC3)oc2c1)S(C)(=O)=O

>  <Energy>  (39) 
81.14935445661938

>  <Genealogy>  (39) 
CN(c1ccc2c(=O)cc([NH2+]C3CCN(Cc4ccccc4)CC3)oc2c1)S(C)(=O)=O (protonated)
CN(c1ccc2c(=O)cc([NH2+]C3CCN(Cc4ccccc4)CC3)oc2c1)S(C)(=O)=O (3D coordinates assigned)
CN(c1ccc2c(=O)cc([NH2+]C3CCN(Cc4ccccc4)CC3)oc2c1)S(C)(=O)=O (nonaromatic ring conformer: 81.14935445661938 kcal/mol)

>  <smiles>  (39) 
CN(c1ccc2c(=O)cc(NC3CCN(Cc4ccccc4)CC3)oc2c1)S(C)(=O)=O

>  <score_type>  (39) 
oracle

>  <origin>  (39) 
adg

>  <m_score__min__energy>  (39) 
-8.4199999999999999

>  <m_primary>  (39) 
energy

$$$$
39:0
     RDKit          3D

 31 32  0  0  0  0  0  0  0  0999 V2000
   58.9010   31.4160   47.2250 C   0  0  0  0  0  0  0  0  0  0  0  0
   58.3650   30.4290   46.2300 C   0  0  0  0  0  0  0  0  0  0  0  0
   57.7970   30.8750   45.0290 C   0  0  0  0  0  0  0  0  0  0  0  0
   57.2670   29.9580   44.1100 C   0  0  0  0  0  0  0  0  0  0  0  0
   56.6330   30.4430   42.8400 C   0  0  0  0  0  0  0  0  0  0  0  0
   57.2680   28.5900   44.4200 C   0  0  0  0  0  0  0  0  0  0  0  0
   57.8150   28.1320   45.6250 C   0  0  0  0  0  0  0  0  0  0  0  0
   57.7810   26.7250   45.9010 N   0  0  0  0  0  0  0  0  0  0  0  0
   56.3420   25.7850   46.1380 S   0  0  0  0  0  0  0  0  0  0  0  0
   55.1460   26.6840   45.9930 O   0  0  0  0  0  0  0  0  0  0  0  0
   56.3610   25.2090   47.5250 O   0  0  0  0  0  0  0  0  0  0  0  0
   56.2710   24.4600   44.9710 C   0  0  0  0  0  0  0  0  0  0  0  0
   56.7590   24.6360   43.6730 C   0  0  0  0  0  0  0  0  0  0  0  0
   56.6990   23.6170   42.7750 N   0  0  0  0  0  0  0  0  0  0  0  0
   56.1740   22.4120   43.1250 C   0  0  0  0  0  0  0  0  0  0  0  0
   56.1230   21.4760   42.2840 O   0  0  0  0  0  0  0  0  0  0  0  0
   55.7040   22.2150   44.3830 N   0  0  0  0  0  0  0  0  0  0  0  0
   55.7430   23.2060   45.3120 C   0  0  0  0  0  0  0  0  0  0  0  0
   55.3050   22.9830   46.4710 O   0  0  0  0  0  0  0  0  0  0  0  0
   58.3640   29.0590   46.5300 C   0  0  0  0  0  0  0  0  0  0  0  0
   58.7038   31.0528   48.2444 H   0  0  0  0  0  0  0  0  0  0  0  0
   59.9853   31.5307   47.0800 H   0  0  0  0  0  0  0  0  0  0  0  0
   58.4068   32.3880   47.0800 H   0  0  0  0  0  0  0  0  0  0  0  0
   57.7667   31.9517   44.8057 H   0  0  0  0  0  0  0  0  0  0  0  0
   55.7806   31.0951   43.0815 H   0  0  0  0  0  0  0  0  0  0  0  0
   57.3724   31.0082   42.2536 H   0  0  0  0  0  0  0  0  0  0  0  0
   56.2810   29.5815   42.2536 H   0  0  0  0  0  0  0  0  0  0  0  0
   56.8350   27.8701   43.7098 H   0  0  0  0  0  0  0  0  0  0  0  0
   57.1931   25.6024   43.3771 H   0  0  0  0  0  0  0  0  0  0  0  0
   57.0630   23.7670   41.8060 H   0  0  0  0  0  0  0  0  0  0  0  0
   58.7951   28.7070   47.4788 H   0  0  0  0  0  0  0  0  0  0  0  0
  1  2  1  0
  2  3  2  0
  3  4  1  0
  4  5  1  0
  4  6  2  0
  6  7  1  0
  7  8  1  0
  8  9  1  0
  9 10  2  0
  9 11  2  0
  9 12  1  0
 12 13  2  0
 13 14  1  0
 14 15  1  0
 15 16  2  0
 15 17  1  0
 17 18  1  0
 18 19  2  0
  7 20  2  0
 20  2  1  0
 18 12  1  0
  1 21  1  0
  1 22  1  0
  1 23  1  0
  3 24  1  0
  5 25  1  0
  5 26  1  0
  5 27  1  0
  6 28  1  0
 13 29  1  0
 14 30  1  0
 20 31  1  0
M  CHG  2   8  -1  17  -1
M  END
>  <UniqueID>  (40) 
40

>  <SMILES>  (40) 
Cc1cc(C)cc([N-]S(=O)(=O)c2c[nH]c(=O)[n-]c2=O)c1

>  <Energy>  (40) 
34.585735094607635

>  <Genealogy>  (40) 
Cc1cc(C)cc([N-]S(=O)(=O)c2c[nH]c(=O)[n-]c2=O)c1 (protonated)
Cc1cc(C)cc([N-]S(=O)(=O)c2c[nH]c(=O)[n-]c2=O)c1 (3D coordinates assigned)
Cc1cc(C)cc([N-]S(=O)(=O)c2c[nH]c(=O)[n-]c2=O)c1 (optimized conformer: 34.585735094607635 kcal/mol)

>  <smiles>  (40) 
Cc1cc(C)cc(NS(=O)(=O)c2c[nH]c(=O)[nH]c2=O)c1

>  <score_type>  (40) 
oracle

>  <origin>  (40) 
adg

>  <m_score__min__energy>  (40) 
-10.789999999999999

>  <m_primary>  (40) 
energy

$$$$
40:0
     RDKit          3D

 43 46  0  0  0  0  0  0  0  0999 V2000
   57.8190   32.3920   49.5340 O   0  0  0  0  0  0  0  0  0  0  0  0
   58.5720   32.1120   48.5630 C   0  0  0  0  0  0  0  0  0  0  0  0
   59.4010   30.8660   48.6190 C   0  0  0  0  0  0  0  0  0  0  0  0
   60.3740   30.7340   47.0820 S   0  0  0  0  0  0  0  0  0  0  0  0
   59.8690   29.0490   46.7280 C   0  0  0  0  0  0  0  0  0  0  0  0
   60.4200   27.9660   47.3100 N   0  0  0  0  0  0  0  0  0  0  0  0
   59.8250   26.9040   46.7840 N   0  0  0  0  0  0  0  0  0  0  0  0
   58.9310   27.3550   45.8820 C   0  0  0  0  0  0  0  0  0  0  0  0
   58.0250   26.4570   45.0920 C   0  0  0  0  0  0  0  0  0  0  0  0
   57.2570   25.5500   46.0040 C   0  0  0  0  0  0  0  0  0  0  0  0
   57.7580   24.4250   46.5450 N   0  0  0  0  0  0  0  0  0  0  0  0
   56.7080   23.9150   47.2260 C   0  0  0  0  0  0  0  0  0  0  0  0
   56.7800   22.8420   47.8790 O   0  0  0  0  0  0  0  0  0  0  0  0
   55.5730   24.6440   47.1500 N   0  0  0  0  0  0  0  0  0  0  0  0
   55.9380   25.6740   46.3690 C   0  0  0  0  0  0  0  0  0  0  0  0
   55.0820   26.6990   45.9900 O   0  0  0  0  0  0  0  0  0  0  0  0
   58.9340   28.7020   45.8250 N   0  0  0  0  0  0  0  0  0  0  0  0
   58.1580   29.5610   44.9800 C   0  0  0  0  0  0  0  0  0  0  0  0
   58.7880   30.5580   44.2210 C   0  0  0  0  0  0  0  0  0  0  0  0
   58.0340   31.3830   43.3810 C   0  0  0  0  0  0  0  0  0  0  0  0
   56.6480   31.2130   43.2920 C   0  0  0  0  0  0  0  0  0  0  0  0
   56.0170   30.2150   44.0400 C   0  0  0  0  0  0  0  0  0  0  0  0
   56.7700   29.3890   44.8820 C   0  0  0  0  0  0  0  0  0  0  0  0
   58.7130   33.0780   47.4560 C   0  0  0  0  0  0  0  0  0  0  0  0
   57.7690   33.0710   46.4150 C   0  0  0  0  0  0  0  0  0  0  0  0
   57.8650   33.9910   45.3670 C   0  0  0  0  0  0  0  0  0  0  0  0
   58.9080   34.9190   45.3440 C   0  0  0  0  0  0  0  0  0  0  0  0
   59.8610   34.9240   46.3640 C   0  0  0  0  0  0  0  0  0  0  0  0
   59.7760   34.0030   47.4140 C   0  0  0  0  0  0  0  0  0  0  0  0
   60.7600   34.0030   48.3970 O   0  0  0  0  0  0  0  0  0  0  0  0
   60.0801   30.9129   49.4830 H   0  0  0  0  0  0  0  0  0  0  0  0
   58.7470   29.9876   48.7226 H   0  0  0  0  0  0  0  0  0  0  0  0
   57.3188   27.0725   44.5153 H   0  0  0  0  0  0  0  0  0  0  0  0
   58.6364   25.8437   44.4137 H   0  0  0  0  0  0  0  0  0  0  0  0
   59.8779   30.6912   44.2867 H   0  0  0  0  0  0  0  0  0  0  0  0
   58.5307   32.1663   42.7897 H   0  0  0  0  0  0  0  0  0  0  0  0
   56.0550   31.8647   42.6334 H   0  0  0  0  0  0  0  0  0  0  0  0
   54.9279   30.0788   43.9668 H   0  0  0  0  0  0  0  0  0  0  0  0
   56.2718   28.6029   45.4684 H   0  0  0  0  0  0  0  0  0  0  0  0
   56.9496   32.3371   46.4249 H   0  0  0  0  0  0  0  0  0  0  0  0
   57.1180   33.9839   44.5595 H   0  0  0  0  0  0  0  0  0  0  0  0
   58.9787   35.6464   44.5219 H   0  0  0  0  0  0  0  0  0  0  0  0
   60.6825   35.6552   46.3422 H   0  0  0  0  0  0  0  0  0  0  0  0
  1  2  2  0
  2  3  1  0
  3  4  1  0
  4  5  1  0
  5  6  2  0
  6  7  1  0
  7  8  2  0
  8  9  1  0
  9 10  1  0
 10 11  1  0
 11 12  1  0
 12 13  2  0
 12 14  1  0
 14 15  1  0
 15 16  1  0
  8 17  1  0
 17 18  1  0
 18 19  2  0
 19 20  1  0
 20 21  2  0
 21 22  1  0
 22 23  2  0
  2 24  1  0
 24 25  2  0
 25 26  1  0
 26 27  2  0
 27 28  1  0
 28 29  2  0
 29 30  1  0
 17  5  1  0
 23 18  1  0
 29 24  1  0
 15 10  2  0
  3 31  1  0
  3 32  1  0
  9 33  1  0
  9 34  1  0
 19 35  1  0
 20 36  1  0
 21 37  1  0
 22 38  1  0
 23 39  1  0
 25 40  1  0
 26 41  1  0
 27 42  1  0
 28 43  1  0
M  CHG  4  11  -1  14  -1  16  -1  30  -1
M  END
>  <UniqueID>  (41) 
41

>  <SMILES>  (41) 
O=C(CSc1nnc(Cc2[n-]c(=O)[n-]c2[O-])n1-c1ccccc1)c1ccccc1[O-]

>  <Energy>  (41) 
114.52812871912161

>  <Genealogy>  (41) 
O=C(CSc1nnc(Cc2[n-]c(=O)[n-]c2[O-])n1-c1ccccc1)c1ccccc1[O-] (protonated)
O=C(CSc1nnc(Cc2[n-]c(=O)[n-]c2[O-])n1-c1ccccc1)c1ccccc1[O-] (3D coordinates assigned)
O=C(CSc1nnc(Cc2[n-]c(=O)[n-]c2[O-])n1-c1ccccc1)c1ccccc1[O-] (optimized conformer: 114.52812871912161 kcal/mol)

>  <smiles>  (41) 
O=C(CSc1nnc(Cc2[nH]c(=O)[nH]c2O)n1-c1ccccc1)c1ccccc1O

>  <score_type>  (41) 
oracle

>  <origin>  (41) 
adg

>  <m_score__min__energy>  (41) 
-16.789999999999999

>  <m_primary>  (41) 
energy

$$$$
41:0
     RDKit          3D

 32 33  0  0  0  0  0  0  0  0999 V2000
   59.7970   26.6630   46.7320 C   0  0  0  0  0  0  0  0  0  0  0  0
   58.6280   27.3190   46.5510 C   0  0  0  0  0  0  0  0  0  0  0  0
   57.4110   26.5810   46.5280 C   0  0  0  0  0  0  0  0  0  0  0  0
   57.3340   25.1510   47.0260 C   0  0  0  0  0  0  0  0  0  0  0  0
   56.2640   27.1600   45.9650 C   0  0  0  0  0  0  0  0  0  0  0  0
   55.0770   26.4370   45.8740 O   0  0  0  0  0  0  0  0  0  0  0  0
   56.2950   28.4570   45.4610 C   0  0  0  0  0  0  0  0  0  0  0  0
   55.1440   28.9650   44.8640 O   0  0  0  0  0  0  0  0  0  0  0  0
   57.4550   29.2460   45.5720 C   0  0  0  0  0  0  0  0  0  0  0  0
   57.4140   30.6660   45.0390 C   0  0  0  0  0  0  0  0  0  0  0  0
   58.6010   28.7240   46.2480 C   0  0  0  0  0  0  0  0  0  0  0  0
   59.5960   29.5810   46.6270 C   0  0  0  0  0  0  0  0  0  0  0  0
   59.4540   30.5940   47.6450 N   0  0  0  0  0  0  0  0  0  0  0  0
   58.9690   30.2330   48.8750 C   0  0  0  0  0  0  0  0  0  0  0  0
   58.5740   28.9160   49.1020 O   0  0  0  0  0  0  0  0  0  0  0  0
   58.8560   31.1910   49.9010 C   0  0  0  0  0  0  0  0  0  0  0  0
   58.3330   30.8760   51.2000 N   0  0  0  0  0  0  0  0  0  0  0  0
   57.3550   30.1200   51.3690 O   0  0  0  0  0  0  0  0  0  0  0  0
   59.2740   32.4960   49.6300 C   0  0  0  0  0  0  0  0  0  0  0  0
   59.1850   33.3910   50.5120 O   0  0  0  0  0  0  0  0  0  0  0  0
   59.7850   32.8070   48.4150 N   0  0  0  0  0  0  0  0  0  0  0  0
   59.8920   31.8770   47.4320 C   0  0  0  0  0  0  0  0  0  0  0  0
   60.4090   32.2090   46.3310 O   0  0  0  0  0  0  0  0  0  0  0  0
   60.7441   27.2221   46.7517 H   0  0  0  0  0  0  0  0  0  0  0  0
   59.8005   25.5704   46.8595 H   0  0  0  0  0  0  0  0  0  0  0  0
   57.3337   25.1453   48.1260 H   0  0  0  0  0  0  0  0  0  0  0  0
   56.4094   24.6834   46.6567 H   0  0  0  0  0  0  0  0  0  0  0  0
   58.2031   24.5868   46.6567 H   0  0  0  0  0  0  0  0  0  0  0  0
   57.3936   31.3733   45.8812 H   0  0  0  0  0  0  0  0  0  0  0  0
   58.3071   30.8530   44.4247 H   0  0  0  0  0  0  0  0  0  0  0  0
   56.5116   30.8012   44.4247 H   0  0  0  0  0  0  0  0  0  0  0  0
   60.5696   29.4927   46.1226 H   0  0  0  0  0  0  0  0  0  0  0  0
  1  2  2  0
  2  3  1  0
  3  4  1  0
  3  5  2  0
  5  6  1  0
  5  7  1  0
  7  8  1  0
  7  9  2  0
  9 10  1  0
  9 11  1  0
 11 12  2  3
 12 13  1  0
 13 14  1  0
 14 15  1  0
 14 16  2  0
 16 17  1  0
 17 18  2  0
 16 19  1  0
 19 20  2  0
 19 21  1  0
 21 22  1  0
 22 23  2  0
 11  2  1  0
 22 13  1  0
  1 24  1  0
  1 25  1  0
  4 26  1  0
  4 27  1  0
  4 28  1  0
 10 29  1  0
 10 30  1  0
 10 31  1  0
 12 32  1  0
M  CHG  4   6  -1   8  -1  15  -1  21  -1
M  END
>  <UniqueID>  (42) 
42

>  <SMILES>  (42) 
C=c1c(C)c([O-])c([O-])c(C)c1=Cn1c([O-])c(N=O)c(=O)[n-]c1=O

>  <Energy>  (42) 
70.96209413176484

>  <Genealogy>  (42) 
C=c1c(C)c([O-])c([O-])c(C)c1=Cn1c([O-])c(N=O)c(=O)[n-]c1=O (protonated)
C=c1c(C)c([O-])c([O-])c(C)c1=Cn1c([O-])c(N=O)c(=O)[n-]c1=O (3D coordinates assigned)
C=c1c(C)c([O-])c([O-])c(C)c1=Cn1c([O-])c(N=O)c(=O)[n-]c1=O (optimized conformer: 70.96209413176484 kcal/mol)

>  <smiles>  (42) 
C=c1c(C)c(O)c(O)c(C)c1=Cn1c(O)c(N=O)c(=O)[nH]c1=O

>  <score_type>  (42) 
oracle

>  <origin>  (42) 
adg

>  <m_score__min__energy>  (42) 
-16.460000000000001

>  <m_primary>  (42) 
energy

$$$$
42:0
     RDKit          3D

 36 38  0  0  0  0  0  0  0  0999 V2000
   58.2570   30.1870   47.4500 H   0  0  0  0  0  0  0  0  0  0  0  0
   57.8020   30.4490   46.5500 N   0  0  0  0  0  0  0  0  0  0  0  0
   58.2640   31.3730   45.7630 C   0  0  0  0  0  0  0  0  0  0  0  0
   57.9890   31.3290   44.3060 C   0  0  0  0  0  0  0  0  0  0  0  0
   57.5930   30.1750   43.7220 C   0  0  0  0  0  0  0  0  0  0  0  0
   57.2982   30.2170   42.6631 H   0  0  0  0  0  0  0  0  0  0  0  0
   57.5260   28.8640   44.3960 C   0  0  0  0  0  0  0  0  0  0  0  0
   58.6990   28.1110   44.5440 C   0  0  0  0  0  0  0  0  0  0  0  0
   59.6480   28.4888   44.1357 H   0  0  0  0  0  0  0  0  0  0  0  0
   58.6670   26.8810   45.2090 C   0  0  0  0  0  0  0  0  0  0  0  0
   59.5872   26.2868   45.3093 H   0  0  0  0  0  0  0  0  0  0  0  0
   57.4680   26.4060   45.7460 C   0  0  0  0  0  0  0  0  0  0  0  0
   57.4436   25.4346   46.2614 H   0  0  0  0  0  0  0  0  0  0  0  0
   56.2990   27.1640   45.6290 C   0  0  0  0  0  0  0  0  0  0  0  0
   55.1120   26.6910   46.1790 O   0  0  0  0  0  0  0  0  0  0  0  0
   56.3240   28.3970   44.9640 C   0  0  0  0  0  0  0  0  0  0  0  0
   55.1610   29.1560   44.8770 O   0  0  0  0  0  0  0  0  0  0  0  0
   58.1910   32.6160   43.5710 C   0  0  0  0  0  0  0  0  0  0  0  0
   58.0990   32.6780   42.3180 O   0  0  0  0  0  0  0  0  0  0  0  0
   58.5290   33.8090   44.2950 N   0  0  0  0  0  0  0  0  0  0  0  0
   58.8030   33.7840   45.5630 C   0  0  0  0  0  0  0  0  0  0  0  0
   59.3040   35.2240   46.4840 S   0  0  0  0  0  0  0  0  0  0  0  0
   59.8260   34.0680   47.7650 C   0  0  0  0  0  0  0  0  0  0  0  0
   60.3410   34.3974   48.6795 H   0  0  0  0  0  0  0  0  0  0  0  0
   59.5450   32.7860   47.5280 C   0  0  0  0  0  0  0  0  0  0  0  0
   60.1240   31.7090   48.3540 C   0  0  0  0  0  0  0  0  0  0  0  0
   61.2760   31.8420   48.8500 O   0  0  0  0  0  0  0  0  0  0  0  0
   59.3670   30.5650   48.6270 O   0  0  0  0  0  0  0  0  0  0  0  0
   59.9440   29.3610   49.1210 C   0  0  0  0  0  0  0  0  0  0  0  0
   61.0365   29.4756   49.1791 H   0  0  0  0  0  0  0  0  0  0  0  0
   59.5423   29.1476   50.1225 H   0  0  0  0  0  0  0  0  0  0  0  0
   59.6050   28.2120   48.1860 C   0  0  0  0  0  0  0  0  0  0  0  0
   59.3426   27.3228   48.7780 H   0  0  0  0  0  0  0  0  0  0  0  0
   58.7521   28.4949   47.5516 H   0  0  0  0  0  0  0  0  0  0  0  0
   60.4749   27.9866   47.5516 H   0  0  0  0  0  0  0  0  0  0  0  0
   58.8640   32.5690   46.2900 N   0  0  0  0  0  0  0  0  0  0  0  0
  1  2  1  0
  2  3  2  0
  3  4  1  0
  4  5  2  0
  5  6  1  0
  5  7  1  0
  7  8  2  0
  8  9  1  0
  8 10  1  0
 10 11  1  0
 10 12  2  0
 12 13  1  0
 12 14  1  0
 14 15  1  0
 14 16  2  0
 16 17  1  0
  4 18  1  0
 18 19  2  0
 18 20  1  0
 20 21  2  0
 21 22  1  0
 22 23  1  0
 23 24  1  0
 23 25  2  0
 25 26  1  0
 26 27  2  0
 26 28  1  0
 28 29  1  0
 29 30  1  0
 29 31  1  0
 29 32  1  0
 32 33  1  0
 32 34  1  0
 32 35  1  0
 25 36  1  0
 36  3  1  0
 16  7  1  0
 36 21  1  0
M  CHG  2  15  -1  17  -1
M  END
>  <UniqueID>  (43) 
43

>  <SMILES>  (43) 
[H]/N=C1/C(=Cc2cccc([O-])c2[O-])C(=O)N=C2SC=C(C(=O)OCC)N21

>  <Energy>  (43) 
72.30774421948244

>  <Genealogy>  (43) 
CCOC(=O)C1=CSC2=NC(=O)C(=Cc3cccc([O-])c3[O-])C(=N)N12 (protonated)
[H]/N=C1/C(=Cc2cccc([O-])c2[O-])C(=O)N=C2SC=C(C(=O)OCC)N21 (cis-trans isomerization)
[H]/N=C1/C(=Cc2cccc([O-])c2[O-])C(=O)N=C2SC=C(C(=O)OCC)N21 (3D coordinates assigned)
[H]/N=C1/C(=Cc2cccc([O-])c2[O-])C(=O)N=C2SC=C(C(=O)OCC)N21 (nonaromatic ring conformer: 72.30774421948244 kcal/mol)

>  <smiles>  (43) 
CCOC(=O)C1=CSC2=NC(=O)C(=Cc3cccc(O)c3O)C(=N)N12

>  <score_type>  (43) 
oracle

>  <origin>  (43) 
adg

>  <m_score__min__energy>  (43) 
-15.289999999999999

>  <m_primary>  (43) 
energy

$$$$
43:0
     RDKit          3D

 52 55  0  0  0  0  0  0  0  0999 V2000
   50.6810   32.7600   51.9970 N   0  0  0  0  0  0  0  0  0  0  0  0
   51.0850   31.4950   53.1030 S   0  0  0  0  0  0  0  0  0  0  0  0
   50.1770   30.3210   52.8720 O   0  0  0  0  0  0  0  0  0  0  0  0
   50.8950   31.9810   54.5130 O   0  0  0  0  0  0  0  0  0  0  0  0
   52.7610   31.0140   52.8600 C   0  0  0  0  0  0  0  0  0  0  0  0
   53.3770   31.2100   51.6170 C   0  0  0  0  0  0  0  0  0  0  0  0
   54.7050   30.8180   51.4200 C   0  0  0  0  0  0  0  0  0  0  0  0
   55.4240   30.2030   52.4520 C   0  0  0  0  0  0  0  0  0  0  0  0
   56.7970   29.8450   52.2170 N   0  0  0  0  0  0  0  0  0  0  0  0
   57.5650   30.2780   51.2610 C   0  0  0  0  0  0  0  0  0  0  0  0
   57.8390   31.6030   51.1180 N   0  0  0  0  0  0  0  0  0  0  0  0
   58.6620   32.0330   50.1310 C   0  0  0  0  0  0  0  0  0  0  0  0
   58.9020   33.3050   50.0070 N   0  0  0  0  0  0  0  0  0  0  0  0
   59.8310   33.8920   49.0410 C   0  0  0  0  0  0  0  0  0  0  0  0
   59.1880   34.0140   47.6840 C   0  0  0  0  0  0  0  0  0  0  0  0
   59.8410   34.6960   46.6440 C   0  0  0  0  0  0  0  0  0  0  0  0
   59.2500   34.7820   45.3790 C   0  0  0  0  0  0  0  0  0  0  0  0
   58.0030   34.1960   45.1470 C   0  0  0  0  0  0  0  0  0  0  0  0
   57.3460   33.5200   46.1790 C   0  0  0  0  0  0  0  0  0  0  0  0
   57.9340   33.4280   47.4430 C   0  0  0  0  0  0  0  0  0  0  0  0
   59.2210   31.1300   49.2820 N   0  0  0  0  0  0  0  0  0  0  0  0
   58.9580   29.8030   49.4210 C   0  0  0  0  0  0  0  0  0  0  0  0
   59.4800   28.9310   48.6110 N   0  0  0  0  0  0  0  0  0  0  0  0
   60.0640   29.2680   47.3170 C   0  0  0  0  0  0  0  0  0  0  0  0
   58.9730   29.3980   46.2950 C   0  0  0  0  0  0  0  0  0  0  0  0
   58.8860   30.5470   45.4920 C   0  0  0  0  0  0  0  0  0  0  0  0
   57.8480   30.6800   44.5640 C   0  0  0  0  0  0  0  0  0  0  0  0
   56.8860   29.6750   44.4400 C   0  0  0  0  0  0  0  0  0  0  0  0
   56.9550   28.5360   45.2470 C   0  0  0  0  0  0  0  0  0  0  0  0
   57.9910   28.3990   46.1760 C   0  0  0  0  0  0  0  0  0  0  0  0
   58.1350   29.3830   50.4140 N   0  0  0  0  0  0  0  0  0  0  0  0
   54.8120   30.0290   53.7070 C   0  0  0  0  0  0  0  0  0  0  0  0
   53.4840   30.4210   53.9030 C   0  0  0  0  0  0  0  0  0  0  0  0
   50.2620   32.3060   51.1550 H   0  0  0  0  0  0  0  0  0  0  0  0
   52.8143   31.6737   50.7934 H   0  0  0  0  0  0  0  0  0  0  0  0
   55.1879   30.9941   50.4475 H   0  0  0  0  0  0  0  0  0  0  0  0
   60.1293   34.8918   49.3896 H   0  0  0  0  0  0  0  0  0  0  0  0
   60.7106   33.2370   48.9560 H   0  0  0  0  0  0  0  0  0  0  0  0
   60.8200   35.1638   46.8248 H   0  0  0  0  0  0  0  0  0  0  0  0
   59.7677   35.3117   44.5658 H   0  0  0  0  0  0  0  0  0  0  0  0
   57.5384   34.2666   44.1524 H   0  0  0  0  0  0  0  0  0  0  0  0
   56.3640   33.0595   45.9956 H   0  0  0  0  0  0  0  0  0  0  0  0
   57.4134   32.8950   48.2522 H   0  0  0  0  0  0  0  0  0  0  0  0
   60.6072   30.2212   47.3968 H   0  0  0  0  0  0  0  0  0  0  0  0
   60.7607   28.4737   47.0109 H   0  0  0  0  0  0  0  0  0  0  0  0
   59.6365   31.3448   45.5932 H   0  0  0  0  0  0  0  0  0  0  0  0
   57.7892   31.5776   43.9308 H   0  0  0  0  0  0  0  0  0  0  0  0
   56.0731   29.7801   43.7064 H   0  0  0  0  0  0  0  0  0  0  0  0
   56.1942   27.7473   45.1513 H   0  0  0  0  0  0  0  0  0  0  0  0
   58.0379   27.5059   46.8164 H   0  0  0  0  0  0  0  0  0  0  0  0
   55.3801   29.5831   54.5368 H   0  0  0  0  0  0  0  0  0  0  0  0
   53.0050   30.2630   54.8806 H   0  0  0  0  0  0  0  0  0  0  0  0
  1  2  1  0
  2  3  2  0
  2  4  2  0
  2  5  1  0
  5  6  2  0
  6  7  1  0
  7  8  2  0
  8  9  1  0
  9 10  2  3
 10 11  1  0
 11 12  1  0
 12 13  2  3
 13 14  1  0
 14 15  1  0
 15 16  2  0
 16 17  1  0
 17 18  2  0
 18 19  1  0
 19 20  2  0
 12 21  1  0
 21 22  1  0
 22 23  2  3
 23 24  1  0
 24 25  1  0
 25 26  2  0
 26 27  1  0
 27 28  2  0
 28 29  1  0
 29 30  2  0
 22 31  1  0
  8 32  1  0
 32 33  2  0
 33  5  1  0
 31 10  1  0
 20 15  1  0
 30 25  1  0
  1 34  1  0
  6 35  1  0
  7 36  1  0
 14 37  1  0
 14 38  1  0
 16 39  1  0
 17 40  1  0
 18 41  1  0
 19 42  1  0
 20 43  1  0
 24 44  1  0
 24 45  1  0
 26 46  1  0
 27 47  1  0
 28 48  1  0
 29 49  1  0
 30 50  1  0
 32 51  1  0
 33 52  1  0
M  CHG  4   1  -1  11  -1  21  -1  31  -1
M  END
>  <UniqueID>  (44) 
44

>  <SMILES>  (44) 
[NH-]S(=O)(=O)c1ccc(N=c2[n-]c(=NCc3ccccc3)[n-]c(=NCc3ccccc3)[n-]2)cc1

>  <Energy>  (44) 
59.81412440608624

>  <Genealogy>  (44) 
[NH-]S(=O)(=O)c1ccc(N=c2[n-]c(=NCc3ccccc3)[n-]c(=NCc3ccccc3)[n-]2)cc1 (protonated)
[NH-]S(=O)(=O)c1ccc(N=c2[n-]c(=NCc3ccccc3)[n-]c(=NCc3ccccc3)[n-]2)cc1 (3D coordinates assigned)
[NH-]S(=O)(=O)c1ccc(N=c2[n-]c(=NCc3ccccc3)[n-]c(=NCc3ccccc3)[n-]2)cc1 (optimized conformer: 59.81412440608624 kcal/mol)

>  <smiles>  (44) 
NS(=O)(=O)c1ccc(N=c2[nH]c(=NCc3ccccc3)[nH]c(=NCc3ccccc3)[nH]2)cc1

>  <score_type>  (44) 
oracle

>  <origin>  (44) 
adg

>  <m_score__min__energy>  (44) 
-15.16

>  <m_primary>  (44) 
energy

$$$$
44:0
     RDKit          3D

 45 47  0  0  0  0  0  0  0  0999 V2000
   64.4480   33.2360   48.5430 C   0  0  0  0  0  0  0  0  0  0  0  0
   63.0260   33.4230   48.1110 C   0  0  0  0  0  0  0  0  0  0  0  0
   62.7120   33.6590   46.7920 C   0  0  0  0  0  0  0  0  0  0  0  0
   61.4020   33.8200   46.4650 C   0  0  0  0  0  0  0  0  0  0  0  0
   60.3800   33.7560   47.4070 C   0  0  0  0  0  0  0  0  0  0  0  0
   59.0040   33.9100   46.9240 C   0  0  0  0  0  0  0  0  0  0  0  0
   58.8870   33.4570   45.4660 C   0  0  0  0  0  0  0  0  0  0  0  0
   58.1900   32.1490   45.3580 C   0  0  0  0  0  0  0  0  0  0  0  0
   58.4800   31.0850   46.1980 C   0  0  0  0  0  0  0  0  0  0  0  0
   57.7900   29.8780   46.0500 C   0  0  0  0  0  0  0  0  0  0  0  0
   56.8330   29.7650   45.0690 C   0  0  0  0  0  0  0  0  0  0  0  0
   56.1140   28.5940   44.8710 O   0  0  0  0  0  0  0  0  0  0  0  0
   56.5320   30.8260   44.2180 C   0  0  0  0  0  0  0  0  0  0  0  0
   57.2220   32.0260   44.3720 C   0  0  0  0  0  0  0  0  0  0  0  0
   60.6730   33.5210   48.7340 C   0  0  0  0  0  0  0  0  0  0  0  0
   59.7880   33.4310   49.7470 O   0  0  0  0  0  0  0  0  0  0  0  0
   59.0360   32.4490   50.2710 C   0  0  0  0  0  0  0  0  0  0  0  0
   58.9090   31.1510   49.8320 C   0  0  0  0  0  0  0  0  0  0  0  0
   58.1290   30.2330   50.4260 N   0  0  0  0  0  0  0  0  0  0  0  0
   57.4180   30.5650   51.5110 C   0  0  0  0  0  0  0  0  0  0  0  0
   56.6560   29.7130   52.1130 N   0  0  0  0  0  0  0  0  0  0  0  0
   57.5060   31.8100   51.9780 N   0  0  0  0  0  0  0  0  0  0  0  0
   58.2740   32.7590   51.4140 C   0  0  0  0  0  0  0  0  0  0  0  0
   58.3200   33.9500   51.9100 N   0  0  0  0  0  0  0  0  0  0  0  0
   62.0300   33.3560   49.0540 C   0  0  0  0  0  0  0  0  0  0  0  0
   64.4995   33.2292   49.6418 H   0  0  0  0  0  0  0  0  0  0  0  0
   64.8273   32.2802   48.1522 H   0  0  0  0  0  0  0  0  0  0  0  0
   65.0615   34.0612   48.1522 H   0  0  0  0  0  0  0  0  0  0  0  0
   63.4980   33.7157   46.0245 H   0  0  0  0  0  0  0  0  0  0  0  0
   61.1397   34.0084   45.4135 H   0  0  0  0  0  0  0  0  0  0  0  0
   58.3327   33.3001   47.5464 H   0  0  0  0  0  0  0  0  0  0  0  0
   58.7243   34.9719   46.9874 H   0  0  0  0  0  0  0  0  0  0  0  0
   58.3204   34.2120   44.9012 H   0  0  0  0  0  0  0  0  0  0  0  0
   59.9017   33.3430   45.0568 H   0  0  0  0  0  0  0  0  0  0  0  0
   59.2493   31.1898   46.9772 H   0  0  0  0  0  0  0  0  0  0  0  0
   58.0105   29.0273   46.7116 H   0  0  0  0  0  0  0  0  0  0  0  0
   56.3240   27.9420   44.1310 H   0  0  0  0  0  0  0  0  0  0  0  0
   55.7634   30.7180   43.4386 H   0  0  0  0  0  0  0  0  0  0  0  0
   56.9992   32.8768   43.7113 H   0  0  0  0  0  0  0  0  0  0  0  0
   59.4799   30.8474   48.9422 H   0  0  0  0  0  0  0  0  0  0  0  0
   58.0660   29.2750   50.0600 H   0  0  0  0  0  0  0  0  0  0  0  0
   55.8660   29.2080   51.6380 H   0  0  0  0  0  0  0  0  0  0  0  0
   56.9500   32.0930   52.8380 H   0  0  0  0  0  0  0  0  0  0  0  0
   58.7870   34.7690   51.4690 H   0  0  0  0  0  0  0  0  0  0  0  0
   62.3063   33.1655   50.1016 H   0  0  0  0  0  0  0  0  0  0  0  0
  1  2  1  0
  2  3  2  0
  3  4  1  0
  4  5  2  0
  5  6  1  0
  6  7  1  0
  7  8  1  0
  8  9  2  0
  9 10  1  0
 10 11  2  0
 11 12  1  0
 11 13  1  0
 13 14  2  0
  5 15  1  0
 15 16  1  0
 16 17  1  0
 17 18  2  0
 18 19  1  0
 19 20  1  0
 20 21  2  3
 20 22  1  0
 22 23  1  0
 23 24  2  3
 15 25  2  0
 25  2  1  0
 14  8  1  0
 23 17  1  0
  1 26  1  0
  1 27  1  0
  1 28  1  0
  3 29  1  0
  4 30  1  0
  6 31  1  0
  6 32  1  0
  7 33  1  0
  7 34  1  0
  9 35  1  0
 10 36  1  0
 12 37  1  0
 13 38  1  0
 14 39  1  0
 18 40  1  0
 19 41  1  0
 21 42  1  0
 22 43  1  0
 24 44  1  0
 25 45  1  0
M  END
>  <smiles>  (45) 
Cc1ccc(CCc2ccc(O)cc2)c(Oc2c[nH]c(=N)[nH]c2=N)c1

>  <score_type>  (45) 
oracle

>  <origin>  (45) 
adg

>  <m_score__min__energy>  (45) 
-7.5800000000000001

>  <m_primary>  (45) 
energy

$$$$
45:0
     RDKit          3D

 42 45  0  0  0  0  0  0  0  0999 V2000
   54.0090   25.9600   45.6900 N   0  0  0  0  0  0  0  0  0  0  0  0
   55.1980   25.4520   45.6900 C   0  0  0  0  0  0  0  0  0  0  0  0
   55.3650   24.1190   45.4140 N   0  0  0  0  0  0  0  0  0  0  0  0
   56.6040   23.5470   45.3990 C   0  0  0  0  0  0  0  0  0  0  0  0
   56.7420   22.3230   45.1370 O   0  0  0  0  0  0  0  0  0  0  0  0
   57.6990   24.3550   45.6780 C   0  0  0  0  0  0  0  0  0  0  0  0
   59.0050   24.0370   45.6980 N   0  0  0  0  0  0  0  0  0  0  0  0
   59.6570   25.1870   45.9960 C   0  0  0  0  0  0  0  0  0  0  0  0
   58.7540   26.2370   46.1710 C   0  0  0  0  0  0  0  0  0  0  0  0
   59.0900   27.6400   46.4780 C   0  0  0  0  0  0  0  0  0  0  0  0
   60.2380   27.9120   46.9210 O   0  0  0  0  0  0  0  0  0  0  0  0
   58.1120   28.6820   46.3250 N   0  0  0  0  0  0  0  0  0  0  0  0
   58.4430   30.0760   46.2000 C   0  0  0  0  0  0  0  0  0  0  0  0
   58.1920   30.7850   45.0120 C   0  0  0  0  0  0  0  0  0  0  0  0
   58.4990   32.1460   44.9240 C   0  0  0  0  0  0  0  0  0  0  0  0
   59.0410   32.8290   46.0250 C   0  0  0  0  0  0  0  0  0  0  0  0
   59.3650   34.2700   45.9210 C   0  0  0  0  0  0  0  0  0  0  0  0
   58.7190   34.9920   45.1160 O   0  0  0  0  0  0  0  0  0  0  0  0
   60.4310   34.8670   46.6720 N   0  0  0  0  0  0  0  0  0  0  0  0
   61.5770   34.1850   47.2060 C   0  0  0  0  0  0  0  0  0  0  0  0
   62.6680   33.8410   46.3860 C   0  0  0  0  0  0  0  0  0  0  0  0
   63.7680   33.1660   46.9240 C   0  0  0  0  0  0  0  0  0  0  0  0
   63.7820   32.8160   48.2750 C   0  0  0  0  0  0  0  0  0  0  0  0
   62.6940   33.1330   49.0910 C   0  0  0  0  0  0  0  0  0  0  0  0
   61.5900   33.8100   48.5610 C   0  0  0  0  0  0  0  0  0  0  0  0
   60.2360   34.1970   49.6130 Cl  0  0  0  0  0  0  0  0  0  0  0  0
   59.2880   32.1180   47.2120 C   0  0  0  0  0  0  0  0  0  0  0  0
   58.9800   30.7580   47.3010 C   0  0  0  0  0  0  0  0  0  0  0  0
   57.5130   25.6730   45.9580 C   0  0  0  0  0  0  0  0  0  0  0  0
   56.2830   26.2420   45.9610 N   0  0  0  0  0  0  0  0  0  0  0  0
   53.7400   26.7160   46.3580 H   0  0  0  0  0  0  0  0  0  0  0  0
   59.4330   23.1030   45.5130 H   0  0  0  0  0  0  0  0  0  0  0  0
   60.7492   25.2804   46.0875 H   0  0  0  0  0  0  0  0  0  0  0  0
   57.1040   28.4260   46.4190 H   0  0  0  0  0  0  0  0  0  0  0  0
   57.7519   30.2662   44.1476 H   0  0  0  0  0  0  0  0  0  0  0  0
   58.3144   32.6868   43.9841 H   0  0  0  0  0  0  0  0  0  0  0  0
   62.6552   34.1041   45.3180 H   0  0  0  0  0  0  0  0  0  0  0  0
   64.6235   32.9105   46.2815 H   0  0  0  0  0  0  0  0  0  0  0  0
   64.6508   32.2900   48.6974 H   0  0  0  0  0  0  0  0  0  0  0  0
   62.7049   32.8496   50.1538 H   0  0  0  0  0  0  0  0  0  0  0  0
   59.7270   32.6361   48.0774 H   0  0  0  0  0  0  0  0  0  0  0  0
   59.1603   30.2182   48.2423 H   0  0  0  0  0  0  0  0  0  0  0  0
  1  2  2  3
  2  3  1  0
  3  4  1  0
  4  5  2  0
  4  6  1  0
  6  7  1  0
  7  8  1  0
  8  9  2  0
  9 10  1  0
 10 11  2  0
 10 12  1  0
 12 13  1  0
 13 14  2  0
 14 15  1  0
 15 16  2  0
 16 17  1  0
 17 18  2  0
 17 19  1  0
 19 20  1  0
 20 21  2  0
 21 22  1  0
 22 23  2  0
 23 24  1  0
 24 25  2  0
 25 26  1  0
 16 27  1  0
 27 28  2  0
  9 29  1  0
 29 30  1  0
 30  2  1  0
 29  6  2  0
 28 13  1  0
 25 20  1  0
  1 31  1  0
  7 32  1  0
  8 33  1  0
 12 34  1  0
 14 35  1  0
 15 36  1  0
 21 37  1  0
 22 38  1  0
 23 39  1  0
 24 40  1  0
 27 41  1  0
 28 42  1  0
M  CHG  3   3  -1  19  -1  30  -1
M  END
>  <UniqueID>  (46) 
45

>  <SMILES>  (46) 
N=c1[n-]c(=O)c2[nH]cc(C(=O)Nc3ccc(C(=O)[N-]c4ccccc4Cl)cc3)c2[n-]1

>  <Energy>  (46) 
95.16039750624883

>  <Genealogy>  (46) 
N=c1[n-]c(=O)c2[nH]cc(C(=O)Nc3ccc(C(=O)[N-]c4ccccc4Cl)cc3)c2[n-]1 (protonated)
N=c1[n-]c(=O)c2[nH]cc(C(=O)Nc3ccc(C(=O)[N-]c4ccccc4Cl)cc3)c2[n-]1 (3D coordinates assigned)
N=c1[n-]c(=O)c2[nH]cc(C(=O)Nc3ccc(C(=O)[N-]c4ccccc4Cl)cc3)c2[n-]1 (optimized conformer: 95.16039750624883 kcal/mol)

>  <smiles>  (46) 
N=c1[nH]c(=O)c2[nH]cc(C(=O)Nc3ccc(C(=O)Nc4ccccc4Cl)cc3)c2[nH]1

>  <score_type>  (46) 
oracle

>  <origin>  (46) 
adg

>  <m_score__min__energy>  (46) 
-14.26

>  <m_primary>  (46) 
energy

$$$$
46:0
     RDKit          3D

 40 41  0  0  0  0  0  0  0  0999 V2000
   55.1110   22.5980   48.6420 C   0  0  0  0  0  0  0  0  0  0  0  0
   56.6010   22.6990   48.5130 C   0  0  0  0  0  0  0  0  0  0  0  0
   57.3270   22.1450   49.3790 O   0  0  0  0  0  0  0  0  0  0  0  0
   57.2240   23.3770   47.4150 N   0  0  0  0  0  0  0  0  0  0  0  0
   56.7950   24.6200   46.8430 C   0  0  0  0  0  0  0  0  0  0  0  0
   57.5680   25.7660   47.0530 C   0  0  0  0  0  0  0  0  0  0  0  0
   57.1780   27.0010   46.5120 C   0  0  0  0  0  0  0  0  0  0  0  0
   58.0260   28.2010   46.7120 C   0  0  0  0  0  0  0  0  0  0  0  0
   59.0620   28.1830   47.6540 C   0  0  0  0  0  0  0  0  0  0  0  0
   59.8770   29.3080   47.8520 C   0  0  0  0  0  0  0  0  0  0  0  0
   60.9560   29.2320   48.9120 C   0  0  0  0  0  0  0  0  0  0  0  0
   61.3480   30.5640   49.3660 N   0  0  0  0  0  0  0  0  0  0  0  0
   59.6350   30.4870   47.1020 C   0  0  0  0  0  0  0  0  0  0  0  0
   60.3580   31.6560   47.3420 O   0  0  0  0  0  0  0  0  0  0  0  0
   58.6220   30.4880   46.1140 C   0  0  0  0  0  0  0  0  0  0  0  0
   58.3390   31.6210   45.2780 N   0  0  0  0  0  0  0  0  0  0  0  0
   58.3640   33.2930   45.7380 S   0  0  0  0  0  0  0  0  0  0  0  0
   57.0460   34.1370   44.8930 C   0  0  0  0  0  0  0  0  0  0  0  0
   58.1660   33.4240   47.2220 O   0  0  0  0  0  0  0  0  0  0  0  0
   59.6700   33.9180   45.3340 O   0  0  0  0  0  0  0  0  0  0  0  0
   57.8200   29.3530   45.9450 C   0  0  0  0  0  0  0  0  0  0  0  0
   55.9710   27.0630   45.7880 C   0  0  0  0  0  0  0  0  0  0  0  0
   55.5200   28.2660   45.2560 O   0  0  0  0  0  0  0  0  0  0  0  0
   55.2160   25.9450   45.6280 N   0  0  0  0  0  0  0  0  0  0  0  0
   55.5850   24.7410   46.1370 C   0  0  0  0  0  0  0  0  0  0  0  0
   54.8210   23.7510   45.9940 O   0  0  0  0  0  0  0  0  0  0  0  0
   54.8356   22.5793   49.7068 H   0  0  0  0  0  0  0  0  0  0  0  0
   54.6413   23.4664   48.1569 H   0  0  0  0  0  0  0  0  0  0  0  0
   54.7627   21.6742   48.1569 H   0  0  0  0  0  0  0  0  0  0  0  0
   58.4908   25.6991   47.6480 H   0  0  0  0  0  0  0  0  0  0  0  0
   59.2395   27.2739   48.2473 H   0  0  0  0  0  0  0  0  0  0  0  0
   60.5757   28.6583   49.7701 H   0  0  0  0  0  0  0  0  0  0  0  0
   61.8378   28.7402   48.4755 H   0  0  0  0  0  0  0  0  0  0  0  0
   60.4890   31.1560   49.4480 H   0  0  0  0  0  0  0  0  0  0  0  0
   61.9650   31.0050   48.6450 H   0  0  0  0  0  0  0  0  0  0  0  0
   60.1300   32.5570   46.9430 H   0  0  0  0  0  0  0  0  0  0  0  0
   56.3594   34.5767   45.6314 H   0  0  0  0  0  0  0  0  0  0  0  0
   57.4661   34.9345   44.2625 H   0  0  0  0  0  0  0  0  0  0  0  0
   56.4974   33.4218   44.2625 H   0  0  0  0  0  0  0  0  0  0  0  0
   57.0141   29.3671   45.1964 H   0  0  0  0  0  0  0  0  0  0  0  0
  1  2  1  0
  2  3  2  0
  2  4  1  0
  4  5  1  0
  5  6  2  0
  6  7  1  0
  7  8  1  0
  8  9  2  0
  9 10  1  0
 10 11  1  0
 11 12  1  0
 10 13  2  0
 13 14  1  0
 13 15  1  0
 15 16  1  0
 16 17  1  0
 17 18  1  0
 17 19  2  0
 17 20  2  0
 15 21  2  0
  7 22  2  0
 22 23  1  0
 22 24  1  0
 24 25  1  0
 25 26  2  0
 25  5  1  0
 21  8  1  0
  1 27  1  0
  1 28  1  0
  1 29  1  0
  6 30  1  0
  9 31  1  0
 11 32  1  0
 11 33  1  0
 12 34  1  0
 12 35  1  0
 14 36  1  0
 18 37  1  0
 18 38  1  0
 18 39  1  0
 21 40  1  0
M  CHG  4   4  -1  16  -1  23  -1  24  -1
M  END
>  <UniqueID>  (47) 
46

>  <SMILES>  (47) 
CC(=O)[N-]c1cc(-c2cc(CN)c(O)c([N-]S(C)(=O)=O)c2)c([O-])[n-]c1=O

>  <Energy>  (47) 
56.41299497195892

>  <Genealogy>  (47) 
CC(=O)[N-]c1cc(-c2cc(CN)c(O)c([N-]S(C)(=O)=O)c2)c([O-])[n-]c1=O (protonated)
CC(=O)[N-]c1cc(-c2cc(CN)c(O)c([N-]S(C)(=O)=O)c2)c([O-])[n-]c1=O (3D coordinates assigned)
CC(=O)[N-]c1cc(-c2cc(CN)c(O)c([N-]S(C)(=O)=O)c2)c([O-])[n-]c1=O (optimized conformer: 56.41299497195892 kcal/mol)

>  <smiles>  (47) 
CC(=O)Nc1cc(-c2cc(CN)c(O)c(NS(C)(=O)=O)c2)c(O)[nH]c1=O

>  <score_type>  (47) 
oracle

>  <origin>  (47) 
adg

>  <m_score__min__energy>  (47) 
-14.69

>  <m_primary>  (47) 
energy

$$$$
47:0
     RDKit          3D

 42 44  0  0  0  0  0  0  0  0999 V2000
   57.4890   30.8240   50.3950 H   0  0  0  0  0  0  0  0  0  0  0  0
   57.0520   30.4750   51.2150 O   0  0  0  0  0  0  0  0  0  0  0  0
   56.8950   31.5640   52.0820 C   0  0  0  0  0  0  0  0  0  0  0  0
   56.9798   31.2153   53.1218 H   0  0  0  0  0  0  0  0  0  0  0  0
   55.9054   32.0146   51.9155 H   0  0  0  0  0  0  0  0  0  0  0  0
   57.9720   32.6150   51.8130 C   0  0  0  0  0  0  0  0  0  0  0  0
   58.4578   32.8876   52.7615 H   0  0  0  0  0  0  0  0  0  0  0  0
   57.5020   33.5013   51.3617 H   0  0  0  0  0  0  0  0  0  0  0  0
   58.9730   32.0900   50.8940 N   0  0  0  0  0  0  0  0  0  0  0  0
   58.9270   32.2690   49.4740 C   0  0  0  0  0  0  0  0  0  0  0  0
   57.8150   32.3830   48.8900 O   0  0  0  0  0  0  0  0  0  0  0  0
   60.1720   32.3700   48.6840 C   0  0  0  0  0  0  0  0  0  0  0  0
   60.8540   33.5500   48.6990 N   0  0  0  0  0  0  0  0  0  0  0  0
   62.0210   33.7250   48.0260 C   0  0  0  0  0  0  0  0  0  0  0  0
   62.5379   34.6952   48.0647 H   0  0  0  0  0  0  0  0  0  0  0  0
   62.5640   32.6750   47.2860 C   0  0  0  0  0  0  0  0  0  0  0  0
   63.5148   32.8073   46.7489 H   0  0  0  0  0  0  0  0  0  0  0  0
   61.8900   31.4570   47.2340 C   0  0  0  0  0  0  0  0  0  0  0  0
   62.3080   30.6233   46.6508 H   0  0  0  0  0  0  0  0  0  0  0  0
   60.6820   31.2910   47.9220 C   0  0  0  0  0  0  0  0  0  0  0  0
   59.9650   30.0500   47.7920 N   0  0  0  0  0  0  0  0  0  0  0  0
   59.9770   29.0380   48.6840 C   0  0  0  0  0  0  0  0  0  0  0  0
   60.7820   29.0250   49.9470 C   0  0  0  0  0  0  0  0  0  0  0  0
   60.1047   29.0359   50.8137 H   0  0  0  0  0  0  0  0  0  0  0  0
   61.4018   28.1167   49.9775 H   0  0  0  0  0  0  0  0  0  0  0  0
   61.4308   29.9128   49.9775 H   0  0  0  0  0  0  0  0  0  0  0  0
   59.1530   28.0130   48.2600 C   0  0  0  0  0  0  0  0  0  0  0  0
   58.9681   27.0605   48.7782 H   0  0  0  0  0  0  0  0  0  0  0  0
   58.6030   28.4220   47.0490 C   0  0  0  0  0  0  0  0  0  0  0  0
   57.7540   27.7140   46.2790 C   0  0  0  0  0  0  0  0  0  0  0  0
   57.4604   28.1390   45.3078 H   0  0  0  0  0  0  0  0  0  0  0  0
   57.1950   26.4050   46.6590 C   0  0  0  0  0  0  0  0  0  0  0  0
   57.9460   25.3800   47.0980 N   0  0  0  0  0  0  0  0  0  0  0  0
   57.0550   24.3750   47.2380 C   0  0  0  0  0  0  0  0  0  0  0  0
   57.3810   23.2320   47.6500 O   0  0  0  0  0  0  0  0  0  0  0  0
   55.7870   24.6890   46.8920 N   0  0  0  0  0  0  0  0  0  0  0  0
   55.8950   25.9730   46.5160 C   0  0  0  0  0  0  0  0  0  0  0  0
   54.8350   26.7150   46.0060 O   0  0  0  0  0  0  0  0  0  0  0  0
   59.1410   29.6830   46.7790 C   0  0  0  0  0  0  0  0  0  0  0  0
   58.8910   30.4450   45.7030 C   0  0  0  0  0  0  0  0  0  0  0  0
   59.3768   31.4265   45.5992 H   0  0  0  0  0  0  0  0  0  0  0  0
   58.2003   30.0881   44.9248 H   0  0  0  0  0  0  0  0  0  0  0  0
  1  2  1  0
  2  3  1  0
  3  4  1  0
  3  5  1  0
  3  6  1  0
  6  7  1  0
  6  8  1  0
  6  9  1  0
  9 10  1  0
 10 11  2  0
 10 12  1  0
 12 13  2  0
 13 14  1  0
 14 15  1  0
 14 16  2  0
 16 17  1  0
 16 18  1  0
 18 19  1  0
 18 20  2  0
 20 21  1  0
 21 22  1  0
 22 23  1  0
 23 24  1  0
 23 25  1  0
 23 26  1  0
 22 27  2  0
 27 28  1  0
 27 29  1  0
 29 30  2  0
 30 31  1  0
 30 32  1  0
 32 33  1  0
 33 34  1  0
 34 35  2  0
 34 36  1  0
 36 37  1  0
 37 38  1  0
 29 39  1  0
 39 40  2  0
 40 41  1  0
 40 42  1  0
 20 12  1  0
 39 21  1  0
 37 32  2  0
M  CHG  4   9  -1  33  -1  36  -1  38  -1
M  END
>  <UniqueID>  (48) 
47

>  <SMILES>  (48) 
C=c1/c(=C/c2[n-]c(=O)[n-]c2[O-])cc(C)n1-c1cccnc1C(=O)[N-]CCO

>  <Energy>  (48) 
111.67265242889408

>  <Genealogy>  (48) 
C=c1c(=Cc2[n-]c(=O)[n-]c2[O-])cc(C)n1-c1cccnc1C(=O)[N-]CCO (protonated)
C=c1/c(=C/c2[n-]c(=O)[n-]c2[O-])cc(C)n1-c1cccnc1C(=O)[N-]CCO (cis-trans isomerization)
C=c1/c(=C/c2[n-]c(=O)[n-]c2[O-])cc(C)n1-c1cccnc1C(=O)[N-]CCO (3D coordinates assigned)
C=c1/c(=C/c2[n-]c(=O)[n-]c2[O-])cc(C)n1-c1cccnc1C(=O)[N-]CCO (optimized conformer: 111.67265242889408 kcal/mol)

>  <smiles>  (48) 
C=c1c(=Cc2[nH]c(=O)[nH]c2O)cc(C)n1-c1cccnc1C(=O)NCCO

>  <score_type>  (48) 
oracle

>  <origin>  (48) 
adg

>  <m_score__min__energy>  (48) 
-17.23

>  <m_primary>  (48) 
energy

$$$$
48:0
     RDKit          3D

 79 83  0  0  0  0  0  0  0  0999 V2000
   56.4774   33.0318   44.5227 H   0  0  0  0  0  0  0  0  0  0  0  0
   57.4370   32.5400   44.7400 C   0  0  0  0  0  0  0  0  0  0  0  0
   58.4420   33.3100   45.2160 C   0  0  0  0  0  0  0  0  0  0  0  0
   58.7620   33.3600   46.6760 C   0  0  0  0  0  0  0  0  0  0  0  0
   58.4390   32.3030   47.5500 C   0  0  0  0  0  0  0  0  0  0  0  0
   57.9775   31.3887   47.1488 H   0  0  0  0  0  0  0  0  0  0  0  0
   58.6970   32.4010   48.9180 C   0  0  0  0  0  0  0  0  0  0  0  0
   58.4298   31.5672   49.5839 H   0  0  0  0  0  0  0  0  0  0  0  0
   59.2950   33.5550   49.4530 C   0  0  0  0  0  0  0  0  0  0  0  0
   59.5840   33.7070   50.9010 C   0  0  0  0  0  0  0  0  0  0  0  0
   60.4812   34.2720   51.1940 H   0  0  0  0  0  0  0  0  0  0  0  0
   58.8140   33.1950   51.8730 C   0  0  0  0  0  0  0  0  0  0  0  0
   58.3172   33.8910   52.5650 H   0  0  0  0  0  0  0  0  0  0  0  0
   58.5970   31.7400   52.0640 C   0  0  0  0  0  0  0  0  0  0  0  0
   57.5520   31.0360   51.4340 C   0  0  0  0  0  0  0  0  0  0  0  0
   56.8472   31.5702   50.7799 H   0  0  0  0  0  0  0  0  0  0  0  0
   57.4120   29.6980   51.6320 N   0  0  0  0  0  0  0  0  0  0  0  0
   58.2620   28.9980   52.4290 C   0  0  0  0  0  0  0  0  0  0  0  0
   58.1150   27.9176   52.5743 H   0  0  0  0  0  0  0  0  0  0  0  0
   59.3210   29.6490   53.0630 C   0  0  0  0  0  0  0  0  0  0  0  0
   60.0142   29.0870   53.7061 H   0  0  0  0  0  0  0  0  0  0  0  0
   59.4910   31.0220   52.8720 C   0  0  0  0  0  0  0  0  0  0  0  0
   60.3297   31.5427   53.3573 H   0  0  0  0  0  0  0  0  0  0  0  0
   59.6760   34.5830   48.5800 C   0  0  0  0  0  0  0  0  0  0  0  0
   60.1892   35.4693   48.9814 H   0  0  0  0  0  0  0  0  0  0  0  0
   59.4150   34.5030   47.2030 C   0  0  0  0  0  0  0  0  0  0  0  0
   59.9420   35.6030   46.3050 C   0  0  0  0  0  0  0  0  0  0  0  0
   61.0267   35.4656   46.1843 H   0  0  0  0  0  0  0  0  0  0  0  0
   59.6967   36.5616   46.7856 H   0  0  0  0  0  0  0  0  0  0  0  0
   59.2950   35.6130   44.9150 C   0  0  0  0  0  0  0  0  0  0  0  0
   59.8725   36.2744   44.2524 H   0  0  0  0  0  0  0  0  0  0  0  0
   58.2608   35.9759   45.0082 H   0  0  0  0  0  0  0  0  0  0  0  0
   59.2710   34.2050   44.3220 C   0  0  0  0  0  0  0  0  0  0  0  0
   60.2972   33.8140   44.2577 H   0  0  0  0  0  0  0  0  0  0  0  0
   58.8324   34.2331   43.3136 H   0  0  0  0  0  0  0  0  0  0  0  0
   57.5330   31.0900   44.4910 C   0  0  0  0  0  0  0  0  0  0  0  0
   56.6030   30.4730   43.6480 C   0  0  0  0  0  0  0  0  0  0  0  0
   55.7803   31.0619   43.2162 H   0  0  0  0  0  0  0  0  0  0  0  0
   56.7140   29.1130   43.3520 C   0  0  0  0  0  0  0  0  0  0  0  0
   55.9667   28.6325   42.7034 H   0  0  0  0  0  0  0  0  0  0  0  0
   57.7760   28.3520   43.8780 C   0  0  0  0  0  0  0  0  0  0  0  0
   57.9140   26.9810   43.6010 O   0  0  0  0  0  0  0  0  0  0  0  0
   58.1030   26.4330   42.3010 C   0  0  0  0  0  0  0  0  0  0  0  0
   58.4605   25.3964   42.3885 H   0  0  0  0  0  0  0  0  0  0  0  0
   57.1482   26.4467   41.7549 H   0  0  0  0  0  0  0  0  0  0  0  0
   58.8463   27.0324   41.7549 H   0  0  0  0  0  0  0  0  0  0  0  0
   58.7320   28.9790   44.7040 C   0  0  0  0  0  0  0  0  0  0  0  0
   59.8670   28.1840   45.2940 C   0  0  0  0  0  0  0  0  0  0  0  0
   60.5814   27.9209   44.5000 H   0  0  0  0  0  0  0  0  0  0  0  0
   60.3751   28.7865   46.0614 H   0  0  0  0  0  0  0  0  0  0  0  0
   59.3420   26.9560   45.9060 N   0  0  0  0  0  0  0  0  0  0  0  0
   58.3520   26.8440   45.5810 H   0  0  0  0  0  0  0  0  0  0  0  0
   59.3210   27.0470   47.3720 C   0  0  0  0  0  0  0  0  0  0  0  0
   58.9889   26.0846   47.7886 H   0  0  0  0  0  0  0  0  0  0  0  0
   60.3346   27.2872   47.7254 H   0  0  0  0  0  0  0  0  0  0  0  0
   58.3640   28.1520   47.8340 C   0  0  0  0  0  0  0  0  0  0  0  0
   58.1362   28.8101   46.9825 H   0  0  0  0  0  0  0  0  0  0  0  0
   57.4445   27.6835   48.2149 H   0  0  0  0  0  0  0  0  0  0  0  0
   58.9620   28.9470   48.9070 N   0  0  0  0  0  0  0  0  0  0  0  0
   58.4630   29.0340   49.8210 H   0  0  0  0  0  0  0  0  0  0  0  0
   60.1950   29.6560   48.7090 C   0  0  0  0  0  0  0  0  0  0  0  0
   60.6470   29.8090   47.5430 O   0  0  0  0  0  0  0  0  0  0  0  0
   60.9440   30.2450   49.8360 C   0  0  0  0  0  0  0  0  0  0  0  0
   60.4324   30.3615   50.8028 H   0  0  0  0  0  0  0  0  0  0  0  0
   62.2180   30.6440   49.7350 C   0  0  0  0  0  0  0  0  0  0  0  0
   62.9973   30.0657   50.2529 H   0  0  0  0  0  0  0  0  0  0  0  0
   62.6150   31.8330   48.9530 C   0  0  0  0  0  0  0  0  0  0  0  0
   62.6080   31.7330   47.5500 C   0  0  0  0  0  0  0  0  0  0  0  0
   62.3094   30.7884   47.0720 H   0  0  0  0  0  0  0  0  0  0  0  0
   62.9770   32.8230   46.7590 C   0  0  0  0  0  0  0  0  0  0  0  0
   62.9759   32.7311   45.6628 H   0  0  0  0  0  0  0  0  0  0  0  0
   63.3470   34.0280   47.3560 C   0  0  0  0  0  0  0  0  0  0  0  0
   63.6514   34.8806   46.7312 H   0  0  0  0  0  0  0  0  0  0  0  0
   63.3310   34.1520   48.7460 C   0  0  0  0  0  0  0  0  0  0  0  0
   63.6142   35.1074   49.2119 H   0  0  0  0  0  0  0  0  0  0  0  0
   62.9570   33.0690   49.5530 C   0  0  0  0  0  0  0  0  0  0  0  0
   62.8410   33.3380   51.2890 Cl  0  0  0  0  0  0  0  0  0  0  0  0
   58.6070   30.3460   44.9990 C   0  0  0  0  0  0  0  0  0  0  0  0
   59.3585   30.8375   45.6344 H   0  0  0  0  0  0  0  0  0  0  0  0
  1  2  1  0
  2  3  2  3
  3  4  1  0
  4  5  2  0
  5  6  1  0
  5  7  1  0
  7  8  1  0
  7  9  2  0
  9 10  1  0
 10 11  1  0
 10 12  2  0
 12 13  1  0
 12 14  1  0
 14 15  2  0
 15 16  1  0
 15 17  1  0
 17 18  2  0
 18 19  1  0
 18 20  1  0
 20 21  1  0
 20 22  2  0
 22 23  1  0
  9 24  1  0
 24 25  1  0
 24 26  2  0
 26 27  1  0
 27 28  1  0
 27 29  1  0
 27 30  1  0
 30 31  1  0
 30 32  1  0
 30 33  1  0
 33 34  1  0
 33 35  1  0
  2 36  1  0
 36 37  2  0
 37 38  1  0
 37 39  1  0
 39 40  1  0
 39 41  2  0
 41 42  1  0
 42 43  1  0
 43 44  1  0
 43 45  1  0
 43 46  1  0
 41 47  1  0
 47 48  1  0
 48 49  1  0
 48 50  1  0
 48 51  1  0
 51 52  1  0
 51 53  1  0
 53 54  1  0
 53 55  1  0
 53 56  1  0
 56 57  1  0
 56 58  1  0
 56 59  1  0
 59 60  1  0
 59 61  1  0
 61 62  2  0
 61 63  1  0
 63 64  1  0
 63 65  2  0
 65 66  1  0
 65 67  1  0
 67 68  2  0
 68 69  1  0
 68 70  1  0
 70 71  1  0
 70 72  2  0
 72 73  1  0
 72 74  1  0
 74 75  1  0
 74 76  2  0
 76 77  1  0
 47 78  2  0
 78 79  1  0
 33  3  1  0
 78 36  1  0
 26  4  1  0
 76 67  1  0
 22 14  1  0
M  END
>  <UniqueID>  (49) 
48

>  <SMILES>  (49) 
COc1ccc(C=C2CCCc3cc(/C=C/c4cccnc4)ccc32)cc1CNCCNC(=O)/C=C/c1ccccc1Cl

>  <Energy>  (49) 
105.35659936632206

>  <Genealogy>  (49) 
COc1ccc(C=C2CCCc3cc(/C=C/c4cccnc4)ccc32)cc1CNCCNC(=O)/C=C/c1ccccc1Cl (cis-trans isomerization)
COc1ccc(C=C2CCCc3cc(/C=C/c4cccnc4)ccc32)cc1CNCCNC(=O)/C=C/c1ccccc1Cl (3D coordinates assigned)
COc1ccc(C=C2CCCc3cc(/C=C/c4cccnc4)ccc32)cc1CNCCNC(=O)/C=C/c1ccccc1Cl (nonaromatic ring conformer: 105.35659936632206 kcal/mol)

>  <smiles>  (49) 
COc1ccc(C=C2CCCc3cc(C=Cc4cccnc4)ccc32)cc1CNCCNC(=O)C=Cc1ccccc1Cl

>  <score_type>  (49) 
oracle

>  <origin>  (49) 
adg

>  <m_score__min__energy>  (49) 
-12.109999999999999

>  <m_primary>  (49) 
energy

$$$$
49:0
     RDKit          3D

 65 68  0  0  0  0  0  0  0  0999 V2000
   59.6110   34.5670   44.3420 O   0  0  0  0  0  0  0  0  0  0  0  0
   58.5320   34.0480   44.7300 C   0  0  0  0  0  0  0  0  0  0  0  0
   57.8060   33.1120   43.7960 C   0  0  0  0  0  0  0  0  0  0  0  0
   57.8290   31.7290   44.2730 N   0  0  0  0  0  0  0  0  0  0  0  0
   57.3450   30.6260   43.4920 C   0  0  0  0  0  0  0  0  0  0  0  0
   56.9970   30.8070   42.2930 O   0  0  0  0  0  0  0  0  0  0  0  0
   57.2790   29.2670   44.0690 C   0  0  0  0  0  0  0  0  0  0  0  0
   57.8050   28.1740   43.3620 C   0  0  0  0  0  0  0  0  0  0  0  0
   57.7650   26.8910   43.9130 C   0  0  0  0  0  0  0  0  0  0  0  0
   57.1930   26.6830   45.1740 C   0  0  0  0  0  0  0  0  0  0  0  0
   57.1460   25.0730   45.8870 S   0  0  0  0  0  0  0  0  0  0  0  0
   55.8700   24.8770   46.6570 O   0  0  0  0  0  0  0  0  0  0  0  0
   57.2040   24.0500   44.7870 O   0  0  0  0  0  0  0  0  0  0  0  0
   58.5050   24.8510   46.9470 N   0  0  0  0  0  0  0  0  0  0  0  0
   59.7330   25.3930   46.3610 C   0  0  0  0  0  0  0  0  0  0  0  0
   59.8380   26.8550   46.6870 C   0  0  0  0  0  0  0  0  0  0  0  0
   60.3360   27.7640   45.7360 C   0  0  0  0  0  0  0  0  0  0  0  0
   60.4680   29.1170   46.0590 C   0  0  0  0  0  0  0  0  0  0  0  0
   60.1090   29.5730   47.3310 C   0  0  0  0  0  0  0  0  0  0  0  0
   59.6180   28.6750   48.2830 C   0  0  0  0  0  0  0  0  0  0  0  0
   59.4870   27.3190   47.9660 C   0  0  0  0  0  0  0  0  0  0  0  0
   56.6460   27.7650   45.8720 C   0  0  0  0  0  0  0  0  0  0  0  0
   56.6880   29.0490   45.3260 C   0  0  0  0  0  0  0  0  0  0  0  0
   58.0690   34.3460   46.0570 N   0  0  0  0  0  0  0  0  0  0  0  0
   58.5770   33.8250   47.2910 C   0  0  0  0  0  0  0  0  0  0  0  0
   59.5380   34.5160   48.0450 C   0  0  0  0  0  0  0  0  0  0  0  0
   60.0160   33.9750   49.2420 C   0  0  0  0  0  0  0  0  0  0  0  0
   59.5540   32.7290   49.6880 C   0  0  0  0  0  0  0  0  0  0  0  0
   60.1240   32.0650   51.2190 S   0  0  0  0  0  0  0  0  0  0  0  0
   61.2950   32.8800   51.6930 O   0  0  0  0  0  0  0  0  0  0  0  0
   60.6020   30.6580   50.9980 O   0  0  0  0  0  0  0  0  0  0  0  0
   58.8870   32.0780   52.4610 N   0  0  0  0  0  0  0  0  0  0  0  0
   58.8130   30.8090   53.2090 C   0  0  0  0  0  0  0  0  0  0  0  0
   58.0010   29.7210   52.4740 C   0  0  0  0  0  0  0  0  0  0  0  0
   57.3370   30.2060   51.3230 O   0  0  0  0  0  0  0  0  0  0  0  0
   56.6170   31.3720   51.6470 C   0  0  0  0  0  0  0  0  0  0  0  0
   57.5760   32.5340   51.9550 C   0  0  0  0  0  0  0  0  0  0  0  0
   58.6320   32.0170   48.9090 C   0  0  0  0  0  0  0  0  0  0  0  0
   58.1490   32.5610   47.7160 C   0  0  0  0  0  0  0  0  0  0  0  0
   56.7595   33.4395   43.7088 H   0  0  0  0  0  0  0  0  0  0  0  0
   58.3169   33.1424   42.8223 H   0  0  0  0  0  0  0  0  0  0  0  0
   58.2100   31.5500   45.2300 H   0  0  0  0  0  0  0  0  0  0  0  0
   58.2511   28.3289   42.3685 H   0  0  0  0  0  0  0  0  0  0  0  0
   58.1843   26.0412   43.3544 H   0  0  0  0  0  0  0  0  0  0  0  0
   60.6027   24.8614   46.7745 H   0  0  0  0  0  0  0  0  0  0  0  0
   59.7087   25.2608   45.2692 H   0  0  0  0  0  0  0  0  0  0  0  0
   60.6223   27.4087   44.7351 H   0  0  0  0  0  0  0  0  0  0  0  0
   60.8551   29.8247   45.3111 H   0  0  0  0  0  0  0  0  0  0  0  0
   60.2130   30.6388   47.5826 H   0  0  0  0  0  0  0  0  0  0  0  0
   59.3342   29.0352   49.2829 H   0  0  0  0  0  0  0  0  0  0  0  0
   59.1080   26.6137   48.7203 H   0  0  0  0  0  0  0  0  0  0  0  0
   56.1807   27.6032   46.8555 H   0  0  0  0  0  0  0  0  0  0  0  0
   56.2566   29.8945   45.8819 H   0  0  0  0  0  0  0  0  0  0  0  0
   59.9165   35.4869   47.6927 H   0  0  0  0  0  0  0  0  0  0  0  0
   60.7575   34.5292   49.8362 H   0  0  0  0  0  0  0  0  0  0  0  0
   59.8355   30.4358   53.3678 H   0  0  0  0  0  0  0  0  0  0  0  0
   58.2991   31.0170   54.1591 H   0  0  0  0  0  0  0  0  0  0  0  0
   58.6878   28.9176   52.1693 H   0  0  0  0  0  0  0  0  0  0  0  0
   57.2292   29.3614   53.1705 H   0  0  0  0  0  0  0  0  0  0  0  0
   55.9757   31.6485   50.7971 H   0  0  0  0  0  0  0  0  0  0  0  0
   56.0039   31.1732   52.5384 H   0  0  0  0  0  0  0  0  0  0  0  0
   57.7370   33.1104   51.0320 H   0  0  0  0  0  0  0  0  0  0  0  0
   57.1121   33.1451   52.7432 H   0  0  0  0  0  0  0  0  0  0  0  0
   58.2871   31.0257   49.2381 H   0  0  0  0  0  0  0  0  0  0  0  0
   57.4291   31.9938   47.1077 H   0  0  0  0  0  0  0  0  0  0  0  0
  1  2  2  0
  2  3  1  0
  3  4  1  0
  4  5  1  0
  5  6  2  0
  5  7  1  0
  7  8  2  0
  8  9  1  0
  9 10  2  0
 10 11  1  0
 11 12  2  0
 11 13  2  0
 11 14  1  0
 14 15  1  0
 15 16  1  0
 16 17  2  0
 17 18  1  0
 18 19  2  0
 19 20  1  0
 20 21  2  0
 10 22  1  0
 22 23  2  0
  2 24  1  0
 24 25  1  0
 25 26  2  0
 26 27  1  0
 27 28  2  0
 28 29  1  0
 29 30  2  0
 29 31  2  0
 29 32  1  0
 32 33  1  0
 33 34  1  0
 34 35  1  0
 35 36  1  0
 36 37  1  0
 28 38  1  0
 38 39  2  0
 23  7  1  0
 39 25  1  0
 21 16  1  0
 37 32  1  0
  3 40  1  0
  3 41  1  0
  4 42  1  0
  8 43  1  0
  9 44  1  0
 15 45  1  0
 15 46  1  0
 17 47  1  0
 18 48  1  0
 19 49  1  0
 20 50  1  0
 21 51  1  0
 22 52  1  0
 23 53  1  0
 26 54  1  0
 27 55  1  0
 33 56  1  0
 33 57  1  0
 34 58  1  0
 34 59  1  0
 36 60  1  0
 36 61  1  0
 37 62  1  0
 37 63  1  0
 38 64  1  0
 39 65  1  0
M  CHG  2  14  -1  24  -1
M  END
>  <UniqueID>  (50) 
49

>  <SMILES>  (50) 
O=C(CNC(=O)c1ccc(S(=O)(=O)[N-]Cc2ccccc2)cc1)[N-]c1ccc(S(=O)(=O)N2CCOCC2)cc1

>  <Energy>  (50) 
76.80775913576753

>  <Genealogy>  (50) 
O=C(CNC(=O)c1ccc(S(=O)(=O)[N-]Cc2ccccc2)cc1)[N-]c1ccc(S(=O)(=O)N2CCOCC2)cc1 (protonated)
O=C(CNC(=O)c1ccc(S(=O)(=O)[N-]Cc2ccccc2)cc1)[N-]c1ccc(S(=O)(=O)N2CCOCC2)cc1 (3D coordinates assigned)
O=C(CNC(=O)c1ccc(S(=O)(=O)[N-]Cc2ccccc2)cc1)[N-]c1ccc(S(=O)(=O)N2CCOCC2)cc1 (nonaromatic ring conformer: 76.80775913576753 kcal/mol)

>  <smiles>  (50) 
O=C(CNC(=O)c1ccc(S(=O)(=O)NCc2ccccc2)cc1)Nc1ccc(S(=O)(=O)N2CCOCC2)cc1

>  <score_type>  (50) 
oracle

>  <origin>  (50) 
adg

>  <m_score__min__energy>  (50) 
-11.970000000000001

>  <m_primary>  (50) 
energy

$$$$
50:0
     RDKit          3D

 32 34  0  0  0  0  0  0  0  0999 V2000
   57.4975   25.3265   43.9693 H   0  0  0  0  0  0  0  0  0  0  0  0
   57.7520   24.4150   44.5300 C   0  0  0  0  0  0  0  0  0  0  0  0
   58.3609   23.6304   44.0571 H   0  0  0  0  0  0  0  0  0  0  0  0
   57.3220   24.2610   45.7840 C   0  0  0  0  0  0  0  0  0  0  0  0
   57.6010   23.1690   46.5190 N   0  0  0  0  0  0  0  0  0  0  0  0
   56.9910   23.4180   47.6950 C   0  0  0  0  0  0  0  0  0  0  0  0
   57.0240   22.6110   48.6610 O   0  0  0  0  0  0  0  0  0  0  0  0
   56.3420   24.5970   47.7540 N   0  0  0  0  0  0  0  0  0  0  0  0
   56.5500   25.1390   46.5380 C   0  0  0  0  0  0  0  0  0  0  0  0
   56.0710   26.3370   46.1560 C   0  0  0  0  0  0  0  0  0  0  0  0
   54.9816   26.4891   46.1672 H   0  0  0  0  0  0  0  0  0  0  0  0
   56.9290   27.4600   45.7220 C   0  0  0  0  0  0  0  0  0  0  0  0
   58.2780   27.4930   45.8100 N   0  0  0  0  0  0  0  0  0  0  0  0
   58.6040   28.6960   45.2880 C   0  0  0  0  0  0  0  0  0  0  0  0
   59.7940   29.0940   45.1840 O   0  0  0  0  0  0  0  0  0  0  0  0
   57.5380   29.4200   44.8870 N   0  0  0  0  0  0  0  0  0  0  0  0
   57.5350   30.7180   44.2140 C   0  0  0  0  0  0  0  0  0  0  0  0
   58.2172   30.6828   43.3518 H   0  0  0  0  0  0  0  0  0  0  0  0
   56.5142   30.9456   43.8732 H   0  0  0  0  0  0  0  0  0  0  0  0
   57.9890   31.7920   45.1650 C   0  0  0  0  0  0  0  0  0  0  0  0
   58.1410   31.5090   46.5320 C   0  0  0  0  0  0  0  0  0  0  0  0
   57.8967   30.5072   46.9150 H   0  0  0  0  0  0  0  0  0  0  0  0
   58.6020   32.4970   47.4080 C   0  0  0  0  0  0  0  0  0  0  0  0
   58.7144   32.2727   48.4790 H   0  0  0  0  0  0  0  0  0  0  0  0
   58.9200   33.7690   46.9240 C   0  0  0  0  0  0  0  0  0  0  0  0
   59.2787   34.5459   47.6152 H   0  0  0  0  0  0  0  0  0  0  0  0
   58.7830   34.0550   45.5640 C   0  0  0  0  0  0  0  0  0  0  0  0
   59.1060   35.3180   45.0830 O   0  0  0  0  0  0  0  0  0  0  0  0
   58.3230   33.0690   44.6840 C   0  0  0  0  0  0  0  0  0  0  0  0
   58.2226   33.2946   43.6121 H   0  0  0  0  0  0  0  0  0  0  0  0
   56.4840   28.6320   45.1500 C   0  0  0  0  0  0  0  0  0  0  0  0
   55.1610   28.9630   44.8770 O   0  0  0  0  0  0  0  0  0  0  0  0
  1  2  1  0
  2  3  1  0
  2  4  2  0
  4  5  1  0
  5  6  1  0
  6  7  2  0
  6  8  1  0
  8  9  1  0
  9 10  2  0
 10 11  1  0
 10 12  1  0
 12 13  1  0
 13 14  1  0
 14 15  2  0
 14 16  1  0
 16 17  1  0
 17 18  1  0
 17 19  1  0
 17 20  1  0
 20 21  2  0
 21 22  1  0
 21 23  1  0
 23 24  1  0
 23 25  2  0
 25 26  1  0
 25 27  1  0
 27 28  1  0
 27 29  2  0
 29 30  1  0
 16 31  1  0
 31 32  1  0
  9  4  1  0
 31 12  2  0
 29 20  1  0
M  CHG  5   5  -1   8  -1  13  -1  28  -1  32  -1
M  END
>  <UniqueID>  (51) 
50

>  <SMILES>  (51) 
C=c1[n-]c(=O)[n-]/c1=C\c1[n-]c(=O)n(Cc2cccc([O-])c2)c1[O-]

>  <Energy>  (51) 
96.49570846773203

>  <Genealogy>  (51) 
C=c1[n-]c(=O)[n-]c1=Cc1[n-]c(=O)n(Cc2cccc([O-])c2)c1[O-] (protonated)
C=c1[n-]c(=O)[n-]/c1=C\c1[n-]c(=O)n(Cc2cccc([O-])c2)c1[O-] (cis-trans isomerization)
C=c1[n-]c(=O)[n-]/c1=C\c1[n-]c(=O)n(Cc2cccc([O-])c2)c1[O-] (3D coordinates assigned)
C=c1[n-]c(=O)[n-]/c1=C\c1[n-]c(=O)n(Cc2cccc([O-])c2)c1[O-] (optimized conformer: 96.49570846773203 kcal/mol)

>  <smiles>  (51) 
C=c1[nH]c(=O)[nH]c1=Cc1[nH]c(=O)n(Cc2cccc(O)c2)c1O

>  <score_type>  (51) 
oracle

>  <origin>  (51) 
adg

>  <m_score__min__energy>  (51) 
-16.210000000000001

>  <m_primary>  (51) 
energy

$$$$
51:0
     RDKit          3D

 68 72  0  0  0  0  0  0  0  0999 V2000
   54.6120   28.1600   54.4490 O   0  0  0  0  0  0  0  0  0  0  0  0
   54.4860   29.1790   53.7200 C   0  0  0  0  0  0  0  0  0  0  0  0
   53.5780   29.1010   52.5210 C   0  0  0  0  0  0  0  0  0  0  0  0
   52.6390   30.2760   52.4900 C   0  0  0  0  0  0  0  0  0  0  0  0
   52.0970   30.7920   53.6780 C   0  0  0  0  0  0  0  0  0  0  0  0
   51.2000   31.8650   53.6390 C   0  0  0  0  0  0  0  0  0  0  0  0
   50.8410   32.4350   52.4130 C   0  0  0  0  0  0  0  0  0  0  0  0
   49.9380   33.4920   52.3760 O   0  0  0  0  0  0  0  0  0  0  0  0
   51.3850   31.9340   51.2240 C   0  0  0  0  0  0  0  0  0  0  0  0
   51.0350   32.5000   50.0020 O   0  0  0  0  0  0  0  0  0  0  0  0
   52.2830   30.8610   51.2630 C   0  0  0  0  0  0  0  0  0  0  0  0
   55.1870   30.3770   54.0910 N   0  0  0  0  0  0  0  0  0  0  0  0
   56.2400   30.4700   55.0990 C   0  0  0  0  0  0  0  0  0  0  0  0
   57.0690   29.2200   55.1410 C   0  0  0  0  0  0  0  0  0  0  0  0
   56.8900   28.3590   56.0480 O   0  0  0  0  0  0  0  0  0  0  0  0
   58.0090   28.9960   54.1270 O   0  0  0  0  0  0  0  0  0  0  0  0
   59.3710   28.6430   54.3840 C   0  0  0  0  0  0  0  0  0  0  0  0
   60.1610   28.4620   53.0660 C   0  0  2  0  0  0  0  0  0  0  0  0
   61.4590   29.3060   53.0070 C   0  0  0  0  0  0  0  0  0  0  0  0
   62.2460   29.1260   51.6860 C   0  0  0  0  0  0  0  0  0  0  0  0
   61.4970   28.2940   50.6340 C   0  0  0  0  0  0  0  0  0  0  0  0
   60.0960   28.7210   50.5750 N   0  0  0  0  0  0  0  0  0  0  0  0
   59.6690   29.8240   49.7790 C   0  0  0  0  0  0  0  0  0  0  0  0
   60.0570   30.1200   48.4620 C   0  0  0  0  0  0  0  0  0  0  0  0
   60.8380   29.2250   47.7380 O   0  0  0  0  0  0  0  0  0  0  0  0
   59.6100   31.3260   47.8750 C   0  0  0  0  0  0  0  0  0  0  0  0
   59.9900   31.6810   46.4540 C   0  0  0  0  0  0  0  0  0  0  0  0
   58.5740   31.5000   45.3100 S   0  0  0  0  0  0  0  0  0  0  0  0
   58.5070   29.7080   45.3860 C   0  0  0  0  0  0  0  0  0  0  0  0
   59.6450   28.9490   45.0820 C   0  0  0  0  0  0  0  0  0  0  0  0
   59.6280   27.5590   45.2460 C   0  0  0  0  0  0  0  0  0  0  0  0
   58.4820   26.9280   45.7490 C   0  0  0  0  0  0  0  0  0  0  0  0
   57.3370   27.6800   46.0280 C   0  0  0  0  0  0  0  0  0  0  0  0
   57.3460   29.0690   45.8420 C   0  0  0  0  0  0  0  0  0  0  0  0
   58.7540   32.1840   48.6100 C   0  0  0  0  0  0  0  0  0  0  0  0
   58.2940   33.3740   48.0500 O   0  0  0  0  0  0  0  0  0  0  0  0
   58.3430   31.8330   49.9040 C   0  0  0  0  0  0  0  0  0  0  0  0
   57.4990   32.6730   50.6250 O   0  0  0  0  0  0  0  0  0  0  0  0
   58.7980   30.6330   50.4560 C   0  0  0  0  0  0  0  0  0  0  0  0
   58.5300   30.0940   51.8170 C   0  0  1  0  0  0  0  0  0  0  0  0
   57.1530   29.8940   52.0170 O   0  0  0  0  0  0  0  0  0  0  0  0
   59.2820   28.7240   51.8070 C   0  0  2  0  0  0  0  0  0  0  0  0
   54.1876   29.1012   51.6054 H   0  0  0  0  0  0  0  0  0  0  0  0
   52.9862   28.1759   52.5842 H   0  0  0  0  0  0  0  0  0  0  0  0
   52.3792   30.3501   54.6450 H   0  0  0  0  0  0  0  0  0  0  0  0
   50.7764   32.2610   54.5738 H   0  0  0  0  0  0  0  0  0  0  0  0
   52.7126   30.4734   50.3275 H   0  0  0  0  0  0  0  0  0  0  0  0
   56.8911   31.3235   54.8588 H   0  0  0  0  0  0  0  0  0  0  0  0
   55.7668   30.6050   56.0828 H   0  0  0  0  0  0  0  0  0  0  0  0
   59.8421   29.4400   54.9780 H   0  0  0  0  0  0  0  0  0  0  0  0
   59.3859   27.6896   54.9325 H   0  0  0  0  0  0  0  0  0  0  0  0
   60.4632   27.4044   53.0590 H   0  0  0  0  0  0  0  0  0  0  0  0
   61.1904   30.3676   53.1117 H   0  0  0  0  0  0  0  0  0  0  0  0
   62.1098   28.9610   53.8240 H   0  0  0  0  0  0  0  0  0  0  0  0
   62.4484   30.1211   51.2631 H   0  0  0  0  0  0  0  0  0  0  0  0
   63.1693   28.5809   51.9316 H   0  0  0  0  0  0  0  0  0  0  0  0
   61.9660   28.4404   49.6498 H   0  0  0  0  0  0  0  0  0  0  0  0
   61.5431   27.2301   50.9095 H   0  0  0  0  0  0  0  0  0  0  0  0
   60.3382   32.7241   46.4281 H   0  0  0  0  0  0  0  0  0  0  0  0
   60.7838   30.9924   46.1290 H   0  0  0  0  0  0  0  0  0  0  0  0
   60.5541   29.4468   44.7135 H   0  0  0  0  0  0  0  0  0  0  0  0
   60.5132   26.9624   44.9804 H   0  0  0  0  0  0  0  0  0  0  0  0
   58.4835   25.8420   45.9241 H   0  0  0  0  0  0  0  0  0  0  0  0
   56.4277   27.1808   46.3940 H   0  0  0  0  0  0  0  0  0  0  0  0
   56.4415   29.6579   46.0540 H   0  0  0  0  0  0  0  0  0  0  0  0
   58.8581   30.7709   52.6196 H   0  0  0  0  0  0  0  0  0  0  0  0
   57.0040   29.8950   52.9950 H   0  0  0  0  0  0  0  0  0  0  0  0
   58.5472   27.9058   51.8298 H   0  0  0  0  0  0  0  0  0  0  0  0
  1  2  2  0
  2  3  1  0
  3  4  1  0
  4  5  2  0
  5  6  1  0
  6  7  2  0
  7  8  1  0
  7  9  1  0
  9 10  1  0
  9 11  2  0
  2 12  1  0
 12 13  1  0
 13 14  1  0
 14 15  2  0
 14 16  1  0
 16 17  1  0
 17 18  1  0
 18 19  1  0
 19 20  1  0
 20 21  1  0
 21 22  1  0
 22 23  1  0
 23 24  2  0
 24 25  1  0
 24 26  1  0
 26 27  1  0
 27 28  1  0
 28 29  1  0
 29 30  2  0
 30 31  1  0
 31 32  2  0
 32 33  1  0
 33 34  2  0
 26 35  2  0
 35 36  1  0
 35 37  1  0
 37 38  1  0
 37 39  2  0
 39 40  1  0
 40 41  1  0
 40 42  1  0
 11  4  1  0
 42 18  1  0
 42 22  1  0
 39 23  1  0
 34 29  1  0
  3 43  1  0
  3 44  1  0
  5 45  1  0
  6 46  1  0
 11 47  1  0
 13 48  1  0
 13 49  1  0
 17 50  1  0
 17 51  1  0
 18 52  1  6
 19 53  1  0
 19 54  1  0
 20 55  1  0
 20 56  1  0
 21 57  1  0
 21 58  1  0
 27 59  1  0
 27 60  1  0
 30 61  1  0
 31 62  1  0
 32 63  1  0
 33 64  1  0
 34 65  1  0
 40 66  1  1
 41 67  1  0
 42 68  1  6
M  CHG  6   8  -1  10  -1  12  -1  25  -1  36  -1  38  -1
M  END
>  <UniqueID>  (52) 
51

>  <SMILES>  (52) 
O=C(Cc1ccc([O-])c([O-])c1)[N-]CC(=O)OC[C@@H]1CCCN2c3c([O-])c(CSc4ccccc4)c([O-])c([O-])c3[C@@H](O)C12

>  <Energy>  (52) 
90.37428699301546

>  <Genealogy>  (52) 
O=C(Cc1ccc([O-])c([O-])c1)[N-]CC(=O)OCC1CCCN2c3c([O-])c(CSc4ccccc4)c([O-])c([O-])c3C(O)C12 (protonated)
O=C(Cc1ccc([O-])c([O-])c1)[N-]CC(=O)OC[C@@H]1CCCN2c3c([O-])c(CSc4ccccc4)c([O-])c([O-])c3[C@@H](O)C12 (chirality)
O=C(Cc1ccc([O-])c([O-])c1)[N-]CC(=O)OC[C@@H]1CCCN2c3c([O-])c(CSc4ccccc4)c([O-])c([O-])c3[C@@H](O)C12 (3D coordinates assigned)
O=C(Cc1ccc([O-])c([O-])c1)[N-]CC(=O)OC[C@@H]1CCCN2c3c([O-])c(CSc4ccccc4)c([O-])c([O-])c3[C@@H](O)C12 (nonaromatic ring conformer: 90.37428699301546 kcal/mol)

>  <smiles>  (52) 
O=C(Cc1ccc(O)c(O)c1)NCC(=O)OCC1CCCN2c3c(O)c(CSc4ccccc4)c(O)c(O)c3C(O)C12

>  <score_type>  (52) 
oracle

>  <origin>  (52) 
adg

>  <m_score__min__energy>  (52) 
-21.960000000000001

>  <m_primary>  (52) 
energy

$$$$
52:0
     RDKit          3D

 61 64  0  0  0  0  0  0  0  0999 V2000
   55.1510   26.5340   46.0210 N   0  0  0  0  0  0  0  0  0  0  0  0
   56.4060   25.9250   46.3190 C   0  0  0  0  0  0  0  0  0  0  0  0
   56.4400   24.6940   46.5930 O   0  0  0  0  0  0  0  0  0  0  0  0
   57.6550   26.7230   46.3040 C   0  0  0  0  0  0  0  0  0  0  0  0
   58.2510   27.0950   45.0870 C   0  0  0  0  0  0  0  0  0  0  0  0
   59.4230   27.8540   45.0760 C   0  0  0  0  0  0  0  0  0  0  0  0
   60.0180   28.2450   46.2750 C   0  0  0  0  0  0  0  0  0  0  0  0
   59.4530   27.8690   47.5030 C   0  0  0  0  0  0  0  0  0  0  0  0
   60.0980   28.2960   48.8080 C   0  0  0  0  0  0  0  0  0  0  0  0
   59.9330   29.7320   49.1250 N   0  0  0  0  0  0  0  0  0  0  0  0
   61.0520   30.3010   49.8920 C   0  0  0  0  0  0  0  0  0  0  0  0
   60.9720   31.8430   49.8660 C   0  0  0  0  0  0  0  0  0  0  0  0
   59.5840   32.3720   49.7220 N   0  0  0  0  0  0  0  0  0  0  0  0
   59.2630   32.7660   48.3150 C   0  0  0  0  0  0  0  0  0  0  0  0
   60.1490   31.9820   47.3260 C   0  0  0  0  0  0  0  0  0  0  0  0
   59.6390   32.1790   45.8920 C   0  0  0  0  0  0  0  0  0  0  0  0
   59.2660   33.5800   45.5920 N   0  0  0  0  0  0  0  0  0  0  0  0
   57.9310   33.7870   44.9940 C   0  0  0  0  0  0  0  0  0  0  0  0
   57.4170   32.5890   44.2290 C   0  0  0  0  0  0  0  0  0  0  0  0
   57.7900   32.3900   42.8900 C   0  0  0  0  0  0  0  0  0  0  0  0
   57.3680   31.2510   42.2010 C   0  0  0  0  0  0  0  0  0  0  0  0
   56.5810   30.2900   42.8410 C   0  0  0  0  0  0  0  0  0  0  0  0
   56.2080   29.1420   42.1430 O   0  0  0  0  0  0  0  0  0  0  0  0
   56.1890   30.4880   44.1740 C   0  0  0  0  0  0  0  0  0  0  0  0
   55.3930   29.5520   44.8220 O   0  0  0  0  0  0  0  0  0  0  0  0
   56.6110   31.6290   44.8650 C   0  0  0  0  0  0  0  0  0  0  0  0
   59.7300   34.6170   46.5350 C   0  0  0  0  0  0  0  0  0  0  0  0
   59.4830   34.2760   48.0240 C   0  0  0  0  0  0  0  0  0  0  0  0
   58.6180   31.4520   50.3740 C   0  0  0  0  0  0  0  0  0  0  0  0
   58.6300   30.0430   49.7460 C   0  0  0  0  0  0  0  0  0  0  0  0
   58.2620   27.1210   47.5100 C   0  0  0  0  0  0  0  0  0  0  0  0
   54.6470   27.1030   46.7350 H   0  0  0  0  0  0  0  0  0  0  0  0
   57.7912   26.7862   44.1366 H   0  0  0  0  0  0  0  0  0  0  0  0
   59.8786   28.1446   44.1179 H   0  0  0  0  0  0  0  0  0  0  0  0
   60.9355   28.8516   46.2580 H   0  0  0  0  0  0  0  0  0  0  0  0
   59.6491   27.7091   49.6229 H   0  0  0  0  0  0  0  0  0  0  0  0
   61.1781   28.1184   48.6996 H   0  0  0  0  0  0  0  0  0  0  0  0
   60.9974   29.9498   50.9330 H   0  0  0  0  0  0  0  0  0  0  0  0
   62.0025   29.9785   49.4420 H   0  0  0  0  0  0  0  0  0  0  0  0
   61.3941   32.2280   50.8060 H   0  0  0  0  0  0  0  0  0  0  0  0
   61.5357   32.1781   48.9828 H   0  0  0  0  0  0  0  0  0  0  0  0
   58.1949   32.5362   48.1867 H   0  0  0  0  0  0  0  0  0  0  0  0
   61.1845   32.3463   47.3973 H   0  0  0  0  0  0  0  0  0  0  0  0
   60.1109   30.9120   47.5782 H   0  0  0  0  0  0  0  0  0  0  0  0
   60.4314   31.8712   45.1939 H   0  0  0  0  0  0  0  0  0  0  0  0
   58.7306   31.5685   45.7818 H   0  0  0  0  0  0  0  0  0  0  0  0
   57.2199   34.0148   45.8017 H   0  0  0  0  0  0  0  0  0  0  0  0
   58.0253   34.6129   44.2736 H   0  0  0  0  0  0  0  0  0  0  0  0
   58.4183   33.1356   42.3808 H   0  0  0  0  0  0  0  0  0  0  0  0
   57.6566   31.1096   41.1490 H   0  0  0  0  0  0  0  0  0  0  0  0
   55.4410   28.5530   42.4470 H   0  0  0  0  0  0  0  0  0  0  0  0
   56.3101   31.7758   45.9128 H   0  0  0  0  0  0  0  0  0  0  0  0
   60.8110   34.7582   46.3881 H   0  0  0  0  0  0  0  0  0  0  0  0
   59.1484   35.5250   46.3178 H   0  0  0  0  0  0  0  0  0  0  0  0
   60.3559   34.6130   48.6023 H   0  0  0  0  0  0  0  0  0  0  0  0
   58.5518   34.7870   48.3100 H   0  0  0  0  0  0  0  0  0  0  0  0
   58.8768   31.3657   51.4396 H   0  0  0  0  0  0  0  0  0  0  0  0
   57.6106   31.8715   50.2358 H   0  0  0  0  0  0  0  0  0  0  0  0
   58.4235   29.3011   50.5314 H   0  0  0  0  0  0  0  0  0  0  0  0
   57.8602   30.0114   48.9609 H   0  0  0  0  0  0  0  0  0  0  0  0
   57.7996   26.8439   48.4688 H   0  0  0  0  0  0  0  0  0  0  0  0
  1  2  1  0
  2  3  2  0
  2  4  1  0
  4  5  2  0
  5  6  1  0
  6  7  2  0
  7  8  1  0
  8  9  1  0
  9 10  1  0
 10 11  1  0
 11 12  1  0
 12 13  1  0
 13 14  1  0
 14 15  1  0
 15 16  1  0
 16 17  1  0
 17 18  1  0
 18 19  1  0
 19 20  2  0
 20 21  1  0
 21 22  2  0
 22 23  1  0
 22 24  1  0
 24 25  1  0
 24 26  2  0
 17 27  1  0
 27 28  1  0
 13 29  1  0
 29 30  1  0
  8 31  2  0
 31  4  1  0
 30 10  1  0
 28 14  1  0
 26 19  1  0
  1 32  1  0
  5 33  1  0
  6 34  1  0
  7 35  1  0
  9 36  1  0
  9 37  1  0
 11 38  1  0
 11 39  1  0
 12 40  1  0
 12 41  1  0
 14 42  1  0
 15 43  1  0
 15 44  1  0
 16 45  1  0
 16 46  1  0
 18 47  1  0
 18 48  1  0
 20 49  1  0
 21 50  1  0
 23 51  1  0
 26 52  1  0
 27 53  1  0
 27 54  1  0
 28 55  1  0
 28 56  1  0
 29 57  1  0
 29 58  1  0
 30 59  1  0
 30 60  1  0
 31 61  1  0
M  CHG  2   1  -1  25  -1
M  END
>  <UniqueID>  (53) 
52

>  <SMILES>  (53) 
[NH-]C(=O)c1cccc(CN2CCN(C3CCN(Cc4ccc(O)c([O-])c4)CC3)CC2)c1

>  <Energy>  (53) 
94.86585394835507

>  <Genealogy>  (53) 
[NH-]C(=O)c1cccc(CN2CCN(C3CCN(Cc4ccc(O)c([O-])c4)CC3)CC2)c1 (protonated)
[NH-]C(=O)c1cccc(CN2CCN(C3CCN(Cc4ccc(O)c([O-])c4)CC3)CC2)c1 (3D coordinates assigned)
[NH-]C(=O)c1cccc(CN2CCN(C3CCN(Cc4ccc(O)c([O-])c4)CC3)CC2)c1 (nonaromatic ring conformer: 94.86585394835507 kcal/mol)

>  <smiles>  (53) 
NC(=O)c1cccc(CN2CCN(C3CCN(Cc4ccc(O)c(O)c4)CC3)CC2)c1

>  <score_type>  (53) 
oracle

>  <origin>  (53) 
adg

>  <m_score__min__energy>  (53) 
-15.91

>  <m_primary>  (53) 
energy

$$$$
53:0
     RDKit          3D

 40 43  0  0  0  0  0  0  0  0999 V2000
   60.0938   30.8324   44.5331 H   0  0  0  0  0  0  0  0  0  0  0  0
   59.4090   30.0150   44.8030 C   0  0  0  0  0  0  0  0  0  0  0  0
   58.9283   29.4173   44.0145 H   0  0  0  0  0  0  0  0  0  0  0  0
   59.1600   29.7470   46.0940 C   0  0  0  0  0  0  0  0  0  0  0  0
   58.3180   28.7460   46.5880 C   0  0  0  0  0  0  0  0  0  0  0  0
   57.5580   27.8910   45.8760 C   0  0  0  0  0  0  0  0  0  0  0  0
   57.0895   28.2564   44.9502 H   0  0  0  0  0  0  0  0  0  0  0  0
   57.3210   26.4860   46.2750 C   0  0  0  0  0  0  0  0  0  0  0  0
   56.0260   25.9420   46.3310 C   0  0  0  0  0  0  0  0  0  0  0  0
   54.9150   26.7150   46.0080 O   0  0  0  0  0  0  0  0  0  0  0  0
   55.8460   24.6550   46.7250 N   0  0  0  0  0  0  0  0  0  0  0  0
   56.9000   23.8800   47.0860 C   0  0  0  0  0  0  0  0  0  0  0  0
   56.7100   22.6890   47.4440 O   0  0  0  0  0  0  0  0  0  0  0  0
   58.1580   24.3900   47.0690 N   0  0  0  0  0  0  0  0  0  0  0  0
   58.3910   25.6700   46.6810 C   0  0  0  0  0  0  0  0  0  0  0  0
   59.5710   26.1120   46.6810 O   0  0  0  0  0  0  0  0  0  0  0  0
   58.3860   28.8260   47.9730 C   0  0  0  0  0  0  0  0  0  0  0  0
   57.8531   28.1897   48.6949 H   0  0  0  0  0  0  0  0  0  0  0  0
   59.2520   29.8590   48.2670 C   0  0  0  0  0  0  0  0  0  0  0  0
   59.6170   30.2910   49.6550 C   0  0  0  0  0  0  0  0  0  0  0  0
   59.0864   29.6631   50.3859 H   0  0  0  0  0  0  0  0  0  0  0  0
   60.7023   30.1838   49.7989 H   0  0  0  0  0  0  0  0  0  0  0  0
   59.3302   31.3432   49.7989 H   0  0  0  0  0  0  0  0  0  0  0  0
   59.7410   30.4040   47.1300 N   0  0  0  0  0  0  0  0  0  0  0  0
   60.6400   31.5250   47.0510 C   0  0  0  0  0  0  0  0  0  0  0  0
   61.9890   31.3330   47.3900 C   0  0  0  0  0  0  0  0  0  0  0  0
   62.3221   30.3573   47.7734 H   0  0  0  0  0  0  0  0  0  0  0  0
   62.9100   32.3710   47.2440 C   0  0  0  0  0  0  0  0  0  0  0  0
   63.9631   32.2135   47.5201 H   0  0  0  0  0  0  0  0  0  0  0  0
   62.4980   33.6070   46.7490 C   0  0  0  0  0  0  0  0  0  0  0  0
   63.2285   34.4200   46.6251 H   0  0  0  0  0  0  0  0  0  0  0  0
   61.1590   33.8150   46.4100 C   0  0  0  0  0  0  0  0  0  0  0  0
   60.8424   34.7913   46.0142 H   0  0  0  0  0  0  0  0  0  0  0  0
   60.2120   32.7880   46.5700 C   0  0  0  0  0  0  0  0  0  0  0  0
   58.7990   33.0690   46.2280 C   0  0  0  0  0  0  0  0  0  0  0  0
   58.3570   33.3070   44.9790 N   0  0  0  0  0  0  0  0  0  0  0  0
   57.0590   33.5440   45.1120 N   0  0  0  0  0  0  0  0  0  0  0  0
   56.7140   33.4670   46.3890 N   0  0  0  0  0  0  0  0  0  0  0  0
   57.7840   33.1740   47.1040 N   0  0  0  0  0  0  0  0  0  0  0  0
   57.8050   33.0970   48.1440 H   0  0  0  0  0  0  0  0  0  0  0  0
  1  2  1  0
  2  3  1  0
  2  4  2  0
  4  5  1  0
  5  6  2  0
  6  7  1  0
  6  8  1  0
  8  9  2  0
  9 10  1  0
  9 11  1  0
 11 12  1  0
 12 13  2  0
 12 14  1  0
 14 15  1  0
 15 16  2  0
  5 17  1  0
 17 18  1  0
 17 19  2  0
 19 20  1  0
 20 21  1  0
 20 22  1  0
 20 23  1  0
 19 24  1  0
 24 25  1  0
 25 26  2  0
 26 27  1  0
 26 28  1  0
 28 29  1  0
 28 30  2  0
 30 31  1  0
 30 32  1  0
 32 33  1  0
 32 34  2  0
 34 35  1  0
 35 36  2  0
 36 37  1  0
 37 38  1  0
 38 39  2  0
 39 40  1  0
 24  4  1  0
 34 25  1  0
 39 35  1  0
 15  8  1  0
M  CHG  5  10  -1  11  -1  14  -1  37  -1  39   1
M  END
>  <UniqueID>  (54) 
53

>  <SMILES>  (54) 
C=c1/c(=C/c2c([O-])[n-]c(=O)[n-]c2=O)cc(C)n1-c1ccccc1-c1n[n-]n[nH+]1

>  <Energy>  (54) 
132.3728048995919

>  <Genealogy>  (54) 
C=c1c(=Cc2c([O-])[n-]c(=O)[n-]c2=O)cc(C)n1-c1ccccc1-c1n[n-]n[nH+]1 (protonated)
C=c1/c(=C/c2c([O-])[n-]c(=O)[n-]c2=O)cc(C)n1-c1ccccc1-c1n[n-]n[nH+]1 (cis-trans isomerization)
C=c1/c(=C/c2c([O-])[n-]c(=O)[n-]c2=O)cc(C)n1-c1ccccc1-c1n[n-]n[nH+]1 (3D coordinates assigned)
C=c1/c(=C/c2c([O-])[n-]c(=O)[n-]c2=O)cc(C)n1-c1ccccc1-c1n[n-]n[nH+]1 (optimized conformer: 132.3728048995919 kcal/mol)

>  <smiles>  (54) 
C=c1c(=Cc2c(O)[nH]c(=O)[nH]c2=O)cc(C)n1-c1ccccc1-c1nn[nH]n1

>  <score_type>  (54) 
oracle

>  <origin>  (54) 
adg

>  <m_score__min__energy>  (54) 
-16.48

>  <m_primary>  (54) 
energy

$$$$
54:0
     RDKit          3D

 63 66  0  0  0  0  0  0  0  0999 V2000
   56.6310   29.9780   44.4400 C   0  0  0  0  0  0  0  0  0  0  0  0
   57.7490   29.5180   45.0220 C   0  0  0  0  0  0  0  0  0  0  0  0
   58.1910   28.1870   45.0900 C   0  0  0  0  0  0  0  0  0  0  0  0
   57.5670   27.0310   44.7950 C   0  0  0  0  0  0  0  0  0  0  0  0
   57.1380   26.0120   45.7670 C   0  0  0  0  0  0  0  0  0  0  0  0
   57.8920   24.9730   46.1720 N   0  0  0  0  0  0  0  0  0  0  0  0
   57.0380   24.2420   46.9220 C   0  0  0  0  0  0  0  0  0  0  0  0
   57.3810   23.1780   47.4990 O   0  0  0  0  0  0  0  0  0  0  0  0
   55.7840   24.7370   46.9940 N   0  0  0  0  0  0  0  0  0  0  0  0
   55.8620   25.8490   46.2460 C   0  0  0  0  0  0  0  0  0  0  0  0
   54.7870   26.6960   46.0020 O   0  0  0  0  0  0  0  0  0  0  0  0
   59.4940   28.2350   45.5660 C   0  0  0  0  0  0  0  0  0  0  0  0
   59.7730   29.5590   45.8330 C   0  0  0  0  0  0  0  0  0  0  0  0
   61.0680   30.0690   46.3860 C   0  0  0  0  0  0  0  0  0  0  0  0
   58.7180   30.3350   45.5060 N   0  0  0  0  0  0  0  0  0  0  0  0
   58.6880   31.7680   45.5840 C   0  0  0  0  0  0  0  0  0  0  0  0
   58.4670   32.5260   44.4270 C   0  0  0  0  0  0  0  0  0  0  0  0
   58.4670   33.9200   44.4900 C   0  0  0  0  0  0  0  0  0  0  0  0
   58.7110   34.5650   45.7050 C   0  0  0  0  0  0  0  0  0  0  0  0
   58.9500   33.8190   46.8720 C   0  0  0  0  0  0  0  0  0  0  0  0
   59.2670   34.5430   48.1640 C   0  0  0  0  0  0  0  0  0  0  0  0
   60.1810   33.7560   49.0380 N   0  0  1  0  0  0  0  0  0  0  0  0
   61.5690   34.2570   48.8420 C   0  0  0  0  0  0  0  0  0  0  0  0
   62.3600   33.4620   47.8000 C   0  0  0  0  0  0  0  0  0  0  0  0
   59.7580   33.8550   50.4680 C   0  0  0  0  0  0  0  0  0  0  0  0
   59.5420   32.4790   51.1430 C   0  0  0  0  0  0  0  0  0  0  0  0
   59.8450   31.3740   50.2080 N   0  0  0  0  0  0  0  0  0  0  0  0
   58.9450   30.2380   50.3990 C   0  0  0  0  0  0  0  0  0  0  0  0
   59.6830   29.0190   49.8920 C   0  0  0  0  0  0  0  0  0  0  0  0
   61.1420   29.3290   50.1600 C   0  0  0  0  0  0  0  0  0  0  0  0
   61.2080   30.8390   50.3610 C   0  0  0  0  0  0  0  0  0  0  0  0
   58.9120   32.4120   46.8100 C   0  0  0  0  0  0  0  0  0  0  0  0
   59.1140   31.6650   47.9260 F   0  0  0  0  0  0  0  0  0  0  0  0
   56.4032   31.0540   44.4600 H   0  0  0  0  0  0  0  0  0  0  0  0
   55.9422   29.2791   43.9429 H   0  0  0  0  0  0  0  0  0  0  0  0
   57.3593   26.8302   43.7336 H   0  0  0  0  0  0  0  0  0  0  0  0
   60.1736   27.3811   45.7038 H   0  0  0  0  0  0  0  0  0  0  0  0
   61.0287   30.0535   47.4852 H   0  0  0  0  0  0  0  0  0  0  0  0
   61.8923   29.4283   46.0395 H   0  0  0  0  0  0  0  0  0  0  0  0
   61.2341   31.0997   46.0395 H   0  0  0  0  0  0  0  0  0  0  0  0
   58.2929   32.0207   43.4656 H   0  0  0  0  0  0  0  0  0  0  0  0
   58.2748   34.5113   43.5826 H   0  0  0  0  0  0  0  0  0  0  0  0
   58.7161   35.6641   45.7486 H   0  0  0  0  0  0  0  0  0  0  0  0
   59.7459   35.5037   47.9239 H   0  0  0  0  0  0  0  0  0  0  0  0
   58.3231   34.6925   48.7087 H   0  0  0  0  0  0  0  0  0  0  0  0
   60.1570   32.7600   48.7160 H   0  0  0  0  0  0  0  0  0  0  0  0
   61.5183   35.3062   48.5155 H   0  0  0  0  0  0  0  0  0  0  0  0
   62.0934   34.1458   49.8025 H   0  0  0  0  0  0  0  0  0  0  0  0
   63.0474   32.7712   48.3102 H   0  0  0  0  0  0  0  0  0  0  0  0
   61.6638   32.8883   47.1705 H   0  0  0  0  0  0  0  0  0  0  0  0
   62.9372   34.1553   47.1705 H   0  0  0  0  0  0  0  0  0  0  0  0
   60.5360   34.3980   51.0247 H   0  0  0  0  0  0  0  0  0  0  0  0
   58.7913   34.3796   50.4846 H   0  0  0  0  0  0  0  0  0  0  0  0
   60.2034   32.4005   52.0184 H   0  0  0  0  0  0  0  0  0  0  0  0
   58.4877   32.4005   51.4468 H   0  0  0  0  0  0  0  0  0  0  0  0
   58.7025   30.1198   51.4654 H   0  0  0  0  0  0  0  0  0  0  0  0
   57.9979   30.3842   49.8589 H   0  0  0  0  0  0  0  0  0  0  0  0
   59.3690   28.1176   50.4386 H   0  0  0  0  0  0  0  0  0  0  0  0
   59.4835   28.8178   48.8291 H   0  0  0  0  0  0  0  0  0  0  0  0
   61.4864   28.8055   51.0641 H   0  0  0  0  0  0  0  0  0  0  0  0
   61.7877   28.9991   49.3328 H   0  0  0  0  0  0  0  0  0  0  0  0
   61.5882   31.0661   51.3679 H   0  0  0  0  0  0  0  0  0  0  0  0
   61.8846   31.2953   49.6235 H   0  0  0  0  0  0  0  0  0  0  0  0
  1  2  2  0
  2  3  1  0
  3  4  2  3
  4  5  1  0
  5  6  1  0
  6  7  1  0
  7  8  2  0
  7  9  1  0
  9 10  1  0
 10 11  1  0
  3 12  1  0
 12 13  2  0
 13 14  1  0
 13 15  1  0
 15 16  1  0
 16 17  2  0
 17 18  1  0
 18 19  2  0
 19 20  1  0
 20 21  1  0
 21 22  1  0
 22 23  1  0
 23 24  1  0
 22 25  1  0
 25 26  1  0
 26 27  1  0
 27 28  1  0
 28 29  1  0
 29 30  1  0
 30 31  1  0
 20 32  2  0
 32 33  1  0
 15  2  1  0
 32 16  1  0
 10  5  2  0
 31 27  1  0
  1 34  1  0
  1 35  1  0
  4 36  1  0
 12 37  1  0
 14 38  1  0
 14 39  1  0
 14 40  1  0
 17 41  1  0
 18 42  1  0
 19 43  1  0
 21 44  1  0
 21 45  1  0
 22 46  1  6
 23 47  1  0
 23 48  1  0
 24 49  1  0
 24 50  1  0
 24 51  1  0
 25 52  1  0
 25 53  1  0
 26 54  1  0
 26 55  1  0
 28 56  1  0
 28 57  1  0
 29 58  1  0
 29 59  1  0
 30 60  1  0
 30 61  1  0
 31 62  1  0
 31 63  1  0
M  CHG  4   6  -1   9  -1  11  -1  22   1
M  END
>  <UniqueID>  (55) 
54

>  <SMILES>  (55) 
C=c1c(=Cc2[n-]c(=O)[n-]c2[O-])cc(C)n1-c1cccc(C[N@@H+](CC)CCN2CCCC2)c1F

>  <Energy>  (55) 
145.61747161411884

>  <Genealogy>  (55) 
C=c1c(=Cc2[n-]c(=O)[n-]c2[O-])cc(C)n1-c1cccc(C[NH+](CC)CCN2CCCC2)c1F (protonated)
C=c1c(=Cc2[n-]c(=O)[n-]c2[O-])cc(C)n1-c1cccc(C[N@@H+](CC)CCN2CCCC2)c1F (chirality)
C=c1c(=Cc2[n-]c(=O)[n-]c2[O-])cc(C)n1-c1cccc(C[N@@H+](CC)CCN2CCCC2)c1F (3D coordinates assigned)
C=c1c(=Cc2[n-]c(=O)[n-]c2[O-])cc(C)n1-c1cccc(C[N@@H+](CC)CCN2CCCC2)c1F (nonaromatic ring conformer: 145.61747161411884 kcal/mol)

>  <smiles>  (55) 
C=c1c(=Cc2[nH]c(=O)[nH]c2O)cc(C)n1-c1cccc(CN(CC)CCN2CCCC2)c1F

>  <score_type>  (55) 
oracle

>  <origin>  (55) 
adg

>  <m_score__min__energy>  (55) 
-15.34

>  <m_primary>  (55) 
energy

$$$$
55:0
     RDKit          3D

 62 66  0  0  0  0  0  0  0  0999 V2000
   61.8379   30.3791   51.0866 H   0  0  0  0  0  0  0  0  0  0  0  0
   62.2380   30.7970   50.1510 C   0  0  0  0  0  0  0  0  0  0  0  0
   61.5570   30.6240   48.9420 C   0  0  0  0  0  0  0  0  0  0  0  0
   60.2850   29.8380   48.8920 C   0  0  0  0  0  0  0  0  0  0  0  0
   59.9438   29.6271   49.9163 H   0  0  0  0  0  0  0  0  0  0  0  0
   59.5159   30.4185   48.3615 H   0  0  0  0  0  0  0  0  0  0  0  0
   60.4601   28.8904   48.3615 H   0  0  0  0  0  0  0  0  0  0  0  0
   62.0820   31.1400   47.7970 N   0  0  0  0  0  0  0  0  0  0  0  0
   63.2500   31.8310   47.8100 C   0  0  0  0  0  0  0  0  0  0  0  0
   63.7130   32.3040   46.7400 O   0  0  0  0  0  0  0  0  0  0  0  0
   63.9210   32.0090   48.9750 N   0  0  0  0  0  0  0  0  0  0  0  0
   63.4370   31.5120   50.1440 C   0  0  0  0  0  0  0  0  0  0  0  0
   64.3340   31.7990   51.6700 S   0  0  0  0  0  0  0  0  0  0  0  0
   63.7900   33.5380   51.8520 C   0  0  0  0  0  0  0  0  0  0  0  0
   64.2979   34.1529   51.0944 H   0  0  0  0  0  0  0  0  0  0  0  0
   64.0472   33.8765   52.8665 H   0  0  0  0  0  0  0  0  0  0  0  0
   62.2920   33.6710   51.6710 C   0  0  0  0  0  0  0  0  0  0  0  0
   61.4580   33.3080   52.7440 C   0  0  0  0  0  0  0  0  0  0  0  0
   61.9082   33.0051   53.7008 H   0  0  0  0  0  0  0  0  0  0  0  0
   60.0660   33.3260   52.6140 C   0  0  0  0  0  0  0  0  0  0  0  0
   59.2010   32.9000   53.7610 C   0  0  0  0  0  0  0  0  0  0  0  0
   59.7015   33.1465   54.7090 H   0  0  0  0  0  0  0  0  0  0  0  0
   58.2364   33.4261   53.7080 H   0  0  0  0  0  0  0  0  0  0  0  0
   59.0301   31.8147   53.7080 H   0  0  0  0  0  0  0  0  0  0  0  0
   59.4960   33.6430   51.3780 C   0  0  0  0  0  0  0  0  0  0  0  0
   58.4021   33.6243   51.2634 H   0  0  0  0  0  0  0  0  0  0  0  0
   60.3000   33.9840   50.2840 C   0  0  0  0  0  0  0  0  0  0  0  0
   59.6660   34.2290   49.0190 N   0  0  0  0  0  0  0  0  0  0  0  0
   59.5920   35.2180   48.6900 H   0  0  0  0  0  0  0  0  0  0  0  0
   58.8810   33.2230   48.3590 C   0  0  0  0  0  0  0  0  0  0  0  0
   58.4500   32.2410   49.0250 O   0  0  0  0  0  0  0  0  0  0  0  0
   58.5700   33.3160   46.9110 C   0  0  0  0  0  0  0  0  0  0  0  0
   58.7220   34.5290   46.2120 C   0  0  0  0  0  0  0  0  0  0  0  0
   59.0390   35.4340   46.7510 H   0  0  0  0  0  0  0  0  0  0  0  0
   58.4730   34.5910   44.8390 C   0  0  0  0  0  0  0  0  0  0  0  0
   58.5933   35.5438   44.3027 H   0  0  0  0  0  0  0  0  0  0  0  0
   58.0720   33.4480   44.1450 C   0  0  0  0  0  0  0  0  0  0  0  0
   57.8991   33.4973   43.0598 H   0  0  0  0  0  0  0  0  0  0  0  0
   57.8890   32.2360   44.8290 C   0  0  0  0  0  0  0  0  0  0  0  0
   57.5600   31.0320   44.1230 N   0  0  0  0  0  0  0  0  0  0  0  0
   57.4780   29.8300   44.6210 C   0  0  0  0  0  0  0  0  0  0  0  0
   56.3310   29.0850   44.9120 C   0  0  0  0  0  0  0  0  0  0  0  0
   55.1360   29.4480   44.7550 O   0  0  0  0  0  0  0  0  0  0  0  0
   56.7290   27.8800   45.4620 C   0  0  0  0  0  0  0  0  0  0  0  0
   55.9650   26.9560   45.8490 O   0  0  0  0  0  0  0  0  0  0  0  0
   58.1070   27.8770   45.5300 C   0  0  0  0  0  0  0  0  0  0  0  0
   58.9820   26.9020   46.0140 C   0  0  0  0  0  0  0  0  0  0  0  0
   58.6044   25.9513   46.4184 H   0  0  0  0  0  0  0  0  0  0  0  0
   60.3610   27.1740   45.9680 C   0  0  0  0  0  0  0  0  0  0  0  0
   61.0772   26.4272   46.3413 H   0  0  0  0  0  0  0  0  0  0  0  0
   60.8340   28.3990   45.4460 C   0  0  0  0  0  0  0  0  0  0  0  0
   61.9154   28.5979   45.4147 H   0  0  0  0  0  0  0  0  0  0  0  0
   59.9320   29.3660   44.9660 C   0  0  0  0  0  0  0  0  0  0  0  0
   60.2910   30.3227   44.5587 H   0  0  0  0  0  0  0  0  0  0  0  0
   58.5670   29.0750   45.0220 C   0  0  0  0  0  0  0  0  0  0  0  0
   58.1660   32.1700   46.1990 C   0  0  0  0  0  0  0  0  0  0  0  0
   58.0669   31.2101   46.7270 H   0  0  0  0  0  0  0  0  0  0  0  0
   61.7070   34.0680   50.4380 C   0  0  0  0  0  0  0  0  0  0  0  0
   62.5680   34.5430   49.2880 C   0  0  0  0  0  0  0  0  0  0  0  0
   63.4668   35.0389   49.6833 H   0  0  0  0  0  0  0  0  0  0  0  0
   62.8654   33.6813   48.6723 H   0  0  0  0  0  0  0  0  0  0  0  0
   61.9977   35.2541   48.6723 H   0  0  0  0  0  0  0  0  0  0  0  0
  1  2  1  0
  2  3  1  0
  3  4  1  0
  4  5  1  0
  4  6  1  0
  4  7  1  0
  3  8  2  0
  8  9  1  0
  9 10  2  0
  9 11  1  0
 11 12  1  0
 12 13  1  0
 13 14  1  0
 14 15  1  0
 14 16  1  0
 14 17  1  0
 17 18  2  0
 18 19  1  0
 18 20  1  0
 20 21  1  0
 21 22  1  0
 21 23  1  0
 21 24  1  0
 20 25  2  0
 25 26  1  0
 25 27  1  0
 27 28  1  0
 28 29  1  0
 28 30  1  0
 30 31  2  0
 30 32  1  0
 32 33  2  0
 33 34  1  0
 33 35  1  0
 35 36  1  0
 35 37  2  0
 37 38  1  0
 37 39  1  0
 39 40  1  0
 40 41  2  0
 41 42  1  0
 42 43  2  0
 42 44  1  0
 44 45  2  0
 44 46  1  0
 46 47  2  0
 47 48  1  0
 47 49  1  0
 49 50  1  0
 49 51  2  0
 51 52  1  0
 51 53  1  0
 53 54  1  0
 53 55  2  0
 39 56  2  0
 56 57  1  0
 27 58  2  0
 58 59  1  0
 59 60  1  0
 59 61  1  0
 59 62  1  0
 12  2  2  0
 58 17  1  0
 56 32  1  0
 55 41  1  0
 55 46  1  0
M  CHG  1  11  -1
M  END
>  <UniqueID>  (56) 
55

>  <SMILES>  (56) 
Cc1cc(CSc2cc(C)nc(=O)[n-]2)c(C)c(NC(=O)c2cccc(/N=c3\c(=O)c(=O)c4ccccc34)c2)c1

>  <Energy>  (56) 
116.80915042244054

>  <Genealogy>  (56) 
Cc1cc(CSc2cc(C)nc(=O)[n-]2)c(C)c(NC(=O)c2cccc(N=c3c(=O)c(=O)c4ccccc34)c2)c1 (protonated)
Cc1cc(CSc2cc(C)nc(=O)[n-]2)c(C)c(NC(=O)c2cccc(/N=c3\c(=O)c(=O)c4ccccc34)c2)c1 (cis-trans isomerization)
Cc1cc(CSc2cc(C)nc(=O)[n-]2)c(C)c(NC(=O)c2cccc(/N=c3\c(=O)c(=O)c4ccccc34)c2)c1 (3D coordinates assigned)
Cc1cc(CSc2cc(C)nc(=O)[n-]2)c(C)c(NC(=O)c2cccc(/N=c3\c(=O)c(=O)c4ccccc34)c2)c1 (optimized conformer: 116.80915042244054 kcal/mol)

>  <smiles>  (56) 
Cc1cc(CSc2cc(C)nc(=O)[nH]2)c(C)c(NC(=O)c2cccc(N=c3c(=O)c(=O)c4ccccc34)c2)c1

>  <score_type>  (56) 
oracle

>  <origin>  (56) 
adg

>  <m_score__min__energy>  (56) 
-11.85

>  <m_primary>  (56) 
energy

$$$$
56:0
     RDKit          3D

 43 45  0  0  0  0  0  0  0  0999 V2000
   60.6570   33.6810   45.8090 H   0  0  0  0  0  0  0  0  0  0  0  0
   61.6440   33.8180   45.9920 O   0  0  0  0  0  0  0  0  0  0  0  0
   62.1960   33.5770   47.2500 C   0  0  0  0  0  0  0  0  0  0  0  0
   63.4590   32.9760   47.3520 C   0  0  0  0  0  0  0  0  0  0  0  0
   64.0221   32.7272   46.4404 H   0  0  0  0  0  0  0  0  0  0  0  0
   64.0050   32.6920   48.6050 C   0  0  0  0  0  0  0  0  0  0  0  0
   65.0009   32.2307   48.6789 H   0  0  0  0  0  0  0  0  0  0  0  0
   63.2880   32.9930   49.7640 C   0  0  0  0  0  0  0  0  0  0  0  0
   63.7123   32.7536   50.7502 H   0  0  0  0  0  0  0  0  0  0  0  0
   62.0320   33.5980   49.6730 C   0  0  0  0  0  0  0  0  0  0  0  0
   61.4684   33.8240   50.5902 H   0  0  0  0  0  0  0  0  0  0  0  0
   61.4810   33.9210   48.4190 C   0  0  0  0  0  0  0  0  0  0  0  0
   60.1270   34.5930   48.3380 C   0  0  0  0  0  0  0  0  0  0  0  0
   60.2375   35.5478   47.8031 H   0  0  0  0  0  0  0  0  0  0  0  0
   59.7661   34.7474   49.3656 H   0  0  0  0  0  0  0  0  0  0  0  0
   59.1080   33.7450   47.6130 C   0  0  0  0  0  0  0  0  0  0  0  0
   58.2450   33.1160   48.2800 O   0  0  0  0  0  0  0  0  0  0  0  0
   58.9850   33.7630   46.1830 N   0  0  0  0  0  0  0  0  0  0  0  0
   58.4400   32.8430   45.4460 C   0  0  0  0  0  0  0  0  0  0  0  0
   58.2790   32.9900   44.1140 N   0  0  0  0  0  0  0  0  0  0  0  0
   57.6160   31.9350   43.5600 C   0  0  0  0  0  0  0  0  0  0  0  0
   57.3360   31.8910   42.0900 C   0  0  0  0  0  0  0  0  0  0  0  0
   56.2614   31.7221   41.9263 H   0  0  0  0  0  0  0  0  0  0  0  0
   57.6310   32.8465   41.6318 H   0  0  0  0  0  0  0  0  0  0  0  0
   57.9098   31.0720   41.6318 H   0  0  0  0  0  0  0  0  0  0  0  0
   57.2310   30.9360   44.4680 C   0  0  0  0  0  0  0  0  0  0  0  0
   56.5390   29.6610   44.1720 C   0  0  0  0  0  0  0  0  0  0  0  0
   56.3060   29.3390   42.9770 O   0  0  0  0  0  0  0  0  0  0  0  0
   56.1980   28.7310   45.2100 N   0  0  0  0  0  0  0  0  0  0  0  0
   57.1260   27.9860   46.0130 C   0  0  0  0  0  0  0  0  0  0  0  0
   58.2510   28.6300   46.5610 C   0  0  0  0  0  0  0  0  0  0  0  0
   58.4124   29.7012   46.3699 H   0  0  0  0  0  0  0  0  0  0  0  0
   59.1630   27.9230   47.3440 C   0  0  0  0  0  0  0  0  0  0  0  0
   60.5750   28.7360   47.9950 Cl  0  0  0  0  0  0  0  0  0  0  0  0
   58.9510   26.5720   47.6120 C   0  0  0  0  0  0  0  0  0  0  0  0
   59.6729   26.0145   48.2269 H   0  0  0  0  0  0  0  0  0  0  0  0
   57.8250   25.9250   47.1020 C   0  0  0  0  0  0  0  0  0  0  0  0
   57.6600   24.8617   47.3303 H   0  0  0  0  0  0  0  0  0  0  0  0
   56.8960   26.6160   46.2980 C   0  0  0  0  0  0  0  0  0  0  0  0
   55.7220   25.8790   45.7550 C   0  0  0  0  0  0  0  0  0  0  0  0
   55.8890   24.8320   45.0750 O   0  0  0  0  0  0  0  0  0  0  0  0
   54.4240   26.3270   45.9750 O   0  0  0  0  0  0  0  0  0  0  0  0
   57.7600   31.4100   45.9940 S   0  0  0  0  0  0  0  0  0  0  0  0
  1  2  1  0
  2  3  1  0
  3  4  2  0
  4  5  1  0
  4  6  1  0
  6  7  1  0
  6  8  2  0
  8  9  1  0
  8 10  1  0
 10 11  1  0
 10 12  2  0
 12 13  1  0
 13 14  1  0
 13 15  1  0
 13 16  1  0
 16 17  2  0
 16 18  1  0
 18 19  2  0
 19 20  1  0
 20 21  1  0
 21 22  1  0
 22 23  1  0
 22 24  1  0
 22 25  1  0
 21 26  2  0
 26 27  1  0
 27 28  2  0
 27 29  1  0
 29 30  1  0
 30 31  2  0
 31 32  1  0
 31 33  1  0
 33 34  1  0
 33 35  2  0
 35 36  1  0
 35 37  1  0
 37 38  1  0
 37 39  2  0
 39 40  1  0
 40 41  2  0
 40 42  1  0
 26 43  1  0
 12  3  1  0
 43 19  1  0
 39 30  1  0
M  CHG  3  20  -1  29  -1  42  -1
M  END
>  <UniqueID>  (57) 
56

>  <SMILES>  (57) 
Cc1[n-]/c(=N/C(=O)Cc2ccccc2O)sc1C(=O)[N-]c1cc(Cl)ccc1C(=O)[O-]

>  <Energy>  (57) 
88.61476629463556

>  <Genealogy>  (57) 
Cc1[n-]c(=NC(=O)Cc2ccccc2O)sc1C(=O)[N-]c1cc(Cl)ccc1C(=O)[O-] (protonated)
Cc1[n-]/c(=N/C(=O)Cc2ccccc2O)sc1C(=O)[N-]c1cc(Cl)ccc1C(=O)[O-] (cis-trans isomerization)
Cc1[n-]/c(=N/C(=O)Cc2ccccc2O)sc1C(=O)[N-]c1cc(Cl)ccc1C(=O)[O-] (3D coordinates assigned)
Cc1[n-]/c(=N/C(=O)Cc2ccccc2O)sc1C(=O)[N-]c1cc(Cl)ccc1C(=O)[O-] (optimized conformer: 88.61476629463556 kcal/mol)

>  <smiles>  (57) 
Cc1[nH]c(=NC(=O)Cc2ccccc2O)sc1C(=O)Nc1cc(Cl)ccc1C(=O)O

>  <score_type>  (57) 
oracle

>  <origin>  (57) 
adg

>  <m_score__min__energy>  (57) 
-14.460000000000001

>  <m_primary>  (57) 
energy

$$$$
57:0
     RDKit          3D

 38 39  0  0  0  0  0  0  0  0999 V2000
   56.3360   27.8040   44.8610 H   0  0  0  0  0  0  0  0  0  0  0  0
   56.0170   28.7650   44.8970 O   0  0  0  0  0  0  0  0  0  0  0  0
   56.6980   29.7890   44.2430 C   0  0  0  0  0  0  0  0  0  0  0  0
   56.3410   30.1290   42.9280 C   0  0  0  0  0  0  0  0  0  0  0  0
   55.5590   29.5561   42.4081 H   0  0  0  0  0  0  0  0  0  0  0  0
   56.9730   31.1900   42.2770 C   0  0  0  0  0  0  0  0  0  0  0  0
   56.6914   31.4474   41.2453 H   0  0  0  0  0  0  0  0  0  0  0  0
   57.9610   31.9240   42.9330 C   0  0  0  0  0  0  0  0  0  0  0  0
   58.4503   32.7659   42.4214 H   0  0  0  0  0  0  0  0  0  0  0  0
   58.3300   31.5920   44.2380 C   0  0  0  0  0  0  0  0  0  0  0  0
   59.1015   32.1828   44.7535 H   0  0  0  0  0  0  0  0  0  0  0  0
   57.7240   30.5090   44.8990 C   0  0  0  0  0  0  0  0  0  0  0  0
   58.1560   30.2020   46.2810 C   0  0  0  0  0  0  0  0  0  0  0  0
   57.7794   30.8302   47.1017 H   0  0  0  0  0  0  0  0  0  0  0  0
   58.9860   29.1920   46.5760 C   0  0  0  0  0  0  0  0  0  0  0  0
   59.5588   29.2335   47.5142 H   0  0  0  0  0  0  0  0  0  0  0  0
   59.1590   28.0300   45.6910 C   0  0  0  0  0  0  0  0  0  0  0  0
   60.1530   27.9500   44.9170 O   0  0  0  0  0  0  0  0  0  0  0  0
   58.1830   26.9840   45.7190 N   0  0  0  0  0  0  0  0  0  0  0  0
   57.3460   26.6880   46.8780 C   0  0  0  0  0  0  0  0  0  0  0  0
   57.9085   26.0473   47.5730 H   0  0  0  0  0  0  0  0  0  0  0  0
   57.0720   27.6369   47.3622 H   0  0  0  0  0  0  0  0  0  0  0  0
   56.0820   25.9780   46.4680 C   0  0  0  0  0  0  0  0  0  0  0  0
   55.1480   26.6390   45.9400 O   0  0  0  0  0  0  0  0  0  0  0  0
   55.9790   24.5490   46.4980 N   0  0  0  0  0  0  0  0  0  0  0  0
   56.1950   23.6590   45.3930 C   0  0  0  0  0  0  0  0  0  0  0  0
   56.2960   24.1780   44.0900 C   0  0  0  0  0  0  0  0  0  0  0  0
   56.1679   25.2575   43.9220 H   0  0  0  0  0  0  0  0  0  0  0  0
   56.5570   23.3370   43.0090 C   0  0  0  0  0  0  0  0  0  0  0  0
   56.6176   23.7518   41.9920 H   0  0  0  0  0  0  0  0  0  0  0  0
   56.7410   21.9720   43.2160 C   0  0  0  0  0  0  0  0  0  0  0  0
   56.9388   21.3092   42.3607 H   0  0  0  0  0  0  0  0  0  0  0  0
   56.6750   21.4430   44.5060 C   0  0  0  0  0  0  0  0  0  0  0  0
   56.8309   20.3651   44.6602 H   0  0  0  0  0  0  0  0  0  0  0  0
   56.4110   22.2740   45.6130 C   0  0  0  0  0  0  0  0  0  0  0  0
   56.3510   21.6640   46.9670 C   0  0  0  0  0  0  0  0  0  0  0  0
   55.3740   20.9490   47.3180 O   0  0  0  0  0  0  0  0  0  0  0  0
   57.3840   21.8680   47.8750 O   0  0  0  0  0  0  0  0  0  0  0  0
  1  2  1  0
  2  3  1  0
  3  4  2  0
  4  5  1  0
  4  6  1  0
  6  7  1  0
  6  8  2  0
  8  9  1  0
  8 10  1  0
 10 11  1  0
 10 12  2  0
 12 13  1  0
 13 14  1  0
 13 15  2  0
 15 16  1  0
 15 17  1  0
 17 18  2  0
 17 19  1  0
 19 20  1  0
 20 21  1  0
 20 22  1  0
 20 23  1  0
 23 24  2  0
 23 25  1  0
 25 26  1  0
 26 27  2  0
 27 28  1  0
 27 29  1  0
 29 30  1  0
 29 31  2  0
 31 32  1  0
 31 33  1  0
 33 34  1  0
 33 35  2  0
 35 36  1  0
 36 37  2  0
 36 38  1  0
 12  3  1  0
 35 26  1  0
M  CHG  3  19  -1  25  -1  38  -1
M  END
>  <UniqueID>  (58) 
57

>  <SMILES>  (58) 
O=C(/C=C/c1ccccc1O)[N-]CC(=O)[N-]c1ccccc1C(=O)[O-]

>  <Energy>  (58) 
48.565618112199296

>  <Genealogy>  (58) 
O=C(C=Cc1ccccc1O)[N-]CC(=O)[N-]c1ccccc1C(=O)[O-] (protonated)
O=C(/C=C/c1ccccc1O)[N-]CC(=O)[N-]c1ccccc1C(=O)[O-] (cis-trans isomerization)
O=C(/C=C/c1ccccc1O)[N-]CC(=O)[N-]c1ccccc1C(=O)[O-] (3D coordinates assigned)
O=C(/C=C/c1ccccc1O)[N-]CC(=O)[N-]c1ccccc1C(=O)[O-] (optimized conformer: 48.565618112199296 kcal/mol)

>  <smiles>  (58) 
O=C(C=Cc1ccccc1O)NCC(=O)Nc1ccccc1C(=O)O

>  <score_type>  (58) 
oracle

>  <origin>  (58) 
adg

>  <m_score__min__energy>  (58) 
-13.9

>  <m_primary>  (58) 
energy

$$$$
58:0
     RDKit          3D

 20 20  0  0  0  0  0  0  0  0999 V2000
   57.7536   25.7924   43.9543 H   0  0  0  0  0  0  0  0  0  0  0  0
   58.0940   26.7550   43.5450 C   0  0  0  0  0  0  0  0  0  0  0  0
   57.2964   27.1934   42.9273 H   0  0  0  0  0  0  0  0  0  0  0  0
   58.9899   26.5945   42.9273 H   0  0  0  0  0  0  0  0  0  0  0  0
   58.4070   27.6400   44.6130 O   0  0  0  0  0  0  0  0  0  0  0  0
   57.7870   27.5600   45.8630 C   0  0  0  0  0  0  0  0  0  0  0  0
   57.7070   28.5770   46.6050 O   0  0  0  0  0  0  0  0  0  0  0  0
   57.2260   26.2770   46.3070 C   0  0  0  0  0  0  0  0  0  0  0  0
   57.9700   25.2450   46.7400 N   0  0  0  0  0  0  0  0  0  0  0  0
   57.0580   24.2920   47.0380 C   0  0  0  0  0  0  0  0  0  0  0  0
   57.3560   23.1120   47.4980 N   0  0  0  0  0  0  0  0  0  0  0  0
   56.6550   22.3360   48.4860 C   0  0  0  0  0  0  0  0  0  0  0  0
   57.3200   21.5540   49.2170 O   0  0  0  0  0  0  0  0  0  0  0  0
   55.1700   22.4120   48.6850 C   0  0  0  0  0  0  0  0  0  0  0  0
   54.9444   22.4235   49.7616 H   0  0  0  0  0  0  0  0  0  0  0  0
   54.7843   23.3311   48.2197 H   0  0  0  0  0  0  0  0  0  0  0  0
   54.6924   21.5371   48.2197 H   0  0  0  0  0  0  0  0  0  0  0  0
   55.7770   24.6640   46.8200 N   0  0  0  0  0  0  0  0  0  0  0  0
   55.9000   25.9180   46.3580 C   0  0  0  0  0  0  0  0  0  0  0  0
   54.8220   26.7150   45.9930 O   0  0  0  0  0  0  0  0  0  0  0  0
  1  2  1  0
  2  3  1  0
  2  4  1  0
  2  5  1  0
  5  6  1  0
  6  7  2  0
  6  8  1  0
  8  9  1  0
  9 10  1  0
 10 11  2  0
 11 12  1  0
 12 13  2  0
 12 14  1  0
 14 15  1  0
 14 16  1  0
 14 17  1  0
 10 18  1  0
 18 19  1  0
 19 20  1  0
 19  8  2  0
M  CHG  3   9  -1  18  -1  20  -1
M  END
>  <UniqueID>  (59) 
58

>  <SMILES>  (59) 
COC(=O)c1[n-]/c(=N\C(C)=O)[n-]c1[O-]

>  <Energy>  (59) 
46.4122681654976

>  <Genealogy>  (59) 
COC(=O)c1[n-]c(=NC(C)=O)[n-]c1[O-] (protonated)
COC(=O)c1[n-]/c(=N\C(C)=O)[n-]c1[O-] (cis-trans isomerization)
COC(=O)c1[n-]/c(=N\C(C)=O)[n-]c1[O-] (3D coordinates assigned)
COC(=O)c1[n-]/c(=N\C(C)=O)[n-]c1[O-] (optimized conformer: 46.4122681654976 kcal/mol)

>  <smiles>  (59) 
COC(=O)c1[nH]c(=NC(C)=O)[nH]c1O

>  <score_type>  (59) 
oracle

>  <origin>  (59) 
adg

>  <m_score__min__energy>  (59) 
-12.029999999999999

>  <m_primary>  (59) 
energy

$$$$
59:0
     RDKit          3D

 50 53  0  0  0  0  0  0  0  0999 V2000
   60.3653   34.7141   47.7537 H   0  0  0  0  0  0  0  0  0  0  0  0
   59.6330   34.1690   47.1400 C   0  0  0  0  0  0  0  0  0  0  0  0
   58.8299   34.7171   46.6256 H   0  0  0  0  0  0  0  0  0  0  0  0
   59.7200   32.8260   47.0180 C   0  0  0  0  0  0  0  0  0  0  0  0
   58.7710   32.1360   46.2250 C   0  0  0  0  0  0  0  0  0  0  0  0
   57.8620   32.7770   45.6240 O   0  0  0  0  0  0  0  0  0  0  0  0
   58.8790   30.7320   46.0920 C   0  0  0  0  0  0  0  0  0  0  0  0
   58.0250   29.9620   45.3840 C   0  0  0  0  0  0  0  0  0  0  0  0
   57.5467   30.4222   44.5069 H   0  0  0  0  0  0  0  0  0  0  0  0
   57.6750   28.5590   45.6800 C   0  0  0  0  0  0  0  0  0  0  0  0
   58.6780   27.6780   46.1100 C   0  0  0  0  0  0  0  0  0  0  0  0
   59.7162   28.0310   46.1966 H   0  0  0  0  0  0  0  0  0  0  0  0
   58.3650   26.3540   46.4290 C   0  0  0  0  0  0  0  0  0  0  0  0
   59.1587   25.6643   46.7520 H   0  0  0  0  0  0  0  0  0  0  0  0
   57.0440   25.9050   46.3380 C   0  0  0  0  0  0  0  0  0  0  0  0
   56.8007   24.8605   46.5826 H   0  0  0  0  0  0  0  0  0  0  0  0
   56.0310   26.7830   45.9360 C   0  0  0  0  0  0  0  0  0  0  0  0
   54.7190   26.3330   45.8610 O   0  0  0  0  0  0  0  0  0  0  0  0
   56.3400   28.1120   45.6160 C   0  0  0  0  0  0  0  0  0  0  0  0
   55.3220   28.9840   45.2410 O   0  0  0  0  0  0  0  0  0  0  0  0
   59.9210   30.1050   46.6920 N   0  0  0  0  0  0  0  0  0  0  0  0
   60.8310   30.7640   47.4480 C   0  0  0  0  0  0  0  0  0  0  0  0
   61.7650   30.1070   47.9850 O   0  0  0  0  0  0  0  0  0  0  0  0
   60.7300   32.1160   47.6360 N   0  0  0  0  0  0  0  0  0  0  0  0
   61.6950   32.7600   48.4990 C   0  0  0  0  0  0  0  0  0  0  0  0
   63.0380   32.8230   48.0970 C   0  0  0  0  0  0  0  0  0  0  0  0
   63.3451   32.3701   47.1428 H   0  0  0  0  0  0  0  0  0  0  0  0
   63.9860   33.4570   48.9010 C   0  0  0  0  0  0  0  0  0  0  0  0
   65.0363   33.5053   48.5778 H   0  0  0  0  0  0  0  0  0  0  0  0
   63.6030   34.0300   50.1150 C   0  0  0  0  0  0  0  0  0  0  0  0
   64.3523   34.5289   50.7471 H   0  0  0  0  0  0  0  0  0  0  0  0
   62.2690   33.9710   50.5290 C   0  0  0  0  0  0  0  0  0  0  0  0
   61.9750   34.4175   51.4904 H   0  0  0  0  0  0  0  0  0  0  0  0
   61.3010   33.3450   49.7250 C   0  0  0  0  0  0  0  0  0  0  0  0
   59.8960   33.2800   50.1910 C   0  0  0  0  0  0  0  0  0  0  0  0
   59.2770   34.3580   50.4020 O   0  0  0  0  0  0  0  0  0  0  0  0
   59.2260   32.0200   50.4120 N   0  0  0  0  0  0  0  0  0  0  0  0
   59.9760   30.7800   50.6430 C   0  0  0  0  0  0  0  0  0  0  0  0
   60.0716   30.2282   49.6962 H   0  0  0  0  0  0  0  0  0  0  0  0
   60.9765   31.0246   51.0292 H   0  0  0  0  0  0  0  0  0  0  0  0
   59.2340   29.9140   51.6650 C   0  0  0  0  0  0  0  0  0  0  0  0
   59.7330   28.9365   51.7391 H   0  0  0  0  0  0  0  0  0  0  0  0
   59.2490   30.4267   52.6381 H   0  0  0  0  0  0  0  0  0  0  0  0
   57.8870   29.7190   51.2760 O   0  0  0  0  0  0  0  0  0  0  0  0
   57.2010   30.9560   51.2950 C   0  0  0  0  0  0  0  0  0  0  0  0
   56.1362   30.7809   51.0815 H   0  0  0  0  0  0  0  0  0  0  0  0
   57.3231   31.4110   52.2890 H   0  0  0  0  0  0  0  0  0  0  0  0
   57.7730   31.9130   50.2440 C   0  0  0  0  0  0  0  0  0  0  0  0
   57.5485   31.5282   49.2383 H   0  0  0  0  0  0  0  0  0  0  0  0
   57.3175   32.9064   50.3694 H   0  0  0  0  0  0  0  0  0  0  0  0
  1  2  1  0
  2  3  1  0
  2  4  2  0
  4  5  1  0
  5  6  2  0
  5  7  1  0
  7  8  2  0
  8  9  1  0
  8 10  1  0
 10 11  2  0
 11 12  1  0
 11 13  1  0
 13 14  1  0
 13 15  2  0
 15 16  1  0
 15 17  1  0
 17 18  1  0
 17 19  2  0
 19 20  1  0
  7 21  1  0
 21 22  1  0
 22 23  2  0
 22 24  1  0
 24 25  1  0
 25 26  2  0
 26 27  1  0
 26 28  1  0
 28 29  1  0
 28 30  2  0
 30 31  1  0
 30 32  1  0
 32 33  1  0
 32 34  2  0
 34 35  1  0
 35 36  2  0
 35 37  1  0
 37 38  1  0
 38 39  1  0
 38 40  1  0
 38 41  1  0
 41 42  1  0
 41 43  1  0
 41 44  1  0
 44 45  1  0
 45 46  1  0
 45 47  1  0
 45 48  1  0
 48 49  1  0
 48 50  1  0
 24  4  1  0
 34 25  1  0
 48 37  1  0
 19 10  1  0
M  CHG  3  18  -1  20  -1  21  -1
M  END
>  <UniqueID>  (60) 
59

>  <SMILES>  (60) 
C=c1c(=O)/c(=C\c2cccc([O-])c2[O-])[n-]c(=O)n1-c1ccccc1C(=O)N1CCOCC1

>  <Energy>  (60) 
89.77392811088674

>  <Genealogy>  (60) 
C=c1c(=O)c(=Cc2cccc([O-])c2[O-])[n-]c(=O)n1-c1ccccc1C(=O)N1CCOCC1 (protonated)
C=c1c(=O)/c(=C\c2cccc([O-])c2[O-])[n-]c(=O)n1-c1ccccc1C(=O)N1CCOCC1 (cis-trans isomerization)
C=c1c(=O)/c(=C\c2cccc([O-])c2[O-])[n-]c(=O)n1-c1ccccc1C(=O)N1CCOCC1 (3D coordinates assigned)
C=c1c(=O)/c(=C\c2cccc([O-])c2[O-])[n-]c(=O)n1-c1ccccc1C(=O)N1CCOCC1 (nonaromatic ring conformer: 89.77392811088674 kcal/mol)

>  <smiles>  (60) 
C=c1c(=O)c(=Cc2cccc(O)c2O)[nH]c(=O)n1-c1ccccc1C(=O)N1CCOCC1

>  <score_type>  (60) 
oracle

>  <origin>  (60) 
adg

>  <m_score__min__energy>  (60) 
-16.890000000000001

>  <m_primary>  (60) 
energy

$$$$
60:0
     RDKit          3D

 39 41  0  0  0  0  0  0  0  0999 V2000
   60.2710   29.8590   46.7250 C   0  0  0  0  0  0  0  0  0  0  0  0
   59.5450   30.7480   46.0270 C   0  0  0  0  0  0  0  0  0  0  0  0
   58.5860   30.4820   45.0370 C   0  0  0  0  0  0  0  0  0  0  0  0
   58.2530   29.3350   44.4120 C   0  0  0  0  0  0  0  0  0  0  0  0
   57.5630   28.1880   45.0340 C   0  0  0  0  0  0  0  0  0  0  0  0
   56.1770   28.2270   45.2460 C   0  0  0  0  0  0  0  0  0  0  0  0
   55.4460   29.3660   44.9190 O   0  0  0  0  0  0  0  0  0  0  0  0
   55.5450   27.1500   45.7820 N   0  0  0  0  0  0  0  0  0  0  0  0
   56.2290   26.0220   46.1040 C   0  0  0  0  0  0  0  0  0  0  0  0
   55.6210   25.0410   46.6030 O   0  0  0  0  0  0  0  0  0  0  0  0
   57.5660   25.9510   45.8830 N   0  0  0  0  0  0  0  0  0  0  0  0
   58.2460   26.9980   45.3500 C   0  0  0  0  0  0  0  0  0  0  0  0
   59.4820   26.8900   45.1380 O   0  0  0  0  0  0  0  0  0  0  0  0
   57.9760   31.6940   44.7510 C   0  0  0  0  0  0  0  0  0  0  0  0
   58.6090   32.6500   45.5170 C   0  0  0  0  0  0  0  0  0  0  0  0
   58.2660   34.1080   45.5260 C   0  0  0  0  0  0  0  0  0  0  0  0
   59.5600   32.0800   46.2850 N   0  0  0  0  0  0  0  0  0  0  0  0
   60.3890   32.7710   47.2360 C   0  0  0  0  0  0  0  0  0  0  0  0
   61.6870   33.1520   46.8670 C   0  0  0  0  0  0  0  0  0  0  0  0
   62.5050   33.8370   47.7680 C   0  0  0  0  0  0  0  0  0  0  0  0
   62.0310   34.1490   49.0450 C   0  0  0  0  0  0  0  0  0  0  0  0
   62.8440   34.8380   49.9380 O   0  0  0  0  0  0  0  0  0  0  0  0
   60.7410   33.7670   49.4270 C   0  0  0  0  0  0  0  0  0  0  0  0
   59.9150   33.0630   48.5340 C   0  0  0  0  0  0  0  0  0  0  0  0
   58.5280   32.6650   48.9590 C   0  0  0  0  0  0  0  0  0  0  0  0
   60.9932   30.2085   47.4775 H   0  0  0  0  0  0  0  0  0  0  0  0
   60.1433   28.7815   46.5440 H   0  0  0  0  0  0  0  0  0  0  0  0
   58.5180   29.2463   43.3481 H   0  0  0  0  0  0  0  0  0  0  0  0
   55.2320   30.0660   45.6190 H   0  0  0  0  0  0  0  0  0  0  0  0
   57.1465   31.8608   44.0481 H   0  0  0  0  0  0  0  0  0  0  0  0
   58.1835   34.4588   46.5653 H   0  0  0  0  0  0  0  0  0  0  0  0
   59.0556   34.6736   45.0097 H   0  0  0  0  0  0  0  0  0  0  0  0
   57.3070   34.2623   45.0097 H   0  0  0  0  0  0  0  0  0  0  0  0
   62.0631   32.9099   45.8620 H   0  0  0  0  0  0  0  0  0  0  0  0
   63.5229   34.1311   47.4724 H   0  0  0  0  0  0  0  0  0  0  0  0
   60.3709   34.0189   50.4318 H   0  0  0  0  0  0  0  0  0  0  0  0
   58.4716   32.6488   50.0574 H   0  0  0  0  0  0  0  0  0  0  0  0
   57.8014   33.3909   48.5652 H   0  0  0  0  0  0  0  0  0  0  0  0
   58.2968   31.6643   48.5652 H   0  0  0  0  0  0  0  0  0  0  0  0
  1  2  2  0
  2  3  1  0
  3  4  2  3
  4  5  1  0
  5  6  2  0
  6  7  1  0
  6  8  1  0
  8  9  1  0
  9 10  2  0
  9 11  1  0
 11 12  1  0
 12 13  2  0
  3 14  1  0
 14 15  2  0
 15 16  1  0
 15 17  1  0
 17 18  1  0
 18 19  2  0
 19 20  1  0
 20 21  2  0
 21 22  1  0
 21 23  1  0
 23 24  2  0
 24 25  1  0
 17  2  1  0
 24 18  1  0
 12  5  1  0
  1 26  1  0
  1 27  1  0
  4 28  1  0
  7 29  1  0
 14 30  1  0
 16 31  1  0
 16 32  1  0
 16 33  1  0
 19 34  1  0
 20 35  1  0
 23 36  1  0
 25 37  1  0
 25 38  1  0
 25 39  1  0
M  CHG  3   8  -1  11  -1  22  -1
M  END
>  <UniqueID>  (61) 
60

>  <SMILES>  (61) 
C=c1c(=Cc2c(O)[n-]c(=O)[n-]c2=O)cc(C)n1-c1ccc([O-])cc1C

>  <Energy>  (61) 
89.3170181426992

>  <Genealogy>  (61) 
C=c1c(=Cc2c(O)[n-]c(=O)[n-]c2=O)cc(C)n1-c1ccc([O-])cc1C (protonated)
C=c1c(=Cc2c(O)[n-]c(=O)[n-]c2=O)cc(C)n1-c1ccc([O-])cc1C (3D coordinates assigned)
C=c1c(=Cc2c(O)[n-]c(=O)[n-]c2=O)cc(C)n1-c1ccc([O-])cc1C (optimized conformer: 89.3170181426992 kcal/mol)

>  <smiles>  (61) 
C=c1c(=Cc2c(O)[nH]c(=O)[nH]c2=O)cc(C)n1-c1ccc(O)cc1C

>  <score_type>  (61) 
oracle

>  <origin>  (61) 
adg

>  <m_score__min__energy>  (61) 
-13.26

>  <m_primary>  (61) 
energy

$$$$
61:0
     RDKit          3D

 43 45  0  0  0  0  0  0  0  0999 V2000
   59.6730   29.6490   44.6440 C   0  0  0  0  0  0  0  0  0  0  0  0
   59.1700   29.4900   45.8770 C   0  0  0  0  0  0  0  0  0  0  0  0
   58.3870   28.4230   46.3270 C   0  0  0  0  0  0  0  0  0  0  0  0
   57.9170   27.3920   45.6000 C   0  0  0  0  0  0  0  0  0  0  0  0
   57.4490   26.1210   46.1960 C   0  0  0  0  0  0  0  0  0  0  0  0
   56.0750   25.8830   46.3550 C   0  0  0  0  0  0  0  0  0  0  0  0
   55.1430   26.8480   45.9890 O   0  0  0  0  0  0  0  0  0  0  0  0
   55.6460   24.7070   46.8800 N   0  0  0  0  0  0  0  0  0  0  0  0
   56.5250   23.7400   47.2460 C   0  0  0  0  0  0  0  0  0  0  0  0
   56.1040   22.6600   47.7340 O   0  0  0  0  0  0  0  0  0  0  0  0
   57.8580   23.9340   47.0780 N   0  0  0  0  0  0  0  0  0  0  0  0
   58.3380   25.0910   46.5550 C   0  0  0  0  0  0  0  0  0  0  0  0
   59.5800   25.2220   46.3820 O   0  0  0  0  0  0  0  0  0  0  0  0
   58.1540   28.6510   47.6780 C   0  0  0  0  0  0  0  0  0  0  0  0
   58.7900   29.8360   47.9940 C   0  0  0  0  0  0  0  0  0  0  0  0
   58.8530   30.4380   49.3630 C   0  0  0  0  0  0  0  0  0  0  0  0
   59.3920   30.3500   46.9000 N   0  0  0  0  0  0  0  0  0  0  0  0
   60.1790   31.5520   46.8670 C   0  0  0  0  0  0  0  0  0  0  0  0
   61.5500   31.4690   47.1490 C   0  0  0  0  0  0  0  0  0  0  0  0
   62.3480   32.6140   47.1170 C   0  0  0  0  0  0  0  0  0  0  0  0
   61.7830   33.8500   46.8010 C   0  0  0  0  0  0  0  0  0  0  0  0
   60.4180   33.9450   46.5200 C   0  0  0  0  0  0  0  0  0  0  0  0
   59.6000   32.8050   46.5580 C   0  0  0  0  0  0  0  0  0  0  0  0
   57.8760   32.9780   46.1860 S   0  0  0  0  0  0  0  0  0  0  0  0
   57.0820   33.0960   47.4580 O   0  0  0  0  0  0  0  0  0  0  0  0
   57.6670   34.2360   45.3920 O   0  0  0  0  0  0  0  0  0  0  0  0
   57.3420   31.6240   45.2290 N   0  0  0  0  0  0  0  0  0  0  0  0
   57.6170   31.8550   43.8130 C   0  0  0  0  0  0  0  0  0  0  0  0
   60.2786   30.5363   44.4072 H   0  0  0  0  0  0  0  0  0  0  0  0
   59.4800   28.8922   43.8694 H   0  0  0  0  0  0  0  0  0  0  0  0
   57.8789   27.5000   44.5060 H   0  0  0  0  0  0  0  0  0  0  0  0
   57.5759   28.0125   48.3622 H   0  0  0  0  0  0  0  0  0  0  0  0
   58.7697   29.6421   50.1177 H   0  0  0  0  0  0  0  0  0  0  0  0
   59.8111   30.9637   49.4887 H   0  0  0  0  0  0  0  0  0  0  0  0
   58.0245   31.1506   49.4887 H   0  0  0  0  0  0  0  0  0  0  0  0
   61.9994   30.4960   47.3969 H   0  0  0  0  0  0  0  0  0  0  0  0
   63.4225   32.5418   47.3410 H   0  0  0  0  0  0  0  0  0  0  0  0
   62.4134   34.7510   46.7731 H   0  0  0  0  0  0  0  0  0  0  0  0
   59.9803   34.9218   46.2667 H   0  0  0  0  0  0  0  0  0  0  0  0
   56.3080   31.5340   45.3470 H   0  0  0  0  0  0  0  0  0  0  0  0
   58.4558   32.5596   43.7126 H   0  0  0  0  0  0  0  0  0  0  0  0
   57.8788   30.9020   43.3301 H   0  0  0  0  0  0  0  0  0  0  0  0
   56.7235   32.2774   43.3301 H   0  0  0  0  0  0  0  0  0  0  0  0
  1  2  2  0
  2  3  1  0
  3  4  2  3
  4  5  1  0
  5  6  2  0
  6  7  1  0
  6  8  1  0
  8  9  1  0
  9 10  2  0
  9 11  1  0
 11 12  1  0
 12 13  2  0
  3 14  1  0
 14 15  2  0
 15 16  1  0
 15 17  1  0
 17 18  1  0
 18 19  2  0
 19 20  1  0
 20 21  2  0
 21 22  1  0
 22 23  2  0
 23 24  1  0
 24 25  2  0
 24 26  2  0
 24 27  1  0
 27 28  1  0
 17  2  1  0
 23 18  1  0
 12  5  1  0
  1 29  1  0
  1 30  1  0
  4 31  1  0
 14 32  1  0
 16 33  1  0
 16 34  1  0
 16 35  1  0
 19 36  1  0
 20 37  1  0
 21 38  1  0
 22 39  1  0
 27 40  1  0
 28 41  1  0
 28 42  1  0
 28 43  1  0
M  CHG  3   7  -1   8  -1  11  -1
M  END
>  <UniqueID>  (62) 
61

>  <SMILES>  (62) 
C=c1c(=Cc2c([O-])[n-]c(=O)[n-]c2=O)cc(C)n1-c1ccccc1S(=O)(=O)NC

>  <Energy>  (62) 
89.1100995607629

>  <Genealogy>  (62) 
C=c1c(=Cc2c([O-])[n-]c(=O)[n-]c2=O)cc(C)n1-c1ccccc1S(=O)(=O)NC (protonated)
C=c1c(=Cc2c([O-])[n-]c(=O)[n-]c2=O)cc(C)n1-c1ccccc1S(=O)(=O)NC (3D coordinates assigned)
C=c1c(=Cc2c([O-])[n-]c(=O)[n-]c2=O)cc(C)n1-c1ccccc1S(=O)(=O)NC (optimized conformer: 89.1100995607629 kcal/mol)

>  <smiles>  (62) 
C=c1c(=Cc2c(O)[nH]c(=O)[nH]c2=O)cc(C)n1-c1ccccc1S(=O)(=O)NC

>  <score_type>  (62) 
oracle

>  <origin>  (62) 
adg

>  <m_score__min__energy>  (62) 
-15.640000000000001

>  <m_primary>  (62) 
energy

$$$$
62:0
     RDKit          3D

 68 71  0  0  0  0  0  0  0  0999 V2000
   56.4008   27.4580   45.0892 H   0  0  0  0  0  0  0  0  0  0  0  0
   57.1880   28.1680   45.3830 C   0  0  0  0  0  0  0  0  0  0  0  0
   57.3510   29.3580   44.6670 C   0  0  0  0  0  0  0  0  0  0  0  0
   56.6752   29.5904   43.8308 H   0  0  0  0  0  0  0  0  0  0  0  0
   58.3730   30.2580   45.0100 C   0  0  0  0  0  0  0  0  0  0  0  0
   58.5090   31.5690   44.2740 C   0  0  0  0  0  0  0  0  0  0  0  0
   59.5774   31.7781   44.1167 H   0  0  0  0  0  0  0  0  0  0  0  0
   57.9749   31.4768   43.3168 H   0  0  0  0  0  0  0  0  0  0  0  0
   57.8970   32.7150   45.0380 C   0  0  0  0  0  0  0  0  0  0  0  0
   56.6500   32.9020   44.9870 O   0  0  0  0  0  0  0  0  0  0  0  0
   58.7170   33.6110   45.8100 N   0  0  0  0  0  0  0  0  0  0  0  0
   58.1960   34.1510   47.0740 C   0  0  0  0  0  0  0  0  0  0  0  0
   57.3326   34.7977   46.8586 H   0  0  0  0  0  0  0  0  0  0  0  0
   57.9003   33.3081   47.7160 H   0  0  0  0  0  0  0  0  0  0  0  0
   59.2630   34.9710   47.8120 C   0  0  0  0  0  0  0  0  0  0  0  0
   59.3765   35.9490   47.3215 H   0  0  0  0  0  0  0  0  0  0  0  0
   58.9526   35.1156   48.8574 H   0  0  0  0  0  0  0  0  0  0  0  0
   60.5500   34.2550   47.7800 N   0  0  0  0  0  0  0  0  0  0  0  0
   61.2120   33.8830   49.0160 C   0  0  0  0  0  0  0  0  0  0  0  0
   60.6530   34.1390   50.1180 O   0  0  0  0  0  0  0  0  0  0  0  0
   62.4820   33.1970   49.0370 N   0  0  0  0  0  0  0  0  0  0  0  0
   63.6310   33.5660   48.2240 C   0  0  0  0  0  0  0  0  0  0  0  0
   63.5663   33.0945   47.2323 H   0  0  0  0  0  0  0  0  0  0  0  0
   63.6814   34.6529   48.0622 H   0  0  0  0  0  0  0  0  0  0  0  0
   64.8510   33.0530   48.9770 C   0  0  0  0  0  0  0  0  0  0  0  0
   65.5836   32.6246   48.2771 H   0  0  0  0  0  0  0  0  0  0  0  0
   65.3647   33.8585   49.5223 H   0  0  0  0  0  0  0  0  0  0  0  0
   64.3210   31.9790   49.9180 C   0  0  0  0  0  0  0  0  0  0  0  0
   64.4183   30.9837   49.4599 H   0  0  0  0  0  0  0  0  0  0  0  0
   64.8813   31.9510   50.8642 H   0  0  0  0  0  0  0  0  0  0  0  0
   62.8550   32.3230   50.1380 C   0  0  0  0  0  0  0  0  0  0  0  0
   62.2417   31.4099   50.1266 H   0  0  0  0  0  0  0  0  0  0  0  0
   62.6956   32.8091   51.1118 H   0  0  0  0  0  0  0  0  0  0  0  0
   61.0700   33.8050   46.4750 C   0  0  0  0  0  0  0  0  0  0  0  0
   61.9817   34.3740   46.2402 H   0  0  0  0  0  0  0  0  0  0  0  0
   61.2818   32.7279   46.5456 H   0  0  0  0  0  0  0  0  0  0  0  0
   60.0500   34.0160   45.3490 C   0  0  0  0  0  0  0  0  0  0  0  0
   60.0321   35.0787   45.0656 H   0  0  0  0  0  0  0  0  0  0  0  0
   60.3359   33.4075   44.4784 H   0  0  0  0  0  0  0  0  0  0  0  0
   59.2250   29.9510   46.0800 C   0  0  0  0  0  0  0  0  0  0  0  0
   60.0300   30.6481   46.3557 H   0  0  0  0  0  0  0  0  0  0  0  0
   59.0570   28.7630   46.7990 C   0  0  0  0  0  0  0  0  0  0  0  0
   59.7411   28.5231   47.6264 H   0  0  0  0  0  0  0  0  0  0  0  0
   58.0180   27.8730   46.4700 C   0  0  0  0  0  0  0  0  0  0  0  0
   57.8310   26.6290   47.1650 N   0  0  0  0  0  0  0  0  0  0  0  0
   57.0940   25.6270   46.7850 C   0  0  0  0  0  0  0  0  0  0  0  0
   55.8020   25.8040   46.3960 N   0  0  0  0  0  0  0  0  0  0  0  0
   55.0570   24.7490   45.9840 C   0  0  0  0  0  0  0  0  0  0  0  0
   53.7290   24.9530   45.6000 O   0  0  0  0  0  0  0  0  0  0  0  0
   52.9600   23.9570   44.9400 C   0  0  0  0  0  0  0  0  0  0  0  0
   52.4672   23.3187   45.6881 H   0  0  0  0  0  0  0  0  0  0  0  0
   52.1978   24.4395   44.3105 H   0  0  0  0  0  0  0  0  0  0  0  0
   53.6197   23.3417   44.3105 H   0  0  0  0  0  0  0  0  0  0  0  0
   55.6110   23.5090   45.9470 N   0  0  0  0  0  0  0  0  0  0  0  0
   56.9030   23.3230   46.3150 C   0  0  0  0  0  0  0  0  0  0  0  0
   57.4150   22.1310   46.2550 N   0  0  0  0  0  0  0  0  0  0  0  0
   57.0330   21.0980   45.2910 C   0  0  0  0  0  0  0  0  0  0  0  0
   55.9419   20.9622   45.3229 H   0  0  0  0  0  0  0  0  0  0  0  0
   57.5461   20.1625   45.5585 H   0  0  0  0  0  0  0  0  0  0  0  0
   57.4460   21.4910   43.8740 C   0  0  0  0  0  0  0  0  0  0  0  0
   58.1223   20.7266   43.4637 H   0  0  0  0  0  0  0  0  0  0  0  0
   57.9624   22.4620   43.8983 H   0  0  0  0  0  0  0  0  0  0  0  0
   56.2960   21.5890   43.0590 O   0  0  0  0  0  0  0  0  0  0  0  0
   56.0020   22.9480   42.8280 C   0  0  0  0  0  0  0  0  0  0  0  0
   55.8896   23.4677   43.7910 H   0  0  0  0  0  0  0  0  0  0  0  0
   56.8213   23.4084   42.2564 H   0  0  0  0  0  0  0  0  0  0  0  0
   55.0656   23.0286   42.2564 H   0  0  0  0  0  0  0  0  0  0  0  0
   57.6410   24.3860   46.7330 N   0  0  0  0  0  0  0  0  0  0  0  0
  1  2  1  0
  2  3  2  0
  3  4  1  0
  3  5  1  0
  5  6  1  0
  6  7  1  0
  6  8  1  0
  6  9  1  0
  9 10  2  0
  9 11  1  0
 11 12  1  0
 12 13  1  0
 12 14  1  0
 12 15  1  0
 15 16  1  0
 15 17  1  0
 15 18  1  0
 18 19  1  0
 19 20  2  0
 19 21  1  0
 21 22  1  0
 22 23  1  0
 22 24  1  0
 22 25  1  0
 25 26  1  0
 25 27  1  0
 25 28  1  0
 28 29  1  0
 28 30  1  0
 28 31  1  0
 31 32  1  0
 31 33  1  0
 18 34  1  0
 34 35  1  0
 34 36  1  0
 34 37  1  0
 37 38  1  0
 37 39  1  0
  5 40  2  0
 40 41  1  0
 40 42  1  0
 42 43  1  0
 42 44  2  0
 44 45  1  0
 45 46  2  0
 46 47  1  0
 47 48  2  0
 48 49  1  0
 49 50  1  0
 50 51  1  0
 50 52  1  0
 50 53  1  0
 48 54  1  0
 54 55  1  0
 55 56  2  3
 56 57  1  0
 57 58  1  0
 57 59  1  0
 57 60  1  0
 60 61  1  0
 60 62  1  0
 60 63  1  0
 63 64  1  0
 64 65  1  0
 64 66  1  0
 64 67  1  0
 55 68  1  0
 44  2  1  0
 68 46  1  0
 37 11  1  0
 31 21  1  0
M  CHG  2  54  -1  68  -1
M  END
>  <UniqueID>  (63) 
62

>  <SMILES>  (63) 
COCCN=c1[n-]c(OC)n/c(=N\c2ccc(CC(=O)N3CCN(C(=O)N4CCCC4)CC3)cc2)[n-]1

>  <Energy>  (63) 
79.67885934120442

>  <Genealogy>  (63) 
COCCN=c1[n-]c(OC)nc(=Nc2ccc(CC(=O)N3CCN(C(=O)N4CCCC4)CC3)cc2)[n-]1 (protonated)
COCCN=c1[n-]c(OC)n/c(=N\c2ccc(CC(=O)N3CCN(C(=O)N4CCCC4)CC3)cc2)[n-]1 (cis-trans isomerization)
COCCN=c1[n-]c(OC)n/c(=N\c2ccc(CC(=O)N3CCN(C(=O)N4CCCC4)CC3)cc2)[n-]1 (3D coordinates assigned)
COCCN=c1[n-]c(OC)n/c(=N\c2ccc(CC(=O)N3CCN(C(=O)N4CCCC4)CC3)cc2)[n-]1 (nonaromatic ring conformer: 79.67885934120442 kcal/mol)

>  <smiles>  (63) 
COCCN=c1[nH]c(OC)nc(=Nc2ccc(CC(=O)N3CCN(C(=O)N4CCCC4)CC3)cc2)[nH]1

>  <score_type>  (63) 
oracle

>  <origin>  (63) 
adg

>  <m_score__min__energy>  (63) 
-12.68

>  <m_primary>  (63) 
energy

$$$$
63:0
     RDKit          3D

 51 54  0  0  0  0  0  0  0  0999 V2000
   59.3183   30.7024   44.2441 H   0  0  0  0  0  0  0  0  0  0  0  0
   58.8960   29.7240   44.5170 C   0  0  0  0  0  0  0  0  0  0  0  0
   58.4187   29.0975   43.7491 H   0  0  0  0  0  0  0  0  0  0  0  0
   58.9630   29.2950   45.7860 C   0  0  0  0  0  0  0  0  0  0  0  0
   58.4700   28.0770   46.2750 C   0  0  0  0  0  0  0  0  0  0  0  0
   58.0990   26.9520   45.6330 C   0  0  0  0  0  0  0  0  0  0  0  0
   58.3649   26.8679   44.5689 H   0  0  0  0  0  0  0  0  0  0  0  0
   57.3670   25.8250   46.2370 C   0  0  0  0  0  0  0  0  0  0  0  0
   57.9420   24.7760   46.8540 N   0  0  0  0  0  0  0  0  0  0  0  0
   56.8920   24.1000   47.3670 C   0  0  0  0  0  0  0  0  0  0  0  0
   57.0270   23.0290   48.0160 O   0  0  0  0  0  0  0  0  0  0  0  0
   55.6880   24.6680   47.1420 N   0  0  0  0  0  0  0  0  0  0  0  0
   56.0090   25.7660   46.4370 C   0  0  0  0  0  0  0  0  0  0  0  0
   55.0800   26.7010   45.9960 O   0  0  0  0  0  0  0  0  0  0  0  0
   58.4430   28.1990   47.6500 C   0  0  0  0  0  0  0  0  0  0  0  0
   58.0617   27.4545   48.3644 H   0  0  0  0  0  0  0  0  0  0  0  0
   58.9840   29.4300   47.9600 C   0  0  0  0  0  0  0  0  0  0  0  0
   59.0720   29.9410   49.3440 C   0  0  0  0  0  0  0  0  0  0  0  0
   58.1350   29.7030   50.1500 O   0  0  0  0  0  0  0  0  0  0  0  0
   60.1750   30.7590   49.7530 N   0  0  0  0  0  0  0  0  0  0  0  0
   61.5700   30.4180   49.4990 C   0  0  0  0  0  0  0  0  0  0  0  0
   62.0243   30.0302   50.4227 H   0  0  0  0  0  0  0  0  0  0  0  0
   61.6170   29.6525   48.7105 H   0  0  0  0  0  0  0  0  0  0  0  0
   62.3230   31.6380   49.0480 C   0  0  0  0  0  0  0  0  0  0  0  0
   63.0890   31.5950   47.8730 C   0  0  0  0  0  0  0  0  0  0  0  0
   63.1660   30.6619   47.2956 H   0  0  0  0  0  0  0  0  0  0  0  0
   63.7530   32.7460   47.4420 C   0  0  0  0  0  0  0  0  0  0  0  0
   64.3619   32.7181   46.5263 H   0  0  0  0  0  0  0  0  0  0  0  0
   63.6480   33.9020   48.1530 N   0  0  0  0  0  0  0  0  0  0  0  0
   62.9060   33.9730   49.2910 C   0  0  0  0  0  0  0  0  0  0  0  0
   62.8401   34.9208   49.8454 H   0  0  0  0  0  0  0  0  0  0  0  0
   62.2270   32.8430   49.7570 C   0  0  0  0  0  0  0  0  0  0  0  0
   61.6217   32.8995   50.6737 H   0  0  0  0  0  0  0  0  0  0  0  0
   59.3550   30.0820   46.8270 N   0  0  0  0  0  0  0  0  0  0  0  0
   60.0810   31.3640   46.7370 C   0  0  0  0  0  0  0  0  0  0  0  0
   60.4565   31.6305   47.7360 H   0  0  0  0  0  0  0  0  0  0  0  0
   60.9076   31.2372   46.0224 H   0  0  0  0  0  0  0  0  0  0  0  0
   59.1920   32.4860   46.2320 C   0  0  0  0  0  0  0  0  0  0  0  0
   57.8400   32.2080   45.9630 C   0  0  0  0  0  0  0  0  0  0  0  0
   57.4497   31.1942   46.1357 H   0  0  0  0  0  0  0  0  0  0  0  0
   56.9870   33.2010   45.4800 C   0  0  0  0  0  0  0  0  0  0  0  0
   55.9336   32.9652   45.2687 H   0  0  0  0  0  0  0  0  0  0  0  0
   57.4680   34.4910   45.2650 C   0  0  0  0  0  0  0  0  0  0  0  0
   56.7989   35.2673   44.8654 H   0  0  0  0  0  0  0  0  0  0  0  0
   58.7970   34.7990   45.5560 C   0  0  0  0  0  0  0  0  0  0  0  0
   59.1692   35.8203   45.3876 H   0  0  0  0  0  0  0  0  0  0  0  0
   59.6660   33.8150   46.0630 C   0  0  0  0  0  0  0  0  0  0  0  0
   61.0850   34.2070   46.3820 C   0  0  0  0  0  0  0  0  0  0  0  0
   61.2187   34.2439   47.4732 H   0  0  0  0  0  0  0  0  0  0  0  0
   61.7754   33.4659   45.9529 H   0  0  0  0  0  0  0  0  0  0  0  0
   61.2971   35.1974   45.9529 H   0  0  0  0  0  0  0  0  0  0  0  0
  1  2  1  0
  2  3  1  0
  2  4  2  0
  4  5  1  0
  5  6  2  0
  6  7  1  0
  6  8  1  0
  8  9  1  0
  9 10  1  0
 10 11  2  0
 10 12  1  0
 12 13  1  0
 13 14  1  0
  5 15  1  0
 15 16  1  0
 15 17  2  0
 17 18  1  0
 18 19  2  0
 18 20  1  0
 20 21  1  0
 21 22  1  0
 21 23  1  0
 21 24  1  0
 24 25  2  0
 25 26  1  0
 25 27  1  0
 27 28  1  0
 27 29  2  0
 29 30  1  0
 30 31  1  0
 30 32  2  0
 32 33  1  0
 17 34  1  0
 34 35  1  0
 35 36  1  0
 35 37  1  0
 35 38  1  0
 38 39  2  0
 39 40  1  0
 39 41  1  0
 41 42  1  0
 41 43  2  0
 43 44  1  0
 43 45  1  0
 45 46  1  0
 45 47  2  0
 47 48  1  0
 48 49  1  0
 48 50  1  0
 48 51  1  0
 34  4  1  0
 47 38  1  0
 13  8  2  0
 32 24  1  0
M  CHG  4   9  -1  12  -1  14  -1  20  -1
M  END
>  <UniqueID>  (64) 
63

>  <SMILES>  (64) 
C=c1/c(=C\c2[n-]c(=O)[n-]c2[O-])cc(C(=O)[N-]Cc2ccncc2)n1Cc1ccccc1C

>  <Energy>  (64) 
128.59091908910796

>  <Genealogy>  (64) 
C=c1c(=Cc2[n-]c(=O)[n-]c2[O-])cc(C(=O)[N-]Cc2ccncc2)n1Cc1ccccc1C (protonated)
C=c1/c(=C\c2[n-]c(=O)[n-]c2[O-])cc(C(=O)[N-]Cc2ccncc2)n1Cc1ccccc1C (cis-trans isomerization)
C=c1/c(=C\c2[n-]c(=O)[n-]c2[O-])cc(C(=O)[N-]Cc2ccncc2)n1Cc1ccccc1C (3D coordinates assigned)
C=c1/c(=C\c2[n-]c(=O)[n-]c2[O-])cc(C(=O)[N-]Cc2ccncc2)n1Cc1ccccc1C (optimized conformer: 128.59091908910796 kcal/mol)

>  <smiles>  (64) 
C=c1c(=Cc2[nH]c(=O)[nH]c2O)cc(C(=O)NCc2ccncc2)n1Cc1ccccc1C

>  <score_type>  (64) 
oracle

>  <origin>  (64) 
adg

>  <m_score__min__energy>  (64) 
-17.34

>  <m_primary>  (64) 
energy

$$$$
64:0
     RDKit          3D

 63 66  0  0  0  0  0  0  0  0999 V2000
   54.7860   27.0720   44.9630 H   0  0  0  0  0  0  0  0  0  0  0  0
   54.7250   26.3350   45.6550 O   0  0  0  0  0  0  0  0  0  0  0  0
   55.6450   25.2870   45.7070 C   0  0  0  0  0  0  0  0  0  0  0  0
   56.9230   25.4040   46.2640 C   0  0  0  0  0  0  0  0  0  0  0  0
   58.8100   29.1830   47.9570 C   0  0  0  0  0  0  0  0  0  0  0  0
   58.1166   29.0463   48.7999 H   0  0  0  0  0  0  0  0  0  0  0  0
   58.2790   28.9920   46.7230 C   0  0  0  0  0  0  0  0  0  0  0  0
   57.5840   27.8270   46.2950 C   0  0  0  0  0  0  0  0  0  0  0  0
   57.5240   26.6040   46.8640 C   0  0  0  0  0  0  0  0  0  0  0  0
   57.9642   26.4959   47.8662 H   0  0  0  0  0  0  0  0  0  0  0  0
   60.2210   29.5570   48.3280 C   0  0  0  0  0  0  0  0  0  0  0  0
   60.7412   29.9244   47.4311 H   0  0  0  0  0  0  0  0  0  0  0  0
   60.7207   28.6639   48.7314 H   0  0  0  0  0  0  0  0  0  0  0  0
   60.2470   30.6520   49.4040 C   0  0  0  0  0  0  0  0  0  0  0  0
   60.0874   30.1892   50.3891 H   0  0  0  0  0  0  0  0  0  0  0  0
   59.4508   31.3768   49.1787 H   0  0  0  0  0  0  0  0  0  0  0  0
   61.5430   31.3720   49.4140 N   0  0  0  0  0  0  0  0  0  0  0  0
   62.2580   31.2670   48.1170 C   0  0  0  0  0  0  0  0  0  0  0  0
   61.8866   30.3741   47.5929 H   0  0  0  0  0  0  0  0  0  0  0  0
   63.3300   31.2146   48.3579 H   0  0  0  0  0  0  0  0  0  0  0  0
   62.0820   32.4830   47.1790 C   0  0  0  0  0  0  0  0  0  0  0  0
   62.0431   32.1254   46.1395 H   0  0  0  0  0  0  0  0  0  0  0  0
   62.9353   33.1585   47.3392 H   0  0  0  0  0  0  0  0  0  0  0  0
   60.8520   33.2350   47.4670 N   0  0  0  0  0  0  0  0  0  0  0  0
   60.1400   33.8770   46.3860 C   0  0  0  0  0  0  0  0  0  0  0  0
   60.7020   34.0120   45.2620 O   0  0  0  0  0  0  0  0  0  0  0  0
   58.7580   34.4480   46.5960 C   0  0  0  0  0  0  0  0  0  0  0  0
   58.8519   35.4245   47.0936 H   0  0  0  0  0  0  0  0  0  0  0  0
   58.1914   33.7330   47.2106 H   0  0  0  0  0  0  0  0  0  0  0  0
   58.0070   34.6350   45.3030 C   0  0  0  0  0  0  0  0  0  0  0  0
   58.5596   34.9300   44.3988 H   0  0  0  0  0  0  0  0  0  0  0  0
   56.6860   34.4510   45.2290 C   0  0  0  0  0  0  0  0  0  0  0  0
   56.1635   34.5945   44.2717 H   0  0  0  0  0  0  0  0  0  0  0  0
   56.1207   34.1559   46.1253 H   0  0  0  0  0  0  0  0  0  0  0  0
   60.5260   33.5720   48.8590 C   0  0  0  0  0  0  0  0  0  0  0  0
   59.4678   33.3372   49.0463 H   0  0  0  0  0  0  0  0  0  0  0  0
   60.7191   34.6441   49.0115 H   0  0  0  0  0  0  0  0  0  0  0  0
   61.3960   32.7780   49.8420 C   0  0  0  0  0  0  0  0  0  0  0  0
   60.9266   32.8026   50.8365 H   0  0  0  0  0  0  0  0  0  0  0  0
   62.3947   33.2381   49.8715 H   0  0  0  0  0  0  0  0  0  0  0  0
   58.1220   29.9040   45.6620 C   0  0  0  0  0  0  0  0  0  0  0  0
   58.6220   31.1920   45.4070 C   0  0  0  0  0  0  0  0  0  0  0  0
   59.2956   31.6832   46.1246 H   0  0  0  0  0  0  0  0  0  0  0  0
   58.2460   31.8420   44.2180 C   0  0  0  0  0  0  0  0  0  0  0  0
   58.6214   32.8545   44.0083 H   0  0  0  0  0  0  0  0  0  0  0  0
   57.3950   31.2100   43.2950 C   0  0  0  0  0  0  0  0  0  0  0  0
   57.1028   31.7313   42.3715 H   0  0  0  0  0  0  0  0  0  0  0  0
   56.9180   29.9170   43.5490 C   0  0  0  0  0  0  0  0  0  0  0  0
   56.2594   29.4064   42.8310 H   0  0  0  0  0  0  0  0  0  0  0  0
   57.3010   29.2960   44.7360 C   0  0  0  0  0  0  0  0  0  0  0  0
   56.9610   28.0590   45.1170 N   0  0  0  0  0  0  0  0  0  0  0  0
   56.3800   27.3850   44.5700 H   0  0  0  0  0  0  0  0  0  0  0  0
   57.6500   23.8850   46.2530 S   0  0  0  0  0  0  0  0  0  0  0  0
   56.3420   23.1600   45.4850 C   0  0  0  0  0  0  0  0  0  0  0  0
   56.2910   21.9390   45.1810 O   0  0  0  0  0  0  0  0  0  0  0  0
   55.3430   24.0420   45.2390 N   0  0  0  0  0  0  0  0  0  0  0  0
   54.0620   23.6890   44.6180 C   0  0  0  0  0  0  0  0  0  0  0  0
   53.8314   24.4154   43.8248 H   0  0  0  0  0  0  0  0  0  0  0  0
   54.1382   22.6771   44.1935 H   0  0  0  0  0  0  0  0  0  0  0  0
   52.9460   23.7070   45.6550 C   0  0  0  0  0  0  0  0  0  0  0  0
   53.3832   23.6999   46.6643 H   0  0  0  0  0  0  0  0  0  0  0  0
   52.3390   24.6151   45.5247 H   0  0  0  0  0  0  0  0  0  0  0  0
   52.3100   22.8190   45.5247 H   0  0  0  0  0  0  0  0  0  0  0  0
  1  2  1  0
  2  3  1  0
  3  4  2  0
  4  5  1  0
  5  6  1  0
  5  7  2  0
  7  8  1  0
  8  9  2  0
  9 10  1  0
  9 11  1  0
 11 12  1  0
 11 13  1  0
 11 14  1  0
 14 15  1  0
 14 16  1  0
 14 17  1  0
 17 18  1  0
 18 19  1  0
 18 20  1  0
 18 21  1  0
 21 22  1  0
 21 23  1  0
 21 24  1  0
 24 25  1  0
 25 26  2  0
 25 27  1  0
 27 28  1  0
 27 29  1  0
 27 30  1  0
 30 31  1  0
 30 32  2  0
 32 33  1  0
 32 34  1  0
 24 35  1  0
 35 36  1  0
 35 37  1  0
 35 38  1  0
 38 39  1  0
 38 40  1  0
  8 41  1  0
 41 42  2  0
 42 43  1  0
 42 44  1  0
 44 45  1  0
 44 46  2  0
 46 47  1  0
 46 48  1  0
 48 49  1  0
 48 50  2  0
 50 51  1  0
 51 52  1  0
  4 53  1  0
 53 54  1  0
 54 55  2  0
 54 56  1  0
 56 57  1  0
 57 58  1  0
 57 59  1  0
 57 60  1  0
 60 61  1  0
 60 62  1  0
 60 63  1  0
 56  3  1  0
 51  7  1  0
 38 17  1  0
 50 41  1  0
M  END
>  <UniqueID>  (65) 
64

>  <SMILES>  (65) 
C=CCC(=O)N1CCN(CC/C=c2/c(=Cc3sc(=O)n(CC)c3O)[nH]c3ccccc23)CC1

>  <Energy>  (65) 
152.68746476096484

>  <Genealogy>  (65) 
C=CCC(=O)N1CCN(CC/C=c2/c(=Cc3sc(=O)n(CC)c3O)[nH]c3ccccc23)CC1 (cis-trans isomerization)
C=CCC(=O)N1CCN(CC/C=c2/c(=Cc3sc(=O)n(CC)c3O)[nH]c3ccccc23)CC1 (3D coordinates assigned)
C=CCC(=O)N1CCN(CC/C=c2/c(=Cc3sc(=O)n(CC)c3O)[nH]c3ccccc23)CC1 (nonaromatic ring conformer: 152.68746476096484 kcal/mol)

>  <smiles>  (65) 
C=CCC(=O)N1CCN(CCC=c2c(=Cc3sc(=O)n(CC)c3O)[nH]c3ccccc23)CC1

>  <score_type>  (65) 
oracle

>  <origin>  (65) 
adg

>  <m_score__min__energy>  (65) 
-10.18

>  <m_primary>  (65) 
energy

$$$$
65:0
     RDKit          3D

 50 52  0  0  0  0  0  0  0  0999 V2000
   57.1340   20.7190   44.4530 C   0  0  0  0  0  0  0  0  0  0  0  0
   57.3980   22.1500   44.5890 N   0  0  0  0  0  0  0  0  0  0  0  0
   58.6860   22.6460   45.0070 C   0  0  0  0  0  0  0  0  0  0  0  0
   59.8460   21.8150   44.9220 N   0  0  0  0  0  0  0  0  0  0  0  0
   58.8300   23.8650   45.4490 N   0  0  0  0  0  0  0  0  0  0  0  0
   57.7770   24.8680   45.6880 C   0  0  1  0  0  0  0  0  0  0  0  0
   57.0500   24.4990   47.0010 C   0  0  0  0  0  0  0  0  0  0  0  0
   58.4090   26.2600   45.8440 C   0  0  0  0  0  0  0  0  0  0  0  0
   59.3870   26.5280   46.8280 C   0  0  0  0  0  0  0  0  0  0  0  0
   59.9580   27.7980   46.9400 C   0  0  0  0  0  0  0  0  0  0  0  0
   59.5670   28.8230   46.0820 C   0  0  0  0  0  0  0  0  0  0  0  0
   58.5900   28.5920   45.1020 C   0  0  0  0  0  0  0  0  0  0  0  0
   58.1960   29.6240   44.1800 N   0  0  0  0  0  0  0  0  0  0  0  0
   56.9200   30.2760   44.2010 C   0  0  0  0  0  0  0  0  0  0  0  0
   55.9590   29.7910   44.8620 O   0  0  0  0  0  0  0  0  0  0  0  0
   56.7310   31.4690   43.4360 N   0  0  0  0  0  0  0  0  0  0  0  0
   57.7660   32.4820   43.2820 C   0  0  0  0  0  0  0  0  0  0  0  0
   58.0160   33.1450   44.6070 C   0  0  0  0  0  0  0  0  0  0  0  0
   57.1920   32.8450   45.7050 C   0  0  0  0  0  0  0  0  0  0  0  0
   57.4390   33.4290   46.9530 C   0  0  0  0  0  0  0  0  0  0  0  0
   58.5130   34.3080   47.1150 C   0  0  0  0  0  0  0  0  0  0  0  0
   59.3480   34.6010   46.0320 C   0  0  0  0  0  0  0  0  0  0  0  0
   59.1070   34.0180   44.7820 C   0  0  0  0  0  0  0  0  0  0  0  0
   59.9370   34.3050   43.7470 F   0  0  0  0  0  0  0  0  0  0  0  0
   58.0340   27.3110   44.9770 C   0  0  0  0  0  0  0  0  0  0  0  0
   56.7960   24.9040   44.4900 C   0  0  0  0  0  0  0  0  0  0  0  0
   56.1630   23.2790   44.1490 S   0  0  0  0  0  0  0  0  0  0  0  0
   54.9240   23.0330   44.9640 O   0  0  0  0  0  0  0  0  0  0  0  0
   55.8480   23.1530   42.6850 O   0  0  0  0  0  0  0  0  0  0  0  0
   57.0503   20.2651   45.4515 H   0  0  0  0  0  0  0  0  0  0  0  0
   56.1933   20.5704   43.9026 H   0  0  0  0  0  0  0  0  0  0  0  0
   57.9598   20.2445   43.9026 H   0  0  0  0  0  0  0  0  0  0  0  0
   60.7800   22.1890   45.2010 H   0  0  0  0  0  0  0  0  0  0  0  0
   59.7970   20.8280   44.5880 H   0  0  0  0  0  0  0  0  0  0  0  0
   57.6632   24.8102   47.8596 H   0  0  0  0  0  0  0  0  0  0  0  0
   56.0782   25.0130   47.0390 H   0  0  0  0  0  0  0  0  0  0  0  0
   56.8912   23.4112   47.0390 H   0  0  0  0  0  0  0  0  0  0  0  0
   59.7023   25.7276   47.5135 H   0  0  0  0  0  0  0  0  0  0  0  0
   60.7202   27.9894   47.7097 H   0  0  0  0  0  0  0  0  0  0  0  0
   60.0264   29.8183   46.1731 H   0  0  0  0  0  0  0  0  0  0  0  0
   58.8480   29.8670   43.4000 H   0  0  0  0  0  0  0  0  0  0  0  0
   58.6934   32.0083   42.9278 H   0  0  0  0  0  0  0  0  0  0  0  0
   57.4375   33.2349   42.5504 H   0  0  0  0  0  0  0  0  0  0  0  0
   56.3494   32.1484   45.5833 H   0  0  0  0  0  0  0  0  0  0  0  0
   56.7866   33.1956   47.8074 H   0  0  0  0  0  0  0  0  0  0  0  0
   58.7019   34.7700   48.0953 H   0  0  0  0  0  0  0  0  0  0  0  0
   60.1952   35.2904   46.1624 H   0  0  0  0  0  0  0  0  0  0  0  0
   57.2912   27.1203   44.1884 H   0  0  0  0  0  0  0  0  0  0  0  0
   55.9581   25.5753   44.7293 H   0  0  0  0  0  0  0  0  0  0  0  0
   57.3343   25.2678   43.6024 H   0  0  0  0  0  0  0  0  0  0  0  0
  1  2  1  0
  2  3  1  0
  3  4  1  0
  3  5  2  0
  5  6  1  0
  6  7  1  1
  6  8  1  0
  8  9  2  0
  9 10  1  0
 10 11  2  0
 11 12  1  0
 12 13  1  0
 13 14  1  0
 14 15  2  0
 14 16  1  0
 16 17  1  0
 17 18  1  0
 18 19  2  0
 19 20  1  0
 20 21  2  0
 21 22  1  0
 22 23  2  0
 23 24  1  0
 12 25  2  0
  6 26  1  0
 26 27  1  0
 27 28  2  0
 27 29  2  0
 27  2  1  0
 25  8  1  0
 23 18  1  0
  1 30  1  0
  1 31  1  0
  1 32  1  0
  4 33  1  0
  4 34  1  0
  7 35  1  0
  7 36  1  0
  7 37  1  0
  9 38  1  0
 10 39  1  0
 11 40  1  0
 13 41  1  0
 17 42  1  0
 17 43  1  0
 19 44  1  0
 20 45  1  0
 21 46  1  0
 22 47  1  0
 25 48  1  0
 26 49  1  0
 26 50  1  0
M  CHG  1  16  -1
M  END
>  <UniqueID>  (66) 
65

>  <SMILES>  (66) 
CN1C(N)=N[C@@](C)(c2cccc(NC(=O)[N-]Cc3ccccc3F)c2)CS1(=O)=O

>  <Energy>  (66) 
54.42958548425464

>  <Genealogy>  (66) 
CN1C(N)=NC(C)(c2cccc(NC(=O)[N-]Cc3ccccc3F)c2)CS1(=O)=O (protonated)
CN1C(N)=N[C@@](C)(c2cccc(NC(=O)[N-]Cc3ccccc3F)c2)CS1(=O)=O (chirality)
CN1C(N)=N[C@@](C)(c2cccc(NC(=O)[N-]Cc3ccccc3F)c2)CS1(=O)=O (3D coordinates assigned)
CN1C(N)=N[C@@](C)(c2cccc(NC(=O)[N-]Cc3ccccc3F)c2)CS1(=O)=O (nonaromatic ring conformer: 54.42958548425464 kcal/mol)

>  <smiles>  (66) 
CN1C(N)=NC(C)(c2cccc(NC(=O)NCc3ccccc3F)c2)CS1(=O)=O

>  <score_type>  (66) 
oracle

>  <origin>  (66) 
adg

>  <m_score__min__energy>  (66) 
-11.369999999999999

>  <m_primary>  (66) 
energy

$$$$
66:0
     RDKit          3D

 38 40  0  0  1  0  0  0  0  0999 V2000
   56.3300   30.6030   43.2490 O   0  0  0  0  0  0  0  0  0  0  0  0
   56.3050   29.7380   44.1640 C   0  0  0  0  0  0  0  0  0  0  0  0
   55.1300   29.0990   44.5390 O   0  0  0  0  0  0  0  0  0  0  0  0
   57.5580   29.4060   44.8440 C   0  0  0  0  0  0  0  0  0  0  0  0
   57.8410   28.0640   45.0310 C   0  0  0  0  0  0  0  0  0  0  0  0
   59.0210   27.7530   45.6720 C   0  0  0  0  0  0  0  0  0  0  0  0
   59.8660   28.7490   46.0990 C   0  0  0  0  0  0  0  0  0  0  0  0
   59.5850   30.1030   45.9130 C   0  0  0  0  0  0  0  0  0  0  0  0
   60.5050   31.1340   46.3790 C   0  0  0  0  0  0  0  0  0  0  0  0
   60.9100   31.2500   47.5840 N   0  0  0  0  0  0  0  0  0  0  0  0
   61.6370   32.3800   48.0370 N   0  0  0  0  0  0  0  0  0  0  0  0
   61.1110   33.5210   48.5040 C   0  0  0  0  0  0  0  0  0  0  0  0
   59.6760   33.8080   48.6300 C   0  0  0  0  0  0  0  0  0  0  0  0
   59.0000   33.9190   47.3050 C   0  0  0  0  0  0  0  0  0  0  0  0
   57.7500   33.4050   47.1160 C   0  0  0  0  0  0  0  0  0  0  0  0
   57.0600   33.4640   45.9350 C   0  0  0  0  0  0  0  0  0  0  0  0
   57.6880   34.0920   44.8550 C   0  0  0  0  0  0  0  0  0  0  0  0
   58.9530   34.6240   45.0040 C   0  0  0  0  0  0  0  0  0  0  0  0
   59.6090   34.5400   46.2190 C   0  0  0  0  0  0  0  0  0  0  0  0
   62.1310   34.3360   48.8280 N   0  0  0  0  0  0  0  0  0  0  0  0
   63.2780   33.7250   48.5720 N   0  0  0  0  0  0  0  0  0  0  0  0
   62.9770   32.5080   48.0800 C   0  0  0  0  0  0  0  0  0  0  0  0
   63.7790   31.6200   47.7130 O   0  0  0  0  0  0  0  0  0  0  0  0
   58.4080   30.4050   45.2740 C   0  0  0  0  0  0  0  0  0  0  0  0
   55.1730   28.1430   44.9150 H   0  0  0  0  0  0  0  0  0  0  0  0
   57.1535   27.2791   44.6829 H   0  0  0  0  0  0  0  0  0  0  0  0
   59.2882   26.6997   45.8430 H   0  0  0  0  0  0  0  0  0  0  0  0
   60.8002   28.4679   46.6072 H   0  0  0  0  0  0  0  0  0  0  0  0
   60.8753   31.8615   45.6417 H   0  0  0  0  0  0  0  0  0  0  0  0
   59.2022   32.9962   49.2014 H   0  0  0  0  0  0  0  0  0  0  0  0
   59.5712   34.7758   49.1422 H   0  0  0  0  0  0  0  0  0  0  0  0
   57.2642   32.9101   47.9699 H   0  0  0  0  0  0  0  0  0  0  0  0
   56.0518   33.0345   45.8395 H   0  0  0  0  0  0  0  0  0  0  0  0
   57.1733   34.1622   43.8854 H   0  0  0  0  0  0  0  0  0  0  0  0
   59.4424   35.1177   44.1515 H   0  0  0  0  0  0  0  0  0  0  0  0
   60.6172   34.9663   46.3271 H   0  0  0  0  0  0  0  0  0  0  0  0
   64.2530   34.0990   48.7170 H   0  0  0  0  0  0  0  0  0  0  0  0
   58.1386   31.4576   45.1023 H   0  0  0  0  0  0  0  0  0  0  0  0
  1  2  2  0
  2  3  1  0
  2  4  1  0
  4  5  2  0
  5  6  1  0
  6  7  2  0
  7  8  1  0
  8  9  1  0
  9 10  2  0
 10 11  1  0
 11 12  1  0
 12 13  1  0
 13 14  1  0
 14 15  2  0
 15 16  1  0
 16 17  2  0
 17 18  1  0
 18 19  2  0
 12 20  2  0
 20 21  1  0
 21 22  1  0
 22 23  2  0
  8 24  2  0
 24  4  1  0
 22 11  1  0
 19 14  1  0
  3 25  1  0
  5 26  1  0
  6 27  1  0
  7 28  1  0
  9 29  1  0
 13 30  1  0
 13 31  1  0
 15 32  1  0
 16 33  1  0
 17 34  1  0
 18 35  1  0
 19 36  1  0
 21 37  1  0
 24 38  1  0
M  END
>  <smiles>  (67) 
O=C(O)c1cccc(C=Nn2c(Cc3ccccc3)n[nH]c2=O)c1

>  <score_type>  (67) 
oracle

>  <origin>  (67) 
adg

>  <m_score__min__energy>  (67) 
-9.6899999999999995

>  <m_primary>  (67) 
energy

$$$$
67:0
     RDKit          3D

 59 62  0  0  0  0  0  0  0  0999 V2000
   58.6450   26.8820   44.8410 C   0  0  0  0  0  0  0  0  0  0  0  0
   57.8850   25.9560   45.7940 C   0  0  1  0  0  0  0  0  0  0  0  0
   57.7430   26.6240   47.0510 O   0  0  0  0  0  0  0  0  0  0  0  0
   58.7270   27.3790   47.7070 C   0  0  0  0  0  0  0  0  0  0  0  0
   59.8430   26.8030   48.3480 C   0  0  0  0  0  0  0  0  0  0  0  0
   60.7830   27.6150   48.9950 C   0  0  0  0  0  0  0  0  0  0  0  0
   60.6150   29.0020   49.0270 C   0  0  0  0  0  0  0  0  0  0  0  0
   61.5430   29.7920   49.7220 O   0  0  0  0  0  0  0  0  0  0  0  0
   61.5920   31.1940   49.6600 C   0  0  0  0  0  0  0  0  0  0  0  0
   61.7820   31.9270   50.8350 C   0  0  0  0  0  0  0  0  0  0  0  0
   61.8310   33.3210   50.7730 C   0  0  0  0  0  0  0  0  0  0  0  0
   61.6710   33.9610   49.5850 N   0  0  0  0  0  0  0  0  0  0  0  0
   61.4560   33.2890   48.4230 C   0  0  0  0  0  0  0  0  0  0  0  0
   61.3030   33.9750   47.3210 N   0  0  0  0  0  0  0  0  0  0  0  0
   60.0660   34.4850   46.7940 C   0  0  0  0  0  0  0  0  0  0  0  0
   59.6950   35.6440   47.1140 O   0  0  0  0  0  0  0  0  0  0  0  0
   59.2070   33.6580   45.9210 C   0  0  0  0  0  0  0  0  0  0  0  0
   59.0920   32.2800   46.1470 C   0  0  0  0  0  0  0  0  0  0  0  0
   58.3440   31.4850   45.2780 C   0  0  0  0  0  0  0  0  0  0  0  0
   57.7360   32.0420   44.1490 C   0  0  0  0  0  0  0  0  0  0  0  0
   57.0310   31.1870   43.2920 O   0  0  0  0  0  0  0  0  0  0  0  0
   56.9480   29.7660   43.4230 C   0  0  0  0  0  0  0  0  0  0  0  0
   58.1970   29.2060   43.6190 F   0  0  0  0  0  0  0  0  0  0  0  0
   56.4170   29.2390   42.2630 F   0  0  0  0  0  0  0  0  0  0  0  0
   55.8640   29.3420   44.7740 Cl  0  0  0  0  0  0  0  0  0  0  0  0
   57.8480   33.4270   43.9210 C   0  0  0  0  0  0  0  0  0  0  0  0
   58.5640   34.2310   44.8140 C   0  0  0  0  0  0  0  0  0  0  0  0
   61.4260   31.8810   48.4480 C   0  0  0  0  0  0  0  0  0  0  0  0
   59.5270   29.5800   48.3540 C   0  0  0  0  0  0  0  0  0  0  0  0
   58.5920   28.7720   47.7050 C   0  0  0  0  0  0  0  0  0  0  0  0
   56.5210   25.5260   45.2730 C   0  0  0  0  0  0  0  0  0  0  0  0
   55.5500   25.7030   45.9970 O   0  0  0  0  0  0  0  0  0  0  0  0
   56.3650   24.8210   44.0070 N   0  0  2  0  0  0  0  0  0  0  0  0
   55.3050   23.7990   43.9900 C   0  0  0  0  0  0  0  0  0  0  0  0
   56.3090   22.6610   43.8220 C   0  0  1  0  0  0  0  0  0  0  0  0
   56.2220   21.9850   42.5910 O   0  0  0  0  0  0  0  0  0  0  0  0
   57.3700   23.7560   43.8380 C   0  0  0  0  0  0  0  0  0  0  0  0
   59.2367   27.6029   45.4243 H   0  0  0  0  0  0  0  0  0  0  0  0
   59.3165   26.2845   44.2069 H   0  0  0  0  0  0  0  0  0  0  0  0
   57.9280   27.4241   44.2069 H   0  0  0  0  0  0  0  0  0  0  0  0
   58.4702   25.0301   45.8951 H   0  0  0  0  0  0  0  0  0  0  0  0
   59.9759   25.7111   48.3399 H   0  0  0  0  0  0  0  0  0  0  0  0
   61.6582   27.1586   49.4805 H   0  0  0  0  0  0  0  0  0  0  0  0
   61.8919   31.4102   51.7998 H   0  0  0  0  0  0  0  0  0  0  0  0
   62.0000   33.9040   51.6903 H   0  0  0  0  0  0  0  0  0  0  0  0
   59.5934   31.8231   47.0129 H   0  0  0  0  0  0  0  0  0  0  0  0
   58.2316   30.4101   45.4831 H   0  0  0  0  0  0  0  0  0  0  0  0
   57.3711   33.8779   43.0382 H   0  0  0  0  0  0  0  0  0  0  0  0
   58.6230   35.3167   44.6475 H   0  0  0  0  0  0  0  0  0  0  0  0
   61.2721   31.3188   47.5152 H   0  0  0  0  0  0  0  0  0  0  0  0
   59.4109   30.6737   48.3381 H   0  0  0  0  0  0  0  0  0  0  0  0
   57.7397   29.2352   47.1863 H   0  0  0  0  0  0  0  0  0  0  0  0
   56.2930   25.4370   43.1640 H   0  0  0  0  0  0  0  0  0  0  0  0
   54.7329   23.7445   44.9279 H   0  0  0  0  0  0  0  0  0  0  0  0
   54.4823   23.8957   43.2663 H   0  0  0  0  0  0  0  0  0  0  0  0
   56.3299   21.7885   44.4915 H   0  0  0  0  0  0  0  0  0  0  0  0
   56.4800   22.6210   41.8710 H   0  0  0  0  0  0  0  0  0  0  0  0
   58.0705   23.6758   44.6823 H   0  0  0  0  0  0  0  0  0  0  0  0
   58.0811   23.8218   43.0013 H   0  0  0  0  0  0  0  0  0  0  0  0
  1  2  1  0
  2  3  1  0
  3  4  1  0
  4  5  2  0
  5  6  1  0
  6  7  2  0
  7  8  1  0
  8  9  1  0
  9 10  1  0
 10 11  2  0
 11 12  1  0
 12 13  1  0
 13 14  2  3
 14 15  1  0
 15 16  2  0
 15 17  1  0
 17 18  2  0
 18 19  1  0
 19 20  2  0
 20 21  1  0
 21 22  1  0
 22 23  1  0
 22 24  1  0
 22 25  1  0
 20 26  1  0
 26 27  2  0
 13 28  1  0
  7 29  1  0
 29 30  2  0
  2 31  1  0
 31 32  2  0
 31 33  1  0
 33 34  1  0
 34 35  1  0
 35 36  1  0
 35 37  1  0
 30  4  1  0
 37 33  1  0
 28  9  2  0
 27 17  1  0
  1 38  1  0
  1 39  1  0
  1 40  1  0
  2 41  1  1
  5 42  1  0
  6 43  1  0
 10 44  1  0
 11 45  1  0
 18 46  1  0
 19 47  1  0
 26 48  1  0
 27 49  1  0
 28 50  1  0
 29 51  1  0
 30 52  1  0
 33 53  1  6
 34 54  1  0
 34 55  1  0
 35 56  1  1
 36 57  1  0
 37 58  1  0
 37 59  1  0
M  CHG  2  12  -1  33   1
M  END
>  <UniqueID>  (68) 
66

>  <SMILES>  (68) 
C[C@@H](Oc1ccc(Oc2cc[n-]c(=NC(=O)c3ccc(OC(F)(F)Cl)cc3)c2)cc1)C(=O)[NH+]1CC(O)C1

>  <Energy>  (68) 
159.3426935130509

>  <Genealogy>  (68) 
CC(Oc1ccc(Oc2cc[n-]c(=NC(=O)c3ccc(OC(F)(F)Cl)cc3)c2)cc1)C(=O)[NH+]1CC(O)C1 (protonated)
C[C@@H](Oc1ccc(Oc2cc[n-]c(=NC(=O)c3ccc(OC(F)(F)Cl)cc3)c2)cc1)C(=O)[NH+]1CC(O)C1 (chirality)
C[C@@H](Oc1ccc(Oc2cc[n-]c(=NC(=O)c3ccc(OC(F)(F)Cl)cc3)c2)cc1)C(=O)[NH+]1CC(O)C1 (3D coordinates assigned)
C[C@@H](Oc1ccc(Oc2cc[n-]c(=NC(=O)c3ccc(OC(F)(F)Cl)cc3)c2)cc1)C(=O)[NH+]1CC(O)C1 (nonaromatic ring conformer: 159.3426935130509 kcal/mol)

>  <smiles>  (68) 
CC(Oc1ccc(Oc2cc[nH]c(=NC(=O)c3ccc(OC(F)(F)Cl)cc3)c2)cc1)C(=O)N1CC(O)C1

>  <score_type>  (68) 
oracle

>  <origin>  (68) 
adg

>  <m_score__min__energy>  (68) 
-8.0299999999999994

>  <m_primary>  (68) 
energy

$$$$
68:0
     RDKit          3D

 45 48  0  0  0  0  0  0  0  0999 V2000
   57.9690   30.7520   50.3930 H   0  0  0  0  0  0  0  0  0  0  0  0
   57.5230   29.9750   50.8660 O   0  0  0  0  0  0  0  0  0  0  0  0
   58.1020   29.3680   51.9800 C   0  0  0  0  0  0  0  0  0  0  0  0
   59.4790   29.1010   52.0030 C   0  0  0  0  0  0  0  0  0  0  0  0
   60.1050   29.3899   51.1459 H   0  0  0  0  0  0  0  0  0  0  0  0
   60.0650   28.4680   53.1110 C   0  0  0  0  0  0  0  0  0  0  0  0
   61.5150   28.1800   53.1470 C   0  0  0  0  0  0  0  0  0  0  0  0
   62.2900   28.9740   53.7450 O   0  0  0  0  0  0  0  0  0  0  0  0
   62.0590   26.9950   52.5590 N   0  0  0  0  0  0  0  0  0  0  0  0
   63.3960   26.3860   52.4530 C   0  0  0  0  0  0  0  0  0  0  0  0
   64.0639   26.9439   51.7802 H   0  0  0  0  0  0  0  0  0  0  0  0
   63.9953   26.3331   53.3739 H   0  0  0  0  0  0  0  0  0  0  0  0
   62.9390   25.0930   51.8670 C   0  0  0  0  0  0  0  0  0  0  0  0
   63.2871   24.8858   50.8443 H   0  0  0  0  0  0  0  0  0  0  0  0
   63.1900   24.1065   52.2840 H   0  0  0  0  0  0  0  0  0  0  0  0
   61.5920   25.7240   51.9730 C   0  0  0  0  0  0  0  0  0  0  0  0
   61.1089   25.8601   50.9942 H   0  0  0  0  0  0  0  0  0  0  0  0
   60.8218   25.1695   52.5292 H   0  0  0  0  0  0  0  0  0  0  0  0
   59.2590   28.1310   54.2110 C   0  0  0  0  0  0  0  0  0  0  0  0
   59.7105   27.6546   55.0937 H   0  0  0  0  0  0  0  0  0  0  0  0
   57.8880   28.3970   54.1910 C   0  0  0  0  0  0  0  0  0  0  0  0
   57.2641   28.1182   55.0530 H   0  0  0  0  0  0  0  0  0  0  0  0
   57.3030   29.0170   53.0790 C   0  0  0  0  0  0  0  0  0  0  0  0
   55.8910   29.2890   53.0760 N   0  0  0  0  0  0  0  0  0  0  0  0
   54.9180   28.4140   53.4090 C   0  0  0  0  0  0  0  0  0  0  0  0
   55.1470   26.9980   53.8440 C   0  0  0  0  0  0  0  0  0  0  0  0
   55.1550   26.9487   54.9429 H   0  0  0  0  0  0  0  0  0  0  0  0
   54.3404   26.3597   53.4542 H   0  0  0  0  0  0  0  0  0  0  0  0
   56.1137   26.6464   53.4542 H   0  0  0  0  0  0  0  0  0  0  0  0
   53.6820   29.0200   53.3330 C   0  0  0  0  0  0  0  0  0  0  0  0
   52.7123   28.5639   53.5812 H   0  0  0  0  0  0  0  0  0  0  0  0
   53.8950   30.3140   52.8840 C   0  0  0  0  0  0  0  0  0  0  0  0
   52.8890   31.1730   52.6290 C   0  0  0  0  0  0  0  0  0  0  0  0
   52.6408   31.9020   53.4145 H   0  0  0  0  0  0  0  0  0  0  0  0
   52.0940   31.2220   51.3940 C   0  0  0  0  0  0  0  0  0  0  0  0
   52.1780   30.3030   50.4170 N   0  0  0  0  0  0  0  0  0  0  0  0
   51.3890   30.8080   49.4440 C   0  0  0  0  0  0  0  0  0  0  0  0
   51.1970   30.2140   48.3520 O   0  0  0  0  0  0  0  0  0  0  0  0
   50.8330   32.0050   49.7280 N   0  0  0  0  0  0  0  0  0  0  0  0
   51.3010   32.2620   50.9600 C   0  0  0  0  0  0  0  0  0  0  0  0
   51.0310   33.4310   51.6600 O   0  0  0  0  0  0  0  0  0  0  0  0
   55.2880   30.4660   52.7720 C   0  0  0  0  0  0  0  0  0  0  0  0
   55.9680   31.6020   52.5500 C   0  0  0  0  0  0  0  0  0  0  0  0
   57.0658   31.5819   52.4838 H   0  0  0  0  0  0  0  0  0  0  0  0
   55.4274   32.5530   52.4343 H   0  0  0  0  0  0  0  0  0  0  0  0
  1  2  1  0
  2  3  1  0
  3  4  2  0
  4  5  1  0
  4  6  1  0
  6  7  1  0
  7  8  2  0
  7  9  1  0
  9 10  1  0
 10 11  1  0
 10 12  1  0
 10 13  1  0
 13 14  1  0
 13 15  1  0
 13 16  1  0
 16 17  1  0
 16 18  1  0
  6 19  2  0
 19 20  1  0
 19 21  1  0
 21 22  1  0
 21 23  2  0
 23 24  1  0
 24 25  1  0
 25 26  1  0
 26 27  1  0
 26 28  1  0
 26 29  1  0
 25 30  2  0
 30 31  1  0
 30 32  1  0
 32 33  2  0
 33 34  1  0
 33 35  1  0
 35 36  1  0
 36 37  1  0
 37 38  2  0
 37 39  1  0
 39 40  1  0
 40 41  1  0
 32 42  1  0
 42 43  2  0
 43 44  1  0
 43 45  1  0
 23  3  1  0
 42 24  1  0
 16  9  1  0
 40 35  2  0
M  CHG  3  36  -1  39  -1  41  -1
M  END
>  <UniqueID>  (69) 
67

>  <SMILES>  (69) 
C=c1/c(=C\c2[n-]c(=O)[n-]c2[O-])cc(C)n1-c1ccc(C(=O)N2CCC2)cc1O

>  <Energy>  (69) 
170.16262697050195

>  <Genealogy>  (69) 
C=c1c(=Cc2[n-]c(=O)[n-]c2[O-])cc(C)n1-c1ccc(C(=O)N2CCC2)cc1O (protonated)
C=c1/c(=C\c2[n-]c(=O)[n-]c2[O-])cc(C)n1-c1ccc(C(=O)N2CCC2)cc1O (cis-trans isomerization)
C=c1/c(=C\c2[n-]c(=O)[n-]c2[O-])cc(C)n1-c1ccc(C(=O)N2CCC2)cc1O (3D coordinates assigned)
C=c1/c(=C\c2[n-]c(=O)[n-]c2[O-])cc(C)n1-c1ccc(C(=O)N2CCC2)cc1O (nonaromatic ring conformer: 170.16262697050195 kcal/mol)

>  <smiles>  (69) 
C=c1c(=Cc2[nH]c(=O)[nH]c2O)cc(C)n1-c1ccc(C(=O)N2CCC2)cc1O

>  <score_type>  (69) 
oracle

>  <origin>  (69) 
adg

>  <m_score__min__energy>  (69) 
-15.74

>  <m_primary>  (69) 
energy

$$$$
69:0
     RDKit          3D

 59 62  0  0  0  0  0  0  0  0999 V2000
   56.7260   25.6130   46.6000 H   0  0  0  0  0  0  0  0  0  0  0  0
   57.6010   26.0930   46.7540 O   0  0  0  0  0  0  0  0  0  0  0  0
   57.8110   27.4280   46.4000 C   0  0  0  0  0  0  0  0  0  0  0  0
   56.7670   28.0970   45.7480 C   0  0  0  0  0  0  0  0  0  0  0  0
   55.5250   27.4850   45.6120 O   0  0  0  0  0  0  0  0  0  0  0  0
   56.9760   29.3580   45.1940 C   0  0  0  0  0  0  0  0  0  0  0  0
   56.1516   29.8884   44.6949 H   0  0  0  0  0  0  0  0  0  0  0  0
   58.2420   29.9430   45.2780 C   0  0  0  0  0  0  0  0  0  0  0  0
   58.5280   31.2680   44.6220 C   0  0  0  0  0  0  0  0  0  0  0  0
   59.5030   31.2040   44.1167 H   0  0  0  0  0  0  0  0  0  0  0  0
   57.7073   31.4659   43.9168 H   0  0  0  0  0  0  0  0  0  0  0  0
   58.5690   32.4510   45.6210 C   0  0  0  0  0  0  0  0  0  0  0  0
   59.4000   32.0230   47.1670 S   0  0  0  0  0  0  0  0  0  0  0  0
   59.6040   33.2800   47.9660 O   0  0  0  0  0  0  0  0  0  0  0  0
   58.5270   31.0890   47.9600 O   0  0  0  0  0  0  0  0  0  0  0  0
   61.0070   31.2610   46.9390 C   0  0  0  0  0  0  0  0  0  0  0  0
   60.9790   30.2456   47.3610 H   0  0  0  0  0  0  0  0  0  0  0  0
   61.2191   31.2448   45.8598 H   0  0  0  0  0  0  0  0  0  0  0  0
   62.1120   32.0330   47.6110 C   0  0  0  0  0  0  0  0  0  0  0  0
   62.6220   33.2030   47.0200 C   0  0  0  0  0  0  0  0  0  0  0  0
   62.2027   33.5637   46.0691 H   0  0  0  0  0  0  0  0  0  0  0  0
   63.6600   33.9100   47.6360 C   0  0  0  0  0  0  0  0  0  0  0  0
   64.0629   34.8175   47.1626 H   0  0  0  0  0  0  0  0  0  0  0  0
   64.1860   33.4650   48.8520 C   0  0  0  0  0  0  0  0  0  0  0  0
   65.0066   34.0190   49.3313 H   0  0  0  0  0  0  0  0  0  0  0  0
   63.6700   32.3160   49.4600 C   0  0  0  0  0  0  0  0  0  0  0  0
   64.0801   31.9706   50.4205 H   0  0  0  0  0  0  0  0  0  0  0  0
   62.6310   31.6050   48.8460 C   0  0  0  0  0  0  0  0  0  0  0  0
   62.2193   30.7081   49.3319 H   0  0  0  0  0  0  0  0  0  0  0  0
   59.1670   33.6810   44.9970 C   0  0  0  0  0  0  0  0  0  0  0  0
   60.2178   33.7770   44.6863 H   0  0  0  0  0  0  0  0  0  0  0  0
   58.2570   34.6310   44.8730 C   0  0  0  0  0  0  0  0  0  0  0  0
   58.4223   35.6194   44.4194 H   0  0  0  0  0  0  0  0  0  0  0  0
   57.0050   34.1590   45.4320 C   0  0  0  0  0  0  0  0  0  0  0  0
   56.0665   34.7315   45.4708 H   0  0  0  0  0  0  0  0  0  0  0  0
   57.1740   32.9280   45.8880 C   0  0  0  0  0  0  0  0  0  0  0  0
   56.3968   32.3362   46.3937 H   0  0  0  0  0  0  0  0  0  0  0  0
   59.2250   29.3110   45.9720 N   0  0  0  0  0  0  0  0  0  0  0  0
   59.0490   28.1080   46.5820 C   0  0  0  0  0  0  0  0  0  0  0  0
   60.0310   27.6670   47.3210 N   0  0  0  0  0  0  0  0  0  0  0  0
   60.2980   27.8790   48.7140 C   0  0  0  0  0  0  0  0  0  0  0  0
   60.7550   26.8140   49.4890 C   0  0  0  0  0  0  0  0  0  0  0  0
   60.8524   25.8145   49.0402 H   0  0  0  0  0  0  0  0  0  0  0  0
   61.0900   27.0070   50.8310 C   0  0  0  0  0  0  0  0  0  0  0  0
   61.4316   26.1551   51.4373 H   0  0  0  0  0  0  0  0  0  0  0  0
   60.9930   28.2850   51.4120 C   0  0  0  0  0  0  0  0  0  0  0  0
   61.3190   28.5200   52.7560 O   0  0  0  0  0  0  0  0  0  0  0  0
   62.4730   29.2350   53.1940 C   0  0  0  0  0  0  0  0  0  0  0  0
   62.4989   29.2511   54.2936 H   0  0  0  0  0  0  0  0  0  0  0  0
   63.3780   28.7392   52.8131 H   0  0  0  0  0  0  0  0  0  0  0  0
   62.4319   30.2661   52.8131 H   0  0  0  0  0  0  0  0  0  0  0  0
   60.5600   29.3700   50.6310 C   0  0  0  0  0  0  0  0  0  0  0  0
   60.4690   30.6350   51.2360 O   0  0  0  0  0  0  0  0  0  0  0  0
   59.5710   31.6620   50.8250 C   0  0  0  0  0  0  0  0  0  0  0  0
   59.1430   32.1515   51.7122 H   0  0  0  0  0  0  0  0  0  0  0  0
   60.1145   32.4049   50.2227 H   0  0  0  0  0  0  0  0  0  0  0  0
   58.7622   31.2225   50.2227 H   0  0  0  0  0  0  0  0  0  0  0  0
   60.2360   29.1660   49.2770 C   0  0  0  0  0  0  0  0  0  0  0  0
   59.9318   30.0200   48.6540 H   0  0  0  0  0  0  0  0  0  0  0  0
  1  2  1  0
  2  3  1  0
  3  4  2  0
  4  5  1  0
  4  6  1  0
  6  7  1  0
  6  8  2  0
  8  9  1  0
  9 10  1  0
  9 11  1  0
  9 12  1  0
 12 13  1  0
 13 14  2  0
 13 15  2  0
 13 16  1  0
 16 17  1  0
 16 18  1  0
 16 19  1  0
 19 20  2  0
 20 21  1  0
 20 22  1  0
 22 23  1  0
 22 24  2  0
 24 25  1  0
 24 26  1  0
 26 27  1  0
 26 28  2  0
 28 29  1  0
 12 30  1  0
 30 31  1  0
 30 32  2  0
 32 33  1  0
 32 34  1  0
 34 35  1  0
 34 36  2  0
 36 37  1  0
  8 38  1  0
 38 39  1  0
 39 40  2  0
 40 41  1  0
 41 42  2  0
 42 43  1  0
 42 44  1  0
 44 45  1  0
 44 46  2  0
 46 47  1  0
 47 48  1  0
 48 49  1  0
 48 50  1  0
 48 51  1  0
 46 52  1  0
 52 53  1  0
 53 54  1  0
 54 55  1  0
 54 56  1  0
 54 57  1  0
 52 58  2  0
 58 59  1  0
 39  3  1  0
 58 41  1  0
 36 12  1  0
 28 19  1  0
M  CHG  2   5  -1  38  -1
M  END
>  <UniqueID>  (70) 
68

>  <SMILES>  (70) 
COc1ccc(/N=c2/[n-]c(CC3(S(=O)(=O)Cc4ccccc4)C=CC=C3)cc([O-])c2O)cc1OC

>  <Energy>  (70) 
82.72439130438605

>  <Genealogy>  (70) 
COc1ccc(N=c2[n-]c(CC3(S(=O)(=O)Cc4ccccc4)C=CC=C3)cc([O-])c2O)cc1OC (protonated)
COc1ccc(/N=c2/[n-]c(CC3(S(=O)(=O)Cc4ccccc4)C=CC=C3)cc([O-])c2O)cc1OC (cis-trans isomerization)
COc1ccc(/N=c2/[n-]c(CC3(S(=O)(=O)Cc4ccccc4)C=CC=C3)cc([O-])c2O)cc1OC (3D coordinates assigned)
COc1ccc(/N=c2/[n-]c(CC3(S(=O)(=O)Cc4ccccc4)C=CC=C3)cc([O-])c2O)cc1OC (nonaromatic ring conformer: 82.72439130438605 kcal/mol)

>  <smiles>  (70) 
COc1ccc(N=c2[nH]c(CC3(S(=O)(=O)Cc4ccccc4)C=CC=C3)cc(O)c2O)cc1OC

>  <score_type>  (70) 
oracle

>  <origin>  (70) 
adg

>  <m_score__min__energy>  (70) 
-13.6

>  <m_primary>  (70) 
energy

$$$$
70:0
     RDKit          3D

 68 72  0  0  0  0  0  0  0  0999 V2000
   50.9715   25.3017   43.4991 H   0  0  0  0  0  0  0  0  0  0  0  0
   51.0200   24.4400   44.1810 C   0  0  0  0  0  0  0  0  0  0  0  0
   49.9050   23.6970   44.4160 N   0  0  0  0  0  0  0  0  0  0  0  0
   49.9270   22.6270   45.2540 C   0  0  0  0  0  0  0  0  0  0  0  0
   49.0088   22.0467   45.4276 H   0  0  0  0  0  0  0  0  0  0  0  0
   51.1130   22.2630   45.8950 C   0  0  0  0  0  0  0  0  0  0  0  0
   51.1288   21.4027   46.5804 H   0  0  0  0  0  0  0  0  0  0  0  0
   52.2860   23.0000   45.6610 C   0  0  0  0  0  0  0  0  0  0  0  0
   53.5560   22.6510   46.3440 C   0  0  0  0  0  0  0  0  0  0  0  0
   53.9190   23.3150   47.3500 O   0  0  0  0  0  0  0  0  0  0  0  0
   54.3600   21.5310   45.9370 N   0  0  0  0  0  0  0  0  0  0  0  0
   55.5260   21.5980   45.3610 C   0  0  0  0  0  0  0  0  0  0  0  0
   55.8600   20.7530   44.3440 N   0  0  0  0  0  0  0  0  0  0  0  0
   57.0640   20.8210   43.7180 C   0  0  0  0  0  0  0  0  0  0  0  0
   57.3025   20.1178   42.9065 H   0  0  0  0  0  0  0  0  0  0  0  0
   57.9990   21.7840   44.1050 C   0  0  0  0  0  0  0  0  0  0  0  0
   58.9781   21.8380   43.6065 H   0  0  0  0  0  0  0  0  0  0  0  0
   57.6790   22.6820   45.1350 C   0  0  0  0  0  0  0  0  0  0  0  0
   58.5870   23.6550   45.5770 O   0  0  0  0  0  0  0  0  0  0  0  0
   58.3740   25.0430   45.5380 C   0  0  0  0  0  0  0  0  0  0  0  0
   58.8010   25.8920   46.5740 C   0  0  0  0  0  0  0  0  0  0  0  0
   59.2991   25.4682   47.4585 H   0  0  0  0  0  0  0  0  0  0  0  0
   58.5960   27.2710   46.4860 C   0  0  0  0  0  0  0  0  0  0  0  0
   58.9358   27.9257   47.3020 H   0  0  0  0  0  0  0  0  0  0  0  0
   57.9610   27.8280   45.3670 C   0  0  0  0  0  0  0  0  0  0  0  0
   57.8100   29.2550   45.2850 N   0  0  0  0  0  0  0  0  0  0  0  0
   58.6080   29.8530   45.5990 H   0  0  0  0  0  0  0  0  0  0  0  0
   56.6050   29.9290   44.8870 C   0  0  0  0  0  0  0  0  0  0  0  0
   55.5050   29.3100   44.8570 O   0  0  0  0  0  0  0  0  0  0  0  0
   56.6530   31.3390   44.6420 N   0  0  0  0  0  0  0  0  0  0  0  0
   57.5270   32.2990   45.2510 C   0  0  0  0  0  0  0  0  0  0  0  0
   57.1840   33.6540   45.1910 C   0  0  0  0  0  0  0  0  0  0  0  0
   56.2767   33.9632   44.6513 H   0  0  0  0  0  0  0  0  0  0  0  0
   57.9610   34.5910   45.7930 N   0  0  0  0  0  0  0  0  0  0  0  0
   59.0870   34.2590   46.4820 C   0  0  0  0  0  0  0  0  0  0  0  0
   59.9010   35.3460   47.1150 C   0  0  0  0  0  0  0  0  0  0  0  0
   59.8376   35.2613   48.2099 H   0  0  0  0  0  0  0  0  0  0  0  0
   60.9504   35.2490   46.7999 H   0  0  0  0  0  0  0  0  0  0  0  0
   59.5126   36.3257   46.7999 H   0  0  0  0  0  0  0  0  0  0  0  0
   59.4730   32.9080   46.5740 C   0  0  0  0  0  0  0  0  0  0  0  0
   60.6540   32.5280   47.2900 N   0  0  0  0  0  0  0  0  0  0  0  0
   61.9580   33.0010   46.8260 C   0  0  0  0  0  0  0  0  0  0  0  0
   62.1075   32.6817   45.7840 H   0  0  0  0  0  0  0  0  0  0  0  0
   61.9807   34.0985   46.8973 H   0  0  0  0  0  0  0  0  0  0  0  0
   63.0870   32.4280   47.6950 C   0  0  0  0  0  0  0  0  0  0  0  0
   63.2386   31.3715   47.4289 H   0  0  0  0  0  0  0  0  0  0  0  0
   63.9947   33.0201   47.5065 H   0  0  0  0  0  0  0  0  0  0  0  0
   62.7750   32.5170   49.1390 N   0  0  0  0  0  0  0  0  0  0  0  0
   62.9120   33.8960   49.6400 C   0  0  0  0  0  0  0  0  0  0  0  0
   62.9112   33.8883   50.7400 H   0  0  0  0  0  0  0  0  0  0  0  0
   63.8573   34.3258   49.2770 H   0  0  0  0  0  0  0  0  0  0  0  0
   62.0698   34.5034   49.2770 H   0  0  0  0  0  0  0  0  0  0  0  0
   61.4720   31.9120   49.5290 C   0  0  0  0  0  0  0  0  0  0  0  0
   61.6758   31.0092   50.1235 H   0  0  0  0  0  0  0  0  0  0  0  0
   60.9243   32.6814   50.0929 H   0  0  0  0  0  0  0  0  0  0  0  0
   60.5760   31.5150   48.3420 C   0  0  0  0  0  0  0  0  0  0  0  0
   60.9120   30.5476   47.9406 H   0  0  0  0  0  0  0  0  0  0  0  0
   59.5349   31.4364   48.6884 H   0  0  0  0  0  0  0  0  0  0  0  0
   58.6800   31.9280   45.9640 C   0  0  0  0  0  0  0  0  0  0  0  0
   58.9597   30.8671   46.0430 H   0  0  0  0  0  0  0  0  0  0  0  0
   57.5600   26.9830   44.3180 C   0  0  0  0  0  0  0  0  0  0  0  0
   57.0837   27.4096   43.4229 H   0  0  0  0  0  0  0  0  0  0  0  0
   57.7640   25.6010   44.4070 C   0  0  0  0  0  0  0  0  0  0  0  0
   57.3630   24.7970   43.3880 F   0  0  0  0  0  0  0  0  0  0  0  0
   56.4370   22.5780   45.7710 C   0  0  0  0  0  0  0  0  0  0  0  0
   56.1775   23.2643   46.5906 H   0  0  0  0  0  0  0  0  0  0  0  0
   52.2270   24.1110   44.8040 C   0  0  0  0  0  0  0  0  0  0  0  0
   53.1259   24.7190   44.6241 H   0  0  0  0  0  0  0  0  0  0  0  0
  1  2  1  0
  2  3  2  0
  3  4  1  0
  4  5  1  0
  4  6  2  0
  6  7  1  0
  6  8  1  0
  8  9  1  0
  9 10  2  0
  9 11  1  0
 11 12  2  0
 12 13  1  0
 13 14  1  0
 14 15  1  0
 14 16  2  0
 16 17  1  0
 16 18  1  0
 18 19  1  0
 19 20  1  0
 20 21  2  0
 21 22  1  0
 21 23  1  0
 23 24  1  0
 23 25  2  0
 25 26  1  0
 26 27  1  0
 26 28  1  0
 28 29  2  0
 28 30  1  0
 30 31  1  0
 31 32  2  0
 32 33  1  0
 32 34  1  0
 34 35  2  0
 35 36  1  0
 36 37  1  0
 36 38  1  0
 36 39  1  0
 35 40  1  0
 40 41  1  0
 41 42  1  0
 42 43  1  0
 42 44  1  0
 42 45  1  0
 45 46  1  0
 45 47  1  0
 45 48  1  0
 48 49  1  0
 49 50  1  0
 49 51  1  0
 49 52  1  0
 48 53  1  0
 53 54  1  0
 53 55  1  0
 53 56  1  0
 56 57  1  0
 56 58  1  0
 40 59  2  0
 59 60  1  0
 25 61  1  0
 61 62  1  0
 61 63  2  0
 63 64  1  0
 18 65  2  0
 65 66  1  0
  8 67  2  0
 67 68  1  0
 67  2  1  0
 65 12  1  0
 63 20  1  0
 59 31  1  0
 56 41  1  0
M  CHG  2  13  -1  30  -1
M  END
>  <UniqueID>  (71) 
69

>  <SMILES>  (71) 
Cc1ncc([N-]C(=O)Nc2ccc(Oc3cc[n-]/c(=N\C(=O)c4ccncc4)c3)c(F)c2)cc1N1CCN(C)CC1

>  <Energy>  (71) 
108.45843058762809

>  <Genealogy>  (71) 
Cc1ncc([N-]C(=O)Nc2ccc(Oc3cc[n-]c(=NC(=O)c4ccncc4)c3)c(F)c2)cc1N1CCN(C)CC1 (protonated)
Cc1ncc([N-]C(=O)Nc2ccc(Oc3cc[n-]/c(=N\C(=O)c4ccncc4)c3)c(F)c2)cc1N1CCN(C)CC1 (cis-trans isomerization)
Cc1ncc([N-]C(=O)Nc2ccc(Oc3cc[n-]/c(=N\C(=O)c4ccncc4)c3)c(F)c2)cc1N1CCN(C)CC1 (3D coordinates assigned)
Cc1ncc([N-]C(=O)Nc2ccc(Oc3cc[n-]/c(=N\C(=O)c4ccncc4)c3)c(F)c2)cc1N1CCN(C)CC1 (nonaromatic ring conformer: 108.45843058762809 kcal/mol)

>  <smiles>  (71) 
Cc1ncc(NC(=O)Nc2ccc(Oc3cc[nH]c(=NC(=O)c4ccncc4)c3)c(F)c2)cc1N1CCN(C)CC1

>  <score_type>  (71) 
oracle

>  <origin>  (71) 
adg

>  <m_score__min__energy>  (71) 
-12.210000000000001

>  <m_primary>  (71) 
energy

$$$$
71:0
     RDKit          3D

 54 56  0  0  0  0  0  0  0  0999 V2000
   63.2900   33.8090   46.6460 C   0  0  0  0  0  0  0  0  0  0  0  0
   63.0130   32.9310   47.7950 N   0  0  0  0  0  0  0  0  0  0  0  0
   64.1510   32.9280   48.7280 C   0  0  0  0  0  0  0  0  0  0  0  0
   61.8030   33.3740   48.4730 C   0  0  0  0  0  0  0  0  0  0  0  0
   61.6480   34.5710   48.6810 O   0  0  0  0  0  0  0  0  0  0  0  0
   60.6890   32.4200   48.9280 C   0  0  0  0  0  0  0  0  0  0  0  0
   61.2100   31.5770   50.1100 C   0  0  0  0  0  0  0  0  0  0  0  0
   59.4110   33.1440   49.3980 C   0  0  0  0  0  0  0  0  0  0  0  0
   60.2450   31.3380   47.5510 S   0  0  0  0  0  0  0  0  0  0  0  0
   59.5200   30.1440   48.1020 O   0  0  0  0  0  0  0  0  0  0  0  0
   61.5040   30.8380   46.8940 O   0  0  0  0  0  0  0  0  0  0  0  0
   59.2810   32.1710   46.3060 C   0  0  0  0  0  0  0  0  0  0  0  0
   59.3410   33.5760   46.2810 C   0  0  0  0  0  0  0  0  0  0  0  0
   58.5740   34.3120   45.3770 C   0  0  0  0  0  0  0  0  0  0  0  0
   57.7360   33.6580   44.4780 C   0  0  0  0  0  0  0  0  0  0  0  0
   57.6730   32.2640   44.4690 C   0  0  0  0  0  0  0  0  0  0  0  0
   58.4460   31.5060   45.3660 C   0  0  0  0  0  0  0  0  0  0  0  0
   58.3670   30.0380   45.2530 C   0  0  0  0  0  0  0  0  0  0  0  0
   59.5250   29.2890   45.0090 C   0  0  0  0  0  0  0  0  0  0  0  0
   59.4630   27.8950   44.9470 C   0  0  0  0  0  0  0  0  0  0  0  0
   58.2430   27.2250   45.1470 C   0  0  0  0  0  0  0  0  0  0  0  0
   58.1880   25.7470   45.0480 C   0  0  0  0  0  0  0  0  0  0  0  0
   58.8710   24.9380   45.9660 C   0  0  0  0  0  0  0  0  0  0  0  0
   58.8070   23.5850   45.8630 N   0  0  0  0  0  0  0  0  0  0  0  0
   58.0800   22.9910   44.8800 C   0  0  0  0  0  0  0  0  0  0  0  0
   58.0280   21.7010   44.7960 N   0  0  0  0  0  0  0  0  0  0  0  0
   57.4030   23.7530   43.9840 N   0  0  0  0  0  0  0  0  0  0  0  0
   57.4420   25.1090   44.0460 C   0  0  0  0  0  0  0  0  0  0  0  0
   57.0880   27.9790   45.4360 C   0  0  0  0  0  0  0  0  0  0  0  0
   55.8870   27.3730   45.6130 F   0  0  0  0  0  0  0  0  0  0  0  0
   57.1580   29.3740   45.5050 C   0  0  0  0  0  0  0  0  0  0  0  0
   63.6025   34.7995   47.0084 H   0  0  0  0  0  0  0  0  0  0  0  0
   64.0938   33.3715   46.0356 H   0  0  0  0  0  0  0  0  0  0  0  0
   62.3807   33.9120   46.0356 H   0  0  0  0  0  0  0  0  0  0  0  0
   62.9290   31.9600   47.4270 H   0  0  0  0  0  0  0  0  0  0  0  0
   63.7770   32.9290   49.7625 H   0  0  0  0  0  0  0  0  0  0  0  0
   64.7610   32.0282   48.5595 H   0  0  0  0  0  0  0  0  0  0  0  0
   64.7657   33.8245   48.5595 H   0  0  0  0  0  0  0  0  0  0  0  0
   60.9160   32.0526   51.0573 H   0  0  0  0  0  0  0  0  0  0  0  0
   60.7787   30.5664   50.0578 H   0  0  0  0  0  0  0  0  0  0  0  0
   62.3068   31.5108   50.0578 H   0  0  0  0  0  0  0  0  0  0  0  0
   59.3821   33.1603   50.4975 H   0  0  0  0  0  0  0  0  0  0  0  0
   59.4124   34.1755   49.0159 H   0  0  0  0  0  0  0  0  0  0  0  0
   58.5269   32.6126   49.0159 H   0  0  0  0  0  0  0  0  0  0  0  0
   60.0025   34.1026   46.9847 H   0  0  0  0  0  0  0  0  0  0  0  0
   58.6316   35.4105   45.3747 H   0  0  0  0  0  0  0  0  0  0  0  0
   57.1232   34.2405   43.7743 H   0  0  0  0  0  0  0  0  0  0  0  0
   57.0122   31.7532   43.7532 H   0  0  0  0  0  0  0  0  0  0  0  0
   60.4879   29.8010   44.8655 H   0  0  0  0  0  0  0  0  0  0  0  0
   60.3756   27.3168   44.7401 H   0  0  0  0  0  0  0  0  0  0  0  0
   59.4604   25.3997   46.7719 H   0  0  0  0  0  0  0  0  0  0  0  0
   58.8950   21.1190   44.8030 H   0  0  0  0  0  0  0  0  0  0  0  0
   56.8874   25.7083   43.3089 H   0  0  0  0  0  0  0  0  0  0  0  0
   56.2586   29.9543   45.7587 H   0  0  0  0  0  0  0  0  0  0  0  0
  1  2  1  0
  2  3  1  0
  2  4  1  0
  4  5  2  0
  4  6  1  0
  6  7  1  0
  6  8  1  0
  6  9  1  0
  9 10  2  0
  9 11  2  0
  9 12  1  0
 12 13  2  0
 13 14  1  0
 14 15  2  0
 15 16  1  0
 16 17  2  0
 17 18  1  0
 18 19  2  0
 19 20  1  0
 20 21  2  0
 21 22  1  0
 22 23  1  0
 23 24  2  0
 24 25  1  0
 25 26  2  3
 25 27  1  0
 27 28  1  0
 21 29  1  0
 29 30  1  0
 29 31  2  0
 17 12  1  0
 31 18  1  0
 28 22  2  0
  1 32  1  0
  1 33  1  0
  1 34  1  0
  2 35  1  0
  3 36  1  0
  3 37  1  0
  3 38  1  0
  7 39  1  0
  7 40  1  0
  7 41  1  0
  8 42  1  0
  8 43  1  0
  8 44  1  0
 13 45  1  0
 14 46  1  0
 15 47  1  0
 16 48  1  0
 19 49  1  0
 20 50  1  0
 23 51  1  0
 26 52  1  0
 28 53  1  0
 31 54  1  0
M  CHG  2   2   1  27  -1
M  END
>  <UniqueID>  (72) 
70

>  <SMILES>  (72) 
C[NH+](C)C(=O)C(C)(C)S(=O)(=O)c1ccccc1-c1ccc(-c2cnc(=N)[n-]c2)c(F)c1

>  <Energy>  (72) 
68.71993231841462

>  <Genealogy>  (72) 
C[NH+](C)C(=O)C(C)(C)S(=O)(=O)c1ccccc1-c1ccc(-c2cnc(=N)[n-]c2)c(F)c1 (protonated)
C[NH+](C)C(=O)C(C)(C)S(=O)(=O)c1ccccc1-c1ccc(-c2cnc(=N)[n-]c2)c(F)c1 (3D coordinates assigned)
C[NH+](C)C(=O)C(C)(C)S(=O)(=O)c1ccccc1-c1ccc(-c2cnc(=N)[n-]c2)c(F)c1 (optimized conformer: 68.71993231841462 kcal/mol)

>  <smiles>  (72) 
CN(C)C(=O)C(C)(C)S(=O)(=O)c1ccccc1-c1ccc(-c2cnc(=N)[nH]c2)c(F)c1

>  <score_type>  (72) 
oracle

>  <origin>  (72) 
adg

>  <m_score__min__energy>  (72) 
-8.6899999999999995

>  <m_primary>  (72) 
energy

$$$$
72:0
     RDKit          3D

 54 56  0  0  0  0  0  0  0  0999 V2000
   57.3730   24.3720   48.0460 C   0  0  0  0  0  0  0  0  0  0  0  0
   57.3780   25.5850   47.1750 C   0  0  0  0  0  0  0  0  0  0  0  0
   58.3240   26.4890   47.1800 O   0  0  0  0  0  0  0  0  0  0  0  0
   57.9810   27.4040   46.3030 C   0  0  0  0  0  0  0  0  0  0  0  0
   58.9350   28.8310   45.9670 S   0  0  0  0  0  0  0  0  0  0  0  0
   58.4970   29.9480   46.8710 O   0  0  0  0  0  0  0  0  0  0  0  0
   60.3780   28.5230   46.2510 O   0  0  0  0  0  0  0  0  0  0  0  0
   58.7680   29.3360   44.2570 C   0  0  0  0  0  0  0  0  0  0  0  0
   57.3330   29.1780   43.7280 C   0  0  0  0  0  0  0  0  0  0  0  0
   56.2890   29.9390   44.5120 C   0  0  0  0  0  0  0  0  0  0  0  0
   55.2200   29.3720   44.8620 O   0  0  0  0  0  0  0  0  0  0  0  0
   56.4450   31.3330   44.8110 N   0  0  0  0  0  0  0  0  0  0  0  0
   57.3980   32.2460   44.1810 C   0  0  0  0  0  0  0  0  0  0  0  0
   57.3560   33.6190   44.8530 C   0  0  0  0  0  0  0  0  0  0  0  0
   58.3560   33.7260   45.9750 C   0  0  0  0  0  0  0  0  0  0  0  0
   58.1350   33.0600   47.1910 C   0  0  0  0  0  0  0  0  0  0  0  0
   59.0580   33.1780   48.2360 C   0  0  0  0  0  0  0  0  0  0  0  0
   60.2150   33.9450   48.0670 C   0  0  0  0  0  0  0  0  0  0  0  0
   61.3770   34.0790   49.3740 Cl  0  0  0  0  0  0  0  0  0  0  0  0
   60.4490   34.5960   46.8520 C   0  0  0  0  0  0  0  0  0  0  0  0
   59.5230   34.4890   45.8090 C   0  0  0  0  0  0  0  0  0  0  0  0
   56.8060   27.1420   45.6960 N   0  0  0  0  0  0  0  0  0  0  0  0
   56.4240   25.9750   46.2520 C   0  0  0  0  0  0  0  0  0  0  0  0
   55.1570   25.2880   45.9240 C   0  0  0  0  0  0  0  0  0  0  0  0
   54.1370   25.9660   45.6300 O   0  0  0  0  0  0  0  0  0  0  0  0
   55.0750   23.8580   45.8540 N   0  0  0  0  0  0  0  0  0  0  0  0
   55.7870   23.0130   44.9360 C   0  0  0  0  0  0  0  0  0  0  0  0
   55.9050   23.3870   43.5840 C   0  0  0  0  0  0  0  0  0  0  0  0
   56.6080   22.5880   42.6840 C   0  0  0  0  0  0  0  0  0  0  0  0
   57.2200   21.4150   43.1230 C   0  0  0  0  0  0  0  0  0  0  0  0
   57.1380   21.0430   44.4660 C   0  0  0  0  0  0  0  0  0  0  0  0
   56.4310   21.8340   45.3930 C   0  0  0  0  0  0  0  0  0  0  0  0
   56.3720   21.3910   46.8120 C   0  0  0  0  0  0  0  0  0  0  0  0
   57.3570   21.5350   47.5830 O   0  0  0  0  0  0  0  0  0  0  0  0
   55.2150   20.8050   47.3140 O   0  0  0  0  0  0  0  0  0  0  0  0
   57.3743   24.6791   49.1023 H   0  0  0  0  0  0  0  0  0  0  0  0
   56.4724   23.7754   47.8387 H   0  0  0  0  0  0  0  0  0  0  0  0
   58.2687   23.7680   47.8387 H   0  0  0  0  0  0  0  0  0  0  0  0
   59.0596   30.3933   44.1724 H   0  0  0  0  0  0  0  0  0  0  0  0
   59.4176   28.6848   43.6537 H   0  0  0  0  0  0  0  0  0  0  0  0
   57.3091   29.5346   42.6877 H   0  0  0  0  0  0  0  0  0  0  0  0
   57.0801   28.1117   43.8230 H   0  0  0  0  0  0  0  0  0  0  0  0
   58.4120   31.8297   44.2732 H   0  0  0  0  0  0  0  0  0  0  0  0
   57.1284   32.3626   43.1210 H   0  0  0  0  0  0  0  0  0  0  0  0
   57.5810   34.3899   44.1013 H   0  0  0  0  0  0  0  0  0  0  0  0
   56.3510   33.7604   45.2773 H   0  0  0  0  0  0  0  0  0  0  0  0
   57.2335   32.4436   47.3226 H   0  0  0  0  0  0  0  0  0  0  0  0
   58.8732   32.6665   49.1922 H   0  0  0  0  0  0  0  0  0  0  0  0
   61.3627   35.1932   46.7161 H   0  0  0  0  0  0  0  0  0  0  0  0
   59.7097   35.0044   44.8553 H   0  0  0  0  0  0  0  0  0  0  0  0
   55.4376   24.3193   43.2343 H   0  0  0  0  0  0  0  0  0  0  0  0
   56.6799   22.8832   41.6268 H   0  0  0  0  0  0  0  0  0  0  0  0
   57.7683   20.7816   42.4102 H   0  0  0  0  0  0  0  0  0  0  0  0
   57.6318   20.1203   44.8049 H   0  0  0  0  0  0  0  0  0  0  0  0
  1  2  1  0
  2  3  1  0
  3  4  1  0
  4  5  1  0
  5  6  2  0
  5  7  2  0
  5  8  1  0
  8  9  1  0
  9 10  1  0
 10 11  2  0
 10 12  1  0
 12 13  1  0
 13 14  1  0
 14 15  1  0
 15 16  2  0
 16 17  1  0
 17 18  2  0
 18 19  1  0
 18 20  1  0
 20 21  2  0
  4 22  2  0
 22 23  1  0
 23 24  1  0
 24 25  2  0
 24 26  1  0
 26 27  1  0
 27 28  2  0
 28 29  1  0
 29 30  2  0
 30 31  1  0
 31 32  2  0
 32 33  1  0
 33 34  2  0
 33 35  1  0
 23  2  2  0
 32 27  1  0
 21 15  1  0
  1 36  1  0
  1 37  1  0
  1 38  1  0
  8 39  1  0
  8 40  1  0
  9 41  1  0
  9 42  1  0
 13 43  1  0
 13 44  1  0
 14 45  1  0
 14 46  1  0
 16 47  1  0
 17 48  1  0
 20 49  1  0
 21 50  1  0
 28 51  1  0
 29 52  1  0
 30 53  1  0
 31 54  1  0
M  CHG  3  12  -1  26  -1  35  -1
M  END
>  <UniqueID>  (73) 
71

>  <SMILES>  (73) 
Cc1oc(S(=O)(=O)CCC(=O)[N-]CCc2ccc(Cl)cc2)nc1C(=O)[N-]c1ccccc1C(=O)[O-]

>  <Energy>  (73) 
82.79685046344731

>  <Genealogy>  (73) 
Cc1oc(S(=O)(=O)CCC(=O)[N-]CCc2ccc(Cl)cc2)nc1C(=O)[N-]c1ccccc1C(=O)[O-] (protonated)
Cc1oc(S(=O)(=O)CCC(=O)[N-]CCc2ccc(Cl)cc2)nc1C(=O)[N-]c1ccccc1C(=O)[O-] (3D coordinates assigned)
Cc1oc(S(=O)(=O)CCC(=O)[N-]CCc2ccc(Cl)cc2)nc1C(=O)[N-]c1ccccc1C(=O)[O-] (optimized conformer: 82.79685046344731 kcal/mol)

>  <smiles>  (73) 
Cc1oc(S(=O)(=O)CCC(=O)NCCc2ccc(Cl)cc2)nc1C(=O)Nc1ccccc1C(=O)O

>  <score_type>  (73) 
oracle

>  <origin>  (73) 
adg

>  <m_score__min__energy>  (73) 
-15.369999999999999

>  <m_primary>  (73) 
energy

$$$$
73:0
     RDKit          3D

 63 66  0  0  0  0  0  0  0  0999 V2000
   65.1790   29.5890   52.1080 C   0  0  0  0  0  0  0  0  0  0  0  0
   65.4590   30.8170   51.2820 C   0  0  0  0  0  0  0  0  0  0  0  0
   66.7640   31.3390   51.2640 C   0  0  0  0  0  0  0  0  0  0  0  0
   67.0660   32.4670   50.5030 C   0  0  0  0  0  0  0  0  0  0  0  0
   66.0730   33.0890   49.7450 C   0  0  0  0  0  0  0  0  0  0  0  0
   64.7660   32.5870   49.7410 C   0  0  0  0  0  0  0  0  0  0  0  0
   63.7730   33.2640   48.9540 N   0  0  0  0  0  0  0  0  0  0  0  0
   63.4500   32.7550   47.6160 C   0  0  0  0  0  0  0  0  0  0  0  0
   62.2540   33.4990   47.0030 C   0  0  0  0  0  0  0  0  0  0  0  0
   61.1880   33.6880   48.0010 N   0  0  0  0  0  0  0  0  0  0  0  0
   59.8080   33.7020   47.5900 C   0  0  0  0  0  0  0  0  0  0  0  0
   59.0450   34.6140   48.0070 O   0  0  0  0  0  0  0  0  0  0  0  0
   59.2530   32.6930   46.6690 C   0  0  0  0  0  0  0  0  0  0  0  0
   58.1260   32.8950   45.9570 N   0  0  0  0  0  0  0  0  0  0  0  0
   57.9700   31.7330   45.2850 C   0  0  0  0  0  0  0  0  0  0  0  0
   56.8340   31.4640   44.3500 C   0  0  0  0  0  0  0  0  0  0  0  0
   56.7020   29.9930   44.0670 C   0  0  0  0  0  0  0  0  0  0  0  0
   55.5880   29.4210   44.2300 O   0  0  0  0  0  0  0  0  0  0  0  0
   57.8520   29.2300   43.6800 N   0  0  0  0  0  0  0  0  0  0  0  0
   57.7770   27.8040   43.3720 C   0  0  0  0  0  0  0  0  0  0  0  0
   57.7780   27.0030   44.6430 C   0  0  0  0  0  0  0  0  0  0  0  0
   57.4180   25.6460   44.6170 C   0  0  0  0  0  0  0  0  0  0  0  0
   57.4110   24.8950   45.7990 C   0  0  0  0  0  0  0  0  0  0  0  0
   57.7480   25.4990   47.0140 C   0  0  0  0  0  0  0  0  0  0  0  0
   57.7500   24.7670   48.1590 F   0  0  0  0  0  0  0  0  0  0  0  0
   58.0880   26.8550   47.0490 C   0  0  0  0  0  0  0  0  0  0  0  0
   58.1030   27.6070   45.8700 C   0  0  0  0  0  0  0  0  0  0  0  0
   58.9030   30.8500   45.5650 O   0  0  0  0  0  0  0  0  0  0  0  0
   59.7080   31.4050   46.4350 C   0  0  0  0  0  0  0  0  0  0  0  0
   60.8680   30.6950   47.0520 C   0  0  0  0  0  0  0  0  0  0  0  0
   61.5230   34.1450   49.3610 C   0  0  0  0  0  0  0  0  0  0  0  0
   63.0260   34.3820   49.5310 C   0  0  0  0  0  0  0  0  0  0  0  0
   64.4460   31.4310   50.4920 C   0  0  0  0  0  0  0  0  0  0  0  0
   63.0390   30.8810   50.4920 C   0  0  0  0  0  0  0  0  0  0  0  0
   65.2373   29.8446   53.1763 H   0  0  0  0  0  0  0  0  0  0  0  0
   64.1720   29.2125   51.8755 H   0  0  0  0  0  0  0  0  0  0  0  0
   65.9233   28.8131   51.8755 H   0  0  0  0  0  0  0  0  0  0  0  0
   67.5538   30.8530   51.8557 H   0  0  0  0  0  0  0  0  0  0  0  0
   68.0902   32.8682   50.4999 H   0  0  0  0  0  0  0  0  0  0  0  0
   66.3186   33.9790   49.1471 H   0  0  0  0  0  0  0  0  0  0  0  0
   64.3253   32.8864   46.9629 H   0  0  0  0  0  0  0  0  0  0  0  0
   63.1845   31.6914   47.7067 H   0  0  0  0  0  0  0  0  0  0  0  0
   62.5881   34.4828   46.6416 H   0  0  0  0  0  0  0  0  0  0  0  0
   61.8555   32.9002   46.1707 H   0  0  0  0  0  0  0  0  0  0  0  0
   55.9007   31.8275   44.8048 H   0  0  0  0  0  0  0  0  0  0  0  0
   57.0310   31.9857   43.4019 H   0  0  0  0  0  0  0  0  0  0  0  0
   58.7850   29.6990   43.6330 H   0  0  0  0  0  0  0  0  0  0  0  0
   56.8514   27.6001   42.8137 H   0  0  0  0  0  0  0  0  0  0  0  0
   58.6492   27.5193   42.7651 H   0  0  0  0  0  0  0  0  0  0  0  0
   57.1404   25.1710   43.6645 H   0  0  0  0  0  0  0  0  0  0  0  0
   57.1402   23.8292   45.7715 H   0  0  0  0  0  0  0  0  0  0  0  0
   58.3444   27.3315   48.0067 H   0  0  0  0  0  0  0  0  0  0  0  0
   58.3698   28.6737   45.9029 H   0  0  0  0  0  0  0  0  0  0  0  0
   60.7874   30.7444   48.1479 H   0  0  0  0  0  0  0  0  0  0  0  0
   60.8666   29.6428   46.7313 H   0  0  0  0  0  0  0  0  0  0  0  0
   61.8044   31.1749   46.7313 H   0  0  0  0  0  0  0  0  0  0  0  0
   60.9899   35.0862   49.5610 H   0  0  0  0  0  0  0  0  0  0  0  0
   61.2202   33.3589   50.0684 H   0  0  0  0  0  0  0  0  0  0  0  0
   63.3090   35.3133   49.0186 H   0  0  0  0  0  0  0  0  0  0  0  0
   63.2620   34.4617   50.6024 H   0  0  0  0  0  0  0  0  0  0  0  0
   62.6975   30.7475   51.5291 H   0  0  0  0  0  0  0  0  0  0  0  0
   62.3705   31.5840   49.9735 H   0  0  0  0  0  0  0  0  0  0  0  0
   63.0245   29.9110   49.9735 H   0  0  0  0  0  0  0  0  0  0  0  0
  1  2  1  0
  2  3  2  0
  3  4  1  0
  4  5  2  0
  5  6  1  0
  6  7  1  0
  7  8  1  0
  8  9  1  0
  9 10  1  0
 10 11  1  0
 11 12  2  0
 11 13  1  0
 13 14  1  0
 14 15  2  0
 15 16  1  0
 16 17  1  0
 17 18  2  0
 17 19  1  0
 19 20  1  0
 20 21  1  0
 21 22  2  0
 22 23  1  0
 23 24  2  0
 24 25  1  0
 24 26  1  0
 26 27  2  0
 15 28  1  0
 28 29  1  0
 29 30  1  0
 10 31  1  0
 31 32  1  0
  6 33  2  0
 33 34  1  0
 33  2  1  0
 32  7  1  0
 29 13  2  0
 27 21  1  0
  1 35  1  0
  1 36  1  0
  1 37  1  0
  3 38  1  0
  4 39  1  0
  5 40  1  0
  8 41  1  0
  8 42  1  0
  9 43  1  0
  9 44  1  0
 16 45  1  0
 16 46  1  0
 19 47  1  0
 20 48  1  0
 20 49  1  0
 22 50  1  0
 23 51  1  0
 26 52  1  0
 27 53  1  0
 30 54  1  0
 30 55  1  0
 30 56  1  0
 31 57  1  0
 31 58  1  0
 32 59  1  0
 32 60  1  0
 34 61  1  0
 34 62  1  0
 34 63  1  0
M  END
>  <UniqueID>  (74) 
72

>  <SMILES>  (74) 
Cc1cccc(N2CCN(C(=O)c3nc(CC(=O)NCc4ccc(F)cc4)oc3C)CC2)c1C

>  <Energy>  (74) 
101.9530543645771

>  <Genealogy>  (74) 
Cc1cccc(N2CCN(C(=O)c3nc(CC(=O)NCc4ccc(F)cc4)oc3C)CC2)c1C (3D coordinates assigned)
Cc1cccc(N2CCN(C(=O)c3nc(CC(=O)NCc4ccc(F)cc4)oc3C)CC2)c1C (nonaromatic ring conformer: 101.9530543645771 kcal/mol)

>  <smiles>  (74) 
Cc1cccc(N2CCN(C(=O)c3nc(CC(=O)NCc4ccc(F)cc4)oc3C)CC2)c1C

>  <score_type>  (74) 
oracle

>  <origin>  (74) 
adg

>  <m_score__min__energy>  (74) 
-8.8399999999999999

>  <m_primary>  (74) 
energy

$$$$
74:0
     RDKit          3D

 41 43  0  0  0  0  0  0  0  0999 V2000
   55.1510   26.5340   45.9940 O   0  0  0  0  0  0  0  0  0  0  0  0
   56.2730   26.0650   45.6690 C   0  0  0  0  0  0  0  0  0  0  0  0
   57.3680   27.0140   45.2610 C   0  0  0  0  0  0  0  0  0  0  0  0
   57.1850   28.3460   45.8420 N   0  0  0  0  0  0  0  0  0  0  0  0
   56.6320   29.5010   44.6610 S   0  0  0  0  0  0  0  0  0  0  0  0
   56.8910   28.9890   43.2710 O   0  0  0  0  0  0  0  0  0  0  0  0
   55.1540   29.7110   44.8310 O   0  0  0  0  0  0  0  0  0  0  0  0
   57.4570   31.0340   44.9200 C   0  0  0  0  0  0  0  0  0  0  0  0
   58.1080   31.3040   46.1340 C   0  0  0  0  0  0  0  0  0  0  0  0
   58.7270   32.5420   46.3360 C   0  0  0  0  0  0  0  0  0  0  0  0
   58.7000   33.5130   45.3300 C   0  0  0  0  0  0  0  0  0  0  0  0
   58.0560   33.2450   44.1190 C   0  0  0  0  0  0  0  0  0  0  0  0
   57.4370   32.0080   43.9120 C   0  0  0  0  0  0  0  0  0  0  0  0
   56.4470   24.6410   45.6650 N   0  0  0  0  0  0  0  0  0  0  0  0
   57.1170   23.8600   44.6250 C   0  0  2  0  0  0  0  0  0  0  0  0
   56.0660   23.2860   43.6320 C   0  0  0  0  0  0  0  0  0  0  0  0
   56.1690   21.8100   43.5300 N   0  0  0  0  0  0  0  0  0  0  0  0
   55.9020   21.2100   44.8600 C   0  0  0  0  0  0  0  0  0  0  0  0
   56.9200   21.7080   45.9150 C   0  0  0  0  0  0  0  0  0  0  0  0
   57.9100   22.6840   45.2460 C   0  0  0  0  0  0  0  0  0  0  0  0
   58.6070   21.9310   44.0970 C   0  0  0  0  0  0  0  0  0  0  0  0
   57.5360   21.4390   43.0890 C   0  0  0  0  0  0  0  0  0  0  0  0
   58.3332   26.6088   45.5989 H   0  0  0  0  0  0  0  0  0  0  0  0
   57.3398   27.1144   44.1660 H   0  0  0  0  0  0  0  0  0  0  0  0
   58.1314   30.5418   46.9267 H   0  0  0  0  0  0  0  0  0  0  0  0
   59.2361   32.7522   47.2882 H   0  0  0  0  0  0  0  0  0  0  0  0
   59.1852   34.4869   45.4917 H   0  0  0  0  0  0  0  0  0  0  0  0
   58.0359   34.0083   43.3272 H   0  0  0  0  0  0  0  0  0  0  0  0
   56.9336   31.7990   42.9565 H   0  0  0  0  0  0  0  0  0  0  0  0
   57.8132   24.5262   44.0944 H   0  0  0  0  0  0  0  0  0  0  0  0
   55.0583   23.5511   43.9844 H   0  0  0  0  0  0  0  0  0  0  0  0
   56.2571   23.7163   42.6379 H   0  0  0  0  0  0  0  0  0  0  0  0
   54.8874   21.4879   45.1816 H   0  0  0  0  0  0  0  0  0  0  0  0
   55.9967   20.1175   44.7740 H   0  0  0  0  0  0  0  0  0  0  0  0
   56.3859   22.2246   46.7260 H   0  0  0  0  0  0  0  0  0  0  0  0
   57.4706   20.8508   46.3298 H   0  0  0  0  0  0  0  0  0  0  0  0
   58.6352   23.0582   45.9836 H   0  0  0  0  0  0  0  0  0  0  0  0
   59.3100   22.6062   43.5872 H   0  0  0  0  0  0  0  0  0  0  0  0
   59.1597   21.0696   44.5001 H   0  0  0  0  0  0  0  0  0  0  0  0
   57.7318   21.8950   42.1073 H   0  0  0  0  0  0  0  0  0  0  0  0
   57.5951   20.3423   43.0278 H   0  0  0  0  0  0  0  0  0  0  0  0
  1  2  2  0
  2  3  1  0
  3  4  1  0
  4  5  1  0
  5  6  2  0
  5  7  2  0
  5  8  1  0
  8  9  2  0
  9 10  1  0
 10 11  2  0
 11 12  1  0
 12 13  2  0
  2 14  1  0
 14 15  1  0
 15 16  1  0
 16 17  1  0
 17 18  1  0
 18 19  1  0
 19 20  1  0
 20 21  1  0
 21 22  1  0
 13  8  1  0
 20 15  1  0
 22 17  1  0
  3 23  1  0
  3 24  1  0
  9 25  1  0
 10 26  1  0
 11 27  1  0
 12 28  1  0
 13 29  1  0
 15 30  1  6
 16 31  1  0
 16 32  1  0
 18 33  1  0
 18 34  1  0
 19 35  1  0
 19 36  1  0
 20 37  1  0
 21 38  1  0
 21 39  1  0
 22 40  1  0
 22 41  1  0
M  CHG  2   4  -1  14  -1
M  END
>  <UniqueID>  (75) 
73

>  <SMILES>  (75) 
O=C(C[N-]S(=O)(=O)c1ccccc1)[N-][C@@H]1CN2CCC1CC2

>  <Energy>  (75) 
51.226400481298604

>  <Genealogy>  (75) 
O=C(C[N-]S(=O)(=O)c1ccccc1)[N-]C1CN2CCC1CC2 (protonated)
O=C(C[N-]S(=O)(=O)c1ccccc1)[N-][C@@H]1CN2CCC1CC2 (chirality)
O=C(C[N-]S(=O)(=O)c1ccccc1)[N-][C@@H]1CN2CCC1CC2 (3D coordinates assigned)
O=C(C[N-]S(=O)(=O)c1ccccc1)[N-][C@@H]1CN2CCC1CC2 (nonaromatic ring conformer: 51.226400481298604 kcal/mol)

>  <smiles>  (75) 
O=C(CNS(=O)(=O)c1ccccc1)NC1CN2CCC1CC2

>  <score_type>  (75) 
oracle

>  <origin>  (75) 
adg

>  <m_score__min__energy>  (75) 
-11.470000000000001

>  <m_primary>  (75) 
energy

$$$$
75:0
     RDKit          3D

 55 58  0  0  0  0  0  0  0  0999 V2000
   56.8051   31.6995   51.8248 H   0  0  0  0  0  0  0  0  0  0  0  0
   55.7190   31.6070   51.9730 C   0  0  0  0  0  0  0  0  0  0  0  0
   55.0477   32.4113   51.6376 H   0  0  0  0  0  0  0  0  0  0  0  0
   55.2130   30.5130   52.5630 C   0  0  0  0  0  0  0  0  0  0  0  0
   53.8590   30.2620   52.8150 C   0  0  0  0  0  0  0  0  0  0  0  0
   52.8210   31.0930   52.6010 C   0  0  0  0  0  0  0  0  0  0  0  0
   52.4490   31.6845   53.4506 H   0  0  0  0  0  0  0  0  0  0  0  0
   52.1530   31.2580   51.2970 C   0  0  0  0  0  0  0  0  0  0  0  0
   52.1540   30.3090   50.3440 N   0  0  0  0  0  0  0  0  0  0  0  0
   51.3700   30.8350   49.3770 C   0  0  0  0  0  0  0  0  0  0  0  0
   51.1370   30.2360   48.2950 O   0  0  0  0  0  0  0  0  0  0  0  0
   50.8490   32.0460   49.6650 N   0  0  0  0  0  0  0  0  0  0  0  0
   51.3430   32.2950   50.8890 C   0  0  0  0  0  0  0  0  0  0  0  0
   51.0200   33.4250   51.6310 O   0  0  0  0  0  0  0  0  0  0  0  0
   53.7970   28.9970   53.3840 C   0  0  0  0  0  0  0  0  0  0  0  0
   52.8898   28.4685   53.7122 H   0  0  0  0  0  0  0  0  0  0  0  0
   55.0940   28.5310   53.4580 C   0  0  0  0  0  0  0  0  0  0  0  0
   55.4820   27.2040   54.0390 C   0  0  0  0  0  0  0  0  0  0  0  0
   55.4641   27.2652   55.1372 H   0  0  0  0  0  0  0  0  0  0  0  0
   54.7712   26.4347   53.7030 H   0  0  0  0  0  0  0  0  0  0  0  0
   56.4953   26.9388   53.7030 H   0  0  0  0  0  0  0  0  0  0  0  0
   55.9550   29.4450   52.9560 N   0  0  0  0  0  0  0  0  0  0  0  0
   57.3870   29.3130   52.9040 C   0  0  0  0  0  0  0  0  0  0  0  0
   58.2240   29.7610   51.9010 C   0  0  0  0  0  0  0  0  0  0  0  0
   57.9280   30.3581   51.0259 H   0  0  0  0  0  0  0  0  0  0  0  0
   59.4690   29.3340   52.1890 N   0  0  0  0  0  0  0  0  0  0  0  0
   60.6440   29.4930   51.3380 C   0  0  0  0  0  0  0  0  0  0  0  0
   61.5431   29.1930   51.8962 H   0  0  0  0  0  0  0  0  0  0  0  0
   60.5354   28.8600   50.4449 H   0  0  0  0  0  0  0  0  0  0  0  0
   60.7740   30.9330   50.9160 C   0  0  0  0  0  0  0  0  0  0  0  0
   61.0380   31.9190   51.8770 C   0  0  0  0  0  0  0  0  0  0  0  0
   61.1906   31.6325   52.9280 H   0  0  0  0  0  0  0  0  0  0  0  0
   61.1080   33.2620   51.5060 C   0  0  0  0  0  0  0  0  0  0  0  0
   61.3215   34.0295   52.2645 H   0  0  0  0  0  0  0  0  0  0  0  0
   60.9080   33.6360   50.1750 C   0  0  0  0  0  0  0  0  0  0  0  0
   60.9634   34.6969   49.8897 H   0  0  0  0  0  0  0  0  0  0  0  0
   60.6360   32.6610   49.1980 C   0  0  0  0  0  0  0  0  0  0  0  0
   60.4170   32.9770   47.8450 O   0  0  0  0  0  0  0  0  0  0  0  0
   59.2080   33.4910   47.2840 C   0  0  0  0  0  0  0  0  0  0  0  0
   59.0349   33.0165   46.3068 H   0  0  0  0  0  0  0  0  0  0  0  0
   58.3800   33.2684   47.9731 H   0  0  0  0  0  0  0  0  0  0  0  0
   59.2910   35.0080   47.0960 C   0  0  0  0  0  0  0  0  0  0  0  0
   58.3686   35.4686   47.4795 H   0  0  0  0  0  0  0  0  0  0  0  0
   60.1671   35.3811   47.6467 H   0  0  0  0  0  0  0  0  0  0  0  0
   59.4420   35.3440   45.7300 O   0  0  0  0  0  0  0  0  0  0  0  0
   58.8940   34.3340   44.9110 C   0  0  0  0  0  0  0  0  0  0  0  0
   58.4645   33.5425   45.5427 H   0  0  0  0  0  0  0  0  0  0  0  0
   58.1057   34.7644   44.2759 H   0  0  0  0  0  0  0  0  0  0  0  0
   59.6846   33.9078   44.2759 H   0  0  0  0  0  0  0  0  0  0  0  0
   60.5590   31.3120   49.5780 C   0  0  0  0  0  0  0  0  0  0  0  0
   60.2740   30.3740   48.6390 F   0  0  0  0  0  0  0  0  0  0  0  0
   59.4450   28.6260   53.3080 N   0  0  0  0  0  0  0  0  0  0  0  0
   60.2700   28.1470   53.7320 H   0  0  0  0  0  0  0  0  0  0  0  0
   58.1830   28.5930   53.7750 C   0  0  0  0  0  0  0  0  0  0  0  0
   57.8447   28.0828   54.6889 H   0  0  0  0  0  0  0  0  0  0  0  0
  1  2  1  0
  2  3  1  0
  2  4  2  0
  4  5  1  0
  5  6  2  0
  6  7  1  0
  6  8  1  0
  8  9  1  0
  9 10  1  0
 10 11  2  0
 10 12  1  0
 12 13  1  0
 13 14  1  0
  5 15  1  0
 15 16  1  0
 15 17  2  0
 17 18  1  0
 18 19  1  0
 18 20  1  0
 18 21  1  0
 17 22  1  0
 22 23  1  0
 23 24  2  0
 24 25  1  0
 24 26  1  0
 26 27  1  0
 27 28  1  0
 27 29  1  0
 27 30  1  0
 30 31  2  0
 31 32  1  0
 31 33  1  0
 33 34  1  0
 33 35  2  0
 35 36  1  0
 35 37  1  0
 37 38  1  0
 38 39  1  0
 39 40  1  0
 39 41  1  0
 39 42  1  0
 42 43  1  0
 42 44  1  0
 42 45  1  0
 45 46  1  0
 46 47  1  0
 46 48  1  0
 46 49  1  0
 37 50  2  0
 50 51  1  0
 26 52  1  0
 52 53  1  0
 52 54  2  0
 54 55  1  0
 22  4  1  0
 54 23  1  0
 13  8  2  0
 50 30  1  0
M  CHG  4   9  -1  12  -1  14  -1  52   1
M  END
>  <UniqueID>  (76) 
74

>  <SMILES>  (76) 
C=c1/c(=C/c2[n-]c(=O)[n-]c2[O-])cc(C)n1-c1c[nH+]n(Cc2cccc(OCCOC)c2F)c1

>  <Energy>  (76) 
160.36651722125848

>  <Genealogy>  (76) 
C=c1c(=Cc2[n-]c(=O)[n-]c2[O-])cc(C)n1-c1c[nH+]n(Cc2cccc(OCCOC)c2F)c1 (protonated)
C=c1/c(=C/c2[n-]c(=O)[n-]c2[O-])cc(C)n1-c1c[nH+]n(Cc2cccc(OCCOC)c2F)c1 (cis-trans isomerization)
C=c1/c(=C/c2[n-]c(=O)[n-]c2[O-])cc(C)n1-c1c[nH+]n(Cc2cccc(OCCOC)c2F)c1 (3D coordinates assigned)
C=c1/c(=C/c2[n-]c(=O)[n-]c2[O-])cc(C)n1-c1c[nH+]n(Cc2cccc(OCCOC)c2F)c1 (optimized conformer: 160.36651722125848 kcal/mol)

>  <smiles>  (76) 
C=c1c(=Cc2[nH]c(=O)[nH]c2O)cc(C)n1-c1cnn(Cc2cccc(OCCOC)c2F)c1

>  <score_type>  (76) 
oracle

>  <origin>  (76) 
adg

>  <m_score__min__energy>  (76) 
-16.010000000000002

>  <m_primary>  (76) 
energy

$$$$
76:0
     RDKit          3D

 48 50  0  0  0  0  0  0  0  0999 V2000
   64.0160   32.9800   50.9760 O   0  0  0  0  0  0  0  0  0  0  0  0
   64.8280   32.7120   50.0500 C   0  0  0  0  0  0  0  0  0  0  0  0
   66.1360   32.0710   50.3870 C   0  0  0  0  0  0  0  0  0  0  0  0
   67.4010   33.3180   50.4980 Cl  0  0  0  0  0  0  0  0  0  0  0  0
   64.5500   33.1010   48.6960 N   0  0  0  0  0  0  0  0  0  0  0  0
   63.2690   33.5610   48.2330 C   0  0  0  0  0  0  0  0  0  0  0  0
   62.3320   34.1350   49.1120 C   0  0  0  0  0  0  0  0  0  0  0  0
   61.0830   34.5520   48.6390 C   0  0  0  0  0  0  0  0  0  0  0  0
   60.7520   34.3840   47.2900 C   0  0  0  0  0  0  0  0  0  0  0  0
   59.1490   34.9150   46.6860 S   0  0  0  0  0  0  0  0  0  0  0  0
   58.6970   33.2620   46.1570 C   0  0  0  0  0  0  0  0  0  0  0  0
   58.1550   33.0580   44.8860 C   0  0  0  0  0  0  0  0  0  0  0  0
   57.7950   31.7730   44.4750 C   0  0  0  0  0  0  0  0  0  0  0  0
   57.9710   30.6750   45.3370 C   0  0  0  0  0  0  0  0  0  0  0  0
   57.6310   29.3390   44.9330 N   0  0  0  0  0  0  0  0  0  0  0  0
   56.3760   28.6740   45.1330 C   0  0  0  0  0  0  0  0  0  0  0  0
   55.2890   29.2580   44.8770 O   0  0  0  0  0  0  0  0  0  0  0  0
   56.3540   27.3200   45.6930 C   0  0  0  0  0  0  0  0  0  0  0  0
   57.4310   26.7070   45.9140 O   0  0  0  0  0  0  0  0  0  0  0  0
   55.1420   26.7040   45.9840 O   0  0  0  0  0  0  0  0  0  0  0  0
   58.5600   30.8730   46.5990 C   0  0  0  0  0  0  0  0  0  0  0  0
   58.7510   29.7450   47.4670 N   0  0  0  0  0  0  0  0  0  0  0  0
   59.5150   29.7270   48.6820 C   0  0  0  0  0  0  0  0  0  0  0  0
   60.4620   28.9020   48.7850 O   0  0  0  0  0  0  0  0  0  0  0  0
   59.2590   30.6790   49.7870 C   0  0  0  0  0  0  0  0  0  0  0  0
   58.1140   30.5560   50.5950 C   0  0  0  0  0  0  0  0  0  0  0  0
   57.8840   31.4600   51.6370 C   0  0  0  0  0  0  0  0  0  0  0  0
   58.7870   32.4990   51.8760 C   0  0  0  0  0  0  0  0  0  0  0  0
   59.9190   32.6390   51.0700 C   0  0  0  0  0  0  0  0  0  0  0  0
   60.1530   31.7390   50.0270 C   0  0  0  0  0  0  0  0  0  0  0  0
   58.8980   32.1750   47.0120 C   0  0  0  0  0  0  0  0  0  0  0  0
   61.6700   33.7960   46.4150 C   0  0  0  0  0  0  0  0  0  0  0  0
   62.9190   33.3790   46.8860 C   0  0  0  0  0  0  0  0  0  0  0  0
   66.0503   31.5496   51.3518 H   0  0  0  0  0  0  0  0  0  0  0  0
   66.4025   31.3493   49.6007 H   0  0  0  0  0  0  0  0  0  0  0  0
   65.3530   33.1330   48.0270 H   0  0  0  0  0  0  0  0  0  0  0  0
   62.5827   34.2564   50.1761 H   0  0  0  0  0  0  0  0  0  0  0  0
   60.3603   35.0125   49.3286 H   0  0  0  0  0  0  0  0  0  0  0  0
   58.0114   33.9116   44.2072 H   0  0  0  0  0  0  0  0  0  0  0  0
   57.3714   31.6183   43.4717 H   0  0  0  0  0  0  0  0  0  0  0  0
   57.3958   29.7445   50.4062 H   0  0  0  0  0  0  0  0  0  0  0  0
   56.9905   31.3528   52.2696 H   0  0  0  0  0  0  0  0  0  0  0  0
   58.6064   33.2065   52.6987 H   0  0  0  0  0  0  0  0  0  0  0  0
   60.6277   33.4593   51.2566 H   0  0  0  0  0  0  0  0  0  0  0  0
   61.0414   31.8598   49.3897 H   0  0  0  0  0  0  0  0  0  0  0  0
   59.3228   32.3381   48.0135 H   0  0  0  0  0  0  0  0  0  0  0  0
   61.4097   33.6612   45.3548 H   0  0  0  0  0  0  0  0  0  0  0  0
   63.6323   32.9049   46.1958 H   0  0  0  0  0  0  0  0  0  0  0  0
  1  2  2  0
  2  3  1  0
  3  4  1  0
  2  5  1  0
  5  6  1  0
  6  7  2  0
  7  8  1  0
  8  9  2  0
  9 10  1  0
 10 11  1  0
 11 12  2  0
 12 13  1  0
 13 14  2  0
 14 15  1  0
 15 16  1  0
 16 17  2  0
 16 18  1  0
 18 19  2  0
 18 20  1  0
 14 21  1  0
 21 22  1  0
 22 23  1  0
 23 24  2  0
 23 25  1  0
 25 26  2  0
 26 27  1  0
 27 28  2  0
 28 29  1  0
 29 30  2  0
 21 31  2  0
  9 32  1  0
 32 33  2  0
 33  6  1  0
 31 11  1  0
 30 25  1  0
  3 34  1  0
  3 35  1  0
  5 36  1  0
  7 37  1  0
  8 38  1  0
 12 39  1  0
 13 40  1  0
 26 41  1  0
 27 42  1  0
 28 43  1  0
 29 44  1  0
 30 45  1  0
 31 46  1  0
 32 47  1  0
 33 48  1  0
M  CHG  3  15  -1  20  -1  22  -1
M  END
>  <UniqueID>  (77) 
75

>  <SMILES>  (77) 
O=C(CCl)Nc1ccc(Sc2ccc([N-]C(=O)C(=O)[O-])c([N-]C(=O)c3ccccc3)c2)cc1

>  <Energy>  (77) 
56.067414498880524

>  <Genealogy>  (77) 
O=C(CCl)Nc1ccc(Sc2ccc([N-]C(=O)C(=O)[O-])c([N-]C(=O)c3ccccc3)c2)cc1 (protonated)
O=C(CCl)Nc1ccc(Sc2ccc([N-]C(=O)C(=O)[O-])c([N-]C(=O)c3ccccc3)c2)cc1 (3D coordinates assigned)
O=C(CCl)Nc1ccc(Sc2ccc([N-]C(=O)C(=O)[O-])c([N-]C(=O)c3ccccc3)c2)cc1 (optimized conformer: 56.067414498880524 kcal/mol)

>  <smiles>  (77) 
O=C(CCl)Nc1ccc(Sc2ccc(NC(=O)C(=O)O)c(NC(=O)c3ccccc3)c2)cc1

>  <score_type>  (77) 
oracle

>  <origin>  (77) 
adg

>  <m_score__min__energy>  (77) 
-14.970000000000001

>  <m_primary>  (77) 
energy

$$$$
77:0
     RDKit          3D

 51 54  0  0  0  0  0  0  0  0999 V2000
   57.7570   32.2880   42.5140 O   0  0  0  0  0  0  0  0  0  0  0  0
   57.6400   31.9930   43.7350 C   0  0  0  0  0  0  0  0  0  0  0  0
   57.2350   30.5960   44.1200 C   0  0  0  0  0  0  0  0  0  0  0  0
   58.2790   29.9590   44.9900 C   0  0  0  0  0  0  0  0  0  0  0  0
   58.1090   29.7470   46.3680 C   0  0  0  0  0  0  0  0  0  0  0  0
   59.1830   29.1010   46.9640 C   0  0  0  0  0  0  0  0  0  0  0  0
   60.3290   28.7860   45.7770 S   0  0  0  0  0  0  0  0  0  0  0  0
   59.4820   29.4650   44.4940 C   0  0  0  0  0  0  0  0  0  0  0  0
   57.9040   32.9940   44.7330 N   0  0  0  0  0  0  0  0  0  0  0  0
   57.0810   33.1100   45.9420 C   0  0  0  0  0  0  0  0  0  0  0  0
   57.9550   33.1060   47.2120 C   0  0  0  0  0  0  0  0  0  0  0  0
   59.4250   33.5990   46.9840 C   0  0  0  0  0  0  0  0  0  0  0  0
   59.4390   34.6210   45.8100 C   0  0  0  0  0  0  0  0  0  0  0  0
   58.9520   33.9920   44.4910 C   0  0  0  0  0  0  0  0  0  0  0  0
   60.3460   32.3800   46.6270 C   0  0  0  0  0  0  0  0  0  0  0  0
   61.0370   31.7750   47.8540 C   0  0  0  0  0  0  0  0  0  0  0  0
   61.8560   32.7950   48.5280 N   0  0  0  0  0  0  0  0  0  0  0  0
   63.0470   32.4140   49.2530 C   0  0  0  0  0  0  0  0  0  0  0  0
   63.0120   31.3540   50.1790 C   0  0  0  0  0  0  0  0  0  0  0  0
   64.1660   30.9870   50.8800 C   0  0  0  0  0  0  0  0  0  0  0  0
   65.3640   31.6700   50.6650 C   0  0  0  0  0  0  0  0  0  0  0  0
   65.4120   32.7230   49.7490 C   0  0  0  0  0  0  0  0  0  0  0  0
   64.2620   33.0950   49.0450 C   0  0  0  0  0  0  0  0  0  0  0  0
   61.4410   34.2050   48.4730 C   0  0  0  0  0  0  0  0  0  0  0  0
   59.9240   34.3100   48.2830 C   0  0  0  0  0  0  0  0  0  0  0  0
   56.2827   30.6350   44.6692 H   0  0  0  0  0  0  0  0  0  0  0  0
   57.1248   29.9960   43.2047 H   0  0  0  0  0  0  0  0  0  0  0  0
   57.2119   30.0623   46.9210 H   0  0  0  0  0  0  0  0  0  0  0  0
   59.2689   28.8404   48.0292 H   0  0  0  0  0  0  0  0  0  0  0  0
   59.8187   29.5109   43.4478 H   0  0  0  0  0  0  0  0  0  0  0  0
   56.5124   34.0507   45.9004 H   0  0  0  0  0  0  0  0  0  0  0  0
   56.3997   32.2474   45.9845 H   0  0  0  0  0  0  0  0  0  0  0  0
   57.4829   33.7630   47.9573 H   0  0  0  0  0  0  0  0  0  0  0  0
   58.0215   32.0599   47.5457 H   0  0  0  0  0  0  0  0  0  0  0  0
   58.7806   35.4643   46.0655 H   0  0  0  0  0  0  0  0  0  0  0  0
   60.4765   34.9560   45.6637 H   0  0  0  0  0  0  0  0  0  0  0  0
   58.5497   34.7845   43.8428 H   0  0  0  0  0  0  0  0  0  0  0  0
   59.8045   33.4913   44.0088 H   0  0  0  0  0  0  0  0  0  0  0  0
   59.7302   31.6022   46.1519 H   0  0  0  0  0  0  0  0  0  0  0  0
   61.1334   32.7476   45.9525 H   0  0  0  0  0  0  0  0  0  0  0  0
   60.2747   31.4005   48.5530 H   0  0  0  0  0  0  0  0  0  0  0  0
   61.6865   30.9484   47.5301 H   0  0  0  0  0  0  0  0  0  0  0  0
   62.0713   30.8108   50.3525 H   0  0  0  0  0  0  0  0  0  0  0  0
   64.1289   30.1582   51.6023 H   0  0  0  0  0  0  0  0  0  0  0  0
   66.2700   31.3790   51.2168 H   0  0  0  0  0  0  0  0  0  0  0  0
   66.3565   33.2612   49.5807 H   0  0  0  0  0  0  0  0  0  0  0  0
   64.3069   33.9248   48.3243 H   0  0  0  0  0  0  0  0  0  0  0  0
   61.7236   34.7026   49.4124 H   0  0  0  0  0  0  0  0  0  0  0  0
   61.9410   34.6905   47.6219 H   0  0  0  0  0  0  0  0  0  0  0  0
   59.4286   33.8472   49.1492 H   0  0  0  0  0  0  0  0  0  0  0  0
   59.6750   35.3776   48.1923 H   0  0  0  0  0  0  0  0  0  0  0  0
  1  2  2  0
  2  3  1  0
  3  4  1  0
  4  5  1  0
  5  6  2  0
  6  7  1  0
  7  8  1  0
  2  9  1  0
  9 10  1  0
 10 11  1  0
 11 12  1  0
 12 13  1  0
 13 14  1  0
 12 15  1  0
 15 16  1  0
 16 17  1  0
 17 18  1  0
 18 19  2  0
 19 20  1  0
 20 21  2  0
 21 22  1  0
 22 23  2  0
 17 24  1  0
 24 25  1  0
  8  4  2  0
 14  9  1  0
 23 18  1  0
 25 12  1  0
  3 26  1  0
  3 27  1  0
  5 28  1  0
  6 29  1  0
  8 30  1  0
 10 31  1  0
 10 32  1  0
 11 33  1  0
 11 34  1  0
 13 35  1  0
 13 36  1  0
 14 37  1  0
 14 38  1  0
 15 39  1  0
 15 40  1  0
 16 41  1  0
 16 42  1  0
 19 43  1  0
 20 44  1  0
 21 45  1  0
 22 46  1  0
 23 47  1  0
 24 48  1  0
 24 49  1  0
 25 50  1  0
 25 51  1  0
M  END
>  <UniqueID>  (78) 
76

>  <SMILES>  (78) 
O=C(Cc1ccsc1)N1CCC2(CC1)CCN(c1ccccc1)CC2

>  <Energy>  (78) 
91.0158298564916

>  <Genealogy>  (78) 
O=C(Cc1ccsc1)N1CCC2(CC1)CCN(c1ccccc1)CC2 (3D coordinates assigned)
O=C(Cc1ccsc1)N1CCC2(CC1)CCN(c1ccccc1)CC2 (nonaromatic ring conformer: 91.0158298564916 kcal/mol)

>  <smiles>  (78) 
O=C(Cc1ccsc1)N1CCC2(CC1)CCN(c1ccccc1)CC2

>  <score_type>  (78) 
oracle

>  <origin>  (78) 
adg

>  <m_score__min__energy>  (78) 
-8.2599999999999998

>  <m_primary>  (78) 
energy

$$$$
78:0
     RDKit          3D

 58 61  0  0  0  0  0  0  0  0999 V2000
   62.2940   33.8297   50.4572 H   0  0  0  0  0  0  0  0  0  0  0  0
   62.0520   33.9210   49.3880 C   0  0  0  0  0  0  0  0  0  0  0  0
   60.7790   34.1030   48.9910 C   0  0  0  0  0  0  0  0  0  0  0  0
   59.6430   34.0560   49.9870 C   0  0  0  0  0  0  0  0  0  0  0  0
   58.6972   33.9134   49.4438 H   0  0  0  0  0  0  0  0  0  0  0  0
   59.6348   35.0034   50.5459 H   0  0  0  0  0  0  0  0  0  0  0  0
   59.8200   32.9100   50.9870 C   0  0  0  0  0  0  0  0  0  0  0  0
   59.5795   33.2690   51.9986 H   0  0  0  0  0  0  0  0  0  0  0  0
   60.8620   32.5593   50.9533 H   0  0  0  0  0  0  0  0  0  0  0  0
   58.9300   31.8030   50.6420 N   0  0  0  0  0  0  0  0  0  0  0  0
   58.9500   31.1710   49.5100 C   0  0  0  0  0  0  0  0  0  0  0  0
   58.5370   31.7720   48.3630 N   0  0  0  0  0  0  0  0  0  0  0  0
   58.5690   31.1000   47.1810 C   0  0  0  0  0  0  0  0  0  0  0  0
   58.1360   31.7380   45.9620 N   0  0  0  0  0  0  0  0  0  0  0  0
   57.7120   33.1470   45.9530 C   0  0  0  0  0  0  0  0  0  0  0  0
   56.6131   33.1934   45.9347 H   0  0  0  0  0  0  0  0  0  0  0  0
   58.0995   33.6389   46.8574 H   0  0  0  0  0  0  0  0  0  0  0  0
   58.2680   33.8730   44.7190 C   0  0  0  0  0  0  0  0  0  0  0  0
   57.7205   34.8193   44.5977 H   0  0  0  0  0  0  0  0  0  0  0  0
   59.3427   34.0272   44.8959 H   0  0  0  0  0  0  0  0  0  0  0  0
   58.1400   33.0650   43.4080 C   0  0  0  0  0  0  0  0  0  0  0  0
   57.5924   33.6747   42.6742 H   0  0  0  0  0  0  0  0  0  0  0  0
   59.1598   32.8273   43.0711 H   0  0  0  0  0  0  0  0  0  0  0  0
   57.3990   31.7350   43.5850 C   0  0  0  0  0  0  0  0  0  0  0  0
   56.3401   31.9374   43.8035 H   0  0  0  0  0  0  0  0  0  0  0  0
   57.4912   31.1514   42.6572 H   0  0  0  0  0  0  0  0  0  0  0  0
   58.0060   30.9290   44.7380 C   0  0  0  0  0  0  0  0  0  0  0  0
   57.3577   30.0657   44.9490 H   0  0  0  0  0  0  0  0  0  0  0  0
   59.0120   30.6033   44.4350 H   0  0  0  0  0  0  0  0  0  0  0  0
   59.0100   29.8130   47.1610 N   0  0  0  0  0  0  0  0  0  0  0  0
   59.4080   29.1990   48.3030 C   0  0  0  0  0  0  0  0  0  0  0  0
   59.8360   27.9720   48.2510 N   0  0  0  0  0  0  0  0  0  0  0  0
   59.2730   26.9070   47.4670 C   0  0  0  0  0  0  0  0  0  0  0  0
   60.1360   26.0490   46.7780 C   0  0  0  0  0  0  0  0  0  0  0  0
   61.2244   26.1859   46.8601 H   0  0  0  0  0  0  0  0  0  0  0  0
   59.6230   25.0190   45.9860 C   0  0  0  0  0  0  0  0  0  0  0  0
   60.3090   24.3360   45.4635 H   0  0  0  0  0  0  0  0  0  0  0  0
   58.2420   24.8530   45.8550 C   0  0  0  0  0  0  0  0  0  0  0  0
   57.8454   24.0334   45.2377 H   0  0  0  0  0  0  0  0  0  0  0  0
   57.3570   25.7280   46.5080 C   0  0  0  0  0  0  0  0  0  0  0  0
   55.8950   25.5720   46.3360 C   0  0  0  0  0  0  0  0  0  0  0  0
   55.3450   24.4510   46.5050 O   0  0  0  0  0  0  0  0  0  0  0  0
   55.1060   26.6640   45.9920 O   0  0  0  0  0  0  0  0  0  0  0  0
   57.8810   26.7590   47.3100 C   0  0  0  0  0  0  0  0  0  0  0  0
   57.1978   27.4551   47.8185 H   0  0  0  0  0  0  0  0  0  0  0  0
   59.3870   29.8880   49.4750 N   0  0  0  0  0  0  0  0  0  0  0  0
   60.5040   34.2670   47.5140 C   0  0  0  0  0  0  0  0  0  0  0  0
   60.8409   35.2632   47.1913 H   0  0  0  0  0  0  0  0  0  0  0  0
   59.4237   34.1573   47.3385 H   0  0  0  0  0  0  0  0  0  0  0  0
   61.2530   33.1910   46.7040 C   0  0  0  0  0  0  0  0  0  0  0  0
   61.2945   33.5149   45.6536 H   0  0  0  0  0  0  0  0  0  0  0  0
   60.6986   32.2500   46.8348 H   0  0  0  0  0  0  0  0  0  0  0  0
   62.7050   32.9300   47.1930 C   0  0  0  0  0  0  0  0  0  0  0  0
   63.3904   33.0906   46.3478 H   0  0  0  0  0  0  0  0  0  0  0  0
   62.7374   31.8966   47.5684 H   0  0  0  0  0  0  0  0  0  0  0  0
   63.1400   33.8440   48.3520 C   0  0  0  0  0  0  0  0  0  0  0  0
   63.3435   34.8526   47.9629 H   0  0  0  0  0  0  0  0  0  0  0  0
   64.0481   33.4302   48.8146 H   0  0  0  0  0  0  0  0  0  0  0  0
  1  2  1  0
  2  3  2  0
  3  4  1  0
  4  5  1  0
  4  6  1  0
  4  7  1  0
  7  8  1  0
  7  9  1  0
  7 10  1  0
 10 11  2  0
 11 12  1  0
 12 13  2  0
 13 14  1  0
 14 15  1  0
 15 16  1  0
 15 17  1  0
 15 18  1  0
 18 19  1  0
 18 20  1  0
 18 21  1  0
 21 22  1  0
 21 23  1  0
 21 24  1  0
 24 25  1  0
 24 26  1  0
 24 27  1  0
 27 28  1  0
 27 29  1  0
 13 30  1  0
 30 31  1  0
 31 32  2  3
 32 33  1  0
 33 34  2  0
 34 35  1  0
 34 36  1  0
 36 37  1  0
 36 38  2  0
 38 39  1  0
 38 40  1  0
 40 41  1  0
 41 42  2  0
 41 43  1  0
 40 44  2  0
 44 45  1  0
 31 46  1  0
  3 47  1  0
 47 48  1  0
 47 49  1  0
 47 50  1  0
 50 51  1  0
 50 52  1  0
 50 53  1  0
 53 54  1  0
 53 55  1  0
 53 56  1  0
 56 57  1  0
 56 58  1  0
 56  2  1  0
 46 11  1  0
 27 14  1  0
 44 33  1  0
M  CHG  3  30  -1  43  -1  46  -1
M  END
>  <UniqueID>  (79) 
77

>  <SMILES>  (79) 
O=C([O-])c1cccc(N=c2[n-]c(N3CCCCC3)n/c(=N\CCC3=CCCCC3)[n-]2)c1

>  <Energy>  (79) 
63.234573344785794

>  <Genealogy>  (79) 
O=C([O-])c1cccc(N=c2[n-]c(N3CCCCC3)nc(=NCCC3=CCCCC3)[n-]2)c1 (protonated)
O=C([O-])c1cccc(N=c2[n-]c(N3CCCCC3)n/c(=N\CCC3=CCCCC3)[n-]2)c1 (cis-trans isomerization)
O=C([O-])c1cccc(N=c2[n-]c(N3CCCCC3)n/c(=N\CCC3=CCCCC3)[n-]2)c1 (3D coordinates assigned)
O=C([O-])c1cccc(N=c2[n-]c(N3CCCCC3)n/c(=N\CCC3=CCCCC3)[n-]2)c1 (nonaromatic ring conformer: 63.234573344785794 kcal/mol)

>  <smiles>  (79) 
O=C(O)c1cccc(N=c2[nH]c(N3CCCCC3)nc(=NCCC3=CCCCC3)[nH]2)c1

>  <score_type>  (79) 
oracle

>  <origin>  (79) 
adg

>  <m_score__min__energy>  (79) 
-14.380000000000001

>  <m_primary>  (79) 
energy

$$$$
79:0
     RDKit          3D

 65 69  0  0  0  0  0  0  0  0999 V2000
   60.0808   29.3000   48.6919 H   0  0  0  0  0  0  0  0  0  0  0  0
   59.4840   28.4600   48.3070 C   0  0  0  0  0  0  0  0  0  0  0  0
   59.5882   27.4606   48.7547 H   0  0  0  0  0  0  0  0  0  0  0  0
   58.6260   28.6550   47.2880 C   0  0  0  0  0  0  0  0  0  0  0  0
   57.7940   27.6990   46.6800 C   0  0  0  0  0  0  0  0  0  0  0  0
   57.5010   26.4290   47.0310 C   0  0  0  0  0  0  0  0  0  0  0  0
   57.7811   26.1137   48.0469 H   0  0  0  0  0  0  0  0  0  0  0  0
   56.8370   25.4220   46.1730 C   0  0  0  0  0  0  0  0  0  0  0  0
   55.5200   25.6040   45.7130 C   0  0  0  0  0  0  0  0  0  0  0  0
   54.7770   26.7130   46.1090 O   0  0  0  0  0  0  0  0  0  0  0  0
   54.9650   24.7000   44.8650 N   0  0  0  0  0  0  0  0  0  0  0  0
   55.6740   23.6300   44.4200 C   0  0  0  0  0  0  0  0  0  0  0  0
   55.1420   22.8110   43.6270 O   0  0  0  0  0  0  0  0  0  0  0  0
   56.9570   23.4500   44.8240 N   0  0  0  0  0  0  0  0  0  0  0  0
   57.5540   24.3190   45.6830 C   0  0  0  0  0  0  0  0  0  0  0  0
   58.7470   24.1200   46.0420 O   0  0  0  0  0  0  0  0  0  0  0  0
   57.2080   28.3300   45.5920 C   0  0  0  0  0  0  0  0  0  0  0  0
   56.5288   27.8730   44.8572 H   0  0  0  0  0  0  0  0  0  0  0  0
   57.6400   29.6400   45.6080 C   0  0  0  0  0  0  0  0  0  0  0  0
   57.1770   30.7040   44.6590 C   0  0  0  0  0  0  0  0  0  0  0  0
   56.8018   31.5663   45.2297 H   0  0  0  0  0  0  0  0  0  0  0  0
   58.0183   31.0216   44.0255 H   0  0  0  0  0  0  0  0  0  0  0  0
   56.3712   30.3049   44.0255 H   0  0  0  0  0  0  0  0  0  0  0  0
   58.4920   29.8430   46.6400 N   0  0  0  0  0  0  0  0  0  0  0  0
   59.0880   31.1030   46.9980 C   0  0  0  0  0  0  0  0  0  0  0  0
   59.6290   31.9410   46.0110 C   0  0  0  0  0  0  0  0  0  0  0  0
   59.5716   31.6494   44.9519 H   0  0  0  0  0  0  0  0  0  0  0  0
   60.2400   33.1440   46.3700 C   0  0  0  0  0  0  0  0  0  0  0  0
   60.6997   33.7778   45.5974 H   0  0  0  0  0  0  0  0  0  0  0  0
   60.2690   33.5450   47.7090 C   0  0  0  0  0  0  0  0  0  0  0  0
   60.7327   34.5036   47.9850 H   0  0  0  0  0  0  0  0  0  0  0  0
   59.7070   32.7260   48.7030 C   0  0  0  0  0  0  0  0  0  0  0  0
   59.7950   33.0930   50.1310 C   0  0  0  0  0  0  0  0  0  0  0  0
   58.9260   33.8850   50.5890 O   0  0  0  0  0  0  0  0  0  0  0  0
   60.8280   32.5860   51.0160 N   0  0  0  0  0  0  0  0  0  0  0  0
   60.3240   32.2760   51.8820 H   0  0  0  0  0  0  0  0  0  0  0  0
   61.7540   33.6430   51.4860 C   0  0  0  0  0  0  0  0  0  0  0  0
   61.1691   34.5562   51.6703 H   0  0  0  0  0  0  0  0  0  0  0  0
   62.2394   33.2552   52.3937 H   0  0  0  0  0  0  0  0  0  0  0  0
   62.8890   33.9870   50.4890 C   0  0  0  0  0  0  0  0  0  0  0  0
   62.5972   34.8847   49.9243 H   0  0  0  0  0  0  0  0  0  0  0  0
   63.8032   34.1470   51.0794 H   0  0  0  0  0  0  0  0  0  0  0  0
   63.1750   32.8960   49.5240 N   0  0  0  0  0  0  0  0  0  0  0  0
   64.5490   33.0070   48.9830 C   0  0  0  0  0  0  0  0  0  0  0  0
   64.6897   32.2505   48.1969 H   0  0  0  0  0  0  0  0  0  0  0  0
   64.6857   34.0172   48.5696 H   0  0  0  0  0  0  0  0  0  0  0  0
   65.5710   32.7860   50.0720 C   0  0  0  0  0  0  0  0  0  0  0  0
   66.0770   31.4990   50.2960 C   0  0  0  0  0  0  0  0  0  0  0  0
   65.6943   30.6498   49.7109 H   0  0  0  0  0  0  0  0  0  0  0  0
   67.0660   31.2910   51.2600 C   0  0  0  0  0  0  0  0  0  0  0  0
   67.4749   30.2822   51.4184 H   0  0  0  0  0  0  0  0  0  0  0  0
   67.5390   32.3670   52.0270 C   0  0  0  0  0  0  0  0  0  0  0  0
   68.3131   32.1982   52.7900 H   0  0  0  0  0  0  0  0  0  0  0  0
   67.0290   33.6530   51.8240 C   0  0  0  0  0  0  0  0  0  0  0  0
   67.3955   34.4946   52.4302 H   0  0  0  0  0  0  0  0  0  0  0  0
   66.0500   33.8650   50.8460 C   0  0  0  0  0  0  0  0  0  0  0  0
   65.6522   34.8770   50.6799 H   0  0  0  0  0  0  0  0  0  0  0  0
   62.9800   31.5780   50.1500 C   0  0  0  0  0  0  0  0  0  0  0  0
   63.3206   30.7913   49.4608 H   0  0  0  0  0  0  0  0  0  0  0  0
   63.5609   31.5268   51.0827 H   0  0  0  0  0  0  0  0  0  0  0  0
   61.4920   31.3730   50.4640 C   0  0  0  0  0  0  0  0  0  0  0  0
   60.9767   31.0863   49.5354 H   0  0  0  0  0  0  0  0  0  0  0  0
   61.4292   30.5910   51.2351 H   0  0  0  0  0  0  0  0  0  0  0  0
   59.1390   31.4940   48.3430 C   0  0  0  0  0  0  0  0  0  0  0  0
   58.7315   30.8315   49.1209 H   0  0  0  0  0  0  0  0  0  0  0  0
  1  2  1  0
  2  3  1  0
  2  4  2  0
  4  5  1  0
  5  6  2  0
  6  7  1  0
  6  8  1  0
  8  9  2  0
  9 10  1  0
  9 11  1  0
 11 12  1  0
 12 13  2  0
 12 14  1  0
 14 15  1  0
 15 16  2  0
  5 17  1  0
 17 18  1  0
 17 19  2  0
 19 20  1  0
 20 21  1  0
 20 22  1  0
 20 23  1  0
 19 24  1  0
 24 25  1  0
 25 26  2  0
 26 27  1  0
 26 28  1  0
 28 29  1  0
 28 30  2  0
 30 31  1  0
 30 32  1  0
 32 33  1  0
 33 34  2  0
 33 35  1  0
 35 36  1  0
 35 37  1  0
 37 38  1  0
 37 39  1  0
 37 40  1  0
 40 41  1  0
 40 42  1  0
 40 43  1  0
 43 44  1  0
 44 45  1  0
 44 46  1  0
 44 47  1  0
 47 48  2  0
 48 49  1  0
 48 50  1  0
 50 51  1  0
 50 52  2  0
 52 53  1  0
 52 54  1  0
 54 55  1  0
 54 56  2  0
 56 57  1  0
 43 58  1  0
 58 59  1  0
 58 60  1  0
 58 61  1  0
 61 62  1  0
 61 63  1  0
 32 64  2  0
 64 65  1  0
 24  4  1  0
 64 25  1  0
 15  8  1  0
 61 35  1  0
 56 47  1  0
M  CHG  4  10  -1  11  -1  14  -1  35   1
M  END
>  <UniqueID>  (80) 
78

>  <SMILES>  (80) 
C=c1/c(=C\c2c([O-])[n-]c(=O)[n-]c2=O)cc(C)n1-c1cccc(C(=O)[NH+]2CCN(Cc3ccccc3)CC2)c1

>  <Energy>  (80) 
138.89437706734063

>  <Genealogy>  (80) 
C=c1c(=Cc2c([O-])[n-]c(=O)[n-]c2=O)cc(C)n1-c1cccc(C(=O)[NH+]2CCN(Cc3ccccc3)CC2)c1 (protonated)
C=c1/c(=C\c2c([O-])[n-]c(=O)[n-]c2=O)cc(C)n1-c1cccc(C(=O)[NH+]2CCN(Cc3ccccc3)CC2)c1 (cis-trans isomerization)
C=c1/c(=C\c2c([O-])[n-]c(=O)[n-]c2=O)cc(C)n1-c1cccc(C(=O)[NH+]2CCN(Cc3ccccc3)CC2)c1 (3D coordinates assigned)
C=c1/c(=C\c2c([O-])[n-]c(=O)[n-]c2=O)cc(C)n1-c1cccc(C(=O)[NH+]2CCN(Cc3ccccc3)CC2)c1 (nonaromatic ring conformer: 138.89437706734063 kcal/mol)

>  <smiles>  (80) 
C=c1c(=Cc2c(O)[nH]c(=O)[nH]c2=O)cc(C)n1-c1cccc(C(=O)N2CCN(Cc3ccccc3)CC2)c1

>  <score_type>  (80) 
oracle

>  <origin>  (80) 
adg

>  <m_score__min__energy>  (80) 
-16.420000000000002

>  <m_primary>  (80) 
energy

$$$$
80:0
     RDKit          3D

 48 50  0  0  0  0  0  0  0  0999 V2000
   57.0490   24.5580   43.4030 C   0  0  0  0  0  0  0  0  0  0  0  0
   56.6440   23.2980   44.1710 C   0  0  0  0  0  0  0  0  0  0  0  0
   56.6110   22.0830   43.2400 C   0  0  0  0  0  0  0  0  0  0  0  0
   55.0470   23.5300   44.9490 S   0  0  0  0  0  0  0  0  0  0  0  0
   54.0220   23.7970   43.8820 O   0  0  0  0  0  0  0  0  0  0  0  0
   54.6800   22.2860   45.7090 O   0  0  0  0  0  0  0  0  0  0  0  0
   55.1360   24.8820   46.0340 N   0  0  0  0  0  0  0  0  0  0  0  0
   56.2950   25.6550   46.3850 C   0  0  0  0  0  0  0  0  0  0  0  0
   56.3240   26.9940   45.9770 C   0  0  0  0  0  0  0  0  0  0  0  0
   57.4150   27.8230   46.2770 C   0  0  0  0  0  0  0  0  0  0  0  0
   57.4010   29.2250   45.8020 C   0  0  0  0  0  0  0  0  0  0  0  0
   58.4070   30.1100   46.2160 C   0  0  0  0  0  0  0  0  0  0  0  0
   58.3960   31.4470   45.7880 C   0  0  0  0  0  0  0  0  0  0  0  0
   59.4320   32.3630   46.1940 N   0  0  0  0  0  0  0  0  0  0  0  0
   59.4500   33.7360   45.6810 C   0  0  0  0  0  0  0  0  0  0  0  0
   60.1370   34.6550   46.6960 C   0  0  0  0  0  0  0  0  0  0  0  0
   61.4080   34.1470   47.0560 O   0  0  0  0  0  0  0  0  0  0  0  0
   61.2560   32.9140   47.7350 C   0  0  0  0  0  0  0  0  0  0  0  0
   60.6620   31.8500   46.8070 C   0  0  0  0  0  0  0  0  0  0  0  0
   57.3610   31.8720   44.9420 C   0  0  0  0  0  0  0  0  0  0  0  0
   56.3870   31.0050   44.5630 N   0  0  0  0  0  0  0  0  0  0  0  0
   56.3740   29.7090   44.9700 C   0  0  0  0  0  0  0  0  0  0  0  0
   55.4350   28.9540   44.6030 O   0  0  0  0  0  0  0  0  0  0  0  0
   58.4960   27.3020   47.0200 C   0  0  0  0  0  0  0  0  0  0  0  0
   59.5820   28.0910   47.4010 O   0  0  0  0  0  0  0  0  0  0  0  0
   58.4820   25.9590   47.4080 C   0  0  0  0  0  0  0  0  0  0  0  0
   57.4000   25.1310   47.0920 C   0  0  0  0  0  0  0  0  0  0  0  0
   57.4570   23.7990   47.4820 O   0  0  0  0  0  0  0  0  0  0  0  0
   57.3053   25.3555   44.1160 H   0  0  0  0  0  0  0  0  0  0  0  0
   57.9215   24.3373   42.7705 H   0  0  0  0  0  0  0  0  0  0  0  0
   56.2113   24.8870   42.7705 H   0  0  0  0  0  0  0  0  0  0  0  0
   57.3948   23.1135   44.9535 H   0  0  0  0  0  0  0  0  0  0  0  0
   56.5860   21.1616   43.8404 H   0  0  0  0  0  0  0  0  0  0  0  0
   55.7138   22.1316   42.6054 H   0  0  0  0  0  0  0  0  0  0  0  0
   57.5095   22.0828   42.6054 H   0  0  0  0  0  0  0  0  0  0  0  0
   55.4749   27.4038   45.4103 H   0  0  0  0  0  0  0  0  0  0  0  0
   59.2090   29.7547   46.8797 H   0  0  0  0  0  0  0  0  0  0  0  0
   60.0016   33.7641   44.7297 H   0  0  0  0  0  0  0  0  0  0  0  0
   58.4175   34.0787   45.5183 H   0  0  0  0  0  0  0  0  0  0  0  0
   60.2606   35.6538   46.2519 H   0  0  0  0  0  0  0  0  0  0  0  0
   59.5118   34.7116   47.5993 H   0  0  0  0  0  0  0  0  0  0  0  0
   62.2403   32.5741   48.0895 H   0  0  0  0  0  0  0  0  0  0  0  0
   60.5725   33.0617   48.5841 H   0  0  0  0  0  0  0  0  0  0  0  0
   61.3890   31.6045   46.0188 H   0  0  0  0  0  0  0  0  0  0  0  0
   60.4305   30.9457   47.3890 H   0  0  0  0  0  0  0  0  0  0  0  0
   57.3382   32.9119   44.5841 H   0  0  0  0  0  0  0  0  0  0  0  0
   60.2910   28.4040   46.7500 H   0  0  0  0  0  0  0  0  0  0  0  0
   59.3338   25.5478   47.9696 H   0  0  0  0  0  0  0  0  0  0  0  0
  1  2  1  0
  2  3  1  0
  2  4  1  0
  4  5  2  0
  4  6  2  0
  4  7  1  0
  7  8  1  0
  8  9  2  0
  9 10  1  0
 10 11  1  0
 11 12  2  0
 12 13  1  0
 13 14  1  0
 14 15  1  0
 15 16  1  0
 16 17  1  0
 17 18  1  0
 18 19  1  0
 13 20  2  0
 20 21  1  0
 21 22  1  0
 22 23  2  0
 10 24  2  0
 24 25  1  0
 24 26  1  0
 26 27  2  0
 27 28  1  0
 27  8  1  0
 22 11  1  0
 19 14  1  0
  1 29  1  0
  1 30  1  0
  1 31  1  0
  2 32  1  0
  3 33  1  0
  3 34  1  0
  3 35  1  0
  9 36  1  0
 12 37  1  0
 15 38  1  0
 15 39  1  0
 16 40  1  0
 16 41  1  0
 18 42  1  0
 18 43  1  0
 19 44  1  0
 19 45  1  0
 20 46  1  0
 25 47  1  0
 26 48  1  0
M  CHG  3   7  -1  21  -1  28  -1
M  END
>  <UniqueID>  (81) 
79

>  <SMILES>  (81) 
CC(C)S(=O)(=O)[N-]c1cc(-c2cc(N3CCOCC3)c[n-]c2=O)c(O)cc1[O-]

>  <Energy>  (81) 
61.91248992676334

>  <Genealogy>  (81) 
CC(C)S(=O)(=O)[N-]c1cc(-c2cc(N3CCOCC3)c[n-]c2=O)c(O)cc1[O-] (protonated)
CC(C)S(=O)(=O)[N-]c1cc(-c2cc(N3CCOCC3)c[n-]c2=O)c(O)cc1[O-] (3D coordinates assigned)
CC(C)S(=O)(=O)[N-]c1cc(-c2cc(N3CCOCC3)c[n-]c2=O)c(O)cc1[O-] (nonaromatic ring conformer: 61.91248992676334 kcal/mol)

>  <smiles>  (81) 
CC(C)S(=O)(=O)Nc1cc(-c2cc(N3CCOCC3)c[nH]c2=O)c(O)cc1O

>  <score_type>  (81) 
oracle

>  <origin>  (81) 
adg

>  <m_score__min__energy>  (81) 
-12.73

>  <m_primary>  (81) 
energy

$$$$
81:0
     RDKit          3D

 38 39  0  0  0  0  0  0  0  0999 V2000
   57.4730   28.2390   43.2580 N   0  0  0  0  0  0  0  0  0  0  0  0
   56.4890   29.6020   43.6550 S   0  0  0  0  0  0  0  0  0  0  0  0
   55.3770   29.1790   44.5730 O   0  0  0  0  0  0  0  0  0  0  0  0
   55.8760   30.1380   42.3910 O   0  0  0  0  0  0  0  0  0  0  0  0
   57.4750   30.8590   44.4290 C   0  0  0  0  0  0  0  0  0  0  0  0
   57.7060   32.0530   43.7260 C   0  0  0  0  0  0  0  0  0  0  0  0
   58.4780   33.0730   44.2830 C   0  0  0  0  0  0  0  0  0  0  0  0
   59.0330   32.9150   45.5510 C   0  0  0  0  0  0  0  0  0  0  0  0
   58.8210   31.7350   46.2640 C   0  0  0  0  0  0  0  0  0  0  0  0
   58.0450   30.6950   45.7210 C   0  0  0  0  0  0  0  0  0  0  0  0
   57.8890   29.4230   46.5280 C   0  0  0  0  0  0  0  0  0  0  0  0
   57.9940   28.2300   45.6760 N   0  0  0  0  0  0  0  0  0  0  0  0
   58.7070   27.1200   46.3320 C   0  0  0  0  0  0  0  0  0  0  0  0
   57.7350   26.3270   47.2090 C   0  0  0  0  0  0  0  0  0  0  0  0
   57.0310   25.2650   46.4040 C   0  0  0  0  0  0  0  0  0  0  0  0
   57.6520   24.0220   46.1980 C   0  0  0  0  0  0  0  0  0  0  0  0
   57.0250   23.0370   45.4270 C   0  0  0  0  0  0  0  0  0  0  0  0
   55.7790   23.2890   44.8500 C   0  0  0  0  0  0  0  0  0  0  0  0
   55.1580   24.5270   45.0380 C   0  0  0  0  0  0  0  0  0  0  0  0
   55.7800   25.5160   45.8060 C   0  0  0  0  0  0  0  0  0  0  0  0
   55.1490   26.7460   45.9700 O   0  0  0  0  0  0  0  0  0  0  0  0
   57.1410   27.4420   43.8440 H   0  0  0  0  0  0  0  0  0  0  0  0
   58.4450   28.4610   43.5690 H   0  0  0  0  0  0  0  0  0  0  0  0
   57.2727   32.1855   42.7236 H   0  0  0  0  0  0  0  0  0  0  0  0
   58.6486   34.0028   43.7204 H   0  0  0  0  0  0  0  0  0  0  0  0
   59.6388   33.7213   45.9902 H   0  0  0  0  0  0  0  0  0  0  0  0
   59.2660   31.6163   47.2629 H   0  0  0  0  0  0  0  0  0  0  0  0
   58.6778   29.3862   47.2938 H   0  0  0  0  0  0  0  0  0  0  0  0
   56.8924   29.4289   46.9935 H   0  0  0  0  0  0  0  0  0  0  0  0
   57.0190   27.9130   45.4660 H   0  0  0  0  0  0  0  0  0  0  0  0
   59.1328   26.4557   45.5656 H   0  0  0  0  0  0  0  0  0  0  0  0
   59.5140   27.5265   46.9594 H   0  0  0  0  0  0  0  0  0  0  0  0
   58.2950   25.8482   48.0258 H   0  0  0  0  0  0  0  0  0  0  0  0
   56.9819   27.0187   47.6145 H   0  0  0  0  0  0  0  0  0  0  0  0
   58.6368   23.8218   46.6453 H   0  0  0  0  0  0  0  0  0  0  0  0
   57.5142   22.0635   45.2754 H   0  0  0  0  0  0  0  0  0  0  0  0
   55.2855   22.5126   44.2469 H   0  0  0  0  0  0  0  0  0  0  0  0
   54.1772   24.7237   44.5805 H   0  0  0  0  0  0  0  0  0  0  0  0
  1  2  1  0
  2  3  2  0
  2  4  2  0
  2  5  1  0
  5  6  2  0
  6  7  1  0
  7  8  2  0
  8  9  1  0
  9 10  2  0
 10 11  1  0
 11 12  1  0
 12 13  1  0
 13 14  1  0
 14 15  1  0
 15 16  2  0
 16 17  1  0
 17 18  2  0
 18 19  1  0
 19 20  2  0
 20 21  1  0
 10  5  1  0
 20 15  1  0
  1 22  1  0
  1 23  1  0
  6 24  1  0
  7 25  1  0
  8 26  1  0
  9 27  1  0
 11 28  1  0
 11 29  1  0
 12 30  1  0
 13 31  1  0
 13 32  1  0
 14 33  1  0
 14 34  1  0
 16 35  1  0
 17 36  1  0
 18 37  1  0
 19 38  1  0
M  CHG  1  21  -1
M  END
>  <UniqueID>  (82) 
80

>  <SMILES>  (82) 
NS(=O)(=O)c1ccccc1CNCCc1ccccc1[O-]

>  <Energy>  (82) 
36.546603613229586

>  <Genealogy>  (82) 
NS(=O)(=O)c1ccccc1CNCCc1ccccc1[O-] (protonated)
NS(=O)(=O)c1ccccc1CNCCc1ccccc1[O-] (3D coordinates assigned)
NS(=O)(=O)c1ccccc1CNCCc1ccccc1[O-] (optimized conformer: 36.546603613229586 kcal/mol)

>  <smiles>  (82) 
NS(=O)(=O)c1ccccc1CNCCc1ccccc1O

>  <score_type>  (82) 
oracle

>  <origin>  (82) 
adg

>  <m_score__min__energy>  (82) 
-11.43

>  <m_primary>  (82) 
energy

$$$$
82:0
     RDKit          3D

 14 14  0  0  0  0  0  0  0  0999 V2000
   54.7570   26.7740   46.7820 H   0  0  0  0  0  0  0  0  0  0  0  0
   55.4350   26.6100   46.0030 N   0  0  0  0  0  0  0  0  0  0  0  0
   56.2750   27.5210   45.6360 C   0  0  0  0  0  0  0  0  0  0  0  0
   57.6070   27.2520   45.6450 N   0  0  0  0  0  0  0  0  0  0  0  0
   58.5160   28.1910   45.2630 C   0  0  0  0  0  0  0  0  0  0  0  0
   59.9760   27.8670   45.2830 C   0  0  0  0  0  0  0  0  0  0  0  0
   60.3204   27.7906   46.3249 H   0  0  0  0  0  0  0  0  0  0  0  0
   60.1461   26.9093   44.7694 H   0  0  0  0  0  0  0  0  0  0  0  0
   60.5353   28.6629   44.7694 H   0  0  0  0  0  0  0  0  0  0  0  0
   58.0740   29.4540   44.8540 C   0  0  0  0  0  0  0  0  0  0  0  0
   58.7916   30.2270   44.5418 H   0  0  0  0  0  0  0  0  0  0  0  0
   56.7020   29.7110   44.8510 C   0  0  0  0  0  0  0  0  0  0  0  0
   56.2700   30.8360   44.4890 O   0  0  0  0  0  0  0  0  0  0  0  0
   55.8310   28.7440   45.2410 N   0  0  0  0  0  0  0  0  0  0  0  0
  1  2  1  0
  2  3  2  0
  3  4  1  0
  4  5  1  0
  5  6  1  0
  6  7  1  0
  6  8  1  0
  6  9  1  0
  5 10  2  0
 10 11  1  0
 10 12  1  0
 12 13  2  0
 12 14  1  0
 14  3  1  0
M  CHG  2   4  -1  14  -1
M  END
>  <UniqueID>  (83) 
81

>  <SMILES>  (83) 
[H]/N=c1/[n-]c(C)cc(=O)[n-]1

>  <Energy>  (83) 
11.976903651522864

>  <Genealogy>  (83) 
Cc1cc(=O)[n-]c(=N)[n-]1 (protonated)
[H]/N=c1/[n-]c(C)cc(=O)[n-]1 (cis-trans isomerization)
[H]/N=c1/[n-]c(C)cc(=O)[n-]1 (3D coordinates assigned)
[H]/N=c1/[n-]c(C)cc(=O)[n-]1 (optimized conformer: 11.976903651522864 kcal/mol)

>  <smiles>  (83) 
Cc1cc(=O)[nH]c(=N)[nH]1

>  <score_type>  (83) 
oracle

>  <origin>  (83) 
adg

>  <m_score__min__energy>  (83) 
-10.279999999999999

>  <m_primary>  (83) 
energy

$$$$
83:0
     RDKit          3D

 32 33  0  0  0  0  0  0  0  0999 V2000
   57.7350   24.5780   47.8310 C   0  0  0  0  0  0  0  0  0  0  0  0
   58.0490   25.5170   46.9310 C   0  0  0  0  0  0  0  0  0  0  0  0
   58.7940   26.5920   47.2480 N   0  0  0  0  0  0  0  0  0  0  0  0
   58.9270   27.3320   46.1340 C   0  0  0  0  0  0  0  0  0  0  0  0
   59.6370   28.6500   46.1100 C   0  0  0  0  0  0  0  0  0  0  0  0
   58.2610   26.7360   45.0680 C   0  0  0  0  0  0  0  0  0  0  0  0
   57.9930   27.4220   43.7440 C   0  0  0  0  0  0  0  0  0  0  0  0
   57.8060   28.9370   43.9030 C   0  0  0  0  0  0  0  0  0  0  0  0
   56.7750   29.2610   44.9400 C   0  0  0  0  0  0  0  0  0  0  0  0
   57.1150   29.8080   46.0220 O   0  0  0  0  0  0  0  0  0  0  0  0
   55.4450   28.9180   44.7300 O   0  0  0  0  0  0  0  0  0  0  0  0
   57.7010   25.5480   45.5750 C   0  0  0  0  0  0  0  0  0  0  0  0
   56.9400   24.6290   44.9410 C   0  0  0  0  0  0  0  0  0  0  0  0
   55.4760   24.5430   45.0170 C   0  0  0  0  0  0  0  0  0  0  0  0
   54.7670   23.4450   44.6970 N   0  0  0  0  0  0  0  0  0  0  0  0
   53.5110   23.7670   45.0720 C   0  0  0  0  0  0  0  0  0  0  0  0
   52.5360   22.9860   44.9140 O   0  0  0  0  0  0  0  0  0  0  0  0
   53.3820   24.9850   45.6400 N   0  0  0  0  0  0  0  0  0  0  0  0
   54.6380   25.4570   45.6130 C   0  0  0  0  0  0  0  0  0  0  0  0
   55.0030   26.6990   46.1250 O   0  0  0  0  0  0  0  0  0  0  0  0
   57.1236   23.7134   47.5333 H   0  0  0  0  0  0  0  0  0  0  0  0
   58.0883   24.6706   48.8686 H   0  0  0  0  0  0  0  0  0  0  0  0
   59.1830   26.8250   48.1910 H   0  0  0  0  0  0  0  0  0  0  0  0
   59.8188   28.9874   47.1411 H   0  0  0  0  0  0  0  0  0  0  0  0
   60.5976   28.5395   45.5856 H   0  0  0  0  0  0  0  0  0  0  0  0
   59.0162   29.3914   45.5856 H   0  0  0  0  0  0  0  0  0  0  0  0
   58.8440   27.2388   43.0715 H   0  0  0  0  0  0  0  0  0  0  0  0
   57.0607   27.0082   43.3321 H   0  0  0  0  0  0  0  0  0  0  0  0
   58.7651   29.3854   44.2013 H   0  0  0  0  0  0  0  0  0  0  0  0
   57.4639   29.3437   42.9399 H   0  0  0  0  0  0  0  0  0  0  0  0
   57.4587   23.8856   44.3179 H   0  0  0  0  0  0  0  0  0  0  0  0
   55.1460   27.4960   45.5160 H   0  0  0  0  0  0  0  0  0  0  0  0
  1  2  2  0
  2  3  1  0
  3  4  1  0
  4  5  1  0
  4  6  2  0
  6  7  1  0
  7  8  1  0
  8  9  1  0
  9 10  2  0
  9 11  1  0
  6 12  1  0
 12 13  2  3
 13 14  1  0
 14 15  1  0
 15 16  1  0
 16 17  2  0
 16 18  1  0
 18 19  1  0
 19 20  1  0
 12  2  1  0
 19 14  2  0
  1 21  1  0
  1 22  1  0
  3 23  1  0
  5 24  1  0
  5 25  1  0
  5 26  1  0
  7 27  1  0
  7 28  1  0
  8 29  1  0
  8 30  1  0
 13 31  1  0
 20 32  1  0
M  CHG  3  11  -1  15  -1  18  -1
M  END
>  <UniqueID>  (84) 
82

>  <SMILES>  (84) 
C=c1[nH]c(C)c(CCC(=O)[O-])c1=Cc1[n-]c(=O)[n-]c1O

>  <Energy>  (84) 
95.17224920859287

>  <Genealogy>  (84) 
C=c1[nH]c(C)c(CCC(=O)[O-])c1=Cc1[n-]c(=O)[n-]c1O (protonated)
C=c1[nH]c(C)c(CCC(=O)[O-])c1=Cc1[n-]c(=O)[n-]c1O (3D coordinates assigned)
C=c1[nH]c(C)c(CCC(=O)[O-])c1=Cc1[n-]c(=O)[n-]c1O (optimized conformer: 95.17224920859287 kcal/mol)

>  <smiles>  (84) 
C=c1[nH]c(C)c(CCC(=O)O)c1=Cc1[nH]c(=O)[nH]c1O

>  <score_type>  (84) 
oracle

>  <origin>  (84) 
adg

>  <m_score__min__energy>  (84) 
-13.779999999999999

>  <m_primary>  (84) 
energy

$$$$
84:0
     RDKit          3D

 46 49  0  0  0  0  0  0  0  0999 V2000
   59.7246   29.6164   49.3741 H   0  0  0  0  0  0  0  0  0  0  0  0
   59.3970   29.1290   48.4440 C   0  0  0  0  0  0  0  0  0  0  0  0
   59.4614   28.0355   48.3439 H   0  0  0  0  0  0  0  0  0  0  0  0
   58.9190   29.8680   47.4320 C   0  0  0  0  0  0  0  0  0  0  0  0
   58.4650   29.3980   46.1920 C   0  0  0  0  0  0  0  0  0  0  0  0
   58.4350   28.1130   45.7770 C   0  0  0  0  0  0  0  0  0  0  0  0
   59.3268   27.7319   45.2580 H   0  0  0  0  0  0  0  0  0  0  0  0
   57.3060   27.1730   45.9600 C   0  0  0  0  0  0  0  0  0  0  0  0
   57.3750   25.9530   46.5220 N   0  0  0  0  0  0  0  0  0  0  0  0
   56.0960   25.5180   46.4940 C   0  0  0  0  0  0  0  0  0  0  0  0
   55.7530   24.3910   46.9370 O   0  0  0  0  0  0  0  0  0  0  0  0
   55.2150   26.3880   45.9570 N   0  0  0  0  0  0  0  0  0  0  0  0
   55.9950   27.4300   45.6290 C   0  0  0  0  0  0  0  0  0  0  0  0
   55.5190   28.5940   45.0390 O   0  0  0  0  0  0  0  0  0  0  0  0
   58.0240   30.5190   45.4950 C   0  0  0  0  0  0  0  0  0  0  0  0
   57.5891   30.5346   44.4847 H   0  0  0  0  0  0  0  0  0  0  0  0
   58.2380   31.6080   46.3170 C   0  0  0  0  0  0  0  0  0  0  0  0
   57.8620   33.0200   45.9880 C   0  0  0  0  0  0  0  0  0  0  0  0
   57.7113   33.5858   46.9192 H   0  0  0  0  0  0  0  0  0  0  0  0
   58.6672   33.4867   45.4016 H   0  0  0  0  0  0  0  0  0  0  0  0
   56.9314   33.0245   45.4016 H   0  0  0  0  0  0  0  0  0  0  0  0
   58.7850   31.2150   47.4840 N   0  0  0  0  0  0  0  0  0  0  0  0
   59.1110   32.0800   48.5870 C   0  0  0  0  0  0  0  0  0  0  0  0
   58.3180   32.0240   49.7420 C   0  0  0  0  0  0  0  0  0  0  0  0
   57.4701   31.3248   49.7891 H   0  0  0  0  0  0  0  0  0  0  0  0
   58.5970   32.8490   50.8320 C   0  0  0  0  0  0  0  0  0  0  0  0
   57.9740   32.7944   51.7369 H   0  0  0  0  0  0  0  0  0  0  0  0
   59.6660   33.7430   50.7740 C   0  0  0  0  0  0  0  0  0  0  0  0
   59.8820   34.3962   51.6323 H   0  0  0  0  0  0  0  0  0  0  0  0
   60.4630   33.8110   49.6290 C   0  0  0  0  0  0  0  0  0  0  0  0
   61.2975   34.5265   49.5888 H   0  0  0  0  0  0  0  0  0  0  0  0
   60.2100   32.9740   48.5260 C   0  0  0  0  0  0  0  0  0  0  0  0
   61.0670   33.0790   47.3140 C   0  0  0  0  0  0  0  0  0  0  0  0
   60.6380   33.6870   46.2990 O   0  0  0  0  0  0  0  0  0  0  0  0
   62.4140   32.5850   47.2870 N   0  0  0  0  0  0  0  0  0  0  0  0
   63.2790   32.3770   48.4130 C   0  0  0  0  0  0  0  0  0  0  0  0
   64.4330   33.1540   48.6140 C   0  0  0  0  0  0  0  0  0  0  0  0
   64.6988   33.9380   47.8896 H   0  0  0  0  0  0  0  0  0  0  0  0
   65.2440   32.9340   49.7310 C   0  0  0  0  0  0  0  0  0  0  0  0
   66.1526   33.5367   49.8768 H   0  0  0  0  0  0  0  0  0  0  0  0
   64.9030   31.9500   50.6630 C   0  0  0  0  0  0  0  0  0  0  0  0
   65.6920   31.7430   51.7460 F   0  0  0  0  0  0  0  0  0  0  0  0
   63.7420   31.1900   50.4820 C   0  0  0  0  0  0  0  0  0  0  0  0
   63.3940   30.2170   51.4110 O   0  0  0  0  0  0  0  0  0  0  0  0
   62.9310   31.4080   49.3630 C   0  0  0  0  0  0  0  0  0  0  0  0
   62.0144   30.8149   49.2283 H   0  0  0  0  0  0  0  0  0  0  0  0
  1  2  1  0
  2  3  1  0
  2  4  2  0
  4  5  1  0
  5  6  2  0
  6  7  1  0
  6  8  1  0
  8  9  1  0
  9 10  1  0
 10 11  2  0
 10 12  1  0
 12 13  1  0
 13 14  1  0
  5 15  1  0
 15 16  1  0
 15 17  2  0
 17 18  1  0
 18 19  1  0
 18 20  1  0
 18 21  1  0
 17 22  1  0
 22 23  1  0
 23 24  2  0
 24 25  1  0
 24 26  1  0
 26 27  1  0
 26 28  2  0
 28 29  1  0
 28 30  1  0
 30 31  1  0
 30 32  2  0
 32 33  1  0
 33 34  2  0
 33 35  1  0
 35 36  1  0
 36 37  2  0
 37 38  1  0
 37 39  1  0
 39 40  1  0
 39 41  2  0
 41 42  1  0
 41 43  1  0
 43 44  1  0
 43 45  2  0
 45 46  1  0
 22  4  1  0
 32 23  1  0
 45 36  1  0
 13  8  2  0
M  CHG  5   9  -1  12  -1  14  -1  35  -1  44  -1
M  END
>  <UniqueID>  (85) 
83

>  <SMILES>  (85) 
C=c1/c(=C/c2[n-]c(=O)[n-]c2[O-])cc(C)n1-c1ccccc1C(=O)[N-]c1ccc(F)c([O-])c1

>  <Energy>  (85) 
127.13282731535688

>  <Genealogy>  (85) 
C=c1c(=Cc2[n-]c(=O)[n-]c2[O-])cc(C)n1-c1ccccc1C(=O)[N-]c1ccc(F)c([O-])c1 (protonated)
C=c1/c(=C/c2[n-]c(=O)[n-]c2[O-])cc(C)n1-c1ccccc1C(=O)[N-]c1ccc(F)c([O-])c1 (cis-trans isomerization)
C=c1/c(=C/c2[n-]c(=O)[n-]c2[O-])cc(C)n1-c1ccccc1C(=O)[N-]c1ccc(F)c([O-])c1 (3D coordinates assigned)
C=c1/c(=C/c2[n-]c(=O)[n-]c2[O-])cc(C)n1-c1ccccc1C(=O)[N-]c1ccc(F)c([O-])c1 (optimized conformer: 127.13282731535688 kcal/mol)

>  <smiles>  (85) 
C=c1c(=Cc2[nH]c(=O)[nH]c2O)cc(C)n1-c1ccccc1C(=O)Nc1ccc(F)c(O)c1

>  <score_type>  (85) 
oracle

>  <origin>  (85) 
adg

>  <m_score__min__energy>  (85) 
-19.879999999999999

>  <m_primary>  (85) 
energy

$$$$
85:0
     RDKit          3D

 49 52  0  0  0  0  0  0  0  0999 V2000
   56.3180   29.1770   44.7910 C   0  0  0  0  0  0  0  0  0  0  0  0
   57.5920   28.7590   44.7530 C   0  0  0  0  0  0  0  0  0  0  0  0
   58.0510   27.4330   44.7050 C   0  0  0  0  0  0  0  0  0  0  0  0
   57.3980   26.2810   44.4580 C   0  0  0  0  0  0  0  0  0  0  0  0
   56.8540   25.3670   45.4780 C   0  0  0  0  0  0  0  0  0  0  0  0
   57.5060   24.3060   45.9860 N   0  0  0  0  0  0  0  0  0  0  0  0
   56.6800   23.8690   46.9630 C   0  0  0  0  0  0  0  0  0  0  0  0
   56.9400   22.8580   47.6650 O   0  0  0  0  0  0  0  0  0  0  0  0
   55.5580   24.6020   47.1260 N   0  0  0  0  0  0  0  0  0  0  0  0
   55.6950   25.5550   46.1900 C   0  0  0  0  0  0  0  0  0  0  0  0
   54.7760   26.5760   45.9920 O   0  0  0  0  0  0  0  0  0  0  0  0
   59.4160   27.4860   44.9440 C   0  0  0  0  0  0  0  0  0  0  0  0
   59.7530   28.8190   45.0420 C   0  0  0  0  0  0  0  0  0  0  0  0
   61.1370   29.3370   45.2890 C   0  0  0  0  0  0  0  0  0  0  0  0
   58.6480   29.5890   44.9340 N   0  0  0  0  0  0  0  0  0  0  0  0
   58.6170   31.0240   45.0170 C   0  0  0  0  0  0  0  0  0  0  0  0
   58.1240   31.7620   43.9300 C   0  0  0  0  0  0  0  0  0  0  0  0
   58.1040   33.1560   43.9750 C   0  0  0  0  0  0  0  0  0  0  0  0
   58.5930   33.8270   45.0980 C   0  0  0  0  0  0  0  0  0  0  0  0
   59.1030   33.1050   46.1870 C   0  0  0  0  0  0  0  0  0  0  0  0
   59.6470   33.8360   47.3450 C   0  0  0  0  0  0  0  0  0  0  0  0
   58.8920   34.6530   47.9410 O   0  0  0  0  0  0  0  0  0  0  0  0
   61.0090   33.6410   47.7950 N   0  0  0  0  0  0  0  0  0  0  0  0
   61.9040   32.7010   47.1050 C   0  0  0  0  0  0  0  0  0  0  0  0
   63.3680   33.1070   47.3000 C   0  0  0  0  0  0  0  0  0  0  0  0
   63.6500   33.3210   48.6670 O   0  0  0  0  0  0  0  0  0  0  0  0
   62.9240   34.4440   49.1250 C   0  0  0  0  0  0  0  0  0  0  0  0
   61.4200   34.1600   49.1070 C   0  0  0  0  0  0  0  0  0  0  0  0
   59.0890   31.6980   46.1640 C   0  0  0  0  0  0  0  0  0  0  0  0
   59.5230   30.9890   47.2880 O   0  0  0  0  0  0  0  0  0  0  0  0
   56.0931   30.2532   44.8270 H   0  0  0  0  0  0  0  0  0  0  0  0
   55.4982   28.4436   44.7862 H   0  0  0  0  0  0  0  0  0  0  0  0
   57.2588   25.9981   43.4041 H   0  0  0  0  0  0  0  0  0  0  0  0
   60.0989   26.6287   45.0374 H   0  0  0  0  0  0  0  0  0  0  0  0
   61.3156   29.4038   46.3723 H   0  0  0  0  0  0  0  0  0  0  0  0
   61.8706   28.6526   44.8380 H   0  0  0  0  0  0  0  0  0  0  0  0
   61.2409   30.3349   44.8380 H   0  0  0  0  0  0  0  0  0  0  0  0
   57.7512   31.2382   43.0374 H   0  0  0  0  0  0  0  0  0  0  0  0
   57.7026   33.7274   43.1251 H   0  0  0  0  0  0  0  0  0  0  0  0
   58.5781   34.9265   45.1286 H   0  0  0  0  0  0  0  0  0  0  0  0
   61.7516   31.6911   47.5135 H   0  0  0  0  0  0  0  0  0  0  0  0
   61.6725   32.7161   46.0297 H   0  0  0  0  0  0  0  0  0  0  0  0
   64.0185   32.3062   46.9184 H   0  0  0  0  0  0  0  0  0  0  0  0
   63.5512   34.0424   46.7510 H   0  0  0  0  0  0  0  0  0  0  0  0
   63.2347   34.6799   50.1535 H   0  0  0  0  0  0  0  0  0  0  0  0
   63.1313   35.2947   48.4592 H   0  0  0  0  0  0  0  0  0  0  0  0
   61.1831   33.4152   49.8811 H   0  0  0  0  0  0  0  0  0  0  0  0
   60.8790   35.0973   49.3037 H   0  0  0  0  0  0  0  0  0  0  0  0
   59.4910   29.9780   47.3420 H   0  0  0  0  0  0  0  0  0  0  0  0
  1  2  2  0
  2  3  1  0
  3  4  2  3
  4  5  1  0
  5  6  1  0
  6  7  1  0
  7  8  2  0
  7  9  1  0
  9 10  1  0
 10 11  1  0
  3 12  1  0
 12 13  2  0
 13 14  1  0
 13 15  1  0
 15 16  1  0
 16 17  2  0
 17 18  1  0
 18 19  2  0
 19 20  1  0
 20 21  1  0
 21 22  2  0
 21 23  1  0
 23 24  1  0
 24 25  1  0
 25 26  1  0
 26 27  1  0
 27 28  1  0
 20 29  2  0
 29 30  1  0
 15  2  1  0
 29 16  1  0
 10  5  2  0
 28 23  1  0
  1 31  1  0
  1 32  1  0
  4 33  1  0
 12 34  1  0
 14 35  1  0
 14 36  1  0
 14 37  1  0
 17 38  1  0
 18 39  1  0
 19 40  1  0
 24 41  1  0
 24 42  1  0
 25 43  1  0
 25 44  1  0
 27 45  1  0
 27 46  1  0
 28 47  1  0
 28 48  1  0
 30 49  1  0
M  CHG  3   6  -1   9  -1  11  -1
M  END
>  <UniqueID>  (86) 
84

>  <SMILES>  (86) 
C=c1c(=Cc2[n-]c(=O)[n-]c2[O-])cc(C)n1-c1cccc(C(=O)N2CCOCC2)c1O

>  <Energy>  (86) 
135.5752704177391

>  <Genealogy>  (86) 
C=c1c(=Cc2[n-]c(=O)[n-]c2[O-])cc(C)n1-c1cccc(C(=O)N2CCOCC2)c1O (protonated)
C=c1c(=Cc2[n-]c(=O)[n-]c2[O-])cc(C)n1-c1cccc(C(=O)N2CCOCC2)c1O (3D coordinates assigned)
C=c1c(=Cc2[n-]c(=O)[n-]c2[O-])cc(C)n1-c1cccc(C(=O)N2CCOCC2)c1O (nonaromatic ring conformer: 135.5752704177391 kcal/mol)

>  <smiles>  (86) 
C=c1c(=Cc2[nH]c(=O)[nH]c2O)cc(C)n1-c1cccc(C(=O)N2CCOCC2)c1O

>  <score_type>  (86) 
oracle

>  <origin>  (86) 
adg

>  <m_score__min__energy>  (86) 
-16.399999999999999

>  <m_primary>  (86) 
energy

$$$$
86:0
     RDKit          3D

 41 43  0  0  0  0  0  0  0  0999 V2000
   54.3270   28.7190   44.4950 H   0  0  0  0  0  0  0  0  0  0  0  0
   55.0680   29.3630   44.7330 O   0  0  0  0  0  0  0  0  0  0  0  0
   56.3770   28.9560   44.9940 C   0  0  0  0  0  0  0  0  0  0  0  0
   56.7820   27.8330   45.7240 C   0  0  0  0  0  0  0  0  0  0  0  0
   55.9840   26.8360   46.3740 N   0  0  0  0  0  0  0  0  0  0  0  0
   55.0740   26.1880   45.7700 N   0  0  0  0  0  0  0  0  0  0  0  0
   55.2170   24.7620   45.5140 C   0  0  0  0  0  0  0  0  0  0  0  0
   54.5030   24.4612   44.7332 H   0  0  0  0  0  0  0  0  0  0  0  0
   55.0156   24.2119   46.4450 H   0  0  0  0  0  0  0  0  0  0  0  0
   56.6120   24.4460   45.0560 C   0  0  0  0  0  0  0  0  0  0  0  0
   57.3920   24.2479   45.8059 H   0  0  0  0  0  0  0  0  0  0  0  0
   56.9270   24.4000   43.7590 C   0  0  0  0  0  0  0  0  0  0  0  0
   57.9568   24.1661   43.4511 H   0  0  0  0  0  0  0  0  0  0  0  0
   56.1567   24.5960   42.9986 H   0  0  0  0  0  0  0  0  0  0  0  0
   58.1590   27.8620   45.7240 C   0  0  0  0  0  0  0  0  0  0  0  0
   59.0850   27.0010   46.3070 C   0  0  0  0  0  0  0  0  0  0  0  0
   58.7544   26.1190   46.8751 H   0  0  0  0  0  0  0  0  0  0  0  0
   60.4600   27.2880   46.1510 C   0  0  0  0  0  0  0  0  0  0  0  0
   61.4500   26.4250   46.7370 N   0  0  0  0  0  0  0  0  0  0  0  0
   61.5180   26.2800   47.9750 O   0  0  0  0  0  0  0  0  0  0  0  0
   62.3420   25.7430   45.9400 O   0  0  0  0  0  0  0  0  0  0  0  0
   60.8500   28.4360   45.4100 C   0  0  0  0  0  0  0  0  0  0  0  0
   61.9190   28.6633   45.2855 H   0  0  0  0  0  0  0  0  0  0  0  0
   59.8900   29.2850   44.8340 C   0  0  0  0  0  0  0  0  0  0  0  0
   60.1930   30.1730   44.2599 H   0  0  0  0  0  0  0  0  0  0  0  0
   58.5410   28.9710   45.0100 C   0  0  0  0  0  0  0  0  0  0  0  0
   57.4600   29.6440   44.5540 N   0  0  0  0  0  0  0  0  0  0  0  0
   57.4460   30.9080   43.8140 C   0  0  0  0  0  0  0  0  0  0  0  0
   58.2115   30.8751   43.0248 H   0  0  0  0  0  0  0  0  0  0  0  0
   56.4508   31.0506   43.3676 H   0  0  0  0  0  0  0  0  0  0  0  0
   57.7370   32.0590   44.7410 C   0  0  0  0  0  0  0  0  0  0  0  0
   58.3420   31.8250   45.9870 C   0  0  0  0  0  0  0  0  0  0  0  0
   58.5873   30.7970   46.2919 H   0  0  0  0  0  0  0  0  0  0  0  0
   58.6340   32.8930   46.8420 C   0  0  0  0  0  0  0  0  0  0  0  0
   59.1079   32.7033   47.8164 H   0  0  0  0  0  0  0  0  0  0  0  0
   58.3240   34.2010   46.4590 C   0  0  0  0  0  0  0  0  0  0  0  0
   58.5548   35.0402   47.1317 H   0  0  0  0  0  0  0  0  0  0  0  0
   57.7210   34.4430   45.2220 C   0  0  0  0  0  0  0  0  0  0  0  0
   57.4770   35.4729   44.9223 H   0  0  0  0  0  0  0  0  0  0  0  0
   57.4270   33.3780   44.3640 C   0  0  0  0  0  0  0  0  0  0  0  0
   56.9518   33.5728   43.3913 H   0  0  0  0  0  0  0  0  0  0  0  0
  1  2  1  0
  2  3  1  0
  3  4  2  0
  4  5  1  0
  5  6  2  0
  6  7  1  0
  7  8  1  0
  7  9  1  0
  7 10  1  0
 10 11  1  0
 10 12  2  0
 12 13  1  0
 12 14  1  0
  4 15  1  0
 15 16  2  0
 16 17  1  0
 16 18  1  0
 18 19  1  0
 19 20  2  0
 19 21  1  0
 18 22  2  0
 22 23  1  0
 22 24  1  0
 24 25  1  0
 24 26  2  0
 26 27  1  0
 27 28  1  0
 28 29  1  0
 28 30  1  0
 28 31  1  0
 31 32  2  0
 32 33  1  0
 32 34  1  0
 34 35  1  0
 34 36  2  0
 36 37  1  0
 36 38  1  0
 38 39  1  0
 38 40  2  0
 40 41  1  0
 27  3  1  0
 40 31  1  0
 26 15  1  0
M  CHG  2  19   1  21  -1
M  END
>  <UniqueID>  (87) 
85

>  <SMILES>  (87) 
C=CC/N=N/c1c(O)n(Cc2ccccc2)c2ccc([N+](=O)[O-])cc12

>  <Energy>  (87) 
74.97697464812471

>  <Genealogy>  (87) 
C=CC/N=N/c1c(O)n(Cc2ccccc2)c2ccc([N+](=O)[O-])cc12 (cis-trans isomerization)
C=CC/N=N/c1c(O)n(Cc2ccccc2)c2ccc([N+](=O)[O-])cc12 (3D coordinates assigned)
C=CC/N=N/c1c(O)n(Cc2ccccc2)c2ccc([N+](=O)[O-])cc12 (optimized conformer: 74.97697464812471 kcal/mol)

>  <smiles>  (87) 
C=CCN=Nc1c(O)n(Cc2ccccc2)c2ccc([N+](=O)[O-])cc12

>  <score_type>  (87) 
oracle

>  <origin>  (87) 
adg

>  <m_score__min__energy>  (87) 
-8.0500000000000007

>  <m_primary>  (87) 
energy

$$$$
87:0
     RDKit          3D

 55 58  0  0  0  0  0  0  0  0999 V2000
   62.4470   34.1050   46.9890 O   0  0  0  0  0  0  0  0  0  0  0  0
   61.2090   33.8880   46.8370 C   0  0  0  0  0  0  0  0  0  0  0  0
   60.3370   34.9820   46.3260 C   0  0  0  0  0  0  0  0  0  0  0  0
   58.9800   34.9310   47.0230 C   0  0  0  0  0  0  0  0  0  0  0  0
   58.0030   34.0160   46.2870 C   0  0  0  0  0  0  0  0  0  0  0  0
   58.4110   32.5740   46.0440 C   0  0  0  0  0  0  0  0  0  0  0  0
   57.4550   31.8000   45.3590 C   0  0  0  0  0  0  0  0  0  0  0  0
   57.6540   30.4410   45.1120 C   0  0  0  0  0  0  0  0  0  0  0  0
   56.3880   29.5100   44.3180 S   0  0  0  0  0  0  0  0  0  0  0  0
   56.8510   28.9820   42.9910 O   0  0  0  0  0  0  0  0  0  0  0  0
   55.1970   30.4020   44.1040 O   0  0  0  0  0  0  0  0  0  0  0  0
   55.9320   28.1850   45.3390 N   0  0  0  0  0  0  0  0  0  0  0  0
   56.7490   27.0320   45.5720 C   0  0  0  0  0  0  0  0  0  0  0  0
   58.1380   27.0580   45.3660 C   0  0  0  0  0  0  0  0  0  0  0  0
   58.9050   25.9180   45.6200 C   0  0  0  0  0  0  0  0  0  0  0  0
   58.3000   24.7510   46.0910 C   0  0  0  0  0  0  0  0  0  0  0  0
   56.9140   24.7140   46.2990 C   0  0  0  0  0  0  0  0  0  0  0  0
   56.1390   23.2510   46.9030 S   0  0  0  0  0  0  0  0  0  0  0  0
   55.0990   23.6450   47.9150 O   0  0  0  0  0  0  0  0  0  0  0  0
   57.1630   22.3870   47.5840 O   0  0  0  0  0  0  0  0  0  0  0  0
   55.3890   22.3920   45.5730 N   0  0  0  0  0  0  0  0  0  0  0  0
   54.7670   23.3120   44.5870 C   0  0  0  0  0  0  0  0  0  0  0  0
   55.4250   23.2870   43.1950 C   0  0  0  0  0  0  0  0  0  0  0  0
   56.9460   23.2450   43.3170 C   0  0  0  0  0  0  0  0  0  0  0  0
   57.4230   22.0370   44.1420 C   0  0  0  0  0  0  0  0  0  0  0  0
   56.3010   21.3950   44.9810 C   0  0  0  0  0  0  0  0  0  0  0  0
   56.1420   25.8510   46.0220 C   0  0  0  0  0  0  0  0  0  0  0  0
   58.8270   29.8280   45.5480 C   0  0  0  0  0  0  0  0  0  0  0  0
   59.7910   30.5690   46.2260 C   0  0  0  0  0  0  0  0  0  0  0  0
   59.6160   31.9420   46.4780 C   0  0  0  0  0  0  0  0  0  0  0  0
   60.6680   32.6120   47.1960 N   0  0  0  0  0  0  0  0  0  0  0  0
   60.8140   35.9527   46.5263 H   0  0  0  0  0  0  0  0  0  0  0  0
   60.1935   34.8556   45.2428 H   0  0  0  0  0  0  0  0  0  0  0  0
   59.1188   34.5546   48.0472 H   0  0  0  0  0  0  0  0  0  0  0  0
   58.5594   35.9474   47.0312 H   0  0  0  0  0  0  0  0  0  0  0  0
   57.0714   33.9967   46.8717 H   0  0  0  0  0  0  0  0  0  0  0  0
   57.9304   34.4510   45.2793 H   0  0  0  0  0  0  0  0  0  0  0  0
   56.5281   32.2784   45.0098 H   0  0  0  0  0  0  0  0  0  0  0  0
   58.6226   27.9769   45.0043 H   0  0  0  0  0  0  0  0  0  0  0  0
   59.9912   25.9400   45.4480 H   0  0  0  0  0  0  0  0  0  0  0  0
   58.9111   23.8603   46.2989 H   0  0  0  0  0  0  0  0  0  0  0  0
   53.7095   23.0315   44.4734 H   0  0  0  0  0  0  0  0  0  0  0  0
   54.8989   24.3310   44.9798 H   0  0  0  0  0  0  0  0  0  0  0  0
   55.0819   22.3955   42.6495 H   0  0  0  0  0  0  0  0  0  0  0  0
   55.1391   24.2003   42.6526 H   0  0  0  0  0  0  0  0  0  0  0  0
   57.3819   23.1815   42.3090 H   0  0  0  0  0  0  0  0  0  0  0  0
   57.2717   24.1601   43.8334 H   0  0  0  0  0  0  0  0  0  0  0  0
   57.8221   21.2783   43.4527 H   0  0  0  0  0  0  0  0  0  0  0  0
   58.1885   22.4011   44.8430 H   0  0  0  0  0  0  0  0  0  0  0  0
   55.7168   20.7252   44.3329 H   0  0  0  0  0  0  0  0  0  0  0  0
   56.7771   20.8486   45.8085 H   0  0  0  0  0  0  0  0  0  0  0  0
   55.0511   25.8162   46.1588 H   0  0  0  0  0  0  0  0  0  0  0  0
   58.9914   28.7574   45.3562 H   0  0  0  0  0  0  0  0  0  0  0  0
   60.7086   30.0706   46.5719 H   0  0  0  0  0  0  0  0  0  0  0  0
   61.2730   32.0210   47.8100 H   0  0  0  0  0  0  0  0  0  0  0  0
  1  2  2  0
  2  3  1  0
  3  4  1  0
  4  5  1  0
  5  6  1  0
  6  7  2  0
  7  8  1  0
  8  9  1  0
  9 10  2  0
  9 11  2  0
  9 12  1  0
 12 13  1  0
 13 14  2  0
 14 15  1  0
 15 16  2  0
 16 17  1  0
 17 18  1  0
 18 19  2  0
 18 20  2  0
 18 21  1  0
 21 22  1  0
 22 23  1  0
 23 24  1  0
 24 25  1  0
 25 26  1  0
 17 27  2  0
  8 28  2  0
 28 29  1  0
 29 30  2  0
 30 31  1  0
 31  2  1  0
 30  6  1  0
 27 13  1  0
 26 21  1  0
  3 32  1  0
  3 33  1  0
  4 34  1  0
  4 35  1  0
  5 36  1  0
  5 37  1  0
  7 38  1  0
 14 39  1  0
 15 40  1  0
 16 41  1  0
 22 42  1  0
 22 43  1  0
 23 44  1  0
 23 45  1  0
 24 46  1  0
 24 47  1  0
 25 48  1  0
 25 49  1  0
 26 50  1  0
 26 51  1  0
 27 52  1  0
 28 53  1  0
 29 54  1  0
 31 55  1  0
M  CHG  1  12  -1
M  END
>  <UniqueID>  (88) 
86

>  <SMILES>  (88) 
O=C1CCCc2cc(S(=O)(=O)[N-]c3cccc(S(=O)(=O)N4CCCCC4)c3)ccc2N1

>  <Energy>  (88) 
80.82519615466015

>  <Genealogy>  (88) 
O=C1CCCc2cc(S(=O)(=O)[N-]c3cccc(S(=O)(=O)N4CCCCC4)c3)ccc2N1 (protonated)
O=C1CCCc2cc(S(=O)(=O)[N-]c3cccc(S(=O)(=O)N4CCCCC4)c3)ccc2N1 (3D coordinates assigned)
O=C1CCCc2cc(S(=O)(=O)[N-]c3cccc(S(=O)(=O)N4CCCCC4)c3)ccc2N1 (nonaromatic ring conformer: 80.82519615466015 kcal/mol)

>  <smiles>  (88) 
O=C1CCCc2cc(S(=O)(=O)Nc3cccc(S(=O)(=O)N4CCCCC4)c3)ccc2N1

>  <score_type>  (88) 
oracle

>  <origin>  (88) 
adg

>  <m_score__min__energy>  (88) 
-10.5

>  <m_primary>  (88) 
energy

$$$$
88:0
     RDKit          3D

 58 61  0  0  0  0  0  0  0  0999 V2000
   65.9690   32.9790   49.7550 N   0  0  0  0  0  0  0  0  0  0  0  0
   64.6710   32.3810   49.7620 C   0  0  0  0  0  0  0  0  0  0  0  0
   64.4570   31.3850   50.5120 O   0  0  0  0  0  0  0  0  0  0  0  0
   63.5860   32.9170   48.9030 C   0  0  0  0  0  0  0  0  0  0  0  0
   63.7400   32.9820   47.5060 C   0  0  0  0  0  0  0  0  0  0  0  0
   62.7090   33.4730   46.7030 C   0  0  0  0  0  0  0  0  0  0  0  0
   61.5140   33.9040   47.2790 C   0  0  0  0  0  0  0  0  0  0  0  0
   61.3410   33.8570   48.6710 C   0  0  0  0  0  0  0  0  0  0  0  0
   60.0380   34.2810   49.2880 C   0  0  0  0  0  0  0  0  0  0  0  0
   59.7650   33.4730   50.4720 N   0  0  0  0  0  0  0  0  0  0  0  0
   58.8810   32.3440   50.4810 C   0  0  0  0  0  0  0  0  0  0  0  0
   58.0190   32.2310   51.3940 O   0  0  0  0  0  0  0  0  0  0  0  0
   58.9650   31.3230   49.4150 C   0  0  0  0  0  0  0  0  0  0  0  0
   58.9340   31.6970   48.0590 C   0  0  0  0  0  0  0  0  0  0  0  0
   59.0320   30.7270   47.0550 C   0  0  0  0  0  0  0  0  0  0  0  0
   59.1550   29.3690   47.3880 C   0  0  0  0  0  0  0  0  0  0  0  0
   59.2350   28.3690   46.3570 N   0  0  0  0  0  0  0  0  0  0  0  0
   59.4730   28.7960   44.9710 C   0  0  0  0  0  0  0  0  0  0  0  0
   58.2430   29.4510   44.4160 C   0  0  0  0  0  0  0  0  0  0  0  0
   56.9550   28.9150   44.5580 C   0  0  0  0  0  0  0  0  0  0  0  0
   55.9520   29.7270   44.0350 C   0  0  0  0  0  0  0  0  0  0  0  0
   56.6750   31.1080   43.4060 S   0  0  0  0  0  0  0  0  0  0  0  0
   58.2610   30.6920   43.7860 C   0  0  0  0  0  0  0  0  0  0  0  0
   58.8840   26.9980   46.6400 C   0  0  0  0  0  0  0  0  0  0  0  0
   59.7510   26.0900   46.5060 O   0  0  0  0  0  0  0  0  0  0  0  0
   57.4860   26.6390   47.0870 C   0  0  0  0  0  0  0  0  0  0  0  0
   56.9020   25.5000   46.2850 C   0  0  0  0  0  0  0  0  0  0  0  0
   57.6860   24.3690   45.9960 C   0  0  0  0  0  0  0  0  0  0  0  0
   57.1700   23.3320   45.2120 C   0  0  0  0  0  0  0  0  0  0  0  0
   55.8720   23.4230   44.6980 C   0  0  0  0  0  0  0  0  0  0  0  0
   55.0860   24.5470   44.9710 C   0  0  0  0  0  0  0  0  0  0  0  0
   55.5950   25.5860   45.7590 C   0  0  0  0  0  0  0  0  0  0  0  0
   54.8030   26.7020   46.0060 O   0  0  0  0  0  0  0  0  0  0  0  0
   59.1610   28.9930   48.7380 C   0  0  0  0  0  0  0  0  0  0  0  0
   59.0780   29.9610   49.7440 C   0  0  0  0  0  0  0  0  0  0  0  0
   62.3760   33.3580   49.4770 C   0  0  0  0  0  0  0  0  0  0  0  0
   66.5200   33.0540   48.8700 H   0  0  0  0  0  0  0  0  0  0  0  0
   64.6790   32.6437   47.0435 H   0  0  0  0  0  0  0  0  0  0  0  0
   62.8395   33.5202   45.6118 H   0  0  0  0  0  0  0  0  0  0  0  0
   60.7033   34.2826   46.6392 H   0  0  0  0  0  0  0  0  0  0  0  0
   60.0980   35.3411   49.5754 H   0  0  0  0  0  0  0  0  0  0  0  0
   59.2277   34.1399   48.5576 H   0  0  0  0  0  0  0  0  0  0  0  0
   58.8322   32.7578   47.7865 H   0  0  0  0  0  0  0  0  0  0  0  0
   59.0125   31.0308   45.9980 H   0  0  0  0  0  0  0  0  0  0  0  0
   60.3080   29.5117   44.9489 H   0  0  0  0  0  0  0  0  0  0  0  0
   59.7193   27.9153   44.3598 H   0  0  0  0  0  0  0  0  0  0  0  0
   56.7559   27.9451   45.0371 H   0  0  0  0  0  0  0  0  0  0  0  0
   54.8749   29.5038   44.0337 H   0  0  0  0  0  0  0  0  0  0  0  0
   59.1557   31.2956   43.5735 H   0  0  0  0  0  0  0  0  0  0  0  0
   57.5179   26.3455   48.1466 H   0  0  0  0  0  0  0  0  0  0  0  0
   56.8469   27.5210   46.9333 H   0  0  0  0  0  0  0  0  0  0  0  0
   58.7111   24.2994   46.3888 H   0  0  0  0  0  0  0  0  0  0  0  0
   57.7847   22.4449   44.9996 H   0  0  0  0  0  0  0  0  0  0  0  0
   55.4689   22.6088   44.0779 H   0  0  0  0  0  0  0  0  0  0  0  0
   54.0656   24.6148   44.5657 H   0  0  0  0  0  0  0  0  0  0  0  0
   59.2315   27.9291   49.0083 H   0  0  0  0  0  0  0  0  0  0  0  0
   59.1013   29.6544   50.8002 H   0  0  0  0  0  0  0  0  0  0  0  0
   62.2418   33.3105   50.5678 H   0  0  0  0  0  0  0  0  0  0  0  0
  1  2  1  0
  2  3  2  0
  2  4  1  0
  4  5  2  0
  5  6  1  0
  6  7  2  0
  7  8  1  0
  8  9  1  0
  9 10  1  0
 10 11  1  0
 11 12  2  0
 11 13  1  0
 13 14  2  0
 14 15  1  0
 15 16  2  0
 16 17  1  0
 17 18  1  0
 18 19  1  0
 19 20  1  0
 20 21  2  0
 21 22  1  0
 22 23  1  0
 17 24  1  0
 24 25  2  0
 24 26  1  0
 26 27  1  0
 27 28  2  0
 28 29  1  0
 29 30  2  0
 30 31  1  0
 31 32  2  0
 32 33  1  0
 16 34  1  0
 34 35  2  0
  8 36  2  0
 36  4  1  0
 35 13  1  0
 23 19  2  0
 32 27  1  0
  1 37  1  0
  5 38  1  0
  6 39  1  0
  7 40  1  0
  9 41  1  0
  9 42  1  0
 14 43  1  0
 15 44  1  0
 18 45  1  0
 18 46  1  0
 20 47  1  0
 21 48  1  0
 23 49  1  0
 26 50  1  0
 26 51  1  0
 28 52  1  0
 29 53  1  0
 30 54  1  0
 31 55  1  0
 34 56  1  0
 35 57  1  0
 36 58  1  0
M  CHG  3   1  -1  10  -1  33  -1
M  END
>  <UniqueID>  (89) 
87

>  <SMILES>  (89) 
[NH-]C(=O)c1cccc(C[N-]C(=O)c2ccc(N(Cc3ccsc3)C(=O)Cc3ccccc3[O-])cc2)c1

>  <Energy>  (89) 
93.3767761433567

>  <Genealogy>  (89) 
[NH-]C(=O)c1cccc(C[N-]C(=O)c2ccc(N(Cc3ccsc3)C(=O)Cc3ccccc3[O-])cc2)c1 (protonated)
[NH-]C(=O)c1cccc(C[N-]C(=O)c2ccc(N(Cc3ccsc3)C(=O)Cc3ccccc3[O-])cc2)c1 (3D coordinates assigned)
[NH-]C(=O)c1cccc(C[N-]C(=O)c2ccc(N(Cc3ccsc3)C(=O)Cc3ccccc3[O-])cc2)c1 (optimized conformer: 93.3767761433567 kcal/mol)

>  <smiles>  (89) 
NC(=O)c1cccc(CNC(=O)c2ccc(N(Cc3ccsc3)C(=O)Cc3ccccc3O)cc2)c1

>  <score_type>  (89) 
oracle

>  <origin>  (89) 
adg

>  <m_score__min__energy>  (89) 
-17.469999999999999

>  <m_primary>  (89) 
energy

$$$$
