0:0
     RDKit          3D

 38 40  0  0  0  0  0  0  0  0999 V2000
   56.9505   27.2507   43.8449 H   0  0  0  0  0  0  0  0  0  0  0  0
   57.6410   27.0080   44.6660 C   0  0  0  0  0  0  0  0  0  0  0  0
   58.8100   27.6640   44.7040 C   0  0  0  0  0  0  0  0  0  0  0  0
   59.5605   27.4051   43.9426 H   0  0  0  0  0  0  0  0  0  0  0  0
   59.1710   28.7080   45.6880 C   0  0  0  0  0  0  0  0  0  0  0  0
   59.7950   28.3880   46.9050 C   0  0  0  0  0  0  0  0  0  0  0  0
   60.0092   27.3376   47.1517 H   0  0  0  0  0  0  0  0  0  0  0  0
   60.1440   29.3980   47.8020 C   0  0  0  0  0  0  0  0  0  0  0  0
   60.6231   29.1397   48.7579 H   0  0  0  0  0  0  0  0  0  0  0  0
   59.8880   30.7350   47.4920 C   0  0  0  0  0  0  0  0  0  0  0  0
   60.1601   31.5257   48.2067 H   0  0  0  0  0  0  0  0  0  0  0  0
   59.2820   31.0740   46.2660 C   0  0  0  0  0  0  0  0  0  0  0  0
   58.9970   32.3960   45.9020 O   0  0  0  0  0  0  0  0  0  0  0  0
   59.3320   33.7690   46.8680 S   0  0  0  0  0  0  0  0  0  0  0  0
   59.0070   35.0090   46.0820 O   0  0  0  0  0  0  0  0  0  0  0  0
   58.4680   33.7370   48.0960 O   0  0  0  0  0  0  0  0  0  0  0  0
   61.0330   33.7660   47.3560 C   0  0  0  0  0  0  0  0  0  0  0  0
   62.0200   33.5500   46.3780 C   0  0  0  0  0  0  0  0  0  0  0  0
   61.7257   33.4185   45.3263 H   0  0  0  0  0  0  0  0  0  0  0  0
   63.3700   33.5010   46.7300 C   0  0  0  0  0  0  0  0  0  0  0  0
   64.1335   33.3305   45.9567 H   0  0  0  0  0  0  0  0  0  0  0  0
   63.7520   33.6680   48.0610 C   0  0  0  0  0  0  0  0  0  0  0  0
   64.8158   33.6247   48.3374 H   0  0  0  0  0  0  0  0  0  0  0  0
   62.7850   33.8900   49.0420 C   0  0  0  0  0  0  0  0  0  0  0  0
   63.0926   34.0209   50.0900 H   0  0  0  0  0  0  0  0  0  0  0  0
   61.4230   33.9480   48.7050 C   0  0  0  0  0  0  0  0  0  0  0  0
   60.4650   34.1970   49.7420 N   0  0  0  0  0  0  0  0  0  0  0  0
   60.7280   34.2340   50.7510 H   0  0  0  0  0  0  0  0  0  0  0  0
   59.4520   34.3050   49.5120 H   0  0  0  0  0  0  0  0  0  0  0  0
   58.9470   30.0550   45.3670 C   0  0  0  0  0  0  0  0  0  0  0  0
   58.5018   30.3141   44.3951 H   0  0  0  0  0  0  0  0  0  0  0  0
   57.2080   25.9870   45.6380 C   0  0  0  0  0  0  0  0  0  0  0  0
   58.1600   24.6850   46.1220 S   0  0  0  0  0  0  0  0  0  0  0  0
   56.9370   24.0320   47.0720 C   0  0  0  0  0  0  0  0  0  0  0  0
   57.0530   22.9790   47.7510 O   0  0  0  0  0  0  0  0  0  0  0  0
   55.7990   24.7540   47.0220 N   0  0  0  0  0  0  0  0  0  0  0  0
   55.9430   25.8370   46.2140 C   0  0  0  0  0  0  0  0  0  0  0  0
   54.8810   26.6960   45.9600 O   0  0  0  0  0  0  0  0  0  0  0  0
  1  2  1  0
  2  3  2  0
  3  4  1  0
  3  5  1  0
  5  6  2  0
  6  7  1  0
  6  8  1  0
  8  9  1  0
  8 10  2  0
 10 11  1  0
 10 12  1  0
 12 13  1  0
 13 14  1  0
 14 15  2  0
 14 16  2  0
 14 17  1  0
 17 18  2  0
 18 19  1  0
 18 20  1  0
 20 21  1  0
 20 22  2  0
 22 23  1  0
 22 24  1  0
 24 25  1  0
 24 26  2  0
 26 27  1  0
 27 28  1  0
 27 29  1  0
 12 30  2  0
 30 31  1  0
  2 32  1  0
 32 33  1  0
 33 34  1  0
 34 35  2  0
 34 36  1  0
 36 37  1  0
 37 38  1  0
 30  5  1  0
 37 32  2  0
 26 17  1  0
M  CHG  2  36  -1  38  -1
M  END
>  <UniqueID>  (1) 
1

>  <SMILES>  (1) 
Nc1ccccc1S(=O)(=O)Oc1cccc(/C=C\c2sc(=O)[n-]c2[O-])c1

>  <Energy>  (1) 
82.21775301884715

>  <Genealogy>  (1) 
Nc1ccccc1S(=O)(=O)Oc1cccc(C=Cc2sc(=O)[n-]c2[O-])c1 (protonated)
Nc1ccccc1S(=O)(=O)Oc1cccc(/C=C\c2sc(=O)[n-]c2[O-])c1 (cis-trans isomerization)
Nc1ccccc1S(=O)(=O)Oc1cccc(/C=C\c2sc(=O)[n-]c2[O-])c1 (3D coordinates assigned)
Nc1ccccc1S(=O)(=O)Oc1cccc(/C=C\c2sc(=O)[n-]c2[O-])c1 (optimized conformer: 82.21775301884715 kcal/mol)

>  <smiles>  (1) 
Nc1ccccc1S(=O)(=O)Oc1cccc(C=Cc2sc(=O)[nH]c2O)c1

>  <score_type>  (1) 
oracle

>  <origin>  (1) 
adg

>  <m_score__min__energy>  (1) 
-14.67

>  <m_primary>  (1) 
energy

$$$$
1:0
     RDKit          3D

 29 30  0  0  0  0  0  0  0  0999 V2000
   58.9200   30.3440   44.1590 O   0  0  0  0  0  0  0  0  0  0  0  0
   57.8300   30.0900   44.7350 C   0  0  0  0  0  0  0  0  0  0  0  0
   56.8690   31.1420   44.8960 N   0  0  0  0  0  0  0  0  0  0  0  0
   57.1330   32.5670   44.7070 C   0  0  0  0  0  0  0  0  0  0  0  0
   57.9830   33.1090   45.8300 C   0  0  0  0  0  0  0  0  0  0  0  0
   58.0910   32.3980   47.0390 C   0  0  0  0  0  0  0  0  0  0  0  0
   58.9070   32.8740   48.0690 C   0  0  0  0  0  0  0  0  0  0  0  0
   59.6140   34.0660   47.9080 C   0  0  0  0  0  0  0  0  0  0  0  0
   59.5060   34.7870   46.7160 C   0  0  0  0  0  0  0  0  0  0  0  0
   58.6940   34.3150   45.6780 C   0  0  0  0  0  0  0  0  0  0  0  0
   58.6010   35.0470   44.4980 O   0  0  0  0  0  0  0  0  0  0  0  0
   57.5900   28.7300   45.2530 C   0  0  0  0  0  0  0  0  0  0  0  0
   58.6710   27.9300   45.6490 C   0  0  0  0  0  0  0  0  0  0  0  0
   58.4520   26.6330   46.1210 C   0  0  0  0  0  0  0  0  0  0  0  0
   57.1530   26.1240   46.2090 C   0  0  0  0  0  0  0  0  0  0  0  0
   56.9640   24.8250   46.6790 O   0  0  0  0  0  0  0  0  0  0  0  0
   56.0640   26.9250   45.8260 C   0  0  0  0  0  0  0  0  0  0  0  0
   54.7670   26.4300   45.9110 O   0  0  0  0  0  0  0  0  0  0  0  0
   56.2810   28.2260   45.3540 C   0  0  0  0  0  0  0  0  0  0  0  0
   55.1950   29.0050   44.9660 O   0  0  0  0  0  0  0  0  0  0  0  0
   57.6608   32.7124   43.7529 H   0  0  0  0  0  0  0  0  0  0  0  0
   56.1736   33.1051   44.7002 H   0  0  0  0  0  0  0  0  0  0  0  0
   57.5298   31.4617   47.1746 H   0  0  0  0  0  0  0  0  0  0  0  0
   58.9920   32.3078   49.0083 H   0  0  0  0  0  0  0  0  0  0  0  0
   60.2565   34.4382   48.7196 H   0  0  0  0  0  0  0  0  0  0  0  0
   60.0610   35.7287   46.5928 H   0  0  0  0  0  0  0  0  0  0  0  0
   59.6959   28.3249   45.5879 H   0  0  0  0  0  0  0  0  0  0  0  0
   59.3059   26.0096   46.4247 H   0  0  0  0  0  0  0  0  0  0  0  0
   56.0450   24.4040   46.7420 H   0  0  0  0  0  0  0  0  0  0  0  0
  1  2  2  0
  2  3  1  0
  3  4  1  0
  4  5  1  0
  5  6  2  0
  6  7  1  0
  7  8  2  0
  8  9  1  0
  9 10  2  0
 10 11  1  0
  2 12  1  0
 12 13  2  0
 13 14  1  0
 14 15  2  0
 15 16  1  0
 15 17  1  0
 17 18  1  0
 17 19  2  0
 19 20  1  0
 10  5  1  0
 19 12  1  0
  4 21  1  0
  4 22  1  0
  6 23  1  0
  7 24  1  0
  8 25  1  0
  9 26  1  0
 13 27  1  0
 14 28  1  0
 16 29  1  0
M  CHG  4   3  -1  11  -1  18  -1  20  -1
M  END
>  <UniqueID>  (2) 
2

>  <SMILES>  (2) 
O=C([N-]Cc1ccccc1[O-])c1ccc(O)c([O-])c1[O-]

>  <Energy>  (2) 
33.75442847276505

>  <Genealogy>  (2) 
O=C([N-]Cc1ccccc1[O-])c1ccc(O)c([O-])c1[O-] (protonated)
O=C([N-]Cc1ccccc1[O-])c1ccc(O)c([O-])c1[O-] (3D coordinates assigned)
O=C([N-]Cc1ccccc1[O-])c1ccc(O)c([O-])c1[O-] (optimized conformer: 33.75442847276505 kcal/mol)

>  <smiles>  (2) 
O=C(NCc1ccccc1O)c1ccc(O)c(O)c1O

>  <score_type>  (2) 
oracle

>  <origin>  (2) 
adg

>  <m_score__min__energy>  (2) 
-16.34

>  <m_primary>  (2) 
energy

$$$$
2:0
     RDKit          3D

 27 28  0  0  0  0  0  0  0  0999 V2000
   55.1570   29.0680   44.8730 O   0  0  0  0  0  0  0  0  0  0  0  0
   56.4150   29.0900   44.8240 C   0  0  0  0  0  0  0  0  0  0  0  0
   57.0540   30.1710   44.1310 N   0  0  0  0  0  0  0  0  0  0  0  0
   57.6760   31.3160   44.7320 C   0  0  0  0  0  0  0  0  0  0  0  0
   58.1460   31.2910   46.0580 C   0  0  0  0  0  0  0  0  0  0  0  0
   58.7340   32.4290   46.6180 C   0  0  0  0  0  0  0  0  0  0  0  0
   58.8420   33.6050   45.8660 C   0  0  0  0  0  0  0  0  0  0  0  0
   59.6440   35.1590   46.6320 Br  0  0  0  0  0  0  0  0  0  0  0  0
   58.3530   33.6420   44.5570 C   0  0  0  0  0  0  0  0  0  0  0  0
   57.7660   32.5040   43.9950 C   0  0  0  0  0  0  0  0  0  0  0  0
   57.1890   27.9720   45.4160 C   0  0  0  0  0  0  0  0  0  0  0  0
   58.5900   28.0280   45.4300 C   0  0  0  0  0  0  0  0  0  0  0  0
   59.3350   26.9870   45.9800 C   0  0  0  0  0  0  0  0  0  0  0  0
   58.6930   25.8700   46.5130 C   0  0  0  0  0  0  0  0  0  0  0  0
   57.2880   25.7750   46.5030 C   0  0  0  0  0  0  0  0  0  0  0  0
   56.6480   24.6040   47.0540 N   0  0  0  0  0  0  0  0  0  0  0  0
   55.4340   24.3960   46.8540 O   0  0  0  0  0  0  0  0  0  0  0  0
   57.3430   23.7140   47.8400 O   0  0  0  0  0  0  0  0  0  0  0  0
   56.5360   26.8400   45.9540 C   0  0  0  0  0  0  0  0  0  0  0  0
   55.1450   26.7950   45.9640 O   0  0  0  0  0  0  0  0  0  0  0  0
   58.0504   30.3728   46.6561 H   0  0  0  0  0  0  0  0  0  0  0  0
   59.1122   32.4004   47.6505 H   0  0  0  0  0  0  0  0  0  0  0  0
   58.4301   34.5678   43.9680 H   0  0  0  0  0  0  0  0  0  0  0  0
   57.3727   32.5418   42.9684 H   0  0  0  0  0  0  0  0  0  0  0  0
   59.1052   28.9011   45.0032 H   0  0  0  0  0  0  0  0  0  0  0  0
   60.4333   27.0466   45.9938 H   0  0  0  0  0  0  0  0  0  0  0  0
   59.2904   25.0541   46.9460 H   0  0  0  0  0  0  0  0  0  0  0  0
  1  2  2  0
  2  3  1  0
  3  4  1  0
  4  5  2  0
  5  6  1  0
  6  7  2  0
  7  8  1  0
  7  9  1  0
  9 10  2  0
  2 11  1  0
 11 12  2  0
 12 13  1  0
 13 14  2  0
 14 15  1  0
 15 16  1  0
 16 17  2  0
 16 18  1  0
 15 19  2  0
 19 20  1  0
 10  4  1  0
 19 11  1  0
  5 21  1  0
  6 22  1  0
  9 23  1  0
 10 24  1  0
 12 25  1  0
 13 26  1  0
 14 27  1  0
M  CHG  4   3  -1  16   1  18  -1  20  -1
M  END
>  <UniqueID>  (3) 
3

>  <SMILES>  (3) 
O=C([N-]c1ccc(Br)cc1)c1cccc([N+](=O)[O-])c1[O-]

>  <Energy>  (3) 
39.146357009418345

>  <Genealogy>  (3) 
O=C([N-]c1ccc(Br)cc1)c1cccc([N+](=O)[O-])c1[O-] (protonated)
O=C([N-]c1ccc(Br)cc1)c1cccc([N+](=O)[O-])c1[O-] (3D coordinates assigned)
O=C([N-]c1ccc(Br)cc1)c1cccc([N+](=O)[O-])c1[O-] (optimized conformer: 39.146357009418345 kcal/mol)

>  <smiles>  (3) 
O=C(Nc1ccc(Br)cc1)c1cccc([N+](=O)[O-])c1O

>  <score_type>  (3) 
oracle

>  <origin>  (3) 
adg

>  <m_score__min__energy>  (3) 
-13.6

>  <m_primary>  (3) 
energy

$$$$
3:0
     RDKit          3D

 78 82  0  0  0  0  0  0  0  0999 V2000
   61.7820   33.4550   48.5310 C   0  0  0  0  0  0  0  0  0  0  0  0
   60.8680   32.7670   49.5130 C   0  0  0  0  0  0  0  0  0  0  0  0
   60.3720   33.4860   50.6170 C   0  0  0  0  0  0  0  0  0  0  0  0
   59.5110   32.8770   51.5410 C   0  0  0  0  0  0  0  0  0  0  0  0
   58.8440   33.7990   52.8870 S   0  0  0  0  0  0  0  0  0  0  0  0
   58.1210   32.7170   54.0240 N   0  0  0  0  0  0  0  0  0  0  0  0
   57.8090   34.7670   52.3780 O   0  0  0  0  0  0  0  0  0  0  0  0
   59.9330   34.5760   53.5750 O   0  0  0  0  0  0  0  0  0  0  0  0
   59.1770   31.5280   51.3870 C   0  0  0  0  0  0  0  0  0  0  0  0
   59.6800   30.7970   50.3090 C   0  0  0  0  0  0  0  0  0  0  0  0
   60.5000   31.4100   49.3450 C   0  0  0  0  0  0  0  0  0  0  0  0
   60.9890   30.6570   48.2140 N   0  0  0  0  0  0  0  0  0  0  0  0
   60.1420   30.1380   47.1630 C   0  0  0  0  0  0  0  0  0  0  0  0
   58.9000   30.0460   47.3290 O   0  0  0  0  0  0  0  0  0  0  0  0
   60.7360   29.6970   45.8520 C   0  0  0  0  0  0  0  0  0  0  0  0
   59.8270   28.8680   45.1320 O   0  0  0  0  0  0  0  0  0  0  0  0
   58.9840   27.9090   45.7130 C   0  0  0  0  0  0  0  0  0  0  0  0
   59.4410   27.0370   46.7150 C   0  0  0  0  0  0  0  0  0  0  0  0
   58.6160   26.0230   47.2030 C   0  0  0  0  0  0  0  0  0  0  0  0
   57.3390   25.8330   46.6700 C   0  0  0  0  0  0  0  0  0  0  0  0
   56.5000   24.7340   47.1630 C   0  0  0  0  0  0  0  0  0  0  0  0
   56.9750   23.9040   47.9820 O   0  0  0  0  0  0  0  0  0  0  0  0
   55.1560   24.6120   46.6810 N   0  0  0  0  0  0  0  0  0  0  0  0
   54.6720   23.7540   45.5940 C   0  0  2  0  0  0  0  0  0  0  0  0
   54.7830   22.2530   45.9540 C   0  0  0  0  0  0  0  0  0  0  0  0
   54.9150   22.0720   47.3380 O   0  0  0  0  0  0  0  0  0  0  0  0
   55.4740   24.1000   44.3250 C   0  0  0  0  0  0  0  0  0  0  0  0
   56.6580   23.1900   44.1090 C   0  0  0  0  0  0  0  0  0  0  0  0
   57.8630   23.4180   44.7930 C   0  0  0  0  0  0  0  0  0  0  0  0
   58.9500   22.5580   44.6190 C   0  0  0  0  0  0  0  0  0  0  0  0
   58.8510   21.4730   43.7450 C   0  0  0  0  0  0  0  0  0  0  0  0
   57.6600   21.2460   43.0500 C   0  0  0  0  0  0  0  0  0  0  0  0
   56.5650   22.0990   43.2310 C   0  0  0  0  0  0  0  0  0  0  0  0
   56.8670   26.7050   45.6770 C   0  0  0  0  0  0  0  0  0  0  0  0
   57.6560   27.7730   45.2360 C   0  0  0  0  0  0  0  0  0  0  0  0
   57.1300   28.6630   44.2390 N   0  0  0  0  0  0  0  0  0  0  0  0
   56.4520   29.8870   44.5420 C   0  0  0  0  0  0  0  0  0  0  0  0
   55.2180   29.8460   44.8030 O   0  0  0  0  0  0  0  0  0  0  0  0
   57.1680   31.1900   44.5590 C   0  0  0  0  0  0  0  0  0  0  0  0
   57.6370   31.7720   43.3630 C   0  0  0  0  0  0  0  0  0  0  0  0
   58.3650   32.9640   43.3880 C   0  0  0  0  0  0  0  0  0  0  0  0
   58.6430   33.5930   44.6040 C   0  0  0  0  0  0  0  0  0  0  0  0
   59.3820   34.7390   44.6290 N   0  0  0  0  0  0  0  0  0  0  0  0
   59.6750   35.3720   45.7950 C   0  0  0  0  0  0  0  0  0  0  0  0
   59.2230   34.8500   47.0090 C   0  0  0  0  0  0  0  0  0  0  0  0
   58.4690   33.6720   47.0150 C   0  0  0  0  0  0  0  0  0  0  0  0
   58.1740   33.0300   45.8080 C   0  0  0  0  0  0  0  0  0  0  0  0
   57.4330   31.8400   45.7780 C   0  0  0  0  0  0  0  0  0  0  0  0
   62.5440   34.0286   49.0791 H   0  0  0  0  0  0  0  0  0  0  0  0
   62.2746   32.7016   47.8987 H   0  0  0  0  0  0  0  0  0  0  0  0
   61.1943   34.1368   47.8987 H   0  0  0  0  0  0  0  0  0  0  0  0
   60.6632   34.5376   50.7563 H   0  0  0  0  0  0  0  0  0  0  0  0
   57.1570   32.5030   53.6710 H   0  0  0  0  0  0  0  0  0  0  0  0
   58.5152   31.0406   52.1181 H   0  0  0  0  0  0  0  0  0  0  0  0
   59.4321   29.7296   50.2127 H   0  0  0  0  0  0  0  0  0  0  0  0
   62.0240   30.6320   48.0600 H   0  0  0  0  0  0  0  0  0  0  0  0
   60.9699   30.5850   45.2463 H   0  0  0  0  0  0  0  0  0  0  0  0
   61.6491   29.1192   46.0579 H   0  0  0  0  0  0  0  0  0  0  0  0
   60.4576   27.1545   47.1183 H   0  0  0  0  0  0  0  0  0  0  0  0
   58.9734   25.3694   48.0123 H   0  0  0  0  0  0  0  0  0  0  0  0
   53.6019   23.9402   45.4201 H   0  0  0  0  0  0  0  0  0  0  0  0
   53.8770   21.7333   45.6090 H   0  0  0  0  0  0  0  0  0  0  0  0
   55.6769   21.8420   45.4621 H   0  0  0  0  0  0  0  0  0  0  0  0
   55.0760   22.9690   47.7330 H   0  0  0  0  0  0  0  0  0  0  0  0
   54.8059   24.0183   43.4550 H   0  0  0  0  0  0  0  0  0  0  0  0
   55.8627   25.1214   44.4499 H   0  0  0  0  0  0  0  0  0  0  0  0
   57.9516   24.2799   45.4707 H   0  0  0  0  0  0  0  0  0  0  0  0
   59.8849   22.7355   45.1709 H   0  0  0  0  0  0  0  0  0  0  0  0
   59.7086   20.7987   43.6040 H   0  0  0  0  0  0  0  0  0  0  0  0
   57.5828   20.3941   42.3584 H   0  0  0  0  0  0  0  0  0  0  0  0
   55.6290   21.9137   42.6836 H   0  0  0  0  0  0  0  0  0  0  0  0
   55.8690   26.5477   45.2420 H   0  0  0  0  0  0  0  0  0  0  0  0
   57.4274   31.2823   42.4006 H   0  0  0  0  0  0  0  0  0  0  0  0
   58.7206   33.4089   42.4469 H   0  0  0  0  0  0  0  0  0  0  0  0
   60.2694   36.2975   45.7828 H   0  0  0  0  0  0  0  0  0  0  0  0
   59.4584   35.3618   47.9538 H   0  0  0  0  0  0  0  0  0  0  0  0
   58.1092   33.2519   47.9658 H   0  0  0  0  0  0  0  0  0  0  0  0
   57.0550   31.4103   46.7174 H   0  0  0  0  0  0  0  0  0  0  0  0
  1  2  1  0
  2  3  2  0
  3  4  1  0
  4  5  1  0
  5  6  1  0
  5  7  2  0
  5  8  2  0
  4  9  2  0
  9 10  1  0
 10 11  2  0
 11 12  1  0
 12 13  1  0
 13 14  2  0
 13 15  1  0
 15 16  1  0
 16 17  1  0
 17 18  2  0
 18 19  1  0
 19 20  2  0
 20 21  1  0
 21 22  2  0
 21 23  1  0
 23 24  1  0
 24 25  1  0
 25 26  1  0
 24 27  1  0
 27 28  1  0
 28 29  2  0
 29 30  1  0
 30 31  2  0
 31 32  1  0
 32 33  2  0
 20 34  1  0
 34 35  2  0
 35 36  1  0
 36 37  1  0
 37 38  2  0
 37 39  1  0
 39 40  2  0
 40 41  1  0
 41 42  2  0
 42 43  1  0
 43 44  2  0
 44 45  1  0
 45 46  2  0
 46 47  1  0
 47 48  2  0
 11  2  1  0
 35 17  1  0
 48 39  1  0
 33 28  1  0
 47 42  1  0
  1 49  1  0
  1 50  1  0
  1 51  1  0
  3 52  1  0
  6 53  1  0
  9 54  1  0
 10 55  1  0
 12 56  1  0
 15 57  1  0
 15 58  1  0
 18 59  1  0
 19 60  1  0
 24 61  1  6
 25 62  1  0
 25 63  1  0
 26 64  1  0
 27 65  1  0
 27 66  1  0
 29 67  1  0
 30 68  1  0
 31 69  1  0
 32 70  1  0
 33 71  1  0
 34 72  1  0
 40 73  1  0
 41 74  1  0
 44 75  1  0
 45 76  1  0
 46 77  1  0
 48 78  1  0
M  CHG  3   6  -1  23  -1  36  -1
M  END
>  <UniqueID>  (4) 
4

>  <SMILES>  (4) 
Cc1cc(S([NH-])(=O)=O)ccc1NC(=O)COc1ccc(C(=O)[N-][C@H](CO)Cc2ccccc2)cc1[N-]C(=O)c1ccc2ncccc2c1

>  <Energy>  (4) 
108.0841715566355

>  <Genealogy>  (4) 
Cc1cc(S([NH-])(=O)=O)ccc1NC(=O)COc1ccc(C(=O)[N-]C(CO)Cc2ccccc2)cc1[N-]C(=O)c1ccc2ncccc2c1 (protonated)
Cc1cc(S([NH-])(=O)=O)ccc1NC(=O)COc1ccc(C(=O)[N-][C@H](CO)Cc2ccccc2)cc1[N-]C(=O)c1ccc2ncccc2c1 (chirality)
Cc1cc(S([NH-])(=O)=O)ccc1NC(=O)COc1ccc(C(=O)[N-][C@H](CO)Cc2ccccc2)cc1[N-]C(=O)c1ccc2ncccc2c1 (3D coordinates assigned)
Cc1cc(S([NH-])(=O)=O)ccc1NC(=O)COc1ccc(C(=O)[N-][C@H](CO)Cc2ccccc2)cc1[N-]C(=O)c1ccc2ncccc2c1 (optimized conformer: 108.0841715566355 kcal/mol)

>  <smiles>  (4) 
Cc1cc(S(N)(=O)=O)ccc1NC(=O)COc1ccc(C(=O)NC(CO)Cc2ccccc2)cc1NC(=O)c1ccc2ncccc2c1

>  <score_type>  (4) 
oracle

>  <origin>  (4) 
adg

>  <m_score__min__energy>  (4) 
-13.81

>  <m_primary>  (4) 
energy

$$$$
4:0
     RDKit          3D

 57 60  0  0  0  0  0  0  0  0999 V2000
   57.2360   26.8040   46.0480 O   0  0  0  0  0  0  0  0  0  0  0  0
   57.8740   27.8590   46.3030 C   0  0  0  0  0  0  0  0  0  0  0  0
   59.2450   27.7500   46.9150 C   0  0  0  0  0  0  0  0  0  0  0  0
   59.1990   28.1100   48.3450 N   0  0  0  0  0  0  0  0  0  0  0  0
   60.4570   27.7110   49.0180 C   0  0  0  0  0  0  0  0  0  0  0  0
   60.6850   28.5100   50.3080 C   0  0  0  0  0  0  0  0  0  0  0  0
   60.8070   29.9680   50.0470 N   0  0  0  0  0  0  0  0  0  0  0  0
   62.2210   30.3980   50.0320 C   0  0  0  0  0  0  0  0  0  0  0  0
   62.4090   31.6150   49.1550 C   0  0  0  0  0  0  0  0  0  0  0  0
   62.9980   31.4710   47.8860 C   0  0  0  0  0  0  0  0  0  0  0  0
   63.1590   32.5790   47.0520 C   0  0  0  0  0  0  0  0  0  0  0  0
   62.7370   33.8400   47.4740 C   0  0  0  0  0  0  0  0  0  0  0  0
   62.1470   33.9970   48.7290 C   0  0  0  0  0  0  0  0  0  0  0  0
   61.9760   32.8920   49.5720 C   0  0  0  0  0  0  0  0  0  0  0  0
   61.2100   33.1420   51.1370 Cl  0  0  0  0  0  0  0  0  0  0  0  0
   60.0960   30.4050   48.8190 C   0  0  0  0  0  0  0  0  0  0  0  0
   58.8540   29.5430   48.5470 C   0  0  0  0  0  0  0  0  0  0  0  0
   57.2450   29.1240   46.0570 N   0  0  0  0  0  0  0  0  0  0  0  0
   57.2410   29.8270   44.8070 C   0  0  0  0  0  0  0  0  0  0  0  0
   56.3360   29.4160   43.8200 C   0  0  0  0  0  0  0  0  0  0  0  0
   56.2540   30.0940   42.6030 C   0  0  0  0  0  0  0  0  0  0  0  0
   57.0860   31.1880   42.3570 C   0  0  0  0  0  0  0  0  0  0  0  0
   58.0150   31.5910   43.3180 C   0  0  0  0  0  0  0  0  0  0  0  0
   58.1260   30.9040   44.5390 C   0  0  0  0  0  0  0  0  0  0  0  0
   59.1700   31.3310   45.5010 C   0  0  0  0  0  0  0  0  0  0  0  0
   60.0360   30.4900   45.8640 O   0  0  0  0  0  0  0  0  0  0  0  0
   59.2170   32.7040   46.0580 C   0  0  0  0  0  0  0  0  0  0  0  0
   59.5720   33.7880   45.2340 C   0  0  0  0  0  0  0  0  0  0  0  0
   59.6120   35.0860   45.7490 C   0  0  0  0  0  0  0  0  0  0  0  0
   59.3070   35.3170   47.0930 C   0  0  0  0  0  0  0  0  0  0  0  0
   58.9670   34.2470   47.9250 C   0  0  0  0  0  0  0  0  0  0  0  0
   58.9250   32.9460   47.4130 C   0  0  0  0  0  0  0  0  0  0  0  0
   59.6066   26.7162   46.8128 H   0  0  0  0  0  0  0  0  0  0  0  0
   59.9245   28.4408   46.3944 H   0  0  0  0  0  0  0  0  0  0  0  0
   60.4055   26.6404   49.2655 H   0  0  0  0  0  0  0  0  0  0  0  0
   61.2935   27.9160   48.3337 H   0  0  0  0  0  0  0  0  0  0  0  0
   59.8350   28.3406   50.9853 H   0  0  0  0  0  0  0  0  0  0  0  0
   61.6279   28.1659   50.7580 H   0  0  0  0  0  0  0  0  0  0  0  0
   62.5333   30.6425   51.0580 H   0  0  0  0  0  0  0  0  0  0  0  0
   62.8321   29.5775   49.6278 H   0  0  0  0  0  0  0  0  0  0  0  0
   63.3339   30.4794   47.5485 H   0  0  0  0  0  0  0  0  0  0  0  0
   63.6194   32.4575   46.0604 H   0  0  0  0  0  0  0  0  0  0  0  0
   62.8695   34.7119   46.8165 H   0  0  0  0  0  0  0  0  0  0  0  0
   61.8149   34.9929   49.0573 H   0  0  0  0  0  0  0  0  0  0  0  0
   59.7835   31.4526   48.9412 H   0  0  0  0  0  0  0  0  0  0  0  0
   60.7831   30.2966   47.9669 H   0  0  0  0  0  0  0  0  0  0  0  0
   58.1705   29.6255   49.4049 H   0  0  0  0  0  0  0  0  0  0  0  0
   58.3828   29.9108   47.6236 H   0  0  0  0  0  0  0  0  0  0  0  0
   55.6835   28.5502   44.0060 H   0  0  0  0  0  0  0  0  0  0  0  0
   55.5344   29.7668   41.8381 H   0  0  0  0  0  0  0  0  0  0  0  0
   57.0094   31.7331   41.4046 H   0  0  0  0  0  0  0  0  0  0  0  0
   58.6663   32.4545   43.1176 H   0  0  0  0  0  0  0  0  0  0  0  0
   59.8198   33.6121   44.1768 H   0  0  0  0  0  0  0  0  0  0  0  0
   59.8841   35.9278   45.0953 H   0  0  0  0  0  0  0  0  0  0  0  0
   59.3345   36.3403   47.4957 H   0  0  0  0  0  0  0  0  0  0  0  0
   58.7320   34.4281   48.9842 H   0  0  0  0  0  0  0  0  0  0  0  0
   58.6621   32.1068   48.0738 H   0  0  0  0  0  0  0  0  0  0  0  0
  1  2  2  0
  2  3  1  0
  3  4  1  0
  4  5  1  0
  5  6  1  0
  6  7  1  0
  7  8  1  0
  8  9  1  0
  9 10  2  0
 10 11  1  0
 11 12  2  0
 12 13  1  0
 13 14  2  0
 14 15  1  0
  7 16  1  0
 16 17  1  0
  2 18  1  0
 18 19  1  0
 19 20  2  0
 20 21  1  0
 21 22  2  0
 22 23  1  0
 23 24  2  0
 24 25  1  0
 25 26  2  0
 25 27  1  0
 27 28  2  0
 28 29  1  0
 29 30  2  0
 30 31  1  0
 31 32  2  0
 17  4  1  0
 24 19  1  0
 32 27  1  0
 14  9  1  0
  3 33  1  0
  3 34  1  0
  5 35  1  0
  5 36  1  0
  6 37  1  0
  6 38  1  0
  8 39  1  0
  8 40  1  0
 10 41  1  0
 11 42  1  0
 12 43  1  0
 13 44  1  0
 16 45  1  0
 16 46  1  0
 17 47  1  0
 17 48  1  0
 20 49  1  0
 21 50  1  0
 22 51  1  0
 23 52  1  0
 28 53  1  0
 29 54  1  0
 30 55  1  0
 31 56  1  0
 32 57  1  0
M  CHG  1  18  -1
M  END
>  <UniqueID>  (5) 
5

>  <SMILES>  (5) 
O=C(CN1CCN(Cc2ccccc2Cl)CC1)[N-]c1ccccc1C(=O)c1ccccc1

>  <Energy>  (5) 
86.33780155657955

>  <Genealogy>  (5) 
O=C(CN1CCN(Cc2ccccc2Cl)CC1)[N-]c1ccccc1C(=O)c1ccccc1 (protonated)
O=C(CN1CCN(Cc2ccccc2Cl)CC1)[N-]c1ccccc1C(=O)c1ccccc1 (3D coordinates assigned)
O=C(CN1CCN(Cc2ccccc2Cl)CC1)[N-]c1ccccc1C(=O)c1ccccc1 (nonaromatic ring conformer: 86.33780155657955 kcal/mol)

>  <smiles>  (5) 
O=C(CN1CCN(Cc2ccccc2Cl)CC1)Nc1ccccc1C(=O)c1ccccc1

>  <score_type>  (5) 
oracle

>  <origin>  (5) 
adg

>  <m_score__min__energy>  (5) 
-12.539999999999999

>  <m_primary>  (5) 
energy

$$$$
5:0
     RDKit          3D

 30 31  0  0  0  0  0  0  0  0999 V2000
   59.2090   29.2500   44.8670 C   0  0  0  0  0  0  0  0  0  0  0  0
   58.0940   29.7920   45.5640 O   0  0  0  0  0  0  0  0  0  0  0  0
   57.4060   30.9280   45.1220 C   0  0  0  0  0  0  0  0  0  0  0  0
   56.2450   30.8080   44.6420 O   0  0  0  0  0  0  0  0  0  0  0  0
   58.0330   32.2750   45.2150 C   0  0  0  0  0  0  0  0  0  0  0  0
   58.3230   32.9910   44.0480 C   0  0  0  0  0  0  0  0  0  0  0  0
   58.8970   34.2150   44.1210 N   0  0  0  0  0  0  0  0  0  0  0  0
   59.2040   34.7770   45.3150 C   0  0  0  0  0  0  0  0  0  0  0  0
   58.9380   34.1220   46.4850 N   0  0  0  0  0  0  0  0  0  0  0  0
   59.2930   34.7250   47.7200 N   0  0  0  0  0  0  0  0  0  0  0  0
   60.6060   34.2740   48.1120 C   0  0  0  0  0  0  0  0  0  0  0  0
   61.5600   33.9280   47.1370 C   0  0  0  0  0  0  0  0  0  0  0  0
   62.8230   33.4660   47.5160 C   0  0  0  0  0  0  0  0  0  0  0  0
   63.1480   33.3420   48.8710 C   0  0  0  0  0  0  0  0  0  0  0  0
   64.7340   32.7620   49.3420 Cl  0  0  0  0  0  0  0  0  0  0  0  0
   62.2070   33.6820   49.8470 C   0  0  0  0  0  0  0  0  0  0  0  0
   60.9420   34.1450   49.4720 C   0  0  0  0  0  0  0  0  0  0  0  0
   58.3580   32.8760   46.4500 C   0  0  0  0  0  0  0  0  0  0  0  0
   58.1140   32.2690   47.5290 O   0  0  0  0  0  0  0  0  0  0  0  0
   59.9536   28.8881   45.5913 H   0  0  0  0  0  0  0  0  0  0  0  0
   58.8753   28.4136   44.2353 H   0  0  0  0  0  0  0  0  0  0  0  0
   59.6606   30.0291   44.2353 H   0  0  0  0  0  0  0  0  0  0  0  0
   58.0833   32.5569   43.0661 H   0  0  0  0  0  0  0  0  0  0  0  0
   59.6727   35.7718   45.3432 H   0  0  0  0  0  0  0  0  0  0  0  0
   59.2920   35.7690   47.6260 H   0  0  0  0  0  0  0  0  0  0  0  0
   58.5810   34.4940   48.4520 H   0  0  0  0  0  0  0  0  0  0  0  0
   61.3098   34.0219   46.0699 H   0  0  0  0  0  0  0  0  0  0  0  0
   63.5633   33.1992   46.7474 H   0  0  0  0  0  0  0  0  0  0  0  0
   62.4622   33.5851   50.9126 H   0  0  0  0  0  0  0  0  0  0  0  0
   60.2054   34.4099   50.2448 H   0  0  0  0  0  0  0  0  0  0  0  0
  1  2  1  0
  2  3  1  0
  3  4  2  0
  3  5  1  0
  5  6  2  0
  6  7  1  0
  7  8  2  0
  8  9  1  0
  9 10  1  0
 10 11  1  0
 11 12  2  0
 12 13  1  0
 13 14  2  0
 14 15  1  0
 14 16  1  0
 16 17  2  0
  9 18  1  0
 18 19  2  0
 18  5  1  0
 17 11  1  0
  1 20  1  0
  1 21  1  0
  1 22  1  0
  6 23  1  0
  8 24  1  0
 10 25  1  0
 10 26  1  0
 12 27  1  0
 13 28  1  0
 16 29  1  0
 17 30  1  0
M  CHG  1  10   1
M  END
>  <UniqueID>  (6) 
6

>  <SMILES>  (6) 
COC(=O)c1cncn([NH2+]c2ccc(Cl)cc2)c1=O

>  <Energy>  (6) 
36.19722270864409

>  <Genealogy>  (6) 
COC(=O)c1cncn([NH2+]c2ccc(Cl)cc2)c1=O (protonated)
COC(=O)c1cncn([NH2+]c2ccc(Cl)cc2)c1=O (3D coordinates assigned)
COC(=O)c1cncn([NH2+]c2ccc(Cl)cc2)c1=O (optimized conformer: 36.19722270864409 kcal/mol)

>  <smiles>  (6) 
COC(=O)c1cncn(Nc2ccc(Cl)cc2)c1=O

>  <score_type>  (6) 
oracle

>  <origin>  (6) 
adg

>  <m_score__min__energy>  (6) 
-5.7199999999999998

>  <m_primary>  (6) 
energy

$$$$
6:0
     RDKit          3D

 49 51  0  0  0  0  0  0  0  0999 V2000
   58.1660   32.9350   47.8860 C   0  0  0  0  0  0  0  0  0  0  0  0
   58.1770   32.8960   46.3900 C   0  0  0  0  0  0  0  0  0  0  0  0
   57.5500   31.9490   45.6650 N   0  0  0  0  0  0  0  0  0  0  0  0
   57.7440   32.2980   44.3780 C   0  0  0  0  0  0  0  0  0  0  0  0
   57.2520   31.4900   43.2120 C   0  0  0  0  0  0  0  0  0  0  0  0
   56.6110   30.1980   43.6400 C   0  0  0  0  0  0  0  0  0  0  0  0
   55.7380   30.2230   44.5490 O   0  0  0  0  0  0  0  0  0  0  0  0
   56.9630   28.9330   43.0620 N   0  0  0  0  0  0  0  0  0  0  0  0
   57.8010   27.9070   43.6770 C   0  0  0  0  0  0  0  0  0  0  0  0
   58.4400   28.4190   44.9470 C   0  0  0  0  0  0  0  0  0  0  0  0
   59.5410   29.2900   44.8590 C   0  0  0  0  0  0  0  0  0  0  0  0
   60.1460   29.7890   46.0140 C   0  0  0  0  0  0  0  0  0  0  0  0
   59.6480   29.4400   47.2680 C   0  0  0  0  0  0  0  0  0  0  0  0
   58.5410   28.5980   47.3740 C   0  0  0  0  0  0  0  0  0  0  0  0
   57.9220   28.0800   46.2170 C   0  0  0  0  0  0  0  0  0  0  0  0
   56.8100   27.2220   46.2930 O   0  0  0  0  0  0  0  0  0  0  0  0
   56.8500   25.8380   46.6450 C   0  0  0  0  0  0  0  0  0  0  0  0
   56.4250   24.9770   45.4860 C   0  0  0  0  0  0  0  0  0  0  0  0
   57.3440   24.6520   44.4730 C   0  0  0  0  0  0  0  0  0  0  0  0
   56.9530   23.8400   43.4030 C   0  0  0  0  0  0  0  0  0  0  0  0
   55.6490   23.3410   43.3410 C   0  0  0  0  0  0  0  0  0  0  0  0
   54.7350   23.6490   44.3520 C   0  0  0  0  0  0  0  0  0  0  0  0
   55.1200   24.4590   45.4250 C   0  0  0  0  0  0  0  0  0  0  0  0
   58.5130   33.4480   44.3370 C   0  0  0  0  0  0  0  0  0  0  0  0
   58.7550   33.8320   45.6050 N   0  0  0  0  0  0  0  0  0  0  0  0
   59.5190   35.0010   46.0260 C   0  0  0  0  0  0  0  0  0  0  0  0
   58.4447   31.9468   48.2806 H   0  0  0  0  0  0  0  0  0  0  0  0
   58.8871   33.6872   48.2385 H   0  0  0  0  0  0  0  0  0  0  0  0
   57.1582   33.1997   48.2385 H   0  0  0  0  0  0  0  0  0  0  0  0
   57.0190   31.1240   46.0230 H   0  0  0  0  0  0  0  0  0  0  0  0
   56.5117   32.0849   42.6571 H   0  0  0  0  0  0  0  0  0  0  0  0
   58.1211   31.2419   42.5850 H   0  0  0  0  0  0  0  0  0  0  0  0
   57.1803   27.0305   43.9147 H   0  0  0  0  0  0  0  0  0  0  0  0
   58.5977   27.6346   42.9691 H   0  0  0  0  0  0  0  0  0  0  0  0
   59.9287   29.5805   43.8714 H   0  0  0  0  0  0  0  0  0  0  0  0
   61.0158   30.4577   45.9343 H   0  0  0  0  0  0  0  0  0  0  0  0
   60.1294   29.8298   48.1770 H   0  0  0  0  0  0  0  0  0  0  0  0
   58.1477   28.3359   48.3673 H   0  0  0  0  0  0  0  0  0  0  0  0
   57.8764   25.5698   46.9357 H   0  0  0  0  0  0  0  0  0  0  0  0
   56.1570   25.6679   47.4821 H   0  0  0  0  0  0  0  0  0  0  0  0
   58.3732   25.0372   44.5218 H   0  0  0  0  0  0  0  0  0  0  0  0
   57.6733   23.5938   42.6089 H   0  0  0  0  0  0  0  0  0  0  0  0
   55.3423   22.7061   42.4967 H   0  0  0  0  0  0  0  0  0  0  0  0
   53.7098   23.2532   44.3038 H   0  0  0  0  0  0  0  0  0  0  0  0
   54.3996   24.6913   46.2232 H   0  0  0  0  0  0  0  0  0  0  0  0
   58.8647   33.9586   43.4284 H   0  0  0  0  0  0  0  0  0  0  0  0
   59.5473   35.0443   47.1248 H   0  0  0  0  0  0  0  0  0  0  0  0
   60.5448   34.9288   45.6354 H   0  0  0  0  0  0  0  0  0  0  0  0
   59.0411   35.9115   45.6354 H   0  0  0  0  0  0  0  0  0  0  0  0
  1  2  1  0
  2  3  2  0
  3  4  1  0
  4  5  1  0
  5  6  1  0
  6  7  2  0
  6  8  1  0
  8  9  1  0
  9 10  1  0
 10 11  2  0
 11 12  1  0
 12 13  2  0
 13 14  1  0
 14 15  2  0
 15 16  1  0
 16 17  1  0
 17 18  1  0
 18 19  2  0
 19 20  1  0
 20 21  2  0
 21 22  1  0
 22 23  2  0
  4 24  2  0
 24 25  1  0
 25 26  1  0
 25  2  1  0
 15 10  1  0
 23 18  1  0
  1 27  1  0
  1 28  1  0
  1 29  1  0
  3 30  1  0
  5 31  1  0
  5 32  1  0
  9 33  1  0
  9 34  1  0
 11 35  1  0
 12 36  1  0
 13 37  1  0
 14 38  1  0
 17 39  1  0
 17 40  1  0
 19 41  1  0
 20 42  1  0
 21 43  1  0
 22 44  1  0
 23 45  1  0
 24 46  1  0
 26 47  1  0
 26 48  1  0
 26 49  1  0
M  CHG  2   3   1   8  -1
M  END
>  <UniqueID>  (7) 
7

>  <SMILES>  (7) 
Cc1[nH+]c(CC(=O)[N-]Cc2ccccc2OCc2ccccc2)cn1C

>  <Energy>  (7) 
71.46126222879089

>  <Genealogy>  (7) 
Cc1[nH+]c(CC(=O)[N-]Cc2ccccc2OCc2ccccc2)cn1C (protonated)
Cc1[nH+]c(CC(=O)[N-]Cc2ccccc2OCc2ccccc2)cn1C (3D coordinates assigned)
Cc1[nH+]c(CC(=O)[N-]Cc2ccccc2OCc2ccccc2)cn1C (optimized conformer: 71.46126222879089 kcal/mol)

>  <smiles>  (7) 
Cc1nc(CC(=O)NCc2ccccc2OCc2ccccc2)cn1C

>  <score_type>  (7) 
oracle

>  <origin>  (7) 
adg

>  <m_score__min__energy>  (7) 
-8.4600000000000009

>  <m_primary>  (7) 
energy

$$$$
7:0
     RDKit          3D

 47 49  0  0  1  0  0  0  0  0999 V2000
   57.3220   31.2460   51.7340 C   0  0  0  0  0  0  0  0  0  0  0  0
   57.8630   30.0900   51.1210 O   0  0  0  0  0  0  0  0  0  0  0  0
   58.9570   30.2490   50.2840 C   0  0  0  0  0  0  0  0  0  0  0  0
   60.1330   30.8560   50.6660 C   0  0  0  0  0  0  0  0  0  0  0  0
   61.1920   30.9760   49.7590 C   0  0  0  0  0  0  0  0  0  0  0  0
   62.2870   31.5520   50.1480 N   0  0  0  0  0  0  0  0  0  0  0  0
   62.9360   32.7880   49.1510 S   0  0  0  0  0  0  0  0  0  0  0  0
   63.4550   33.8630   50.0910 O   0  0  0  0  0  0  0  0  0  0  0  0
   64.0990   32.2680   48.3780 O   0  0  0  0  0  0  0  0  0  0  0  0
   61.6700   33.4130   48.1360 C   0  0  0  0  0  0  0  0  0  0  0  0
   60.6180   34.0660   48.7470 C   0  0  0  0  0  0  0  0  0  0  0  0
   59.5950   34.5620   47.9650 C   0  0  0  0  0  0  0  0  0  0  0  0
   59.5510   34.4480   46.6040 C   0  0  0  0  0  0  0  0  0  0  0  0
   58.5500   34.9200   45.7470 N   0  0  0  0  0  0  0  0  0  0  0  0
   58.0560   34.2210   44.8190 C   0  0  0  0  0  0  0  0  0  0  0  0
   57.9650   32.7800   44.7280 C   0  0  0  0  0  0  0  0  0  0  0  0
   57.7710   32.0330   45.8800 C   0  0  0  0  0  0  0  0  0  0  0  0
   57.6420   32.6530   47.1160 O   0  0  0  0  0  0  0  0  0  0  0  0
   57.7110   30.6770   45.7560 N   0  0  0  0  0  0  0  0  0  0  0  0
   57.8300   30.0460   44.5910 C   0  0  0  0  0  0  0  0  0  0  0  0
   57.7550   28.3990   44.4570 S   0  0  0  0  0  0  0  0  0  0  0  0
   58.0200   30.7480   43.4530 N   0  0  0  0  0  0  0  0  0  0  0  0
   58.0880   32.0930   43.5130 C   0  0  0  0  0  0  0  0  0  0  0  0
   58.2660   32.7490   42.4390 O   0  0  0  0  0  0  0  0  0  0  0  0
   60.6280   33.7810   46.0070 C   0  0  0  0  0  0  0  0  0  0  0  0
   61.6670   33.2740   46.7630 C   0  0  0  0  0  0  0  0  0  0  0  0
   61.0220   30.4840   48.5180 N   0  0  0  0  0  0  0  0  0  0  0  0
   59.8600   29.8850   48.1400 C   0  0  0  0  0  0  0  0  0  0  0  0
   59.6760   29.3740   46.8630 O   0  0  0  0  0  0  0  0  0  0  0  0
   60.7620   29.3810   45.9610 C   0  0  0  0  0  0  0  0  0  0  0  0
   58.8380   29.7690   49.0160 N   0  0  0  0  0  0  0  0  0  0  0  0
   57.3722   31.1387   52.8276 H   0  0  0  0  0  0  0  0  0  0  0  0
   57.9002   32.1294   51.4253 H   0  0  0  0  0  0  0  0  0  0  0  0
   56.2733   31.3680   51.4253 H   0  0  0  0  0  0  0  0  0  0  0  0
   60.2402   31.2480   51.6882 H   0  0  0  0  0  0  0  0  0  0  0  0
   60.5958   34.1889   49.8399 H   0  0  0  0  0  0  0  0  0  0  0  0
   58.7650   35.0803   48.4674 H   0  0  0  0  0  0  0  0  0  0  0  0
   57.6404   34.7809   43.9683 H   0  0  0  0  0  0  0  0  0  0  0  0
   57.4490   33.6390   47.1240 H   0  0  0  0  0  0  0  0  0  0  0  0
   57.5650   30.1010   46.6120 H   0  0  0  0  0  0  0  0  0  0  0  0
   58.1180   30.2560   42.5150 H   0  0  0  0  0  0  0  0  0  0  0  0
   60.6469   33.6584   44.9140 H   0  0  0  0  0  0  0  0  0  0  0  0
   62.4997   32.7547   46.2660 H   0  0  0  0  0  0  0  0  0  0  0  0
   61.7067   29.3871   46.5245 H   0  0  0  0  0  0  0  0  0  0  0  0
   60.7185   28.4826   45.3278 H   0  0  0  0  0  0  0  0  0  0  0  0
   60.7070   30.2788   45.3278 H   0  0  0  0  0  0  0  0  0  0  0  0
   57.9570   29.3140   48.7270 H   0  0  0  0  0  0  0  0  0  0  0  0
  1  2  1  0
  2  3  1  0
  3  4  2  0
  4  5  1  0
  5  6  2  0
  6  7  1  0
  7  8  2  0
  7  9  2  0
  7 10  1  0
 10 11  2  0
 11 12  1  0
 12 13  2  0
 13 14  1  0
 14 15  2  0
 15 16  1  0
 16 17  2  0
 17 18  1  0
 17 19  1  0
 19 20  1  0
 20 21  2  0
 20 22  1  0
 22 23  1  0
 23 24  2  0
 13 25  1  0
 25 26  2  0
  5 27  1  0
 27 28  2  0
 28 29  1  0
 29 30  1  0
 28 31  1  0
 31  3  1  0
 26 10  1  0
 23 16  1  0
  1 32  1  0
  1 33  1  0
  1 34  1  0
  4 35  1  0
 11 36  1  0
 12 37  1  0
 15 38  1  0
 18 39  1  0
 19 40  1  0
 22 41  1  0
 25 42  1  0
 26 43  1  0
 30 44  1  0
 30 45  1  0
 30 46  1  0
 31 47  1  0
M  END
>  <smiles>  (8) 
COc1cc(=NS(=O)(=O)c2ccc(N=Cc3c(O)[nH]c(=S)[nH]c3=O)cc2)nc(OC)[nH]1

>  <score_type>  (8) 
oracle

>  <origin>  (8) 
adg

>  <m_score__min__energy>  (8) 
-8.8599999999999994

>  <m_primary>  (8) 
energy

$$$$
8:0
     RDKit          3D

 46 48  0  0  0  0  0  0  0  0999 V2000
   62.1120   33.2370   47.3280 C   0  0  0  0  0  0  0  0  0  0  0  0
   60.7900   33.4720   47.7990 O   0  0  0  0  0  0  0  0  0  0  0  0
   59.6710   33.6630   46.9720 C   0  0  0  0  0  0  0  0  0  0  0  0
   59.7860   34.2150   45.6800 C   0  0  0  0  0  0  0  0  0  0  0  0
   58.6550   34.3870   44.8800 C   0  0  0  0  0  0  0  0  0  0  0  0
   57.3980   34.0120   45.3550 C   0  0  0  0  0  0  0  0  0  0  0  0
   57.2680   33.4650   46.6330 C   0  0  0  0  0  0  0  0  0  0  0  0
   58.3970   33.2890   47.4510 C   0  0  0  0  0  0  0  0  0  0  0  0
   58.2430   32.6800   48.8210 C   0  0  0  0  0  0  0  0  0  0  0  0
   59.1430   31.5400   48.9760 N   0  0  0  0  0  0  0  0  0  0  0  0
   58.8600   30.4510   49.8650 C   0  0  0  0  0  0  0  0  0  0  0  0
   57.7740   30.4160   50.5060 O   0  0  0  0  0  0  0  0  0  0  0  0
   59.8710   29.3660   50.0690 C   0  0  0  0  0  0  0  0  0  0  0  0
   60.8550   29.0980   48.5530 S   0  0  0  0  0  0  0  0  0  0  0  0
   59.5480   28.2300   47.6610 C   0  0  0  0  0  0  0  0  0  0  0  0
   59.2260   26.9420   48.0710 C   0  0  0  0  0  0  0  0  0  0  0  0
   58.2490   26.2100   47.3990 C   0  0  0  0  0  0  0  0  0  0  0  0
   57.9960   25.0430   47.8040 O   0  0  0  0  0  0  0  0  0  0  0  0
   57.5840   26.7460   46.3210 N   0  0  0  0  0  0  0  0  0  0  0  0
   56.5610   25.9390   45.6240 C   0  0  0  0  0  0  0  0  0  0  0  0
   57.8690   28.0330   45.8980 C   0  0  0  0  0  0  0  0  0  0  0  0
   57.2020   28.6200   44.7940 C   0  0  0  0  0  0  0  0  0  0  0  0
   57.4970   29.9210   44.3840 C   0  0  0  0  0  0  0  0  0  0  0  0
   56.6580   30.6210   43.0100 Cl  0  0  0  0  0  0  0  0  0  0  0  0
   58.4520   30.6690   45.0650 C   0  0  0  0  0  0  0  0  0  0  0  0
   59.1240   30.1220   46.1550 C   0  0  0  0  0  0  0  0  0  0  0  0
   58.8570   28.8050   46.5770 C   0  0  0  0  0  0  0  0  0  0  0  0
   62.7906   33.1164   48.1853 H   0  0  0  0  0  0  0  0  0  0  0  0
   62.1265   32.3222   46.7173 H   0  0  0  0  0  0  0  0  0  0  0  0
   62.4409   34.0908   46.7173 H   0  0  0  0  0  0  0  0  0  0  0  0
   60.7743   34.5124   45.2994 H   0  0  0  0  0  0  0  0  0  0  0  0
   58.7551   34.8190   43.8733 H   0  0  0  0  0  0  0  0  0  0  0  0
   56.5085   34.1474   44.7221 H   0  0  0  0  0  0  0  0  0  0  0  0
   56.2748   33.1697   47.0022 H   0  0  0  0  0  0  0  0  0  0  0  0
   58.4820   33.4366   49.5828 H   0  0  0  0  0  0  0  0  0  0  0  0
   57.2058   32.3347   48.9433 H   0  0  0  0  0  0  0  0  0  0  0  0
   60.0510   31.5480   48.4600 H   0  0  0  0  0  0  0  0  0  0  0  0
   60.5450   29.6516   50.8900 H   0  0  0  0  0  0  0  0  0  0  0  0
   59.3412   28.4335   50.3134 H   0  0  0  0  0  0  0  0  0  0  0  0
   59.7460   26.4970   48.9322 H   0  0  0  0  0  0  0  0  0  0  0  0
   55.9231   25.4358   46.3655 H   0  0  0  0  0  0  0  0  0  0  0  0
   55.9429   26.5954   44.9938 H   0  0  0  0  0  0  0  0  0  0  0  0
   57.0555   25.1851   44.9938 H   0  0  0  0  0  0  0  0  0  0  0  0
   56.4398   28.0412   44.2517 H   0  0  0  0  0  0  0  0  0  0  0  0
   58.6770   31.6959   44.7413 H   0  0  0  0  0  0  0  0  0  0  0  0
   59.8712   30.7247   46.6921 H   0  0  0  0  0  0  0  0  0  0  0  0
  1  2  1  0
  2  3  1  0
  3  4  2  0
  4  5  1  0
  5  6  2  0
  6  7  1  0
  7  8  2  0
  8  9  1  0
  9 10  1  0
 10 11  1  0
 11 12  2  0
 11 13  1  0
 13 14  1  0
 14 15  1  0
 15 16  2  0
 16 17  1  0
 17 18  2  0
 17 19  1  0
 19 20  1  0
 19 21  1  0
 21 22  2  0
 22 23  1  0
 23 24  1  0
 23 25  2  0
 25 26  1  0
 26 27  2  0
  8  3  1  0
 27 15  1  0
 27 21  1  0
  1 28  1  0
  1 29  1  0
  1 30  1  0
  4 31  1  0
  5 32  1  0
  6 33  1  0
  7 34  1  0
  9 35  1  0
  9 36  1  0
 10 37  1  0
 13 38  1  0
 13 39  1  0
 16 40  1  0
 20 41  1  0
 20 42  1  0
 20 43  1  0
 22 44  1  0
 25 45  1  0
 26 46  1  0
M  END
>  <UniqueID>  (9) 
8

>  <SMILES>  (9) 
COc1ccccc1CNC(=O)CSc1cc(=O)n(C)c2cc(Cl)ccc12

>  <Energy>  (9) 
50.40660855583519

>  <Genealogy>  (9) 
COc1ccccc1CNC(=O)CSc1cc(=O)n(C)c2cc(Cl)ccc12 (3D coordinates assigned)
COc1ccccc1CNC(=O)CSc1cc(=O)n(C)c2cc(Cl)ccc12 (optimized conformer: 50.40660855583519 kcal/mol)

>  <smiles>  (9) 
COc1ccccc1CNC(=O)CSc1cc(=O)n(C)c2cc(Cl)ccc12

>  <score_type>  (9) 
oracle

>  <origin>  (9) 
adg

>  <m_score__min__energy>  (9) 
-8.4000000000000004

>  <m_primary>  (9) 
energy

$$$$
9:0
     RDKit          3D

 35 36  0  0  0  0  0  0  0  0999 V2000
   56.7600   33.1070   45.6490 O   0  0  0  0  0  0  0  0  0  0  0  0
   58.0060   33.2860   45.7290 C   0  0  0  0  0  0  0  0  0  0  0  0
   58.5330   34.5390   46.3600 C   0  0  0  0  0  0  0  0  0  0  0  0
   59.6110   34.2120   47.3080 N   0  0  0  0  0  0  0  0  0  0  0  0
   59.3310   34.1900   48.6480 C   0  0  0  0  0  0  0  0  0  0  0  0
   60.3170   33.8580   49.5780 C   0  0  0  0  0  0  0  0  0  0  0  0
   61.5970   33.5390   49.1340 C   0  0  0  0  0  0  0  0  0  0  0  0
   61.8800   33.5500   47.7680 C   0  0  0  0  0  0  0  0  0  0  0  0
   63.6420   33.0980   47.1680 Br  0  0  0  0  0  0  0  0  0  0  0  0
   60.8670   33.8870   46.8570 C   0  0  0  0  0  0  0  0  0  0  0  0
   61.1230   33.8860   45.6210 O   0  0  0  0  0  0  0  0  0  0  0  0
   58.9140   32.3210   45.1780 N   0  0  0  0  0  0  0  0  0  0  0  0
   58.4490   31.1000   44.5120 C   0  0  0  0  0  0  0  0  0  0  0  0
   57.7400   30.1760   45.5180 C   0  0  0  0  0  0  0  0  0  0  0  0
   57.3210   28.8420   44.8680 C   0  0  0  0  0  0  0  0  0  0  0  0
   57.0080   28.9630   43.3630 C   0  0  0  0  0  0  0  0  0  0  0  0
   56.4820   30.3560   43.0050 C   0  0  0  0  0  0  0  0  0  0  0  0
   57.5120   31.4570   43.3310 C   0  0  0  0  0  0  0  0  0  0  0  0
   58.9263   35.2035   45.5766 H   0  0  0  0  0  0  0  0  0  0  0  0
   57.7172   35.0409   46.9009 H   0  0  0  0  0  0  0  0  0  0  0  0
   58.3170   34.4369   48.9956 H   0  0  0  0  0  0  0  0  0  0  0  0
   60.0846   33.8485   50.6531 H   0  0  0  0  0  0  0  0  0  0  0  0
   62.3832   33.2790   49.8581 H   0  0  0  0  0  0  0  0  0  0  0  0
   59.9390   32.5220   45.2270 H   0  0  0  0  0  0  0  0  0  0  0  0
   59.3199   30.5616   44.1099 H   0  0  0  0  0  0  0  0  0  0  0  0
   58.4242   29.9664   46.3534 H   0  0  0  0  0  0  0  0  0  0  0  0
   56.8318   30.6859   45.8717 H   0  0  0  0  0  0  0  0  0  0  0  0
   58.1406   28.1196   44.9963 H   0  0  0  0  0  0  0  0  0  0  0  0
   56.3959   28.5159   45.3658 H   0  0  0  0  0  0  0  0  0  0  0  0
   57.9277   28.7712   42.7909 H   0  0  0  0  0  0  0  0  0  0  0  0
   56.2289   28.2274   43.1142 H   0  0  0  0  0  0  0  0  0  0  0  0
   56.2569   30.3861   41.9287 H   0  0  0  0  0  0  0  0  0  0  0  0
   55.5781   30.5448   43.6027 H   0  0  0  0  0  0  0  0  0  0  0  0
   58.1296   31.6310   42.4375 H   0  0  0  0  0  0  0  0  0  0  0  0
   56.9448   32.3514   43.6283 H   0  0  0  0  0  0  0  0  0  0  0  0
  1  2  2  0
  2  3  1  0
  3  4  1  0
  4  5  1  0
  5  6  2  0
  6  7  1  0
  7  8  2  0
  8  9  1  0
  8 10  1  0
 10 11  2  0
  2 12  1  0
 12 13  1  0
 13 14  1  0
 14 15  1  0
 15 16  1  0
 16 17  1  0
 17 18  1  0
 10  4  1  0
 18 13  1  0
  3 19  1  0
  3 20  1  0
  5 21  1  0
  6 22  1  0
  7 23  1  0
 12 24  1  0
 13 25  1  0
 14 26  1  0
 14 27  1  0
 15 28  1  0
 15 29  1  0
 16 30  1  0
 16 31  1  0
 17 32  1  0
 17 33  1  0
 18 34  1  0
 18 35  1  0
M  END
>  <UniqueID>  (10) 
9

>  <SMILES>  (10) 
O=C(Cn1cccc(Br)c1=O)NC1CCCCC1

>  <Energy>  (10) 
34.759235744744366

>  <Genealogy>  (10) 
O=C(Cn1cccc(Br)c1=O)NC1CCCCC1 (3D coordinates assigned)
O=C(Cn1cccc(Br)c1=O)NC1CCCCC1 (nonaromatic ring conformer: 34.759235744744366 kcal/mol)

>  <smiles>  (10) 
O=C(Cn1cccc(Br)c1=O)NC1CCCCC1

>  <score_type>  (10) 
oracle

>  <origin>  (10) 
adg

>  <m_score__min__energy>  (10) 
-6.5899999999999999

>  <m_primary>  (10) 
energy

$$$$
10:0
     RDKit          3D

 53 56  0  0  0  0  0  0  0  0999 V2000
   58.6600   34.7300   44.8830 C   0  0  0  0  0  0  0  0  0  0  0  0
   59.5430   33.7610   45.6130 C   0  0  0  0  0  0  0  0  0  0  0  0
   60.6920   34.2390   46.1690 N   0  0  0  0  0  0  0  0  0  0  0  0
   61.5290   33.4020   46.8190 C   0  0  0  0  0  0  0  0  0  0  0  0
   62.9730   33.8290   47.5550 S   0  0  0  0  0  0  0  0  0  0  0  0
   63.2860   32.2430   48.0550 C   0  0  0  0  0  0  0  0  0  0  0  0
   62.2410   31.4260   47.6250 C   0  0  0  0  0  0  0  0  0  0  0  0
   61.2670   32.0850   46.9360 N   0  0  0  0  0  0  0  0  0  0  0  0
   60.1400   31.5400   46.4000 C   0  0  0  0  0  0  0  0  0  0  0  0
   59.9180   30.3040   46.5240 O   0  0  0  0  0  0  0  0  0  0  0  0
   59.2340   32.3750   45.7070 C   0  0  0  0  0  0  0  0  0  0  0  0
   57.7560   31.7130   44.9680 S   0  0  0  0  0  0  0  0  0  0  0  0
   57.9630   31.5950   43.4840 O   0  0  0  0  0  0  0  0  0  0  0  0
   56.5750   32.6140   45.2090 O   0  0  0  0  0  0  0  0  0  0  0  0
   57.4000   30.1430   45.6240 N   0  0  0  0  0  0  0  0  0  0  0  0
   57.1390   29.2000   44.5330 C   0  0  0  0  0  0  0  0  0  0  0  0
   58.4110   28.3800   44.1980 C   0  0  0  0  0  0  0  0  0  0  0  0
   58.1400   27.2770   43.1390 C   0  0  0  0  0  0  0  0  0  0  0  0
   57.7670   25.9210   43.7660 C   0  0  0  0  0  0  0  0  0  0  0  0
   57.1400   26.1230   45.0870 N   0  0  0  0  0  0  0  0  0  0  0  0
   56.5100   24.8850   45.5850 C   0  0  0  0  0  0  0  0  0  0  0  0
   57.0040   23.7000   44.7950 C   0  0  0  0  0  0  0  0  0  0  0  0
   58.2350   23.1110   45.1300 C   0  0  0  0  0  0  0  0  0  0  0  0
   58.7020   21.9990   44.4240 C   0  0  0  0  0  0  0  0  0  0  0  0
   57.9450   21.4650   43.3780 C   0  0  0  0  0  0  0  0  0  0  0  0
   56.7190   22.0410   43.0380 C   0  0  0  0  0  0  0  0  0  0  0  0
   56.2440   23.1550   43.7420 C   0  0  0  0  0  0  0  0  0  0  0  0
   55.0450   23.6900   43.3980 F   0  0  0  0  0  0  0  0  0  0  0  0
   58.1260   26.6400   46.0620 C   0  0  0  0  0  0  0  0  0  0  0  0
   59.0210   27.7500   45.4660 C   0  0  0  0  0  0  0  0  0  0  0  0
   58.1044   35.3397   45.6107 H   0  0  0  0  0  0  0  0  0  0  0  0
   59.2780   35.3853   44.2516 H   0  0  0  0  0  0  0  0  0  0  0  0
   57.9503   34.1754   44.2516 H   0  0  0  0  0  0  0  0  0  0  0  0
   64.1670   31.9117   48.6243 H   0  0  0  0  0  0  0  0  0  0  0  0
   62.2058   30.3448   47.8243 H   0  0  0  0  0  0  0  0  0  0  0  0
   58.2590   29.8380   46.1360 H   0  0  0  0  0  0  0  0  0  0  0  0
   56.3357   28.5120   44.8354 H   0  0  0  0  0  0  0  0  0  0  0  0
   56.8404   29.7682   43.6397 H   0  0  0  0  0  0  0  0  0  0  0  0
   59.1328   29.0903   43.7686 H   0  0  0  0  0  0  0  0  0  0  0  0
   57.3111   27.6054   42.4948 H   0  0  0  0  0  0  0  0  0  0  0  0
   59.0696   27.1319   42.5691 H   0  0  0  0  0  0  0  0  0  0  0  0
   57.0604   25.3976   43.1051 H   0  0  0  0  0  0  0  0  0  0  0  0
   58.6805   25.3211   43.8913 H   0  0  0  0  0  0  0  0  0  0  0  0
   56.7660   24.7476   46.6459 H   0  0  0  0  0  0  0  0  0  0  0  0
   55.4188   24.9647   45.4712 H   0  0  0  0  0  0  0  0  0  0  0  0
   58.8346   23.5276   45.9528 H   0  0  0  0  0  0  0  0  0  0  0  0
   59.6667   21.5436   44.6921 H   0  0  0  0  0  0  0  0  0  0  0  0
   58.3148   20.5907   42.8222 H   0  0  0  0  0  0  0  0  0  0  0  0
   56.1244   21.6185   42.2146 H   0  0  0  0  0  0  0  0  0  0  0  0
   57.5848   27.0499   46.9275 H   0  0  0  0  0  0  0  0  0  0  0  0
   58.7790   25.8039   46.3525 H   0  0  0  0  0  0  0  0  0  0  0  0
   59.1568   28.5379   46.2215 H   0  0  0  0  0  0  0  0  0  0  0  0
   59.9805   27.2917   45.1842 H   0  0  0  0  0  0  0  0  0  0  0  0
  1  2  1  0
  2  3  1  0
  3  4  2  0
  4  5  1  0
  5  6  1  0
  6  7  2  0
  7  8  1  0
  8  9  1  0
  9 10  2  0
  9 11  1  0
 11 12  1  0
 12 13  2  0
 12 14  2  0
 12 15  1  0
 15 16  1  0
 16 17  1  0
 17 18  1  0
 18 19  1  0
 19 20  1  0
 20 21  1  0
 21 22  1  0
 22 23  2  0
 23 24  1  0
 24 25  2  0
 25 26  1  0
 26 27  2  0
 27 28  1  0
 20 29  1  0
 29 30  1  0
 11  2  2  0
 30 17  1  0
  8  4  1  0
 27 22  1  0
  1 31  1  0
  1 32  1  0
  1 33  1  0
  6 34  1  0
  7 35  1  0
 15 36  1  0
 16 37  1  0
 16 38  1  0
 17 39  1  0
 18 40  1  0
 18 41  1  0
 19 42  1  0
 19 43  1  0
 21 44  1  0
 21 45  1  0
 23 46  1  0
 24 47  1  0
 25 48  1  0
 26 49  1  0
 29 50  1  0
 29 51  1  0
 30 52  1  0
 30 53  1  0
M  END
>  <UniqueID>  (11) 
10

>  <SMILES>  (11) 
Cc1nc2sccn2c(=O)c1S(=O)(=O)NCC1CCN(Cc2ccccc2F)CC1

>  <Energy>  (11) 
96.84337330175094

>  <Genealogy>  (11) 
Cc1nc2sccn2c(=O)c1S(=O)(=O)NCC1CCN(Cc2ccccc2F)CC1 (3D coordinates assigned)
Cc1nc2sccn2c(=O)c1S(=O)(=O)NCC1CCN(Cc2ccccc2F)CC1 (nonaromatic ring conformer: 96.84337330175094 kcal/mol)

>  <smiles>  (11) 
Cc1nc2sccn2c(=O)c1S(=O)(=O)NCC1CCN(Cc2ccccc2F)CC1

>  <score_type>  (11) 
oracle

>  <origin>  (11) 
adg

>  <m_score__min__energy>  (11) 
-10.5

>  <m_primary>  (11) 
energy

$$$$
11:0
     RDKit          3D

 38 40  0  0  0  0  0  0  0  0999 V2000
   55.9000   21.8660   42.3160 N   0  0  0  0  0  0  0  0  0  0  0  0
   56.6400   21.9810   43.3720 C   0  0  0  0  0  0  0  0  0  0  0  0
   56.6160   22.9800   44.2890 N   0  0  0  0  0  0  0  0  0  0  0  0
   57.5380   22.7360   45.2370 C   0  0  0  0  0  0  0  0  0  0  0  0
   57.9490   23.7050   46.6840 S   0  0  0  0  0  0  0  0  0  0  0  0
   56.9550   25.2070   46.6410 C   0  0  0  0  0  0  0  0  0  0  0  0
   57.4640   26.1940   45.6570 C   0  0  0  0  0  0  0  0  0  0  0  0
   57.6550   25.7990   44.3410 C   0  0  0  0  0  0  0  0  0  0  0  0
   58.1250   26.6530   43.3680 C   0  0  0  0  0  0  0  0  0  0  0  0
   58.4110   27.9560   43.7410 C   0  0  0  0  0  0  0  0  0  0  0  0
   58.2290   28.3690   45.0460 C   0  0  0  0  0  0  0  0  0  0  0  0
   58.5520   29.7560   45.3630 C   0  0  0  0  0  0  0  0  0  0  0  0
   59.7640   30.0910   45.3950 O   0  0  0  0  0  0  0  0  0  0  0  0
   57.5910   30.7490   45.6380 N   0  0  0  0  0  0  0  0  0  0  0  0
   58.0710   32.0620   45.9320 C   0  0  0  0  0  0  0  0  0  0  0  0
   57.9500   33.0420   44.9680 C   0  0  0  0  0  0  0  0  0  0  0  0
   58.3900   34.3110   45.1970 C   0  0  0  0  0  0  0  0  0  0  0  0
   58.9650   34.6030   46.4160 C   0  0  0  0  0  0  0  0  0  0  0  0
   59.0950   33.6320   47.3970 C   0  0  0  0  0  0  0  0  0  0  0  0
   59.8250   34.0080   48.9470 Cl  0  0  0  0  0  0  0  0  0  0  0  0
   58.6450   32.3290   47.1690 C   0  0  0  0  0  0  0  0  0  0  0  0
   57.7580   27.4950   46.0040 C   0  0  0  0  0  0  0  0  0  0  0  0
   58.1280   21.5730   44.8920 N   0  0  0  0  0  0  0  0  0  0  0  0
   57.6020   21.1010   43.7720 N   0  0  0  0  0  0  0  0  0  0  0  0
   56.0590   22.4950   41.5040 H   0  0  0  0  0  0  0  0  0  0  0  0
   55.9225   24.9398   46.3716 H   0  0  0  0  0  0  0  0  0  0  0  0
   57.0044   25.6706   47.6373 H   0  0  0  0  0  0  0  0  0  0  0  0
   57.4214   24.7607   44.0630 H   0  0  0  0  0  0  0  0  0  0  0  0
   58.2681   26.3125   42.3319 H   0  0  0  0  0  0  0  0  0  0  0  0
   58.7864   28.6679   42.9911 H   0  0  0  0  0  0  0  0  0  0  0  0
   56.5780   30.5010   45.6190 H   0  0  0  0  0  0  0  0  0  0  0  0
   57.4911   32.7947   43.9994 H   0  0  0  0  0  0  0  0  0  0  0  0
   58.2886   35.0875   44.4245 H   0  0  0  0  0  0  0  0  0  0  0  0
   59.3264   35.6230   46.6132 H   0  0  0  0  0  0  0  0  0  0  0  0
   58.7411   31.5471   47.9367 H   0  0  0  0  0  0  0  0  0  0  0  0
   57.6177   27.8352   47.0406 H   0  0  0  0  0  0  0  0  0  0  0  0
   58.8950   21.0800   45.4080 H   0  0  0  0  0  0  0  0  0  0  0  0
   57.8600   20.2150   43.2610 H   0  0  0  0  0  0  0  0  0  0  0  0
  1  2  2  3
  2  3  1  0
  3  4  2  0
  4  5  1  0
  5  6  1  0
  6  7  1  0
  7  8  2  0
  8  9  1  0
  9 10  2  0
 10 11  1  0
 11 12  1  0
 12 13  2  0
 12 14  1  0
 14 15  1  0
 15 16  2  0
 16 17  1  0
 17 18  2  0
 18 19  1  0
 19 20  1  0
 19 21  2  0
 11 22  2  0
  4 23  1  0
 23 24  1  0
 24  2  1  0
 22  7  1  0
 21 15  1  0
  1 25  1  0
  6 26  1  0
  6 27  1  0
  8 28  1  0
  9 29  1  0
 10 30  1  0
 14 31  1  0
 16 32  1  0
 17 33  1  0
 18 34  1  0
 21 35  1  0
 22 36  1  0
 23 37  1  0
 24 38  1  0
M  END
>  <smiles>  (12) 
N=c1nc(SCc2cccc(C(=O)Nc3cccc(Cl)c3)c2)[nH][nH]1

>  <score_type>  (12) 
oracle

>  <origin>  (12) 
adg

>  <m_score__min__energy>  (12) 
-8.4900000000000002

>  <m_primary>  (12) 
energy

$$$$
12:0
     RDKit          3D

 64 69  0  0  0  0  0  0  0  0999 V2000
   60.5770   29.9300   51.9710 H   0  0  0  0  0  0  0  0  0  0  0  0
   60.5330   30.7930   51.3870 N   0  0  0  0  0  0  0  0  0  0  0  0
   61.0030   30.8680   50.1830 C   0  0  0  0  0  0  0  0  0  0  0  0
   60.2910   30.3370   49.1490 N   0  0  0  0  0  0  0  0  0  0  0  0
   60.7600   30.4060   47.8630 C   0  0  0  0  0  0  0  0  0  0  0  0
   60.0010   29.8170   46.7870 N   0  0  0  0  0  0  0  0  0  0  0  0
   58.5400   29.9910   46.7590 C   0  0  0  0  0  0  0  0  0  0  0  0
   58.1271   29.6892   47.7328 H   0  0  0  0  0  0  0  0  0  0  0  0
   58.3264   31.0494   46.5489 H   0  0  0  0  0  0  0  0  0  0  0  0
   57.8850   29.1460   45.6590 C   0  0  0  0  0  0  0  0  0  0  0  0
   56.8078   29.0562   45.8628 H   0  0  0  0  0  0  0  0  0  0  0  0
   58.0440   29.6364   44.6873 H   0  0  0  0  0  0  0  0  0  0  0  0
   58.4870   27.8020   45.6230 N   0  0  0  0  0  0  0  0  0  0  0  0
   57.6560   26.6230   45.5640 C   0  0  0  0  0  0  0  0  0  0  0  0
   56.3000   26.6620   45.6210 N   0  0  0  0  0  0  0  0  0  0  0  0
   55.9300   25.3690   45.5740 C   0  0  0  0  0  0  0  0  0  0  0  0
   54.6450   24.8540   45.6230 C   0  0  0  0  0  0  0  0  0  0  0  0
   53.6550   25.6330   45.6890 O   0  0  0  0  0  0  0  0  0  0  0  0
   54.4820   23.4880   45.5990 N   0  0  0  0  0  0  0  0  0  0  0  0
   53.1260   22.9040   45.6290 C   0  0  0  0  0  0  0  0  0  0  0  0
   52.8087   22.7673   46.6733 H   0  0  0  0  0  0  0  0  0  0  0  0
   52.4244   23.5797   45.1180 H   0  0  0  0  0  0  0  0  0  0  0  0
   53.1349   21.9299   45.1180 H   0  0  0  0  0  0  0  0  0  0  0  0
   55.5840   22.6560   45.4860 C   0  0  0  0  0  0  0  0  0  0  0  0
   55.4170   21.4040   45.4040 O   0  0  0  0  0  0  0  0  0  0  0  0
   56.8630   23.1770   45.4620 N   0  0  0  0  0  0  0  0  0  0  0  0
   58.0440   22.3030   45.3570 C   0  0  0  0  0  0  0  0  0  0  0  0
   58.9555   22.9138   45.4344 H   0  0  0  0  0  0  0  0  0  0  0  0
   58.0156   21.5637   46.1710 H   0  0  0  0  0  0  0  0  0  0  0  0
   58.0420   21.5660   44.0140 C   0  0  0  0  0  0  0  0  0  0  0  0
   59.0583   21.5841   43.5936 H   0  0  0  0  0  0  0  0  0  0  0  0
   57.7109   20.5311   44.1857 H   0  0  0  0  0  0  0  0  0  0  0  0
   57.0820   22.2220   43.0240 C   0  0  0  0  0  0  0  0  0  0  0  0
   56.2964   22.7588   43.5759 H   0  0  0  0  0  0  0  0  0  0  0  0
   57.6358   22.9314   42.3915 H   0  0  0  0  0  0  0  0  0  0  0  0
   56.6223   21.4483   42.3915 H   0  0  0  0  0  0  0  0  0  0  0  0
   56.9970   24.5350   45.4970 C   0  0  0  0  0  0  0  0  0  0  0  0
   58.1350   25.3150   45.4840 C   0  0  0  0  0  0  0  0  0  0  0  0
   59.1815   24.9816   45.4242 H   0  0  0  0  0  0  0  0  0  0  0  0
   59.9530   27.6600   45.6250 C   0  0  0  0  0  0  0  0  0  0  0  0
   60.2489   27.0306   46.4772 H   0  0  0  0  0  0  0  0  0  0  0  0
   60.2541   27.2006   44.6720 H   0  0  0  0  0  0  0  0  0  0  0  0
   60.6530   29.0150   45.7430 C   0  0  0  0  0  0  0  0  0  0  0  0
   61.7095   28.8596   46.0070 H   0  0  0  0  0  0  0  0  0  0  0  0
   60.5880   29.5448   44.7812 H   0  0  0  0  0  0  0  0  0  0  0  0
   61.9610   31.0070   47.6110 N   0  0  0  0  0  0  0  0  0  0  0  0
   62.6550   31.5240   48.6520 C   0  0  0  0  0  0  0  0  0  0  0  0
   63.8780   32.1530   48.6230 C   0  0  0  0  0  0  0  0  0  0  0  0
   64.5174   32.3603   47.7523 H   0  0  0  0  0  0  0  0  0  0  0  0
   64.1140   32.4660   49.9660 C   0  0  0  0  0  0  0  0  0  0  0  0
   65.3290   33.1360   50.5070 C   0  0  0  0  0  0  0  0  0  0  0  0
   66.6130   32.7380   50.0840 C   0  0  0  0  0  0  0  0  0  0  0  0
   66.7173   31.9383   49.3359 H   0  0  0  0  0  0  0  0  0  0  0  0
   67.7570   33.3520   50.6080 C   0  0  0  0  0  0  0  0  0  0  0  0
   68.7539   33.0320   50.2708 H   0  0  0  0  0  0  0  0  0  0  0  0
   67.6370   34.3690   51.5570 C   0  0  0  0  0  0  0  0  0  0  0  0
   68.5375   34.8468   51.9704 H   0  0  0  0  0  0  0  0  0  0  0  0
   66.3700   34.7780   51.9800 C   0  0  0  0  0  0  0  0  0  0  0  0
   66.2737   35.5822   52.7243 H   0  0  0  0  0  0  0  0  0  0  0  0
   65.2230   34.1680   51.4600 C   0  0  0  0  0  0  0  0  0  0  0  0
   64.2295   34.4973   51.7985 H   0  0  0  0  0  0  0  0  0  0  0  0
   63.0670   32.0340   50.7180 N   0  0  0  0  0  0  0  0  0  0  0  0
   62.9500   32.1410   51.7490 H   0  0  0  0  0  0  0  0  0  0  0  0
   62.1950   31.4610   49.9030 N   0  0  0  0  0  0  0  0  0  0  0  0
  1  2  1  0
  2  3  2  0
  3  4  1  0
  4  5  1  0
  5  6  1  0
  6  7  1  0
  7  8  1  0
  7  9  1  0
  7 10  1  0
 10 11  1  0
 10 12  1  0
 10 13  1  0
 13 14  1  0
 14 15  1  0
 15 16  1  0
 16 17  1  0
 17 18  2  0
 17 19  1  0
 19 20  1  0
 20 21  1  0
 20 22  1  0
 20 23  1  0
 19 24  1  0
 24 25  2  0
 24 26  1  0
 26 27  1  0
 27 28  1  0
 27 29  1  0
 27 30  1  0
 30 31  1  0
 30 32  1  0
 30 33  1  0
 33 34  1  0
 33 35  1  0
 33 36  1  0
 26 37  1  0
 37 38  1  0
 38 39  1  0
 13 40  1  0
 40 41  1  0
 40 42  1  0
 40 43  1  0
 43 44  1  0
 43 45  1  0
  5 46  2  0
 46 47  1  0
 47 48  2  0
 48 49  1  0
 48 50  1  0
 50 51  1  0
 51 52  2  0
 52 53  1  0
 52 54  1  0
 54 55  1  0
 54 56  2  0
 56 57  1  0
 56 58  1  0
 58 59  1  0
 58 60  2  0
 60 61  1  0
 50 62  2  0
 62 63  1  0
 62 64  1  0
 64  3  1  0
 43  6  1  0
 64 47  1  0
 38 14  2  0
 60 51  1  0
 37 16  2  0
M  CHG  3   4  -1  15  -1  62   1
M  END
>  <UniqueID>  (13) 
11

>  <SMILES>  (13) 
[H]/N=c1/[n-]c(N2CCN(c3cc4c([n-]3)c(=O)n(C)c(=O)n4CCC)CC2)nc2cc(-c3ccccc3)[nH+]n12

>  <Energy>  (13) 
150.13158847270287

>  <Genealogy>  (13) 
CCCn1c(=O)n(C)c(=O)c2[n-]c(N3CCN(c4nc5cc(-c6ccccc6)[nH+]n5c(=N)[n-]4)CC3)cc21 (protonated)
[H]/N=c1/[n-]c(N2CCN(c3cc4c([n-]3)c(=O)n(C)c(=O)n4CCC)CC2)nc2cc(-c3ccccc3)[nH+]n12 (cis-trans isomerization)
[H]/N=c1/[n-]c(N2CCN(c3cc4c([n-]3)c(=O)n(C)c(=O)n4CCC)CC2)nc2cc(-c3ccccc3)[nH+]n12 (3D coordinates assigned)
[H]/N=c1/[n-]c(N2CCN(c3cc4c([n-]3)c(=O)n(C)c(=O)n4CCC)CC2)nc2cc(-c3ccccc3)[nH+]n12 (nonaromatic ring conformer: 150.13158847270287 kcal/mol)

>  <smiles>  (13) 
CCCn1c(=O)n(C)c(=O)c2[nH]c(N3CCN(c4nc5cc(-c6ccccc6)nn5c(=N)[nH]4)CC3)cc21

>  <score_type>  (13) 
oracle

>  <origin>  (13) 
adg

>  <m_score__min__energy>  (13) 
-8.7200000000000006

>  <m_primary>  (13) 
energy

$$$$
13:0
     RDKit          3D

 75 78  0  0  0  0  0  0  0  0999 V2000
   63.3920   32.5120   47.1150 C   0  0  0  0  0  0  0  0  0  0  0  0
   62.8880   33.8710   48.2150 S   0  0  0  0  0  0  0  0  0  0  0  0
   63.7570   33.1990   49.6340 C   0  0  0  0  0  0  0  0  0  0  0  0
   65.0660   32.7230   49.4960 C   0  0  0  0  0  0  0  0  0  0  0  0
   65.7440   32.2100   50.6050 C   0  0  0  0  0  0  0  0  0  0  0  0
   65.1110   32.1610   51.8510 C   0  0  0  0  0  0  0  0  0  0  0  0
   63.7940   32.6120   51.9950 C   0  0  0  0  0  0  0  0  0  0  0  0
   63.1830   32.5720   53.2910 N   0  0  0  0  0  0  0  0  0  0  0  0
   61.7770   32.5350   53.5650 C   0  0  0  0  0  0  0  0  0  0  0  0
   61.2490   33.5090   54.1630 O   0  0  0  0  0  0  0  0  0  0  0  0
   60.9330   31.3320   53.2380 C   0  0  0  0  0  0  0  0  0  0  0  0
   61.5700   30.5590   52.1750 N   0  0  0  0  0  0  0  0  0  0  0  0
   60.8100   29.7670   51.2520 C   0  0  0  0  0  0  0  0  0  0  0  0
   59.6250   29.4380   51.5240 O   0  0  0  0  0  0  0  0  0  0  0  0
   61.4280   29.3100   49.9630 C   0  0  0  0  0  0  0  0  0  0  0  0
   60.4110   28.5850   49.1210 C   0  0  0  0  0  0  0  0  0  0  0  0
   60.5890   27.2300   48.7970 C   0  0  0  0  0  0  0  0  0  0  0  0
   59.6450   26.5630   48.0080 C   0  0  0  0  0  0  0  0  0  0  0  0
   58.5130   27.2440   47.5320 C   0  0  0  0  0  0  0  0  0  0  0  0
   57.5210   26.5740   46.7480 N   0  0  0  0  0  0  0  0  0  0  0  0
   56.8070   27.1450   45.6440 C   0  0  0  0  0  0  0  0  0  0  0  0
   55.5490   27.0870   45.6440 O   0  0  0  0  0  0  0  0  0  0  0  0
   57.5160   27.9560   44.5800 C   0  0  0  0  0  0  0  0  0  0  0  0
   56.8340   29.3320   44.3580 C   0  0  0  0  0  0  0  0  0  0  0  0
   57.4070   30.4500   45.2470 C   0  0  0  0  0  0  0  0  0  0  0  0
   58.8830   30.4740   45.2330 N   0  0  0  0  0  0  0  0  0  0  0  0
   59.6020   31.4440   46.0250 C   0  0  0  0  0  0  0  0  0  0  0  0
   60.7950   31.2100   46.3640 O   0  0  0  0  0  0  0  0  0  0  0  0
   58.9230   32.7000   46.5270 C   0  0  0  0  0  0  0  0  0  0  0  0
   59.7760   33.5200   47.5100 C   0  0  0  0  0  0  0  0  0  0  0  0
   59.3830   33.2720   48.9470 C   0  0  0  0  0  0  0  0  0  0  0  0
   58.4570   32.2630   49.2620 C   0  0  0  0  0  0  0  0  0  0  0  0
   58.0850   32.0370   50.5910 C   0  0  0  0  0  0  0  0  0  0  0  0
   58.6320   32.8180   51.6140 C   0  0  0  0  0  0  0  0  0  0  0  0
   59.5530   33.8240   51.3100 C   0  0  0  0  0  0  0  0  0  0  0  0
   59.9290   34.0520   49.9830 C   0  0  0  0  0  0  0  0  0  0  0  0
   59.6060   29.4160   44.5130 C   0  0  0  0  0  0  0  0  0  0  0  0
   59.0270   28.0600   44.9110 C   0  0  0  0  0  0  0  0  0  0  0  0
   58.3180   28.5860   47.8820 C   0  0  0  0  0  0  0  0  0  0  0  0
   59.2680   29.2570   48.6570 C   0  0  0  0  0  0  0  0  0  0  0  0
   63.1270   33.1590   50.8840 C   0  0  0  0  0  0  0  0  0  0  0  0
   63.7116   31.6503   47.7195 H   0  0  0  0  0  0  0  0  0  0  0  0
   62.5425   32.2198   46.4803 H   0  0  0  0  0  0  0  0  0  0  0  0
   64.2267   32.8444   46.4803 H   0  0  0  0  0  0  0  0  0  0  0  0
   65.5612   32.7527   48.5142 H   0  0  0  0  0  0  0  0  0  0  0  0
   66.7760   31.8446   50.4978 H   0  0  0  0  0  0  0  0  0  0  0  0
   65.6517   31.7655   52.7235 H   0  0  0  0  0  0  0  0  0  0  0  0
   60.8285   30.7037   54.1349 H   0  0  0  0  0  0  0  0  0  0  0  0
   59.9395   31.6640   52.9023 H   0  0  0  0  0  0  0  0  0  0  0  0
   62.6050   30.6470   52.0470 H   0  0  0  0  0  0  0  0  0  0  0  0
   61.7998   30.1847   49.4092 H   0  0  0  0  0  0  0  0  0  0  0  0
   62.2582   28.6246   50.1887 H   0  0  0  0  0  0  0  0  0  0  0  0
   61.4743   26.6907   49.1650 H   0  0  0  0  0  0  0  0  0  0  0  0
   59.7903   25.5013   47.7598 H   0  0  0  0  0  0  0  0  0  0  0  0
   57.4326   27.4342   43.6153 H   0  0  0  0  0  0  0  0  0  0  0  0
   56.9674   29.6212   43.3051 H   0  0  0  0  0  0  0  0  0  0  0  0
   55.7737   29.2154   44.6267 H   0  0  0  0  0  0  0  0  0  0  0  0
   57.0337   31.4184   44.8826 H   0  0  0  0  0  0  0  0  0  0  0  0
   57.0827   30.2585   46.2805 H   0  0  0  0  0  0  0  0  0  0  0  0
   58.6861   33.3353   45.6608 H   0  0  0  0  0  0  0  0  0  0  0  0
   58.0244   32.3798   47.0747 H   0  0  0  0  0  0  0  0  0  0  0  0
   60.8326   33.2438   47.3785 H   0  0  0  0  0  0  0  0  0  0  0  0
   59.6121   34.5859   47.2931 H   0  0  0  0  0  0  0  0  0  0  0  0
   58.0229   31.6483   48.4597 H   0  0  0  0  0  0  0  0  0  0  0  0
   57.3615   31.2442   50.8319 H   0  0  0  0  0  0  0  0  0  0  0  0
   58.3371   32.6403   52.6587 H   0  0  0  0  0  0  0  0  0  0  0  0
   59.9826   34.4372   52.1158 H   0  0  0  0  0  0  0  0  0  0  0  0
   60.6547   34.8445   49.7478 H   0  0  0  0  0  0  0  0  0  0  0  0
   59.4909   29.5625   43.4289 H   0  0  0  0  0  0  0  0  0  0  0  0
   60.6747   29.4542   44.7705 H   0  0  0  0  0  0  0  0  0  0  0  0
   59.5653   27.2701   44.3668 H   0  0  0  0  0  0  0  0  0  0  0  0
   59.1461   27.9448   45.9984 H   0  0  0  0  0  0  0  0  0  0  0  0
   57.4136   29.1140   47.5456 H   0  0  0  0  0  0  0  0  0  0  0  0
   59.1197   30.3183   48.9053 H   0  0  0  0  0  0  0  0  0  0  0  0
   62.1076   33.5565   50.9974 H   0  0  0  0  0  0  0  0  0  0  0  0
  1  2  1  0
  2  3  1  0
  3  4  2  0
  4  5  1  0
  5  6  2  0
  6  7  1  0
  7  8  1  0
  8  9  1  0
  9 10  2  0
  9 11  1  0
 11 12  1  0
 12 13  1  0
 13 14  2  0
 13 15  1  0
 15 16  1  0
 16 17  2  0
 17 18  1  0
 18 19  2  0
 19 20  1  0
 20 21  1  0
 21 22  2  0
 21 23  1  0
 23 24  1  0
 24 25  1  0
 25 26  1  0
 26 27  1  0
 27 28  2  0
 27 29  1  0
 29 30  1  0
 30 31  1  0
 31 32  2  0
 32 33  1  0
 33 34  2  0
 34 35  1  0
 35 36  2  0
 26 37  1  0
 37 38  1  0
 19 39  1  0
 39 40  2  0
  7 41  2  0
 41  3  1  0
 40 16  1  0
 38 23  1  0
 36 31  1  0
  1 42  1  0
  1 43  1  0
  1 44  1  0
  4 45  1  0
  5 46  1  0
  6 47  1  0
 11 48  1  0
 11 49  1  0
 12 50  1  0
 15 51  1  0
 15 52  1  0
 17 53  1  0
 18 54  1  0
 23 55  1  0
 24 56  1  0
 24 57  1  0
 25 58  1  0
 25 59  1  0
 29 60  1  0
 29 61  1  0
 30 62  1  0
 30 63  1  0
 32 64  1  0
 33 65  1  0
 34 66  1  0
 35 67  1  0
 36 68  1  0
 37 69  1  0
 37 70  1  0
 38 71  1  0
 38 72  1  0
 39 73  1  0
 40 74  1  0
 41 75  1  0
M  CHG  2   8  -1  20  -1
M  END
>  <UniqueID>  (14) 
12

>  <SMILES>  (14) 
CSc1cccc([N-]C(=O)CNC(=O)Cc2ccc([N-]C(=O)C3CCN(C(=O)CCc4ccccc4)CC3)cc2)c1

>  <Energy>  (14) 
82.5163925877256

>  <Genealogy>  (14) 
CSc1cccc([N-]C(=O)CNC(=O)Cc2ccc([N-]C(=O)C3CCN(C(=O)CCc4ccccc4)CC3)cc2)c1 (protonated)
CSc1cccc([N-]C(=O)CNC(=O)Cc2ccc([N-]C(=O)C3CCN(C(=O)CCc4ccccc4)CC3)cc2)c1 (3D coordinates assigned)
CSc1cccc([N-]C(=O)CNC(=O)Cc2ccc([N-]C(=O)C3CCN(C(=O)CCc4ccccc4)CC3)cc2)c1 (nonaromatic ring conformer: 82.5163925877256 kcal/mol)

>  <smiles>  (14) 
CSc1cccc(NC(=O)CNC(=O)Cc2ccc(NC(=O)C3CCN(C(=O)CCc4ccccc4)CC3)cc2)c1

>  <score_type>  (14) 
oracle

>  <origin>  (14) 
adg

>  <m_score__min__energy>  (14) 
-13.09

>  <m_primary>  (14) 
energy

$$$$
14:0
     RDKit          3D

 59 61  0  0  1  0  0  0  0  0999 V2000
   51.8680   23.7010   45.0930 C   0  0  0  0  0  0  0  0  0  0  0  0
   52.8550   22.6890   45.2860 O   0  0  0  0  0  0  0  0  0  0  0  0
   54.1010   23.0750   45.7020 C   0  0  0  0  0  0  0  0  0  0  0  0
   54.5000   24.3750   45.3930 C   0  0  0  0  0  0  0  0  0  0  0  0
   55.7650   24.7700   45.8150 C   0  0  0  0  0  0  0  0  0  0  0  0
   56.1800   25.9630   45.5550 N   0  0  0  0  0  0  0  0  0  0  0  0
   57.7540   26.3290   44.9480 S   0  0  0  0  0  0  0  0  0  0  0  0
   58.8170   25.4860   45.5760 O   0  0  0  0  0  0  0  0  0  0  0  0
   57.8060   26.2890   43.4340 O   0  0  0  0  0  0  0  0  0  0  0  0
   58.0120   28.0350   45.3530 C   0  0  0  0  0  0  0  0  0  0  0  0
   59.0780   28.4280   46.1450 C   0  0  0  0  0  0  0  0  0  0  0  0
   59.3250   29.7330   46.4890 C   0  0  0  0  0  0  0  0  0  0  0  0
   58.4500   30.7100   46.0110 C   0  0  0  0  0  0  0  0  0  0  0  0
   58.7530   32.0480   46.3990 N   0  0  0  0  0  0  0  0  0  0  0  0
   58.7810   33.1040   45.4480 C   0  0  0  0  0  0  0  0  0  0  0  0
   58.5240   32.7860   44.2530 O   0  0  0  0  0  0  0  0  0  0  0  0
   59.0830   34.4860   45.7870 C   0  0  0  0  0  0  0  0  0  0  0  0
   60.0920   34.8620   46.5460 C   0  0  0  0  0  0  0  0  0  0  0  0
   61.1660   34.0040   46.9820 C   0  0  0  0  0  0  0  0  0  0  0  0
   62.3980   33.9260   46.3660 C   0  0  0  0  0  0  0  0  0  0  0  0
   63.4070   33.0920   46.8070 C   0  0  0  0  0  0  0  0  0  0  0  0
   63.2190   32.2890   47.9050 C   0  0  0  0  0  0  0  0  0  0  0  0
   61.9990   32.3420   48.5460 C   0  0  0  0  0  0  0  0  0  0  0  0
   61.7320   31.5670   49.6540 O   0  0  0  0  0  0  0  0  0  0  0  0
   60.9660   30.3870   49.6290 C   0  0  0  0  0  0  0  0  0  0  0  0
   60.9990   33.1780   48.0950 C   0  0  0  0  0  0  0  0  0  0  0  0
   59.7590   33.2200   48.7620 O   0  0  0  0  0  0  0  0  0  0  0  0
   59.6370   33.7980   50.0470 C   0  0  0  0  0  0  0  0  0  0  0  0
   57.3860   30.3630   45.2270 C   0  0  0  0  0  0  0  0  0  0  0  0
   57.1750   29.0230   44.9040 C   0  0  0  0  0  0  0  0  0  0  0  0
   56.5760   23.9480   46.4900 N   0  0  0  0  0  0  0  0  0  0  0  0
   56.1560   22.7000   46.7690 C   0  0  0  0  0  0  0  0  0  0  0  0
   57.0150   21.8550   47.4740 O   0  0  0  0  0  0  0  0  0  0  0  0
   57.1490   20.4970   47.0930 C   0  0  0  0  0  0  0  0  0  0  0  0
   54.9410   22.2680   46.3840 N   0  0  0  0  0  0  0  0  0  0  0  0
   51.5164   24.0615   46.0710 H   0  0  0  0  0  0  0  0  0  0  0  0
   52.3063   24.5380   44.5296 H   0  0  0  0  0  0  0  0  0  0  0  0
   51.0203   23.2838   44.5296 H   0  0  0  0  0  0  0  0  0  0  0  0
   53.8415   25.0597   44.8384 H   0  0  0  0  0  0  0  0  0  0  0  0
   59.7631   27.6525   46.5181 H   0  0  0  0  0  0  0  0  0  0  0  0
   60.1846   30.0007   47.1209 H   0  0  0  0  0  0  0  0  0  0  0  0
   58.9550   32.2290   47.4050 H   0  0  0  0  0  0  0  0  0  0  0  0
   58.4250   35.2693   45.3826 H   0  0  0  0  0  0  0  0  0  0  0  0
   60.1172   35.9121   46.8726 H   0  0  0  0  0  0  0  0  0  0  0  0
   62.5852   34.5562   45.4841 H   0  0  0  0  0  0  0  0  0  0  0  0
   64.3691   33.0709   46.2742 H   0  0  0  0  0  0  0  0  0  0  0  0
   64.0180   31.6230   48.2628 H   0  0  0  0  0  0  0  0  0  0  0  0
   60.7564   30.0640   50.6594 H   0  0  0  0  0  0  0  0  0  0  0  0
   60.0181   30.5763   49.1040 H   0  0  0  0  0  0  0  0  0  0  0  0
   61.5247   29.5982   49.1040 H   0  0  0  0  0  0  0  0  0  0  0  0
   59.8000   33.0259   50.8133 H   0  0  0  0  0  0  0  0  0  0  0  0
   60.3869   34.5943   50.1636 H   0  0  0  0  0  0  0  0  0  0  0  0
   58.6293   34.2234   50.1636 H   0  0  0  0  0  0  0  0  0  0  0  0
   56.6995   31.1367   44.8526 H   0  0  0  0  0  0  0  0  0  0  0  0
   56.3155   28.7522   44.2732 H   0  0  0  0  0  0  0  0  0  0  0  0
   57.5210   24.2540   46.8010 H   0  0  0  0  0  0  0  0  0  0  0  0
   57.2111   19.8680   47.9933 H   0  0  0  0  0  0  0  0  0  0  0  0
   56.2762   20.1961   46.4950 H   0  0  0  0  0  0  0  0  0  0  0  0
   58.0638   20.3725   46.4950 H   0  0  0  0  0  0  0  0  0  0  0  0
  1  2  1  0
  2  3  1  0
  3  4  2  0
  4  5  1  0
  5  6  2  0
  6  7  1  0
  7  8  2  0
  7  9  2  0
  7 10  1  0
 10 11  2  0
 11 12  1  0
 12 13  2  0
 13 14  1  0
 14 15  1  0
 15 16  2  0
 15 17  1  0
 17 18  2  0
 18 19  1  0
 19 20  2  0
 20 21  1  0
 21 22  2  0
 22 23  1  0
 23 24  1  0
 24 25  1  0
 23 26  2  0
 26 27  1  0
 27 28  1  0
 13 29  1  0
 29 30  2  0
  5 31  1  0
 31 32  1  0
 32 33  1  0
 33 34  1  0
 32 35  2  0
 35  3  1  0
 30 10  1  0
 26 19  1  0
  1 36  1  0
  1 37  1  0
  1 38  1  0
  4 39  1  0
 11 40  1  0
 12 41  1  0
 14 42  1  0
 17 43  1  0
 18 44  1  0
 20 45  1  0
 21 46  1  0
 22 47  1  0
 25 48  1  0
 25 49  1  0
 25 50  1  0
 28 51  1  0
 28 52  1  0
 28 53  1  0
 29 54  1  0
 30 55  1  0
 31 56  1  0
 34 57  1  0
 34 58  1  0
 34 59  1  0
M  END
>  <smiles>  (15) 
COc1cc(=NS(=O)(=O)c2ccc(NC(=O)C=Cc3cccc(OC)c3OC)cc2)[nH]c(OC)n1

>  <score_type>  (15) 
oracle

>  <origin>  (15) 
adg

>  <m_score__min__energy>  (15) 
-8.7400000000000002

>  <m_primary>  (15) 
energy

$$$$
15:0
     RDKit          3D

 58 61  0  0  0  0  0  0  0  0999 V2000
   65.7370   33.3830   50.4560 C   0  0  0  0  0  0  0  0  0  0  0  0
   65.2220   31.9830   50.1400 C   0  0  0  0  0  0  0  0  0  0  0  0
   63.7710   32.0000   49.9660 N   0  0  0  0  0  0  0  0  0  0  0  0
   62.7930   32.0670   51.0440 C   0  0  0  0  0  0  0  0  0  0  0  0
   61.4070   32.0060   50.3540 C   0  0  0  0  0  0  0  0  0  0  0  0
   61.6690   31.9520   48.9140 N   0  0  0  0  0  0  0  0  0  0  0  0
   60.6600   32.0040   47.8830 C   0  0  0  0  0  0  0  0  0  0  0  0
   60.7710   32.9320   46.8330 C   0  0  0  0  0  0  0  0  0  0  0  0
   59.8030   32.9890   45.8280 C   0  0  0  0  0  0  0  0  0  0  0  0
   58.7090   32.1140   45.8510 C   0  0  0  0  0  0  0  0  0  0  0  0
   57.4740   32.2280   44.6020 S   0  0  0  0  0  0  0  0  0  0  0  0
   58.0010   33.0110   43.4340 O   0  0  0  0  0  0  0  0  0  0  0  0
   56.2630   32.9320   45.1430 O   0  0  0  0  0  0  0  0  0  0  0  0
   57.0560   30.6360   44.0670 N   0  0  0  0  0  0  0  0  0  0  0  0
   57.6940   29.4820   44.6140 C   0  0  0  0  0  0  0  0  0  0  0  0
   59.0850   29.3710   44.5360 C   0  0  0  0  0  0  0  0  0  0  0  0
   59.7300   28.2650   45.0850 C   0  0  0  0  0  0  0  0  0  0  0  0
   58.9900   27.2570   45.7070 C   0  0  0  0  0  0  0  0  0  0  0  0
   57.5850   27.3380   45.7860 C   0  0  0  0  0  0  0  0  0  0  0  0
   56.8230   26.2430   46.4450 C   0  0  0  0  0  0  0  0  0  0  0  0
   55.5640   26.2800   46.4970 O   0  0  0  0  0  0  0  0  0  0  0  0
   57.5180   25.1350   47.0310 N   0  0  0  0  0  0  0  0  0  0  0  0
   57.1710   23.7380   46.7950 C   0  0  0  0  0  0  0  0  0  0  0  0
   56.4890   23.5870   45.4600 C   0  0  0  0  0  0  0  0  0  0  0  0
   57.2660   23.4550   44.2970 C   0  0  0  0  0  0  0  0  0  0  0  0
   56.6540   23.3380   43.0480 C   0  0  0  0  0  0  0  0  0  0  0  0
   55.2620   23.3570   42.9490 C   0  0  0  0  0  0  0  0  0  0  0  0
   54.4800   23.4920   44.0980 C   0  0  0  0  0  0  0  0  0  0  0  0
   55.0860   23.6070   45.3510 C   0  0  0  0  0  0  0  0  0  0  0  0
   54.3050   23.7400   46.4520 F   0  0  0  0  0  0  0  0  0  0  0  0
   56.9390   28.4650   45.2240 C   0  0  0  0  0  0  0  0  0  0  0  0
   55.5520   28.5770   45.2500 O   0  0  0  0  0  0  0  0  0  0  0  0
   58.5990   31.1760   46.8840 C   0  0  0  0  0  0  0  0  0  0  0  0
   59.5710   31.1140   47.8870 C   0  0  0  0  0  0  0  0  0  0  0  0
   63.0750   31.9080   48.7410 C   0  0  0  0  0  0  0  0  0  0  0  0
   63.6470   31.7360   47.6330 O   0  0  0  0  0  0  0  0  0  0  0  0
   65.7866   33.5179   51.5466 H   0  0  0  0  0  0  0  0  0  0  0  0
   66.7409   33.5104   50.0247 H   0  0  0  0  0  0  0  0  0  0  0  0
   65.0550   34.1306   50.0247 H   0  0  0  0  0  0  0  0  0  0  0  0
   65.6938   31.6241   49.2134 H   0  0  0  0  0  0  0  0  0  0  0  0
   65.4728   31.3139   50.9763 H   0  0  0  0  0  0  0  0  0  0  0  0
   62.9184   31.2159   51.7295 H   0  0  0  0  0  0  0  0  0  0  0  0
   62.9095   32.9824   51.6428 H   0  0  0  0  0  0  0  0  0  0  0  0
   60.8601   31.1076   50.6759 H   0  0  0  0  0  0  0  0  0  0  0  0
   60.7900   32.8780   50.6166 H   0  0  0  0  0  0  0  0  0  0  0  0
   61.6287   33.6200   46.8027 H   0  0  0  0  0  0  0  0  0  0  0  0
   59.8998   33.7238   45.0151 H   0  0  0  0  0  0  0  0  0  0  0  0
   59.6716   30.1584   44.0402 H   0  0  0  0  0  0  0  0  0  0  0  0
   60.8257   28.1853   45.0284 H   0  0  0  0  0  0  0  0  0  0  0  0
   59.5097   26.3897   46.1403 H   0  0  0  0  0  0  0  0  0  0  0  0
   58.0875   23.1297   46.8052 H   0  0  0  0  0  0  0  0  0  0  0  0
   56.4861   23.4007   47.5869 H   0  0  0  0  0  0  0  0  0  0  0  0
   58.3634   23.4438   44.3712 H   0  0  0  0  0  0  0  0  0  0  0  0
   57.2686   23.2309   42.1420 H   0  0  0  0  0  0  0  0  0  0  0  0
   54.7802   23.2655   41.9644 H   0  0  0  0  0  0  0  0  0  0  0  0
   53.3832   23.5078   44.0159 H   0  0  0  0  0  0  0  0  0  0  0  0
   57.7439   30.4844   46.9068 H   0  0  0  0  0  0  0  0  0  0  0  0
   59.4833   30.3629   48.6859 H   0  0  0  0  0  0  0  0  0  0  0  0
  1  2  1  0
  2  3  1  0
  3  4  1  0
  4  5  1  0
  5  6  1  0
  6  7  1  0
  7  8  2  0
  8  9  1  0
  9 10  2  0
 10 11  1  0
 11 12  2  0
 11 13  2  0
 11 14  1  0
 14 15  1  0
 15 16  2  0
 16 17  1  0
 17 18  2  0
 18 19  1  0
 19 20  1  0
 20 21  2  0
 20 22  1  0
 22 23  1  0
 23 24  1  0
 24 25  2  0
 25 26  1  0
 26 27  2  0
 27 28  1  0
 28 29  2  0
 29 30  1  0
 19 31  2  0
 31 32  1  0
 10 33  1  0
 33 34  2  0
  6 35  1  0
 35 36  2  0
 35  3  1  0
 34  7  1  0
 31 15  1  0
 29 24  1  0
  1 37  1  0
  1 38  1  0
  1 39  1  0
  2 40  1  0
  2 41  1  0
  4 42  1  0
  4 43  1  0
  5 44  1  0
  5 45  1  0
  8 46  1  0
  9 47  1  0
 16 48  1  0
 17 49  1  0
 18 50  1  0
 23 51  1  0
 23 52  1  0
 25 53  1  0
 26 54  1  0
 27 55  1  0
 28 56  1  0
 33 57  1  0
 34 58  1  0
M  CHG  3  14  -1  22  -1  32  -1
M  END
>  <UniqueID>  (16) 
13

>  <SMILES>  (16) 
CCN1CCN(c2ccc(S(=O)(=O)[N-]c3cccc(C(=O)[N-]Cc4ccccc4F)c3[O-])cc2)C1=O

>  <Energy>  (16) 
84.59636829257974

>  <Genealogy>  (16) 
CCN1CCN(c2ccc(S(=O)(=O)[N-]c3cccc(C(=O)[N-]Cc4ccccc4F)c3[O-])cc2)C1=O (protonated)
CCN1CCN(c2ccc(S(=O)(=O)[N-]c3cccc(C(=O)[N-]Cc4ccccc4F)c3[O-])cc2)C1=O (3D coordinates assigned)
CCN1CCN(c2ccc(S(=O)(=O)[N-]c3cccc(C(=O)[N-]Cc4ccccc4F)c3[O-])cc2)C1=O (nonaromatic ring conformer: 84.59636829257974 kcal/mol)

>  <smiles>  (16) 
CCN1CCN(c2ccc(S(=O)(=O)Nc3cccc(C(=O)NCc4ccccc4F)c3O)cc2)C1=O

>  <score_type>  (16) 
oracle

>  <origin>  (16) 
adg

>  <m_score__min__energy>  (16) 
-17.260000000000002

>  <m_primary>  (16) 
energy

$$$$
16:0
     RDKit          3D

 46 48  0  0  0  0  0  0  0  0999 V2000
   62.9380   33.7080   50.9540 H   0  0  0  0  0  0  0  0  0  0  0  0
   63.5770   34.0080   50.1840 N   0  0  0  0  0  0  0  0  0  0  0  0
   63.4450   33.5630   48.9740 C   0  0  0  0  0  0  0  0  0  0  0  0
   62.1650   33.7740   48.2510 C   0  0  0  0  0  0  0  0  0  0  0  0
   60.9800   34.0690   48.9500 C   0  0  0  0  0  0  0  0  0  0  0  0
   60.9988   34.1444   50.0473 H   0  0  0  0  0  0  0  0  0  0  0  0
   59.7800   34.2670   48.2630 C   0  0  0  0  0  0  0  0  0  0  0  0
   58.8642   34.5101   48.8218 H   0  0  0  0  0  0  0  0  0  0  0  0
   59.7350   34.1580   46.8670 C   0  0  0  0  0  0  0  0  0  0  0  0
   58.4570   34.3970   46.1630 C   0  0  0  0  0  0  0  0  0  0  0  0
   57.7104   35.0366   46.6564 H   0  0  0  0  0  0  0  0  0  0  0  0
   58.1570   33.9000   44.9970 N   0  0  0  0  0  0  0  0  0  0  0  0
   57.4400   32.6870   44.7190 C   0  0  0  0  0  0  0  0  0  0  0  0
   56.2970   32.5300   45.2230 O   0  0  0  0  0  0  0  0  0  0  0  0
   58.0490   31.5680   43.9130 C   0  0  0  0  0  0  0  0  0  0  0  0
   57.5672   31.5324   42.9248 H   0  0  0  0  0  0  0  0  0  0  0  0
   59.1275   31.7571   43.8081 H   0  0  0  0  0  0  0  0  0  0  0  0
   57.8560   30.2310   44.6090 C   0  0  0  0  0  0  0  0  0  0  0  0
   58.7910   29.7210   45.5490 C   0  0  0  0  0  0  0  0  0  0  0  0
   60.0190   30.5140   45.9510 C   0  0  0  0  0  0  0  0  0  0  0  0
   60.0850   30.5566   47.0482 H   0  0  0  0  0  0  0  0  0  0  0  0
   60.9187   30.0259   45.5482 H   0  0  0  0  0  0  0  0  0  0  0  0
   59.9443   31.5349   45.5482 H   0  0  0  0  0  0  0  0  0  0  0  0
   58.5690   28.4280   46.0930 C   0  0  0  0  0  0  0  0  0  0  0  0
   59.4930   27.7950   46.9480 C   0  0  0  0  0  0  0  0  0  0  0  0
   60.4406   28.2971   47.1928 H   0  0  0  0  0  0  0  0  0  0  0  0
   59.2190   26.5410   47.4860 C   0  0  0  0  0  0  0  0  0  0  0  0
   59.9519   26.0653   48.1543 H   0  0  0  0  0  0  0  0  0  0  0  0
   58.0270   25.8790   47.1890 C   0  0  0  0  0  0  0  0  0  0  0  0
   57.7840   24.6670   47.8400 O   0  0  0  0  0  0  0  0  0  0  0  0
   56.8890   24.1970   47.8330 H   0  0  0  0  0  0  0  0  0  0  0  0
   57.1080   26.4600   46.2820 C   0  0  0  0  0  0  0  0  0  0  0  0
   55.8800   25.7570   45.8440 C   0  0  0  0  0  0  0  0  0  0  0  0
   55.3824   26.0722   44.9150 H   0  0  0  0  0  0  0  0  0  0  0  0
   55.3930   24.8070   46.5110 O   0  0  0  0  0  0  0  0  0  0  0  0
   57.3800   27.7400   45.7510 C   0  0  0  0  0  0  0  0  0  0  0  0
   56.5150   28.2920   44.9090 O   0  0  0  0  0  0  0  0  0  0  0  0
   56.6990   29.4740   44.3400 C   0  0  0  0  0  0  0  0  0  0  0  0
   55.8170   29.9070   43.5520 O   0  0  0  0  0  0  0  0  0  0  0  0
   60.9210   33.9050   46.1610 C   0  0  0  0  0  0  0  0  0  0  0  0
   60.9048   33.8624   45.0619 H   0  0  0  0  0  0  0  0  0  0  0  0
   62.1220   33.7070   46.8460 C   0  0  0  0  0  0  0  0  0  0  0  0
   63.0427   33.4968   46.2820 H   0  0  0  0  0  0  0  0  0  0  0  0
   64.5420   32.8860   48.3460 N   0  0  0  0  0  0  0  0  0  0  0  0
   65.4150   32.6840   48.8820 H   0  0  0  0  0  0  0  0  0  0  0  0
   64.5300   32.6530   47.3300 H   0  0  0  0  0  0  0  0  0  0  0  0
  1  2  1  0
  2  3  2  0
  3  4  1  0
  4  5  2  0
  5  6  1  0
  5  7  1  0
  7  8  1  0
  7  9  2  0
  9 10  1  0
 10 11  1  0
 10 12  2  3
 12 13  1  0
 13 14  2  0
 13 15  1  0
 15 16  1  0
 15 17  1  0
 15 18  1  0
 18 19  2  0
 19 20  1  0
 20 21  1  0
 20 22  1  0
 20 23  1  0
 19 24  1  0
 24 25  2  0
 25 26  1  0
 25 27  1  0
 27 28  1  0
 27 29  2  0
 29 30  1  0
 30 31  1  0
 29 32  1  0
 32 33  1  0
 33 34  1  0
 33 35  2  0
 32 36  2  0
 36 37  1  0
 37 38  1  0
 38 39  2  0
  9 40  1  0
 40 41  1  0
 40 42  2  0
 42 43  1  0
  3 44  1  0
 44 45  1  0
 44 46  1  0
 42  4  1  0
 38 18  1  0
 36 24  1  0
M  END
>  <UniqueID>  (17) 
14

>  <SMILES>  (17) 
[H]/N=C(\N)c1ccc(C=NC(=O)Cc2c(C)c3ccc(O)c(C=O)c3oc2=O)cc1

>  <Energy>  (17) 
76.14864814420882

>  <Genealogy>  (17) 
[H]/N=C(\N)c1ccc(C=NC(=O)Cc2c(C)c3ccc(O)c(C=O)c3oc2=O)cc1 (cis-trans isomerization)
[H]/N=C(\N)c1ccc(C=NC(=O)Cc2c(C)c3ccc(O)c(C=O)c3oc2=O)cc1 (3D coordinates assigned)
[H]/N=C(\N)c1ccc(C=NC(=O)Cc2c(C)c3ccc(O)c(C=O)c3oc2=O)cc1 (optimized conformer: 76.14864814420882 kcal/mol)

>  <smiles>  (17) 
Cc1c(CC(=O)N=Cc2ccc(C(=N)N)cc2)c(=O)oc2c(C=O)c(O)ccc12

>  <score_type>  (17) 
oracle

>  <origin>  (17) 
adg

>  <m_score__min__energy>  (17) 
-9.5299999999999994

>  <m_primary>  (17) 
energy

$$$$
17:0
     RDKit          3D

 65 68  0  0  1  0  0  0  0  0999 V2000
   57.0510   27.5460   45.8970 C   0  0  0  0  0  0  0  0  0  0  0  0
   57.2420   28.5920   44.8120 C   0  0  0  0  0  0  0  0  0  0  0  0
   57.0170   29.9340   45.3330 N   0  0  0  0  0  0  0  0  0  0  0  0
   56.7350   30.7750   44.1900 C   0  0  0  0  0  0  0  0  0  0  0  0
   56.3180   30.0220   42.9630 C   0  0  0  0  0  0  0  0  0  0  0  0
   58.1800   30.4370   46.0180 C   0  0  0  0  0  0  0  0  0  0  0  0
   59.4300   29.7250   45.5550 C   0  0  0  0  0  0  0  0  0  0  0  0
   60.5350   30.0660   46.5350 C   0  0  0  0  0  0  0  0  0  0  0  0
   59.9200   30.5080   47.7480 N   0  0  0  0  0  0  0  0  0  0  0  0
   60.6200   30.6330   48.8090 C   0  0  0  0  0  0  0  0  0  0  0  0
   61.9200   31.0520   48.8190 N   0  0  0  0  0  0  0  0  0  0  0  0
   62.5970   31.1590   49.9650 C   0  0  0  0  0  0  0  0  0  0  0  0
   63.9750   31.6130   50.0970 C   0  0  0  0  0  0  0  0  0  0  0  0
   64.8460   30.8500   50.9000 C   0  0  0  0  0  0  0  0  0  0  0  0
   66.1390   31.1950   51.1290 C   0  0  0  0  0  0  0  0  0  0  0  0
   66.6700   32.3310   50.5740 C   0  0  0  0  0  0  0  0  0  0  0  0
   65.8400   33.0910   49.7880 C   0  0  0  0  0  0  0  0  0  0  0  0
   64.4970   32.7260   49.5540 C   0  0  0  0  0  0  0  0  0  0  0  0
   63.7980   33.6160   48.7030 N   0  0  0  0  0  0  0  0  0  0  0  0
   63.4540   33.0800   47.3990 C   0  0  0  0  0  0  0  0  0  0  0  0
   63.7720   31.8910   47.1050 O   0  0  0  0  0  0  0  0  0  0  0  0
   62.7450   33.8950   46.4120 C   0  0  0  0  0  0  0  0  0  0  0  0
   61.2750   33.9750   46.7020 C   0  0  0  0  0  0  0  0  0  0  0  0
   60.8350   34.1160   48.0150 C   0  0  0  0  0  0  0  0  0  0  0  0
   59.4860   34.1930   48.3260 C   0  0  0  0  0  0  0  0  0  0  0  0
   58.5690   34.1250   47.2870 C   0  0  0  0  0  0  0  0  0  0  0  0
   59.0210   33.9830   45.9840 C   0  0  0  0  0  0  0  0  0  0  0  0
   57.7970   33.9030   44.7140 Cl  0  0  0  0  0  0  0  0  0  0  0  0
   60.3600   33.9050   45.6610 C   0  0  0  0  0  0  0  0  0  0  0  0
   61.9680   30.8490   51.0940 N   0  0  0  0  0  0  0  0  0  0  0  0
   60.6690   30.4220   51.1800 C   0  0  0  0  0  0  0  0  0  0  0  0
   60.0220   30.1030   52.3230 C   0  0  0  0  0  0  0  0  0  0  0  0
   58.7260   29.6960   52.1990 C   0  0  0  0  0  0  0  0  0  0  0  0
   58.4020   29.7690   50.3500 S   0  0  0  0  0  0  0  0  0  0  0  0
   60.0090   30.3220   50.0060 C   0  0  0  0  0  0  0  0  0  0  0  0
   57.1380   28.0222   46.8848 H   0  0  0  0  0  0  0  0  0  0  0  0
   56.0548   27.0905   45.7959 H   0  0  0  0  0  0  0  0  0  0  0  0
   57.8219   26.7679   45.7959 H   0  0  0  0  0  0  0  0  0  0  0  0
   58.2692   28.5244   44.4244 H   0  0  0  0  0  0  0  0  0  0  0  0
   56.5135   28.4013   44.0102 H   0  0  0  0  0  0  0  0  0  0  0  0
   55.9247   31.4673   44.4623 H   0  0  0  0  0  0  0  0  0  0  0  0
   57.6720   31.2942   43.9399 H   0  0  0  0  0  0  0  0  0  0  0  0
   55.8047   29.0951   43.2584 H   0  0  0  0  0  0  0  0  0  0  0  0
   55.6359   30.6443   42.3650 H   0  0  0  0  0  0  0  0  0  0  0  0
   57.2074   29.7740   42.3650 H   0  0  0  0  0  0  0  0  0  0  0  0
   58.2815   31.5128   45.8125 H   0  0  0  0  0  0  0  0  0  0  0  0
   58.0553   30.2614   47.0967 H   0  0  0  0  0  0  0  0  0  0  0  0
   59.2608   28.6382   45.5423 H   0  0  0  0  0  0  0  0  0  0  0  0
   59.7024   30.0407   44.5371 H   0  0  0  0  0  0  0  0  0  0  0  0
   61.1506   29.1755   46.7301 H   0  0  0  0  0  0  0  0  0  0  0  0
   61.1849   30.8526   46.1240 H   0  0  0  0  0  0  0  0  0  0  0  0
   62.3190   31.2770   47.9280 H   0  0  0  0  0  0  0  0  0  0  0  0
   64.4597   29.9304   51.3637 H   0  0  0  0  0  0  0  0  0  0  0  0
   66.7676   30.5562   51.7668 H   0  0  0  0  0  0  0  0  0  0  0  0
   67.7163   32.6208   50.7511 H   0  0  0  0  0  0  0  0  0  0  0  0
   66.2325   34.0098   49.3279 H   0  0  0  0  0  0  0  0  0  0  0  0
   63.5490   34.6040   48.9630 H   0  0  0  0  0  0  0  0  0  0  0  0
   63.1651   34.9116   46.4229 H   0  0  0  0  0  0  0  0  0  0  0  0
   62.8721   33.4229   45.4266 H   0  0  0  0  0  0  0  0  0  0  0  0
   61.5761   34.1676   48.8262 H   0  0  0  0  0  0  0  0  0  0  0  0
   59.1519   34.3049   49.3680 H   0  0  0  0  0  0  0  0  0  0  0  0
   57.4905   34.1834   47.4957 H   0  0  0  0  0  0  0  0  0  0  0  0
   60.6899   33.7916   44.6178 H   0  0  0  0  0  0  0  0  0  0  0  0
   60.5157   30.1683   53.3038 H   0  0  0  0  0  0  0  0  0  0  0  0
   58.0314   29.3948   52.9970 H   0  0  0  0  0  0  0  0  0  0  0  0
  1  2  1  0
  2  3  1  0
  3  4  1  0
  4  5  1  0
  3  6  1  0
  6  7  1  0
  7  8  1  0
  8  9  1  0
  9 10  2  0
 10 11  1  0
 11 12  1  0
 12 13  1  0
 13 14  2  0
 14 15  1  0
 15 16  2  0
 16 17  1  0
 17 18  2  0
 18 19  1  0
 19 20  1  0
 20 21  2  0
 20 22  1  0
 22 23  1  0
 23 24  2  0
 24 25  1  0
 25 26  2  0
 26 27  1  0
 27 28  1  0
 27 29  2  0
 12 30  2  0
 30 31  1  0
 31 32  1  0
 32 33  2  0
 33 34  1  0
 34 35  1  0
 35 10  1  0
 18 13  1  0
 29 23  1  0
 35 31  2  0
  1 36  1  0
  1 37  1  0
  1 38  1  0
  2 39  1  0
  2 40  1  0
  4 41  1  0
  4 42  1  0
  5 43  1  0
  5 44  1  0
  5 45  1  0
  6 46  1  0
  6 47  1  0
  7 48  1  0
  7 49  1  0
  8 50  1  0
  8 51  1  0
 11 52  1  0
 14 53  1  0
 15 54  1  0
 16 55  1  0
 17 56  1  0
 19 57  1  0
 22 58  1  0
 22 59  1  0
 24 60  1  0
 25 61  1  0
 26 62  1  0
 29 63  1  0
 32 64  1  0
 33 65  1  0
M  END
>  <smiles>  (18) 
CCN(CC)CCCN=c1[nH]c(-c2ccccc2NC(=O)Cc2cccc(Cl)c2)nc2ccsc12

>  <score_type>  (18) 
oracle

>  <origin>  (18) 
adg

>  <m_score__min__energy>  (18) 
-9.2200000000000006

>  <m_primary>  (18) 
energy

$$$$
18:0
     RDKit          3D

 41 43  0  0  1  0  0  0  0  0999 V2000
   61.4240   31.3360   47.7100 C   0  0  0  0  0  0  0  0  0  0  0  0
   60.0190   31.6940   47.8940 N   0  0  0  0  0  0  0  0  0  0  0  0
   59.5660   32.6170   47.1020 C   0  0  0  0  0  0  0  0  0  0  0  0
   59.7330   33.9270   47.3970 N   0  0  0  0  0  0  0  0  0  0  0  0
   59.2730   34.9120   46.5920 C   0  0  0  0  0  0  0  0  0  0  0  0
   58.6260   34.5530   45.4600 N   0  0  0  0  0  0  0  0  0  0  0  0
   58.4370   33.2800   45.1280 C   0  0  0  0  0  0  0  0  0  0  0  0
   57.7790   32.8990   43.9780 C   0  0  0  0  0  0  0  0  0  0  0  0
   57.5910   31.5800   43.6490 C   0  0  0  0  0  0  0  0  0  0  0  0
   58.0590   30.5330   44.4640 C   0  0  0  0  0  0  0  0  0  0  0  0
   57.8250   29.2110   44.0530 N   0  0  0  0  0  0  0  0  0  0  0  0
   57.6510   28.0740   44.8640 C   0  0  0  0  0  0  0  0  0  0  0  0
   57.7010   28.1960   46.0900 O   0  0  0  0  0  0  0  0  0  0  0  0
   57.4240   26.8160   44.3010 N   0  0  0  0  0  0  0  0  0  0  0  0
   57.2320   25.5930   44.9700 C   0  0  0  0  0  0  0  0  0  0  0  0
   57.1310   25.4220   46.3240 C   0  0  0  0  0  0  0  0  0  0  0  0
   56.9400   24.1660   46.9160 C   0  0  0  0  0  0  0  0  0  0  0  0
   56.8440   23.0300   46.1450 C   0  0  0  0  0  0  0  0  0  0  0  0
   56.9450   23.1850   44.7820 C   0  0  0  0  0  0  0  0  0  0  0  0
   56.8460   21.9960   43.9460 C   0  0  0  0  0  0  0  0  0  0  0  0
   57.5160   20.7990   44.2570 N   0  0  0  0  0  0  0  0  0  0  0  0
   56.1400   22.0080   42.8950 O   0  0  0  0  0  0  0  0  0  0  0  0
   57.1320   24.4200   44.2060 C   0  0  0  0  0  0  0  0  0  0  0  0
   58.7080   30.9300   45.6000 C   0  0  0  0  0  0  0  0  0  0  0  0
   58.9020   32.2680   45.9390 C   0  0  0  0  0  0  0  0  0  0  0  0
   61.9030   31.2139   48.6927 H   0  0  0  0  0  0  0  0  0  0  0  0
   61.4915   30.3920   47.1494 H   0  0  0  0  0  0  0  0  0  0  0  0
   61.9350   32.1326   47.1494 H   0  0  0  0  0  0  0  0  0  0  0  0
   60.2270   34.2330   48.2580 H   0  0  0  0  0  0  0  0  0  0  0  0
   59.4205   35.9711   46.8499 H   0  0  0  0  0  0  0  0  0  0  0  0
   57.3925   33.6767   43.3029 H   0  0  0  0  0  0  0  0  0  0  0  0
   57.0577   31.3336   42.7190 H   0  0  0  0  0  0  0  0  0  0  0  0
   57.7710   29.0470   43.0060 H   0  0  0  0  0  0  0  0  0  0  0  0
   57.3920   26.7730   43.2380 H   0  0  0  0  0  0  0  0  0  0  0  0
   57.2026   26.3063   46.9743 H   0  0  0  0  0  0  0  0  0  0  0  0
   56.8659   24.0872   48.0107 H   0  0  0  0  0  0  0  0  0  0  0  0
   56.6929   22.0398   46.5996 H   0  0  0  0  0  0  0  0  0  0  0  0
   58.5090   20.7680   44.6210 H   0  0  0  0  0  0  0  0  0  0  0  0
   57.0160   19.8810   44.1250 H   0  0  0  0  0  0  0  0  0  0  0  0
   57.2056   24.4906   43.1107 H   0  0  0  0  0  0  0  0  0  0  0  0
   59.0957   30.1563   46.2791 H   0  0  0  0  0  0  0  0  0  0  0  0
  1  2  1  0
  2  3  2  0
  3  4  1  0
  4  5  1  0
  5  6  2  0
  6  7  1  0
  7  8  2  0
  8  9  1  0
  9 10  2  0
 10 11  1  0
 11 12  1  0
 12 13  2  0
 12 14  1  0
 14 15  1  0
 15 16  2  0
 16 17  1  0
 17 18  2  0
 18 19  1  0
 19 20  1  0
 20 21  1  0
 20 22  2  0
 19 23  2  0
 10 24  1  0
 24 25  2  0
 25  3  1  0
 25  7  1  0
 23 15  1  0
  1 26  1  0
  1 27  1  0
  1 28  1  0
  4 29  1  0
  5 30  1  0
  8 31  1  0
  9 32  1  0
 11 33  1  0
 14 34  1  0
 16 35  1  0
 17 36  1  0
 18 37  1  0
 21 38  1  0
 21 39  1  0
 23 40  1  0
 24 41  1  0
M  END
>  <smiles>  (19) 
CN=c1[nH]cnc2ccc(NC(=O)Nc3cccc(C(N)=O)c3)cc12

>  <score_type>  (19) 
oracle

>  <origin>  (19) 
adg

>  <m_score__min__energy>  (19) 
-8.4199999999999999

>  <m_primary>  (19) 
energy

$$$$
19:0
     RDKit          3D

 31 32  0  0  0  0  0  0  0  0999 V2000
   60.7370   27.8110   48.0090 C   0  0  0  0  0  0  0  0  0  0  0  0
   59.9130   27.0370   47.0860 N   0  0  0  0  0  0  0  0  0  0  0  0
   58.6930   27.5350   46.4960 C   0  0  0  0  0  0  0  0  0  0  0  0
   58.5770   28.8840   46.1020 C   0  0  0  0  0  0  0  0  0  0  0  0
   57.3940   29.3600   45.5330 C   0  0  0  0  0  0  0  0  0  0  0  0
   56.3140   28.4990   45.3390 C   0  0  0  0  0  0  0  0  0  0  0  0
   55.1440   28.9730   44.7580 O   0  0  0  0  0  0  0  0  0  0  0  0
   56.4120   27.1610   45.7210 C   0  0  0  0  0  0  0  0  0  0  0  0
   57.5890   26.6720   46.3180 C   0  0  0  0  0  0  0  0  0  0  0  0
   57.6960   25.2900   46.7030 N   0  0  0  0  0  0  0  0  0  0  0  0
   58.4430   24.2750   46.0200 C   0  0  0  0  0  0  0  0  0  0  0  0
   59.6990   24.3690   45.9860 O   0  0  0  0  0  0  0  0  0  0  0  0
   57.7880   23.1060   45.3880 C   0  0  0  0  0  0  0  0  0  0  0  0
   57.7040   23.0380   43.9870 C   0  0  0  0  0  0  0  0  0  0  0  0
   57.0750   21.9550   43.3660 C   0  0  0  0  0  0  0  0  0  0  0  0
   56.5330   20.9220   44.1350 C   0  0  0  0  0  0  0  0  0  0  0  0
   55.9040   19.8510   43.5030 O   0  0  0  0  0  0  0  0  0  0  0  0
   56.6290   20.9700   45.5310 C   0  0  0  0  0  0  0  0  0  0  0  0
   57.2630   22.0480   46.1600 C   0  0  0  0  0  0  0  0  0  0  0  0
   57.3840   22.0460   47.5450 O   0  0  0  0  0  0  0  0  0  0  0  0
   60.4660   27.5564   49.0442 H   0  0  0  0  0  0  0  0  0  0  0  0
   61.7980   27.5753   47.8392 H   0  0  0  0  0  0  0  0  0  0  0  0
   60.5681   28.8846   47.8392 H   0  0  0  0  0  0  0  0  0  0  0  0
   60.2430   26.0730   46.8570 H   0  0  0  0  0  0  0  0  0  0  0  0
   59.4267   29.5680   46.2443 H   0  0  0  0  0  0  0  0  0  0  0  0
   57.3137   30.4164   45.2371 H   0  0  0  0  0  0  0  0  0  0  0  0
   55.5624   26.4825   45.5543 H   0  0  0  0  0  0  0  0  0  0  0  0
   58.1364   23.8429   43.3744 H   0  0  0  0  0  0  0  0  0  0  0  0
   57.0066   21.9160   42.2688 H   0  0  0  0  0  0  0  0  0  0  0  0
   56.3830   18.9720   43.3500 H   0  0  0  0  0  0  0  0  0  0  0  0
   56.2039   20.1562   46.1368 H   0  0  0  0  0  0  0  0  0  0  0  0
  1  2  1  0
  2  3  1  0
  3  4  2  0
  4  5  1  0
  5  6  2  0
  6  7  1  0
  6  8  1  0
  8  9  2  0
  9 10  1  0
 10 11  1  0
 11 12  2  0
 11 13  1  0
 13 14  2  0
 14 15  1  0
 15 16  2  0
 16 17  1  0
 16 18  1  0
 18 19  2  0
 19 20  1  0
  9  3  1  0
 19 13  1  0
  1 21  1  0
  1 22  1  0
  1 23  1  0
  2 24  1  0
  4 25  1  0
  5 26  1  0
  8 27  1  0
 14 28  1  0
 15 29  1  0
 17 30  1  0
 18 31  1  0
M  CHG  3   7  -1  10  -1  20  -1
M  END
>  <UniqueID>  (20) 
15

>  <SMILES>  (20) 
CNc1ccc([O-])cc1[N-]C(=O)c1ccc(O)cc1[O-]

>  <Energy>  (20) 
39.61519308797619

>  <Genealogy>  (20) 
CNc1ccc([O-])cc1[N-]C(=O)c1ccc(O)cc1[O-] (protonated)
CNc1ccc([O-])cc1[N-]C(=O)c1ccc(O)cc1[O-] (3D coordinates assigned)
CNc1ccc([O-])cc1[N-]C(=O)c1ccc(O)cc1[O-] (optimized conformer: 39.61519308797619 kcal/mol)

>  <smiles>  (20) 
CNc1ccc(O)cc1NC(=O)c1ccc(O)cc1O

>  <score_type>  (20) 
oracle

>  <origin>  (20) 
adg

>  <m_score__min__energy>  (20) 
-13.02

>  <m_primary>  (20) 
energy

$$$$
20:0
     RDKit          3D

 42 43  0  0  0  0  0  0  0  0999 V2000
   55.1940   26.5030   46.1070 N   0  0  0  0  0  0  0  0  0  0  0  0
   56.9010   26.7400   45.9790 S   0  0  0  0  0  0  0  0  0  0  0  0
   57.4980   25.6470   45.1370 O   0  0  0  0  0  0  0  0  0  0  0  0
   57.5160   26.6840   47.3480 O   0  0  0  0  0  0  0  0  0  0  0  0
   57.2240   28.3060   45.2410 C   0  0  0  0  0  0  0  0  0  0  0  0
   58.5420   28.7550   45.0860 C   0  0  0  0  0  0  0  0  0  0  0  0
   58.7970   30.0040   44.5130 C   0  0  0  0  0  0  0  0  0  0  0  0
   57.7360   30.8230   44.0940 C   0  0  0  0  0  0  0  0  0  0  0  0
   58.0030   32.1820   43.4990 C   0  0  0  0  0  0  0  0  0  0  0  0
   57.5580   33.3230   44.4310 C   0  0  0  0  0  0  0  0  0  0  0  0
   58.7150   34.1320   45.0580 C   0  0  0  0  0  0  0  0  0  0  0  0
   58.4410   34.6560   46.4100 N   0  0  0  0  0  0  0  0  0  0  0  0
   59.6430   34.9140   47.2180 C   0  0  0  0  0  0  0  0  0  0  0  0
   60.5300   33.6890   47.3150 C   0  0  0  0  0  0  0  0  0  0  0  0
   61.9040   33.8490   47.0570 C   0  0  0  0  0  0  0  0  0  0  0  0
   62.7870   32.7770   47.1880 C   0  0  0  0  0  0  0  0  0  0  0  0
   64.1080   32.9530   46.9380 F   0  0  0  0  0  0  0  0  0  0  0  0
   62.3130   31.5290   47.5810 C   0  0  0  0  0  0  0  0  0  0  0  0
   60.9560   31.3450   47.8420 C   0  0  0  0  0  0  0  0  0  0  0  0
   60.0400   32.4090   47.7070 C   0  0  0  0  0  0  0  0  0  0  0  0
   58.6080   32.1390   47.9960 C   0  0  0  0  0  0  0  0  0  0  0  0
   57.8210   31.8450   47.0560 O   0  0  0  0  0  0  0  0  0  0  0  0
   58.0960   32.2430   49.2820 O   0  0  0  0  0  0  0  0  0  0  0  0
   56.4150   30.3720   44.2580 C   0  0  0  0  0  0  0  0  0  0  0  0
   56.1620   29.1220   44.8310 C   0  0  0  0  0  0  0  0  0  0  0  0
   54.7850   26.7180   45.1700 H   0  0  0  0  0  0  0  0  0  0  0  0
   59.3790   28.1223   45.4164 H   0  0  0  0  0  0  0  0  0  0  0  0
   59.8347   30.3474   44.3895 H   0  0  0  0  0  0  0  0  0  0  0  0
   59.0822   32.2799   43.3097 H   0  0  0  0  0  0  0  0  0  0  0  0
   57.4238   32.2621   42.5672 H   0  0  0  0  0  0  0  0  0  0  0  0
   56.9311   34.0154   43.8500 H   0  0  0  0  0  0  0  0  0  0  0  0
   57.0206   32.8504   45.2664 H   0  0  0  0  0  0  0  0  0  0  0  0
   59.5976   33.4781   45.1166 H   0  0  0  0  0  0  0  0  0  0  0  0
   58.8670   35.0083   44.4107 H   0  0  0  0  0  0  0  0  0  0  0  0
   57.8170   33.9990   46.9290 H   0  0  0  0  0  0  0  0  0  0  0  0
   60.2147   35.7316   46.7547 H   0  0  0  0  0  0  0  0  0  0  0  0
   59.3202   35.1835   48.2344 H   0  0  0  0  0  0  0  0  0  0  0  0
   62.2870   34.8327   46.7478 H   0  0  0  0  0  0  0  0  0  0  0  0
   63.0110   30.6854   47.6860 H   0  0  0  0  0  0  0  0  0  0  0  0
   60.5943   30.3554   48.1579 H   0  0  0  0  0  0  0  0  0  0  0  0
   55.5761   31.0055   43.9340 H   0  0  0  0  0  0  0  0  0  0  0  0
   55.1251   28.7782   44.9603 H   0  0  0  0  0  0  0  0  0  0  0  0
  1  2  1  0
  2  3  2  0
  2  4  2  0
  2  5  1  0
  5  6  2  0
  6  7  1  0
  7  8  2  0
  8  9  1  0
  9 10  1  0
 10 11  1  0
 11 12  1  0
 12 13  1  0
 13 14  1  0
 14 15  2  0
 15 16  1  0
 16 17  1  0
 16 18  2  0
 18 19  1  0
 19 20  2  0
 20 21  1  0
 21 22  2  0
 21 23  1  0
  8 24  1  0
 24 25  2  0
 25  5  1  0
 20 14  1  0
  1 26  1  0
  6 27  1  0
  7 28  1  0
  9 29  1  0
  9 30  1  0
 10 31  1  0
 10 32  1  0
 11 33  1  0
 11 34  1  0
 12 35  1  0
 13 36  1  0
 13 37  1  0
 15 38  1  0
 18 39  1  0
 19 40  1  0
 24 41  1  0
 25 42  1  0
M  CHG  2   1  -1  23  -1
M  END
>  <UniqueID>  (21) 
16

>  <SMILES>  (21) 
[NH-]S(=O)(=O)c1ccc(CCCNCc2cc(F)ccc2C(=O)[O-])cc1

>  <Energy>  (21) 
46.251041336935785

>  <Genealogy>  (21) 
[NH-]S(=O)(=O)c1ccc(CCCNCc2cc(F)ccc2C(=O)[O-])cc1 (protonated)
[NH-]S(=O)(=O)c1ccc(CCCNCc2cc(F)ccc2C(=O)[O-])cc1 (3D coordinates assigned)
[NH-]S(=O)(=O)c1ccc(CCCNCc2cc(F)ccc2C(=O)[O-])cc1 (optimized conformer: 46.251041336935785 kcal/mol)

>  <smiles>  (21) 
NS(=O)(=O)c1ccc(CCCNCc2cc(F)ccc2C(=O)O)cc1

>  <score_type>  (21) 
oracle

>  <origin>  (21) 
adg

>  <m_score__min__energy>  (21) 
-12.07

>  <m_primary>  (21) 
energy

$$$$
21:0
     RDKit          3D

 55 57  0  0  0  0  0  0  0  0999 V2000
   57.8100   22.2830   46.5470 O   0  0  0  0  0  0  0  0  0  0  0  0
   58.5440   22.9260   45.7520 C   0  0  0  0  0  0  0  0  0  0  0  0
   59.8830   22.5770   45.6180 O   0  0  0  0  0  0  0  0  0  0  0  0
   57.9890   24.0830   44.9790 C   0  0  0  0  0  0  0  0  0  0  0  0
   58.3090   25.4340   45.6430 C   0  0  0  0  0  0  0  0  0  0  0  0
   57.0980   26.3970   45.6960 C   0  0  2  0  0  0  0  0  0  0  0  0
   57.4250   27.6050   46.4550 N   0  0  0  0  0  0  0  0  0  0  0  0
   58.7240   28.1960   46.5830 C   0  0  0  0  0  0  0  0  0  0  0  0
   59.6150   27.9540   45.7230 O   0  0  0  0  0  0  0  0  0  0  0  0
   59.0200   29.0910   47.7240 C   0  0  0  0  0  0  0  0  0  0  0  0
   58.8960   30.4860   47.5900 C   0  0  0  0  0  0  0  0  0  0  0  0
   59.1860   31.3320   48.6660 C   0  0  0  0  0  0  0  0  0  0  0  0
   59.5930   30.7970   49.8940 C   0  0  0  0  0  0  0  0  0  0  0  0
   59.8940   31.6880   51.0670 C   0  0  0  0  0  0  0  0  0  0  0  0
   59.3010   31.1610   52.2550 O   0  0  0  0  0  0  0  0  0  0  0  0
   57.9410   30.8550   52.4270 C   0  0  0  0  0  0  0  0  0  0  0  0
   57.4800   29.9350   53.3870 C   0  0  0  0  0  0  0  0  0  0  0  0
   56.1150   29.6310   53.4740 C   0  0  0  0  0  0  0  0  0  0  0  0
   55.1920   30.2510   52.6280 C   0  0  0  0  0  0  0  0  0  0  0  0
   53.8140   29.8540   52.7030 N   0  0  0  0  0  0  0  0  0  0  0  0
   52.6690   30.6770   52.4460 C   0  0  0  0  0  0  0  0  0  0  0  0
   52.1320   31.3100   53.3970 O   0  0  0  0  0  0  0  0  0  0  0  0
   52.0930   30.7770   51.0780 C   0  0  0  0  0  0  0  0  0  0  0  0
   52.3300   29.7410   50.1520 C   0  0  0  0  0  0  0  0  0  0  0  0
   51.7750   29.7850   48.8730 C   0  0  0  0  0  0  0  0  0  0  0  0
   50.9780   30.8640   48.4920 C   0  0  0  0  0  0  0  0  0  0  0  0
   50.7380   31.9070   49.3880 C   0  0  0  0  0  0  0  0  0  0  0  0
   49.9450   32.9790   48.9960 O   0  0  0  0  0  0  0  0  0  0  0  0
   51.2870   31.8710   50.6760 C   0  0  0  0  0  0  0  0  0  0  0  0
   51.0180   32.9270   51.5430 O   0  0  0  0  0  0  0  0  0  0  0  0
   55.6530   31.1710   51.6690 C   0  0  0  0  0  0  0  0  0  0  0  0
   57.0150   31.4720   51.5780 C   0  0  0  0  0  0  0  0  0  0  0  0
   59.7070   29.4060   50.0360 C   0  0  0  0  0  0  0  0  0  0  0  0
   59.4310   28.5600   48.9600 C   0  0  0  0  0  0  0  0  0  0  0  0
   55.8460   25.7620   46.2460 C   0  0  0  0  0  0  0  0  0  0  0  0
   55.9080   24.7500   46.9910 O   0  0  0  0  0  0  0  0  0  0  0  0
   54.6070   26.3280   45.9630 O   0  0  0  0  0  0  0  0  0  0  0  0
   58.4224   24.0739   43.9680 H   0  0  0  0  0  0  0  0  0  0  0  0
   56.8949   23.9736   44.9471 H   0  0  0  0  0  0  0  0  0  0  0  0
   58.6488   25.2447   46.6719 H   0  0  0  0  0  0  0  0  0  0  0  0
   59.0832   25.9203   45.0314 H   0  0  0  0  0  0  0  0  0  0  0  0
   56.8824   26.6651   44.6512 H   0  0  0  0  0  0  0  0  0  0  0  0
   58.5684   30.9150   46.6316 H   0  0  0  0  0  0  0  0  0  0  0  0
   59.0939   32.4216   48.5466 H   0  0  0  0  0  0  0  0  0  0  0  0
   60.9836   31.7528   51.2033 H   0  0  0  0  0  0  0  0  0  0  0  0
   59.4784   32.6878   50.8728 H   0  0  0  0  0  0  0  0  0  0  0  0
   58.1937   29.4530   54.0713 H   0  0  0  0  0  0  0  0  0  0  0  0
   55.7667   28.8970   54.2156 H   0  0  0  0  0  0  0  0  0  0  0  0
   52.9604   28.8873   50.4415 H   0  0  0  0  0  0  0  0  0  0  0  0
   51.9665   28.9667   48.1633 H   0  0  0  0  0  0  0  0  0  0  0  0
   50.5380   30.8932   47.4843 H   0  0  0  0  0  0  0  0  0  0  0  0
   54.9384   31.6558   50.9875 H   0  0  0  0  0  0  0  0  0  0  0  0
   57.3626   32.2013   50.8315 H   0  0  0  0  0  0  0  0  0  0  0  0
   60.0159   28.9789   51.0015 H   0  0  0  0  0  0  0  0  0  0  0  0
   59.5356   27.4715   49.0796 H   0  0  0  0  0  0  0  0  0  0  0  0
  1  2  2  0
  2  3  1  0
  2  4  1  0
  4  5  1  0
  5  6  1  0
  6  7  1  0
  7  8  1  0
  8  9  2  0
  8 10  1  0
 10 11  2  0
 11 12  1  0
 12 13  2  0
 13 14  1  0
 14 15  1  0
 15 16  1  0
 16 17  2  0
 17 18  1  0
 18 19  2  0
 19 20  1  0
 20 21  1  0
 21 22  2  0
 21 23  1  0
 23 24  2  0
 24 25  1  0
 25 26  2  0
 26 27  1  0
 27 28  1  0
 27 29  2  0
 29 30  1  0
 19 31  1  0
 31 32  2  0
 13 33  1  0
 33 34  2  0
  6 35  1  0
 35 36  2  0
 35 37  1  0
 34 10  1  0
 32 16  1  0
 29 23  1  0
  4 38  1  0
  4 39  1  0
  5 40  1  0
  5 41  1  0
  6 42  1  6
 11 43  1  0
 12 44  1  0
 14 45  1  0
 14 46  1  0
 17 47  1  0
 18 48  1  0
 24 49  1  0
 25 50  1  0
 26 51  1  0
 31 52  1  0
 32 53  1  0
 33 54  1  0
 34 55  1  0
M  CHG  6   3  -1   7  -1  20  -1  28  -1  30  -1  37  -1
M  END
>  <UniqueID>  (22) 
17

>  <SMILES>  (22) 
O=C([O-])CC[C@H]([N-]C(=O)c1ccc(COc2ccc([N-]C(=O)c3cccc([O-])c3[O-])cc2)cc1)C(=O)[O-]

>  <Energy>  (22) 
63.16669362559256

>  <Genealogy>  (22) 
O=C([O-])CCC([N-]C(=O)c1ccc(COc2ccc([N-]C(=O)c3cccc([O-])c3[O-])cc2)cc1)C(=O)[O-] (protonated)
O=C([O-])CC[C@H]([N-]C(=O)c1ccc(COc2ccc([N-]C(=O)c3cccc([O-])c3[O-])cc2)cc1)C(=O)[O-] (chirality)
O=C([O-])CC[C@H]([N-]C(=O)c1ccc(COc2ccc([N-]C(=O)c3cccc([O-])c3[O-])cc2)cc1)C(=O)[O-] (3D coordinates assigned)
O=C([O-])CC[C@H]([N-]C(=O)c1ccc(COc2ccc([N-]C(=O)c3cccc([O-])c3[O-])cc2)cc1)C(=O)[O-] (optimized conformer: 63.16669362559256 kcal/mol)

>  <smiles>  (22) 
O=C(O)CCC(NC(=O)c1ccc(COc2ccc(NC(=O)c3cccc(O)c3O)cc2)cc1)C(=O)O

>  <score_type>  (22) 
oracle

>  <origin>  (22) 
adg

>  <m_score__min__energy>  (22) 
-26.989999999999998

>  <m_primary>  (22) 
energy

$$$$
22:0
     RDKit          3D

 53 57  0  0  1  0  0  0  0  0999 V2000
   56.8970   29.8910   44.3720 C   0  0  0  0  0  0  0  0  0  0  0  0
   56.4890   31.2520   44.6560 N   0  0  0  0  0  0  0  0  0  0  0  0
   57.2530   32.1360   45.2000 C   0  0  0  0  0  0  0  0  0  0  0  0
   57.9760   31.8750   46.3030 N   0  0  0  0  0  0  0  0  0  0  0  0
   58.7720   32.8210   46.8590 C   0  0  0  0  0  0  0  0  0  0  0  0
   59.5120   32.5490   47.9900 C   0  0  0  0  0  0  0  0  0  0  0  0
   59.4760   31.3970   48.5570 N   0  0  0  0  0  0  0  0  0  0  0  0
   59.5500   30.1770   47.7930 C   0  0  0  0  0  0  0  0  0  0  0  0
   60.3240   30.1480   46.6510 C   0  0  0  0  0  0  0  0  0  0  0  0
   60.4480   29.0220   45.8670 C   0  0  0  0  0  0  0  0  0  0  0  0
   59.7380   27.8990   46.2960 C   0  0  0  0  0  0  0  0  0  0  0  0
   59.6540   26.6570   45.7500 N   0  0  0  0  0  0  0  0  0  0  0  0
   58.8530   25.8800   46.4980 C   0  0  0  0  0  0  0  0  0  0  0  0
   58.5610   24.4640   46.1610 C   0  0  0  0  0  0  0  0  0  0  0  0
   57.1390   24.2050   45.8700 C   0  0  0  0  0  0  0  0  0  0  0  0
   56.7760   22.9100   45.5550 C   0  0  0  0  0  0  0  0  0  0  0  0
   55.4500   22.6090   45.2710 C   0  0  0  0  0  0  0  0  0  0  0  0
   54.4540   23.5530   45.2870 C   0  0  0  0  0  0  0  0  0  0  0  0
   53.1220   23.2790   45.0080 O   0  0  0  0  0  0  0  0  0  0  0  0
   52.2610   22.9860   46.0930 C   0  0  0  0  0  0  0  0  0  0  0  0
   54.8290   24.8520   45.6050 C   0  0  0  0  0  0  0  0  0  0  0  0
   53.8300   25.8380   45.6270 O   0  0  0  0  0  0  0  0  0  0  0  0
   56.1570   25.1730   45.8920 C   0  0  0  0  0  0  0  0  0  0  0  0
   58.3940   26.6350   47.5710 C   0  0  0  0  0  0  0  0  0  0  0  0
   58.9610   27.9050   47.4290 C   0  0  0  0  0  0  0  0  0  0  0  0
   58.8580   29.0530   48.1960 C   0  0  0  0  0  0  0  0  0  0  0  0
   60.2740   33.5290   48.4800 N   0  0  0  0  0  0  0  0  0  0  0  0
   60.3370   34.7370   47.9200 C   0  0  0  0  0  0  0  0  0  0  0  0
   59.6050   34.9870   46.8090 N   0  0  0  0  0  0  0  0  0  0  0  0
   58.8120   34.0620   46.2500 C   0  0  0  0  0  0  0  0  0  0  0  0
   58.0820   34.3500   45.1230 C   0  0  0  0  0  0  0  0  0  0  0  0
   57.3060   33.3620   44.6170 N   0  0  0  0  0  0  0  0  0  0  0  0
   57.0586   29.3519   45.3171 H   0  0  0  0  0  0  0  0  0  0  0  0
   56.1107   29.3860   43.7916 H   0  0  0  0  0  0  0  0  0  0  0  0
   57.8314   29.9018   43.7916 H   0  0  0  0  0  0  0  0  0  0  0  0
   60.8633   31.0599   46.3550 H   0  0  0  0  0  0  0  0  0  0  0  0
   61.0684   29.0085   44.9587 H   0  0  0  0  0  0  0  0  0  0  0  0
   60.1550   26.3890   44.8780 H   0  0  0  0  0  0  0  0  0  0  0  0
   59.1524   24.1888   45.2753 H   0  0  0  0  0  0  0  0  0  0  0  0
   58.8230   23.8628   47.0441 H   0  0  0  0  0  0  0  0  0  0  0  0
   57.5375   22.1166   45.5290 H   0  0  0  0  0  0  0  0  0  0  0  0
   55.1872   21.5701   45.0228 H   0  0  0  0  0  0  0  0  0  0  0  0
   52.7904   23.1662   47.0402 H   0  0  0  0  0  0  0  0  0  0  0  0
   51.3725   23.6324   46.0409 H   0  0  0  0  0  0  0  0  0  0  0  0
   51.9511   21.9318   46.0409 H   0  0  0  0  0  0  0  0  0  0  0  0
   52.9100   25.6470   45.2330 H   0  0  0  0  0  0  0  0  0  0  0  0
   56.4235   26.2113   46.1388 H   0  0  0  0  0  0  0  0  0  0  0  0
   57.7190   26.3000   48.3723 H   0  0  0  0  0  0  0  0  0  0  0  0
   58.2391   29.0689   49.1053 H   0  0  0  0  0  0  0  0  0  0  0  0
   60.8520   33.3550   49.3430 H   0  0  0  0  0  0  0  0  0  0  0  0
   60.9753   35.5203   48.3548 H   0  0  0  0  0  0  0  0  0  0  0  0
   58.1257   35.3424   44.6506 H   0  0  0  0  0  0  0  0  0  0  0  0
   56.7560   33.5970   43.7590 H   0  0  0  0  0  0  0  0  0  0  0  0
  1  2  1  0
  2  3  2  0
  3  4  1  0
  4  5  2  0
  5  6  1  0
  6  7  2  0
  7  8  1  0
  8  9  2  0
  9 10  1  0
 10 11  2  0
 11 12  1  0
 12 13  1  0
 13 14  1  0
 14 15  1  0
 15 16  2  0
 16 17  1  0
 17 18  2  0
 18 19  1  0
 19 20  1  0
 18 21  1  0
 21 22  1  0
 21 23  2  0
 13 24  2  0
 24 25  1  0
 25 26  2  0
  6 27  1  0
 27 28  1  0
 28 29  2  0
 29 30  1  0
 30 31  2  0
 31 32  1  0
 32  3  1  0
 30  5  1  0
 26  8  1  0
 25 11  1  0
 23 15  1  0
  1 33  1  0
  1 34  1  0
  1 35  1  0
  9 36  1  0
 10 37  1  0
 12 38  1  0
 14 39  1  0
 14 40  1  0
 16 41  1  0
 17 42  1  0
 20 43  1  0
 20 44  1  0
 20 45  1  0
 22 46  1  0
 23 47  1  0
 24 48  1  0
 26 49  1  0
 27 50  1  0
 28 51  1  0
 31 52  1  0
 32 53  1  0
M  END
>  <smiles>  (23) 
CN=c1nc2c(=Nc3ccc4[nH]c(Cc5ccc(OC)c(O)c5)cc4c3)[nH]cnc2c[nH]1

>  <score_type>  (23) 
oracle

>  <origin>  (23) 
adg

>  <m_score__min__energy>  (23) 
-9.5700000000000003

>  <m_primary>  (23) 
energy

$$$$
23:0
     RDKit          3D

 38 39  0  0  0  0  0  0  0  0999 V2000
   57.6730   31.9430   41.6260 C   0  0  0  0  0  0  0  0  0  0  0  0
   57.4360   31.5210   43.0040 N   0  0  0  0  0  0  0  0  0  0  0  0
   57.4390   32.3260   44.0840 C   0  0  0  0  0  0  0  0  0  0  0  0
   57.1520   31.6640   45.2250 N   0  0  0  0  0  0  0  0  0  0  0  0
   56.9480   30.3900   44.8330 C   0  0  0  0  0  0  0  0  0  0  0  0
   57.1000   30.3010   43.4650 C   0  0  0  0  0  0  0  0  0  0  0  0
   56.9370   29.0470   42.6420 C   0  0  0  0  0  0  0  0  0  0  0  0
   57.3940   27.8340   43.3480 N   0  0  0  0  0  0  0  0  0  0  0  0
   58.8190   27.8660   43.7390 C   0  0  0  0  0  0  0  0  0  0  0  0
   59.0250   28.0850   45.2290 C   0  0  0  0  0  0  0  0  0  0  0  0
   59.9240   29.0950   45.6280 C   0  0  0  0  0  0  0  0  0  0  0  0
   60.2010   29.3190   46.9780 C   0  0  0  0  0  0  0  0  0  0  0  0
   61.1540   30.3280   47.3620 C   0  0  0  0  0  0  0  0  0  0  0  0
   61.9190   31.1390   47.6700 N   0  0  0  0  0  0  0  0  0  0  0  0
   59.5570   28.5610   47.9550 C   0  0  0  0  0  0  0  0  0  0  0  0
   58.6250   27.5920   47.5850 C   0  0  0  0  0  0  0  0  0  0  0  0
   58.3390   27.3410   46.2320 C   0  0  0  0  0  0  0  0  0  0  0  0
   57.0930   26.1300   45.8620 S   0  0  0  0  0  0  0  0  0  0  0  0
   57.1870   24.7890   47.0300 C   0  0  0  0  0  0  0  0  0  0  0  0
   57.3190   25.5660   44.4870 O   0  0  0  0  0  0  0  0  0  0  0  0
   55.7250   26.7500   45.8910 O   0  0  0  0  0  0  0  0  0  0  0  0
   58.2116   32.9021   41.6237 H   0  0  0  0  0  0  0  0  0  0  0  0
   58.2760   31.1826   41.1082 H   0  0  0  0  0  0  0  0  0  0  0  0
   56.7098   32.0622   41.1082 H   0  0  0  0  0  0  0  0  0  0  0  0
   57.6519   33.4043   44.0410 H   0  0  0  0  0  0  0  0  0  0  0  0
   56.6990   29.5519   45.5005 H   0  0  0  0  0  0  0  0  0  0  0  0
   55.8726   28.9274   42.3914 H   0  0  0  0  0  0  0  0  0  0  0  0
   57.5590   29.1594   41.7418 H   0  0  0  0  0  0  0  0  0  0  0  0
   56.7870   27.6240   44.1710 H   0  0  0  0  0  0  0  0  0  0  0  0
   57.2770   27.0290   42.6890 H   0  0  0  0  0  0  0  0  0  0  0  0
   59.2801   26.9073   43.4593 H   0  0  0  0  0  0  0  0  0  0  0  0
   59.2831   28.7152   43.2160 H   0  0  0  0  0  0  0  0  0  0  0  0
   60.4147   29.7160   44.8641 H   0  0  0  0  0  0  0  0  0  0  0  0
   59.7842   28.7274   49.0183 H   0  0  0  0  0  0  0  0  0  0  0  0
   58.1055   27.0150   48.3642 H   0  0  0  0  0  0  0  0  0  0  0  0
   57.1588   25.1914   48.0534 H   0  0  0  0  0  0  0  0  0  0  0  0
   56.3342   24.1108   46.8791 H   0  0  0  0  0  0  0  0  0  0  0  0
   58.1261   24.2364   46.8791 H   0  0  0  0  0  0  0  0  0  0  0  0
  1  2  1  0
  2  3  1  0
  3  4  2  0
  4  5  1  0
  5  6  2  0
  6  7  1  0
  7  8  1  0
  8  9  1  0
  9 10  1  0
 10 11  2  0
 11 12  1  0
 12 13  1  0
 13 14  3  0
 12 15  2  0
 15 16  1  0
 16 17  2  0
 17 18  1  0
 18 19  1  0
 18 20  2  0
 18 21  2  0
  6  2  1  0
 17 10  1  0
  1 22  1  0
  1 23  1  0
  1 24  1  0
  3 25  1  0
  5 26  1  0
  7 27  1  0
  7 28  1  0
  8 29  1  0
  8 30  1  0
  9 31  1  0
  9 32  1  0
 11 33  1  0
 15 34  1  0
 16 35  1  0
 19 36  1  0
 19 37  1  0
 19 38  1  0
M  CHG  1   8   1
M  END
>  <UniqueID>  (24) 
18

>  <SMILES>  (24) 
Cn1cncc1C[NH2+]Cc1cc(C#N)ccc1S(C)(=O)=O

>  <Energy>  (24) 
65.88837071317292

>  <Genealogy>  (24) 
Cn1cncc1C[NH2+]Cc1cc(C#N)ccc1S(C)(=O)=O (protonated)
Cn1cncc1C[NH2+]Cc1cc(C#N)ccc1S(C)(=O)=O (3D coordinates assigned)
Cn1cncc1C[NH2+]Cc1cc(C#N)ccc1S(C)(=O)=O (optimized conformer: 65.88837071317292 kcal/mol)

>  <smiles>  (24) 
Cn1cncc1CNCc1cc(C#N)ccc1S(C)(=O)=O

>  <score_type>  (24) 
oracle

>  <origin>  (24) 
adg

>  <m_score__min__energy>  (24) 
-4.9100000000000001

>  <m_primary>  (24) 
energy

$$$$
24:0
     RDKit          3D

 44 46  0  0  0  0  0  0  0  0999 V2000
   58.0656   33.4186   42.1477 H   0  0  0  0  0  0  0  0  0  0  0  0
   57.9020   32.7170   42.9790 C   0  0  0  0  0  0  0  0  0  0  0  0
   58.2600   33.0720   44.2850 C   0  0  0  0  0  0  0  0  0  0  0  0
   58.8950   34.4010   44.5720 C   0  0  0  0  0  0  0  0  0  0  0  0
   58.2929   35.1963   44.1084 H   0  0  0  0  0  0  0  0  0  0  0  0
   59.9140   34.4025   44.1577 H   0  0  0  0  0  0  0  0  0  0  0  0
   58.9770   34.6470   46.0750 C   0  0  0  0  0  0  0  0  0  0  0  0
   58.6735   33.7366   46.6126 H   0  0  0  0  0  0  0  0  0  0  0  0
   60.0104   34.9069   46.3482 H   0  0  0  0  0  0  0  0  0  0  0  0
   58.3063   35.4749   46.3482 H   0  0  0  0  0  0  0  0  0  0  0  0
   58.0810   32.1810   45.2990 N   0  0  0  0  0  0  0  0  0  0  0  0
   57.5480   30.9450   45.1000 C   0  0  0  0  0  0  0  0  0  0  0  0
   57.4130   30.1540   46.1290 N   0  0  0  0  0  0  0  0  0  0  0  0
   58.3720   29.2030   46.6180 C   0  0  0  0  0  0  0  0  0  0  0  0
   59.3070   29.6080   47.3580 O   0  0  0  0  0  0  0  0  0  0  0  0
   58.3190   27.8210   46.2220 N   0  0  0  0  0  0  0  0  0  0  0  0
   58.8040   26.7760   47.1350 C   0  0  0  0  0  0  0  0  0  0  0  0
   59.7886   26.4228   46.7946 H   0  0  0  0  0  0  0  0  0  0  0  0
   58.8882   27.1926   48.1496 H   0  0  0  0  0  0  0  0  0  0  0  0
   57.8190   25.5980   47.1530 C   0  0  0  0  0  0  0  0  0  0  0  0
   58.3341   24.7076   47.5427 H   0  0  0  0  0  0  0  0  0  0  0  0
   56.9676   25.8706   47.7939 H   0  0  0  0  0  0  0  0  0  0  0  0
   57.3060   25.3020   45.8070 N   0  0  0  0  0  0  0  0  0  0  0  0
   56.0790   24.5650   45.6710 C   0  0  0  0  0  0  0  0  0  0  0  0
   56.1150   23.1800   45.4370 C   0  0  0  0  0  0  0  0  0  0  0  0
   57.0826   22.6599   45.3803 H   0  0  0  0  0  0  0  0  0  0  0  0
   54.9290   22.4600   45.2760 C   0  0  0  0  0  0  0  0  0  0  0  0
   54.9645   21.3760   45.0924 H   0  0  0  0  0  0  0  0  0  0  0  0
   53.6980   23.1160   45.3480 C   0  0  0  0  0  0  0  0  0  0  0  0
   52.7645   22.5481   45.2211 H   0  0  0  0  0  0  0  0  0  0  0  0
   53.6510   24.4930   45.5810 C   0  0  0  0  0  0  0  0  0  0  0  0
   52.6803   25.0074   45.6364 H   0  0  0  0  0  0  0  0  0  0  0  0
   54.8360   25.2190   45.7440 C   0  0  0  0  0  0  0  0  0  0  0  0
   54.7700   26.5860   45.9930 O   0  0  0  0  0  0  0  0  0  0  0  0
   57.9080   25.9550   44.6390 C   0  0  0  0  0  0  0  0  0  0  0  0
   58.9398   25.5962   44.5099 H   0  0  0  0  0  0  0  0  0  0  0  0
   57.3200   25.7136   43.7412 H   0  0  0  0  0  0  0  0  0  0  0  0
   57.9180   27.4720   44.8490 C   0  0  0  0  0  0  0  0  0  0  0  0
   58.6278   27.9266   44.1422 H   0  0  0  0  0  0  0  0  0  0  0  0
   56.9000   27.8521   44.6782 H   0  0  0  0  0  0  0  0  0  0  0  0
   57.1430   30.5750   43.8000 C   0  0  0  0  0  0  0  0  0  0  0  0
   56.6793   29.5936   43.6215 H   0  0  0  0  0  0  0  0  0  0  0  0
   57.3360   31.4650   42.7430 C   0  0  0  0  0  0  0  0  0  0  0  0
   57.0413   31.1786   41.7226 H   0  0  0  0  0  0  0  0  0  0  0  0
  1  2  1  0
  2  3  2  0
  3  4  1  0
  4  5  1  0
  4  6  1  0
  4  7  1  0
  7  8  1  0
  7  9  1  0
  7 10  1  0
  3 11  1  0
 11 12  1  0
 12 13  2  0
 13 14  1  0
 14 15  2  0
 14 16  1  0
 16 17  1  0
 17 18  1  0
 17 19  1  0
 17 20  1  0
 20 21  1  0
 20 22  1  0
 20 23  1  0
 23 24  1  0
 24 25  2  0
 25 26  1  0
 25 27  1  0
 27 28  1  0
 27 29  2  0
 29 30  1  0
 29 31  1  0
 31 32  1  0
 31 33  2  0
 33 34  1  0
 23 35  1  0
 35 36  1  0
 35 37  1  0
 35 38  1  0
 38 39  1  0
 38 40  1  0
 12 41  1  0
 41 42  1  0
 41 43  2  0
 43 44  1  0
 43  2  1  0
 38 16  1  0
 33 24  1  0
M  CHG  2  11  -1  34  -1
M  END
>  <UniqueID>  (25) 
19

>  <SMILES>  (25) 
CCc1ccc/c(=N\C(=O)N2CCN(c3ccccc3[O-])CC2)[n-]1

>  <Energy>  (25) 
56.10766324039519

>  <Genealogy>  (25) 
CCc1cccc(=NC(=O)N2CCN(c3ccccc3[O-])CC2)[n-]1 (protonated)
CCc1ccc/c(=N\C(=O)N2CCN(c3ccccc3[O-])CC2)[n-]1 (cis-trans isomerization)
CCc1ccc/c(=N\C(=O)N2CCN(c3ccccc3[O-])CC2)[n-]1 (3D coordinates assigned)
CCc1ccc/c(=N\C(=O)N2CCN(c3ccccc3[O-])CC2)[n-]1 (nonaromatic ring conformer: 56.10766324039519 kcal/mol)

>  <smiles>  (25) 
CCc1cccc(=NC(=O)N2CCN(c3ccccc3O)CC2)[nH]1

>  <score_type>  (25) 
oracle

>  <origin>  (25) 
adg

>  <m_score__min__energy>  (25) 
-12.140000000000001

>  <m_primary>  (25) 
energy

$$$$
25:0
     RDKit          3D

 41 43  0  0  0  0  0  0  0  0999 V2000
   54.7380   26.1640   45.9850 N   0  0  0  0  0  0  0  0  0  0  0  0
   56.2460   25.3830   46.3050 S   0  0  0  0  0  0  0  0  0  0  0  0
   56.4290   24.2520   45.3310 O   0  0  0  0  0  0  0  0  0  0  0  0
   56.2400   24.8260   47.6990 O   0  0  0  0  0  0  0  0  0  0  0  0
   57.5630   26.5440   46.1470 C   0  0  0  0  0  0  0  0  0  0  0  0
   58.7290   26.4190   46.9130 C   0  0  0  0  0  0  0  0  0  0  0  0
   59.7540   27.3610   46.7880 C   0  0  0  0  0  0  0  0  0  0  0  0
   59.6260   28.4230   45.8880 C   0  0  0  0  0  0  0  0  0  0  0  0
   58.4770   28.5470   45.0990 C   0  0  0  0  0  0  0  0  0  0  0  0
   58.4000   29.6220   44.1510 N   0  0  0  0  0  0  0  0  0  0  0  0
   57.1720   30.8460   44.1600 S   0  0  0  0  0  0  0  0  0  0  0  0
   56.8120   31.1990   42.7440 O   0  0  0  0  0  0  0  0  0  0  0  0
   55.9510   30.3270   44.8660 O   0  0  0  0  0  0  0  0  0  0  0  0
   57.7790   32.2530   45.0270 C   0  0  0  0  0  0  0  0  0  0  0  0
   56.9910   33.4030   45.1720 C   0  0  0  0  0  0  0  0  0  0  0  0
   57.5390   34.5600   45.7320 C   0  0  0  0  0  0  0  0  0  0  0  0
   58.8760   34.5790   46.1350 C   0  0  0  0  0  0  0  0  0  0  0  0
   59.6680   33.4260   46.0090 C   0  0  0  0  0  0  0  0  0  0  0  0
   61.0500   33.4130   46.3860 N   0  0  0  0  0  0  0  0  0  0  0  0
   61.6120   33.0030   47.9710 S   0  0  0  0  0  0  0  0  0  0  0  0
   61.4330   34.1840   48.8830 O   0  0  0  0  0  0  0  0  0  0  0  0
   63.0680   32.6370   47.9190 O   0  0  0  0  0  0  0  0  0  0  0  0
   60.6570   31.6650   48.5840 C   0  0  0  0  0  0  0  0  0  0  0  0
   61.1140   30.3780   48.8210 C   0  0  0  0  0  0  0  0  0  0  0  0
   60.1110   29.5250   49.2980 C   0  0  0  0  0  0  0  0  0  0  0  0
   58.8720   30.1410   49.4330 C   0  0  0  0  0  0  0  0  0  0  0  0
   59.0210   31.7460   48.9540 S   0  0  0  0  0  0  0  0  0  0  0  0
   59.1070   32.2620   45.4720 C   0  0  0  0  0  0  0  0  0  0  0  0
   57.4370   27.6110   45.2460 C   0  0  0  0  0  0  0  0  0  0  0  0
   54.7620   27.0880   46.4710 H   0  0  0  0  0  0  0  0  0  0  0  0
   58.8382   25.5783   47.6139 H   0  0  0  0  0  0  0  0  0  0  0  0
   60.6636   27.2665   47.3993 H   0  0  0  0  0  0  0  0  0  0  0  0
   60.4330   29.1653   45.7996 H   0  0  0  0  0  0  0  0  0  0  0  0
   55.9408   33.3947   44.8449 H   0  0  0  0  0  0  0  0  0  0  0  0
   56.9158   35.4580   45.8557 H   0  0  0  0  0  0  0  0  0  0  0  0
   59.3100   35.4996   46.5523 H   0  0  0  0  0  0  0  0  0  0  0  0
   62.1536   30.0606   48.6524 H   0  0  0  0  0  0  0  0  0  0  0  0
   60.2869   28.4671   49.5428 H   0  0  0  0  0  0  0  0  0  0  0  0
   57.9503   29.6600   49.7923 H   0  0  0  0  0  0  0  0  0  0  0  0
   59.7135   31.3472   45.3988 H   0  0  0  0  0  0  0  0  0  0  0  0
   56.5186   27.7169   44.6499 H   0  0  0  0  0  0  0  0  0  0  0  0
  1  2  1  0
  2  3  2  0
  2  4  2  0
  2  5  1  0
  5  6  2  0
  6  7  1  0
  7  8  2  0
  8  9  1  0
  9 10  1  0
 10 11  1  0
 11 12  2  0
 11 13  2  0
 11 14  1  0
 14 15  2  0
 15 16  1  0
 16 17  2  0
 17 18  1  0
 18 19  1  0
 19 20  1  0
 20 21  2  0
 20 22  2  0
 20 23  1  0
 23 24  2  0
 24 25  1  0
 25 26  2  0
 26 27  1  0
 18 28  2  0
  9 29  2  0
 29  5  1  0
 28 14  1  0
 27 23  1  0
  1 30  1  0
  6 31  1  0
  7 32  1  0
  8 33  1  0
 15 34  1  0
 16 35  1  0
 17 36  1  0
 24 37  1  0
 25 38  1  0
 26 39  1  0
 28 40  1  0
 29 41  1  0
M  CHG  3   1  -1  10  -1  19  -1
M  END
>  <UniqueID>  (26) 
20

>  <SMILES>  (26) 
[NH-]S(=O)(=O)c1cccc([N-]S(=O)(=O)c2cccc([N-]S(=O)(=O)c3cccs3)c2)c1

>  <Energy>  (26) 
72.64501107019387

>  <Genealogy>  (26) 
[NH-]S(=O)(=O)c1cccc([N-]S(=O)(=O)c2cccc([N-]S(=O)(=O)c3cccs3)c2)c1 (protonated)
[NH-]S(=O)(=O)c1cccc([N-]S(=O)(=O)c2cccc([N-]S(=O)(=O)c3cccs3)c2)c1 (3D coordinates assigned)
[NH-]S(=O)(=O)c1cccc([N-]S(=O)(=O)c2cccc([N-]S(=O)(=O)c3cccs3)c2)c1 (optimized conformer: 72.64501107019387 kcal/mol)

>  <smiles>  (26) 
NS(=O)(=O)c1cccc(NS(=O)(=O)c2cccc(NS(=O)(=O)c3cccs3)c2)c1

>  <score_type>  (26) 
oracle

>  <origin>  (26) 
adg

>  <m_score__min__energy>  (26) 
-15.18

>  <m_primary>  (26) 
energy

$$$$
26:0
     RDKit          3D

 39 41  0  0  0  0  0  0  0  0999 V2000
   55.5090   27.0840   45.8640 O   0  0  0  0  0  0  0  0  0  0  0  0
   56.4880   26.3930   46.2570 C   0  0  0  0  0  0  0  0  0  0  0  0
   56.2860   25.0550   46.7330 N   0  0  0  0  0  0  0  0  0  0  0  0
   55.2160   24.1640   46.3890 C   0  0  0  0  0  0  0  0  0  0  0  0
   54.9420   22.9960   47.1250 C   0  0  0  0  0  0  0  0  0  0  0  0
   53.8820   22.1620   46.7520 C   0  0  0  0  0  0  0  0  0  0  0  0
   53.1000   22.4770   45.6360 C   0  0  0  0  0  0  0  0  0  0  0  0
   52.0470   21.6480   45.2690 O   0  0  0  0  0  0  0  0  0  0  0  0
   53.3840   23.6210   44.8870 C   0  0  0  0  0  0  0  0  0  0  0  0
   54.4440   24.4540   45.2560 C   0  0  0  0  0  0  0  0  0  0  0  0
   57.8640   26.9340   46.1640 C   0  0  0  0  0  0  0  0  0  0  0  0
   58.9540   26.0440   46.1470 C   0  0  0  0  0  0  0  0  0  0  0  0
   60.2620   26.5230   46.0510 C   0  0  0  0  0  0  0  0  0  0  0  0
   60.5010   27.8960   45.9640 C   0  0  0  0  0  0  0  0  0  0  0  0
   59.4310   28.7920   45.9670 C   0  0  0  0  0  0  0  0  0  0  0  0
   58.1140   28.3230   46.0620 C   0  0  0  0  0  0  0  0  0  0  0  0
   57.0430   29.2660   45.9980 N   0  0  0  0  0  0  0  0  0  0  0  0
   57.0600   30.5380   44.8260 S   0  0  0  0  0  0  0  0  0  0  0  0
   55.6510   30.8860   44.4350 O   0  0  0  0  0  0  0  0  0  0  0  0
   57.7930   30.0680   43.6000 O   0  0  0  0  0  0  0  0  0  0  0  0
   57.8710   31.9500   45.4950 C   0  0  0  0  0  0  0  0  0  0  0  0
   58.3430   31.9390   46.8160 C   0  0  0  0  0  0  0  0  0  0  0  0
   58.9400   33.0800   47.3580 C   0  0  0  0  0  0  0  0  0  0  0  0
   59.0700   34.2380   46.5850 C   0  0  0  0  0  0  0  0  0  0  0  0
   59.6500   35.3440   47.1150 F   0  0  0  0  0  0  0  0  0  0  0  0
   58.5940   34.2570   45.2700 C   0  0  0  0  0  0  0  0  0  0  0  0
   58.7050   35.3830   44.5220 F   0  0  0  0  0  0  0  0  0  0  0  0
   57.9950   33.1170   44.7260 C   0  0  0  0  0  0  0  0  0  0  0  0
   55.5627   22.7380   47.9957 H   0  0  0  0  0  0  0  0  0  0  0  0
   53.6634   21.2569   47.3377 H   0  0  0  0  0  0  0  0  0  0  0  0
   52.7730   23.8667   44.0059 H   0  0  0  0  0  0  0  0  0  0  0  0
   54.6740   25.3443   44.6523 H   0  0  0  0  0  0  0  0  0  0  0  0
   58.7738   24.9607   46.2099 H   0  0  0  0  0  0  0  0  0  0  0  0
   61.1058   25.8174   46.0439 H   0  0  0  0  0  0  0  0  0  0  0  0
   61.5325   28.2714   45.8931 H   0  0  0  0  0  0  0  0  0  0  0  0
   59.6226   29.8727   45.8944 H   0  0  0  0  0  0  0  0  0  0  0  0
   58.2428   31.0296   47.4267 H   0  0  0  0  0  0  0  0  0  0  0  0
   59.3083   33.0674   48.3944 H   0  0  0  0  0  0  0  0  0  0  0  0
   57.6198   33.1350   43.6921 H   0  0  0  0  0  0  0  0  0  0  0  0
  1  2  2  0
  2  3  1  0
  3  4  1  0
  4  5  2  0
  5  6  1  0
  6  7  2  0
  7  8  1  0
  7  9  1  0
  9 10  2  0
  2 11  1  0
 11 12  2  0
 12 13  1  0
 13 14  2  0
 14 15  1  0
 15 16  2  0
 16 17  1  0
 17 18  1  0
 18 19  2  0
 18 20  2  0
 18 21  1  0
 21 22  2  0
 22 23  1  0
 23 24  2  0
 24 25  1  0
 24 26  1  0
 26 27  1  0
 26 28  2  0
 10  4  1  0
 16 11  1  0
 28 21  1  0
  5 29  1  0
  6 30  1  0
  9 31  1  0
 10 32  1  0
 12 33  1  0
 13 34  1  0
 14 35  1  0
 15 36  1  0
 22 37  1  0
 23 38  1  0
 28 39  1  0
M  CHG  3   3  -1   8  -1  17  -1
M  END
>  <UniqueID>  (27) 
21

>  <SMILES>  (27) 
O=C([N-]c1ccc([O-])cc1)c1ccccc1[N-]S(=O)(=O)c1ccc(F)c(F)c1

>  <Energy>  (27) 
55.015979307209015

>  <Genealogy>  (27) 
O=C([N-]c1ccc([O-])cc1)c1ccccc1[N-]S(=O)(=O)c1ccc(F)c(F)c1 (protonated)
O=C([N-]c1ccc([O-])cc1)c1ccccc1[N-]S(=O)(=O)c1ccc(F)c(F)c1 (3D coordinates assigned)
O=C([N-]c1ccc([O-])cc1)c1ccccc1[N-]S(=O)(=O)c1ccc(F)c(F)c1 (optimized conformer: 55.015979307209015 kcal/mol)

>  <smiles>  (27) 
O=C(Nc1ccc(O)cc1)c1ccccc1NS(=O)(=O)c1ccc(F)c(F)c1

>  <score_type>  (27) 
oracle

>  <origin>  (27) 
adg

>  <m_score__min__energy>  (27) 
-13.68

>  <m_primary>  (27) 
energy

$$$$
27:0
     RDKit          3D

 44 46  0  0  0  0  0  0  0  0999 V2000
   61.9020   30.8890   47.7800 C   0  0  0  0  0  0  0  0  0  0  0  0
   60.6960   30.0460   47.4900 C   0  0  0  0  0  0  0  0  0  0  0  0
   59.9810   29.4550   48.5420 C   0  0  0  0  0  0  0  0  0  0  0  0
   58.8870   28.6310   48.2720 C   0  0  0  0  0  0  0  0  0  0  0  0
   58.5150   28.3660   46.9510 C   0  0  0  0  0  0  0  0  0  0  0  0
   59.2410   28.9250   45.8860 C   0  0  0  0  0  0  0  0  0  0  0  0
   58.8490   28.6260   44.4610 C   0  0  0  0  0  0  0  0  0  0  0  0
   57.4320   28.2680   44.3460 N   0  0  0  0  0  0  0  0  0  0  0  0
   56.4400   29.6550   43.9940 S   0  0  0  0  0  0  0  0  0  0  0  0
   55.9400   29.6080   42.5750 O   0  0  0  0  0  0  0  0  0  0  0  0
   55.2520   29.6570   44.9160 O   0  0  0  0  0  0  0  0  0  0  0  0
   57.3750   31.1220   44.2690 C   0  0  0  0  0  0  0  0  0  0  0  0
   57.7930   31.8900   43.1760 C   0  0  0  0  0  0  0  0  0  0  0  0
   58.4730   33.0900   43.3810 C   0  0  0  0  0  0  0  0  0  0  0  0
   58.7300   33.5390   44.6780 C   0  0  0  0  0  0  0  0  0  0  0  0
   58.3100   32.7860   45.7900 C   0  0  0  0  0  0  0  0  0  0  0  0
   58.5260   33.2910   47.1650 C   0  0  0  0  0  0  0  0  0  0  0  0
   57.7870   32.8930   48.1050 O   0  0  0  0  0  0  0  0  0  0  0  0
   59.5380   34.2820   47.4130 N   0  0  0  0  0  0  0  0  0  0  0  0
   60.8270   34.1100   47.5080 C   0  0  0  0  0  0  0  0  0  0  0  0
   61.6580   33.9120   46.3840 C   0  0  0  0  0  0  0  0  0  0  0  0
   63.0350   33.7650   46.5660 C   0  0  0  0  0  0  0  0  0  0  0  0
   63.5790   33.8240   47.8480 C   0  0  0  0  0  0  0  0  0  0  0  0
   62.7340   34.0360   48.9370 C   0  0  0  0  0  0  0  0  0  0  0  0
   61.3960   34.1780   48.7430 N   0  0  0  0  0  0  0  0  0  0  0  0
   57.6430   31.5660   45.5720 C   0  0  0  0  0  0  0  0  0  0  0  0
   60.3240   29.7780   46.1640 C   0  0  0  0  0  0  0  0  0  0  0  0
   62.0325   30.9802   48.8684 H   0  0  0  0  0  0  0  0  0  0  0  0
   62.7936   30.4164   47.3421 H   0  0  0  0  0  0  0  0  0  0  0  0
   61.7645   31.8887   47.3421 H   0  0  0  0  0  0  0  0  0  0  0  0
   60.2833   29.6414   49.5831 H   0  0  0  0  0  0  0  0  0  0  0  0
   58.3158   28.1888   49.1016 H   0  0  0  0  0  0  0  0  0  0  0  0
   57.6508   27.7175   46.7445 H   0  0  0  0  0  0  0  0  0  0  0  0
   59.0416   29.5168   43.8451 H   0  0  0  0  0  0  0  0  0  0  0  0
   59.4457   27.7684   44.1167 H   0  0  0  0  0  0  0  0  0  0  0  0
   57.5844   31.5459   42.1522 H   0  0  0  0  0  0  0  0  0  0  0  0
   58.8080   33.6847   42.5184 H   0  0  0  0  0  0  0  0  0  0  0  0
   59.2646   34.4880   44.8315 H   0  0  0  0  0  0  0  0  0  0  0  0
   61.2248   33.8738   45.3736 H   0  0  0  0  0  0  0  0  0  0  0  0
   63.6903   33.6026   45.6975 H   0  0  0  0  0  0  0  0  0  0  0  0
   64.6620   33.7048   47.9990 H   0  0  0  0  0  0  0  0  0  0  0  0
   63.1505   34.0884   49.9538 H   0  0  0  0  0  0  0  0  0  0  0  0
   57.3291   30.9553   46.4313 H   0  0  0  0  0  0  0  0  0  0  0  0
   60.8833   30.2382   45.3361 H   0  0  0  0  0  0  0  0  0  0  0  0
  1  2  1  0
  2  3  2  0
  3  4  1  0
  4  5  2  0
  5  6  1  0
  6  7  1  0
  7  8  1  0
  8  9  1  0
  9 10  2  0
  9 11  2  0
  9 12  1  0
 12 13  2  0
 13 14  1  0
 14 15  2  0
 15 16  1  0
 16 17  1  0
 17 18  2  0
 17 19  1  0
 19 20  2  3
 20 21  1  0
 21 22  2  0
 22 23  1  0
 23 24  2  0
 24 25  1  0
 16 26  2  0
  6 27  2  0
 27  2  1  0
 26 12  1  0
 25 20  1  0
  1 28  1  0
  1 29  1  0
  1 30  1  0
  3 31  1  0
  4 32  1  0
  5 33  1  0
  7 34  1  0
  7 35  1  0
 13 36  1  0
 14 37  1  0
 15 38  1  0
 21 39  1  0
 22 40  1  0
 23 41  1  0
 24 42  1  0
 26 43  1  0
 27 44  1  0
M  CHG  2   8  -1  25  -1
M  END
>  <UniqueID>  (28) 
22

>  <SMILES>  (28) 
Cc1cccc(C[N-]S(=O)(=O)c2cccc(C(=O)N=c3cccc[n-]3)c2)c1

>  <Energy>  (28) 
48.29309789946453

>  <Genealogy>  (28) 
Cc1cccc(C[N-]S(=O)(=O)c2cccc(C(=O)N=c3cccc[n-]3)c2)c1 (protonated)
Cc1cccc(C[N-]S(=O)(=O)c2cccc(C(=O)N=c3cccc[n-]3)c2)c1 (3D coordinates assigned)
Cc1cccc(C[N-]S(=O)(=O)c2cccc(C(=O)N=c3cccc[n-]3)c2)c1 (optimized conformer: 48.29309789946453 kcal/mol)

>  <smiles>  (28) 
Cc1cccc(CNS(=O)(=O)c2cccc(C(=O)N=c3cccc[nH]3)c2)c1

>  <score_type>  (28) 
oracle

>  <origin>  (28) 
adg

>  <m_score__min__energy>  (28) 
-12.789999999999999

>  <m_primary>  (28) 
energy

$$$$
28:0
     RDKit          3D

 40 42  0  0  0  0  0  0  0  0999 V2000
   61.3760   33.8310   50.0810 C   0  0  0  0  0  0  0  0  0  0  0  0
   61.3460   34.0740   48.6790 O   0  0  0  0  0  0  0  0  0  0  0  0
   60.4620   33.4480   47.7870 C   0  0  0  0  0  0  0  0  0  0  0  0
   60.7030   32.1450   47.2690 C   0  0  0  0  0  0  0  0  0  0  0  0
   59.7930   31.5490   46.3760 C   0  0  0  0  0  0  0  0  0  0  0  0
   58.6520   32.2700   46.0240 C   0  0  0  0  0  0  0  0  0  0  0  0
   57.6020   31.9700   45.1700 C   0  0  0  0  0  0  0  0  0  0  0  0
   57.4020   30.7130   44.4140 C   0  0  0  0  0  0  0  0  0  0  0  0
   58.0550   30.5380   43.3510 O   0  0  0  0  0  0  0  0  0  0  0  0
   56.4520   29.6610   44.8520 C   0  0  0  0  0  0  0  0  0  0  0  0
   55.3220   29.5610   44.3090 O   0  0  0  0  0  0  0  0  0  0  0  0
   56.7750   28.7660   45.9250 N   0  0  0  0  0  0  0  0  0  0  0  0
   57.1120   27.3770   45.7900 C   0  0  0  0  0  0  0  0  0  0  0  0
   58.4630   27.0230   45.7220 C   0  0  0  0  0  0  0  0  0  0  0  0
   58.8350   25.6850   45.5920 C   0  0  0  0  0  0  0  0  0  0  0  0
   57.8610   24.6890   45.5330 C   0  0  0  0  0  0  0  0  0  0  0  0
   56.4950   25.0130   45.6180 C   0  0  0  0  0  0  0  0  0  0  0  0
   55.4910   23.9200   45.5410 C   0  0  0  0  0  0  0  0  0  0  0  0
   54.7920   23.3880   46.7550 C   0  0  0  0  0  0  0  0  0  0  0  0
   55.2070   23.4190   44.4190 O   0  0  0  0  0  0  0  0  0  0  0  0
   56.1250   26.3680   45.7870 C   0  0  0  0  0  0  0  0  0  0  0  0
   54.7940   26.7120   46.0020 O   0  0  0  0  0  0  0  0  0  0  0  0
   56.7720   33.0930   45.2000 C   0  0  0  0  0  0  0  0  0  0  0  0
   57.2810   34.0370   46.0220 N   0  0  0  0  0  0  0  0  0  0  0  0
   58.4220   33.5290   46.5150 C   0  0  0  0  0  0  0  0  0  0  0  0
   59.3020   34.1460   47.4000 C   0  0  0  0  0  0  0  0  0  0  0  0
   61.2586   34.7823   50.6206 H   0  0  0  0  0  0  0  0  0  0  0  0
   60.5549   33.1514   50.3530 H   0  0  0  0  0  0  0  0  0  0  0  0
   62.3377   33.3715   50.3530 H   0  0  0  0  0  0  0  0  0  0  0  0
   61.6091   31.5983   47.5693 H   0  0  0  0  0  0  0  0  0  0  0  0
   59.9762   30.5442   45.9677 H   0  0  0  0  0  0  0  0  0  0  0  0
   59.2364   27.8037   45.7713 H   0  0  0  0  0  0  0  0  0  0  0  0
   59.8998   25.4148   45.5359 H   0  0  0  0  0  0  0  0  0  0  0  0
   58.1644   23.6379   45.4187 H   0  0  0  0  0  0  0  0  0  0  0  0
   55.2896   23.7667   47.6600 H   0  0  0  0  0  0  0  0  0  0  0  0
   53.7427   23.7181   46.7481 H   0  0  0  0  0  0  0  0  0  0  0  0
   54.8306   22.2887   46.7481 H   0  0  0  0  0  0  0  0  0  0  0  0
   55.8346   33.1948   44.6334 H   0  0  0  0  0  0  0  0  0  0  0  0
   56.8630   34.9720   46.2330 H   0  0  0  0  0  0  0  0  0  0  0  0
   59.0960   35.1546   47.7876 H   0  0  0  0  0  0  0  0  0  0  0  0
  1  2  1  0
  2  3  1  0
  3  4  2  0
  4  5  1  0
  5  6  2  0
  6  7  1  0
  7  8  1  0
  8  9  2  0
  8 10  1  0
 10 11  2  0
 10 12  1  0
 12 13  1  0
 13 14  2  0
 14 15  1  0
 15 16  2  0
 16 17  1  0
 17 18  1  0
 18 19  1  0
 18 20  2  0
 17 21  2  0
 21 22  1  0
  7 23  2  0
 23 24  1  0
 24 25  1  0
 25 26  2  0
 26  3  1  0
 25  6  1  0
 21 13  1  0
  1 27  1  0
  1 28  1  0
  1 29  1  0
  4 30  1  0
  5 31  1  0
 14 32  1  0
 15 33  1  0
 16 34  1  0
 19 35  1  0
 19 36  1  0
 19 37  1  0
 23 38  1  0
 24 39  1  0
 26 40  1  0
M  CHG  2  12  -1  22  -1
M  END
>  <UniqueID>  (29) 
23

>  <SMILES>  (29) 
COc1ccc2c(C(=O)C(=O)[N-]c3cccc(C(C)=O)c3[O-])c[nH]c2c1

>  <Energy>  (29) 
87.69113030793675

>  <Genealogy>  (29) 
COc1ccc2c(C(=O)C(=O)[N-]c3cccc(C(C)=O)c3[O-])c[nH]c2c1 (protonated)
COc1ccc2c(C(=O)C(=O)[N-]c3cccc(C(C)=O)c3[O-])c[nH]c2c1 (3D coordinates assigned)
COc1ccc2c(C(=O)C(=O)[N-]c3cccc(C(C)=O)c3[O-])c[nH]c2c1 (optimized conformer: 87.69113030793675 kcal/mol)

>  <smiles>  (29) 
COc1ccc2c(C(=O)C(=O)Nc3cccc(C(C)=O)c3O)c[nH]c2c1

>  <score_type>  (29) 
oracle

>  <origin>  (29) 
adg

>  <m_score__min__energy>  (29) 
-13.710000000000001

>  <m_primary>  (29) 
energy

$$$$
29:0
     RDKit          3D

 51 53  0  0  0  0  0  0  0  0999 V2000
   56.0500   22.9250   43.0000 C   0  0  0  0  0  0  0  0  0  0  0  0
   57.0290   21.7620   43.1300 C   0  0  0  0  0  0  0  0  0  0  0  0
   57.3060   21.4790   44.5550 N   0  0  0  0  0  0  0  0  0  0  0  0
   56.2750   22.0520   45.4630 C   0  0  0  0  0  0  0  0  0  0  0  0
   56.7220   23.3380   46.1880 C   0  0  0  0  0  0  0  0  0  0  0  0
   57.6790   24.0860   45.3660 N   0  0  0  0  0  0  0  0  0  0  0  0
   57.5560   25.5050   45.1610 C   0  0  0  0  0  0  0  0  0  0  0  0
   57.0480   26.3420   46.1670 C   0  0  0  0  0  0  0  0  0  0  0  0
   56.9220   27.7110   45.9260 C   0  0  0  0  0  0  0  0  0  0  0  0
   57.2970   28.2490   44.6850 C   0  0  0  0  0  0  0  0  0  0  0  0
   57.1750   29.6990   44.3980 C   0  0  0  0  0  0  0  0  0  0  0  0
   56.1130   30.3020   44.7120 O   0  0  0  0  0  0  0  0  0  0  0  0
   58.2360   30.4210   43.7480 N   0  0  0  0  0  0  0  0  0  0  0  0
   58.1370   31.8460   43.4320 C   0  0  0  0  0  0  0  0  0  0  0  0
   57.3190   32.5950   44.4920 C   0  0  0  0  0  0  0  0  0  0  0  0
   58.2130   33.3180   45.4670 C   0  0  0  0  0  0  0  0  0  0  0  0
   58.4210   32.7970   46.7550 C   0  0  0  0  0  0  0  0  0  0  0  0
   59.2790   33.4480   47.6470 C   0  0  0  0  0  0  0  0  0  0  0  0
   59.9400   34.6170   47.2570 C   0  0  0  0  0  0  0  0  0  0  0  0
   59.7470   35.1340   45.9740 C   0  0  0  0  0  0  0  0  0  0  0  0
   58.8890   34.4870   45.0790 C   0  0  0  0  0  0  0  0  0  0  0  0
   57.7710   27.3720   43.6960 C   0  0  0  0  0  0  0  0  0  0  0  0
   57.8860   26.0430   43.9550 N   0  0  0  0  0  0  0  0  0  0  0  0
   58.8740   23.3900   44.8760 C   0  0  0  0  0  0  0  0  0  0  0  0
   58.6810   21.8650   44.9410 C   0  0  0  0  0  0  0  0  0  0  0  0
   55.7578   23.2721   44.0021 H   0  0  0  0  0  0  0  0  0  0  0  0
   56.5303   23.7491   42.4521 H   0  0  0  0  0  0  0  0  0  0  0  0
   55.1561   22.5923   42.4521 H   0  0  0  0  0  0  0  0  0  0  0  0
   56.5937   20.8674   42.6606 H   0  0  0  0  0  0  0  0  0  0  0  0
   57.9710   22.0305   42.6296 H   0  0  0  0  0  0  0  0  0  0  0  0
   55.3800   22.2842   44.8672 H   0  0  0  0  0  0  0  0  0  0  0  0
   56.0824   21.2987   46.2411 H   0  0  0  0  0  0  0  0  0  0  0  0
   55.8417   23.9684   46.3824 H   0  0  0  0  0  0  0  0  0  0  0  0
   57.2075   23.0613   47.1355 H   0  0  0  0  0  0  0  0  0  0  0  0
   56.7511   25.9216   47.1392 H   0  0  0  0  0  0  0  0  0  0  0  0
   56.5270   28.3713   46.7122 H   0  0  0  0  0  0  0  0  0  0  0  0
   59.0980   29.9200   43.4390 H   0  0  0  0  0  0  0  0  0  0  0  0
   59.1489   32.2753   43.3906 H   0  0  0  0  0  0  0  0  0  0  0  0
   57.6298   31.9527   42.4618 H   0  0  0  0  0  0  0  0  0  0  0  0
   56.6694   33.3277   43.9909 H   0  0  0  0  0  0  0  0  0  0  0  0
   56.7204   31.8602   45.0504 H   0  0  0  0  0  0  0  0  0  0  0  0
   57.9074   31.8742   47.0628 H   0  0  0  0  0  0  0  0  0  0  0  0
   59.4341   33.0400   48.6567 H   0  0  0  0  0  0  0  0  0  0  0  0
   60.6122   35.1295   47.9609 H   0  0  0  0  0  0  0  0  0  0  0  0
   60.2706   36.0514   45.6670 H   0  0  0  0  0  0  0  0  0  0  0  0
   58.7429   34.8947   44.0678 H   0  0  0  0  0  0  0  0  0  0  0  0
   58.0506   27.7628   42.7065 H   0  0  0  0  0  0  0  0  0  0  0  0
   59.0620   23.6859   43.8334 H   0  0  0  0  0  0  0  0  0  0  0  0
   59.7287   23.6654   45.5113 H   0  0  0  0  0  0  0  0  0  0  0  0
   59.3938   21.3843   44.2549 H   0  0  0  0  0  0  0  0  0  0  0  0
   58.8552   21.5374   45.9765 H   0  0  0  0  0  0  0  0  0  0  0  0
  1  2  1  0
  2  3  1  0
  3  4  1  0
  4  5  1  0
  5  6  1  0
  6  7  1  0
  7  8  2  0
  8  9  1  0
  9 10  2  0
 10 11  1  0
 11 12  2  0
 11 13  1  0
 13 14  1  0
 14 15  1  0
 15 16  1  0
 16 17  2  0
 17 18  1  0
 18 19  2  0
 19 20  1  0
 20 21  2  0
 10 22  1  0
 22 23  2  0
  6 24  1  0
 24 25  1  0
 25  3  1  0
 23  7  1  0
 21 16  1  0
  1 26  1  0
  1 27  1  0
  1 28  1  0
  2 29  1  0
  2 30  1  0
  4 31  1  0
  4 32  1  0
  5 33  1  0
  5 34  1  0
  8 35  1  0
  9 36  1  0
 13 37  1  0
 14 38  1  0
 14 39  1  0
 15 40  1  0
 15 41  1  0
 17 42  1  0
 18 43  1  0
 19 44  1  0
 20 45  1  0
 21 46  1  0
 22 47  1  0
 24 48  1  0
 24 49  1  0
 25 50  1  0
 25 51  1  0
M  END
>  <UniqueID>  (30) 
24

>  <SMILES>  (30) 
CCN1CCN(c2ccc(C(=O)NCCc3ccccc3)cn2)CC1

>  <Energy>  (30) 
59.320867337212746

>  <Genealogy>  (30) 
CCN1CCN(c2ccc(C(=O)NCCc3ccccc3)cn2)CC1 (3D coordinates assigned)
CCN1CCN(c2ccc(C(=O)NCCc3ccccc3)cn2)CC1 (nonaromatic ring conformer: 59.320867337212746 kcal/mol)

>  <smiles>  (30) 
CCN1CCN(c2ccc(C(=O)NCCc3ccccc3)cn2)CC1

>  <score_type>  (30) 
oracle

>  <origin>  (30) 
adg

>  <m_score__min__energy>  (30) 
-7.9299999999999997

>  <m_primary>  (30) 
energy

$$$$
30:0
     RDKit          3D

 45 47  0  0  0  0  0  0  0  0999 V2000
   56.5900   22.6150   48.7380 C   0  0  0  0  0  0  0  0  0  0  0  0
   56.1580   22.6910   47.3480 N   0  0  0  0  0  0  0  0  0  0  0  0
   55.5850   23.8540   46.7370 C   0  0  0  0  0  0  0  0  0  0  0  0
   54.3420   23.8850   46.5390 O   0  0  0  0  0  0  0  0  0  0  0  0
   56.4040   25.0250   46.3610 C   0  0  0  0  0  0  0  0  0  0  0  0
   57.8030   24.9290   46.3440 C   0  0  0  0  0  0  0  0  0  0  0  0
   58.5790   26.0260   45.9690 C   0  0  0  0  0  0  0  0  0  0  0  0
   57.9690   27.2280   45.6040 C   0  0  0  0  0  0  0  0  0  0  0  0
   56.5670   27.3410   45.6100 C   0  0  0  0  0  0  0  0  0  0  0  0
   55.9050   28.5610   45.2530 N   0  0  0  0  0  0  0  0  0  0  0  0
   56.6430   29.9270   44.4800 S   0  0  0  0  0  0  0  0  0  0  0  0
   57.4390   29.4570   43.2940 O   0  0  0  0  0  0  0  0  0  0  0  0
   55.5810   30.8970   44.0430 O   0  0  0  0  0  0  0  0  0  0  0  0
   57.7340   30.7220   45.6100 C   0  0  0  0  0  0  0  0  0  0  0  0
   58.2180   30.0220   46.7210 C   0  0  0  0  0  0  0  0  0  0  0  0
   59.0460   30.6600   47.6470 C   0  0  0  0  0  0  0  0  0  0  0  0
   59.3820   32.0060   47.4760 C   0  0  0  0  0  0  0  0  0  0  0  0
   58.8990   32.7260   46.3710 C   0  0  0  0  0  0  0  0  0  0  0  0
   59.2350   34.1630   46.2110 C   0  0  0  0  0  0  0  0  0  0  0  0
   58.5440   34.8760   45.4350 O   0  0  0  0  0  0  0  0  0  0  0  0
   60.2970   34.7880   46.9510 N   0  0  0  0  0  0  0  0  0  0  0  0
   61.5290   34.1700   47.3600 C   0  0  0  0  0  0  0  0  0  0  0  0
   62.5180   33.8060   46.4260 C   0  0  0  0  0  0  0  0  0  0  0  0
   63.7010   33.1930   46.8540 C   0  0  0  0  0  0  0  0  0  0  0  0
   63.9140   32.9600   48.2160 C   0  0  0  0  0  0  0  0  0  0  0  0
   62.9520   33.3490   49.1510 C   0  0  0  0  0  0  0  0  0  0  0  0
   61.7640   33.9570   48.7250 C   0  0  0  0  0  0  0  0  0  0  0  0
   60.8330   34.3220   49.6430 F   0  0  0  0  0  0  0  0  0  0  0  0
   58.0990   32.0620   45.4220 C   0  0  0  0  0  0  0  0  0  0  0  0
   55.7880   26.2340   45.9780 C   0  0  0  0  0  0  0  0  0  0  0  0
   54.4010   26.3390   45.9750 O   0  0  0  0  0  0  0  0  0  0  0  0
   55.7246   22.7672   49.3998 H   0  0  0  0  0  0  0  0  0  0  0  0
   57.0301   21.6256   48.9316 H   0  0  0  0  0  0  0  0  0  0  0  0
   57.3413   23.3948   48.9316 H   0  0  0  0  0  0  0  0  0  0  0  0
   58.2906   23.9846   46.6276 H   0  0  0  0  0  0  0  0  0  0  0  0
   59.6759   25.9438   45.9608 H   0  0  0  0  0  0  0  0  0  0  0  0
   58.5871   28.0894   45.3108 H   0  0  0  0  0  0  0  0  0  0  0  0
   57.9454   28.9661   46.8653 H   0  0  0  0  0  0  0  0  0  0  0  0
   59.4343   30.1026   48.5121 H   0  0  0  0  0  0  0  0  0  0  0  0
   60.0294   32.5050   48.2122 H   0  0  0  0  0  0  0  0  0  0  0  0
   62.3600   34.0043   45.3556 H   0  0  0  0  0  0  0  0  0  0  0  0
   64.4631   32.8946   46.1190 H   0  0  0  0  0  0  0  0  0  0  0  0
   64.8399   32.4700   48.5515 H   0  0  0  0  0  0  0  0  0  0  0  0
   63.1275   33.1777   50.2233 H   0  0  0  0  0  0  0  0  0  0  0  0
   57.7574   32.5995   44.5251 H   0  0  0  0  0  0  0  0  0  0  0  0
  1  2  1  0
  2  3  1  0
  3  4  2  0
  3  5  1  0
  5  6  2  0
  6  7  1  0
  7  8  2  0
  8  9  1  0
  9 10  1  0
 10 11  1  0
 11 12  2  0
 11 13  2  0
 11 14  1  0
 14 15  2  0
 15 16  1  0
 16 17  2  0
 17 18  1  0
 18 19  1  0
 19 20  2  0
 19 21  1  0
 21 22  1  0
 22 23  2  0
 23 24  1  0
 24 25  2  0
 25 26  1  0
 26 27  2  0
 27 28  1  0
 18 29  2  0
  9 30  2  0
 30 31  1  0
 30  5  1  0
 29 14  1  0
 27 22  1  0
  1 32  1  0
  1 33  1  0
  1 34  1  0
  6 35  1  0
  7 36  1  0
  8 37  1  0
 15 38  1  0
 16 39  1  0
 17 40  1  0
 23 41  1  0
 24 42  1  0
 25 43  1  0
 26 44  1  0
 29 45  1  0
M  CHG  4   2  -1  10  -1  21  -1  31  -1
M  END
>  <UniqueID>  (31) 
25

>  <SMILES>  (31) 
C[N-]C(=O)c1cccc([N-]S(=O)(=O)c2cccc(C(=O)[N-]c3ccccc3F)c2)c1[O-]

>  <Energy>  (31) 
62.09040901259743

>  <Genealogy>  (31) 
C[N-]C(=O)c1cccc([N-]S(=O)(=O)c2cccc(C(=O)[N-]c3ccccc3F)c2)c1[O-] (protonated)
C[N-]C(=O)c1cccc([N-]S(=O)(=O)c2cccc(C(=O)[N-]c3ccccc3F)c2)c1[O-] (3D coordinates assigned)
C[N-]C(=O)c1cccc([N-]S(=O)(=O)c2cccc(C(=O)[N-]c3ccccc3F)c2)c1[O-] (optimized conformer: 62.09040901259743 kcal/mol)

>  <smiles>  (31) 
CNC(=O)c1cccc(NS(=O)(=O)c2cccc(C(=O)Nc3ccccc3F)c2)c1O

>  <score_type>  (31) 
oracle

>  <origin>  (31) 
adg

>  <m_score__min__energy>  (31) 
-17.859999999999999

>  <m_primary>  (31) 
energy

$$$$
31:0
     RDKit          3D

 49 52  0  0  0  0  0  0  0  0999 V2000
   55.2230   29.6130   44.8860 O   0  0  0  0  0  0  0  0  0  0  0  0
   56.3930   29.6600   44.4240 C   0  0  0  0  0  0  0  0  0  0  0  0
   56.9950   31.0000   44.1040 C   0  0  0  0  0  0  0  0  0  0  0  0
   57.7340   31.5000   45.2620 N   0  0  0  0  0  0  0  0  0  0  0  0
   58.0680   30.7810   46.3600 C   0  0  0  0  0  0  0  0  0  0  0  0
   58.8340   31.5560   47.2210 C   0  0  0  0  0  0  0  0  0  0  0  0
   59.5320   31.0430   48.7480 S   0  0  0  0  0  0  0  0  0  0  0  0
   58.6520   29.9960   49.3710 O   0  0  0  0  0  0  0  0  0  0  0  0
   59.6230   32.2220   49.6750 O   0  0  0  0  0  0  0  0  0  0  0  0
   61.1540   30.3610   48.4510 C   0  0  0  0  0  0  0  0  0  0  0  0
   62.1750   31.4590   48.3550 C   0  0  0  0  0  0  0  0  0  0  0  0
   63.0060   31.7510   49.4500 C   0  0  0  0  0  0  0  0  0  0  0  0
   63.9770   32.7510   49.3490 C   0  0  0  0  0  0  0  0  0  0  0  0
   64.1320   33.4590   48.1550 C   0  0  0  0  0  0  0  0  0  0  0  0
   63.3170   33.1670   47.0570 C   0  0  0  0  0  0  0  0  0  0  0  0
   63.4730   33.8510   45.8970 F   0  0  0  0  0  0  0  0  0  0  0  0
   62.3440   32.1670   47.1540 C   0  0  0  0  0  0  0  0  0  0  0  0
   58.9790   32.7840   46.6080 C   0  0  0  0  0  0  0  0  0  0  0  0
   59.6690   33.9300   47.0000 C   0  0  0  0  0  0  0  0  0  0  0  0
   59.6510   35.0370   46.1320 C   0  0  0  0  0  0  0  0  0  0  0  0
   58.9560   34.9720   44.9040 C   0  0  0  0  0  0  0  0  0  0  0  0
   58.2710   33.8000   44.5330 C   0  0  0  0  0  0  0  0  0  0  0  0
   58.3010   32.7160   45.4160 C   0  0  0  0  0  0  0  0  0  0  0  0
   57.1510   28.4460   44.3340 N   0  0  0  0  0  0  0  0  0  0  0  0
   58.0880   27.9610   45.3030 C   0  0  0  0  0  0  0  0  0  0  0  0
   57.6620   27.3560   46.4970 C   0  0  0  0  0  0  0  0  0  0  0  0
   58.5990   26.9180   47.4370 C   0  0  0  0  0  0  0  0  0  0  0  0
   59.9660   27.0960   47.2040 C   0  0  0  0  0  0  0  0  0  0  0  0
   60.8890   26.6530   48.1470 O   0  0  0  0  0  0  0  0  0  0  0  0
   60.3940   27.7240   46.0260 C   0  0  0  0  0  0  0  0  0  0  0  0
   59.4560   28.1630   45.0850 C   0  0  0  0  0  0  0  0  0  0  0  0
   57.6804   30.8978   43.2497 H   0  0  0  0  0  0  0  0  0  0  0  0
   56.1919   31.7082   43.8522 H   0  0  0  0  0  0  0  0  0  0  0  0
   57.7755   29.7365   46.5430 H   0  0  0  0  0  0  0  0  0  0  0  0
   61.4217   29.6888   49.2795 H   0  0  0  0  0  0  0  0  0  0  0  0
   61.1385   29.8046   47.5022 H   0  0  0  0  0  0  0  0  0  0  0  0
   62.8918   31.1906   50.3897 H   0  0  0  0  0  0  0  0  0  0  0  0
   64.6202   32.9809   50.2112 H   0  0  0  0  0  0  0  0  0  0  0  0
   64.8958   34.2469   48.0784 H   0  0  0  0  0  0  0  0  0  0  0  0
   61.7089   31.9343   46.2865 H   0  0  0  0  0  0  0  0  0  0  0  0
   60.2100   33.9676   47.9570 H   0  0  0  0  0  0  0  0  0  0  0  0
   60.1816   35.9592   46.4114 H   0  0  0  0  0  0  0  0  0  0  0  0
   58.9502   35.8436   44.2330 H   0  0  0  0  0  0  0  0  0  0  0  0
   57.7287   33.7385   43.5779 H   0  0  0  0  0  0  0  0  0  0  0  0
   56.5873   27.2265   46.6929 H   0  0  0  0  0  0  0  0  0  0  0  0
   58.2597   26.4315   48.3634 H   0  0  0  0  0  0  0  0  0  0  0  0
   60.9810   27.1040   49.0510 H   0  0  0  0  0  0  0  0  0  0  0  0
   61.4682   27.8718   45.8412 H   0  0  0  0  0  0  0  0  0  0  0  0
   59.7953   28.6694   44.1693 H   0  0  0  0  0  0  0  0  0  0  0  0
  1  2  2  0
  2  3  1  0
  3  4  1  0
  4  5  1  0
  5  6  2  0
  6  7  1  0
  7  8  2  0
  7  9  2  0
  7 10  1  0
 10 11  1  0
 11 12  2  0
 12 13  1  0
 13 14  2  0
 14 15  1  0
 15 16  1  0
 15 17  2  0
  6 18  1  0
 18 19  2  0
 19 20  1  0
 20 21  2  0
 21 22  1  0
 22 23  2  0
  2 24  1  0
 24 25  1  0
 25 26  2  0
 26 27  1  0
 27 28  2  0
 28 29  1  0
 28 30  1  0
 30 31  2  0
 23  4  1  0
 31 25  1  0
 17 11  1  0
 23 18  1  0
  3 32  1  0
  3 33  1  0
  5 34  1  0
 10 35  1  0
 10 36  1  0
 12 37  1  0
 13 38  1  0
 14 39  1  0
 17 40  1  0
 19 41  1  0
 20 42  1  0
 21 43  1  0
 22 44  1  0
 26 45  1  0
 27 46  1  0
 29 47  1  0
 30 48  1  0
 31 49  1  0
M  CHG  1  24  -1
M  END
>  <UniqueID>  (32) 
26

>  <SMILES>  (32) 
O=C(Cn1cc(S(=O)(=O)Cc2cccc(F)c2)c2ccccc21)[N-]c1ccc(O)cc1

>  <Energy>  (32) 
86.6048430320984

>  <Genealogy>  (32) 
O=C(Cn1cc(S(=O)(=O)Cc2cccc(F)c2)c2ccccc21)[N-]c1ccc(O)cc1 (protonated)
O=C(Cn1cc(S(=O)(=O)Cc2cccc(F)c2)c2ccccc21)[N-]c1ccc(O)cc1 (3D coordinates assigned)
O=C(Cn1cc(S(=O)(=O)Cc2cccc(F)c2)c2ccccc21)[N-]c1ccc(O)cc1 (optimized conformer: 86.6048430320984 kcal/mol)

>  <smiles>  (32) 
O=C(Cn1cc(S(=O)(=O)Cc2cccc(F)c2)c2ccccc21)Nc1ccc(O)cc1

>  <score_type>  (32) 
oracle

>  <origin>  (32) 
adg

>  <m_score__min__energy>  (32) 
-11.029999999999999

>  <m_primary>  (32) 
energy

$$$$
32:0
     RDKit          3D

 29 30  0  0  0  0  0  0  0  0999 V2000
   56.9344   23.9429   45.8376 H   0  0  0  0  0  0  0  0  0  0  0  0
   56.8580   25.0340   45.7210 C   0  0  0  0  0  0  0  0  0  0  0  0
   58.0790   26.0590   45.1770 S   0  0  0  0  0  0  0  0  0  0  0  0
   57.1270   27.4460   45.3180 C   0  0  0  0  0  0  0  0  0  0  0  0
   57.4800   28.6660   45.0340 N   0  0  0  0  0  0  0  0  0  0  0  0
   56.6340   29.8220   44.9290 C   0  0  0  0  0  0  0  0  0  0  0  0
   55.3810   29.7090   44.8630 O   0  0  0  0  0  0  0  0  0  0  0  0
   57.2090   31.1300   44.8310 N   0  0  0  0  0  0  0  0  0  0  0  0
   58.3860   31.5920   45.5140 C   0  0  0  0  0  0  0  0  0  0  0  0
   59.0990   30.7430   46.3810 C   0  0  0  0  0  0  0  0  0  0  0  0
   58.7730   29.7012   46.5161 H   0  0  0  0  0  0  0  0  0  0  0  0
   60.2180   31.2150   47.0710 C   0  0  0  0  0  0  0  0  0  0  0  0
   60.7782   30.5398   47.7345 H   0  0  0  0  0  0  0  0  0  0  0  0
   60.6270   32.5400   46.9210 C   0  0  0  0  0  0  0  0  0  0  0  0
   62.0250   33.1310   47.8010 Cl  0  0  0  0  0  0  0  0  0  0  0  0
   59.9120   33.4010   46.0850 C   0  0  0  0  0  0  0  0  0  0  0  0
   60.2276   34.4498   45.9830 H   0  0  0  0  0  0  0  0  0  0  0  0
   58.7920   32.9370   45.3730 C   0  0  0  0  0  0  0  0  0  0  0  0
   58.0220   33.9010   44.5030 C   0  0  0  0  0  0  0  0  0  0  0  0
   57.7565   33.4020   43.5593 H   0  0  0  0  0  0  0  0  0  0  0  0
   58.6532   34.7803   44.3067 H   0  0  0  0  0  0  0  0  0  0  0  0
   56.7460   34.3610   45.2020 C   0  0  0  0  0  0  0  0  0  0  0  0
   56.8863   34.3104   46.2918 H   0  0  0  0  0  0  0  0  0  0  0  0
   56.5205   35.3970   44.9090 H   0  0  0  0  0  0  0  0  0  0  0  0
   55.9113   33.7072   44.9090 H   0  0  0  0  0  0  0  0  0  0  0  0
   55.8930   27.1400   45.7700 N   0  0  0  0  0  0  0  0  0  0  0  0
   55.1380   27.8440   45.9310 H   0  0  0  0  0  0  0  0  0  0  0  0
   55.7360   25.8090   45.9970 C   0  0  0  0  0  0  0  0  0  0  0  0
   54.7951   25.3782   46.3699 H   0  0  0  0  0  0  0  0  0  0  0  0
  1  2  1  0
  2  3  1  0
  3  4  1  0
  4  5  2  0
  5  6  1  0
  6  7  2  0
  6  8  1  0
  8  9  1  0
  9 10  2  0
 10 11  1  0
 10 12  1  0
 12 13  1  0
 12 14  2  0
 14 15  1  0
 14 16  1  0
 16 17  1  0
 16 18  2  0
 18 19  1  0
 19 20  1  0
 19 21  1  0
 19 22  1  0
 22 23  1  0
 22 24  1  0
 22 25  1  0
  4 26  1  0
 26 27  1  0
 26 28  1  0
 28 29  1  0
 28  2  2  0
 18  9  1  0
M  CHG  1   8  -1
M  END
>  <UniqueID>  (33) 
27

>  <SMILES>  (33) 
CCc1cc(Cl)ccc1[N-]C(=O)/N=c1/[nH]ccs1

>  <Energy>  (33) 
63.236499207562986

>  <Genealogy>  (33) 
CCc1cc(Cl)ccc1[N-]C(=O)N=c1[nH]ccs1 (protonated)
CCc1cc(Cl)ccc1[N-]C(=O)/N=c1/[nH]ccs1 (cis-trans isomerization)
CCc1cc(Cl)ccc1[N-]C(=O)/N=c1/[nH]ccs1 (3D coordinates assigned)
CCc1cc(Cl)ccc1[N-]C(=O)/N=c1/[nH]ccs1 (optimized conformer: 63.236499207562986 kcal/mol)

>  <smiles>  (33) 
CCc1cc(Cl)ccc1NC(=O)N=c1[nH]ccs1

>  <score_type>  (33) 
oracle

>  <origin>  (33) 
adg

>  <m_score__min__energy>  (33) 
-8.4700000000000006

>  <m_primary>  (33) 
energy

$$$$
33:0
     RDKit          3D

 42 44  0  0  0  0  0  0  0  0999 V2000
   60.4190   33.2540   50.8550 H   0  0  0  0  0  0  0  0  0  0  0  0
   61.4260   33.1720   50.9270 O   0  0  0  0  0  0  0  0  0  0  0  0
   62.2550   33.3200   49.8160 C   0  0  0  0  0  0  0  0  0  0  0  0
   63.6210   33.0160   49.9230 C   0  0  0  0  0  0  0  0  0  0  0  0
   64.0386   32.7062   50.8924 H   0  0  0  0  0  0  0  0  0  0  0  0
   64.4530   33.1050   48.8040 C   0  0  0  0  0  0  0  0  0  0  0  0
   65.5239   32.8707   48.8951 H   0  0  0  0  0  0  0  0  0  0  0  0
   63.9260   33.4910   47.5710 C   0  0  0  0  0  0  0  0  0  0  0  0
   64.5795   33.5498   46.6881 H   0  0  0  0  0  0  0  0  0  0  0  0
   62.5680   33.8030   47.4570 C   0  0  0  0  0  0  0  0  0  0  0  0
   62.1547   34.0938   46.4800 H   0  0  0  0  0  0  0  0  0  0  0  0
   61.7300   33.7480   48.5780 C   0  0  0  0  0  0  0  0  0  0  0  0
   60.3440   34.0870   48.4140 N   0  0  0  0  0  0  0  0  0  0  0  0
   59.2480   33.1640   48.3850 C   0  0  0  0  0  0  0  0  0  0  0  0
   58.9280   32.5720   49.4500 O   0  0  0  0  0  0  0  0  0  0  0  0
   58.5090   32.8600   47.1410 C   0  0  0  0  0  0  0  0  0  0  0  0
   58.3470   31.2640   46.6150 S   0  0  0  0  0  0  0  0  0  0  0  0
   57.4440   31.1820   45.1830 C   0  0  0  0  0  0  0  0  0  0  0  0
   57.1640   30.0580   44.5930 N   0  0  0  0  0  0  0  0  0  0  0  0
   56.2080   29.0530   45.0610 C   0  0  0  0  0  0  0  0  0  0  0  0
   55.5581   28.7562   44.2246 H   0  0  0  0  0  0  0  0  0  0  0  0
   55.6093   29.4875   45.8751 H   0  0  0  0  0  0  0  0  0  0  0  0
   56.9270   27.8340   45.5860 C   0  0  0  0  0  0  0  0  0  0  0  0
   58.3310   27.8140   45.6350 C   0  0  0  0  0  0  0  0  0  0  0  0
   58.9039   28.6825   45.2777 H   0  0  0  0  0  0  0  0  0  0  0  0
   59.0020   26.6970   46.1350 C   0  0  0  0  0  0  0  0  0  0  0  0
   60.1013   26.6900   46.1729 H   0  0  0  0  0  0  0  0  0  0  0  0
   58.2840   25.5890   46.5870 C   0  0  0  0  0  0  0  0  0  0  0  0
   58.8197   24.7134   46.9825 H   0  0  0  0  0  0  0  0  0  0  0  0
   56.8770   25.5870   46.5390 C   0  0  0  0  0  0  0  0  0  0  0  0
   56.1150   24.4930   46.9790 O   0  0  0  0  0  0  0  0  0  0  0  0
   55.2340   23.7400   46.1520 C   0  0  0  0  0  0  0  0  0  0  0  0
   54.5492   23.1547   46.7832 H   0  0  0  0  0  0  0  0  0  0  0  0
   54.6525   24.4245   45.5169 H   0  0  0  0  0  0  0  0  0  0  0  0
   55.8196   23.0590   45.5169 H   0  0  0  0  0  0  0  0  0  0  0  0
   56.2050   26.7110   46.0350 C   0  0  0  0  0  0  0  0  0  0  0  0
   54.8140   26.7080   45.9840 O   0  0  0  0  0  0  0  0  0  0  0  0
   57.0010   32.3460   44.6470 N   0  0  0  0  0  0  0  0  0  0  0  0
   57.2100   33.5990   45.1560 C   0  0  0  0  0  0  0  0  0  0  0  0
   56.7330   34.5820   44.5290 O   0  0  0  0  0  0  0  0  0  0  0  0
   57.9300   33.8560   46.3450 C   0  0  0  0  0  0  0  0  0  0  0  0
   58.0423   34.9025   46.6646 H   0  0  0  0  0  0  0  0  0  0  0  0
  1  2  1  0
  2  3  1  0
  3  4  2  0
  4  5  1  0
  4  6  1  0
  6  7  1  0
  6  8  2  0
  8  9  1  0
  8 10  1  0
 10 11  1  0
 10 12  2  0
 12 13  1  0
 13 14  1  0
 14 15  2  0
 14 16  1  0
 16 17  1  0
 17 18  1  0
 18 19  2  0
 19 20  1  0
 20 21  1  0
 20 22  1  0
 20 23  1  0
 23 24  2  0
 24 25  1  0
 24 26  1  0
 26 27  1  0
 26 28  2  0
 28 29  1  0
 28 30  1  0
 30 31  1  0
 31 32  1  0
 32 33  1  0
 32 34  1  0
 32 35  1  0
 30 36  2  0
 36 37  1  0
 18 38  1  0
 38 39  1  0
 39 40  2  0
 39 41  1  0
 41 42  1  0
 12  3  1  0
 41 16  2  0
 36 23  1  0
M  CHG  3  13  -1  37  -1  38  -1
M  END
>  <UniqueID>  (34) 
28

>  <SMILES>  (34) 
COc1cccc(C/N=c2/[n-]c(=O)cc(C(=O)[N-]c3ccccc3O)s2)c1[O-]

>  <Energy>  (34) 
56.11878578711547

>  <Genealogy>  (34) 
COc1cccc(CN=c2[n-]c(=O)cc(C(=O)[N-]c3ccccc3O)s2)c1[O-] (protonated)
COc1cccc(C/N=c2/[n-]c(=O)cc(C(=O)[N-]c3ccccc3O)s2)c1[O-] (cis-trans isomerization)
COc1cccc(C/N=c2/[n-]c(=O)cc(C(=O)[N-]c3ccccc3O)s2)c1[O-] (3D coordinates assigned)
COc1cccc(C/N=c2/[n-]c(=O)cc(C(=O)[N-]c3ccccc3O)s2)c1[O-] (optimized conformer: 56.11878578711547 kcal/mol)

>  <smiles>  (34) 
COc1cccc(CN=c2[nH]c(=O)cc(C(=O)Nc3ccccc3O)s2)c1O

>  <score_type>  (34) 
oracle

>  <origin>  (34) 
adg

>  <m_score__min__energy>  (34) 
-13.859999999999999

>  <m_primary>  (34) 
energy

$$$$
34:0
     RDKit          3D

 46 50  0  0  0  0  0  0  0  0999 V2000
   54.4190   29.4420   44.7170 H   0  0  0  0  0  0  0  0  0  0  0  0
   55.3910   29.1380   44.4880 N   0  0  0  0  0  0  0  0  0  0  0  0
   56.1610   29.8270   43.5030 C   0  0  0  0  0  0  0  0  0  0  0  0
   56.1860   29.3830   42.3240 O   0  0  0  0  0  0  0  0  0  0  0  0
   56.9170   31.0520   43.8580 C   0  0  0  0  0  0  0  0  0  0  0  0
   57.5620   31.8050   42.8620 C   0  0  0  0  0  0  0  0  0  0  0  0
   57.5017   31.4867   41.8108 H   0  0  0  0  0  0  0  0  0  0  0  0
   58.2790   32.9550   43.1990 C   0  0  0  0  0  0  0  0  0  0  0  0
   58.7880   33.5325   42.4132 H   0  0  0  0  0  0  0  0  0  0  0  0
   58.3530   33.3750   44.5270 C   0  0  0  0  0  0  0  0  0  0  0  0
   58.9344   34.2722   44.7859 H   0  0  0  0  0  0  0  0  0  0  0  0
   57.6880   32.6570   45.5360 C   0  0  0  0  0  0  0  0  0  0  0  0
   57.7790   33.0540   46.9930 C   0  0  0  0  0  0  0  0  0  0  0  0
   58.2898   34.0258   47.0613 H   0  0  0  0  0  0  0  0  0  0  0  0
   56.7534   33.1037   47.3876 H   0  0  0  0  0  0  0  0  0  0  0  0
   58.5130   32.0840   47.7980 N   0  0  0  0  0  0  0  0  0  0  0  0
   59.6320   31.4570   47.5610 C   0  0  0  0  0  0  0  0  0  0  0  0
   60.8200   32.1000   47.6680 N   0  0  0  0  0  0  0  0  0  0  0  0
   61.6860   31.2030   47.1480 C   0  0  0  0  0  0  0  0  0  0  0  0
   62.9480   31.4240   46.8980 N   0  0  0  0  0  0  0  0  0  0  0  0
   63.7890   32.6190   47.0890 C   0  0  0  0  0  0  0  0  0  0  0  0
   64.7228   32.0398   47.1400 H   0  0  0  0  0  0  0  0  0  0  0  0
   63.1930   33.7630   47.8940 C   0  0  0  0  0  0  0  0  0  0  0  0
   62.1915   33.6612   48.3375 H   0  0  0  0  0  0  0  0  0  0  0  0
   63.5160   34.3563   48.7621 H   0  0  0  0  0  0  0  0  0  0  0  0
   63.3500   33.8870   46.3780 C   0  0  0  0  0  0  0  0  0  0  0  0
   62.4613   33.8751   45.7298 H   0  0  0  0  0  0  0  0  0  0  0  0
   63.8330   34.6075   45.7015 H   0  0  0  0  0  0  0  0  0  0  0  0
   61.0580   30.0750   46.7900 N   0  0  0  0  0  0  0  0  0  0  0  0
   59.7840   30.1920   47.0750 N   0  0  0  0  0  0  0  0  0  0  0  0
   59.0870   29.4010   46.1110 C   0  0  0  0  0  0  0  0  0  0  0  0
   57.9460   28.7470   46.3550 C   0  0  0  0  0  0  0  0  0  0  0  0
   57.0497   29.3421   46.5842 H   0  0  0  0  0  0  0  0  0  0  0  0
   57.8140   27.2770   46.3360 C   0  0  0  0  0  0  0  0  0  0  0  0
   58.8440   26.4140   46.4210 N   0  0  0  0  0  0  0  0  0  0  0  0
   58.2570   25.2070   46.2880 C   0  0  0  0  0  0  0  0  0  0  0  0
   58.9060   24.1290   46.3200 O   0  0  0  0  0  0  0  0  0  0  0  0
   56.9190   25.2450   46.1130 N   0  0  0  0  0  0  0  0  0  0  0  0
   56.6510   26.5600   46.1400 C   0  0  0  0  0  0  0  0  0  0  0  0
   55.3670   27.0790   45.9930 O   0  0  0  0  0  0  0  0  0  0  0  0
   55.1470   27.7680   45.2860 H   0  0  0  0  0  0  0  0  0  0  0  0
   60.1470   28.9160   45.2050 C   0  0  0  0  0  0  0  0  0  0  0  0
   59.9841   28.3053   44.3047 H   0  0  0  0  0  0  0  0  0  0  0  0
   61.3010   29.3230   45.6370 N   0  0  0  0  0  0  0  0  0  0  0  0
   57.0000   31.4790   45.1970 C   0  0  0  0  0  0  0  0  0  0  0  0
   56.5205   30.8834   45.9878 H   0  0  0  0  0  0  0  0  0  0  0  0
  1  2  1  0
  2  3  1  0
  3  4  2  0
  3  5  1  0
  5  6  2  0
  6  7  1  0
  6  8  1  0
  8  9  1  0
  8 10  2  0
 10 11  1  0
 10 12  1  0
 12 13  1  0
 13 14  1  0
 13 15  1  0
 13 16  1  0
 16 17  2  3
 17 18  1  0
 18 19  1  0
 19 20  2  3
 20 21  1  0
 21 22  1  0
 21 23  1  0
 23 24  1  0
 23 25  1  0
 23 26  1  0
 26 27  1  0
 26 28  1  0
 19 29  1  0
 29 30  1  0
 30 31  1  0
 31 32  2  0
 32 33  1  0
 32 34  1  0
 34 35  1  0
 35 36  1  0
 36 37  2  0
 36 38  1  0
 38 39  1  0
 39 40  1  0
 40 41  1  0
 31 42  1  0
 42 43  1  0
 42 44  2  0
 12 45  2  0
 45 46  1  0
 45  5  1  0
 30 17  1  0
 39 34  2  0
 26 21  1  0
 44 29  1  0
M  CHG  4   2  -1  18  -1  35  -1  38  -1
M  END
>  <UniqueID>  (35) 
29

>  <SMILES>  (35) 
[NH-]C(=O)c1cccc(CN=c2[n-]c(=NC3CC3)n3n2/C(=C/c2[n-]c(=O)[n-]c2O)C=N3)c1

>  <Energy>  (35) 
460.76050146510596

>  <Genealogy>  (35) 
[NH-]C(=O)c1cccc(CN=c2[n-]c(=NC3CC3)n3n2C(=Cc2[n-]c(=O)[n-]c2O)C=N3)c1 (protonated)
[NH-]C(=O)c1cccc(CN=c2[n-]c(=NC3CC3)n3n2/C(=C/c2[n-]c(=O)[n-]c2O)C=N3)c1 (cis-trans isomerization)
[NH-]C(=O)c1cccc(CN=c2[n-]c(=NC3CC3)n3n2/C(=C/c2[n-]c(=O)[n-]c2O)C=N3)c1 (3D coordinates assigned)
[NH-]C(=O)c1cccc(CN=c2[n-]c(=NC3CC3)n3n2/C(=C/c2[n-]c(=O)[n-]c2O)C=N3)c1 (nonaromatic ring conformer: 460.76050146510596 kcal/mol)

>  <smiles>  (35) 
NC(=O)c1cccc(CN=c2[nH]c(=NC3CC3)n3n2C(=Cc2[nH]c(=O)[nH]c2O)C=N3)c1

>  <score_type>  (35) 
oracle

>  <origin>  (35) 
adg

>  <m_score__min__energy>  (35) 
-15.74

>  <m_primary>  (35) 
energy

$$$$
35:0
     RDKit          3D

 43 45  0  0  0  0  0  0  0  0999 V2000
   62.9600   32.7780   46.7460 O   0  0  0  0  0  0  0  0  0  0  0  0
   61.9320   33.2220   47.3270 C   0  0  0  0  0  0  0  0  0  0  0  0
   61.0510   34.2100   46.6220 C   0  0  0  0  0  0  0  0  0  0  0  0
   59.7590   33.5540   46.2180 C   0  0  0  0  0  0  0  0  0  0  0  0
   59.2890   32.4260   46.9090 C   0  0  0  0  0  0  0  0  0  0  0  0
   58.1370   31.7630   46.4780 C   0  0  0  0  0  0  0  0  0  0  0  0
   57.4430   32.2130   45.3420 C   0  0  0  0  0  0  0  0  0  0  0  0
   56.2900   31.5290   44.8330 N   0  0  0  0  0  0  0  0  0  0  0  0
   56.3170   29.9800   44.0540 S   0  0  0  0  0  0  0  0  0  0  0  0
   54.9590   29.3470   44.1790 O   0  0  0  0  0  0  0  0  0  0  0  0
   56.6410   30.1670   42.6000 O   0  0  0  0  0  0  0  0  0  0  0  0
   57.5500   28.9570   44.7860 C   0  0  0  0  0  0  0  0  0  0  0  0
   58.9070   29.1970   44.5250 C   0  0  0  0  0  0  0  0  0  0  0  0
   59.8890   28.4000   45.1230 C   0  0  0  0  0  0  0  0  0  0  0  0
   59.5200   27.3580   45.9800 C   0  0  0  0  0  0  0  0  0  0  0  0
   60.7480   26.3570   46.7300 Cl  0  0  0  0  0  0  0  0  0  0  0  0
   58.1660   27.1120   46.2370 C   0  0  0  0  0  0  0  0  0  0  0  0
   57.1840   27.9080   45.6410 C   0  0  0  0  0  0  0  0  0  0  0  0
   57.9000   33.3520   44.6660 C   0  0  0  0  0  0  0  0  0  0  0  0
   59.0520   34.0160   45.0960 C   0  0  0  0  0  0  0  0  0  0  0  0
   61.5980   32.7740   48.6470 N   0  0  0  0  0  0  0  0  0  0  0  0
   62.3510   31.7090   49.3070 C   0  0  0  0  0  0  0  0  0  0  0  0
   61.5130   30.4760   49.4340 C   0  0  0  0  0  0  0  0  0  0  0  0
   60.7040   29.9480   48.4480 C   0  0  0  0  0  0  0  0  0  0  0  0
   60.1100   28.8390   49.0120 C   0  0  0  0  0  0  0  0  0  0  0  0
   60.5860   28.7660   50.3060 C   0  0  0  0  0  0  0  0  0  0  0  0
   61.4180   29.7580   50.5280 O   0  0  0  0  0  0  0  0  0  0  0  0
   60.8362   35.0520   47.2964 H   0  0  0  0  0  0  0  0  0  0  0  0
   61.5670   34.5741   45.7214 H   0  0  0  0  0  0  0  0  0  0  0  0
   59.8306   32.0621   47.7946 H   0  0  0  0  0  0  0  0  0  0  0  0
   57.7717   30.8848   47.0305 H   0  0  0  0  0  0  0  0  0  0  0  0
   59.1998   30.0136   43.8487 H   0  0  0  0  0  0  0  0  0  0  0  0
   60.9525   28.5930   44.9190 H   0  0  0  0  0  0  0  0  0  0  0  0
   57.8747   26.2912   46.9089 H   0  0  0  0  0  0  0  0  0  0  0  0
   56.1209   27.7109   45.8433 H   0  0  0  0  0  0  0  0  0  0  0  0
   57.3483   33.7261   43.7910 H   0  0  0  0  0  0  0  0  0  0  0  0
   59.4066   34.9046   44.5532 H   0  0  0  0  0  0  0  0  0  0  0  0
   60.7820   33.2110   49.1340 H   0  0  0  0  0  0  0  0  0  0  0  0
   63.2475   31.4778   48.7129 H   0  0  0  0  0  0  0  0  0  0  0  0
   62.6397   32.0481   50.3128 H   0  0  0  0  0  0  0  0  0  0  0  0
   60.5629   30.3315   47.4267 H   0  0  0  0  0  0  0  0  0  0  0  0
   59.4003   28.1514   48.5288 H   0  0  0  0  0  0  0  0  0  0  0  0
   60.3103   27.9942   51.0397 H   0  0  0  0  0  0  0  0  0  0  0  0
  1  2  2  0
  2  3  1  0
  3  4  1  0
  4  5  2  0
  5  6  1  0
  6  7  2  0
  7  8  1  0
  8  9  1  0
  9 10  2  0
  9 11  2  0
  9 12  1  0
 12 13  2  0
 13 14  1  0
 14 15  2  0
 15 16  1  0
 15 17  1  0
 17 18  2  0
  7 19  1  0
 19 20  2  0
  2 21  1  0
 21 22  1  0
 22 23  1  0
 23 24  2  0
 24 25  1  0
 25 26  2  0
 26 27  1  0
 20  4  1  0
 27 23  1  0
 18 12  1  0
  3 28  1  0
  3 29  1  0
  5 30  1  0
  6 31  1  0
 13 32  1  0
 14 33  1  0
 17 34  1  0
 18 35  1  0
 19 36  1  0
 20 37  1  0
 21 38  1  0
 22 39  1  0
 22 40  1  0
 24 41  1  0
 25 42  1  0
 26 43  1  0
M  CHG  1   8  -1
M  END
>  <UniqueID>  (36) 
30

>  <SMILES>  (36) 
O=C(Cc1ccc([N-]S(=O)(=O)c2ccc(Cl)cc2)cc1)NCc1ccco1

>  <Energy>  (36) 
67.29200065965061

>  <Genealogy>  (36) 
O=C(Cc1ccc([N-]S(=O)(=O)c2ccc(Cl)cc2)cc1)NCc1ccco1 (protonated)
O=C(Cc1ccc([N-]S(=O)(=O)c2ccc(Cl)cc2)cc1)NCc1ccco1 (3D coordinates assigned)
O=C(Cc1ccc([N-]S(=O)(=O)c2ccc(Cl)cc2)cc1)NCc1ccco1 (optimized conformer: 67.29200065965061 kcal/mol)

>  <smiles>  (36) 
O=C(Cc1ccc(NS(=O)(=O)c2ccc(Cl)cc2)cc1)NCc1ccco1

>  <score_type>  (36) 
oracle

>  <origin>  (36) 
adg

>  <m_score__min__energy>  (36) 
-9.9299999999999997

>  <m_primary>  (36) 
energy

$$$$
36:0
     RDKit          3D

 36 37  0  0  0  0  0  0  0  0999 V2000
   57.4510   28.5510   43.1320 N   0  0  0  0  0  0  0  0  0  0  0  0
   56.9200   29.1540   44.6620 S   0  0  0  0  0  0  0  0  0  0  0  0
   55.9120   28.2080   45.2500 O   0  0  0  0  0  0  0  0  0  0  0  0
   56.2690   30.4960   44.4730 O   0  0  0  0  0  0  0  0  0  0  0  0
   58.2980   29.3080   45.7470 C   0  0  0  0  0  0  0  0  0  0  0  0
   59.5590   29.6530   45.2430 C   0  0  0  0  0  0  0  0  0  0  0  0
   60.6510   29.7700   46.1060 C   0  0  0  0  0  0  0  0  0  0  0  0
   60.4880   29.5590   47.4780 C   0  0  0  0  0  0  0  0  0  0  0  0
   59.2200   29.2450   47.9990 C   0  0  0  0  0  0  0  0  0  0  0  0
   59.0110   28.9870   49.3950 N   0  0  0  0  0  0  0  0  0  0  0  0
   58.6280   29.9370   50.3970 C   0  0  0  0  0  0  0  0  0  0  0  0
   57.7380   29.6590   51.2450 O   0  0  0  0  0  0  0  0  0  0  0  0
   59.3140   31.2680   50.4460 C   0  0  0  0  0  0  0  0  0  0  0  0
   58.5450   32.3370   49.6630 C   0  0  0  0  0  0  0  0  0  0  0  0
   59.5930   33.2890   48.5630 S   0  0  0  0  0  0  0  0  0  0  0  0
   60.8960   32.5670   48.3680 O   0  0  0  0  0  0  0  0  0  0  0  0
   59.8710   34.6300   49.1840 O   0  0  0  0  0  0  0  0  0  0  0  0
   58.8300   33.5200   47.0010 C   0  0  0  0  0  0  0  0  0  0  0  0
   57.5590   33.0900   46.6520 C   0  0  0  0  0  0  0  0  0  0  0  0
   57.2090   33.4300   45.3400 C   0  0  0  0  0  0  0  0  0  0  0  0
   58.2040   34.1230   44.6600 C   0  0  0  0  0  0  0  0  0  0  0  0
   59.5200   34.3140   45.6910 S   0  0  0  0  0  0  0  0  0  0  0  0
   58.1350   29.1050   47.1250 C   0  0  0  0  0  0  0  0  0  0  0  0
   57.7250   29.3790   42.5560 H   0  0  0  0  0  0  0  0  0  0  0  0
   56.6200   28.1230   42.6670 H   0  0  0  0  0  0  0  0  0  0  0  0
   59.6893   29.8321   44.1655 H   0  0  0  0  0  0  0  0  0  0  0  0
   61.6420   30.0289   45.7048 H   0  0  0  0  0  0  0  0  0  0  0  0
   61.3537   29.6387   48.1520 H   0  0  0  0  0  0  0  0  0  0  0  0
   59.3968   31.5868   51.4955 H   0  0  0  0  0  0  0  0  0  0  0  0
   60.3067   31.1567   49.9855 H   0  0  0  0  0  0  0  0  0  0  0  0
   57.7671   31.8410   49.0640 H   0  0  0  0  0  0  0  0  0  0  0  0
   58.1156   33.0363   50.3955 H   0  0  0  0  0  0  0  0  0  0  0  0
   56.8951   32.5393   47.3346 H   0  0  0  0  0  0  0  0  0  0  0  0
   56.2388   33.1732   44.8898 H   0  0  0  0  0  0  0  0  0  0  0  0
   58.1415   34.4852   43.6232 H   0  0  0  0  0  0  0  0  0  0  0  0
   57.1461   28.8334   47.5228 H   0  0  0  0  0  0  0  0  0  0  0  0
  1  2  1  0
  2  3  2  0
  2  4  2  0
  2  5  1  0
  5  6  2  0
  6  7  1  0
  7  8  2  0
  8  9  1  0
  9 10  1  0
 10 11  1  0
 11 12  2  0
 11 13  1  0
 13 14  1  0
 14 15  1  0
 15 16  2  0
 15 17  2  0
 15 18  1  0
 18 19  2  0
 19 20  1  0
 20 21  2  0
 21 22  1  0
  9 23  2  0
 23  5  1  0
 22 18  1  0
  1 24  1  0
  1 25  1  0
  6 26  1  0
  7 27  1  0
  8 28  1  0
 13 29  1  0
 13 30  1  0
 14 31  1  0
 14 32  1  0
 19 33  1  0
 20 34  1  0
 21 35  1  0
 23 36  1  0
M  CHG  1  10  -1
M  END
>  <UniqueID>  (37) 
31

>  <SMILES>  (37) 
NS(=O)(=O)c1cccc([N-]C(=O)CCS(=O)(=O)c2cccs2)c1

>  <Energy>  (37) 
57.004104960361275

>  <Genealogy>  (37) 
NS(=O)(=O)c1cccc([N-]C(=O)CCS(=O)(=O)c2cccs2)c1 (protonated)
NS(=O)(=O)c1cccc([N-]C(=O)CCS(=O)(=O)c2cccs2)c1 (3D coordinates assigned)
NS(=O)(=O)c1cccc([N-]C(=O)CCS(=O)(=O)c2cccs2)c1 (optimized conformer: 57.004104960361275 kcal/mol)

>  <smiles>  (37) 
NS(=O)(=O)c1cccc(NC(=O)CCS(=O)(=O)c2cccs2)c1

>  <score_type>  (37) 
oracle

>  <origin>  (37) 
adg

>  <m_score__min__energy>  (37) 
-10.199999999999999

>  <m_primary>  (37) 
energy

$$$$
37:0
     RDKit          3D

 40 41  0  0  0  0  0  0  0  0999 V2000
   57.7710   32.3440   42.4240 C   0  0  0  0  0  0  0  0  0  0  0  0
   57.9690   32.7780   43.8500 C   0  0  0  0  0  0  0  0  0  0  0  0
   59.0130   33.6680   44.1600 C   0  0  0  0  0  0  0  0  0  0  0  0
   59.2500   34.0470   45.4840 C   0  0  0  0  0  0  0  0  0  0  0  0
   58.4500   33.5410   46.5110 C   0  0  0  0  0  0  0  0  0  0  0  0
   57.3990   32.6710   46.2150 C   0  0  0  0  0  0  0  0  0  0  0  0
   57.1300   32.3090   44.8890 C   0  0  0  0  0  0  0  0  0  0  0  0
   56.0260   31.4350   44.6240 N   0  0  0  0  0  0  0  0  0  0  0  0
   56.1150   30.0090   44.4950 C   0  0  0  0  0  0  0  0  0  0  0  0
   55.3990   29.2950   45.2470 O   0  0  0  0  0  0  0  0  0  0  0  0
   56.9760   29.3630   43.4710 C   0  0  0  0  0  0  0  0  0  0  0  0
   56.5250   29.1990   42.3030 O   0  0  0  0  0  0  0  0  0  0  0  0
   58.3270   28.9290   43.7940 N   0  0  1  0  0  0  0  0  0  0  0  0
   58.8030   29.4860   45.0820 C   0  0  0  0  0  0  0  0  0  0  0  0
   58.5810   28.5420   46.2970 C   0  0  2  0  0  0  0  0  0  0  0  0
   59.8760   27.8680   46.7790 C   0  0  0  0  0  0  0  0  0  0  0  0
   57.5330   27.6030   46.1120 O   0  0  0  0  0  0  0  0  0  0  0  0
   57.6290   26.8180   44.9300 C   0  0  2  0  0  0  0  0  0  0  0  0
   58.1220   25.4060   45.2550 C   0  0  0  0  0  0  0  0  0  0  0  0
   58.4320   27.4620   43.7740 C   0  0  0  0  0  0  0  0  0  0  0  0
   57.3145   31.3434   42.4053 H   0  0  0  0  0  0  0  0  0  0  0  0
   57.1097   33.0584   41.9118 H   0  0  0  0  0  0  0  0  0  0  0  0
   58.7440   32.3128   41.9118 H   0  0  0  0  0  0  0  0  0  0  0  0
   59.6470   34.0683   43.3551 H   0  0  0  0  0  0  0  0  0  0  0  0
   60.0677   34.7447   45.7177 H   0  0  0  0  0  0  0  0  0  0  0  0
   58.6482   33.8283   47.5542 H   0  0  0  0  0  0  0  0  0  0  0  0
   56.7782   32.2673   47.0284 H   0  0  0  0  0  0  0  0  0  0  0  0
   58.9750   29.2910   43.0550 H   0  0  0  0  0  0  0  0  0  0  0  0
   58.2660   30.4271   45.2719 H   0  0  0  0  0  0  0  0  0  0  0  0
   59.8890   29.6316   44.9850 H   0  0  0  0  0  0  0  0  0  0  0  0
   58.2474   29.2083   47.1062 H   0  0  0  0  0  0  0  0  0  0  0  0
   59.8964   27.8574   47.8788 H   0  0  0  0  0  0  0  0  0  0  0  0
   59.9144   26.8355   46.4016 H   0  0  0  0  0  0  0  0  0  0  0  0
   60.7437   28.4289   46.4016 H   0  0  0  0  0  0  0  0  0  0  0  0
   56.6035   26.7577   44.5367 H   0  0  0  0  0  0  0  0  0  0  0  0
   58.1675   25.2756   46.3463 H   0  0  0  0  0  0  0  0  0  0  0  0
   57.4285   24.6677   44.8261 H   0  0  0  0  0  0  0  0  0  0  0  0
   59.1244   25.2598   44.8261 H   0  0  0  0  0  0  0  0  0  0  0  0
   58.0404   27.0890   42.8161 H   0  0  0  0  0  0  0  0  0  0  0  0
   59.4909   27.1909   43.8975 H   0  0  0  0  0  0  0  0  0  0  0  0
  1  2  1  0
  2  3  2  0
  3  4  1  0
  4  5  2  0
  5  6  1  0
  6  7  2  0
  7  8  1  0
  8  9  1  0
  9 10  2  0
  9 11  1  0
 11 12  2  0
 11 13  1  0
 13 14  1  0
 14 15  1  0
 15 16  1  0
 15 17  1  0
 17 18  1  0
 18 19  1  0
 18 20  1  0
  7  2  1  0
 20 13  1  0
  1 21  1  0
  1 22  1  0
  1 23  1  0
  3 24  1  0
  4 25  1  0
  5 26  1  0
  6 27  1  0
 13 28  1  6
 14 29  1  0
 14 30  1  0
 15 31  1  1
 16 32  1  0
 16 33  1  0
 16 34  1  0
 18 35  1  6
 19 36  1  0
 19 37  1  0
 19 38  1  0
 20 39  1  0
 20 40  1  0
M  CHG  2   8  -1  13   1
M  END
>  <UniqueID>  (38) 
32

>  <SMILES>  (38) 
Cc1ccccc1[N-]C(=O)C(=O)[NH+]1C[C@@H](C)O[C@@H](C)C1

>  <Energy>  (38) 
62.52671841045722

>  <Genealogy>  (38) 
Cc1ccccc1[N-]C(=O)C(=O)[NH+]1CC(C)OC(C)C1 (protonated)
Cc1ccccc1[N-]C(=O)C(=O)[NH+]1C[C@@H](C)O[C@@H](C)C1 (chirality)
Cc1ccccc1[N-]C(=O)C(=O)[NH+]1C[C@@H](C)O[C@@H](C)C1 (3D coordinates assigned)
Cc1ccccc1[N-]C(=O)C(=O)[NH+]1C[C@@H](C)O[C@@H](C)C1 (nonaromatic ring conformer: 62.52671841045722 kcal/mol)

>  <smiles>  (38) 
Cc1ccccc1NC(=O)C(=O)N1CC(C)OC(C)C1

>  <score_type>  (38) 
oracle

>  <origin>  (38) 
adg

>  <m_score__min__energy>  (38) 
-7.5099999999999998

>  <m_primary>  (38) 
energy

$$$$
38:0
     RDKit          3D

 28 30  0  0  0  0  0  0  0  0999 V2000
   59.8750   34.8140   49.3840 O   0  0  0  0  0  0  0  0  0  0  0  0
   60.4790   34.1790   48.4780 C   0  0  0  0  0  0  0  0  0  0  0  0
   61.9090   33.8490   48.6990 C   0  0  0  0  0  0  0  0  0  0  0  0
   62.7660   33.3510   47.7190 C   0  0  0  0  0  0  0  0  0  0  0  0
   64.0700   33.1170   48.1730 C   0  0  0  0  0  0  0  0  0  0  0  0
   64.2590   33.4270   49.5120 C   0  0  0  0  0  0  0  0  0  0  0  0
   62.8000   33.9900   50.1230 S   0  0  0  0  0  0  0  0  0  0  0  0
   59.7150   33.8100   47.2620 C   0  0  0  0  0  0  0  0  0  0  0  0
   59.2870   34.7130   46.2910 C   0  0  0  0  0  0  0  0  0  0  0  0
   58.5820   34.1240   45.2330 C   0  0  0  0  0  0  0  0  0  0  0  0
   58.4410   32.7400   45.3510 C   0  0  0  0  0  0  0  0  0  0  0  0
   57.7510   31.8230   44.4050 C   0  0  0  0  0  0  0  0  0  0  0  0
   57.6720   32.1160   43.0280 C   0  0  0  0  0  0  0  0  0  0  0  0
   57.0200   31.2440   42.1510 C   0  0  0  0  0  0  0  0  0  0  0  0
   56.4390   30.0700   42.6310 C   0  0  0  0  0  0  0  0  0  0  0  0
   56.5090   29.7640   43.9910 C   0  0  0  0  0  0  0  0  0  0  0  0
   57.1590   30.6330   44.8740 C   0  0  0  0  0  0  0  0  0  0  0  0
   59.2040   32.2790   46.7820 S   0  0  0  0  0  0  0  0  0  0  0  0
   62.4473   33.1593   46.6838 H   0  0  0  0  0  0  0  0  0  0  0  0
   64.8698   32.7241   47.5281 H   0  0  0  0  0  0  0  0  0  0  0  0
   65.1987   33.3224   50.0741 H   0  0  0  0  0  0  0  0  0  0  0  0
   59.4852   35.7934   46.3498 H   0  0  0  0  0  0  0  0  0  0  0  0
   58.1769   34.6991   44.3873 H   0  0  0  0  0  0  0  0  0  0  0  0
   58.1275   33.0391   42.6402 H   0  0  0  0  0  0  0  0  0  0  0  0
   56.9649   31.4844   41.0790 H   0  0  0  0  0  0  0  0  0  0  0  0
   55.9263   29.3863   41.9384 H   0  0  0  0  0  0  0  0  0  0  0  0
   56.0521   28.8376   44.3694 H   0  0  0  0  0  0  0  0  0  0  0  0
   57.2085   30.3851   45.9446 H   0  0  0  0  0  0  0  0  0  0  0  0
  1  2  2  0
  2  3  1  0
  3  4  2  0
  4  5  1  0
  5  6  2  0
  6  7  1  0
  2  8  1  0
  8  9  2  0
  9 10  1  0
 10 11  2  0
 11 12  1  0
 12 13  2  0
 13 14  1  0
 14 15  2  0
 15 16  1  0
 16 17  2  0
 11 18  1  0
  7  3  1  0
 18  8  1  0
 17 12  1  0
  4 19  1  0
  5 20  1  0
  6 21  1  0
  9 22  1  0
 10 23  1  0
 13 24  1  0
 14 25  1  0
 15 26  1  0
 16 27  1  0
 17 28  1  0
M  END
>  <UniqueID>  (39) 
33

>  <SMILES>  (39) 
O=C(c1cccs1)c1ccc(-c2ccccc2)s1

>  <Energy>  (39) 
87.88043329558165

>  <Genealogy>  (39) 
O=C(c1cccs1)c1ccc(-c2ccccc2)s1 (3D coordinates assigned)
O=C(c1cccs1)c1ccc(-c2ccccc2)s1 (optimized conformer: 87.88043329558165 kcal/mol)

>  <smiles>  (39) 
O=C(c1cccs1)c1ccc(-c2ccccc2)s1

>  <score_type>  (39) 
oracle

>  <origin>  (39) 
adg

>  <m_score__min__energy>  (39) 
-7.2000000000000002

>  <m_primary>  (39) 
energy

$$$$
39:0
     RDKit          3D

 47 49  0  0  0  0  0  0  0  0999 V2000
   61.9300   34.0120   46.9530 C   0  0  0  0  0  0  0  0  0  0  0  0
   62.5380   32.6290   47.2090 C   0  0  0  0  0  0  0  0  0  0  0  0
   63.8080   32.7390   48.0580 C   0  0  0  0  0  0  0  0  0  0  0  0
   61.5370   31.7200   47.8810 C   0  0  0  0  0  0  0  0  0  0  0  0
   61.4680   30.3580   47.5460 C   0  0  0  0  0  0  0  0  0  0  0  0
   60.5590   29.5220   48.2130 C   0  0  0  0  0  0  0  0  0  0  0  0
   60.4910   28.0810   47.8780 C   0  0  0  0  0  0  0  0  0  0  0  0
   60.9470   27.2350   48.6930 O   0  0  0  0  0  0  0  0  0  0  0  0
   59.9620   27.6140   46.6300 N   0  0  0  0  0  0  0  0  0  0  0  0
   58.6850   27.9580   46.0670 C   0  0  0  0  0  0  0  0  0  0  0  0
   58.4980   29.1390   45.3330 C   0  0  0  0  0  0  0  0  0  0  0  0
   57.2770   29.4540   44.8040 N   0  0  0  0  0  0  0  0  0  0  0  0
   57.1380   30.7080   44.0460 C   0  0  0  0  0  0  0  0  0  0  0  0
   57.6810   31.8630   44.8430 C   0  0  0  0  0  0  0  0  0  0  0  0
   57.6240   31.8470   46.2480 C   0  0  0  0  0  0  0  0  0  0  0  0
   58.1620   32.9050   46.9870 C   0  0  0  0  0  0  0  0  0  0  0  0
   58.7660   33.9820   46.3320 C   0  0  0  0  0  0  0  0  0  0  0  0
   59.2880   35.0060   47.0510 F   0  0  0  0  0  0  0  0  0  0  0  0
   58.8340   34.0010   44.9360 C   0  0  0  0  0  0  0  0  0  0  0  0
   58.2970   32.9450   44.1940 C   0  0  0  0  0  0  0  0  0  0  0  0
   56.1960   28.6370   45.0170 C   0  0  0  0  0  0  0  0  0  0  0  0
   54.9490   28.9670   44.4930 O   0  0  0  0  0  0  0  0  0  0  0  0
   56.3330   27.4610   45.7700 C   0  0  0  0  0  0  0  0  0  0  0  0
   55.2420   26.6200   46.0020 O   0  0  0  0  0  0  0  0  0  0  0  0
   57.5840   27.1260   46.2970 C   0  0  0  0  0  0  0  0  0  0  0  0
   57.7190   26.0720   46.9750 O   0  0  0  0  0  0  0  0  0  0  0  0
   59.7170   30.0740   49.1900 C   0  0  0  0  0  0  0  0  0  0  0  0
   59.8170   31.4310   49.4990 C   0  0  0  0  0  0  0  0  0  0  0  0
   60.7170   32.2140   48.8500 N   0  0  0  0  0  0  0  0  0  0  0  0
   61.7148   34.5016   47.9143 H   0  0  0  0  0  0  0  0  0  0  0  0
   62.6416   34.6251   46.3805 H   0  0  0  0  0  0  0  0  0  0  0  0
   60.9972   33.9022   46.3805 H   0  0  0  0  0  0  0  0  0  0  0  0
   62.8076   32.1935   46.2355 H   0  0  0  0  0  0  0  0  0  0  0  0
   63.5393   32.7157   49.1244 H   0  0  0  0  0  0  0  0  0  0  0  0
   64.4759   31.8953   47.8297 H   0  0  0  0  0  0  0  0  0  0  0  0
   64.3209   33.6849   47.8297 H   0  0  0  0  0  0  0  0  0  0  0  0
   62.1238   29.9479   46.7639 H   0  0  0  0  0  0  0  0  0  0  0  0
   59.3467   29.8221   45.1807 H   0  0  0  0  0  0  0  0  0  0  0  0
   57.6957   30.6248   43.1015 H   0  0  0  0  0  0  0  0  0  0  0  0
   56.0721   30.8852   43.8399 H   0  0  0  0  0  0  0  0  0  0  0  0
   57.1543   30.9988   46.7676 H   0  0  0  0  0  0  0  0  0  0  0  0
   58.1098   32.8898   48.0857 H   0  0  0  0  0  0  0  0  0  0  0  0
   59.3106   34.8479   44.4207 H   0  0  0  0  0  0  0  0  0  0  0  0
   58.3574   32.9618   43.0958 H   0  0  0  0  0  0  0  0  0  0  0  0
   54.3770   26.7060   45.4840 H   0  0  0  0  0  0  0  0  0  0  0  0
   58.9825   29.4409   49.7093 H   0  0  0  0  0  0  0  0  0  0  0  0
   59.1653   31.8676   50.2701 H   0  0  0  0  0  0  0  0  0  0  0  0
  1  2  1  0
  2  3  1  0
  2  4  1  0
  4  5  2  0
  5  6  1  0
  6  7  1  0
  7  8  2  0
  7  9  1  0
  9 10  1  0
 10 11  2  0
 11 12  1  0
 12 13  1  0
 13 14  1  0
 14 15  2  0
 15 16  1  0
 16 17  2  0
 17 18  1  0
 17 19  1  0
 19 20  2  0
 12 21  1  0
 21 22  1  0
 21 23  2  0
 23 24  1  0
 23 25  1  0
 25 26  2  0
  6 27  2  0
 27 28  1  0
 28 29  2  0
 29  4  1  0
 25 10  1  0
 20 14  1  0
  1 30  1  0
  1 31  1  0
  1 32  1  0
  2 33  1  0
  3 34  1  0
  3 35  1  0
  3 36  1  0
  5 37  1  0
 11 38  1  0
 13 39  1  0
 13 40  1  0
 15 41  1  0
 16 42  1  0
 19 43  1  0
 20 44  1  0
 24 45  1  0
 27 46  1  0
 28 47  1  0
M  CHG  2   9  -1  22  -1
M  END
>  <UniqueID>  (40) 
34

>  <SMILES>  (40) 
CC(C)c1cc(C(=O)[N-]c2cn(Cc3ccc(F)cc3)c([O-])c(O)c2=O)ccn1

>  <Energy>  (40) 
54.161797335967684

>  <Genealogy>  (40) 
CC(C)c1cc(C(=O)[N-]c2cn(Cc3ccc(F)cc3)c([O-])c(O)c2=O)ccn1 (protonated)
CC(C)c1cc(C(=O)[N-]c2cn(Cc3ccc(F)cc3)c([O-])c(O)c2=O)ccn1 (3D coordinates assigned)
CC(C)c1cc(C(=O)[N-]c2cn(Cc3ccc(F)cc3)c([O-])c(O)c2=O)ccn1 (optimized conformer: 54.161797335967684 kcal/mol)

>  <smiles>  (40) 
CC(C)c1cc(C(=O)Nc2cn(Cc3ccc(F)cc3)c(O)c(O)c2=O)ccn1

>  <score_type>  (40) 
oracle

>  <origin>  (40) 
adg

>  <m_score__min__energy>  (40) 
-13.23

>  <m_primary>  (40) 
energy

$$$$
40:0
     RDKit          3D

 46 48  0  0  0  0  0  0  0  0999 V2000
   60.3880   34.6770   46.3550 C   0  0  0  0  0  0  0  0  0  0  0  0
   60.3300   33.2430   46.9160 C   0  0  2  0  0  0  0  0  0  0  0  0
   59.4380   32.3680   46.0050 C   0  0  0  0  0  0  0  0  0  0  0  0
   59.8380   30.9950   46.0320 O   0  0  0  0  0  0  0  0  0  0  0  0
   58.9810   29.8830   45.9840 C   0  0  0  0  0  0  0  0  0  0  0  0
   59.4470   28.6730   46.5090 C   0  0  0  0  0  0  0  0  0  0  0  0
   58.6420   27.5320   46.4950 C   0  0  0  0  0  0  0  0  0  0  0  0
   57.3560   27.5790   45.9370 C   0  0  0  0  0  0  0  0  0  0  0  0
   56.4990   26.3760   45.9390 C   0  0  0  0  0  0  0  0  0  0  0  0
   55.2490   26.5160   46.0090 O   0  0  0  0  0  0  0  0  0  0  0  0
   57.0400   25.0520   45.8650 N   0  0  0  0  0  0  0  0  0  0  0  0
   56.2410   23.6200   46.4300 S   0  0  0  0  0  0  0  0  0  0  0  0
   56.0730   22.4830   45.0740 C   0  0  0  0  0  0  0  0  0  0  0  0
   57.0560   22.9640   47.5090 O   0  0  0  0  0  0  0  0  0  0  0  0
   54.8790   23.9670   46.9620 O   0  0  0  0  0  0  0  0  0  0  0  0
   56.8770   28.7930   45.4180 C   0  0  0  0  0  0  0  0  0  0  0  0
   55.6340   28.8690   44.8780 F   0  0  0  0  0  0  0  0  0  0  0  0
   57.6860   29.9330   45.4300 C   0  0  0  0  0  0  0  0  0  0  0  0
   59.7330   33.2510   48.3600 C   0  0  0  0  0  0  0  0  0  0  0  0
   60.6850   33.8880   49.3940 C   0  0  0  0  0  0  0  0  0  0  0  0
   62.0460   33.4090   49.1780 N   0  0  0  0  0  0  0  0  0  0  0  0
   63.1050   33.4510   50.0050 C   0  0  0  0  0  0  0  0  0  0  0  0
   64.1800   32.9130   49.3140 C   0  0  0  0  0  0  0  0  0  0  0  0
   65.5100   32.7600   49.8180 N   0  0  0  0  0  0  0  0  0  0  0  0
   66.0830   31.6520   49.7640 O   0  0  0  0  0  0  0  0  0  0  0  0
   66.1680   33.8360   50.3670 O   0  0  0  0  0  0  0  0  0  0  0  0
   63.7950   32.5530   48.0710 N   0  0  0  0  0  0  0  0  0  0  0  0
   62.4930   32.8850   48.0280 C   0  0  0  0  0  0  0  0  0  0  0  0
   61.6590   32.7030   46.9280 O   0  0  0  0  0  0  0  0  0  0  0  0
   60.4171   35.3955   47.1874 H   0  0  0  0  0  0  0  0  0  0  0  0
   61.2916   34.7933   45.7385 H   0  0  0  0  0  0  0  0  0  0  0  0
   59.4968   34.8659   45.7385 H   0  0  0  0  0  0  0  0  0  0  0  0
   58.3959   32.4423   46.3493 H   0  0  0  0  0  0  0  0  0  0  0  0
   59.5398   32.7340   44.9727 H   0  0  0  0  0  0  0  0  0  0  0  0
   60.4587   28.6197   46.9376 H   0  0  0  0  0  0  0  0  0  0  0  0
   59.0184   26.5915   46.9238 H   0  0  0  0  0  0  0  0  0  0  0  0
   55.9227   21.4658   45.4649 H   0  0  0  0  0  0  0  0  0  0  0  0
   55.2077   22.7711   44.4590 H   0  0  0  0  0  0  0  0  0  0  0  0
   56.9847   22.5085   44.4590 H   0  0  0  0  0  0  0  0  0  0  0  0
   57.3095   30.8749   45.0044 H   0  0  0  0  0  0  0  0  0  0  0  0
   58.7926   33.8216   48.3490 H   0  0  0  0  0  0  0  0  0  0  0  0
   59.5702   32.2048   48.6582 H   0  0  0  0  0  0  0  0  0  0  0  0
   60.6620   34.9824   49.2851 H   0  0  0  0  0  0  0  0  0  0  0  0
   60.3592   33.6078   50.4066 H   0  0  0  0  0  0  0  0  0  0  0  0
   63.1165   33.8386   51.0344 H   0  0  0  0  0  0  0  0  0  0  0  0
   64.3720   32.1270   47.3120 H   0  0  0  0  0  0  0  0  0  0  0  0
  2  1  1  6
  2  3  1  0
  3  4  1  0
  4  5  1  0
  5  6  2  0
  6  7  1  0
  7  8  2  0
  8  9  1  0
  9 10  2  0
  9 11  1  0
 11 12  1  0
 12 13  1  0
 12 14  2  0
 12 15  2  0
  8 16  1  0
 16 17  1  0
 16 18  2  0
  2 19  1  0
 19 20  1  0
 20 21  1  0
 21 22  1  0
 22 23  2  0
 23 24  1  0
 24 25  2  0
 24 26  1  0
 23 27  1  0
 27 28  2  0
 28 29  1  0
 29  2  1  0
 18  5  1  0
 28 21  1  0
  1 30  1  0
  1 31  1  0
  1 32  1  0
  3 33  1  0
  3 34  1  0
  6 35  1  0
  7 36  1  0
 13 37  1  0
 13 38  1  0
 13 39  1  0
 18 40  1  0
 19 41  1  0
 19 42  1  0
 20 43  1  0
 20 44  1  0
 22 45  1  0
 27 46  1  0
M  CHG  4  11  -1  24   1  26  -1  27   1
M  END
>  <UniqueID>  (41) 
35

>  <SMILES>  (41) 
C[C@]1(COc2ccc(C(=O)[N-]S(C)(=O)=O)c(F)c2)CCn2cc([N+](=O)[O-])[nH+]c2O1

>  <Energy>  (41) 
82.62638962686165

>  <Genealogy>  (41) 
CC1(COc2ccc(C(=O)[N-]S(C)(=O)=O)c(F)c2)CCn2cc([N+](=O)[O-])[nH+]c2O1 (protonated)
C[C@]1(COc2ccc(C(=O)[N-]S(C)(=O)=O)c(F)c2)CCn2cc([N+](=O)[O-])[nH+]c2O1 (chirality)
C[C@]1(COc2ccc(C(=O)[N-]S(C)(=O)=O)c(F)c2)CCn2cc([N+](=O)[O-])[nH+]c2O1 (3D coordinates assigned)
C[C@]1(COc2ccc(C(=O)[N-]S(C)(=O)=O)c(F)c2)CCn2cc([N+](=O)[O-])[nH+]c2O1 (nonaromatic ring conformer: 82.62638962686165 kcal/mol)

>  <smiles>  (41) 
CC1(COc2ccc(C(=O)NS(C)(=O)=O)c(F)c2)CCn2cc([N+](=O)[O-])nc2O1

>  <score_type>  (41) 
oracle

>  <origin>  (41) 
adg

>  <m_score__min__energy>  (41) 
-8.4800000000000004

>  <m_primary>  (41) 
energy

$$$$
41:0
     RDKit          3D

 55 59  0  0  0  0  0  0  0  0999 V2000
   56.4760   29.5110   42.5610 C   0  0  0  0  0  0  0  0  0  0  0  0
   57.6610   29.5340   43.3490 O   0  0  0  0  0  0  0  0  0  0  0  0
   57.8560   28.7800   44.5170 C   0  0  0  0  0  0  0  0  0  0  0  0
   57.7250   27.3790   44.5340 C   0  0  0  0  0  0  0  0  0  0  0  0
   57.9300   26.6540   45.7210 C   0  0  0  0  0  0  0  0  0  0  0  0
   57.7840   25.1790   45.7240 C   0  0  0  0  0  0  0  0  0  0  0  0
   58.9150   24.3590   45.5810 C   0  0  0  0  0  0  0  0  0  0  0  0
   58.7820   22.9710   45.6000 C   0  0  0  0  0  0  0  0  0  0  0  0
   59.8740   22.1770   45.4670 F   0  0  0  0  0  0  0  0  0  0  0  0
   57.5180   22.4070   45.7630 C   0  0  0  0  0  0  0  0  0  0  0  0
   56.4290   23.2070   45.8970 N   0  0  0  0  0  0  0  0  0  0  0  0
   56.5230   24.5680   45.8800 C   0  0  0  0  0  0  0  0  0  0  0  0
   55.3730   25.3560   46.0010 O   0  0  0  0  0  0  0  0  0  0  0  0
   54.0810   24.9010   45.6170 C   0  0  0  0  0  0  0  0  0  0  0  0
   58.2630   27.3430   46.9000 C   0  0  0  0  0  0  0  0  0  0  0  0
   58.4900   26.6710   48.0570 F   0  0  0  0  0  0  0  0  0  0  0  0
   58.3910   28.7350   46.8870 C   0  0  0  0  0  0  0  0  0  0  0  0
   58.1870   29.4550   45.7040 C   0  0  0  0  0  0  0  0  0  0  0  0
   58.3140   30.8910   45.7100 N   0  0  0  0  0  0  0  0  0  0  0  0
   57.2650   31.6440   45.2440 C   0  0  0  0  0  0  0  0  0  0  0  0
   56.2200   31.0880   44.8060 O   0  0  0  0  0  0  0  0  0  0  0  0
   57.3300   33.0390   45.2530 C   0  0  0  0  0  0  0  0  0  0  0  0
   58.4650   33.6740   45.7420 C   0  0  0  0  0  0  0  0  0  0  0  0
   59.5380   32.9170   46.2150 C   0  0  0  0  0  0  0  0  0  0  0  0
   60.6870   33.5530   46.7100 C   0  0  0  0  0  0  0  0  0  0  0  0
   61.7650   32.7960   47.1820 C   0  0  0  0  0  0  0  0  0  0  0  0
   63.2000   33.5810   47.8370 S   0  0  0  0  0  0  0  0  0  0  0  0
   63.7780   34.5510   46.8450 O   0  0  0  0  0  0  0  0  0  0  0  0
   64.2290   32.5330   48.1520 O   0  0  0  0  0  0  0  0  0  0  0  0
   62.7870   34.4330   49.2890 N   0  0  0  0  0  0  0  0  0  0  0  0
   61.7900   34.0960   50.0470 C   0  0  0  0  0  0  0  0  0  0  0  0
   60.4930   34.2210   49.6900 N   0  0  0  0  0  0  0  0  0  0  0  0
   59.6650   33.7880   50.6780 C   0  0  0  0  0  0  0  0  0  0  0  0
   60.3040   33.3200   51.8210 C   0  0  0  0  0  0  0  0  0  0  0  0
   61.9660   33.4510   51.5870 S   0  0  0  0  0  0  0  0  0  0  0  0
   61.7000   31.4000   47.1480 C   0  0  0  0  0  0  0  0  0  0  0  0
   60.5630   30.7560   46.6560 C   0  0  0  0  0  0  0  0  0  0  0  0
   59.4560   31.5010   46.1880 C   0  0  0  0  0  0  0  0  0  0  0  0
   55.5966   29.4939   43.2216 H   0  0  0  0  0  0  0  0  0  0  0  0
   56.4403   30.4086   41.9262 H   0  0  0  0  0  0  0  0  0  0  0  0
   56.4752   28.6127   41.9262 H   0  0  0  0  0  0  0  0  0  0  0  0
   57.4595   26.8457   43.6093 H   0  0  0  0  0  0  0  0  0  0  0  0
   59.9088   24.8129   45.4536 H   0  0  0  0  0  0  0  0  0  0  0  0
   57.4025   21.3133   45.7831 H   0  0  0  0  0  0  0  0  0  0  0  0
   53.4839   24.6907   46.5166 H   0  0  0  0  0  0  0  0  0  0  0  0
   53.5817   25.6774   45.0187 H   0  0  0  0  0  0  0  0  0  0  0  0
   54.1784   23.9831   45.0187 H   0  0  0  0  0  0  0  0  0  0  0  0
   58.6538   29.2681   47.8126 H   0  0  0  0  0  0  0  0  0  0  0  0
   56.4853   33.6332   44.8742 H   0  0  0  0  0  0  0  0  0  0  0  0
   58.5179   34.7726   45.7563 H   0  0  0  0  0  0  0  0  0  0  0  0
   60.7403   34.6516   46.7270 H   0  0  0  0  0  0  0  0  0  0  0  0
   58.5695   33.8066   50.5802 H   0  0  0  0  0  0  0  0  0  0  0  0
   59.8087   32.9311   52.7229 H   0  0  0  0  0  0  0  0  0  0  0  0
   62.5506   30.8047   47.5114 H   0  0  0  0  0  0  0  0  0  0  0  0
   60.5280   29.6568   46.6322 H   0  0  0  0  0  0  0  0  0  0  0  0
  1  2  1  0
  2  3  1  0
  3  4  2  0
  4  5  1  0
  5  6  1  0
  6  7  2  0
  7  8  1  0
  8  9  1  0
  8 10  2  0
 10 11  1  0
 11 12  2  0
 12 13  1  0
 13 14  1  0
  5 15  2  0
 15 16  1  0
 15 17  1  0
 17 18  2  0
 18 19  1  0
 19 20  1  0
 20 21  2  0
 20 22  1  0
 22 23  2  0
 23 24  1  0
 24 25  2  0
 25 26  1  0
 26 27  1  0
 27 28  2  0
 27 29  2  0
 27 30  1  0
 30 31  2  3
 31 32  1  0
 32 33  1  0
 33 34  2  0
 34 35  1  0
 26 36  2  0
 36 37  1  0
 37 38  2  0
 18  3  1  0
 38 19  1  0
 12  6  1  0
 38 24  1  0
 35 31  1  0
  1 39  1  0
  1 40  1  0
  1 41  1  0
  4 42  1  0
  7 43  1  0
 10 44  1  0
 14 45  1  0
 14 46  1  0
 14 47  1  0
 17 48  1  0
 22 49  1  0
 23 50  1  0
 25 51  1  0
 33 52  1  0
 34 53  1  0
 36 54  1  0
 37 55  1  0
M  CHG  1  32  -1
M  END
>  <UniqueID>  (42) 
36

>  <SMILES>  (42) 
COc1cc(-c2cc(F)cnc2OC)c(F)cc1-n1c(=O)ccc2cc(S(=O)(=O)N=c3[n-]ccs3)ccc21

>  <Energy>  (42) 
114.03659334171778

>  <Genealogy>  (42) 
COc1cc(-c2cc(F)cnc2OC)c(F)cc1-n1c(=O)ccc2cc(S(=O)(=O)N=c3[n-]ccs3)ccc21 (protonated)
COc1cc(-c2cc(F)cnc2OC)c(F)cc1-n1c(=O)ccc2cc(S(=O)(=O)N=c3[n-]ccs3)ccc21 (3D coordinates assigned)
COc1cc(-c2cc(F)cnc2OC)c(F)cc1-n1c(=O)ccc2cc(S(=O)(=O)N=c3[n-]ccs3)ccc21 (optimized conformer: 114.03659334171778 kcal/mol)

>  <smiles>  (42) 
COc1cc(-c2cc(F)cnc2OC)c(F)cc1-n1c(=O)ccc2cc(S(=O)(=O)N=c3[nH]ccs3)ccc21

>  <score_type>  (42) 
oracle

>  <origin>  (42) 
adg

>  <m_score__min__energy>  (42) 
-12.029999999999999

>  <m_primary>  (42) 
energy

$$$$
42:0
     RDKit          3D

 52 55  0  0  0  0  0  0  0  0999 V2000
   53.6470   24.8380   45.6080 C   0  0  0  0  0  0  0  0  0  0  0  0
   54.7110   25.7260   45.9330 O   0  0  0  0  0  0  0  0  0  0  0  0
   56.0720   25.4040   45.8290 C   0  0  0  0  0  0  0  0  0  0  0  0
   56.5270   24.2640   45.1390 C   0  0  0  0  0  0  0  0  0  0  0  0
   57.8940   23.9820   45.0710 C   0  0  0  0  0  0  0  0  0  0  0  0
   58.8180   24.8310   45.6840 C   0  0  0  0  0  0  0  0  0  0  0  0
   58.3800   25.9750   46.3690 C   0  0  0  0  0  0  0  0  0  0  0  0
   59.3680   26.8540   47.0900 C   0  0  0  0  0  0  0  0  0  0  0  0
   60.1770   27.7190   46.1110 C   0  0  0  0  0  0  0  0  0  0  0  0
   59.6260   29.0880   46.0230 N   0  0  0  0  0  0  0  0  0  0  0  0
   58.8120   29.4200   44.9690 C   0  0  0  0  0  0  0  0  0  0  0  0
   58.4900   28.5680   44.0950 O   0  0  0  0  0  0  0  0  0  0  0  0
   58.3490   30.7180   44.8740 C   0  0  0  0  0  0  0  0  0  0  0  0
   57.5440   31.3110   43.9300 C   0  0  0  0  0  0  0  0  0  0  0  0
   57.3840   32.6090   44.2530 N   0  0  0  0  0  0  0  0  0  0  0  0
   58.0790   32.8490   45.3910 C   0  0  0  0  0  0  0  0  0  0  0  0
   58.1130   34.2070   46.0190 C   0  0  0  0  0  0  0  0  0  0  0  0
   58.6980   31.6580   45.8020 C   0  0  0  0  0  0  0  0  0  0  0  0
   59.5110   31.3470   46.8650 N   0  0  0  0  0  0  0  0  0  0  0  0
   59.9210   32.3480   47.8730 C   0  0  0  0  0  0  0  0  0  0  0  0
   61.3910   32.7220   47.7930 C   0  0  0  0  0  0  0  0  0  0  0  0
   61.9290   33.4790   46.7260 C   0  0  0  0  0  0  0  0  0  0  0  0
   61.1620   33.8950   45.6900 F   0  0  0  0  0  0  0  0  0  0  0  0
   63.2840   33.8240   46.7220 C   0  0  0  0  0  0  0  0  0  0  0  0
   64.1120   33.4480   47.7810 C   0  0  0  0  0  0  0  0  0  0  0  0
   63.5860   32.7330   48.8560 C   0  0  0  0  0  0  0  0  0  0  0  0
   62.2330   32.3810   48.8720 C   0  0  0  0  0  0  0  0  0  0  0  0
   61.7480   31.6990   49.9410 F   0  0  0  0  0  0  0  0  0  0  0  0
   59.9710   30.0440   46.9640 C   0  0  0  0  0  0  0  0  0  0  0  0
   60.7160   29.7180   47.9320 O   0  0  0  0  0  0  0  0  0  0  0  0
   57.0050   26.2510   46.4410 C   0  0  0  0  0  0  0  0  0  0  0  0
   53.1911   24.4575   46.5340 H   0  0  0  0  0  0  0  0  0  0  0  0
   52.8883   25.3747   45.0194 H   0  0  0  0  0  0  0  0  0  0  0  0
   54.0393   23.9956   45.0194 H   0  0  0  0  0  0  0  0  0  0  0  0
   55.8040   23.5932   44.6519 H   0  0  0  0  0  0  0  0  0  0  0  0
   58.2434   23.0885   44.5329 H   0  0  0  0  0  0  0  0  0  0  0  0
   59.8926   24.6024   45.6298 H   0  0  0  0  0  0  0  0  0  0  0  0
   58.8215   27.5130   47.7807 H   0  0  0  0  0  0  0  0  0  0  0  0
   60.0693   26.2062   47.6364 H   0  0  0  0  0  0  0  0  0  0  0  0
   61.2193   27.7738   46.4582 H   0  0  0  0  0  0  0  0  0  0  0  0
   60.1230   27.2580   45.1137 H   0  0  0  0  0  0  0  0  0  0  0  0
   57.1037   30.8088   43.0560 H   0  0  0  0  0  0  0  0  0  0  0  0
   56.8220   33.3030   43.7120 H   0  0  0  0  0  0  0  0  0  0  0  0
   58.1104   34.1047   47.1142 H   0  0  0  0  0  0  0  0  0  0  0  0
   59.0246   34.7348   45.7022 H   0  0  0  0  0  0  0  0  0  0  0  0
   57.2289   34.7797   45.7022 H   0  0  0  0  0  0  0  0  0  0  0  0
   59.3216   33.2582   47.7236 H   0  0  0  0  0  0  0  0  0  0  0  0
   59.7555   31.8970   48.8625 H   0  0  0  0  0  0  0  0  0  0  0  0
   63.7001   34.3953   45.8791 H   0  0  0  0  0  0  0  0  0  0  0  0
   65.1788   33.7157   47.7673 H   0  0  0  0  0  0  0  0  0  0  0  0
   64.2375   32.4449   49.6942 H   0  0  0  0  0  0  0  0  0  0  0  0
   56.6567   27.1420   46.9839 H   0  0  0  0  0  0  0  0  0  0  0  0
  1  2  1  0
  2  3  1  0
  3  4  2  0
  4  5  1  0
  5  6  2  0
  6  7  1  0
  7  8  1  0
  8  9  1  0
  9 10  1  0
 10 11  1  0
 11 12  2  0
 11 13  1  0
 13 14  2  0
 14 15  1  0
 15 16  1  0
 16 17  1  0
 16 18  2  0
 18 19  1  0
 19 20  1  0
 20 21  1  0
 21 22  2  0
 22 23  1  0
 22 24  1  0
 24 25  2  0
 25 26  1  0
 26 27  2  0
 27 28  1  0
 19 29  1  0
 29 30  2  0
  7 31  2  0
 31  3  1  0
 29 10  1  0
 18 13  1  0
 27 21  1  0
  1 32  1  0
  1 33  1  0
  1 34  1  0
  4 35  1  0
  5 36  1  0
  6 37  1  0
  8 38  1  0
  8 39  1  0
  9 40  1  0
  9 41  1  0
 14 42  1  0
 15 43  1  0
 17 44  1  0
 17 45  1  0
 17 46  1  0
 20 47  1  0
 20 48  1  0
 24 49  1  0
 25 50  1  0
 26 51  1  0
 31 52  1  0
M  END
>  <UniqueID>  (43) 
37

>  <SMILES>  (43) 
COc1cccc(CCn2c(=O)c3c[nH]c(C)c3n(Cc3c(F)cccc3F)c2=O)c1

>  <Energy>  (43) 
99.90595802905821

>  <Genealogy>  (43) 
COc1cccc(CCn2c(=O)c3c[nH]c(C)c3n(Cc3c(F)cccc3F)c2=O)c1 (3D coordinates assigned)
COc1cccc(CCn2c(=O)c3c[nH]c(C)c3n(Cc3c(F)cccc3F)c2=O)c1 (optimized conformer: 99.90595802905821 kcal/mol)

>  <smiles>  (43) 
COc1cccc(CCn2c(=O)c3c[nH]c(C)c3n(Cc3c(F)cccc3F)c2=O)c1

>  <score_type>  (43) 
oracle

>  <origin>  (43) 
adg

>  <m_score__min__energy>  (43) 
-8.6600000000000001

>  <m_primary>  (43) 
energy

$$$$
43:0
     RDKit          3D

 38 39  0  0  0  0  0  0  0  0999 V2000
   60.6490   29.7590   48.9080 O   0  0  0  0  0  0  0  0  0  0  0  0
   60.6280   29.7870   47.6470 C   0  0  0  0  0  0  0  0  0  0  0  0
   60.0600   28.6290   46.8950 C   0  0  0  0  0  0  0  0  0  0  0  0
   59.9210   28.9910   45.5380 O   0  0  0  0  0  0  0  0  0  0  0  0
   58.5690   28.8880   45.1250 C   0  0  0  0  0  0  0  0  0  0  0  0
   58.2480   29.9940   44.1160 C   0  0  0  0  0  0  0  0  0  0  0  0
   57.4090   31.0850   44.7320 C   0  0  0  0  0  0  0  0  0  0  0  0
   56.1710   30.8770   44.8600 O   0  0  0  0  0  0  0  0  0  0  0  0
   57.9890   32.3610   45.2340 C   0  0  0  0  0  0  0  0  0  0  0  0
   58.6130   33.2820   44.3700 C   0  0  0  0  0  0  0  0  0  0  0  0
   59.1610   34.4680   44.8710 C   0  0  0  0  0  0  0  0  0  0  0  0
   59.0940   34.7510   46.2370 C   0  0  0  0  0  0  0  0  0  0  0  0
   59.6280   35.8990   46.7190 F   0  0  0  0  0  0  0  0  0  0  0  0
   58.4760   33.8480   47.1040 C   0  0  0  0  0  0  0  0  0  0  0  0
   57.9260   32.6620   46.6100 C   0  0  0  0  0  0  0  0  0  0  0  0
   61.0560   30.9590   46.9350 N   0  0  0  0  0  0  0  0  0  0  0  0
   61.7190   32.0690   47.5580 C   0  0  0  0  0  0  0  0  0  0  0  0
   63.0040   32.4310   47.1250 C   0  0  0  0  0  0  0  0  0  0  0  0
   63.6780   33.4990   47.7240 C   0  0  0  0  0  0  0  0  0  0  0  0
   63.0810   34.2050   48.7710 C   0  0  0  0  0  0  0  0  0  0  0  0
   61.8120   33.8360   49.2280 C   0  0  0  0  0  0  0  0  0  0  0  0
   61.1330   32.7690   48.6320 C   0  0  0  0  0  0  0  0  0  0  0  0
   59.9320   32.3880   49.1370 F   0  0  0  0  0  0  0  0  0  0  0  0
   60.7364   27.7657   46.9798 H   0  0  0  0  0  0  0  0  0  0  0  0
   59.0786   28.3584   47.3117 H   0  0  0  0  0  0  0  0  0  0  0  0
   58.4045   27.9068   44.6557 H   0  0  0  0  0  0  0  0  0  0  0  0
   57.9129   28.9950   46.0014 H   0  0  0  0  0  0  0  0  0  0  0  0
   59.1905   30.4306   43.7539 H   0  0  0  0  0  0  0  0  0  0  0  0
   57.6765   29.5479   43.2887 H   0  0  0  0  0  0  0  0  0  0  0  0
   58.6700   33.0671   43.2927 H   0  0  0  0  0  0  0  0  0  0  0  0
   59.6461   35.1797   44.1868 H   0  0  0  0  0  0  0  0  0  0  0  0
   58.4218   34.0708   48.1798 H   0  0  0  0  0  0  0  0  0  0  0  0
   57.4398   31.9573   47.3006 H   0  0  0  0  0  0  0  0  0  0  0  0
   60.7540   31.0630   45.9400 H   0  0  0  0  0  0  0  0  0  0  0  0
   63.4838   31.8707   46.3090 H   0  0  0  0  0  0  0  0  0  0  0  0
   64.6799   33.7839   47.3704 H   0  0  0  0  0  0  0  0  0  0  0  0
   63.6088   35.0508   49.2358 H   0  0  0  0  0  0  0  0  0  0  0  0
   61.3467   34.3868   50.0587 H   0  0  0  0  0  0  0  0  0  0  0  0
  1  2  2  0
  2  3  1  0
  3  4  1  0
  4  5  1  0
  5  6  1  0
  6  7  1  0
  7  8  2  0
  7  9  1  0
  9 10  2  0
 10 11  1  0
 11 12  2  0
 12 13  1  0
 12 14  1  0
 14 15  2  0
  2 16  1  0
 16 17  1  0
 17 18  2  0
 18 19  1  0
 19 20  2  0
 20 21  1  0
 21 22  2  0
 22 23  1  0
 15  9  1  0
 22 17  1  0
  3 24  1  0
  3 25  1  0
  5 26  1  0
  5 27  1  0
  6 28  1  0
  6 29  1  0
 10 30  1  0
 11 31  1  0
 14 32  1  0
 15 33  1  0
 16 34  1  0
 18 35  1  0
 19 36  1  0
 20 37  1  0
 21 38  1  0
M  END
>  <UniqueID>  (44) 
38

>  <SMILES>  (44) 
O=C(COCCC(=O)c1ccc(F)cc1)Nc1ccccc1F

>  <Energy>  (44) 
42.51962766326024

>  <Genealogy>  (44) 
O=C(COCCC(=O)c1ccc(F)cc1)Nc1ccccc1F (3D coordinates assigned)
O=C(COCCC(=O)c1ccc(F)cc1)Nc1ccccc1F (optimized conformer: 42.51962766326024 kcal/mol)

>  <smiles>  (44) 
O=C(COCCC(=O)c1ccc(F)cc1)Nc1ccccc1F

>  <score_type>  (44) 
oracle

>  <origin>  (44) 
adg

>  <m_score__min__energy>  (44) 
-7.29

>  <m_primary>  (44) 
energy

$$$$
44:0
     RDKit          3D

 50 52  0  0  0  0  0  0  0  0999 V2000
   61.0790   30.5260   49.2070 C   0  0  0  0  0  0  0  0  0  0  0  0
   59.3200   30.9380   48.9830 S   0  0  0  0  0  0  0  0  0  0  0  0
   59.1940   30.0450   47.4360 C   0  0  0  0  0  0  0  0  0  0  0  0
   60.2690   29.9670   46.6100 N   0  0  0  0  0  0  0  0  0  0  0  0
   60.1940   29.3050   45.4260 C   0  0  0  0  0  0  0  0  0  0  0  0
   61.1940   29.2690   44.6610 O   0  0  0  0  0  0  0  0  0  0  0  0
   59.0030   28.6820   45.0520 C   0  0  0  0  0  0  0  0  0  0  0  0
   57.9030   28.7650   45.9170 C   0  0  0  0  0  0  0  0  0  0  0  0
   56.5950   28.2000   45.5410 C   0  0  0  0  0  0  0  0  0  0  0  0
   56.4130   26.9600   45.6610 O   0  0  0  0  0  0  0  0  0  0  0  0
   55.5190   29.0100   45.0510 N   0  0  0  0  0  0  0  0  0  0  0  0
   55.4810   29.6570   43.7410 C   0  0  0  0  0  0  0  0  0  0  0  0
   56.4090   30.8340   43.7190 C   0  0  0  0  0  0  0  0  0  0  0  0
   57.0380   31.2250   42.5290 C   0  0  0  0  0  0  0  0  0  0  0  0
   57.9180   32.3070   42.5460 C   0  0  0  0  0  0  0  0  0  0  0  0
   58.1690   32.9820   43.7420 C   0  0  0  0  0  0  0  0  0  0  0  0
   57.5350   32.5610   44.9180 C   0  0  0  0  0  0  0  0  0  0  0  0
   57.8250   33.2640   46.2170 C   0  0  0  0  0  0  0  0  0  0  0  0
   59.1990   33.0310   46.6640 N   0  0  0  0  0  0  0  0  0  0  0  0
   60.0480   34.0920   47.1300 C   0  0  0  0  0  0  0  0  0  0  0  0
   59.5980   35.2690   47.1980 O   0  0  0  0  0  0  0  0  0  0  0  0
   61.4340   33.8170   47.5670 C   0  0  0  0  0  0  0  0  0  0  0  0
   62.4050   33.4430   46.6240 C   0  0  0  0  0  0  0  0  0  0  0  0
   63.7260   33.2230   47.0200 C   0  0  0  0  0  0  0  0  0  0  0  0
   64.0880   33.3590   48.3620 C   0  0  0  0  0  0  0  0  0  0  0  0
   63.1260   33.7060   49.3190 C   0  0  0  0  0  0  0  0  0  0  0  0
   63.5930   33.8770   51.0070 S   0  0  0  0  0  0  0  0  0  0  0  0
   62.3660   33.2000   52.0170 N   0  0  0  0  0  0  0  0  0  0  0  0
   63.7680   35.3340   51.3350 O   0  0  0  0  0  0  0  0  0  0  0  0
   64.8920   33.1650   51.2570 O   0  0  0  0  0  0  0  0  0  0  0  0
   61.8030   33.9320   48.9200 C   0  0  0  0  0  0  0  0  0  0  0  0
   56.6830   31.4960   44.8760 N   0  0  0  0  0  0  0  0  0  0  0  0
   58.0200   29.4580   47.0840 N   0  0  0  0  0  0  0  0  0  0  0  0
   61.3090   30.4721   50.2813 H   0  0  0  0  0  0  0  0  0  0  0  0
   61.2906   29.5540   48.7375 H   0  0  0  0  0  0  0  0  0  0  0  0
   61.7002   31.3029   48.7375 H   0  0  0  0  0  0  0  0  0  0  0  0
   58.9287   28.1375   44.0991 H   0  0  0  0  0  0  0  0  0  0  0  0
   55.7903   28.9357   42.9702 H   0  0  0  0  0  0  0  0  0  0  0  0
   54.4563   30.0035   43.5409 H   0  0  0  0  0  0  0  0  0  0  0  0
   56.8397   30.6843   41.5918 H   0  0  0  0  0  0  0  0  0  0  0  0
   58.4137   32.6281   41.6180 H   0  0  0  0  0  0  0  0  0  0  0  0
   58.8595   33.8381   43.7607 H   0  0  0  0  0  0  0  0  0  0  0  0
   57.6735   34.3447   46.0789 H   0  0  0  0  0  0  0  0  0  0  0  0
   57.1432   32.8648   46.9824 H   0  0  0  0  0  0  0  0  0  0  0  0
   59.5400   32.0440   46.6860 H   0  0  0  0  0  0  0  0  0  0  0  0
   62.1235   33.3226   45.5675 H   0  0  0  0  0  0  0  0  0  0  0  0
   64.4832   32.9419   46.2732 H   0  0  0  0  0  0  0  0  0  0  0  0
   65.1314   33.1932   48.6682 H   0  0  0  0  0  0  0  0  0  0  0  0
   61.7310   33.9830   52.2900 H   0  0  0  0  0  0  0  0  0  0  0  0
   61.0456   34.2018   49.6707 H   0  0  0  0  0  0  0  0  0  0  0  0
  1  2  1  0
  2  3  1  0
  3  4  2  0
  4  5  1  0
  5  6  2  0
  5  7  1  0
  7  8  2  0
  8  9  1  0
  9 10  2  0
  9 11  1  0
 11 12  1  0
 12 13  1  0
 13 14  2  0
 14 15  1  0
 15 16  2  0
 16 17  1  0
 17 18  1  0
 18 19  1  0
 19 20  1  0
 20 21  2  0
 20 22  1  0
 22 23  2  0
 23 24  1  0
 24 25  2  0
 25 26  1  0
 26 27  1  0
 27 28  1  0
 27 29  2  0
 27 30  2  0
 26 31  2  0
 17 32  2  0
  8 33  1  0
 33  3  1  0
 32 13  1  0
 31 22  1  0
  1 34  1  0
  1 35  1  0
  1 36  1  0
  7 37  1  0
 12 38  1  0
 12 39  1  0
 14 40  1  0
 15 41  1  0
 16 42  1  0
 18 43  1  0
 18 44  1  0
 19 45  1  0
 23 46  1  0
 24 47  1  0
 25 48  1  0
 28 49  1  0
 31 50  1  0
M  CHG  3  11  -1  28  -1  33  -1
M  END
>  <UniqueID>  (45) 
39

>  <SMILES>  (45) 
CSc1nc(=O)cc(C(=O)[N-]Cc2cccc(CNC(=O)c3cccc(S([NH-])(=O)=O)c3)n2)[n-]1

>  <Energy>  (45) 
46.79032290089886

>  <Genealogy>  (45) 
CSc1nc(=O)cc(C(=O)[N-]Cc2cccc(CNC(=O)c3cccc(S([NH-])(=O)=O)c3)n2)[n-]1 (protonated)
CSc1nc(=O)cc(C(=O)[N-]Cc2cccc(CNC(=O)c3cccc(S([NH-])(=O)=O)c3)n2)[n-]1 (3D coordinates assigned)
CSc1nc(=O)cc(C(=O)[N-]Cc2cccc(CNC(=O)c3cccc(S([NH-])(=O)=O)c3)n2)[n-]1 (optimized conformer: 46.79032290089886 kcal/mol)

>  <smiles>  (45) 
CSc1nc(=O)cc(C(=O)NCc2cccc(CNC(=O)c3cccc(S(N)(=O)=O)c3)n2)[nH]1

>  <score_type>  (45) 
oracle

>  <origin>  (45) 
adg

>  <m_score__min__energy>  (45) 
-15.09

>  <m_primary>  (45) 
energy

$$$$
45:0
     RDKit          3D

 58 60  0  0  0  0  0  0  0  0999 V2000
   56.7860   25.8440   46.4180 C   0  0  0  0  0  0  0  0  0  0  0  0
   58.2880   25.6490   46.2570 C   0  0  0  0  0  0  0  0  0  0  0  0
   58.9570   26.9450   46.1110 N   0  0  0  0  0  0  0  0  0  0  0  0
   59.9140   27.4920   46.8910 C   0  0  0  0  0  0  0  0  0  0  0  0
   60.4370   26.8840   48.1650 C   0  0  0  0  0  0  0  0  0  0  0  0
   60.3060   27.8420   49.3560 C   0  0  0  0  0  0  0  0  0  0  0  0
   60.6350   29.2070   48.9490 N   0  0  0  0  0  0  0  0  0  0  0  0
   59.9760   30.3570   49.5060 C   0  0  0  0  0  0  0  0  0  0  0  0
   59.0060   30.1990   50.2980 O   0  0  0  0  0  0  0  0  0  0  0  0
   60.4040   31.7320   49.1490 C   0  0  0  0  0  0  0  0  0  0  0  0
   59.7700   32.8600   49.7030 C   0  0  0  0  0  0  0  0  0  0  0  0
   60.1810   34.1470   49.3510 C   0  0  0  0  0  0  0  0  0  0  0  0
   61.2240   34.3290   48.4420 C   0  0  0  0  0  0  0  0  0  0  0  0
   61.8730   33.2180   47.8820 C   0  0  0  0  0  0  0  0  0  0  0  0
   62.9690   33.4080   46.8730 C   0  0  0  0  0  0  0  0  0  0  0  0
   61.4470   31.9250   48.2230 C   0  0  0  0  0  0  0  0  0  0  0  0
   60.4070   28.6210   46.3390 N   0  0  0  0  0  0  0  0  0  0  0  0
   59.7580   28.8160   45.1990 N   0  0  0  0  0  0  0  0  0  0  0  0
   58.8860   27.7990   45.0690 C   0  0  0  0  0  0  0  0  0  0  0  0
   57.7680   27.6340   43.6720 S   0  0  0  0  0  0  0  0  0  0  0  0
   57.4390   29.4250   43.5430 C   0  0  0  0  0  0  0  0  0  0  0  0
   56.3450   29.8320   44.4920 C   0  0  0  0  0  0  0  0  0  0  0  0
   55.5260   28.9670   44.8910 O   0  0  0  0  0  0  0  0  0  0  0  0
   56.1430   31.2020   44.8650 N   0  0  0  0  0  0  0  0  0  0  0  0
   57.1930   32.1640   45.0310 C   0  0  0  0  0  0  0  0  0  0  0  0
   57.6670   32.4380   46.3200 C   0  0  0  0  0  0  0  0  0  0  0  0
   58.6980   33.3610   46.5110 C   0  0  0  0  0  0  0  0  0  0  0  0
   59.2710   34.0050   45.4110 C   0  0  0  0  0  0  0  0  0  0  0  0
   58.8280   33.7140   44.1170 C   0  0  0  0  0  0  0  0  0  0  0  0
   57.7970   32.7740   43.9140 C   0  0  0  0  0  0  0  0  0  0  0  0
   57.3670   32.4030   42.6280 O   0  0  0  0  0  0  0  0  0  0  0  0
   58.1990   32.3790   41.4720 C   0  0  0  0  0  0  0  0  0  0  0  0
   56.5331   25.8768   47.4880 H   0  0  0  0  0  0  0  0  0  0  0  0
   56.4857   26.7887   45.9411 H   0  0  0  0  0  0  0  0  0  0  0  0
   56.2544   25.0073   45.9411 H   0  0  0  0  0  0  0  0  0  0  0  0
   58.6842   25.1342   47.1447 H   0  0  0  0  0  0  0  0  0  0  0  0
   58.4758   25.0462   45.3563 H   0  0  0  0  0  0  0  0  0  0  0  0
   59.8670   25.9684   48.3815 H   0  0  0  0  0  0  0  0  0  0  0  0
   61.5053   26.6638   48.0224 H   0  0  0  0  0  0  0  0  0  0  0  0
   59.2724   27.8146   49.7315 H   0  0  0  0  0  0  0  0  0  0  0  0
   61.0031   27.5269   50.1464 H   0  0  0  0  0  0  0  0  0  0  0  0
   61.3320   29.3260   48.1830 H   0  0  0  0  0  0  0  0  0  0  0  0
   58.9450   32.7266   50.4182 H   0  0  0  0  0  0  0  0  0  0  0  0
   59.6804   35.0215   49.7922 H   0  0  0  0  0  0  0  0  0  0  0  0
   61.5382   35.3458   48.1638 H   0  0  0  0  0  0  0  0  0  0  0  0
   63.9231   33.5734   47.3948 H   0  0  0  0  0  0  0  0  0  0  0  0
   63.0467   32.5099   46.2426 H   0  0  0  0  0  0  0  0  0  0  0  0
   62.7399   34.2798   46.2426 H   0  0  0  0  0  0  0  0  0  0  0  0
   61.9333   31.0527   47.7618 H   0  0  0  0  0  0  0  0  0  0  0  0
   58.3563   29.9798   43.7895 H   0  0  0  0  0  0  0  0  0  0  0  0
   57.1204   29.6540   42.5153 H   0  0  0  0  0  0  0  0  0  0  0  0
   57.2253   31.9239   47.1863 H   0  0  0  0  0  0  0  0  0  0  0  0
   59.0587   33.5808   47.5267 H   0  0  0  0  0  0  0  0  0  0  0  0
   60.0726   34.7427   45.5635 H   0  0  0  0  0  0  0  0  0  0  0  0
   59.2856   34.2203   43.2543 H   0  0  0  0  0  0  0  0  0  0  0  0
   59.2544   32.3486   41.7804 H   0  0  0  0  0  0  0  0  0  0  0  0
   57.9666   31.4872   40.8714 H   0  0  0  0  0  0  0  0  0  0  0  0
   58.0184   33.2827   40.8714 H   0  0  0  0  0  0  0  0  0  0  0  0
  1  2  1  0
  2  3  1  0
  3  4  1  0
  4  5  1  0
  5  6  1  0
  6  7  1  0
  7  8  1  0
  8  9  2  0
  8 10  1  0
 10 11  2  0
 11 12  1  0
 12 13  2  0
 13 14  1  0
 14 15  1  0
 14 16  2  0
  4 17  2  0
 17 18  1  0
 18 19  2  0
 19 20  1  0
 20 21  1  0
 21 22  1  0
 22 23  2  0
 22 24  1  0
 24 25  1  0
 25 26  2  0
 26 27  1  0
 27 28  2  0
 28 29  1  0
 29 30  2  0
 30 31  1  0
 31 32  1  0
 19  3  1  0
 30 25  1  0
 16 10  1  0
  1 33  1  0
  1 34  1  0
  1 35  1  0
  2 36  1  0
  2 37  1  0
  5 38  1  0
  5 39  1  0
  6 40  1  0
  6 41  1  0
  7 42  1  0
 11 43  1  0
 12 44  1  0
 13 45  1  0
 15 46  1  0
 15 47  1  0
 15 48  1  0
 16 49  1  0
 21 50  1  0
 21 51  1  0
 26 52  1  0
 27 53  1  0
 28 54  1  0
 29 55  1  0
 32 56  1  0
 32 57  1  0
 32 58  1  0
M  CHG  1  24  -1
M  END
>  <UniqueID>  (46) 
40

>  <SMILES>  (46) 
CCn1c(CCNC(=O)c2cccc(C)c2)nnc1SCC(=O)[N-]c1ccccc1OC

>  <Energy>  (46) 
90.23811619064182

>  <Genealogy>  (46) 
CCn1c(CCNC(=O)c2cccc(C)c2)nnc1SCC(=O)[N-]c1ccccc1OC (protonated)
CCn1c(CCNC(=O)c2cccc(C)c2)nnc1SCC(=O)[N-]c1ccccc1OC (3D coordinates assigned)
CCn1c(CCNC(=O)c2cccc(C)c2)nnc1SCC(=O)[N-]c1ccccc1OC (optimized conformer: 90.23811619064182 kcal/mol)

>  <smiles>  (46) 
CCn1c(CCNC(=O)c2cccc(C)c2)nnc1SCC(=O)Nc1ccccc1OC

>  <score_type>  (46) 
oracle

>  <origin>  (46) 
adg

>  <m_score__min__energy>  (46) 
-12.17

>  <m_primary>  (46) 
energy

$$$$
46:0
     RDKit          3D

 48 50  0  0  0  0  0  0  0  0999 V2000
   57.9230   32.0490   42.5180 O   0  0  0  0  0  0  0  0  0  0  0  0
   57.2150   31.3970   43.3320 C   0  0  0  0  0  0  0  0  0  0  0  0
   56.5310   30.1430   42.8720 C   0  0  0  0  0  0  0  0  0  0  0  0
   55.4120   29.7370   43.8360 C   0  0  0  0  0  0  0  0  0  0  0  0
   55.9190   29.5940   45.2050 N   0  0  0  0  0  0  0  0  0  0  0  0
   56.9480   28.1990   45.3580 S   0  0  0  0  0  0  0  0  0  0  0  0
   57.4310   27.7680   44.0010 O   0  0  0  0  0  0  0  0  0  0  0  0
   56.1670   27.0800   45.9830 O   0  0  0  0  0  0  0  0  0  0  0  0
   58.3250   28.5750   46.3770 C   0  0  0  0  0  0  0  0  0  0  0  0
   58.5450   28.0850   47.6550 C   0  0  0  0  0  0  0  0  0  0  0  0
   59.7280   28.5670   48.2270 C   0  0  0  0  0  0  0  0  0  0  0  0
   60.4330   29.4350   47.4010 C   0  0  0  0  0  0  0  0  0  0  0  0
   59.5860   29.6010   45.9550 S   0  0  0  0  0  0  0  0  0  0  0  0
   57.0610   31.8410   44.6890 N   0  0  0  0  0  0  0  0  0  0  0  0
   57.8760   32.8540   45.3030 C   0  0  0  0  0  0  0  0  0  0  0  0
   58.2170   34.0350   44.6210 C   0  0  0  0  0  0  0  0  0  0  0  0
   59.0360   34.9890   45.2310 C   0  0  0  0  0  0  0  0  0  0  0  0
   59.5350   34.7690   46.5150 C   0  0  0  0  0  0  0  0  0  0  0  0
   59.2300   33.5820   47.1940 C   0  0  0  0  0  0  0  0  0  0  0  0
   59.8640   33.3130   48.8150 S   0  0  0  0  0  0  0  0  0  0  0  0
   59.6960   34.5580   49.6440 O   0  0  0  0  0  0  0  0  0  0  0  0
   59.0930   32.1980   49.4630 O   0  0  0  0  0  0  0  0  0  0  0  0
   61.5490   32.8720   48.7100 N   0  0  0  0  0  0  0  0  0  0  0  0
   61.8970   32.4230   47.3640 C   0  0  0  0  0  0  0  0  0  0  0  0
   63.3840   32.6860   47.1970 C   0  0  0  0  0  0  0  0  0  0  0  0
   63.7100   33.7740   48.2100 C   0  0  0  0  0  0  0  0  0  0  0  0
   62.4180   34.0180   48.9760 C   0  0  0  0  0  0  0  0  0  0  0  0
   58.4010   32.6290   46.5860 C   0  0  0  0  0  0  0  0  0  0  0  0
   56.1005   30.3144   41.8743 H   0  0  0  0  0  0  0  0  0  0  0  0
   57.2741   29.3326   42.8398 H   0  0  0  0  0  0  0  0  0  0  0  0
   54.6284   30.5089   43.8221 H   0  0  0  0  0  0  0  0  0  0  0  0
   55.0062   28.7676   43.5111 H   0  0  0  0  0  0  0  0  0  0  0  0
   57.8618   27.3905   48.1658 H   0  0  0  0  0  0  0  0  0  0  0  0
   60.0677   28.2857   49.2347 H   0  0  0  0  0  0  0  0  0  0  0  0
   61.3834   29.9297   47.6499 H   0  0  0  0  0  0  0  0  0  0  0  0
   56.2680   31.4470   45.2440 H   0  0  0  0  0  0  0  0  0  0  0  0
   57.8377   34.2089   43.6032 H   0  0  0  0  0  0  0  0  0  0  0  0
   59.2881   35.9169   44.6967 H   0  0  0  0  0  0  0  0  0  0  0  0
   60.1691   35.5288   46.9952 H   0  0  0  0  0  0  0  0  0  0  0  0
   61.6856   31.3491   47.2543 H   0  0  0  0  0  0  0  0  0  0  0  0
   61.3092   32.9545   46.6011 H   0  0  0  0  0  0  0  0  0  0  0  0
   63.9635   31.7752   47.4084 H   0  0  0  0  0  0  0  0  0  0  0  0
   63.6362   32.9896   46.1703 H   0  0  0  0  0  0  0  0  0  0  0  0
   64.5040   33.4377   48.8930 H   0  0  0  0  0  0  0  0  0  0  0  0
   64.0736   34.6901   47.7216 H   0  0  0  0  0  0  0  0  0  0  0  0
   62.6249   34.0948   50.0536 H   0  0  0  0  0  0  0  0  0  0  0  0
   61.9417   34.9577   48.6595 H   0  0  0  0  0  0  0  0  0  0  0  0
   58.1597   31.6971   47.1183 H   0  0  0  0  0  0  0  0  0  0  0  0
  1  2  2  0
  2  3  1  0
  3  4  1  0
  4  5  1  0
  5  6  1  0
  6  7  2  0
  6  8  2  0
  6  9  1  0
  9 10  2  0
 10 11  1  0
 11 12  2  0
 12 13  1  0
  2 14  1  0
 14 15  1  0
 15 16  2  0
 16 17  1  0
 17 18  2  0
 18 19  1  0
 19 20  1  0
 20 21  2  0
 20 22  2  0
 20 23  1  0
 23 24  1  0
 24 25  1  0
 25 26  1  0
 26 27  1  0
 19 28  2  0
 13  9  1  0
 28 15  1  0
 27 23  1  0
  3 29  1  0
  3 30  1  0
  4 31  1  0
  4 32  1  0
 10 33  1  0
 11 34  1  0
 12 35  1  0
 14 36  1  0
 16 37  1  0
 17 38  1  0
 18 39  1  0
 24 40  1  0
 24 41  1  0
 25 42  1  0
 25 43  1  0
 26 44  1  0
 26 45  1  0
 27 46  1  0
 27 47  1  0
 28 48  1  0
M  CHG  1   5  -1
M  END
>  <UniqueID>  (47) 
41

>  <SMILES>  (47) 
O=C(CC[N-]S(=O)(=O)c1cccs1)Nc1cccc(S(=O)(=O)N2CCCC2)c1

>  <Energy>  (47) 
75.13324713976284

>  <Genealogy>  (47) 
O=C(CC[N-]S(=O)(=O)c1cccs1)Nc1cccc(S(=O)(=O)N2CCCC2)c1 (protonated)
O=C(CC[N-]S(=O)(=O)c1cccs1)Nc1cccc(S(=O)(=O)N2CCCC2)c1 (3D coordinates assigned)
O=C(CC[N-]S(=O)(=O)c1cccs1)Nc1cccc(S(=O)(=O)N2CCCC2)c1 (nonaromatic ring conformer: 75.13324713976284 kcal/mol)

>  <smiles>  (47) 
O=C(CCNS(=O)(=O)c1cccs1)Nc1cccc(S(=O)(=O)N2CCCC2)c1

>  <score_type>  (47) 
oracle

>  <origin>  (47) 
adg

>  <m_score__min__energy>  (47) 
-11.6

>  <m_primary>  (47) 
energy

$$$$
47:0
     RDKit          3D

 30 31  0  0  0  0  0  0  0  0999 V2000
   54.5060   27.0880   46.7280 H   0  0  0  0  0  0  0  0  0  0  0  0
   55.1580   26.6880   46.0170 N   0  0  0  0  0  0  0  0  0  0  0  0
   56.3570   27.1480   45.8670 C   0  0  0  0  0  0  0  0  0  0  0  0
   56.6080   28.1210   44.9530 N   0  0  0  0  0  0  0  0  0  0  0  0
   57.8620   28.6210   44.7700 C   0  0  0  0  0  0  0  0  0  0  0  0
   58.0660   29.6730   43.8080 N   0  0  0  0  0  0  0  0  0  0  0  0
   57.9630   29.2760   42.8430 H   0  0  0  0  0  0  0  0  0  0  0  0
   59.0380   30.0500   43.8930 H   0  0  0  0  0  0  0  0  0  0  0  0
   57.0680   30.7360   44.0050 C   0  0  0  0  0  0  0  0  0  0  0  0
   56.1707   30.4968   43.4154 H   0  0  0  0  0  0  0  0  0  0  0  0
   56.8306   30.7902   45.0777 H   0  0  0  0  0  0  0  0  0  0  0  0
   57.6050   32.1060   43.5620 C   0  0  0  0  0  0  0  0  0  0  0  0
   58.4573   31.9519   42.8839 H   0  0  0  0  0  0  0  0  0  0  0  0
   56.7900   32.6453   43.0570 H   0  0  0  0  0  0  0  0  0  0  0  0
   58.0590   32.9360   44.7350 C   0  0  0  0  0  0  0  0  0  0  0  0
   57.7510   32.5350   46.0460 C   0  0  0  0  0  0  0  0  0  0  0  0
   57.1547   31.6262   46.2148 H   0  0  0  0  0  0  0  0  0  0  0  0
   58.1990   33.2860   47.1370 C   0  0  0  0  0  0  0  0  0  0  0  0
   57.9526   32.9688   48.1610 H   0  0  0  0  0  0  0  0  0  0  0  0
   58.9600   34.4400   46.9270 C   0  0  0  0  0  0  0  0  0  0  0  0
   59.3099   35.0315   47.7859 H   0  0  0  0  0  0  0  0  0  0  0  0
   59.2760   34.8420   45.6280 C   0  0  0  0  0  0  0  0  0  0  0  0
   59.8769   35.7488   45.4648 H   0  0  0  0  0  0  0  0  0  0  0  0
   58.8300   34.0940   44.5340 C   0  0  0  0  0  0  0  0  0  0  0  0
   59.0835   34.4130   43.5122 H   0  0  0  0  0  0  0  0  0  0  0  0
   58.9200   28.1270   45.5600 C   0  0  0  0  0  0  0  0  0  0  0  0
   60.5660   28.7440   45.4020 Cl  0  0  0  0  0  0  0  0  0  0  0  0
   58.6370   27.1230   46.4950 C   0  0  0  0  0  0  0  0  0  0  0  0
   59.5510   26.6470   47.2190 O   0  0  0  0  0  0  0  0  0  0  0  0
   57.3680   26.6560   46.6270 N   0  0  0  0  0  0  0  0  0  0  0  0
  1  2  1  0
  2  3  2  0
  3  4  1  0
  4  5  1  0
  5  6  1  0
  6  7  1  0
  6  8  1  0
  6  9  1  0
  9 10  1  0
  9 11  1  0
  9 12  1  0
 12 13  1  0
 12 14  1  0
 12 15  1  0
 15 16  2  0
 16 17  1  0
 16 18  1  0
 18 19  1  0
 18 20  2  0
 20 21  1  0
 20 22  1  0
 22 23  1  0
 22 24  2  0
 24 25  1  0
  5 26  2  0
 26 27  1  0
 26 28  1  0
 28 29  2  0
 28 30  1  0
 30  3  1  0
 24 15  1  0
M  CHG  3   4  -1   6   1  30  -1
M  END
>  <UniqueID>  (48) 
42

>  <SMILES>  (48) 
[H]/N=c1\[n-]c([NH2+]CCc2ccccc2)c(Cl)c(=O)[n-]1

>  <Energy>  (48) 
30.247834246970537

>  <Genealogy>  (48) 
N=c1[n-]c([NH2+]CCc2ccccc2)c(Cl)c(=O)[n-]1 (protonated)
[H]/N=c1\[n-]c([NH2+]CCc2ccccc2)c(Cl)c(=O)[n-]1 (cis-trans isomerization)
[H]/N=c1\[n-]c([NH2+]CCc2ccccc2)c(Cl)c(=O)[n-]1 (3D coordinates assigned)
[H]/N=c1\[n-]c([NH2+]CCc2ccccc2)c(Cl)c(=O)[n-]1 (optimized conformer: 30.247834246970537 kcal/mol)

>  <smiles>  (48) 
N=c1[nH]c(NCCc2ccccc2)c(Cl)c(=O)[nH]1

>  <score_type>  (48) 
oracle

>  <origin>  (48) 
adg

>  <m_score__min__energy>  (48) 
-10.07

>  <m_primary>  (48) 
energy

$$$$
48:0
     RDKit          3D

 42 44  0  0  0  0  0  0  0  0999 V2000
   59.5340   34.0640   50.9150 O   0  0  0  0  0  0  0  0  0  0  0  0
   60.5970   33.7150   50.3430 C   0  0  0  0  0  0  0  0  0  0  0  0
   61.5700   33.0420   50.9840 N   0  0  0  0  0  0  0  0  0  0  0  0
   62.5540   32.8160   50.1410 N   0  0  0  0  0  0  0  0  0  0  0  0
   62.2450   33.3390   48.9210 C   0  0  0  0  0  0  0  0  0  0  0  0
   63.1060   33.2920   47.7160 C   0  0  0  0  0  0  0  0  0  0  0  0
   62.9760   32.0250   47.1320 F   0  0  0  0  0  0  0  0  0  0  0  0
   62.8010   34.1970   46.7530 F   0  0  0  0  0  0  0  0  0  0  0  0
   64.4440   33.4400   48.0280 F   0  0  0  0  0  0  0  0  0  0  0  0
   60.9790   33.9320   49.0140 C   0  0  0  0  0  0  0  0  0  0  0  0
   60.2050   34.6360   47.9940 C   0  0  0  0  0  0  0  0  0  0  0  0
   59.5020   33.7200   47.0620 C   0  0  0  0  0  0  0  0  0  0  0  0
   59.2470   32.4020   47.3130 C   0  0  0  0  0  0  0  0  0  0  0  0
   58.5860   31.5620   46.4240 C   0  0  0  0  0  0  0  0  0  0  0  0
   58.1480   32.0700   45.1990 C   0  0  0  0  0  0  0  0  0  0  0  0
   57.3200   31.0070   44.0940 S   0  0  0  0  0  0  0  0  0  0  0  0
   55.9240   30.7360   44.5560 O   0  0  0  0  0  0  0  0  0  0  0  0
   57.2210   31.7270   42.7550 O   0  0  0  0  0  0  0  0  0  0  0  0
   58.1690   29.5200   43.8480 N   0  0  0  0  0  0  0  0  0  0  0  0
   57.9420   28.4380   44.7460 C   0  0  0  0  0  0  0  0  0  0  0  0
   58.9940   27.7680   45.3490 C   0  0  0  0  0  0  0  0  0  0  0  0
   58.7710   26.7110   46.2240 C   0  0  0  0  0  0  0  0  0  0  0  0
   57.4840   26.2890   46.5250 C   0  0  0  0  0  0  0  0  0  0  0  0
   56.4350   26.9540   45.9250 C   0  0  0  0  0  0  0  0  0  0  0  0
   55.1350   26.5480   46.2120 O   0  0  0  0  0  0  0  0  0  0  0  0
   56.6670   28.0030   45.0570 C   0  0  0  0  0  0  0  0  0  0  0  0
   58.3990   33.4000   44.9340 C   0  0  0  0  0  0  0  0  0  0  0  0
   59.0670   34.2250   45.8460 C   0  0  0  0  0  0  0  0  0  0  0  0
   61.5810   32.7290   51.9950 H   0  0  0  0  0  0  0  0  0  0  0  0
   63.4430   32.3130   50.3570 H   0  0  0  0  0  0  0  0  0  0  0  0
   59.4567   35.2671   48.4958 H   0  0  0  0  0  0  0  0  0  0  0  0
   60.9124   35.2313   47.3979 H   0  0  0  0  0  0  0  0  0  0  0  0
   59.5834   31.9815   48.2722 H   0  0  0  0  0  0  0  0  0  0  0  0
   58.4097   30.5075   46.6829 H   0  0  0  0  0  0  0  0  0  0  0  0
   58.8480   29.4150   43.0410 H   0  0  0  0  0  0  0  0  0  0  0  0
   60.0265   28.0786   45.1311 H   0  0  0  0  0  0  0  0  0  0  0  0
   59.6293   26.2007   46.6854 H   0  0  0  0  0  0  0  0  0  0  0  0
   57.3064   25.4533   47.2179 H   0  0  0  0  0  0  0  0  0  0  0  0
   54.7070   26.7040   47.1260 H   0  0  0  0  0  0  0  0  0  0  0  0
   55.8065   28.5106   44.5966 H   0  0  0  0  0  0  0  0  0  0  0  0
   58.0639   33.8253   43.9765 H   0  0  0  0  0  0  0  0  0  0  0  0
   59.2482   35.2809   45.5966 H   0  0  0  0  0  0  0  0  0  0  0  0
  1  2  2  0
  2  3  1  0
  3  4  1  0
  4  5  1  0
  5  6  1  0
  6  7  1  0
  6  8  1  0
  6  9  1  0
  5 10  2  0
 10 11  1  0
 11 12  1  0
 12 13  2  0
 13 14  1  0
 14 15  2  0
 15 16  1  0
 16 17  2  0
 16 18  2  0
 16 19  1  0
 19 20  1  0
 20 21  2  0
 21 22  1  0
 22 23  2  0
 23 24  1  0
 24 25  1  0
 24 26  2  0
 15 27  1  0
 27 28  2  0
 10  2  1  0
 28 12  1  0
 26 20  1  0
  3 29  1  0
  4 30  1  0
 11 31  1  0
 11 32  1  0
 13 33  1  0
 14 34  1  0
 19 35  1  0
 21 36  1  0
 22 37  1  0
 23 38  1  0
 25 39  1  0
 26 40  1  0
 27 41  1  0
 28 42  1  0
M  END
>  <smiles>  (49) 
O=c1[nH][nH]c(C(F)(F)F)c1Cc1ccc(S(=O)(=O)Nc2cccc(O)c2)cc1

>  <score_type>  (49) 
oracle

>  <origin>  (49) 
adg

>  <m_score__min__energy>  (49) 
-10.32

>  <m_primary>  (49) 
energy

$$$$
49:0
     RDKit          3D

 50 54  0  0  0  0  0  0  0  0999 V2000
   55.8900   29.9150   42.7000 O   0  0  0  0  0  0  0  0  0  0  0  0
   55.9260   29.7570   43.9490 C   0  0  0  0  0  0  0  0  0  0  0  0
   54.7740   29.3340   44.6020 O   0  0  0  0  0  0  0  0  0  0  0  0
   57.1820   29.9980   44.7040 C   0  0  0  0  0  0  0  0  0  0  0  0
   57.5290   31.2960   45.1660 C   0  0  0  0  0  0  0  0  0  0  0  0
   56.7640   32.2730   44.9320 O   0  0  0  0  0  0  0  0  0  0  0  0
   58.7400   31.5080   45.8760 C   0  0  0  0  0  0  0  0  0  0  0  0
   59.1100   32.7790   46.3470 C   0  0  0  0  0  0  0  0  0  0  0  0
   60.3070   32.9590   47.0450 C   0  0  0  0  0  0  0  0  0  0  0  0
   60.6080   34.1950   47.5120 F   0  0  0  0  0  0  0  0  0  0  0  0
   61.1650   31.8670   47.2870 C   0  0  0  0  0  0  0  0  0  0  0  0
   62.3870   32.0380   48.0340 N   0  0  0  0  0  0  0  0  0  0  0  0
   62.6410   31.2160   49.2210 C   0  0  0  0  0  0  0  0  0  0  0  0
   63.8590   31.7290   50.0170 C   0  0  0  0  0  0  0  0  0  0  0  0
   63.9480   33.2120   50.0900 N   0  0  0  0  0  0  0  0  0  0  0  0
   63.1390   33.7700   51.1620 C   0  0  0  0  0  0  0  0  0  0  0  0
   63.6500   34.6110   51.9520 O   0  0  0  0  0  0  0  0  0  0  0  0
   61.7240   33.4050   51.3630 C   0  0  0  0  0  0  0  0  0  0  0  0
   60.7350   33.8300   50.4630 C   0  0  0  0  0  0  0  0  0  0  0  0
   59.4030   33.4450   50.6480 C   0  0  0  0  0  0  0  0  0  0  0  0
   59.0480   32.6480   51.7410 C   0  0  0  0  0  0  0  0  0  0  0  0
   57.3790   32.1620   51.9690 Cl  0  0  0  0  0  0  0  0  0  0  0  0
   60.0260   32.2460   52.6570 C   0  0  0  0  0  0  0  0  0  0  0  0
   61.3590   32.6260   52.4730 C   0  0  0  0  0  0  0  0  0  0  0  0
   63.7290   33.9320   48.8010 C   0  0  0  0  0  0  0  0  0  0  0  0
   63.4060   33.0040   47.6240 C   0  0  0  0  0  0  0  0  0  0  0  0
   60.7970   30.5940   46.8210 C   0  0  0  0  0  0  0  0  0  0  0  0
   59.5980   30.4110   46.1190 C   0  0  0  0  0  0  0  0  0  0  0  0
   59.2270   29.1880   45.6630 N   0  0  0  0  0  0  0  0  0  0  0  0
   59.8660   28.0680   45.8130 O   0  0  0  0  0  0  0  0  0  0  0  0
   59.1830   27.0870   45.2620 C   0  0  0  0  0  0  0  0  0  0  0  0
   58.0160   27.6020   44.7160 C   0  0  0  0  0  0  0  0  0  0  0  0
   58.0880   28.9590   44.9900 C   0  0  0  0  0  0  0  0  0  0  0  0
   58.4510   33.6406   46.1645 H   0  0  0  0  0  0  0  0  0  0  0  0
   61.7534   31.2425   49.8702 H   0  0  0  0  0  0  0  0  0  0  0  0
   62.8545   30.1892   48.8892 H   0  0  0  0  0  0  0  0  0  0  0  0
   63.7944   31.3347   51.0419 H   0  0  0  0  0  0  0  0  0  0  0  0
   64.7576   31.3801   49.4871 H   0  0  0  0  0  0  0  0  0  0  0  0
   64.9430   33.4010   50.3640 H   0  0  0  0  0  0  0  0  0  0  0  0
   61.0079   34.4679   49.6094 H   0  0  0  0  0  0  0  0  0  0  0  0
   58.6333   33.7697   49.9324 H   0  0  0  0  0  0  0  0  0  0  0  0
   59.7457   31.6296   53.5239 H   0  0  0  0  0  0  0  0  0  0  0  0
   62.1237   32.3140   53.1995 H   0  0  0  0  0  0  0  0  0  0  0  0
   62.8903   34.6315   48.9321 H   0  0  0  0  0  0  0  0  0  0  0  0
   64.6700   34.4463   48.5561 H   0  0  0  0  0  0  0  0  0  0  0  0
   63.0288   33.5996   46.7796 H   0  0  0  0  0  0  0  0  0  0  0  0
   64.3168   32.4697   47.3160 H   0  0  0  0  0  0  0  0  0  0  0  0
   61.4557   29.7333   47.0087 H   0  0  0  0  0  0  0  0  0  0  0  0
   59.4879   26.0304   45.2382 H   0  0  0  0  0  0  0  0  0  0  0  0
   57.2183   27.0591   44.1879 H   0  0  0  0  0  0  0  0  0  0  0  0
  1  2  2  0
  2  3  1  0
  2  4  1  0
  4  5  1  0
  5  6  2  0
  5  7  1  0
  7  8  2  0
  8  9  1  0
  9 10  1  0
  9 11  2  0
 11 12  1  0
 12 13  1  0
 13 14  1  0
 14 15  1  0
 15 16  1  0
 16 17  2  0
 16 18  1  0
 18 19  2  0
 19 20  1  0
 20 21  2  0
 21 22  1  0
 21 23  1  0
 23 24  2  0
 15 25  1  0
 25 26  1  0
 11 27  1  0
 27 28  2  0
 28 29  1  0
 29 30  1  0
 30 31  1  0
 31 32  2  0
 32 33  1  0
 33  4  2  0
 28  7  1  0
 33 29  1  0
 26 12  1  0
 24 18  1  0
  8 34  1  0
 13 35  1  0
 13 36  1  0
 14 37  1  0
 14 38  1  0
 15 39  1  0
 19 40  1  0
 20 41  1  0
 23 42  1  0
 24 43  1  0
 25 44  1  0
 25 45  1  0
 26 46  1  0
 26 47  1  0
 27 48  1  0
 31 49  1  0
 32 50  1  0
M  CHG  2   3  -1  15   1
M  END
>  <UniqueID>  (50) 
43

>  <SMILES>  (50) 
O=C([O-])c1c(=O)c2cc(F)c(N3CC[NH+](C(=O)c4ccc(Cl)cc4)CC3)cc2n2occc12

>  <Energy>  (50) 
123.79204252634341

>  <Genealogy>  (50) 
O=C([O-])c1c(=O)c2cc(F)c(N3CC[NH+](C(=O)c4ccc(Cl)cc4)CC3)cc2n2occc12 (protonated)
O=C([O-])c1c(=O)c2cc(F)c(N3CC[NH+](C(=O)c4ccc(Cl)cc4)CC3)cc2n2occc12 (3D coordinates assigned)
O=C([O-])c1c(=O)c2cc(F)c(N3CC[NH+](C(=O)c4ccc(Cl)cc4)CC3)cc2n2occc12 (nonaromatic ring conformer: 123.79204252634341 kcal/mol)

>  <smiles>  (50) 
O=C(O)c1c(=O)c2cc(F)c(N3CCN(C(=O)c4ccc(Cl)cc4)CC3)cc2n2occc12

>  <score_type>  (50) 
oracle

>  <origin>  (50) 
adg

>  <m_score__min__energy>  (50) 
-9.6799999999999997

>  <m_primary>  (50) 
energy

$$$$
50:0
     RDKit          3D

 24 25  0  0  0  0  0  0  0  0999 V2000
   57.3400   34.1910   44.5500 O   0  0  0  0  0  0  0  0  0  0  0  0
   58.0370   33.2700   45.0540 C   0  0  0  0  0  0  0  0  0  0  0  0
   58.1170   31.9820   44.4180 N   0  0  0  0  0  0  0  0  0  0  0  0
   57.4070   30.9080   44.6380 C   0  0  0  0  0  0  0  0  0  0  0  0
   57.8530   29.8320   45.4340 C   0  0  0  0  0  0  0  0  0  0  0  0
   57.0220   28.7240   45.6240 C   0  0  0  0  0  0  0  0  0  0  0  0
   55.7890   28.6880   45.0560 N   0  0  0  0  0  0  0  0  0  0  0  0
   55.3250   29.7160   44.2980 C   0  0  0  0  0  0  0  0  0  0  0  0
   56.1220   30.8440   44.0840 C   0  0  0  0  0  0  0  0  0  0  0  0
   58.7050   33.4870   46.3600 C   0  0  0  0  0  0  0  0  0  0  0  0
   58.2840   32.7870   47.5070 C   0  0  0  0  0  0  0  0  0  0  0  0
   58.9190   32.9930   48.7360 C   0  0  0  0  0  0  0  0  0  0  0  0
   59.9770   33.8980   48.8360 C   0  0  0  0  0  0  0  0  0  0  0  0
   60.5900   34.0950   50.0290 F   0  0  0  0  0  0  0  0  0  0  0  0
   60.4050   34.5990   47.7060 C   0  0  0  0  0  0  0  0  0  0  0  0
   59.7750   34.3960   46.4740 C   0  0  0  0  0  0  0  0  0  0  0  0
   58.8479   29.8646   45.9020 H   0  0  0  0  0  0  0  0  0  0  0  0
   57.3682   27.8780   46.2360 H   0  0  0  0  0  0  0  0  0  0  0  0
   54.3209   29.6603   43.8523 H   0  0  0  0  0  0  0  0  0  0  0  0
   55.7404   31.6810   43.4809 H   0  0  0  0  0  0  0  0  0  0  0  0
   57.4500   32.0733   47.4359 H   0  0  0  0  0  0  0  0  0  0  0  0
   58.5838   32.4404   49.6261 H   0  0  0  0  0  0  0  0  0  0  0  0
   61.2390   35.3119   47.7854 H   0  0  0  0  0  0  0  0  0  0  0  0
   60.1175   34.9502   45.5877 H   0  0  0  0  0  0  0  0  0  0  0  0
  1  2  2  0
  2  3  1  0
  3  4  2  3
  4  5  1  0
  5  6  2  0
  6  7  1  0
  7  8  1  0
  8  9  2  0
  2 10  1  0
 10 11  2  0
 11 12  1  0
 12 13  2  0
 13 14  1  0
 13 15  1  0
 15 16  2  0
  9  4  1  0
 16 10  1  0
  5 17  1  0
  6 18  1  0
  8 19  1  0
  9 20  1  0
 11 21  1  0
 12 22  1  0
 15 23  1  0
 16 24  1  0
M  CHG  1   7  -1
M  END
>  <UniqueID>  (51) 
44

>  <SMILES>  (51) 
O=C(N=c1cc[n-]cc1)c1ccc(F)cc1

>  <Energy>  (51) 
34.3179644305284

>  <Genealogy>  (51) 
O=C(N=c1cc[n-]cc1)c1ccc(F)cc1 (protonated)
O=C(N=c1cc[n-]cc1)c1ccc(F)cc1 (3D coordinates assigned)
O=C(N=c1cc[n-]cc1)c1ccc(F)cc1 (optimized conformer: 34.3179644305284 kcal/mol)

>  <smiles>  (51) 
O=C(N=c1cc[nH]cc1)c1ccc(F)cc1

>  <score_type>  (51) 
oracle

>  <origin>  (51) 
adg

>  <m_score__min__energy>  (51) 
-7.5

>  <m_primary>  (51) 
energy

$$$$
51:0
     RDKit          3D

 38 41  0  0  0  0  0  0  0  0999 V2000
   53.2941   23.3084   46.1346 H   0  0  0  0  0  0  0  0  0  0  0  0
   54.3400   23.5460   46.3790 C   0  0  0  0  0  0  0  0  0  0  0  0
   54.8750   24.7350   45.9920 N   0  0  0  0  0  0  0  0  0  0  0  0
   56.1660   25.0740   46.2720 C   0  0  0  0  0  0  0  0  0  0  0  0
   56.6950   26.3800   45.8270 C   0  0  0  0  0  0  0  0  0  0  0  0
   55.8880   27.4610   45.6370 N   0  0  0  0  0  0  0  0  0  0  0  0
   56.5840   28.5420   45.2300 C   0  0  0  0  0  0  0  0  0  0  0  0
   56.0130   29.6860   44.9950 N   0  0  0  0  0  0  0  0  0  0  0  0
   55.8330   30.2800   43.6710 C   0  0  0  0  0  0  0  0  0  0  0  0
   55.0670   31.0673   43.7291 H   0  0  0  0  0  0  0  0  0  0  0  0
   55.5180   29.4936   42.9693 H   0  0  0  0  0  0  0  0  0  0  0  0
   57.1440   30.8900   43.1720 C   0  0  0  0  0  0  0  0  0  0  0  0
   56.9818   31.3344   42.1789 H   0  0  0  0  0  0  0  0  0  0  0  0
   57.9054   30.0983   43.1129 H   0  0  0  0  0  0  0  0  0  0  0  0
   57.6200   31.9510   44.1150 C   0  0  0  0  0  0  0  0  0  0  0  0
   58.3340   33.0890   43.7440 C   0  0  0  0  0  0  0  0  0  0  0  0
   58.6113   33.4057   42.7277 H   0  0  0  0  0  0  0  0  0  0  0  0
   58.6160   33.7300   44.9310 C   0  0  0  0  0  0  0  0  0  0  0  0
   59.3070   34.9090   45.1840 C   0  0  0  0  0  0  0  0  0  0  0  0
   59.7330   35.5111   44.3679 H   0  0  0  0  0  0  0  0  0  0  0  0
   59.4380   35.2990   46.5300 C   0  0  0  0  0  0  0  0  0  0  0  0
   59.9738   36.2269   46.7788 H   0  0  0  0  0  0  0  0  0  0  0  0
   58.9040   34.5330   47.5340 N   0  0  0  0  0  0  0  0  0  0  0  0
   59.0190   34.8480   48.5240 H   0  0  0  0  0  0  0  0  0  0  0  0
   58.2290   33.3720   47.2700 C   0  0  0  0  0  0  0  0  0  0  0  0
   57.7480   32.6810   48.2080 O   0  0  0  0  0  0  0  0  0  0  0  0
   58.0890   32.9770   45.9420 C   0  0  0  0  0  0  0  0  0  0  0  0
   57.4790   31.8800   45.4600 N   0  0  0  0  0  0  0  0  0  0  0  0
   57.0080   31.1240   46.0060 H   0  0  0  0  0  0  0  0  0  0  0  0
   58.2310   28.2100   45.0930 S   0  0  0  0  0  0  0  0  0  0  0  0
   58.0490   26.6080   45.5720 C   0  0  0  0  0  0  0  0  0  0  0  0
   58.8569   25.8677   45.6679 H   0  0  0  0  0  0  0  0  0  0  0  0
   56.9750   24.1700   46.9820 C   0  0  0  0  0  0  0  0  0  0  0  0
   58.0189   24.4254   47.2166 H   0  0  0  0  0  0  0  0  0  0  0  0
   56.4410   22.9440   47.3870 C   0  0  0  0  0  0  0  0  0  0  0  0
   57.0650   22.2290   47.9432 H   0  0  0  0  0  0  0  0  0  0  0  0
   55.1170   22.6270   47.0860 C   0  0  0  0  0  0  0  0  0  0  0  0
   54.6898   21.6639   47.4020 H   0  0  0  0  0  0  0  0  0  0  0  0
  1  2  1  0
  2  3  2  0
  3  4  1  0
  4  5  1  0
  5  6  1  0
  6  7  1  0
  7  8  2  0
  8  9  1  0
  9 10  1  0
  9 11  1  0
  9 12  1  0
 12 13  1  0
 12 14  1  0
 12 15  1  0
 15 16  2  0
 16 17  1  0
 16 18  1  0
 18 19  1  0
 19 20  1  0
 19 21  2  0
 21 22  1  0
 21 23  1  0
 23 24  1  0
 23 25  1  0
 25 26  2  0
 25 27  1  0
 27 28  1  0
 28 29  1  0
  7 30  1  0
 30 31  1  0
 31 32  1  0
  4 33  2  0
 33 34  1  0
 33 35  1  0
 35 36  1  0
 35 37  2  0
 37 38  1  0
 37  2  1  0
 31  5  2  0
 28 15  1  0
 27 18  2  0
M  CHG  1   6  -1
M  END
>  <UniqueID>  (52) 
45

>  <SMILES>  (52) 
O=c1[nH]ccc2cc(CC/N=c3/[n-]c(-c4ccccn4)cs3)[nH]c12

>  <Energy>  (52) 
104.34964950234371

>  <Genealogy>  (52) 
O=c1[nH]ccc2cc(CCN=c3[n-]c(-c4ccccn4)cs3)[nH]c12 (protonated)
O=c1[nH]ccc2cc(CC/N=c3/[n-]c(-c4ccccn4)cs3)[nH]c12 (cis-trans isomerization)
O=c1[nH]ccc2cc(CC/N=c3/[n-]c(-c4ccccn4)cs3)[nH]c12 (3D coordinates assigned)
O=c1[nH]ccc2cc(CC/N=c3/[n-]c(-c4ccccn4)cs3)[nH]c12 (optimized conformer: 104.34964950234371 kcal/mol)

>  <smiles>  (52) 
O=c1[nH]ccc2cc(CCN=c3[nH]c(-c4ccccn4)cs3)[nH]c12

>  <score_type>  (52) 
oracle

>  <origin>  (52) 
adg

>  <m_score__min__energy>  (52) 
-10.220000000000001

>  <m_primary>  (52) 
energy

$$$$
52:0
     RDKit          3D

 50 53  0  0  0  0  0  0  0  0999 V2000
   57.1910   33.3130   47.0450 O   0  0  0  0  0  0  0  0  0  0  0  0
   58.2600   32.6690   47.2300 C   0  0  0  0  0  0  0  0  0  0  0  0
   58.4830   31.4130   46.4770 C   0  0  0  0  0  0  0  0  0  0  0  0
   58.8190   30.2470   47.1880 C   0  0  0  0  0  0  0  0  0  0  0  0
   59.0560   29.0470   46.5120 C   0  0  0  0  0  0  0  0  0  0  0  0
   58.9390   28.9930   45.1220 C   0  0  0  0  0  0  0  0  0  0  0  0
   58.5900   30.1390   44.4050 C   0  0  0  0  0  0  0  0  0  0  0  0
   58.3580   31.3490   45.0700 C   0  0  0  0  0  0  0  0  0  0  0  0
   57.8290   32.7270   44.1070 Cl  0  0  0  0  0  0  0  0  0  0  0  0
   59.2260   33.1610   48.1780 N   0  0  0  0  0  0  0  0  0  0  0  0
   60.3960   33.8780   47.7300 C   0  0  0  0  0  0  0  0  0  0  0  0
   60.3360   34.7970   46.3690 S   0  0  0  0  0  0  0  0  0  0  0  0
   61.5830   33.7430   48.4620 O   0  0  0  0  0  0  0  0  0  0  0  0
   62.8510   34.2270   48.0330 C   0  0  0  0  0  0  0  0  0  0  0  0
   63.4750   33.2620   47.0160 C   0  0  0  0  0  0  0  0  0  0  0  0
   63.7410   31.9280   47.6050 N   0  0  0  0  0  0  0  0  0  0  0  0
   62.5300   31.1480   47.7240 C   0  0  0  0  0  0  0  0  0  0  0  0
   61.8680   30.7340   46.7350 O   0  0  0  0  0  0  0  0  0  0  0  0
   62.1820   30.8690   49.1060 C   0  0  0  0  0  0  0  0  0  0  0  0
   61.0920   30.1990   49.6520 C   0  0  0  0  0  0  0  0  0  0  0  0
   61.0160   30.1030   51.0550 C   0  0  0  0  0  0  0  0  0  0  0  0
   62.0240   30.6680   51.8650 C   0  0  0  0  0  0  0  0  0  0  0  0
   63.1130   31.3340   51.2790 C   0  0  0  0  0  0  0  0  0  0  0  0
   63.1550   31.4180   49.8880 C   0  0  0  0  0  0  0  0  0  0  0  0
   64.1160   32.0430   48.9970 C   0  0  0  0  0  0  0  0  0  0  0  0
   65.1870   32.5810   49.3830 O   0  0  0  0  0  0  0  0  0  0  0  0
   59.0310   32.9370   49.5910 C   0  0  0  0  0  0  0  0  0  0  0  0
   59.6600   33.7660   50.5370 C   0  0  0  0  0  0  0  0  0  0  0  0
   59.4400   33.5730   51.9020 C   0  0  0  0  0  0  0  0  0  0  0  0
   58.5990   32.5470   52.3400 C   0  0  0  0  0  0  0  0  0  0  0  0
   58.3310   32.2990   54.0540 Cl  0  0  0  0  0  0  0  0  0  0  0  0
   57.9780   31.7120   51.4100 C   0  0  0  0  0  0  0  0  0  0  0  0
   58.1920   31.9040   50.0440 C   0  0  0  0  0  0  0  0  0  0  0  0
   58.8959   30.2798   48.2848 H   0  0  0  0  0  0  0  0  0  0  0  0
   59.3349   28.1445   47.0756 H   0  0  0  0  0  0  0  0  0  0  0  0
   59.1219   28.0470   44.5913 H   0  0  0  0  0  0  0  0  0  0  0  0
   58.4967   30.0909   43.3100 H   0  0  0  0  0  0  0  0  0  0  0  0
   62.7228   35.2141   47.5648 H   0  0  0  0  0  0  0  0  0  0  0  0
   63.5167   34.3062   48.9051 H   0  0  0  0  0  0  0  0  0  0  0  0
   62.7840   33.1442   46.1683 H   0  0  0  0  0  0  0  0  0  0  0  0
   64.4361   33.6869   46.6908 H   0  0  0  0  0  0  0  0  0  0  0  0
   64.4760   31.3890   47.0910 H   0  0  0  0  0  0  0  0  0  0  0  0
   60.3153   29.7588   49.0093 H   0  0  0  0  0  0  0  0  0  0  0  0
   60.1658   29.5845   51.5222 H   0  0  0  0  0  0  0  0  0  0  0  0
   61.9566   30.5865   52.9599 H   0  0  0  0  0  0  0  0  0  0  0  0
   63.9078   31.7755   51.8982 H   0  0  0  0  0  0  0  0  0  0  0  0
   60.3292   34.5711   50.1994 H   0  0  0  0  0  0  0  0  0  0  0  0
   59.9303   34.2307   52.6349 H   0  0  0  0  0  0  0  0  0  0  0  0
   57.3189   30.9013   51.7540 H   0  0  0  0  0  0  0  0  0  0  0  0
   57.7002   31.2417   49.3163 H   0  0  0  0  0  0  0  0  0  0  0  0
  1  2  2  0
  2  3  1  0
  3  4  2  0
  4  5  1  0
  5  6  2  0
  6  7  1  0
  7  8  2  0
  8  9  1  0
  2 10  1  0
 10 11  1  0
 11 12  2  0
 11 13  1  0
 13 14  1  0
 14 15  1  0
 15 16  1  0
 16 17  1  0
 17 18  2  0
 17 19  1  0
 19 20  2  0
 20 21  1  0
 21 22  2  0
 22 23  1  0
 23 24  2  0
 24 25  1  0
 25 26  2  0
 10 27  1  0
 27 28  2  0
 28 29  1  0
 29 30  2  0
 30 31  1  0
 30 32  1  0
 32 33  2  0
  8  3  1  0
 25 16  1  0
 33 27  1  0
 24 19  1  0
  4 34  1  0
  5 35  1  0
  6 36  1  0
  7 37  1  0
 14 38  1  0
 14 39  1  0
 15 40  1  0
 15 41  1  0
 16 42  1  0
 20 43  1  0
 21 44  1  0
 22 45  1  0
 23 46  1  0
 28 47  1  0
 29 48  1  0
 32 49  1  0
 33 50  1  0
M  CHG  1  16   1
M  END
>  <UniqueID>  (53) 
46

>  <SMILES>  (53) 
O=C(c1ccccc1Cl)N(C(=S)OCC[NH+]1C(=O)c2ccccc2C1=O)c1ccc(Cl)cc1

>  <Energy>  (53) 
92.82771319354192

>  <Genealogy>  (53) 
O=C(c1ccccc1Cl)N(C(=S)OCC[NH+]1C(=O)c2ccccc2C1=O)c1ccc(Cl)cc1 (protonated)
O=C(c1ccccc1Cl)N(C(=S)OCC[NH+]1C(=O)c2ccccc2C1=O)c1ccc(Cl)cc1 (3D coordinates assigned)
O=C(c1ccccc1Cl)N(C(=S)OCC[NH+]1C(=O)c2ccccc2C1=O)c1ccc(Cl)cc1 (nonaromatic ring conformer: 92.82771319354192 kcal/mol)

>  <smiles>  (53) 
O=C1c2ccccc2C(=O)N1CCOC(=S)N(C(=O)c1ccccc1Cl)c1ccc(Cl)cc1

>  <score_type>  (53) 
oracle

>  <origin>  (53) 
adg

>  <m_score__min__energy>  (53) 
-8.5399999999999991

>  <m_primary>  (53) 
energy

$$$$
53:0
     RDKit          3D

 41 42  0  0  0  0  0  0  0  0999 V2000
   54.7740   27.1560   45.0360 H   0  0  0  0  0  0  0  0  0  0  0  0
   55.1290   26.6800   45.8560 O   0  0  0  0  0  0  0  0  0  0  0  0
   56.4900   26.4330   46.0480 C   0  0  0  0  0  0  0  0  0  0  0  0
   56.8790   25.4350   46.9460 C   0  0  0  0  0  0  0  0  0  0  0  0
   56.1164   24.8567   47.4881 H   0  0  0  0  0  0  0  0  0  0  0  0
   58.2330   25.1710   47.1560 C   0  0  0  0  0  0  0  0  0  0  0  0
   58.5438   24.3880   47.8634 H   0  0  0  0  0  0  0  0  0  0  0  0
   59.1880   25.9110   46.4590 C   0  0  0  0  0  0  0  0  0  0  0  0
   60.2586   25.7112   46.6134 H   0  0  0  0  0  0  0  0  0  0  0  0
   58.7960   26.8790   45.5890 N   0  0  0  0  0  0  0  0  0  0  0  0
   57.4810   27.1640   45.3630 C   0  0  0  0  0  0  0  0  0  0  0  0
   57.1300   28.1040   44.5320 N   0  0  0  0  0  0  0  0  0  0  0  0
   56.4300   29.3230   44.8400 C   0  0  0  0  0  0  0  0  0  0  0  0
   55.1680   29.3490   44.8650 O   0  0  0  0  0  0  0  0  0  0  0  0
   57.1940   30.5590   45.1290 C   0  0  0  0  0  0  0  0  0  0  0  0
   57.0650   31.6910   44.3030 C   0  0  0  0  0  0  0  0  0  0  0  0
   56.3977   31.6561   43.4292 H   0  0  0  0  0  0  0  0  0  0  0  0
   57.7790   32.8600   44.5850 C   0  0  0  0  0  0  0  0  0  0  0  0
   57.6711   33.7382   43.9315 H   0  0  0  0  0  0  0  0  0  0  0  0
   58.6290   32.9180   45.6930 C   0  0  0  0  0  0  0  0  0  0  0  0
   59.5330   34.3940   46.0230 S   0  0  0  0  0  0  0  0  0  0  0  0
   59.2570   35.3930   44.9350 O   0  0  0  0  0  0  0  0  0  0  0  0
   59.1000   34.9870   47.3360 O   0  0  0  0  0  0  0  0  0  0  0  0
   61.2330   34.0400   46.0600 N   0  0  0  0  0  0  0  0  0  0  0  0
   61.6650   33.8340   47.4410 C   0  0  0  0  0  0  0  0  0  0  0  0
   60.8959   33.2648   47.9837 H   0  0  0  0  0  0  0  0  0  0  0  0
   61.8129   34.8102   47.9260 H   0  0  0  0  0  0  0  0  0  0  0  0
   62.9490   33.0740   47.4580 C   0  0  0  0  0  0  0  0  0  0  0  0
   64.0470   33.6950   47.4520 O   0  0  0  0  0  0  0  0  0  0  0  0
   62.9190   31.6760   47.5370 O   0  0  0  0  0  0  0  0  0  0  0  0
   61.7670   30.8970   47.2260 C   0  0  0  0  0  0  0  0  0  0  0  0
   62.0738   30.0140   46.6461 H   0  0  0  0  0  0  0  0  0  0  0  0
   61.0698   31.5143   46.6405 H   0  0  0  0  0  0  0  0  0  0  0  0
   61.0660   30.4400   48.5010 C   0  0  0  0  0  0  0  0  0  0  0  0
   61.6238   30.8036   49.3766 H   0  0  0  0  0  0  0  0  0  0  0  0
   60.0438   30.8458   48.5230 H   0  0  0  0  0  0  0  0  0  0  0  0
   61.0248   29.3410   48.5230 H   0  0  0  0  0  0  0  0  0  0  0  0
   58.7690   31.7950   46.5170 C   0  0  0  0  0  0  0  0  0  0  0  0
   59.4404   31.8344   47.3874 H   0  0  0  0  0  0  0  0  0  0  0  0
   58.0590   30.6240   46.2380 C   0  0  0  0  0  0  0  0  0  0  0  0
   58.1769   29.7460   46.8901 H   0  0  0  0  0  0  0  0  0  0  0  0
  1  2  1  0
  2  3  1  0
  3  4  2  0
  4  5  1  0
  4  6  1  0
  6  7  1  0
  6  8  2  0
  8  9  1  0
  8 10  1  0
 10 11  1  0
 11 12  2  0
 12 13  1  0
 13 14  2  0
 13 15  1  0
 15 16  2  0
 16 17  1  0
 16 18  1  0
 18 19  1  0
 18 20  2  0
 20 21  1  0
 21 22  2  0
 21 23  2  0
 21 24  1  0
 24 25  1  0
 25 26  1  0
 25 27  1  0
 25 28  1  0
 28 29  2  0
 28 30  1  0
 30 31  1  0
 31 32  1  0
 31 33  1  0
 31 34  1  0
 34 35  1  0
 34 36  1  0
 34 37  1  0
 20 38  1  0
 38 39  1  0
 38 40  2  0
 40 41  1  0
 11  3  1  0
 40 15  1  0
M  CHG  2  10  -1  24  -1
M  END
>  <UniqueID>  (54) 
47

>  <SMILES>  (54) 
CCOC(=O)C[N-]S(=O)(=O)c1ccc(C(=O)/N=c2\[n-]cccc2O)cc1

>  <Energy>  (54) 
39.19839573178933

>  <Genealogy>  (54) 
CCOC(=O)C[N-]S(=O)(=O)c1ccc(C(=O)N=c2[n-]cccc2O)cc1 (protonated)
CCOC(=O)C[N-]S(=O)(=O)c1ccc(C(=O)/N=c2\[n-]cccc2O)cc1 (cis-trans isomerization)
CCOC(=O)C[N-]S(=O)(=O)c1ccc(C(=O)/N=c2\[n-]cccc2O)cc1 (3D coordinates assigned)
CCOC(=O)C[N-]S(=O)(=O)c1ccc(C(=O)/N=c2\[n-]cccc2O)cc1 (optimized conformer: 39.19839573178933 kcal/mol)

>  <smiles>  (54) 
CCOC(=O)CNS(=O)(=O)c1ccc(C(=O)N=c2[nH]cccc2O)cc1

>  <score_type>  (54) 
oracle

>  <origin>  (54) 
adg

>  <m_score__min__energy>  (54) 
-10.91

>  <m_primary>  (54) 
energy

$$$$
54:0
     RDKit          3D

 46 48  0  0  0  0  0  0  0  0999 V2000
   64.6018   32.0675   48.2607 H   0  0  0  0  0  0  0  0  0  0  0  0
   63.6640   32.6420   48.2840 C   0  0  0  0  0  0  0  0  0  0  0  0
   63.0960   33.1050   47.0930 C   0  0  0  0  0  0  0  0  0  0  0  0
   63.5858   32.8896   46.1319 H   0  0  0  0  0  0  0  0  0  0  0  0
   61.9090   33.8400   47.1200 C   0  0  0  0  0  0  0  0  0  0  0  0
   61.4527   34.1781   46.1779 H   0  0  0  0  0  0  0  0  0  0  0  0
   61.2960   34.1490   48.3430 C   0  0  0  0  0  0  0  0  0  0  0  0
   60.0680   34.8960   48.3460 N   0  0  0  0  0  0  0  0  0  0  0  0
   59.2950   35.0630   47.3400 N   0  0  0  0  0  0  0  0  0  0  0  0
   58.8970   34.0450   46.4060 C   0  0  0  0  0  0  0  0  0  0  0  0
   58.7980   34.3120   45.0300 C   0  0  0  0  0  0  0  0  0  0  0  0
   58.9936   35.3266   44.6528 H   0  0  0  0  0  0  0  0  0  0  0  0
   58.4520   33.2930   44.1400 C   0  0  0  0  0  0  0  0  0  0  0  0
   58.3684   33.5137   43.0656 H   0  0  0  0  0  0  0  0  0  0  0  0
   58.2100   31.9910   44.6020 C   0  0  0  0  0  0  0  0  0  0  0  0
   57.9010   30.9530   43.6560 N   0  0  0  0  0  0  0  0  0  0  0  0
   58.3440   31.0000   42.7090 H   0  0  0  0  0  0  0  0  0  0  0  0
   56.9870   29.8750   43.9130 C   0  0  0  0  0  0  0  0  0  0  0  0
   56.1220   29.9720   44.8250 O   0  0  0  0  0  0  0  0  0  0  0  0
   57.0690   28.6150   43.1070 C   0  0  0  0  0  0  0  0  0  0  0  0
   57.3638   28.8601   42.0760 H   0  0  0  0  0  0  0  0  0  0  0  0
   56.0859   28.1215   43.1052 H   0  0  0  0  0  0  0  0  0  0  0  0
   58.0880   27.6870   43.7100 C   0  0  0  0  0  0  0  0  0  0  0  0
   57.7900   26.5200   43.9170 O   0  0  0  0  0  0  0  0  0  0  0  0
   59.4540   28.1850   44.1090 C   0  0  0  0  0  0  0  0  0  0  0  0
   60.1987   27.4021   43.9026 H   0  0  0  0  0  0  0  0  0  0  0  0
   59.6840   29.0914   43.5298 H   0  0  0  0  0  0  0  0  0  0  0  0
   59.4870   28.5250   45.5760 C   0  0  0  0  0  0  0  0  0  0  0  0
   58.5290   27.9960   46.4580 C   0  0  0  0  0  0  0  0  0  0  0  0
   57.7332   27.3418   46.0722 H   0  0  0  0  0  0  0  0  0  0  0  0
   58.5810   28.2960   47.8230 C   0  0  0  0  0  0  0  0  0  0  0  0
   57.8205   27.8869   48.5044 H   0  0  0  0  0  0  0  0  0  0  0  0
   59.5980   29.1150   48.3230 C   0  0  0  0  0  0  0  0  0  0  0  0
   59.6439   29.3395   49.3989 H   0  0  0  0  0  0  0  0  0  0  0  0
   60.5570   29.6490   47.4560 C   0  0  0  0  0  0  0  0  0  0  0  0
   61.3530   30.2987   47.8487 H   0  0  0  0  0  0  0  0  0  0  0  0
   60.5030   29.3560   46.0880 C   0  0  0  0  0  0  0  0  0  0  0  0
   61.2586   29.7773   45.4086 H   0  0  0  0  0  0  0  0  0  0  0  0
   58.3690   31.7150   45.9730 C   0  0  0  0  0  0  0  0  0  0  0  0
   58.2194   30.6909   46.3456 H   0  0  0  0  0  0  0  0  0  0  0  0
   58.7160   32.7350   46.8640 C   0  0  0  0  0  0  0  0  0  0  0  0
   58.8476   32.5064   47.9319 H   0  0  0  0  0  0  0  0  0  0  0  0
   61.8470   33.6500   49.5350 C   0  0  0  0  0  0  0  0  0  0  0  0
   61.3430   33.8399   50.4941 H   0  0  0  0  0  0  0  0  0  0  0  0
   63.0370   32.9110   49.5050 C   0  0  0  0  0  0  0  0  0  0  0  0
   63.4785   32.5421   50.4425 H   0  0  0  0  0  0  0  0  0  0  0  0
  1  2  1  0
  2  3  2  0
  3  4  1  0
  3  5  1  0
  5  6  1  0
  5  7  2  0
  7  8  1  0
  8  9  2  0
  9 10  1  0
 10 11  2  0
 11 12  1  0
 11 13  1  0
 13 14  1  0
 13 15  2  0
 15 16  1  0
 16 17  1  0
 16 18  1  0
 18 19  2  0
 18 20  1  0
 20 21  1  0
 20 22  1  0
 20 23  1  0
 23 24  2  0
 23 25  1  0
 25 26  1  0
 25 27  1  0
 25 28  1  0
 28 29  2  0
 29 30  1  0
 29 31  1  0
 31 32  1  0
 31 33  2  0
 33 34  1  0
 33 35  1  0
 35 36  1  0
 35 37  2  0
 37 38  1  0
 15 39  1  0
 39 40  1  0
 39 41  2  0
 41 42  1  0
  7 43  1  0
 43 44  1  0
 43 45  2  0
 45 46  1  0
 45  2  1  0
 41 10  1  0
 37 28  1  0
M  END
>  <UniqueID>  (55) 
48

>  <SMILES>  (55) 
O=C(CC(=O)Nc1ccc(/N=N\c2ccccc2)cc1)Cc1ccccc1

>  <Energy>  (55) 
57.71285322550432

>  <Genealogy>  (55) 
O=C(CC(=O)Nc1ccc(/N=N\c2ccccc2)cc1)Cc1ccccc1 (cis-trans isomerization)
O=C(CC(=O)Nc1ccc(/N=N\c2ccccc2)cc1)Cc1ccccc1 (3D coordinates assigned)
O=C(CC(=O)Nc1ccc(/N=N\c2ccccc2)cc1)Cc1ccccc1 (optimized conformer: 57.71285322550432 kcal/mol)

>  <smiles>  (55) 
O=C(CC(=O)Nc1ccc(N=Nc2ccccc2)cc1)Cc1ccccc1

>  <score_type>  (55) 
oracle

>  <origin>  (55) 
adg

>  <m_score__min__energy>  (55) 
-9.0899999999999999

>  <m_primary>  (55) 
energy

$$$$
55:0
     RDKit          3D

 66 70  0  0  0  0  0  0  0  0999 V2000
   58.1440   28.0010   48.1030 C   0  0  0  0  0  0  0  0  0  0  0  0
   58.7770   28.2410   46.7500 C   0  0  0  0  0  0  0  0  0  0  0  0
   60.1490   28.5910   46.6690 C   0  0  0  0  0  0  0  0  0  0  0  0
   60.8970   28.8270   47.8750 N   0  0  0  0  0  0  0  0  0  0  0  0
   61.1990   30.0990   48.4650 C   0  0  0  0  0  0  0  0  0  0  0  0
   62.0830   30.8370   47.9510 O   0  0  0  0  0  0  0  0  0  0  0  0
   60.4910   30.5320   49.6460 N   0  0  0  0  0  0  0  0  0  0  0  0
   59.0250   30.5300   49.6310 C   0  0  0  0  0  0  0  0  0  0  0  0
   58.5230   31.9650   49.6790 C   0  0  0  0  0  0  0  0  0  0  0  0
   58.8040   32.6380   51.3430 S   0  0  0  0  0  0  0  0  0  0  0  0
   60.5640   32.2510   51.4600 C   0  0  0  0  0  0  0  0  0  0  0  0
   61.2900   32.9590   52.3660 N   0  0  0  0  0  0  0  0  0  0  0  0
   62.5920   32.6800   52.6320 C   0  0  0  0  0  0  0  0  0  0  0  0
   63.2210   31.6170   51.9900 C   0  0  0  0  0  0  0  0  0  0  0  0
   62.5140   30.8780   51.0420 C   0  0  0  0  0  0  0  0  0  0  0  0
   61.1810   31.2060   50.7290 C   0  0  0  0  0  0  0  0  0  0  0  0
   60.7440   28.7900   45.4110 C   0  0  0  0  0  0  0  0  0  0  0  0
   60.0060   28.6190   44.2460 C   0  0  0  0  0  0  0  0  0  0  0  0
   58.6550   28.2940   44.3110 C   0  0  0  0  0  0  0  0  0  0  0  0
   58.0150   28.1230   45.5510 C   0  0  0  0  0  0  0  0  0  0  0  0
   56.5510   27.8560   45.5450 C   0  0  0  0  0  0  0  0  0  0  0  0
   56.1040   26.7210   45.8630 O   0  0  0  0  0  0  0  0  0  0  0  0
   55.6360   28.9160   45.2390 N   0  0  0  0  0  0  0  0  0  0  0  0
   55.4780   29.4870   43.9040 C   0  0  0  0  0  0  0  0  0  0  0  0
   56.3030   30.7290   43.7550 C   0  0  0  0  0  0  0  0  0  0  0  0
   56.9340   30.9270   42.6820 O   0  0  0  0  0  0  0  0  0  0  0  0
   56.3490   31.6890   44.8210 N   0  0  0  0  0  0  0  0  0  0  0  0
   57.5250   32.1700   45.4870 C   0  0  0  0  0  0  0  0  0  0  0  0
   58.6440   31.3490   45.7030 C   0  0  0  0  0  0  0  0  0  0  0  0
   59.7690   31.8520   46.3620 C   0  0  0  0  0  0  0  0  0  0  0  0
   59.7920   33.1780   46.8210 C   0  0  0  0  0  0  0  0  0  0  0  0
   60.9610   33.6920   47.4870 N   0  0  0  0  0  0  0  0  0  0  0  0
   62.2360   33.7750   46.7690 C   0  0  0  0  0  0  0  0  0  0  0  0
   63.3900   33.6360   47.7630 C   0  0  0  0  0  0  0  0  0  0  0  0
   63.2590   34.5710   48.8170 O   0  0  0  0  0  0  0  0  0  0  0  0
   62.0980   34.2830   49.5740 C   0  0  0  0  0  0  0  0  0  0  0  0
   60.8340   34.4640   48.7270 C   0  0  0  0  0  0  0  0  0  0  0  0
   58.6580   33.9860   46.6290 C   0  0  0  0  0  0  0  0  0  0  0  0
   57.5320   33.4800   45.9740 C   0  0  0  0  0  0  0  0  0  0  0  0
   58.8578   28.2716   48.8950 H   0  0  0  0  0  0  0  0  0  0  0  0
   57.2386   28.6182   48.1989 H   0  0  0  0  0  0  0  0  0  0  0  0
   57.8754   26.9386   48.1989 H   0  0  0  0  0  0  0  0  0  0  0  0
   58.6670   30.0455   48.7106 H   0  0  0  0  0  0  0  0  0  0  0  0
   58.6470   29.9766   50.5033 H   0  0  0  0  0  0  0  0  0  0  0  0
   59.0678   32.5707   48.9399 H   0  0  0  0  0  0  0  0  0  0  0  0
   57.4482   31.9895   49.4460 H   0  0  0  0  0  0  0  0  0  0  0  0
   63.1496   33.2939   53.3547 H   0  0  0  0  0  0  0  0  0  0  0  0
   64.2644   31.3627   52.2279 H   0  0  0  0  0  0  0  0  0  0  0  0
   63.0015   30.0323   50.5348 H   0  0  0  0  0  0  0  0  0  0  0  0
   61.8023   29.0834   45.3483 H   0  0  0  0  0  0  0  0  0  0  0  0
   60.4928   28.7413   43.2672 H   0  0  0  0  0  0  0  0  0  0  0  0
   58.0806   28.1693   43.3812 H   0  0  0  0  0  0  0  0  0  0  0  0
   55.8001   28.7482   43.1554 H   0  0  0  0  0  0  0  0  0  0  0  0
   54.4196   29.7470   43.7549 H   0  0  0  0  0  0  0  0  0  0  0  0
   58.6348   30.3065   45.3522 H   0  0  0  0  0  0  0  0  0  0  0  0
   60.6431   31.2037   46.5222 H   0  0  0  0  0  0  0  0  0  0  0  0
   62.2921   32.9655   46.0263 H   0  0  0  0  0  0  0  0  0  0  0  0
   62.3068   34.7465   46.2580 H   0  0  0  0  0  0  0  0  0  0  0  0
   63.3859   32.6184   48.1807 H   0  0  0  0  0  0  0  0  0  0  0  0
   64.3358   33.8288   47.2354 H   0  0  0  0  0  0  0  0  0  0  0  0
   62.1481   33.2429   49.9285 H   0  0  0  0  0  0  0  0  0  0  0  0
   62.0526   34.9775   50.4258 H   0  0  0  0  0  0  0  0  0  0  0  0
   59.9600   34.1083   49.2923 H   0  0  0  0  0  0  0  0  0  0  0  0
   60.7053   35.5291   48.4839 H   0  0  0  0  0  0  0  0  0  0  0  0
   58.6568   35.0228   46.9965 H   0  0  0  0  0  0  0  0  0  0  0  0
   56.6452   34.1171   45.8408 H   0  0  0  0  0  0  0  0  0  0  0  0
  1  2  1  0
  2  3  2  0
  3  4  1  0
  4  5  1  0
  5  6  2  0
  5  7  1  0
  7  8  1  0
  8  9  1  0
  9 10  1  0
 10 11  1  0
 11 12  2  0
 12 13  1  0
 13 14  2  0
 14 15  1  0
 15 16  2  0
  3 17  1  0
 17 18  2  0
 18 19  1  0
 19 20  2  0
 20 21  1  0
 21 22  2  0
 21 23  1  0
 23 24  1  0
 24 25  1  0
 25 26  2  0
 25 27  1  0
 27 28  1  0
 28 29  2  0
 29 30  1  0
 30 31  2  0
 31 32  1  0
 32 33  1  0
 33 34  1  0
 34 35  1  0
 35 36  1  0
 36 37  1  0
 31 38  1  0
 38 39  2  0
 20  2  1  0
 39 28  1  0
 16  7  1  0
 37 32  1  0
 16 11  1  0
  1 40  1  0
  1 41  1  0
  1 42  1  0
  8 43  1  0
  8 44  1  0
  9 45  1  0
  9 46  1  0
 13 47  1  0
 14 48  1  0
 15 49  1  0
 17 50  1  0
 18 51  1  0
 19 52  1  0
 24 53  1  0
 24 54  1  0
 29 55  1  0
 30 56  1  0
 33 57  1  0
 33 58  1  0
 34 59  1  0
 34 60  1  0
 36 61  1  0
 36 62  1  0
 37 63  1  0
 37 64  1  0
 38 65  1  0
 39 66  1  0
M  CHG  3   4  -1  23  -1  27  -1
M  END
>  <UniqueID>  (56) 
49

>  <SMILES>  (56) 
Cc1c([N-]C(=O)N2CCSc3ncccc32)cccc1C(=O)[N-]CC(=O)[N-]c1ccc(N2CCOCC2)cc1

>  <Energy>  (56) 
101.63838646905808

>  <Genealogy>  (56) 
Cc1c([N-]C(=O)N2CCSc3ncccc32)cccc1C(=O)[N-]CC(=O)[N-]c1ccc(N2CCOCC2)cc1 (protonated)
Cc1c([N-]C(=O)N2CCSc3ncccc32)cccc1C(=O)[N-]CC(=O)[N-]c1ccc(N2CCOCC2)cc1 (3D coordinates assigned)
Cc1c([N-]C(=O)N2CCSc3ncccc32)cccc1C(=O)[N-]CC(=O)[N-]c1ccc(N2CCOCC2)cc1 (nonaromatic ring conformer: 101.63838646905808 kcal/mol)

>  <smiles>  (56) 
Cc1c(NC(=O)N2CCSc3ncccc32)cccc1C(=O)NCC(=O)Nc1ccc(N2CCOCC2)cc1

>  <score_type>  (56) 
oracle

>  <origin>  (56) 
adg

>  <m_score__min__energy>  (56) 
-13.34

>  <m_primary>  (56) 
energy

$$$$
56:0
     RDKit          3D

 58 61  0  0  0  0  0  0  0  0999 V2000
   63.5690   30.4800   53.5040 C   0  0  0  0  0  0  0  0  0  0  0  0
   62.3670   31.1450   52.8930 C   0  0  0  0  0  0  0  0  0  0  0  0
   61.6650   30.4400   51.9680 N   0  0  0  0  0  0  0  0  0  0  0  0
   60.5600   30.9430   51.3720 C   0  0  0  0  0  0  0  0  0  0  0  0
   59.8480   30.1710   50.4450 C   0  0  0  0  0  0  0  0  0  0  0  0
   58.6960   30.6850   49.8440 C   0  0  0  0  0  0  0  0  0  0  0  0
   58.2600   31.9750   50.1570 C   0  0  0  0  0  0  0  0  0  0  0  0
   58.9730   32.7550   51.0720 C   0  0  0  0  0  0  0  0  0  0  0  0
   60.1240   32.2390   51.6950 C   0  0  0  0  0  0  0  0  0  0  0  0
   60.8520   32.9670   52.6520 C   0  0  0  0  0  0  0  0  0  0  0  0
   60.4650   34.1260   52.9770 O   0  0  0  0  0  0  0  0  0  0  0  0
   61.9650   32.4170   53.2480 N   0  0  0  0  0  0  0  0  0  0  0  0
   62.6240   33.1570   54.3470 C   0  0  0  0  0  0  0  0  0  0  0  0
   64.0010   33.5750   53.9240 C   0  0  0  0  0  0  0  0  0  0  0  0
   64.9890   33.3360   54.6670 O   0  0  0  0  0  0  0  0  0  0  0  0
   64.1730   34.2730   52.6870 N   0  0  0  0  0  0  0  0  0  0  0  0
   63.7070   33.8380   51.4030 C   0  0  0  0  0  0  0  0  0  0  0  0
   64.2980   32.7030   50.8320 C   0  0  0  0  0  0  0  0  0  0  0  0
   63.9880   32.3280   49.5230 C   0  0  0  0  0  0  0  0  0  0  0  0
   63.0740   33.0780   48.7710 C   0  0  0  0  0  0  0  0  0  0  0  0
   62.8300   32.6870   47.0710 S   0  0  0  0  0  0  0  0  0  0  0  0
   63.7140   33.5700   46.2370 O   0  0  0  0  0  0  0  0  0  0  0  0
   63.1760   31.2530   46.7830 O   0  0  0  0  0  0  0  0  0  0  0  0
   61.1720   32.9950   46.6680 N   0  0  0  0  0  0  0  0  0  0  0  0
   60.1420   32.0000   46.6530 C   0  0  0  0  0  0  0  0  0  0  0  0
   58.5890   32.5150   46.7640 S   0  0  0  0  0  0  0  0  0  0  0  0
   60.4740   30.5950   46.6830 N   0  0  0  0  0  0  0  0  0  0  0  0
   59.5370   29.5090   46.5730 C   0  0  0  0  0  0  0  0  0  0  0  0
   59.6080   28.4520   47.4930 C   0  0  0  0  0  0  0  0  0  0  0  0
   58.7660   27.3450   47.3670 C   0  0  0  0  0  0  0  0  0  0  0  0
   57.8420   27.2770   46.3160 C   0  0  0  0  0  0  0  0  0  0  0  0
   56.7800   25.8800   46.1730 S   0  0  0  0  0  0  0  0  0  0  0  0
   55.1430   26.4110   45.9890 N   0  0  0  0  0  0  0  0  0  0  0  0
   57.1720   25.0550   44.9770 O   0  0  0  0  0  0  0  0  0  0  0  0
   56.8980   25.0290   47.4070 O   0  0  0  0  0  0  0  0  0  0  0  0
   57.7730   28.3240   45.3870 C   0  0  0  0  0  0  0  0  0  0  0  0
   58.6290   29.4240   45.5010 C   0  0  0  0  0  0  0  0  0  0  0  0
   62.4510   34.1930   49.3500 C   0  0  0  0  0  0  0  0  0  0  0  0
   62.7750   34.5810   50.6530 C   0  0  0  0  0  0  0  0  0  0  0  0
   63.4934   30.5219   54.6006 H   0  0  0  0  0  0  0  0  0  0  0  0
   63.6118   29.4299   53.1792 H   0  0  0  0  0  0  0  0  0  0  0  0
   64.4813   31.0017   53.1792 H   0  0  0  0  0  0  0  0  0  0  0  0
   60.1961   29.1592   50.1899 H   0  0  0  0  0  0  0  0  0  0  0  0
   58.1321   30.0737   49.1241 H   0  0  0  0  0  0  0  0  0  0  0  0
   57.3533   32.3779   49.6821 H   0  0  0  0  0  0  0  0  0  0  0  0
   58.6333   33.7748   51.3055 H   0  0  0  0  0  0  0  0  0  0  0  0
   62.0308   34.0500   54.5931 H   0  0  0  0  0  0  0  0  0  0  0  0
   62.6975   32.5058   55.2305 H   0  0  0  0  0  0  0  0  0  0  0  0
   65.0103   32.1039   51.4183 H   0  0  0  0  0  0  0  0  0  0  0  0
   64.4633   31.4402   49.0804 H   0  0  0  0  0  0  0  0  0  0  0  0
   61.4680   30.3210   46.8300 H   0  0  0  0  0  0  0  0  0  0  0  0
   60.3323   28.4956   48.3197 H   0  0  0  0  0  0  0  0  0  0  0  0
   58.8285   26.5233   48.0957 H   0  0  0  0  0  0  0  0  0  0  0  0
   55.1600   27.4570   45.9970 H   0  0  0  0  0  0  0  0  0  0  0  0
   57.0430   28.2804   44.5653 H   0  0  0  0  0  0  0  0  0  0  0  0
   58.5925   30.2264   44.7495 H   0  0  0  0  0  0  0  0  0  0  0  0
   61.7053   34.7637   48.7771 H   0  0  0  0  0  0  0  0  0  0  0  0
   62.3004   35.4698   51.0942 H   0  0  0  0  0  0  0  0  0  0  0  0
  1  2  1  0
  2  3  2  0
  3  4  1  0
  4  5  2  0
  5  6  1  0
  6  7  2  0
  7  8  1  0
  8  9  2  0
  9 10  1  0
 10 11  2  0
 10 12  1  0
 12 13  1  0
 13 14  1  0
 14 15  2  0
 14 16  1  0
 16 17  1  0
 17 18  2  0
 18 19  1  0
 19 20  2  0
 20 21  1  0
 21 22  2  0
 21 23  2  0
 21 24  1  0
 24 25  1  0
 25 26  2  0
 25 27  1  0
 27 28  1  0
 28 29  2  0
 29 30  1  0
 30 31  2  0
 31 32  1  0
 32 33  1  0
 32 34  2  0
 32 35  2  0
 31 36  1  0
 36 37  2  0
 20 38  1  0
 38 39  2  0
 12  2  1  0
 39 17  1  0
  9  4  1  0
 37 28  1  0
  1 40  1  0
  1 41  1  0
  1 42  1  0
  5 43  1  0
  6 44  1  0
  7 45  1  0
  8 46  1  0
 13 47  1  0
 13 48  1  0
 18 49  1  0
 19 50  1  0
 27 51  1  0
 29 52  1  0
 30 53  1  0
 33 54  1  0
 36 55  1  0
 37 56  1  0
 38 57  1  0
 39 58  1  0
M  CHG  3  16  -1  24  -1  33  -1
M  END
>  <UniqueID>  (57) 
50

>  <SMILES>  (57) 
Cc1nc2ccccc2c(=O)n1CC(=O)[N-]c1ccc(S(=O)(=O)[N-]C(=S)Nc2ccc(S([NH-])(=O)=O)cc2)cc1

>  <Energy>  (57) 
79.94167918235182

>  <Genealogy>  (57) 
Cc1nc2ccccc2c(=O)n1CC(=O)[N-]c1ccc(S(=O)(=O)[N-]C(=S)Nc2ccc(S([NH-])(=O)=O)cc2)cc1 (protonated)
Cc1nc2ccccc2c(=O)n1CC(=O)[N-]c1ccc(S(=O)(=O)[N-]C(=S)Nc2ccc(S([NH-])(=O)=O)cc2)cc1 (3D coordinates assigned)
Cc1nc2ccccc2c(=O)n1CC(=O)[N-]c1ccc(S(=O)(=O)[N-]C(=S)Nc2ccc(S([NH-])(=O)=O)cc2)cc1 (optimized conformer: 79.94167918235182 kcal/mol)

>  <smiles>  (57) 
Cc1nc2ccccc2c(=O)n1CC(=O)Nc1ccc(S(=O)(=O)NC(=S)Nc2ccc(S(N)(=O)=O)cc2)cc1

>  <score_type>  (57) 
oracle

>  <origin>  (57) 
adg

>  <m_score__min__energy>  (57) 
-15.1

>  <m_primary>  (57) 
energy

$$$$
57:0
     RDKit          3D

 42 44  0  0  0  0  0  0  0  0999 V2000
   54.9540   30.8030   52.4460 C   0  0  0  0  0  0  0  0  0  0  0  0
   56.3100   31.0350   51.8690 C   0  0  0  0  0  0  0  0  0  0  0  0
   57.0250   32.2120   51.9210 C   0  0  0  0  0  0  0  0  0  0  0  0
   58.1960   31.8890   51.2580 C   0  0  0  0  0  0  0  0  0  0  0  0
   59.2190   32.6660   51.0460 N   0  0  0  0  0  0  0  0  0  0  0  0
   59.7590   33.0260   49.7640 C   0  0  0  0  0  0  0  0  0  0  0  0
   60.8440   33.6670   49.7240 O   0  0  0  0  0  0  0  0  0  0  0  0
   59.1110   32.6140   48.4950 C   0  0  0  0  0  0  0  0  0  0  0  0
   59.1020   31.2620   48.1110 C   0  0  0  0  0  0  0  0  0  0  0  0
   58.5470   30.8790   46.8850 C   0  0  0  0  0  0  0  0  0  0  0  0
   57.9820   31.8390   46.0370 C   0  0  0  0  0  0  0  0  0  0  0  0
   57.3940   31.4020   44.4350 S   0  0  0  0  0  0  0  0  0  0  0  0
   57.6120   32.5590   43.5040 O   0  0  0  0  0  0  0  0  0  0  0  0
   55.9290   31.0730   44.4650 O   0  0  0  0  0  0  0  0  0  0  0  0
   58.2850   30.0260   43.8670 N   0  0  0  0  0  0  0  0  0  0  0  0
   58.4840   28.8460   44.6660 C   0  0  0  0  0  0  0  0  0  0  0  0
   59.7500   28.5170   45.1870 C   0  0  0  0  0  0  0  0  0  0  0  0
   59.9220   27.3580   45.9470 C   0  0  0  0  0  0  0  0  0  0  0  0
   58.8360   26.5230   46.2060 C   0  0  0  0  0  0  0  0  0  0  0  0
   57.5680   26.8410   45.7000 C   0  0  0  0  0  0  0  0  0  0  0  0
   56.1920   25.7870   46.0020 S   0  0  0  0  0  0  0  0  0  0  0  0
   56.1170   24.7410   44.9250 O   0  0  0  0  0  0  0  0  0  0  0  0
   56.3390   25.1100   47.3360 O   0  0  0  0  0  0  0  0  0  0  0  0
   54.7830   26.7000   46.0020 O   0  0  0  0  0  0  0  0  0  0  0  0
   57.3940   28.0060   44.9400 C   0  0  0  0  0  0  0  0  0  0  0  0
   57.9550   33.1820   46.4340 C   0  0  0  0  0  0  0  0  0  0  0  0
   58.5100   33.5680   47.6550 C   0  0  0  0  0  0  0  0  0  0  0  0
   58.1720   30.5990   50.8700 N   0  0  0  0  0  0  0  0  0  0  0  0
   57.0240   30.1210   51.2520 O   0  0  0  0  0  0  0  0  0  0  0  0
   55.0161   30.8136   53.5442 H   0  0  0  0  0  0  0  0  0  0  0  0
   54.2716   31.5974   52.1096 H   0  0  0  0  0  0  0  0  0  0  0  0
   54.5745   29.8269   52.1096 H   0  0  0  0  0  0  0  0  0  0  0  0
   56.7364   33.1707   52.3766 H   0  0  0  0  0  0  0  0  0  0  0  0
   59.5335   30.5010   48.7778 H   0  0  0  0  0  0  0  0  0  0  0  0
   58.5546   29.8203   46.5865 H   0  0  0  0  0  0  0  0  0  0  0  0
   58.8490   30.1510   42.9980 H   0  0  0  0  0  0  0  0  0  0  0  0
   60.6088   29.1768   44.9943 H   0  0  0  0  0  0  0  0  0  0  0  0
   60.9165   27.1034   46.3421 H   0  0  0  0  0  0  0  0  0  0  0  0
   58.9744   25.6131   46.8084 H   0  0  0  0  0  0  0  0  0  0  0  0
   56.3960   28.2634   44.5557 H   0  0  0  0  0  0  0  0  0  0  0  0
   57.4938   33.9366   45.7798 H   0  0  0  0  0  0  0  0  0  0  0  0
   58.4771   34.6239   47.9617 H   0  0  0  0  0  0  0  0  0  0  0  0
  1  2  1  0
  2  3  2  0
  3  4  1  0
  4  5  2  3
  5  6  1  0
  6  7  2  0
  6  8  1  0
  8  9  2  0
  9 10  1  0
 10 11  2  0
 11 12  1  0
 12 13  2  0
 12 14  2  0
 12 15  1  0
 15 16  1  0
 16 17  2  0
 17 18  1  0
 18 19  2  0
 19 20  1  0
 20 21  1  0
 21 22  2  0
 21 23  2  0
 21 24  1  0
 20 25  2  0
 11 26  1  0
 26 27  2  0
  4 28  1  0
 28 29  1  0
 29  2  1  0
 27  8  1  0
 25 16  1  0
  1 30  1  0
  1 31  1  0
  1 32  1  0
  3 33  1  0
  9 34  1  0
 10 35  1  0
 15 36  1  0
 17 37  1  0
 18 38  1  0
 19 39  1  0
 25 40  1  0
 26 41  1  0
 27 42  1  0
M  CHG  2  24  -1  28  -1
M  END
>  <UniqueID>  (58) 
51

>  <SMILES>  (58) 
Cc1cc(=NC(=O)c2ccc(S(=O)(=O)Nc3cccc(S(=O)(=O)[O-])c3)cc2)[n-]o1

>  <Energy>  (58) 
84.30597326436673

>  <Genealogy>  (58) 
Cc1cc(=NC(=O)c2ccc(S(=O)(=O)Nc3cccc(S(=O)(=O)[O-])c3)cc2)[n-]o1 (protonated)
Cc1cc(=NC(=O)c2ccc(S(=O)(=O)Nc3cccc(S(=O)(=O)[O-])c3)cc2)[n-]o1 (3D coordinates assigned)
Cc1cc(=NC(=O)c2ccc(S(=O)(=O)Nc3cccc(S(=O)(=O)[O-])c3)cc2)[n-]o1 (optimized conformer: 84.30597326436673 kcal/mol)

>  <smiles>  (58) 
Cc1cc(=NC(=O)c2ccc(S(=O)(=O)Nc3cccc(S(=O)(=O)O)c3)cc2)[nH]o1

>  <score_type>  (58) 
oracle

>  <origin>  (58) 
adg

>  <m_score__min__energy>  (58) 
-14.4

>  <m_primary>  (58) 
energy

$$$$
58:0
     RDKit          3D

 47 50  0  0  0  0  0  0  0  0999 V2000
   59.2670   34.5080   47.8690 C   0  0  0  0  0  0  0  0  0  0  0  0
   58.9360   33.8900   46.5420 C   0  0  0  0  0  0  0  0  0  0  0  0
   59.4240   34.4510   45.3590 C   0  0  0  0  0  0  0  0  0  0  0  0
   59.0780   33.8860   44.1290 C   0  0  0  0  0  0  0  0  0  0  0  0
   58.2520   32.7930   44.0650 N   0  0  0  0  0  0  0  0  0  0  0  0
   57.9140   32.2370   42.8560 C   0  0  0  0  0  0  0  0  0  0  0  0
   58.3560   32.7160   41.7740 O   0  0  0  0  0  0  0  0  0  0  0  0
   57.0710   31.1260   42.8020 C   0  0  0  0  0  0  0  0  0  0  0  0
   56.5830   30.5910   43.9930 C   0  0  0  0  0  0  0  0  0  0  0  0
   55.6850   29.3890   43.9810 C   0  0  0  0  0  0  0  0  0  0  0  0
   55.8000   28.6610   45.2040 O   0  0  0  0  0  0  0  0  0  0  0  0
   56.8920   27.8570   45.5710 C   0  0  0  0  0  0  0  0  0  0  0  0
   58.2150   28.1560   45.1960 C   0  0  0  0  0  0  0  0  0  0  0  0
   59.2630   27.3200   45.5870 C   0  0  0  0  0  0  0  0  0  0  0  0
   59.0040   26.1780   46.3490 C   0  0  0  0  0  0  0  0  0  0  0  0
   57.6860   25.8590   46.7150 C   0  0  0  0  0  0  0  0  0  0  0  0
   57.3830   24.6990   47.5050 N   0  0  0  0  0  0  0  0  0  0  0  0
   57.2200   23.3620   47.0130 C   0  0  0  0  0  0  0  0  0  0  0  0
   57.2960   22.4070   47.8300 O   0  0  0  0  0  0  0  0  0  0  0  0
   56.9140   23.0790   45.5900 C   0  0  0  0  0  0  0  0  0  0  0  0
   57.6910   22.1660   44.8520 C   0  0  0  0  0  0  0  0  0  0  0  0
   57.3930   21.9090   43.5110 C   0  0  0  0  0  0  0  0  0  0  0  0
   56.3290   22.5670   42.8900 C   0  0  0  0  0  0  0  0  0  0  0  0
   55.5620   23.4870   43.6090 C   0  0  0  0  0  0  0  0  0  0  0  0
   55.8540   23.7470   44.9520 C   0  0  0  0  0  0  0  0  0  0  0  0
   56.6430   26.7150   46.3410 C   0  0  0  0  0  0  0  0  0  0  0  0
   56.9290   31.1620   45.1730 N   0  0  0  0  0  0  0  0  0  0  0  0
   57.7510   32.2430   45.2260 C   0  0  0  0  0  0  0  0  0  0  0  0
   58.0800   32.7880   46.4710 C   0  0  0  0  0  0  0  0  0  0  0  0
   58.9149   33.8506   48.6776 H   0  0  0  0  0  0  0  0  0  0  0  0
   60.3561   34.6391   47.9510 H   0  0  0  0  0  0  0  0  0  0  0  0
   58.7726   35.4872   47.9510 H   0  0  0  0  0  0  0  0  0  0  0  0
   60.0783   35.3344   45.3960 H   0  0  0  0  0  0  0  0  0  0  0  0
   59.4730   34.3233   43.2002 H   0  0  0  0  0  0  0  0  0  0  0  0
   56.7961   30.6797   41.8349 H   0  0  0  0  0  0  0  0  0  0  0  0
   54.6431   29.7179   43.8531 H   0  0  0  0  0  0  0  0  0  0  0  0
   55.9829   28.7332   43.1496 H   0  0  0  0  0  0  0  0  0  0  0  0
   58.4244   29.0516   44.5926 H   0  0  0  0  0  0  0  0  0  0  0  0
   60.2955   27.5613   45.2942 H   0  0  0  0  0  0  0  0  0  0  0  0
   59.8337   25.5276   46.6629 H   0  0  0  0  0  0  0  0  0  0  0  0
   58.5365   21.6526   45.3331 H   0  0  0  0  0  0  0  0  0  0  0  0
   57.9979   21.1867   42.9432 H   0  0  0  0  0  0  0  0  0  0  0  0
   56.0950   22.3609   41.8351 H   0  0  0  0  0  0  0  0  0  0  0  0
   54.7268   24.0080   43.1180 H   0  0  0  0  0  0  0  0  0  0  0  0
   55.2515   24.4776   45.5117 H   0  0  0  0  0  0  0  0  0  0  0  0
   55.6142   26.4870   46.6565 H   0  0  0  0  0  0  0  0  0  0  0  0
   57.6662   32.3505   47.3916 H   0  0  0  0  0  0  0  0  0  0  0  0
  1  2  1  0
  2  3  1  0
  3  4  2  0
  4  5  1  0
  5  6  1  0
  6  7  2  0
  6  8  1  0
  8  9  2  0
  9 10  1  0
 10 11  1  0
 11 12  1  0
 12 13  2  0
 13 14  1  0
 14 15  2  0
 15 16  1  0
 16 17  1  0
 17 18  1  0
 18 19  2  0
 18 20  1  0
 20 21  2  0
 21 22  1  0
 22 23  2  0
 23 24  1  0
 24 25  2  0
 16 26  2  0
  9 27  1  0
 27 28  2  0
 28 29  1  0
 29  2  2  0
 28  5  1  0
 26 12  1  0
 25 20  1  0
  1 30  1  0
  1 31  1  0
  1 32  1  0
  3 33  1  0
  4 34  1  0
  8 35  1  0
 10 36  1  0
 10 37  1  0
 13 38  1  0
 14 39  1  0
 15 40  1  0
 21 41  1  0
 22 42  1  0
 23 43  1  0
 24 44  1  0
 25 45  1  0
 26 46  1  0
 29 47  1  0
M  CHG  1  17  -1
M  END
>  <UniqueID>  (59) 
52

>  <SMILES>  (59) 
Cc1ccn2c(=O)cc(COc3cccc([N-]C(=O)c4ccccc4)c3)nc2c1

>  <Energy>  (59) 
62.574049573963286

>  <Genealogy>  (59) 
Cc1ccn2c(=O)cc(COc3cccc([N-]C(=O)c4ccccc4)c3)nc2c1 (protonated)
Cc1ccn2c(=O)cc(COc3cccc([N-]C(=O)c4ccccc4)c3)nc2c1 (3D coordinates assigned)
Cc1ccn2c(=O)cc(COc3cccc([N-]C(=O)c4ccccc4)c3)nc2c1 (optimized conformer: 62.574049573963286 kcal/mol)

>  <smiles>  (59) 
Cc1ccn2c(=O)cc(COc3cccc(NC(=O)c4ccccc4)c3)nc2c1

>  <score_type>  (59) 
oracle

>  <origin>  (59) 
adg

>  <m_score__min__energy>  (59) 
-11.42

>  <m_primary>  (59) 
energy

$$$$
59:0
     RDKit          3D

 42 44  0  0  1  0  0  0  0  0999 V2000
   59.7380   27.1930   46.3220 N   0  0  0  0  0  0  0  0  0  0  0  0
   59.9100   28.0260   47.4450 C   0  0  0  0  0  0  0  0  0  0  0  0
   59.7180   27.4580   48.5830 O   0  0  0  0  0  0  0  0  0  0  0  0
   60.2530   29.4170   47.4830 C   0  0  0  0  0  0  0  0  0  0  0  0
   60.7700   29.8860   48.7060 C   0  0  0  0  0  0  0  0  0  0  0  0
   61.1160   31.1590   48.8890 N   0  0  0  0  0  0  0  0  0  0  0  0
   60.9870   32.0650   47.9060 C   0  0  0  0  0  0  0  0  0  0  0  0
   61.3410   33.2690   48.1640 N   0  0  0  0  0  0  0  0  0  0  0  0
   60.3890   34.3540   48.2870 C   0  0  0  0  0  0  0  0  0  0  0  0
   59.4110   34.2400   47.1760 C   0  0  0  0  0  0  0  0  0  0  0  0
   59.6930   34.7560   45.9390 C   0  0  0  0  0  0  0  0  0  0  0  0
   58.7360   34.6150   44.9430 C   0  0  0  0  0  0  0  0  0  0  0  0
   57.5430   33.9780   45.1930 C   0  0  0  0  0  0  0  0  0  0  0  0
   57.2470   33.4550   46.4310 C   0  0  0  0  0  0  0  0  0  0  0  0
   58.2060   33.6000   47.4140 C   0  0  0  0  0  0  0  0  0  0  0  0
   60.5020   31.6460   46.7320 N   0  0  0  0  0  0  0  0  0  0  0  0
   60.1390   30.3500   46.5060 C   0  0  0  0  0  0  0  0  0  0  0  0
   59.8230   30.0330   45.3430 N   0  0  0  0  0  0  0  0  0  0  0  0
   58.6300   30.1890   44.6340 C   0  0  0  0  0  0  0  0  0  0  0  0
   58.5180   31.0440   43.5250 C   0  0  0  0  0  0  0  0  0  0  0  0
   57.2930   31.2020   42.9180 C   0  0  0  0  0  0  0  0  0  0  0  0
   56.1690   30.5340   43.3830 C   0  0  0  0  0  0  0  0  0  0  0  0
   56.2880   29.6930   44.4780 C   0  0  0  0  0  0  0  0  0  0  0  0
   55.1510   29.0210   44.9430 O   0  0  0  0  0  0  0  0  0  0  0  0
   57.4990   29.5080   45.1130 C   0  0  0  0  0  0  0  0  0  0  0  0
   59.9700   26.1780   46.3570 H   0  0  0  0  0  0  0  0  0  0  0  0
   59.3690   27.5750   45.4080 H   0  0  0  0  0  0  0  0  0  0  0  0
   60.8922   29.1771   49.5382 H   0  0  0  0  0  0  0  0  0  0  0  0
   61.4980   31.4560   49.8260 H   0  0  0  0  0  0  0  0  0  0  0  0
   59.8662   34.2833   49.2522 H   0  0  0  0  0  0  0  0  0  0  0  0
   60.9080   35.3227   48.2389 H   0  0  0  0  0  0  0  0  0  0  0  0
   60.6473   35.2659   45.7409 H   0  0  0  0  0  0  0  0  0  0  0  0
   58.9349   35.0187   43.9393 H   0  0  0  0  0  0  0  0  0  0  0  0
   56.8059   33.8841   44.3819 H   0  0  0  0  0  0  0  0  0  0  0  0
   56.2921   32.9458   46.6281 H   0  0  0  0  0  0  0  0  0  0  0  0
   58.0067   33.1947   48.4170 H   0  0  0  0  0  0  0  0  0  0  0  0
   60.4030   32.3630   45.9650 H   0  0  0  0  0  0  0  0  0  0  0  0
   59.3998   31.5813   43.1459 H   0  0  0  0  0  0  0  0  0  0  0  0
   57.2032   31.8698   42.0486 H   0  0  0  0  0  0  0  0  0  0  0  0
   55.1958   30.6703   42.8886 H   0  0  0  0  0  0  0  0  0  0  0  0
   55.1460   28.0090   44.8710 H   0  0  0  0  0  0  0  0  0  0  0  0
   57.5774   28.8372   45.9813 H   0  0  0  0  0  0  0  0  0  0  0  0
  1  2  1  0
  2  3  2  0
  2  4  1  0
  4  5  2  0
  5  6  1  0
  6  7  1  0
  7  8  2  0
  8  9  1  0
  9 10  1  0
 10 11  2  0
 11 12  1  0
 12 13  2  0
 13 14  1  0
 14 15  2  0
  7 16  1  0
 16 17  1  0
 17 18  2  0
 18 19  1  0
 19 20  2  0
 20 21  1  0
 21 22  2  0
 22 23  1  0
 23 24  1  0
 23 25  2  0
 17  4  1  0
 25 19  1  0
 15 10  1  0
  1 26  1  0
  1 27  1  0
  5 28  1  0
  6 29  1  0
  9 30  1  0
  9 31  1  0
 11 32  1  0
 12 33  1  0
 13 34  1  0
 14 35  1  0
 15 36  1  0
 16 37  1  0
 20 38  1  0
 21 39  1  0
 22 40  1  0
 24 41  1  0
 25 42  1  0
M  END
>  <smiles>  (60) 
NC(=O)c1c[nH]c(=NCc2ccccc2)[nH]c1=Nc1cccc(O)c1

>  <score_type>  (60) 
oracle

>  <origin>  (60) 
adg

>  <m_score__min__energy>  (60) 
-9.5299999999999994

>  <m_primary>  (60) 
energy

$$$$
60:0
     RDKit          3D

 54 57  0  0  0  0  0  0  0  0999 V2000
   56.8660   29.6110   43.9880 O   0  0  0  0  0  0  0  0  0  0  0  0
   57.3310   30.2520   44.9680 C   0  0  0  0  0  0  0  0  0  0  0  0
   56.9060   31.6080   45.1560 N   0  0  0  0  0  0  0  0  0  0  0  0
   57.7230   32.7390   45.4930 C   0  0  0  0  0  0  0  0  0  0  0  0
   57.7910   33.8080   44.5910 C   0  0  0  0  0  0  0  0  0  0  0  0
   58.5910   34.9180   44.8720 C   0  0  0  0  0  0  0  0  0  0  0  0
   59.3410   34.9650   46.0490 C   0  0  0  0  0  0  0  0  0  0  0  0
   59.2930   33.8970   46.9500 C   0  0  0  0  0  0  0  0  0  0  0  0
   60.0650   33.9550   48.2010 C   0  0  0  0  0  0  0  0  0  0  0  0
   59.5370   34.5080   49.2020 O   0  0  0  0  0  0  0  0  0  0  0  0
   61.3910   33.3900   48.3010 N   0  0  0  0  0  0  0  0  0  0  0  0
   62.0200   32.7340   47.1450 C   0  0  0  0  0  0  0  0  0  0  0  0
   63.0280   31.6850   47.6120 C   0  0  0  0  0  0  0  0  0  0  0  0
   63.9330   32.2410   48.5440 O   0  0  0  0  0  0  0  0  0  0  0  0
   63.2380   32.5910   49.7230 C   0  0  0  0  0  0  0  0  0  0  0  0
   62.2360   33.7170   49.4570 C   0  0  0  0  0  0  0  0  0  0  0  0
   58.5010   32.7790   46.6640 C   0  0  0  0  0  0  0  0  0  0  0  0
   58.2350   29.5630   45.9190 C   0  0  0  0  0  0  0  0  0  0  0  0
   59.5720   29.9740   46.0400 C   0  0  0  0  0  0  0  0  0  0  0  0
   60.4140   29.3660   46.9730 C   0  0  0  0  0  0  0  0  0  0  0  0
   59.9270   28.3520   47.8100 C   0  0  0  0  0  0  0  0  0  0  0  0
   60.7360   27.7900   48.8450 N   0  0  0  0  0  0  0  0  0  0  0  0
   60.9070   28.4960   50.4250 S   0  0  0  0  0  0  0  0  0  0  0  0
   60.7700   27.4100   51.4590 O   0  0  0  0  0  0  0  0  0  0  0  0
   62.2710   29.1180   50.5520 O   0  0  0  0  0  0  0  0  0  0  0  0
   59.6570   29.7060   50.7290 C   0  0  0  0  0  0  0  0  0  0  0  0
   59.5800   30.8710   49.9520 C   0  0  0  0  0  0  0  0  0  0  0  0
   58.5570   31.7980   50.1740 C   0  0  0  0  0  0  0  0  0  0  0  0
   57.6110   31.5710   51.1770 C   0  0  0  0  0  0  0  0  0  0  0  0
   57.6780   30.4080   51.9490 C   0  0  0  0  0  0  0  0  0  0  0  0
   56.7400   30.1740   52.8980 F   0  0  0  0  0  0  0  0  0  0  0  0
   58.7010   29.4770   51.7280 C   0  0  0  0  0  0  0  0  0  0  0  0
   58.6220   27.8860   47.6370 C   0  0  0  0  0  0  0  0  0  0  0  0
   57.7800   28.4850   46.6980 C   0  0  0  0  0  0  0  0  0  0  0  0
   57.2116   33.7734   43.6566 H   0  0  0  0  0  0  0  0  0  0  0  0
   58.6304   35.7584   44.1634 H   0  0  0  0  0  0  0  0  0  0  0  0
   59.9689   35.8414   46.2670 H   0  0  0  0  0  0  0  0  0  0  0  0
   61.2432   32.2456   46.5383 H   0  0  0  0  0  0  0  0  0  0  0  0
   62.5455   33.4925   46.5463 H   0  0  0  0  0  0  0  0  0  0  0  0
   62.4884   30.8517   48.0858 H   0  0  0  0  0  0  0  0  0  0  0  0
   63.5946   31.3266   46.7399 H   0  0  0  0  0  0  0  0  0  0  0  0
   62.6969   31.7091   50.0965 H   0  0  0  0  0  0  0  0  0  0  0  0
   63.9675   32.9407   50.4684 H   0  0  0  0  0  0  0  0  0  0  0  0
   61.5997   33.8525   50.3440 H   0  0  0  0  0  0  0  0  0  0  0  0
   62.7896   34.6431   49.2429 H   0  0  0  0  0  0  0  0  0  0  0  0
   58.4869   31.9266   47.3592 H   0  0  0  0  0  0  0  0  0  0  0  0
   59.9578   30.7787   45.3968 H   0  0  0  0  0  0  0  0  0  0  0  0
   61.4641   29.6839   47.0518 H   0  0  0  0  0  0  0  0  0  0  0  0
   60.3266   31.0560   49.1656 H   0  0  0  0  0  0  0  0  0  0  0  0
   58.4968   32.7074   49.5581 H   0  0  0  0  0  0  0  0  0  0  0  0
   56.8141   32.3072   51.3588 H   0  0  0  0  0  0  0  0  0  0  0  0
   58.7541   28.5643   52.3397 H   0  0  0  0  0  0  0  0  0  0  0  0
   58.2560   27.0439   48.2427 H   0  0  0  0  0  0  0  0  0  0  0  0
   56.7539   28.1109   46.5670 H   0  0  0  0  0  0  0  0  0  0  0  0
  1  2  2  0
  2  3  1  0
  3  4  1  0
  4  5  2  0
  5  6  1  0
  6  7  2  0
  7  8  1  0
  8  9  1  0
  9 10  2  0
  9 11  1  0
 11 12  1  0
 12 13  1  0
 13 14  1  0
 14 15  1  0
 15 16  1  0
  8 17  2  0
  2 18  1  0
 18 19  2  0
 19 20  1  0
 20 21  2  0
 21 22  1  0
 22 23  1  0
 23 24  2  0
 23 25  2  0
 23 26  1  0
 26 27  2  0
 27 28  1  0
 28 29  2  0
 29 30  1  0
 30 31  1  0
 30 32  2  0
 21 33  1  0
 33 34  2  0
 17  4  1  0
 34 18  1  0
 16 11  1  0
 32 26  1  0
  5 35  1  0
  6 36  1  0
  7 37  1  0
 12 38  1  0
 12 39  1  0
 13 40  1  0
 13 41  1  0
 15 42  1  0
 15 43  1  0
 16 44  1  0
 16 45  1  0
 17 46  1  0
 19 47  1  0
 20 48  1  0
 27 49  1  0
 28 50  1  0
 29 51  1  0
 32 52  1  0
 33 53  1  0
 34 54  1  0
M  CHG  2   3  -1  22  -1
M  END
>  <UniqueID>  (61) 
53

>  <SMILES>  (61) 
O=C([N-]c1cccc(C(=O)N2CCOCC2)c1)c1ccc([N-]S(=O)(=O)c2cccc(F)c2)cc1

>  <Energy>  (61) 
78.05694831639633

>  <Genealogy>  (61) 
O=C([N-]c1cccc(C(=O)N2CCOCC2)c1)c1ccc([N-]S(=O)(=O)c2cccc(F)c2)cc1 (protonated)
O=C([N-]c1cccc(C(=O)N2CCOCC2)c1)c1ccc([N-]S(=O)(=O)c2cccc(F)c2)cc1 (3D coordinates assigned)
O=C([N-]c1cccc(C(=O)N2CCOCC2)c1)c1ccc([N-]S(=O)(=O)c2cccc(F)c2)cc1 (nonaromatic ring conformer: 78.05694831639633 kcal/mol)

>  <smiles>  (61) 
O=C(Nc1cccc(C(=O)N2CCOCC2)c1)c1ccc(NS(=O)(=O)c2cccc(F)c2)cc1

>  <score_type>  (61) 
oracle

>  <origin>  (61) 
adg

>  <m_score__min__energy>  (61) 
-13.390000000000001

>  <m_primary>  (61) 
energy

$$$$
61:0
     RDKit          3D

 39 42  0  0  0  0  0  0  0  0999 V2000
   65.9720   31.5510   51.0510 C   0  0  0  0  0  0  0  0  0  0  0  0
   65.5580   31.8640   49.7250 O   0  0  0  0  0  0  0  0  0  0  0  0
   64.3460   32.4920   49.4020 C   0  0  0  0  0  0  0  0  0  0  0  0
   63.8450   33.4630   50.2790 C   0  0  0  0  0  0  0  0  0  0  0  0
   62.6410   34.1150   50.0030 C   0  0  0  0  0  0  0  0  0  0  0  0
   61.9200   33.8000   48.8460 C   0  0  0  0  0  0  0  0  0  0  0  0
   60.3640   34.6260   48.5070 S   0  0  0  0  0  0  0  0  0  0  0  0
   59.4640   33.1020   48.4530 N   0  0  0  0  0  0  0  0  0  0  0  0
   59.4510   32.1390   49.5070 C   0  0  0  0  0  0  0  0  0  0  0  0
   59.8160   32.3770   50.6890 O   0  0  0  0  0  0  0  0  0  0  0  0
   58.9930   30.8590   49.0040 C   0  0  0  0  0  0  0  0  0  0  0  0
   58.8670   29.7880   49.6540 O   0  0  0  0  0  0  0  0  0  0  0  0
   58.7160   31.0700   47.5940 C   0  0  0  0  0  0  0  0  0  0  0  0
   58.2470   30.1710   46.6430 C   0  0  0  0  0  0  0  0  0  0  0  0
   58.0300   30.6330   45.3250 C   0  0  0  0  0  0  0  0  0  0  0  0
   57.5600   29.7780   44.2970 C   0  0  0  0  0  0  0  0  0  0  0  0
   57.2790   28.3170   44.5430 C   0  0  0  0  0  0  0  0  0  0  0  0
   57.3470   30.3050   43.0140 C   0  0  0  0  0  0  0  0  0  0  0  0
   57.5960   31.6530   42.7630 C   0  0  0  0  0  0  0  0  0  0  0  0
   57.3280   32.3150   41.1630 Cl  0  0  0  0  0  0  0  0  0  0  0  0
   58.0470   32.4610   43.7550 N   0  0  0  0  0  0  0  0  0  0  0  0
   58.2740   32.0060   45.0150 C   0  0  0  0  0  0  0  0  0  0  0  0
   58.7440   32.8980   46.0050 C   0  0  0  0  0  0  0  0  0  0  0  0
   58.9310   34.6070   45.6170 Cl  0  0  0  0  0  0  0  0  0  0  0  0
   58.9850   32.3950   47.2930 C   0  0  0  0  0  0  0  0  0  0  0  0
   62.4170   32.8370   47.9600 C   0  0  0  0  0  0  0  0  0  0  0  0
   63.6210   32.1830   48.2350 C   0  0  0  0  0  0  0  0  0  0  0  0
   65.3082   32.0528   51.7704 H   0  0  0  0  0  0  0  0  0  0  0  0
   65.9221   30.4628   51.2034 H   0  0  0  0  0  0  0  0  0  0  0  0
   67.0054   31.8956   51.2034 H   0  0  0  0  0  0  0  0  0  0  0  0
   64.4044   33.7139   51.1923 H   0  0  0  0  0  0  0  0  0  0  0  0
   62.2587   34.8780   50.6970 H   0  0  0  0  0  0  0  0  0  0  0  0
   58.0490   29.1226   46.9105 H   0  0  0  0  0  0  0  0  0  0  0  0
   57.2426   28.1279   45.6260 H   0  0  0  0  0  0  0  0  0  0  0  0
   56.3127   28.0483   44.0912 H   0  0  0  0  0  0  0  0  0  0  0  0
   58.0767   27.7090   44.0912 H   0  0  0  0  0  0  0  0  0  0  0  0
   56.9832   29.6536   42.2057 H   0  0  0  0  0  0  0  0  0  0  0  0
   61.8580   32.5942   47.0443 H   0  0  0  0  0  0  0  0  0  0  0  0
   64.0039   31.4238   47.5371 H   0  0  0  0  0  0  0  0  0  0  0  0
  1  2  1  0
  2  3  1  0
  3  4  2  0
  4  5  1  0
  5  6  2  0
  6  7  1  0
  7  8  1  0
  8  9  1  0
  9 10  2  0
  9 11  1  0
 11 12  2  0
 11 13  1  0
 13 14  2  0
 14 15  1  0
 15 16  2  0
 16 17  1  0
 16 18  1  0
 18 19  2  0
 19 20  1  0
 19 21  1  0
 21 22  2  0
 22 23  1  0
 23 24  1  0
 23 25  2  0
  6 26  1  0
 26 27  2  0
 27  3  1  0
 25  8  1  0
 25 13  1  0
 22 15  1  0
  1 28  1  0
  1 29  1  0
  1 30  1  0
  4 31  1  0
  5 32  1  0
 14 33  1  0
 17 34  1  0
 17 35  1  0
 17 36  1  0
 18 37  1  0
 26 38  1  0
 27 39  1  0
M  END
>  <UniqueID>  (62) 
54

>  <SMILES>  (62) 
COc1ccc(SN2C(=O)C(=O)c3cc4c(C)cc(Cl)nc4c(Cl)c32)cc1

>  <Energy>  (62) 
78.02720237566197

>  <Genealogy>  (62) 
COc1ccc(SN2C(=O)C(=O)c3cc4c(C)cc(Cl)nc4c(Cl)c32)cc1 (3D coordinates assigned)
COc1ccc(SN2C(=O)C(=O)c3cc4c(C)cc(Cl)nc4c(Cl)c32)cc1 (nonaromatic ring conformer: 78.02720237566197 kcal/mol)

>  <smiles>  (62) 
COc1ccc(SN2C(=O)C(=O)c3cc4c(C)cc(Cl)nc4c(Cl)c32)cc1

>  <score_type>  (62) 
oracle

>  <origin>  (62) 
adg

>  <m_score__min__energy>  (62) 
-8.5700000000000003

>  <m_primary>  (62) 
energy

$$$$
62:0
     RDKit          3D

 59 63  0  0  0  0  0  0  0  0999 V2000
   57.7630   32.5920   43.0180 C   0  0  0  0  0  0  0  0  0  0  0  0
   58.5820   32.4220   44.2280 N   0  0  0  0  0  0  0  0  0  0  0  0
   58.9530   33.7320   44.8200 C   0  0  0  0  0  0  0  0  0  0  0  0
   58.0480   34.1170   46.0040 C   0  0  0  0  0  0  0  0  0  0  0  0
   58.0660   33.1020   47.0890 N   0  0  0  0  0  0  0  0  0  0  0  0
   58.9300   33.5200   48.2150 C   0  0  0  0  0  0  0  0  0  0  0  0
   60.3790   33.1980   47.9480 C   0  0  0  0  0  0  0  0  0  0  0  0
   60.8700   33.4720   46.8200 O   0  0  0  0  0  0  0  0  0  0  0  0
   61.1470   32.3960   48.8550 N   0  0  0  0  0  0  0  0  0  0  0  0
   61.0850   31.1050   48.9860 C   0  0  0  0  0  0  0  0  0  0  0  0
   61.3670   30.4950   50.1630 N   0  0  0  0  0  0  0  0  0  0  0  0
   61.1880   29.1520   50.0690 C   0  0  0  0  0  0  0  0  0  0  0  0
   61.4050   28.2550   51.1150 C   0  0  0  0  0  0  0  0  0  0  0  0
   61.1690   26.8800   50.8800 C   0  0  0  0  0  0  0  0  0  0  0  0
   61.3750   25.8620   51.9420 C   0  0  0  0  0  0  0  0  0  0  0  0
   62.6360   25.2700   52.1580 C   0  0  0  0  0  0  0  0  0  0  0  0
   62.8090   24.3200   53.1690 C   0  0  0  0  0  0  0  0  0  0  0  0
   61.7330   23.9550   53.9810 C   0  0  0  0  0  0  0  0  0  0  0  0
   60.4820   24.5420   53.7850 C   0  0  0  0  0  0  0  0  0  0  0  0
   60.3030   25.4930   52.7750 C   0  0  0  0  0  0  0  0  0  0  0  0
   60.7520   26.4740   49.6390 N   0  0  0  0  0  0  0  0  0  0  0  0
   60.5470   27.3420   48.6040 C   0  0  0  0  0  0  0  0  0  0  0  0
   60.1240   26.9320   47.4430 N   0  0  0  0  0  0  0  0  0  0  0  0
   58.7550   26.7840   47.0320 C   0  0  0  0  0  0  0  0  0  0  0  0
   57.9940   25.6560   47.3810 C   0  0  0  0  0  0  0  0  0  0  0  0
   56.6760   25.5350   46.9400 C   0  0  0  0  0  0  0  0  0  0  0  0
   56.1050   26.5220   46.1310 C   0  0  0  0  0  0  0  0  0  0  0  0
   54.7860   26.3640   45.7180 O   0  0  0  0  0  0  0  0  0  0  0  0
   56.8660   27.6490   45.7430 C   0  0  0  0  0  0  0  0  0  0  0  0
   56.3050   28.7130   44.8730 C   0  0  0  0  0  0  0  0  0  0  0  0
   56.8720   29.0370   43.7950 O   0  0  0  0  0  0  0  0  0  0  0  0
   55.1370   29.3740   45.2380 O   0  0  0  0  0  0  0  0  0  0  0  0
   58.1950   27.7570   46.1960 C   0  0  0  0  0  0  0  0  0  0  0  0
   60.7600   28.6970   48.8370 C   0  0  0  0  0  0  0  0  0  0  0  0
   60.5830   30.0040   47.7950 S   0  0  0  0  0  0  0  0  0  0  0  0
   58.4130   31.7410   46.6110 C   0  0  0  0  0  0  0  0  0  0  0  0
   57.9110   31.5100   45.1830 C   0  0  0  0  0  0  0  0  0  0  0  0
   56.7236   32.8078   43.3061 H   0  0  0  0  0  0  0  0  0  0  0  0
   58.1590   33.4271   42.4215 H   0  0  0  0  0  0  0  0  0  0  0  0
   57.7940   31.6683   42.4215 H   0  0  0  0  0  0  0  0  0  0  0  0
   59.9934   33.6783   45.1732 H   0  0  0  0  0  0  0  0  0  0  0  0
   58.8314   34.4991   44.0410 H   0  0  0  0  0  0  0  0  0  0  0  0
   58.3934   35.0775   46.4140 H   0  0  0  0  0  0  0  0  0  0  0  0
   57.0167   34.1848   45.6275 H   0  0  0  0  0  0  0  0  0  0  0  0
   58.8260   34.6052   48.3618 H   0  0  0  0  0  0  0  0  0  0  0  0
   58.6143   32.9715   49.1147 H   0  0  0  0  0  0  0  0  0  0  0  0
   61.7509   28.6078   52.0978 H   0  0  0  0  0  0  0  0  0  0  0  0
   63.4897   25.5575   51.5267 H   0  0  0  0  0  0  0  0  0  0  0  0
   63.7953   23.8588   53.3253 H   0  0  0  0  0  0  0  0  0  0  0  0
   61.8713   23.2056   54.7743 H   0  0  0  0  0  0  0  0  0  0  0  0
   59.6351   24.2562   54.4261 H   0  0  0  0  0  0  0  0  0  0  0  0
   59.3158   25.9562   52.6308 H   0  0  0  0  0  0  0  0  0  0  0  0
   58.4386   24.8658   48.0038 H   0  0  0  0  0  0  0  0  0  0  0  0
   56.0815   24.6564   47.2310 H   0  0  0  0  0  0  0  0  0  0  0  0
   58.8031   28.6203   45.8878 H   0  0  0  0  0  0  0  0  0  0  0  0
   59.5064   31.6220   46.6305 H   0  0  0  0  0  0  0  0  0  0  0  0
   57.9306   31.0064   47.2725 H   0  0  0  0  0  0  0  0  0  0  0  0
   58.1191   30.4696   44.8929 H   0  0  0  0  0  0  0  0  0  0  0  0
   56.8296   31.7099   45.1561 H   0  0  0  0  0  0  0  0  0  0  0  0
  1  2  1  0
  2  3  1  0
  3  4  1  0
  4  5  1  0
  5  6  1  0
  6  7  1  0
  7  8  2  0
  7  9  1  0
  9 10  2  3
 10 11  1  0
 11 12  1  0
 12 13  1  0
 13 14  2  0
 14 15  1  0
 15 16  2  0
 16 17  1  0
 17 18  2  0
 18 19  1  0
 19 20  2  0
 14 21  1  0
 21 22  1  0
 22 23  2  3
 23 24  1  0
 24 25  2  0
 25 26  1  0
 26 27  2  0
 27 28  1  0
 27 29  1  0
 29 30  1  0
 30 31  2  0
 30 32  1  0
 29 33  2  0
 22 34  1  0
 34 35  1  0
  5 36  1  0
 36 37  1  0
 37  2  1  0
 35 10  1  0
 34 12  2  0
 20 15  1  0
 33 24  1  0
  1 38  1  0
  1 39  1  0
  1 40  1  0
  3 41  1  0
  3 42  1  0
  4 43  1  0
  4 44  1  0
  6 45  1  0
  6 46  1  0
 13 47  1  0
 16 48  1  0
 17 49  1  0
 18 50  1  0
 19 51  1  0
 20 52  1  0
 25 53  1  0
 26 54  1  0
 33 55  1  0
 36 56  1  0
 36 57  1  0
 37 58  1  0
 37 59  1  0
M  CHG  4  11  -1  21  -1  28  -1  32  -1
M  END
>  <UniqueID>  (63) 
55

>  <SMILES>  (63) 
CN1CCN(CC(=O)N=c2[n-]c3cc(-c4ccccc4)[n-]c(=Nc4ccc([O-])c(C(=O)[O-])c4)c3s2)CC1

>  <Energy>  (63) 
132.34981582634998

>  <Genealogy>  (63) 
CN1CCN(CC(=O)N=c2[n-]c3cc(-c4ccccc4)[n-]c(=Nc4ccc([O-])c(C(=O)[O-])c4)c3s2)CC1 (protonated)
CN1CCN(CC(=O)N=c2[n-]c3cc(-c4ccccc4)[n-]c(=Nc4ccc([O-])c(C(=O)[O-])c4)c3s2)CC1 (3D coordinates assigned)
CN1CCN(CC(=O)N=c2[n-]c3cc(-c4ccccc4)[n-]c(=Nc4ccc([O-])c(C(=O)[O-])c4)c3s2)CC1 (nonaromatic ring conformer: 132.34981582634998 kcal/mol)

>  <smiles>  (63) 
CN1CCN(CC(=O)N=c2[nH]c3cc(-c4ccccc4)[nH]c(=Nc4ccc(O)c(C(=O)O)c4)c3s2)CC1

>  <score_type>  (63) 
oracle

>  <origin>  (63) 
adg

>  <m_score__min__energy>  (63) 
-16.989999999999998

>  <m_primary>  (63) 
energy

$$$$
63:0
     RDKit          3D

 32 33  0  0  0  0  0  0  0  0999 V2000
   58.9270   27.3730   46.0370 O   0  0  0  0  0  0  0  0  0  0  0  0
   57.8290   27.2700   45.4280 C   0  0  0  0  0  0  0  0  0  0  0  0
   57.7630   27.7520   44.0030 C   0  0  0  0  0  0  0  0  0  0  0  0
   57.6760   29.2110   43.9480 N   0  0  0  0  0  0  0  0  0  0  0  0
   56.5600   29.9150   44.5140 C   0  0  0  0  0  0  0  0  0  0  0  0
   55.6160   29.2720   45.0430 O   0  0  0  0  0  0  0  0  0  0  0  0
   56.4910   31.3470   44.4890 N   0  0  0  0  0  0  0  0  0  0  0  0
   57.5380   32.2350   43.9950 C   0  0  0  0  0  0  0  0  0  0  0  0
   58.1040   33.0720   45.1110 C   0  0  0  0  0  0  0  0  0  0  0  0
   58.8960   34.1960   44.8190 C   0  0  0  0  0  0  0  0  0  0  0  0
   59.4550   34.9530   45.8530 C   0  0  0  0  0  0  0  0  0  0  0  0
   59.2350   34.5900   47.1840 C   0  0  0  0  0  0  0  0  0  0  0  0
   58.4490   33.4740   47.4840 C   0  0  0  0  0  0  0  0  0  0  0  0
   57.8890   32.7140   46.4540 C   0  0  0  0  0  0  0  0  0  0  0  0
   56.6990   26.7530   46.1560 N   0  0  0  0  0  0  0  0  0  0  0  0
   55.8720   25.7890   45.8670 C   0  0  0  0  0  0  0  0  0  0  0  0
   54.5350   25.9680   45.9190 N   0  0  0  0  0  0  0  0  0  0  0  0
   53.8540   24.8280   45.6190 C   0  0  0  0  0  0  0  0  0  0  0  0
   54.6470   23.7250   45.3270 C   0  0  0  0  0  0  0  0  0  0  0  0
   56.2540   24.2000   45.4500 S   0  0  0  0  0  0  0  0  0  0  0  0
   58.6681   27.4250   43.4701 H   0  0  0  0  0  0  0  0  0  0  0  0
   56.8643   27.3287   43.5305 H   0  0  0  0  0  0  0  0  0  0  0  0
   58.4290   29.7440   43.4600 H   0  0  0  0  0  0  0  0  0  0  0  0
   58.3442   31.6306   43.5537 H   0  0  0  0  0  0  0  0  0  0  0  0
   57.1024   32.9053   43.2394 H   0  0  0  0  0  0  0  0  0  0  0  0
   59.0768   34.4813   43.7721 H   0  0  0  0  0  0  0  0  0  0  0  0
   60.0686   35.8353   45.6183 H   0  0  0  0  0  0  0  0  0  0  0  0
   59.6807   35.1829   47.9963 H   0  0  0  0  0  0  0  0  0  0  0  0
   58.2710   33.1935   48.5326 H   0  0  0  0  0  0  0  0  0  0  0  0
   57.2774   31.8319   46.6945 H   0  0  0  0  0  0  0  0  0  0  0  0
   52.7550   24.7833   45.6085 H   0  0  0  0  0  0  0  0  0  0  0  0
   54.2869   22.7199   45.0624 H   0  0  0  0  0  0  0  0  0  0  0  0
  1  2  2  0
  2  3  1  0
  3  4  1  0
  4  5  1  0
  5  6  2  0
  5  7  1  0
  7  8  1  0
  8  9  1  0
  9 10  2  0
 10 11  1  0
 11 12  2  0
 12 13  1  0
 13 14  2  0
  2 15  1  0
 15 16  2  3
 16 17  1  0
 17 18  1  0
 18 19  2  0
 19 20  1  0
 14  9  1  0
 20 16  1  0
  3 21  1  0
  3 22  1  0
  4 23  1  0
  8 24  1  0
  8 25  1  0
 10 26  1  0
 11 27  1  0
 12 28  1  0
 13 29  1  0
 14 30  1  0
 18 31  1  0
 19 32  1  0
M  CHG  2   7  -1  17  -1
M  END
>  <UniqueID>  (64) 
56

>  <SMILES>  (64) 
O=C(CNC(=O)[N-]Cc1ccccc1)N=c1[n-]ccs1

>  <Energy>  (64) 
60.45994919924242

>  <Genealogy>  (64) 
O=C(CNC(=O)[N-]Cc1ccccc1)N=c1[n-]ccs1 (protonated)
O=C(CNC(=O)[N-]Cc1ccccc1)N=c1[n-]ccs1 (3D coordinates assigned)
O=C(CNC(=O)[N-]Cc1ccccc1)N=c1[n-]ccs1 (optimized conformer: 60.45994919924242 kcal/mol)

>  <smiles>  (64) 
O=C(CNC(=O)NCc1ccccc1)N=c1[nH]ccs1

>  <score_type>  (64) 
oracle

>  <origin>  (64) 
adg

>  <m_score__min__energy>  (64) 
-11.029999999999999

>  <m_primary>  (64) 
energy

$$$$
64:0
     RDKit          3D

 38 38  0  0  0  0  0  0  0  0999 V2000
   57.2290   22.2320   43.7800 C   0  0  0  0  0  0  0  0  0  0  0  0
   57.1180   23.8860   44.4230 S   0  0  0  0  0  0  0  0  0  0  0  0
   56.8950   24.8460   43.2860 O   0  0  0  0  0  0  0  0  0  0  0  0
   58.3990   24.2390   45.1300 O   0  0  0  0  0  0  0  0  0  0  0  0
   55.7530   23.9870   45.5670 C   0  0  0  0  0  0  0  0  0  0  0  0
   55.5060   25.4110   45.9450 C   0  0  0  0  0  0  0  0  0  0  0  0
   54.4170   25.9610   45.6230 O   0  0  0  0  0  0  0  0  0  0  0  0
   56.5210   26.1440   46.6400 N   0  0  0  0  0  0  0  0  0  0  0  0
   57.4820   27.0100   46.0210 C   0  0  0  0  0  0  0  0  0  0  0  0
   58.1660   27.8090   46.7180 O   0  0  0  0  0  0  0  0  0  0  0  0
   57.6610   26.9720   44.5960 N   0  0  0  0  0  0  0  0  0  0  0  0
   58.2210   28.2340   44.0820 C   0  0  0  0  0  0  0  0  0  0  0  0
   57.1810   29.1360   43.3770 C   0  0  0  0  0  0  0  0  0  0  0  0
   56.4630   30.1300   44.3050 C   0  0  0  0  0  0  0  0  0  0  0  0
   57.3680   31.2450   44.7690 C   0  0  0  0  0  0  0  0  0  0  0  0
   58.1390   31.0930   45.9340 C   0  0  0  0  0  0  0  0  0  0  0  0
   58.9730   32.1290   46.3670 C   0  0  0  0  0  0  0  0  0  0  0  0
   59.0430   33.3210   45.6420 C   0  0  0  0  0  0  0  0  0  0  0  0
   58.2800   33.4800   44.4820 C   0  0  0  0  0  0  0  0  0  0  0  0
   57.4410   32.4490   44.0480 C   0  0  0  0  0  0  0  0  0  0  0  0
   57.2770   21.5167   44.6143 H   0  0  0  0  0  0  0  0  0  0  0  0
   56.3432   22.0179   43.1639 H   0  0  0  0  0  0  0  0  0  0  0  0
   58.1355   22.1382   43.1639 H   0  0  0  0  0  0  0  0  0  0  0  0
   54.8500   23.5741   45.0937 H   0  0  0  0  0  0  0  0  0  0  0  0
   55.9973   23.4109   46.4717 H   0  0  0  0  0  0  0  0  0  0  0  0
   58.2630   26.1600   44.3270 H   0  0  0  0  0  0  0  0  0  0  0  0
   56.7240   26.8230   44.1560 H   0  0  0  0  0  0  0  0  0  0  0  0
   58.6492   28.7932   44.9270 H   0  0  0  0  0  0  0  0  0  0  0  0
   58.9766   27.9664   43.3287 H   0  0  0  0  0  0  0  0  0  0  0  0
   57.6988   29.7098   42.5943 H   0  0  0  0  0  0  0  0  0  0  0  0
   56.4056   28.4654   42.9783 H   0  0  0  0  0  0  0  0  0  0  0  0
   55.6129   30.5686   43.7619 H   0  0  0  0  0  0  0  0  0  0  0  0
   56.1317   29.5760   45.1957 H   0  0  0  0  0  0  0  0  0  0  0  0
   58.0864   30.1558   46.5075 H   0  0  0  0  0  0  0  0  0  0  0  0
   59.5745   32.0050   47.2796 H   0  0  0  0  0  0  0  0  0  0  0  0
   59.6990   34.1349   45.9843 H   0  0  0  0  0  0  0  0  0  0  0  0
   58.3395   34.4175   43.9096 H   0  0  0  0  0  0  0  0  0  0  0  0
   56.8359   32.5809   43.1389 H   0  0  0  0  0  0  0  0  0  0  0  0
  1  2  1  0
  2  3  2  0
  2  4  2  0
  2  5  1  0
  5  6  1  0
  6  7  2  0
  6  8  1  0
  8  9  1  0
  9 10  2  0
  9 11  1  0
 11 12  1  0
 12 13  1  0
 13 14  1  0
 14 15  1  0
 15 16  2  0
 16 17  1  0
 17 18  2  0
 18 19  1  0
 19 20  2  0
 20 15  1  0
  1 21  1  0
  1 22  1  0
  1 23  1  0
  5 24  1  0
  5 25  1  0
 11 26  1  0
 11 27  1  0
 12 28  1  0
 12 29  1  0
 13 30  1  0
 13 31  1  0
 14 32  1  0
 14 33  1  0
 16 34  1  0
 17 35  1  0
 18 36  1  0
 19 37  1  0
 20 38  1  0
M  CHG  2   8  -1  11   1
M  END
>  <UniqueID>  (65) 
57

>  <SMILES>  (65) 
CS(=O)(=O)CC(=O)[N-]C(=O)[NH2+]CCCc1ccccc1

>  <Energy>  (65) 
24.51333828156815

>  <Genealogy>  (65) 
CS(=O)(=O)CC(=O)[N-]C(=O)[NH2+]CCCc1ccccc1 (protonated)
CS(=O)(=O)CC(=O)[N-]C(=O)[NH2+]CCCc1ccccc1 (3D coordinates assigned)
CS(=O)(=O)CC(=O)[N-]C(=O)[NH2+]CCCc1ccccc1 (optimized conformer: 24.51333828156815 kcal/mol)

>  <smiles>  (65) 
CS(=O)(=O)CC(=O)NC(=O)NCCCc1ccccc1

>  <score_type>  (65) 
oracle

>  <origin>  (65) 
adg

>  <m_score__min__energy>  (65) 
-8.0600000000000005

>  <m_primary>  (65) 
energy

$$$$
65:0
     RDKit          3D

 39 40  0  0  0  0  0  0  0  0999 V2000
   60.6670   28.3000   45.3440 C   0  0  0  0  0  0  0  0  0  0  0  0
   59.9290   29.0540   46.3730 N   0  0  0  0  0  0  0  0  0  0  0  0
   60.0900   28.4080   47.6920 C   0  0  0  0  0  0  0  0  0  0  0  0
   60.5530   26.9570   47.5190 C   0  0  0  0  0  0  0  0  0  0  0  0
   59.4490   26.0620   47.6400 O   0  0  0  0  0  0  0  0  0  0  0  0
   58.6600   25.6610   46.5550 C   0  0  0  0  0  0  0  0  0  0  0  0
   57.7140   26.5420   46.0240 C   0  0  0  0  0  0  0  0  0  0  0  0
   56.9480   26.1510   44.9710 N   0  0  0  0  0  0  0  0  0  0  0  0
   57.0870   24.9120   44.4240 C   0  0  0  0  0  0  0  0  0  0  0  0
   58.0310   24.0300   44.9540 C   0  0  0  0  0  0  0  0  0  0  0  0
   58.7950   24.4220   46.0060 N   0  0  0  0  0  0  0  0  0  0  0  0
   60.3750   30.4670   46.4020 C   0  0  0  0  0  0  0  0  0  0  0  0
   59.1660   31.4030   46.3170 C   0  0  0  0  0  0  0  0  0  0  0  0
   58.1420   30.8620   45.3550 C   0  0  0  0  0  0  0  0  0  0  0  0
   58.0680   31.3630   44.0440 C   0  0  0  0  0  0  0  0  0  0  0  0
   57.1400   30.8360   43.1410 C   0  0  0  0  0  0  0  0  0  0  0  0
   56.2880   29.8010   43.5360 C   0  0  0  0  0  0  0  0  0  0  0  0
   56.3640   29.2870   44.8340 C   0  0  0  0  0  0  0  0  0  0  0  0
   55.5220   28.2530   45.2230 O   0  0  0  0  0  0  0  0  0  0  0  0
   57.2920   29.8120   45.7400 C   0  0  0  0  0  0  0  0  0  0  0  0
   61.3571   27.5949   45.8304 H   0  0  0  0  0  0  0  0  0  0  0  0
   59.9555   27.7429   44.7168 H   0  0  0  0  0  0  0  0  0  0  0  0
   61.2392   28.9994   44.7168 H   0  0  0  0  0  0  0  0  0  0  0  0
   60.8390   28.9608   48.2781 H   0  0  0  0  0  0  0  0  0  0  0  0
   59.1225   28.4156   48.2154 H   0  0  0  0  0  0  0  0  0  0  0  0
   61.0077   26.8384   46.5244 H   0  0  0  0  0  0  0  0  0  0  0  0
   61.2883   26.7226   48.3029 H   0  0  0  0  0  0  0  0  0  0  0  0
   57.5898   27.5462   46.4556 H   0  0  0  0  0  0  0  0  0  0  0  0
   56.2420   26.8100   44.5760 H   0  0  0  0  0  0  0  0  0  0  0  0
   56.4611   24.6084   43.5719 H   0  0  0  0  0  0  0  0  0  0  0  0
   58.1548   23.0257   44.5228 H   0  0  0  0  0  0  0  0  0  0  0  0
   60.9176   30.6580   47.3396 H   0  0  0  0  0  0  0  0  0  0  0  0
   61.0355   30.6535   45.5423 H   0  0  0  0  0  0  0  0  0  0  0  0
   58.7109   31.4968   47.3141 H   0  0  0  0  0  0  0  0  0  0  0  0
   59.5041   32.3864   45.9583 H   0  0  0  0  0  0  0  0  0  0  0  0
   58.7424   32.1723   43.7274 H   0  0  0  0  0  0  0  0  0  0  0  0
   57.0803   31.2365   42.1182 H   0  0  0  0  0  0  0  0  0  0  0  0
   55.5565   29.3901   42.8246 H   0  0  0  0  0  0  0  0  0  0  0  0
   57.3562   29.4007   46.7582 H   0  0  0  0  0  0  0  0  0  0  0  0
  1  2  1  0
  2  3  1  0
  3  4  1  0
  4  5  1  0
  5  6  1  0
  6  7  2  0
  7  8  1  0
  8  9  2  0
  9 10  1  0
 10 11  2  0
  2 12  1  0
 12 13  1  0
 13 14  1  0
 14 15  2  0
 15 16  1  0
 16 17  2  0
 17 18  1  0
 18 19  1  0
 18 20  2  0
 11  6  1  0
 20 14  1  0
  1 21  1  0
  1 22  1  0
  1 23  1  0
  3 24  1  0
  3 25  1  0
  4 26  1  0
  4 27  1  0
  7 28  1  0
  8 29  1  0
  9 30  1  0
 10 31  1  0
 12 32  1  0
 12 33  1  0
 13 34  1  0
 13 35  1  0
 15 36  1  0
 16 37  1  0
 17 38  1  0
 20 39  1  0
M  CHG  2   8   1  19  -1
M  END
>  <UniqueID>  (66) 
58

>  <SMILES>  (66) 
CN(CCOc1c[nH+]ccn1)CCc1cccc([O-])c1

>  <Energy>  (66) 
36.87266304454509

>  <Genealogy>  (66) 
CN(CCOc1c[nH+]ccn1)CCc1cccc([O-])c1 (protonated)
CN(CCOc1c[nH+]ccn1)CCc1cccc([O-])c1 (3D coordinates assigned)
CN(CCOc1c[nH+]ccn1)CCc1cccc([O-])c1 (optimized conformer: 36.87266304454509 kcal/mol)

>  <smiles>  (66) 
CN(CCOc1cnccn1)CCc1cccc(O)c1

>  <score_type>  (66) 
oracle

>  <origin>  (66) 
adg

>  <m_score__min__energy>  (66) 
-8.5700000000000003

>  <m_primary>  (66) 
energy

$$$$
66:0
     RDKit          3D

 35 37  0  0  0  0  0  0  0  0999 V2000
   60.6170   26.3855   46.1411 H   0  0  0  0  0  0  0  0  0  0  0  0
   59.5530   26.6370   46.0200 C   0  0  0  0  0  0  0  0  0  0  0  0
   59.1290   27.9140   46.2260 N   0  0  0  0  0  0  0  0  0  0  0  0
   57.8190   28.2730   46.0920 C   0  0  0  0  0  0  0  0  0  0  0  0
   57.4350   29.5050   46.2730 N   0  0  0  0  0  0  0  0  0  0  0  0
   57.0490   30.4510   45.2610 C   0  0  0  0  0  0  0  0  0  0  0  0
   56.1190   30.1690   44.4530 O   0  0  0  0  0  0  0  0  0  0  0  0
   57.7330   31.7680   45.1430 C   0  0  0  0  0  0  0  0  0  0  0  0
   57.9590   32.3730   43.8970 C   0  0  0  0  0  0  0  0  0  0  0  0
   57.4110   31.8280   42.3210 Cl  0  0  0  0  0  0  0  0  0  0  0  0
   58.8260   33.7900   44.1090 S   0  0  0  0  0  0  0  0  0  0  0  0
   58.9390   33.6830   45.7740 C   0  0  0  0  0  0  0  0  0  0  0  0
   59.8250   34.8440   46.7500 Cl  0  0  0  0  0  0  0  0  0  0  0  0
   58.2800   32.5310   46.2140 C   0  0  0  0  0  0  0  0  0  0  0  0
   58.2660   32.1480   47.6790 C   0  0  0  0  0  0  0  0  0  0  0  0
   58.3773   33.0553   48.2909 H   0  0  0  0  0  0  0  0  0  0  0  0
   57.3117   31.6503   47.9062 H   0  0  0  0  0  0  0  0  0  0  0  0
   59.3320   31.2520   47.9730 O   0  0  0  0  0  0  0  0  0  0  0  0
   60.6550   31.6910   48.0320 C   0  0  0  0  0  0  0  0  0  0  0  0
   61.6180   31.1730   47.1500 C   0  0  0  0  0  0  0  0  0  0  0  0
   61.3257   30.4279   46.3955 H   0  0  0  0  0  0  0  0  0  0  0  0
   62.9490   31.6020   47.2280 C   0  0  0  0  0  0  0  0  0  0  0  0
   63.7033   31.1841   46.5450 H   0  0  0  0  0  0  0  0  0  0  0  0
   63.3180   32.5630   48.1760 C   0  0  0  0  0  0  0  0  0  0  0  0
   64.3626   32.9024   48.2355 H   0  0  0  0  0  0  0  0  0  0  0  0
   62.3590   33.0940   49.0500 C   0  0  0  0  0  0  0  0  0  0  0  0
   62.8330   34.2660   50.2630 Cl  0  0  0  0  0  0  0  0  0  0  0  0
   61.0290   32.6640   48.9700 C   0  0  0  0  0  0  0  0  0  0  0  0
   60.2739   33.0914   49.6461 H   0  0  0  0  0  0  0  0  0  0  0  0
   56.8730   27.2950   45.7410 C   0  0  0  0  0  0  0  0  0  0  0  0
   55.5280   27.6230   45.6170 O   0  0  0  0  0  0  0  0  0  0  0  0
   57.2920   25.9790   45.5170 C   0  0  0  0  0  0  0  0  0  0  0  0
   56.5600   25.2088   45.2324 H   0  0  0  0  0  0  0  0  0  0  0  0
   58.6390   25.6450   45.6550 C   0  0  0  0  0  0  0  0  0  0  0  0
   58.9778   24.6134   45.4787 H   0  0  0  0  0  0  0  0  0  0  0  0
  1  2  1  0
  2  3  1  0
  3  4  1  0
  4  5  2  0
  5  6  1  0
  6  7  2  0
  6  8  1  0
  8  9  2  0
  9 10  1  0
  9 11  1  0
 11 12  1  0
 12 13  1  0
 12 14  2  0
 14 15  1  0
 15 16  1  0
 15 17  1  0
 15 18  1  0
 18 19  1  0
 19 20  2  0
 20 21  1  0
 20 22  1  0
 22 23  1  0
 22 24  2  0
 24 25  1  0
 24 26  1  0
 26 27  1  0
 26 28  2  0
 28 29  1  0
  4 30  1  0
 30 31  1  0
 30 32  2  0
 32 33  1  0
 32 34  1  0
 34 35  1  0
 34  2  2  0
 14  8  1  0
 28 19  1  0
M  CHG  2   3  -1  31  -1
M  END
>  <UniqueID>  (67) 
59

>  <SMILES>  (67) 
O=C(/N=c1\[n-]cccc1[O-])c1c(Cl)sc(Cl)c1COc1cccc(Cl)c1

>  <Energy>  (67) 
76.2532335184152

>  <Genealogy>  (67) 
O=C(N=c1[n-]cccc1[O-])c1c(Cl)sc(Cl)c1COc1cccc(Cl)c1 (protonated)
O=C(/N=c1\[n-]cccc1[O-])c1c(Cl)sc(Cl)c1COc1cccc(Cl)c1 (cis-trans isomerization)
O=C(/N=c1\[n-]cccc1[O-])c1c(Cl)sc(Cl)c1COc1cccc(Cl)c1 (3D coordinates assigned)
O=C(/N=c1\[n-]cccc1[O-])c1c(Cl)sc(Cl)c1COc1cccc(Cl)c1 (optimized conformer: 76.2532335184152 kcal/mol)

>  <smiles>  (67) 
O=C(N=c1[nH]cccc1O)c1c(Cl)sc(Cl)c1COc1cccc(Cl)c1

>  <score_type>  (67) 
oracle

>  <origin>  (67) 
adg

>  <m_score__min__energy>  (67) 
-13.92

>  <m_primary>  (67) 
energy

$$$$
67:0
     RDKit          3D

 89 93  0  0  0  0  0  0  0  0999 V2000
   55.5920   27.0560   45.8690 O   0  0  0  0  0  0  0  0  0  0  0  0
   56.7160   26.4840   45.8250 C   0  0  0  0  0  0  0  0  0  0  0  0
   57.2120   25.9690   44.5860 N   0  0  0  0  0  0  0  0  0  0  0  0
   58.3000   26.5910   43.8400 C   0  0  0  0  0  0  0  0  0  0  0  0
   57.7930   27.8070   43.0570 C   0  0  0  0  0  0  0  0  0  0  0  0
   57.0130   28.6970   43.9170 N   0  0  0  0  0  0  0  0  0  0  0  0
   57.4040   30.0370   44.2770 C   0  0  0  0  0  0  0  0  0  0  0  0
   57.4630   31.0240   43.2810 C   0  0  0  0  0  0  0  0  0  0  0  0
   57.8000   32.3410   43.6040 C   0  0  0  0  0  0  0  0  0  0  0  0
   58.0870   32.7000   44.9240 C   0  0  0  0  0  0  0  0  0  0  0  0
   58.3870   34.0450   45.1970 O   0  0  0  0  0  0  0  0  0  0  0  0
   58.5930   34.6020   46.4980 C   0  0  0  0  0  0  0  0  0  0  0  0
   59.9200   34.1710   47.0650 C   0  0  0  0  0  0  0  0  0  0  0  0
   60.0760   34.0130   48.4530 C   0  0  0  0  0  0  0  0  0  0  0  0
   61.3030   33.6010   48.9810 C   0  0  0  0  0  0  0  0  0  0  0  0
   62.3840   33.3520   48.1310 C   0  0  0  0  0  0  0  0  0  0  0  0
   62.2420   33.5200   46.7510 C   0  0  0  0  0  0  0  0  0  0  0  0
   61.0170   33.9340   46.2190 C   0  0  0  0  0  0  0  0  0  0  0  0
   58.0610   31.7110   45.9220 C   0  0  0  0  0  0  0  0  0  0  0  0
   57.7140   30.3940   45.6030 C   0  0  0  0  0  0  0  0  0  0  0  0
   57.5420   26.3160   47.0720 C   0  0  2  0  0  0  0  0  0  0  0  0
   59.0480   26.2740   46.7420 C   0  0  0  0  0  0  0  0  0  0  0  0
   59.6380   27.6650   46.6940 C   0  0  0  0  0  0  0  0  0  0  0  0
   60.3320   28.0930   45.5500 C   0  0  0  0  0  0  0  0  0  0  0  0
   60.9570   29.3430   45.5270 C   0  0  0  0  0  0  0  0  0  0  0  0
   60.8850   30.1800   46.6440 C   0  0  0  0  0  0  0  0  0  0  0  0
   60.1880   29.7680   47.7830 C   0  0  0  0  0  0  0  0  0  0  0  0
   59.5700   28.5130   47.8140 C   0  0  0  0  0  0  0  0  0  0  0  0
   58.9090   28.1270   48.9360 F   0  0  0  0  0  0  0  0  0  0  0  0
   57.1250   25.1470   47.8510 N   0  0  0  0  0  0  0  0  0  0  0  0
   57.2840   23.7690   47.4850 C   0  0  0  0  0  0  0  0  0  0  0  0
   58.1730   23.4310   46.6550 O   0  0  0  0  0  0  0  0  0  0  0  0
   56.4780   22.7100   48.1930 C   0  0  1  0  0  0  0  0  0  0  0  0
   55.5960   21.9030   47.2130 C   0  0  0  0  0  0  0  0  0  0  0  0
   55.8710   22.2660   45.7740 C   0  0  0  0  0  0  0  0  0  0  0  0
   55.1690   23.3260   45.1670 C   0  0  0  0  0  0  0  0  0  0  0  0
   55.4450   23.6900   43.8450 C   0  0  0  0  0  0  0  0  0  0  0  0
   56.4140   22.9950   43.1150 C   0  0  0  0  0  0  0  0  0  0  0  0
   57.1060   21.9340   43.7060 C   0  0  0  0  0  0  0  0  0  0  0  0
   56.8340   21.5670   45.0280 C   0  0  0  0  0  0  0  0  0  0  0  0
   57.3900   21.7970   48.8950 N   0  0  0  0  0  0  0  0  0  0  0  0
   56.5090   20.6420   49.8550 S   0  0  0  0  0  0  0  0  0  0  0  0
   55.1480   21.1960   50.1690 O   0  0  0  0  0  0  0  0  0  0  0  0
   56.3470   19.3800   49.0570 O   0  0  0  0  0  0  0  0  0  0  0  0
   57.3740   20.3210   51.3440 N   0  0  0  0  0  0  0  0  0  0  0  0
   58.3060   21.4170   51.6900 C   0  0  0  0  0  0  0  0  0  0  0  0
   59.7620   21.1040   51.3020 C   0  0  0  0  0  0  0  0  0  0  0  0
   59.7980   20.2980   50.1480 O   0  0  0  0  0  0  0  0  0  0  0  0
   59.3090   19.0000   50.4420 C   0  0  0  0  0  0  0  0  0  0  0  0
   58.0340   19.0050   51.3200 C   0  0  0  0  0  0  0  0  0  0  0  0
   59.0816   26.9144   44.5433 H   0  0  0  0  0  0  0  0  0  0  0  0
   58.7069   25.8568   43.1291 H   0  0  0  0  0  0  0  0  0  0  0  0
   58.6544   28.3600   42.6542 H   0  0  0  0  0  0  0  0  0  0  0  0
   57.1460   27.4531   42.2408 H   0  0  0  0  0  0  0  0  0  0  0  0
   56.1610   28.2910   44.3650 H   0  0  0  0  0  0  0  0  0  0  0  0
   57.2420   30.7584   42.2367 H   0  0  0  0  0  0  0  0  0  0  0  0
   57.8398   33.1029   42.8116 H   0  0  0  0  0  0  0  0  0  0  0  0
   58.5714   35.6995   46.4271 H   0  0  0  0  0  0  0  0  0  0  0  0
   57.7941   34.2433   47.1636 H   0  0  0  0  0  0  0  0  0  0  0  0
   59.2296   34.2143   49.1261 H   0  0  0  0  0  0  0  0  0  0  0  0
   61.4179   33.4726   50.0674 H   0  0  0  0  0  0  0  0  0  0  0  0
   63.3472   33.0236   48.5485 H   0  0  0  0  0  0  0  0  0  0  0  0
   63.0942   33.3265   46.0830 H   0  0  0  0  0  0  0  0  0  0  0  0
   60.9114   34.0749   45.1332 H   0  0  0  0  0  0  0  0  0  0  0  0
   58.3149   31.9739   46.9595 H   0  0  0  0  0  0  0  0  0  0  0  0
   57.6831   29.6310   46.3948 H   0  0  0  0  0  0  0  0  0  0  0  0
   57.3649   27.1987   47.7041 H   0  0  0  0  0  0  0  0  0  0  0  0
   59.5684   25.6904   47.5157 H   0  0  0  0  0  0  0  0  0  0  0  0
   59.1743   25.8086   45.7533 H   0  0  0  0  0  0  0  0  0  0  0  0
   60.3839   27.4400   44.6663 H   0  0  0  0  0  0  0  0  0  0  0  0
   61.5052   29.6678   44.6303 H   0  0  0  0  0  0  0  0  0  0  0  0
   61.3772   31.1636   46.6265 H   0  0  0  0  0  0  0  0  0  0  0  0
   60.1250   30.4321   48.6576 H   0  0  0  0  0  0  0  0  0  0  0  0
   55.8102   23.2135   48.9075 H   0  0  0  0  0  0  0  0  0  0  0  0
   55.7983   20.8310   47.3536 H   0  0  0  0  0  0  0  0  0  0  0  0
   54.5439   22.1412   47.4282 H   0  0  0  0  0  0  0  0  0  0  0  0
   54.4002   23.8699   45.7354 H   0  0  0  0  0  0  0  0  0  0  0  0
   54.8992   24.5238   43.3792 H   0  0  0  0  0  0  0  0  0  0  0  0
   56.6317   23.2831   42.0760 H   0  0  0  0  0  0  0  0  0  0  0  0
   57.8664   21.3863   43.1300 H   0  0  0  0  0  0  0  0  0  0  0  0
   57.3769   20.7269   45.4856 H   0  0  0  0  0  0  0  0  0  0  0  0
   57.9892   22.3282   51.1615 H   0  0  0  0  0  0  0  0  0  0  0  0
   58.2741   21.5477   52.7817 H   0  0  0  0  0  0  0  0  0  0  0  0
   60.2951   22.0456   51.1037 H   0  0  0  0  0  0  0  0  0  0  0  0
   60.2448   20.5646   52.1302 H   0  0  0  0  0  0  0  0  0  0  0  0
   59.0771   18.4923   49.4941 H   0  0  0  0  0  0  0  0  0  0  0  0
   60.0929   18.4803   51.0125 H   0  0  0  0  0  0  0  0  0  0  0  0
   57.3273   18.2626   50.9207 H   0  0  0  0  0  0  0  0  0  0  0  0
   58.3350   18.7620   52.3497 H   0  0  0  0  0  0  0  0  0  0  0  0
  1  2  2  0
  2  3  1  0
  3  4  1  0
  4  5  1  0
  5  6  1  0
  6  7  1  0
  7  8  2  0
  8  9  1  0
  9 10  2  0
 10 11  1  0
 11 12  1  0
 12 13  1  0
 13 14  2  0
 14 15  1  0
 15 16  2  0
 16 17  1  0
 17 18  2  0
 10 19  1  0
 19 20  2  0
  2 21  1  0
 21 22  1  0
 22 23  1  0
 23 24  2  0
 24 25  1  0
 25 26  2  0
 26 27  1  0
 27 28  2  0
 28 29  1  0
 21 30  1  0
 30 31  1  0
 31 32  2  0
 31 33  1  0
 33 34  1  0
 34 35  1  0
 35 36  2  0
 36 37  1  0
 37 38  2  0
 38 39  1  0
 39 40  2  0
 33 41  1  0
 41 42  1  0
 42 43  2  0
 42 44  2  0
 42 45  1  0
 45 46  1  0
 46 47  1  0
 47 48  1  0
 48 49  1  0
 49 50  1  0
 20  7  1  0
 28 23  1  0
 40 35  1  0
 50 45  1  0
 18 13  1  0
  4 51  1  0
  4 52  1  0
  5 53  1  0
  5 54  1  0
  6 55  1  0
  8 56  1  0
  9 57  1  0
 12 58  1  0
 12 59  1  0
 14 60  1  0
 15 61  1  0
 16 62  1  0
 17 63  1  0
 18 64  1  0
 19 65  1  0
 20 66  1  0
 21 67  1  1
 22 68  1  0
 22 69  1  0
 24 70  1  0
 25 71  1  0
 26 72  1  0
 27 73  1  0
 33 74  1  1
 34 75  1  0
 34 76  1  0
 36 77  1  0
 37 78  1  0
 38 79  1  0
 39 80  1  0
 40 81  1  0
 46 82  1  0
 46 83  1  0
 47 84  1  0
 47 85  1  0
 49 86  1  0
 49 87  1  0
 50 88  1  0
 50 89  1  0
M  CHG  3   3  -1  30  -1  41  -1
M  END
>  <UniqueID>  (68) 
60

>  <SMILES>  (68) 
O=C([N-]CCNc1ccc(OCc2ccccc2)cc1)[C@H](Cc1ccccc1F)[N-]C(=O)[C@@H](Cc1ccccc1)[N-]S(=O)(=O)N1CCOCC1

>  <Energy>  (68) 
92.90613465261703

>  <Genealogy>  (68) 
O=C([N-]CCNc1ccc(OCc2ccccc2)cc1)C(Cc1ccccc1F)[N-]C(=O)C(Cc1ccccc1)[N-]S(=O)(=O)N1CCOCC1 (protonated)
O=C([N-]CCNc1ccc(OCc2ccccc2)cc1)[C@H](Cc1ccccc1F)[N-]C(=O)[C@@H](Cc1ccccc1)[N-]S(=O)(=O)N1CCOCC1 (chirality)
O=C([N-]CCNc1ccc(OCc2ccccc2)cc1)[C@H](Cc1ccccc1F)[N-]C(=O)[C@@H](Cc1ccccc1)[N-]S(=O)(=O)N1CCOCC1 (3D coordinates assigned)
O=C([N-]CCNc1ccc(OCc2ccccc2)cc1)[C@H](Cc1ccccc1F)[N-]C(=O)[C@@H](Cc1ccccc1)[N-]S(=O)(=O)N1CCOCC1 (nonaromatic ring conformer: 92.90613465261703 kcal/mol)

>  <smiles>  (68) 
O=C(NCCNc1ccc(OCc2ccccc2)cc1)C(Cc1ccccc1F)NC(=O)C(Cc1ccccc1)NS(=O)(=O)N1CCOCC1

>  <score_type>  (68) 
oracle

>  <origin>  (68) 
adg

>  <m_score__min__energy>  (68) 
-14.529999999999999

>  <m_primary>  (68) 
energy

$$$$
68:0
     RDKit          3D

 34 36  0  0  0  0  0  0  0  0999 V2000
   62.6800   33.8900   48.0860 O   0  0  0  0  0  0  0  0  0  0  0  0
   61.6090   33.7020   48.7230 C   0  0  0  0  0  0  0  0  0  0  0  0
   61.4810   34.2210   50.0060 O   0  0  0  0  0  0  0  0  0  0  0  0
   60.4980   32.9420   48.1250 C   0  0  0  0  0  0  0  0  0  0  0  0
   59.3060   33.5720   47.7420 C   0  0  0  0  0  0  0  0  0  0  0  0
   58.2810   32.8170   47.1700 C   0  0  0  0  0  0  0  0  0  0  0  0
   57.2010   33.3830   46.8520 O   0  0  0  0  0  0  0  0  0  0  0  0
   58.4540   31.4340   46.9660 C   0  0  0  0  0  0  0  0  0  0  0  0
   57.4630   30.6520   46.3500 O   0  0  0  0  0  0  0  0  0  0  0  0
   57.1690   30.6450   44.9790 C   0  0  0  0  0  0  0  0  0  0  0  0
   57.8830   31.5100   44.1410 C   0  0  0  0  0  0  0  0  0  0  0  0
   57.6250   31.5380   42.7670 C   0  0  0  0  0  0  0  0  0  0  0  0
   56.6420   30.7090   42.2220 C   0  0  0  0  0  0  0  0  0  0  0  0
   55.9060   29.8590   43.0530 C   0  0  0  0  0  0  0  0  0  0  0  0
   56.1550   29.8300   44.4300 C   0  0  0  0  0  0  0  0  0  0  0  0
   55.3760   29.0140   45.2420 O   0  0  0  0  0  0  0  0  0  0  0  0
   59.6470   30.8280   47.4100 C   0  0  0  0  0  0  0  0  0  0  0  0
   59.8890   29.3740   47.2620 C   0  0  0  0  0  0  0  0  0  0  0  0
   60.0060   28.5370   48.3870 C   0  0  0  0  0  0  0  0  0  0  0  0
   60.2510   27.1690   48.2260 C   0  0  0  0  0  0  0  0  0  0  0  0
   60.3930   26.6270   46.9460 C   0  0  0  0  0  0  0  0  0  0  0  0
   60.2960   27.4540   45.8240 C   0  0  0  0  0  0  0  0  0  0  0  0
   60.0530   28.8220   45.9790 C   0  0  0  0  0  0  0  0  0  0  0  0
   60.6290   31.6000   47.9530 N   0  0  0  0  0  0  0  0  0  0  0  0
   59.1792   34.6544   47.8913 H   0  0  0  0  0  0  0  0  0  0  0  0
   58.6519   32.1718   44.5662 H   0  0  0  0  0  0  0  0  0  0  0  0
   58.1971   32.2139   42.1144 H   0  0  0  0  0  0  0  0  0  0  0  0
   56.4469   30.7248   41.1395 H   0  0  0  0  0  0  0  0  0  0  0  0
   55.1284   29.2106   42.6230 H   0  0  0  0  0  0  0  0  0  0  0  0
   59.9044   28.9600   49.3973 H   0  0  0  0  0  0  0  0  0  0  0  0
   60.3320   26.5185   49.1093 H   0  0  0  0  0  0  0  0  0  0  0  0
   60.5810   25.5503   46.8218 H   0  0  0  0  0  0  0  0  0  0  0  0
   60.4111   27.0278   44.8165 H   0  0  0  0  0  0  0  0  0  0  0  0
   59.9897   29.4702   45.0925 H   0  0  0  0  0  0  0  0  0  0  0  0
  1  2  2  0
  2  3  1  0
  2  4  1  0
  4  5  2  0
  5  6  1  0
  6  7  2  0
  6  8  1  0
  8  9  1  0
  9 10  1  0
 10 11  2  0
 11 12  1  0
 12 13  2  0
 13 14  1  0
 14 15  2  0
 15 16  1  0
  8 17  2  0
 17 18  1  0
 18 19  2  0
 19 20  1  0
 20 21  2  0
 21 22  1  0
 22 23  2  0
 17 24  1  0
 24  4  1  0
 15 10  1  0
 23 18  1  0
  5 25  1  0
 11 26  1  0
 12 27  1  0
 13 28  1  0
 14 29  1  0
 19 30  1  0
 20 31  1  0
 21 32  1  0
 22 33  1  0
 23 34  1  0
M  CHG  3   3  -1  16  -1  24  -1
M  END
>  <UniqueID>  (69) 
61

>  <SMILES>  (69) 
O=C([O-])c1cc(=O)c(Oc2ccccc2[O-])c(-c2ccccc2)[n-]1

>  <Energy>  (69) 
52.61707476719997

>  <Genealogy>  (69) 
O=C([O-])c1cc(=O)c(Oc2ccccc2[O-])c(-c2ccccc2)[n-]1 (protonated)
O=C([O-])c1cc(=O)c(Oc2ccccc2[O-])c(-c2ccccc2)[n-]1 (3D coordinates assigned)
O=C([O-])c1cc(=O)c(Oc2ccccc2[O-])c(-c2ccccc2)[n-]1 (optimized conformer: 52.61707476719997 kcal/mol)

>  <smiles>  (69) 
O=C(O)c1cc(=O)c(Oc2ccccc2O)c(-c2ccccc2)[nH]1

>  <score_type>  (69) 
oracle

>  <origin>  (69) 
adg

>  <m_score__min__energy>  (69) 
-12.25

>  <m_primary>  (69) 
energy

$$$$
69:0
     RDKit          3D

 42 45  0  0  0  0  0  0  0  0999 V2000
   59.1770   33.5620   49.0070 O   0  0  0  0  0  0  0  0  0  0  0  0
   58.8310   32.8400   48.0320 C   0  0  0  0  0  0  0  0  0  0  0  0
   58.7810   31.4130   48.1720 N   0  0  0  0  0  0  0  0  0  0  0  0
   59.0240   30.7500   49.4180 C   0  0  0  0  0  0  0  0  0  0  0  0
   58.3410   31.1870   50.5660 C   0  0  0  0  0  0  0  0  0  0  0  0
   58.4520   30.4870   51.7690 C   0  0  0  0  0  0  0  0  0  0  0  0
   59.2330   29.3340   51.8350 C   0  0  0  0  0  0  0  0  0  0  0  0
   59.9200   28.8900   50.7050 C   0  0  0  0  0  0  0  0  0  0  0  0
   59.8480   29.5960   49.4960 C   0  0  0  0  0  0  0  0  0  0  0  0
   60.6290   29.1160   48.4300 O   0  0  0  0  0  0  0  0  0  0  0  0
   60.3390   27.9690   47.6360 C   0  0  0  0  0  0  0  0  0  0  0  0
   59.2250   28.2980   46.6930 C   0  0  0  0  0  0  0  0  0  0  0  0
   58.0710   27.5150   46.6550 C   0  0  0  0  0  0  0  0  0  0  0  0
   57.0390   27.8730   45.7860 C   0  0  0  0  0  0  0  0  0  0  0  0
   55.9990   27.1570   45.7510 O   0  0  0  0  0  0  0  0  0  0  0  0
   57.1590   28.9850   44.9890 N   0  0  0  0  0  0  0  0  0  0  0  0
   56.1520   29.3470   44.1300 C   0  0  0  0  0  0  0  0  0  0  0  0
   56.2730   30.4800   43.3230 C   0  0  0  0  0  0  0  0  0  0  0  0
   57.4290   31.2520   43.3920 C   0  0  0  0  0  0  0  0  0  0  0  0
   58.4530   30.8870   44.2620 C   0  0  0  0  0  0  0  0  0  0  0  0
   58.3080   29.7470   45.0590 C   0  0  0  0  0  0  0  0  0  0  0  0
   59.3120   29.3980   45.9050 N   0  0  0  0  0  0  0  0  0  0  0  0
   58.5030   33.4680   46.7440 C   0  0  0  0  0  0  0  0  0  0  0  0
   59.3660   34.2080   45.9590 C   0  0  0  0  0  0  0  0  0  0  0  0
   58.6310   34.5890   44.8570 C   0  0  0  0  0  0  0  0  0  0  0  0
   57.3690   34.0600   45.0380 C   0  0  0  0  0  0  0  0  0  0  0  0
   57.3240   33.3970   46.1700 O   0  0  0  0  0  0  0  0  0  0  0  0
   58.5350   30.8270   47.3430 H   0  0  0  0  0  0  0  0  0  0  0  0
   57.7132   32.0889   50.5163 H   0  0  0  0  0  0  0  0  0  0  0  0
   57.9233   30.8452   52.6646 H   0  0  0  0  0  0  0  0  0  0  0  0
   59.3075   28.7740   52.7788 H   0  0  0  0  0  0  0  0  0  0  0  0
   60.5261   27.9739   50.7634 H   0  0  0  0  0  0  0  0  0  0  0  0
   61.2333   27.6808   47.0640 H   0  0  0  0  0  0  0  0  0  0  0  0
   60.0410   27.1330   48.2858 H   0  0  0  0  0  0  0  0  0  0  0  0
   57.9758   26.6290   47.3000 H   0  0  0  0  0  0  0  0  0  0  0  0
   55.2382   28.7371   44.0765 H   0  0  0  0  0  0  0  0  0  0  0  0
   55.4600   30.7606   42.6372 H   0  0  0  0  0  0  0  0  0  0  0  0
   57.5333   32.1473   42.7615 H   0  0  0  0  0  0  0  0  0  0  0  0
   59.3701   31.4914   44.3221 H   0  0  0  0  0  0  0  0  0  0  0  0
   60.4196   34.4439   46.1695 H   0  0  0  0  0  0  0  0  0  0  0  0
   58.9795   35.1923   44.0058 H   0  0  0  0  0  0  0  0  0  0  0  0
   56.5277   34.1765   44.3389 H   0  0  0  0  0  0  0  0  0  0  0  0
  1  2  2  0
  2  3  1  0
  3  4  1  0
  4  5  2  0
  5  6  1  0
  6  7  2  0
  7  8  1  0
  8  9  2  0
  9 10  1  0
 10 11  1  0
 11 12  1  0
 12 13  2  0
 13 14  1  0
 14 15  2  0
 14 16  1  0
 16 17  1  0
 17 18  2  0
 18 19  1  0
 19 20  2  0
 20 21  1  0
 21 22  2  0
  2 23  1  0
 23 24  2  0
 24 25  1  0
 25 26  2  0
 26 27  1  0
  9  4  1  0
 22 12  1  0
 27 23  1  0
 21 16  1  0
  3 28  1  0
  5 29  1  0
  6 30  1  0
  7 31  1  0
  8 32  1  0
 11 33  1  0
 11 34  1  0
 13 35  1  0
 17 36  1  0
 18 37  1  0
 19 38  1  0
 20 39  1  0
 24 40  1  0
 25 41  1  0
 26 42  1  0
M  END
>  <UniqueID>  (70) 
62

>  <SMILES>  (70) 
O=C(Nc1ccccc1OCc1cc(=O)n2ccccc2n1)c1ccco1

>  <Energy>  (70) 
85.2028144545821

>  <Genealogy>  (70) 
O=C(Nc1ccccc1OCc1cc(=O)n2ccccc2n1)c1ccco1 (3D coordinates assigned)
O=C(Nc1ccccc1OCc1cc(=O)n2ccccc2n1)c1ccco1 (optimized conformer: 85.2028144545821 kcal/mol)

>  <smiles>  (70) 
O=C(Nc1ccccc1OCc1cc(=O)n2ccccc2n1)c1ccco1

>  <score_type>  (70) 
oracle

>  <origin>  (70) 
adg

>  <m_score__min__energy>  (70) 
-7.3300000000000001

>  <m_primary>  (70) 
energy

$$$$
70:0
     RDKit          3D

 47 49  0  0  0  0  0  0  0  0999 V2000
   64.7570   33.0470   49.5490 C   0  0  0  0  0  0  0  0  0  0  0  0
   63.5910   33.3220   48.6460 C   0  0  0  0  0  0  0  0  0  0  0  0
   63.7270   33.1910   47.2600 C   0  0  0  0  0  0  0  0  0  0  0  0
   62.6490   33.4690   46.4180 C   0  0  0  0  0  0  0  0  0  0  0  0
   61.4200   33.9020   46.9430 C   0  0  0  0  0  0  0  0  0  0  0  0
   60.2810   34.1730   45.9940 C   0  0  0  0  0  0  0  0  0  0  0  0
   61.2920   34.0950   48.3420 C   0  0  0  0  0  0  0  0  0  0  0  0
   60.0060   34.5840   48.9770 C   0  0  0  0  0  0  0  0  0  0  0  0
   58.9630   33.6130   48.8560 O   0  0  0  0  0  0  0  0  0  0  0  0
   59.1270   32.2260   49.0170 C   0  0  0  0  0  0  0  0  0  0  0  0
   59.6570   31.7520   50.2230 C   0  0  0  0  0  0  0  0  0  0  0  0
   59.8330   30.3820   50.4290 C   0  0  0  0  0  0  0  0  0  0  0  0
   59.4850   29.4700   49.4290 C   0  0  0  0  0  0  0  0  0  0  0  0
   58.9640   29.9290   48.2100 C   0  0  0  0  0  0  0  0  0  0  0  0
   58.5620   29.0170   47.1780 N   0  0  0  0  0  0  0  0  0  0  0  0
   57.6280   29.3580   46.1400 C   0  0  0  0  0  0  0  0  0  0  0  0
   57.3930   30.5630   45.8620 O   0  0  0  0  0  0  0  0  0  0  0  0
   56.9730   28.3330   45.3840 N   0  0  0  0  0  0  0  0  0  0  0  0
   57.1450   26.9200   45.5700 C   0  0  0  0  0  0  0  0  0  0  0  0
   58.4170   26.3200   45.4960 C   0  0  0  0  0  0  0  0  0  0  0  0
   58.5610   24.9450   45.7000 C   0  0  0  0  0  0  0  0  0  0  0  0
   57.4440   24.1610   45.9980 C   0  0  0  0  0  0  0  0  0  0  0  0
   56.1820   24.7530   46.1030 C   0  0  0  0  0  0  0  0  0  0  0  0
   56.0330   26.1300   45.8970 C   0  0  0  0  0  0  0  0  0  0  0  0
   54.7720   26.7070   46.0100 O   0  0  0  0  0  0  0  0  0  0  0  0
   58.7780   31.3030   48.0130 C   0  0  0  0  0  0  0  0  0  0  0  0
   62.3790   33.7790   49.1800 C   0  0  0  0  0  0  0  0  0  0  0  0
   64.4344   33.1231   50.5979 H   0  0  0  0  0  0  0  0  0  0  0  0
   65.1396   32.0340   49.3556 H   0  0  0  0  0  0  0  0  0  0  0  0
   65.5519   33.7823   49.3556 H   0  0  0  0  0  0  0  0  0  0  0  0
   64.6873   32.8676   46.8319 H   0  0  0  0  0  0  0  0  0  0  0  0
   62.7631   33.3476   45.3307 H   0  0  0  0  0  0  0  0  0  0  0  0
   59.3686   34.3901   46.5688 H   0  0  0  0  0  0  0  0  0  0  0  0
   60.5294   35.0371   45.3603 H   0  0  0  0  0  0  0  0  0  0  0  0
   60.1136   33.2896   45.3603 H   0  0  0  0  0  0  0  0  0  0  0  0
   60.1868   34.7842   50.0434 H   0  0  0  0  0  0  0  0  0  0  0  0
   59.6890   35.4998   48.4566 H   0  0  0  0  0  0  0  0  0  0  0  0
   59.9367   32.4636   51.0138 H   0  0  0  0  0  0  0  0  0  0  0  0
   60.2469   30.0196   51.3815 H   0  0  0  0  0  0  0  0  0  0  0  0
   59.6197   28.3914   49.5978 H   0  0  0  0  0  0  0  0  0  0  0  0
   58.8240   28.0130   47.2960 H   0  0  0  0  0  0  0  0  0  0  0  0
   59.3012   26.9365   45.2766 H   0  0  0  0  0  0  0  0  0  0  0  0
   59.5550   24.4796   45.6258 H   0  0  0  0  0  0  0  0  0  0  0  0
   57.5575   23.0775   46.1501 H   0  0  0  0  0  0  0  0  0  0  0  0
   55.3047   24.1362   46.3478 H   0  0  0  0  0  0  0  0  0  0  0  0
   58.3549   31.6646   47.0642 H   0  0  0  0  0  0  0  0  0  0  0  0
   62.2749   33.8926   50.2692 H   0  0  0  0  0  0  0  0  0  0  0  0
  1  2  1  0
  2  3  2  0
  3  4  1  0
  4  5  2  0
  5  6  1  0
  5  7  1  0
  7  8  1  0
  8  9  1  0
  9 10  1  0
 10 11  2  0
 11 12  1  0
 12 13  2  0
 13 14  1  0
 14 15  1  0
 15 16  1  0
 16 17  2  0
 16 18  1  0
 18 19  1  0
 19 20  2  0
 20 21  1  0
 21 22  2  0
 22 23  1  0
 23 24  2  0
 24 25  1  0
 14 26  2  0
  7 27  2  0
 27  2  1  0
 26 10  1  0
 24 19  1  0
  1 28  1  0
  1 29  1  0
  1 30  1  0
  3 31  1  0
  4 32  1  0
  6 33  1  0
  6 34  1  0
  6 35  1  0
  8 36  1  0
  8 37  1  0
 11 38  1  0
 12 39  1  0
 13 40  1  0
 15 41  1  0
 20 42  1  0
 21 43  1  0
 22 44  1  0
 23 45  1  0
 26 46  1  0
 27 47  1  0
M  CHG  2  18  -1  25  -1
M  END
>  <UniqueID>  (71) 
63

>  <SMILES>  (71) 
Cc1ccc(C)c(COc2cccc(NC(=O)[N-]c3ccccc3[O-])c2)c1

>  <Energy>  (71) 
57.6802950585836

>  <Genealogy>  (71) 
Cc1ccc(C)c(COc2cccc(NC(=O)[N-]c3ccccc3[O-])c2)c1 (protonated)
Cc1ccc(C)c(COc2cccc(NC(=O)[N-]c3ccccc3[O-])c2)c1 (3D coordinates assigned)
Cc1ccc(C)c(COc2cccc(NC(=O)[N-]c3ccccc3[O-])c2)c1 (optimized conformer: 57.6802950585836 kcal/mol)

>  <smiles>  (71) 
Cc1ccc(C)c(COc2cccc(NC(=O)Nc3ccccc3O)c2)c1

>  <score_type>  (71) 
oracle

>  <origin>  (71) 
adg

>  <m_score__min__energy>  (71) 
-14.59

>  <m_primary>  (71) 
energy

$$$$
71:0
     RDKit          3D

 32 34  0  0  0  0  0  0  0  0999 V2000
   59.8030   35.6290   46.0680 C   0  0  0  0  0  0  0  0  0  0  0  0
   59.3050   34.2230   45.9170 C   0  0  0  0  0  0  0  0  0  0  0  0
   59.4030   33.3200   46.9860 C   0  0  0  0  0  0  0  0  0  0  0  0
   58.9050   32.0200   46.8610 C   0  0  0  0  0  0  0  0  0  0  0  0
   58.3000   31.6030   45.6620 C   0  0  0  0  0  0  0  0  0  0  0  0
   57.7540   30.2820   45.5130 N   0  0  0  0  0  0  0  0  0  0  0  0
   56.4910   29.9960   44.8860 C   0  0  0  0  0  0  0  0  0  0  0  0
   55.8080   30.9210   44.3720 O   0  0  0  0  0  0  0  0  0  0  0  0
   55.9990   28.6540   44.8060 N   0  0  0  0  0  0  0  0  0  0  0  0
   56.6370   27.4920   45.3510 C   0  0  0  0  0  0  0  0  0  0  0  0
   58.0500   27.3390   45.3170 C   0  0  0  0  0  0  0  0  0  0  0  0
   58.6620   26.2070   45.8880 C   0  0  0  0  0  0  0  0  0  0  0  0
   57.8380   25.2640   46.4970 C   0  0  0  0  0  0  0  0  0  0  0  0
   58.2030   24.1270   47.1040 N   0  0  0  0  0  0  0  0  0  0  0  0
   57.0090   23.6280   47.5130 C   0  0  0  0  0  0  0  0  0  0  0  0
   56.9120   22.5400   48.1400 O   0  0  0  0  0  0  0  0  0  0  0  0
   55.9270   24.3840   47.1990 N   0  0  0  0  0  0  0  0  0  0  0  0
   56.4850   25.4170   46.5530 C   0  0  0  0  0  0  0  0  0  0  0  0
   55.8440   26.5230   45.9990 C   0  0  0  0  0  0  0  0  0  0  0  0
   58.1630   32.5230   44.6110 C   0  0  0  0  0  0  0  0  0  0  0  0
   58.6630   33.8230   44.7360 C   0  0  0  0  0  0  0  0  0  0  0  0
   59.8899   35.8744   47.1367 H   0  0  0  0  0  0  0  0  0  0  0  0
   60.7888   35.7222   45.5890 H   0  0  0  0  0  0  0  0  0  0  0  0
   59.0956   36.3220   45.5890 H   0  0  0  0  0  0  0  0  0  0  0  0
   59.8745   33.6368   47.9280 H   0  0  0  0  0  0  0  0  0  0  0  0
   58.9868   31.3193   47.7050 H   0  0  0  0  0  0  0  0  0  0  0  0
   58.2820   29.4950   45.9520 H   0  0  0  0  0  0  0  0  0  0  0  0
   58.6707   28.1120   44.8403 H   0  0  0  0  0  0  0  0  0  0  0  0
   59.7532   26.0721   45.8542 H   0  0  0  0  0  0  0  0  0  0  0  0
   54.7519   26.6368   46.0652 H   0  0  0  0  0  0  0  0  0  0  0  0
   57.6585   32.2192   43.6819 H   0  0  0  0  0  0  0  0  0  0  0  0
   58.5523   34.5347   43.9046 H   0  0  0  0  0  0  0  0  0  0  0  0
  1  2  1  0
  2  3  2  0
  3  4  1  0
  4  5  2  0
  5  6  1  0
  6  7  1  0
  7  8  2  0
  7  9  1  0
  9 10  1  0
 10 11  2  0
 11 12  1  0
 12 13  2  0
 13 14  1  0
 14 15  1  0
 15 16  2  0
 15 17  1  0
 17 18  1  0
 18 19  2  0
  5 20  1  0
 20 21  2  0
 21  2  1  0
 19 10  1  0
 18 13  1  0
  1 22  1  0
  1 23  1  0
  1 24  1  0
  3 25  1  0
  4 26  1  0
  6 27  1  0
 11 28  1  0
 12 29  1  0
 19 30  1  0
 20 31  1  0
 21 32  1  0
M  CHG  3   9  -1  14  -1  17  -1
M  END
>  <UniqueID>  (72) 
64

>  <SMILES>  (72) 
Cc1ccc(NC(=O)[N-]c2ccc3[n-]c(=O)[n-]c3c2)cc1

>  <Energy>  (72) 
77.39361756418577

>  <Genealogy>  (72) 
Cc1ccc(NC(=O)[N-]c2ccc3[n-]c(=O)[n-]c3c2)cc1 (protonated)
Cc1ccc(NC(=O)[N-]c2ccc3[n-]c(=O)[n-]c3c2)cc1 (3D coordinates assigned)
Cc1ccc(NC(=O)[N-]c2ccc3[n-]c(=O)[n-]c3c2)cc1 (optimized conformer: 77.39361756418577 kcal/mol)

>  <smiles>  (72) 
Cc1ccc(NC(=O)Nc2ccc3[nH]c(=O)[nH]c3c2)cc1

>  <score_type>  (72) 
oracle

>  <origin>  (72) 
adg

>  <m_score__min__energy>  (72) 
-11.49

>  <m_primary>  (72) 
energy

$$$$
72:0
     RDKit          3D

 56 59  0  0  0  0  0  0  0  0999 V2000
   59.3710   33.5060   51.0670 C   0  0  0  0  0  0  0  0  0  0  0  0
   59.8180   34.0700   49.7200 C   0  0  0  0  0  0  0  0  0  0  0  0
   59.6130   33.0850   48.6440 N   0  0  0  0  0  0  0  0  0  0  0  0
   60.0010   31.7080   48.8430 C   0  0  0  0  0  0  0  0  0  0  0  0
   59.1640   30.8900   49.3100 O   0  0  0  0  0  0  0  0  0  0  0  0
   61.3970   31.2320   48.5520 C   0  0  0  0  0  0  0  0  0  0  0  0
   61.6340   30.8530   46.7820 S   0  0  0  0  0  0  0  0  0  0  0  0
   60.2840   29.6790   46.6920 C   0  0  0  0  0  0  0  0  0  0  0  0
   60.3100   28.4630   47.2850 N   0  0  0  0  0  0  0  0  0  0  0  0
   59.1700   27.7670   47.0420 C   0  0  0  0  0  0  0  0  0  0  0  0
   58.9070   26.4780   47.5080 C   0  0  0  0  0  0  0  0  0  0  0  0
   57.6890   25.8700   47.1610 C   0  0  0  0  0  0  0  0  0  0  0  0
   56.7510   26.5470   46.3430 C   0  0  0  0  0  0  0  0  0  0  0  0
   55.5160   25.9320   45.9490 N   0  0  0  0  0  0  0  0  0  0  0  0
   55.2490   24.5230   45.9050 C   0  0  0  0  0  0  0  0  0  0  0  0
   54.2450   24.0810   46.5230 O   0  0  0  0  0  0  0  0  0  0  0  0
   56.0980   23.5790   45.1370 C   0  0  0  0  0  0  0  0  0  0  0  0
   55.9580   23.5180   43.7410 C   0  0  0  0  0  0  0  0  0  0  0  0
   56.7160   22.6190   42.9900 C   0  0  0  0  0  0  0  0  0  0  0  0
   57.6300   21.7770   43.6230 C   0  0  0  0  0  0  0  0  0  0  0  0
   57.7990   21.8390   45.0070 C   0  0  0  0  0  0  0  0  0  0  0  0
   57.0460   22.7480   45.7790 C   0  0  0  0  0  0  0  0  0  0  0  0
   57.2300   22.8610   47.1670 O   0  0  0  0  0  0  0  0  0  0  0  0
   56.3040   22.4000   48.1460 C   0  0  0  0  0  0  0  0  0  0  0  0
   57.0210   27.8570   45.9100 C   0  0  0  0  0  0  0  0  0  0  0  0
   58.2370   28.4340   46.2650 C   0  0  0  0  0  0  0  0  0  0  0  0
   58.8400   29.9490   45.8530 S   0  0  0  0  0  0  0  0  0  0  0  0
   59.0680   33.4890   47.3650 C   0  0  0  0  0  0  0  0  0  0  0  0
   59.8120   34.2860   46.4710 C   0  0  0  0  0  0  0  0  0  0  0  0
   59.2700   34.6700   45.2410 C   0  0  0  0  0  0  0  0  0  0  0  0
   57.9810   34.2680   44.8860 C   0  0  0  0  0  0  0  0  0  0  0  0
   57.2300   33.4830   45.7620 C   0  0  0  0  0  0  0  0  0  0  0  0
   57.7660   33.0970   46.9940 C   0  0  0  0  0  0  0  0  0  0  0  0
   59.8318   34.0875   51.8791 H   0  0  0  0  0  0  0  0  0  0  0  0
   58.2757   33.5700   51.1461 H   0  0  0  0  0  0  0  0  0  0  0  0
   59.6835   32.4543   51.1461 H   0  0  0  0  0  0  0  0  0  0  0  0
   59.2335   34.9746   49.4964 H   0  0  0  0  0  0  0  0  0  0  0  0
   60.8900   34.3099   49.7775 H   0  0  0  0  0  0  0  0  0  0  0  0
   62.1087   32.0177   48.8455 H   0  0  0  0  0  0  0  0  0  0  0  0
   61.5674   30.3077   49.1236 H   0  0  0  0  0  0  0  0  0  0  0  0
   61.1120   28.1030   47.8490 H   0  0  0  0  0  0  0  0  0  0  0  0
   59.6394   25.9483   48.1349 H   0  0  0  0  0  0  0  0  0  0  0  0
   57.4613   24.8583   47.5280 H   0  0  0  0  0  0  0  0  0  0  0  0
   55.2444   24.1849   43.2351 H   0  0  0  0  0  0  0  0  0  0  0  0
   56.5926   22.5743   41.8979 H   0  0  0  0  0  0  0  0  0  0  0  0
   58.2192   21.0621   43.0299 H   0  0  0  0  0  0  0  0  0  0  0  0
   58.5244   21.1744   45.4991 H   0  0  0  0  0  0  0  0  0  0  0  0
   56.7038   22.5990   49.1513 H   0  0  0  0  0  0  0  0  0  0  0  0
   55.3462   22.9265   48.0214 H   0  0  0  0  0  0  0  0  0  0  0  0
   56.1468   21.3184   48.0214 H   0  0  0  0  0  0  0  0  0  0  0  0
   56.2891   28.4126   45.3053 H   0  0  0  0  0  0  0  0  0  0  0  0
   60.8277   34.6084   46.7438 H   0  0  0  0  0  0  0  0  0  0  0  0
   59.8607   35.2905   44.5510 H   0  0  0  0  0  0  0  0  0  0  0  0
   57.5577   34.5698   43.9166 H   0  0  0  0  0  0  0  0  0  0  0  0
   56.2140   33.1673   45.4824 H   0  0  0  0  0  0  0  0  0  0  0  0
   57.1660   32.4815   47.6804 H   0  0  0  0  0  0  0  0  0  0  0  0
  1  2  1  0
  2  3  1  0
  3  4  1  0
  4  5  2  0
  4  6  1  0
  6  7  1  0
  7  8  1  0
  8  9  2  0
  9 10  1  0
 10 11  2  0
 11 12  1  0
 12 13  2  0
 13 14  1  0
 14 15  1  0
 15 16  2  0
 15 17  1  0
 17 18  2  0
 18 19  1  0
 19 20  2  0
 20 21  1  0
 21 22  2  0
 22 23  1  0
 23 24  1  0
 13 25  1  0
 25 26  2  0
 26 27  1  0
  3 28  1  0
 28 29  2  0
 29 30  1  0
 30 31  2  0
 31 32  1  0
 32 33  2  0
 27  8  1  0
 33 28  1  0
 26 10  1  0
 22 17  1  0
  1 34  1  0
  1 35  1  0
  1 36  1  0
  2 37  1  0
  2 38  1  0
  6 39  1  0
  6 40  1  0
  9 41  1  0
 11 42  1  0
 12 43  1  0
 18 44  1  0
 19 45  1  0
 20 46  1  0
 21 47  1  0
 24 48  1  0
 24 49  1  0
 24 50  1  0
 25 51  1  0
 29 52  1  0
 30 53  1  0
 31 54  1  0
 32 55  1  0
 33 56  1  0
M  CHG  2   9   1  14  -1
M  END
>  <UniqueID>  (73) 
65

>  <SMILES>  (73) 
CCN(C(=O)CSc1[nH+]c2ccc([N-]C(=O)c3ccccc3OC)cc2s1)c1ccccc1

>  <Energy>  (73) 
101.12209910800227

>  <Genealogy>  (73) 
CCN(C(=O)CSc1[nH+]c2ccc([N-]C(=O)c3ccccc3OC)cc2s1)c1ccccc1 (protonated)
CCN(C(=O)CSc1[nH+]c2ccc([N-]C(=O)c3ccccc3OC)cc2s1)c1ccccc1 (3D coordinates assigned)
CCN(C(=O)CSc1[nH+]c2ccc([N-]C(=O)c3ccccc3OC)cc2s1)c1ccccc1 (optimized conformer: 101.12209910800227 kcal/mol)

>  <smiles>  (73) 
CCN(C(=O)CSc1nc2ccc(NC(=O)c3ccccc3OC)cc2s1)c1ccccc1

>  <score_type>  (73) 
oracle

>  <origin>  (73) 
adg

>  <m_score__min__energy>  (73) 
-10.130000000000001

>  <m_primary>  (73) 
energy

$$$$
73:0
     RDKit          3D

 60 63  0  0  0  0  0  0  0  0999 V2000
   56.6590   24.9530   44.0110 N   0  0  0  0  0  0  0  0  0  0  0  0
   56.0470   24.2940   45.1590 C   0  0  0  0  0  0  0  0  0  0  0  0
   55.9230   25.2610   46.2900 C   0  0  0  0  0  0  0  0  0  0  0  0
   56.0480   24.8570   47.4770 O   0  0  0  0  0  0  0  0  0  0  0  0
   55.6230   26.6330   46.0180 N   0  0  0  0  0  0  0  0  0  0  0  0
   56.6100   27.5930   45.5380 C   0  0  0  0  0  0  0  0  0  0  0  0
   57.9070   27.4180   46.2790 C   0  0  0  0  0  0  0  0  0  0  0  0
   58.8650   26.4930   45.8380 C   0  0  0  0  0  0  0  0  0  0  0  0
   60.0630   26.3340   46.5390 C   0  0  0  0  0  0  0  0  0  0  0  0
   60.3200   27.1040   47.6760 C   0  0  0  0  0  0  0  0  0  0  0  0
   59.3730   28.0360   48.1270 C   0  0  0  0  0  0  0  0  0  0  0  0
   59.6790   28.9090   49.3160 C   0  0  0  0  0  0  0  0  0  0  0  0
   61.1150   28.8560   49.6440 N   0  0  0  0  0  0  0  0  0  0  0  0
   61.5540   30.0030   50.4560 C   0  0  0  0  0  0  0  0  0  0  0  0
   61.9860   31.1610   49.5840 C   0  0  0  0  0  0  0  0  0  0  0  0
   61.0810   31.6560   48.6280 C   0  0  0  0  0  0  0  0  0  0  0  0
   61.3930   32.7830   47.8460 C   0  0  0  0  0  0  0  0  0  0  0  0
   60.3970   33.3430   46.8960 C   0  0  0  0  0  0  0  0  0  0  0  0
   60.2150   34.7320   46.7840 C   0  0  0  0  0  0  0  0  0  0  0  0
   59.2680   35.2520   45.8980 C   0  0  0  0  0  0  0  0  0  0  0  0
   58.4890   34.3970   45.1180 C   0  0  0  0  0  0  0  0  0  0  0  0
   58.6450   33.0020   45.2160 C   0  0  0  0  0  0  0  0  0  0  0  0
   57.8320   32.0690   44.3930 C   0  0  0  0  0  0  0  0  0  0  0  0
   57.8510   32.1110   42.9860 C   0  0  0  0  0  0  0  0  0  0  0  0
   57.0630   31.2160   42.2600 C   0  0  0  0  0  0  0  0  0  0  0  0
   56.2600   30.2930   42.9300 C   0  0  0  0  0  0  0  0  0  0  0  0
   56.2530   30.2820   44.3250 C   0  0  0  0  0  0  0  0  0  0  0  0
   57.0270   31.1590   45.0150 N   0  0  0  0  0  0  0  0  0  0  0  0
   59.6110   32.4880   46.1000 C   0  0  0  0  0  0  0  0  0  0  0  0
   62.6510   33.3870   48.0010 C   0  0  0  0  0  0  0  0  0  0  0  0
   63.5740   32.8780   48.9150 C   0  0  0  0  0  0  0  0  0  0  0  0
   63.2540   31.7730   49.7090 C   0  0  0  0  0  0  0  0  0  0  0  0
   64.4610   31.2140   50.8640 Cl  0  0  0  0  0  0  0  0  0  0  0  0
   58.1590   28.1750   47.4340 C   0  0  0  0  0  0  0  0  0  0  0  0
   56.6730   25.9830   44.1940 H   0  0  0  0  0  0  0  0  0  0  0  0
   56.0290   24.8070   43.1900 H   0  0  0  0  0  0  0  0  0  0  0  0
   55.0479   23.9279   44.8802 H   0  0  0  0  0  0  0  0  0  0  0  0
   56.6775   23.4485   45.4713 H   0  0  0  0  0  0  0  0  0  0  0  0
   56.7808   27.4321   44.4633 H   0  0  0  0  0  0  0  0  0  0  0  0
   56.2330   28.6120   45.7096 H   0  0  0  0  0  0  0  0  0  0  0  0
   58.6724   25.8911   44.9376 H   0  0  0  0  0  0  0  0  0  0  0  0
   60.8064   25.6000   46.1945 H   0  0  0  0  0  0  0  0  0  0  0  0
   61.2681   26.9792   48.2196 H   0  0  0  0  0  0  0  0  0  0  0  0
   59.3996   29.9472   49.0834 H   0  0  0  0  0  0  0  0  0  0  0  0
   59.1046   28.5443   50.1803 H   0  0  0  0  0  0  0  0  0  0  0  0
   61.2710   27.9960   50.2210 H   0  0  0  0  0  0  0  0  0  0  0  0
   60.7210   30.3282   51.0966 H   0  0  0  0  0  0  0  0  0  0  0  0
   62.4138   29.6879   51.0654 H   0  0  0  0  0  0  0  0  0  0  0  0
   60.1125   31.1532   48.4894 H   0  0  0  0  0  0  0  0  0  0  0  0
   60.8218   35.4140   47.3977 H   0  0  0  0  0  0  0  0  0  0  0  0
   59.1360   36.3409   45.8151 H   0  0  0  0  0  0  0  0  0  0  0  0
   57.7478   34.8162   44.4217 H   0  0  0  0  0  0  0  0  0  0  0  0
   58.4823   32.8439   42.4623 H   0  0  0  0  0  0  0  0  0  0  0  0
   57.0754   31.2387   41.1603 H   0  0  0  0  0  0  0  0  0  0  0  0
   55.6394   29.5820   42.3649 H   0  0  0  0  0  0  0  0  0  0  0  0
   55.6205   29.5629   44.8661 H   0  0  0  0  0  0  0  0  0  0  0  0
   59.7547   31.3997   46.1706 H   0  0  0  0  0  0  0  0  0  0  0  0
   62.9109   34.2687   47.3969 H   0  0  0  0  0  0  0  0  0  0  0  0
   64.5626   33.3506   49.0117 H   0  0  0  0  0  0  0  0  0  0  0  0
   57.4000   28.8825   47.7992 H   0  0  0  0  0  0  0  0  0  0  0  0
  1  2  1  0
  2  3  1  0
  3  4  2  0
  3  5  1  0
  5  6  1  0
  6  7  1  0
  7  8  2  0
  8  9  1  0
  9 10  2  0
 10 11  1  0
 11 12  1  0
 12 13  1  0
 13 14  1  0
 14 15  1  0
 15 16  2  0
 16 17  1  0
 17 18  1  0
 18 19  2  0
 19 20  1  0
 20 21  2  0
 21 22  1  0
 22 23  1  0
 23 24  2  0
 24 25  1  0
 25 26  2  0
 26 27  1  0
 27 28  2  0
 22 29  2  0
 17 30  2  0
 30 31  1  0
 31 32  2  0
 32 33  1  0
 11 34  2  0
 34  7  1  0
 32 15  1  0
 29 18  1  0
 28 23  1  0
  1 35  1  0
  1 36  1  0
  2 37  1  0
  2 38  1  0
  6 39  1  0
  6 40  1  0
  8 41  1  0
  9 42  1  0
 10 43  1  0
 12 44  1  0
 12 45  1  0
 13 46  1  0
 14 47  1  0
 14 48  1  0
 16 49  1  0
 19 50  1  0
 20 51  1  0
 21 52  1  0
 24 53  1  0
 25 54  1  0
 26 55  1  0
 27 56  1  0
 29 57  1  0
 30 58  1  0
 31 59  1  0
 34 60  1  0
M  CHG  1   5  -1
M  END
>  <UniqueID>  (74) 
66

>  <SMILES>  (74) 
NCC(=O)[N-]Cc1cccc(CNCc2cc(-c3cccc(-c4ccccn4)c3)ccc2Cl)c1

>  <Energy>  (74) 
64.48232335907214

>  <Genealogy>  (74) 
NCC(=O)[N-]Cc1cccc(CNCc2cc(-c3cccc(-c4ccccn4)c3)ccc2Cl)c1 (protonated)
NCC(=O)[N-]Cc1cccc(CNCc2cc(-c3cccc(-c4ccccn4)c3)ccc2Cl)c1 (3D coordinates assigned)
NCC(=O)[N-]Cc1cccc(CNCc2cc(-c3cccc(-c4ccccn4)c3)ccc2Cl)c1 (optimized conformer: 64.48232335907214 kcal/mol)

>  <smiles>  (74) 
NCC(=O)NCc1cccc(CNCc2cc(-c3cccc(-c4ccccn4)c3)ccc2Cl)c1

>  <score_type>  (74) 
oracle

>  <origin>  (74) 
adg

>  <m_score__min__energy>  (74) 
-12.25

>  <m_primary>  (74) 
energy

$$$$
74:0
     RDKit          3D

 34 35  0  0  0  0  0  0  0  0999 V2000
   55.1530   26.3700   45.9500 N   0  0  0  0  0  0  0  0  0  0  0  0
   56.8620   26.6080   45.8710 S   0  0  0  0  0  0  0  0  0  0  0  0
   57.4320   25.7880   44.7480 O   0  0  0  0  0  0  0  0  0  0  0  0
   57.4890   26.1610   47.1610 O   0  0  0  0  0  0  0  0  0  0  0  0
   57.2070   28.3130   45.5980 C   0  0  0  0  0  0  0  0  0  0  0  0
   58.1800   28.9690   46.3640 C   0  0  0  0  0  0  0  0  0  0  0  0
   58.4430   30.3260   46.1550 C   0  0  0  0  0  0  0  0  0  0  0  0
   57.7400   31.0410   45.1730 C   0  0  0  0  0  0  0  0  0  0  0  0
   57.9940   32.5090   44.9760 C   0  0  0  0  0  0  0  0  0  0  0  0
   57.9200   33.2040   46.2640 N   0  0  0  0  0  0  0  0  0  0  0  0
   59.2600   34.3040   46.4330 S   0  0  0  0  0  0  0  0  0  0  0  0
   59.5130   34.9530   45.1020 O   0  0  0  0  0  0  0  0  0  0  0  0
   58.8790   35.3640   47.4290 O   0  0  0  0  0  0  0  0  0  0  0  0
   60.7550   33.5020   46.9610 C   0  0  0  0  0  0  0  0  0  0  0  0
   61.9830   33.8220   46.3520 C   0  0  0  0  0  0  0  0  0  0  0  0
   63.1640   33.1990   46.7640 C   0  0  0  0  0  0  0  0  0  0  0  0
   63.1380   32.2630   47.7960 C   0  0  0  0  0  0  0  0  0  0  0  0
   61.9330   31.9530   48.4270 C   0  0  0  0  0  0  0  0  0  0  0  0
   60.7430   32.5700   48.0230 C   0  0  0  0  0  0  0  0  0  0  0  0
   59.2710   32.1650   48.9010 Cl  0  0  0  0  0  0  0  0  0  0  0  0
   56.7490   30.3880   44.4230 C   0  0  0  0  0  0  0  0  0  0  0  0
   56.4860   29.0300   44.6330 C   0  0  0  0  0  0  0  0  0  0  0  0
   54.7780   27.0740   46.6250 H   0  0  0  0  0  0  0  0  0  0  0  0
   58.7387   28.4143   47.1323 H   0  0  0  0  0  0  0  0  0  0  0  0
   59.2047   30.8359   46.7632 H   0  0  0  0  0  0  0  0  0  0  0  0
   58.9945   32.6512   44.5415 H   0  0  0  0  0  0  0  0  0  0  0  0
   57.2326   32.9209   44.2973 H   0  0  0  0  0  0  0  0  0  0  0  0
   57.0350   33.7580   46.3170 H   0  0  0  0  0  0  0  0  0  0  0  0
   62.0132   34.5688   45.5449 H   0  0  0  0  0  0  0  0  0  0  0  0
   64.1162   33.4480   46.2727 H   0  0  0  0  0  0  0  0  0  0  0  0
   64.0679   31.7684   48.1132 H   0  0  0  0  0  0  0  0  0  0  0  0
   61.9178   31.2196   49.2467 H   0  0  0  0  0  0  0  0  0  0  0  0
   56.1770   30.9463   43.6672 H   0  0  0  0  0  0  0  0  0  0  0  0
   55.7111   28.5233   44.0390 H   0  0  0  0  0  0  0  0  0  0  0  0
  1  2  1  0
  2  3  2  0
  2  4  2  0
  2  5  1  0
  5  6  2  0
  6  7  1  0
  7  8  2  0
  8  9  1  0
  9 10  1  0
 10 11  1  0
 11 12  2  0
 11 13  2  0
 11 14  1  0
 14 15  2  0
 15 16  1  0
 16 17  2  0
 17 18  1  0
 18 19  2  0
 19 20  1  0
  8 21  1  0
 21 22  2  0
 22  5  1  0
 19 14  1  0
  1 23  1  0
  6 24  1  0
  7 25  1  0
  9 26  1  0
  9 27  1  0
 10 28  1  0
 15 29  1  0
 16 30  1  0
 17 31  1  0
 18 32  1  0
 21 33  1  0
 22 34  1  0
M  CHG  1   1  -1
M  END
>  <UniqueID>  (75) 
67

>  <SMILES>  (75) 
[NH-]S(=O)(=O)c1ccc(CNS(=O)(=O)c2ccccc2Cl)cc1

>  <Energy>  (75) 
34.751951505858294

>  <Genealogy>  (75) 
[NH-]S(=O)(=O)c1ccc(CNS(=O)(=O)c2ccccc2Cl)cc1 (protonated)
[NH-]S(=O)(=O)c1ccc(CNS(=O)(=O)c2ccccc2Cl)cc1 (3D coordinates assigned)
[NH-]S(=O)(=O)c1ccc(CNS(=O)(=O)c2ccccc2Cl)cc1 (optimized conformer: 34.751951505858294 kcal/mol)

>  <smiles>  (75) 
NS(=O)(=O)c1ccc(CNS(=O)(=O)c2ccccc2Cl)cc1

>  <score_type>  (75) 
oracle

>  <origin>  (75) 
adg

>  <m_score__min__energy>  (75) 
-11.109999999999999

>  <m_primary>  (75) 
energy

$$$$
75:0
     RDKit          3D

 22 23  0  0  0  0  0  0  0  0999 V2000
   58.3292   32.8053   47.5741 H   0  0  0  0  0  0  0  0  0  0  0  0
   58.2790   32.6750   46.4830 C   0  0  0  0  0  0  0  0  0  0  0  0
   57.7790   31.5270   45.9580 N   0  0  0  0  0  0  0  0  0  0  0  0
   57.6910   31.3020   44.6180 C   0  0  0  0  0  0  0  0  0  0  0  0
   57.2210   30.1440   44.2410 N   0  0  0  0  0  0  0  0  0  0  0  0
   56.3840   29.2230   44.9530 C   0  0  0  0  0  0  0  0  0  0  0  0
   55.1320   29.3390   44.8890 O   0  0  0  0  0  0  0  0  0  0  0  0
   56.9390   28.0890   45.6350 N   0  0  0  0  0  0  0  0  0  0  0  0
   56.4350   26.8910   45.6720 C   0  0  0  0  0  0  0  0  0  0  0  0
   55.1590   26.5990   45.9940 N   0  0  0  0  0  0  0  0  0  0  0  0
   55.0330   25.2840   45.9090 N   0  0  0  0  0  0  0  0  0  0  0  0
   54.1480   24.7670   46.1030 H   0  0  0  0  0  0  0  0  0  0  0  0
   56.2060   24.7370   45.5380 C   0  0  0  0  0  0  0  0  0  0  0  0
   56.3919   23.6631   45.3890 H   0  0  0  0  0  0  0  0  0  0  0  0
   57.1370   25.7420   45.3750 C   0  0  0  0  0  0  0  0  0  0  0  0
   58.1920   25.6486   45.0778 H   0  0  0  0  0  0  0  0  0  0  0  0
   58.0910   32.3390   43.7260 C   0  0  0  0  0  0  0  0  0  0  0  0
   57.7940   32.3420   41.9880 Cl  0  0  0  0  0  0  0  0  0  0  0  0
   58.6220   33.5190   44.2600 C   0  0  0  0  0  0  0  0  0  0  0  0
   58.9583   34.3201   43.5854 H   0  0  0  0  0  0  0  0  0  0  0  0
   58.7280   33.6870   45.6390 C   0  0  0  0  0  0  0  0  0  0  0  0
   59.3790   35.1740   46.3060 Cl  0  0  0  0  0  0  0  0  0  0  0  0
  1  2  1  0
  2  3  1  0
  3  4  1  0
  4  5  2  3
  5  6  1  0
  6  7  2  0
  6  8  1  0
  8  9  2  0
  9 10  1  0
 10 11  1  0
 11 12  1  0
 11 13  1  0
 13 14  1  0
 13 15  2  0
 15 16  1  0
  4 17  1  0
 17 18  1  0
 17 19  2  0
 19 20  1  0
 19 21  1  0
 21 22  1  0
 21  2  2  0
 15  9  1  0
M  CHG  2   3  -1  10  -1
M  END
>  <UniqueID>  (76) 
68

>  <SMILES>  (76) 
O=C(N=c1[n-]cc(Cl)cc1Cl)/N=c1/cc[nH][n-]1

>  <Energy>  (76) 
70.85600957856344

>  <Genealogy>  (76) 
O=C(N=c1cc[nH][n-]1)N=c1[n-]cc(Cl)cc1Cl (protonated)
O=C(N=c1[n-]cc(Cl)cc1Cl)/N=c1/cc[nH][n-]1 (cis-trans isomerization)
O=C(N=c1[n-]cc(Cl)cc1Cl)/N=c1/cc[nH][n-]1 (3D coordinates assigned)
O=C(N=c1[n-]cc(Cl)cc1Cl)/N=c1/cc[nH][n-]1 (optimized conformer: 70.85600957856344 kcal/mol)

>  <smiles>  (76) 
O=C(N=c1cc[nH][nH]1)N=c1[nH]cc(Cl)cc1Cl

>  <score_type>  (76) 
oracle

>  <origin>  (76) 
adg

>  <m_score__min__energy>  (76) 
-10.279999999999999

>  <m_primary>  (76) 
energy

$$$$
76:0
     RDKit          3D

 53 55  0  0  0  0  0  0  0  0999 V2000
   59.9210   27.8350   44.8650 C   0  0  0  0  0  0  0  0  0  0  0  0
   59.9630   28.8290   45.9920 C   0  0  0  0  0  0  0  0  0  0  0  0
   61.0090   29.7630   46.0640 C   0  0  0  0  0  0  0  0  0  0  0  0
   61.0610   30.6900   47.1060 C   0  0  0  0  0  0  0  0  0  0  0  0
   60.0770   30.6870   48.1020 C   0  0  0  0  0  0  0  0  0  0  0  0
   60.1620   31.8370   49.4400 S   0  0  0  0  0  0  0  0  0  0  0  0
   58.9430   32.7170   49.4130 O   0  0  0  0  0  0  0  0  0  0  0  0
   60.1630   31.0840   50.7400 O   0  0  0  0  0  0  0  0  0  0  0  0
   61.5940   32.8370   49.3450 N   0  0  0  0  0  0  0  0  0  0  0  0
   62.8030   31.9980   49.2290 C   0  0  0  0  0  0  0  0  0  0  0  0
   63.9710   32.8090   48.6480 C   0  0  0  0  0  0  0  0  0  0  0  0
   63.7230   33.3360   47.3500 O   0  0  0  0  0  0  0  0  0  0  0  0
   62.3430   33.4840   47.0450 C   0  0  0  0  0  0  0  0  0  0  0  0
   61.4850   33.8480   48.2700 C   0  0  0  0  0  0  0  0  0  0  0  0
   59.0280   29.7620   48.0320 C   0  0  0  0  0  0  0  0  0  0  0  0
   58.9500   28.8460   46.9700 C   0  0  0  0  0  0  0  0  0  0  0  0
   57.8900   27.8770   46.9110 N   0  0  0  0  0  0  0  0  0  0  0  0
   56.8950   27.7670   45.8830 C   0  0  0  0  0  0  0  0  0  0  0  0
   55.9710   26.9230   46.0240 O   0  0  0  0  0  0  0  0  0  0  0  0
   56.9510   28.6000   44.6300 C   0  0  0  0  0  0  0  0  0  0  0  0
   55.6590   29.4030   44.4390 C   0  0  0  0  0  0  0  0  0  0  0  0
   55.9170   30.8280   44.6170 N   0  0  0  0  0  0  0  0  0  0  0  0
   57.0420   31.5110   44.0490 C   0  0  0  0  0  0  0  0  0  0  0  0
   57.4510   31.1910   42.8990 O   0  0  0  0  0  0  0  0  0  0  0  0
   57.7190   32.5920   44.8030 C   0  0  0  0  0  0  0  0  0  0  0  0
   58.6240   33.4560   44.1590 C   0  0  0  0  0  0  0  0  0  0  0  0
   59.2590   34.4770   44.8740 C   0  0  0  0  0  0  0  0  0  0  0  0
   58.9960   34.6470   46.2360 C   0  0  0  0  0  0  0  0  0  0  0  0
   59.6080   35.6410   46.9260 F   0  0  0  0  0  0  0  0  0  0  0  0
   58.0980   33.7960   46.8850 C   0  0  0  0  0  0  0  0  0  0  0  0
   57.4610   32.7730   46.1750 C   0  0  0  0  0  0  0  0  0  0  0  0
   59.8779   26.8158   45.2765 H   0  0  0  0  0  0  0  0  0  0  0  0
   59.0298   28.0189   44.2469 H   0  0  0  0  0  0  0  0  0  0  0  0
   60.8245   27.9430   44.2469 H   0  0  0  0  0  0  0  0  0  0  0  0
   61.7936   29.7641   45.2930 H   0  0  0  0  0  0  0  0  0  0  0  0
   61.8780   31.4256   47.1449 H   0  0  0  0  0  0  0  0  0  0  0  0
   63.0819   31.6262   50.2260 H   0  0  0  0  0  0  0  0  0  0  0  0
   62.5866   31.1559   48.5552 H   0  0  0  0  0  0  0  0  0  0  0  0
   64.1805   33.6483   49.3274 H   0  0  0  0  0  0  0  0  0  0  0  0
   64.8211   32.1174   48.5526 H   0  0  0  0  0  0  0  0  0  0  0  0
   62.2348   34.2802   46.2938 H   0  0  0  0  0  0  0  0  0  0  0  0
   61.9852   32.5125   46.6733 H   0  0  0  0  0  0  0  0  0  0  0  0
   61.8198   34.8199   48.6616 H   0  0  0  0  0  0  0  0  0  0  0  0
   60.4340   33.8886   47.9479 H   0  0  0  0  0  0  0  0  0  0  0  0
   58.2572   29.7526   48.8167 H   0  0  0  0  0  0  0  0  0  0  0  0
   57.7993   29.2968   44.7001 H   0  0  0  0  0  0  0  0  0  0  0  0
   57.0723   27.9260   43.7692 H   0  0  0  0  0  0  0  0  0  0  0  0
   55.2700   29.2286   43.4250 H   0  0  0  0  0  0  0  0  0  0  0  0
   54.9214   29.0769   45.1870 H   0  0  0  0  0  0  0  0  0  0  0  0
   58.8334   33.3277   43.0868 H   0  0  0  0  0  0  0  0  0  0  0  0
   59.9664   35.1470   44.3634 H   0  0  0  0  0  0  0  0  0  0  0  0
   57.8914   33.9308   47.9570 H   0  0  0  0  0  0  0  0  0  0  0  0
   56.7547   32.1064   46.6915 H   0  0  0  0  0  0  0  0  0  0  0  0
  1  2  1  0
  2  3  2  0
  3  4  1  0
  4  5  2  0
  5  6  1  0
  6  7  2  0
  6  8  2  0
  6  9  1  0
  9 10  1  0
 10 11  1  0
 11 12  1  0
 12 13  1  0
 13 14  1  0
  5 15  1  0
 15 16  2  0
 16 17  1  0
 17 18  1  0
 18 19  2  0
 18 20  1  0
 20 21  1  0
 21 22  1  0
 22 23  1  0
 23 24  2  0
 23 25  1  0
 25 26  2  0
 26 27  1  0
 27 28  2  0
 28 29  1  0
 28 30  1  0
 30 31  2  0
 16  2  1  0
 31 25  1  0
 14  9  1  0
  1 32  1  0
  1 33  1  0
  1 34  1  0
  3 35  1  0
  4 36  1  0
 10 37  1  0
 10 38  1  0
 11 39  1  0
 11 40  1  0
 13 41  1  0
 13 42  1  0
 14 43  1  0
 14 44  1  0
 15 45  1  0
 20 46  1  0
 20 47  1  0
 21 48  1  0
 21 49  1  0
 26 50  1  0
 27 51  1  0
 30 52  1  0
 31 53  1  0
M  CHG  2  17  -1  22  -1
M  END
>  <UniqueID>  (77) 
69

>  <SMILES>  (77) 
Cc1ccc(S(=O)(=O)N2CCOCC2)cc1[N-]C(=O)CC[N-]C(=O)c1ccc(F)cc1

>  <Energy>  (77) 
66.8372087890552

>  <Genealogy>  (77) 
Cc1ccc(S(=O)(=O)N2CCOCC2)cc1[N-]C(=O)CC[N-]C(=O)c1ccc(F)cc1 (protonated)
Cc1ccc(S(=O)(=O)N2CCOCC2)cc1[N-]C(=O)CC[N-]C(=O)c1ccc(F)cc1 (3D coordinates assigned)
Cc1ccc(S(=O)(=O)N2CCOCC2)cc1[N-]C(=O)CC[N-]C(=O)c1ccc(F)cc1 (nonaromatic ring conformer: 66.8372087890552 kcal/mol)

>  <smiles>  (77) 
Cc1ccc(S(=O)(=O)N2CCOCC2)cc1NC(=O)CCNC(=O)c1ccc(F)cc1

>  <score_type>  (77) 
oracle

>  <origin>  (77) 
adg

>  <m_score__min__energy>  (77) 
-12.92

>  <m_primary>  (77) 
energy

$$$$
77:0
     RDKit          3D

 57 61  0  0  0  0  0  0  0  0999 V2000
   60.1400   27.6690   48.9980 C   0  0  0  0  0  0  0  0  0  0  0  0
   59.5520   27.0120   47.7910 C   0  0  0  0  0  0  0  0  0  0  0  0
   58.2750   27.2980   47.4200 N   0  0  0  0  0  0  0  0  0  0  0  0
   57.6990   26.7020   46.3400 C   0  0  0  0  0  0  0  0  0  0  0  0
   56.3060   27.0380   45.9690 C   0  0  0  0  0  0  0  0  0  0  0  0
   55.3800   26.2300   46.2410 O   0  0  0  0  0  0  0  0  0  0  0  0
   55.9860   28.2360   45.2510 N   0  0  0  0  0  0  0  0  0  0  0  0
   56.7070   29.4760   45.3070 C   0  0  0  0  0  0  0  0  0  0  0  0
   57.7640   29.6770   46.2100 C   0  0  0  0  0  0  0  0  0  0  0  0
   58.4370   30.8990   46.2470 C   0  0  0  0  0  0  0  0  0  0  0  0
   58.0490   31.9510   45.4040 C   0  0  0  0  0  0  0  0  0  0  0  0
   58.7620   33.2460   45.4470 C   0  0  0  0  0  0  0  0  0  0  0  0
   58.5430   34.1090   44.5520 O   0  0  0  0  0  0  0  0  0  0  0  0
   59.7380   33.5180   46.4690 N   0  0  0  0  0  0  0  0  0  0  0  0
   59.4160   33.3940   47.8880 C   0  0  0  0  0  0  0  0  0  0  0  0
   60.4770   32.5500   48.6030 C   0  0  0  0  0  0  0  0  0  0  0  0
   61.8490   32.8760   48.1700 N   0  0  0  0  0  0  0  0  0  0  0  0
   62.9490   32.4310   49.0020 C   0  0  0  0  0  0  0  0  0  0  0  0
   64.1340   33.1110   49.0100 N   0  0  0  0  0  0  0  0  0  0  0  0
   65.1590   32.7570   49.8270 C   0  0  0  0  0  0  0  0  0  0  0  0
   66.2360   33.4180   49.7910 O   0  0  0  0  0  0  0  0  0  0  0  0
   65.0120   31.6600   50.6910 C   0  0  0  0  0  0  0  0  0  0  0  0
   66.0290   31.2410   51.5640 C   0  0  0  0  0  0  0  0  0  0  0  0
   65.8230   30.1430   52.4050 C   0  0  0  0  0  0  0  0  0  0  0  0
   64.6060   29.4540   52.3780 C   0  0  0  0  0  0  0  0  0  0  0  0
   63.5880   29.8600   51.5110 C   0  0  0  0  0  0  0  0  0  0  0  0
   63.7880   30.9630   50.6690 C   0  0  0  0  0  0  0  0  0  0  0  0
   62.7940   31.3620   49.8310 N   0  0  0  0  0  0  0  0  0  0  0  0
   62.1160   33.1330   46.7410 C   0  0  0  0  0  0  0  0  0  0  0  0
   61.0550   34.0420   46.1280 C   0  0  0  0  0  0  0  0  0  0  0  0
   56.9860   31.7500   44.5110 C   0  0  0  0  0  0  0  0  0  0  0  0
   56.3140   30.5240   44.4720 C   0  0  0  0  0  0  0  0  0  0  0  0
   58.4360   25.7750   45.5940 C   0  0  0  0  0  0  0  0  0  0  0  0
   59.7360   25.4740   46.0000 C   0  0  0  0  0  0  0  0  0  0  0  0
   60.2690   26.0880   47.0900 N   0  0  0  0  0  0  0  0  0  0  0  0
   59.7257   27.2061   49.9058 H   0  0  0  0  0  0  0  0  0  0  0  0
   61.2327   27.5432   48.9882 H   0  0  0  0  0  0  0  0  0  0  0  0
   59.8942   28.7411   48.9882 H   0  0  0  0  0  0  0  0  0  0  0  0
   58.0628   28.8670   46.8916 H   0  0  0  0  0  0  0  0  0  0  0  0
   59.2779   31.0383   46.9423 H   0  0  0  0  0  0  0  0  0  0  0  0
   59.3832   34.3957   48.3414 H   0  0  0  0  0  0  0  0  0  0  0  0
   58.4380   32.9012   47.9910 H   0  0  0  0  0  0  0  0  0  0  0  0
   60.3978   32.7281   49.6856 H   0  0  0  0  0  0  0  0  0  0  0  0
   60.2898   31.4960   48.3499 H   0  0  0  0  0  0  0  0  0  0  0  0
   66.9891   31.7773   51.5863 H   0  0  0  0  0  0  0  0  0  0  0  0
   66.6207   29.8200   53.0901 H   0  0  0  0  0  0  0  0  0  0  0  0
   64.4498   28.5903   53.0410 H   0  0  0  0  0  0  0  0  0  0  0  0
   62.6324   29.3157   51.4892 H   0  0  0  0  0  0  0  0  0  0  0  0
   63.0998   33.6151   46.6424 H   0  0  0  0  0  0  0  0  0  0  0  0
   62.0958   32.1710   46.2079 H   0  0  0  0  0  0  0  0  0  0  0  0
   61.1635   35.0605   46.5290 H   0  0  0  0  0  0  0  0  0  0  0  0
   61.1745   34.0740   45.0350 H   0  0  0  0  0  0  0  0  0  0  0  0
   56.6787   32.5627   43.8364 H   0  0  0  0  0  0  0  0  0  0  0  0
   55.4709   30.3845   43.7794 H   0  0  0  0  0  0  0  0  0  0  0  0
   57.9992   25.2940   44.7064 H   0  0  0  0  0  0  0  0  0  0  0  0
   60.3308   24.7391   45.4378 H   0  0  0  0  0  0  0  0  0  0  0  0
   61.2430   25.8440   47.3840 H   0  0  0  0  0  0  0  0  0  0  0  0
  1  2  1  0
  2  3  2  0
  3  4  1  0
  4  5  1  0
  5  6  2  0
  5  7  1  0
  7  8  1  0
  8  9  2  0
  9 10  1  0
 10 11  2  0
 11 12  1  0
 12 13  2  0
 12 14  1  0
 14 15  1  0
 15 16  1  0
 16 17  1  0
 17 18  1  0
 18 19  2  0
 19 20  1  0
 20 21  2  0
 20 22  1  0
 22 23  2  0
 23 24  1  0
 24 25  2  0
 25 26  1  0
 26 27  2  0
 27 28  1  0
 17 29  1  0
 29 30  1  0
 11 31  1  0
 31 32  2  0
  4 33  2  0
 33 34  1  0
 34 35  2  0
 35  2  1  0
 32  8  1  0
 30 14  1  0
 28 18  1  0
 27 22  1  0
  1 36  1  0
  1 37  1  0
  1 38  1  0
  9 39  1  0
 10 40  1  0
 15 41  1  0
 15 42  1  0
 16 43  1  0
 16 44  1  0
 23 45  1  0
 24 46  1  0
 25 47  1  0
 26 48  1  0
 29 49  1  0
 29 50  1  0
 30 51  1  0
 30 52  1  0
 31 53  1  0
 32 54  1  0
 33 55  1  0
 34 56  1  0
 35 57  1  0
M  CHG  3   7  -1  28  -1  35   1
M  END
>  <UniqueID>  (78) 
70

>  <SMILES>  (78) 
Cc1nc(C(=O)[N-]c2ccc(C(=O)N3CCN(c4nc(=O)c5ccccc5[n-]4)CC3)cc2)cc[nH+]1

>  <Energy>  (78) 
78.70167704463424

>  <Genealogy>  (78) 
Cc1nc(C(=O)[N-]c2ccc(C(=O)N3CCN(c4nc(=O)c5ccccc5[n-]4)CC3)cc2)cc[nH+]1 (protonated)
Cc1nc(C(=O)[N-]c2ccc(C(=O)N3CCN(c4nc(=O)c5ccccc5[n-]4)CC3)cc2)cc[nH+]1 (3D coordinates assigned)
Cc1nc(C(=O)[N-]c2ccc(C(=O)N3CCN(c4nc(=O)c5ccccc5[n-]4)CC3)cc2)cc[nH+]1 (nonaromatic ring conformer: 78.70167704463424 kcal/mol)

>  <smiles>  (78) 
Cc1nccc(C(=O)Nc2ccc(C(=O)N3CCN(c4nc(=O)c5ccccc5[nH]4)CC3)cc2)n1

>  <score_type>  (78) 
oracle

>  <origin>  (78) 
adg

>  <m_score__min__energy>  (78) 
-10.94

>  <m_primary>  (78) 
energy

$$$$
78:0
     RDKit          3D

 56 60  0  0  0  0  0  0  0  0999 V2000
   57.7790   27.3610   42.7890 C   0  0  0  0  0  0  0  0  0  0  0  0
   57.4370   27.8590   44.1100 N   0  0  0  0  0  0  0  0  0  0  0  0
   57.8010   26.9560   45.2180 C   0  0  0  0  0  0  0  0  0  0  0  0
   58.6320   27.6250   46.2190 C   0  0  0  0  0  0  0  0  0  0  0  0
   58.4140   27.7280   47.5600 C   0  0  0  0  0  0  0  0  0  0  0  0
   59.2940   28.4480   48.3630 C   0  0  0  0  0  0  0  0  0  0  0  0
   60.4050   29.0820   47.8660 C   0  0  0  0  0  0  0  0  0  0  0  0
   60.6380   28.9880   46.5190 C   0  0  0  0  0  0  0  0  0  0  0  0
   59.7740   28.2800   45.7280 C   0  0  0  0  0  0  0  0  0  0  0  0
   56.8060   29.0580   44.4050 C   0  0  0  0  0  0  0  0  0  0  0  0
   55.5040   28.9710   44.5070 O   0  0  0  0  0  0  0  0  0  0  0  0
   57.3360   30.3690   44.6330 C   0  0  0  0  0  0  0  0  0  0  0  0
   57.3010   31.4320   43.7580 C   0  0  0  0  0  0  0  0  0  0  0  0
   57.8410   32.6850   44.0300 C   0  0  0  0  0  0  0  0  0  0  0  0
   58.4390   32.8530   45.2450 C   0  0  0  0  0  0  0  0  0  0  0  0
   59.0250   33.9600   45.7490 N   0  0  0  0  0  0  0  0  0  0  0  0
   59.4680   33.6090   47.0060 C   0  0  0  0  0  0  0  0  0  0  0  0
   60.1450   34.6190   47.8630 C   0  0  0  0  0  0  0  0  0  0  0  0
   61.4910   34.0800   48.1580 C   0  0  0  0  0  0  0  0  0  0  0  0
   62.4060   33.8130   47.1280 C   0  0  0  0  0  0  0  0  0  0  0  0
   63.5360   33.3500   47.7220 N   0  0  0  0  0  0  0  0  0  0  0  0
   63.3430   33.3280   49.0240 N   0  0  0  0  0  0  0  0  0  0  0  0
   62.1010   33.7710   49.2940 N   0  0  0  0  0  0  0  0  0  0  0  0
   61.6190   33.8280   50.6450 C   0  0  0  0  0  0  0  0  0  0  0  0
   60.3580   33.0580   50.8260 C   0  0  0  0  0  0  0  0  0  0  0  0
   59.3110   33.6220   51.5140 C   0  0  0  0  0  0  0  0  0  0  0  0
   58.1490   32.9360   51.7100 C   0  0  0  0  0  0  0  0  0  0  0  0
   58.0440   31.6490   51.1940 C   0  0  0  0  0  0  0  0  0  0  0  0
   59.1150   31.0740   50.4900 C   0  0  0  0  0  0  0  0  0  0  0  0
   60.2880   31.7710   50.2960 C   0  0  0  0  0  0  0  0  0  0  0  0
   59.1430   32.3300   47.2220 N   0  0  0  0  0  0  0  0  0  0  0  0
   58.4920   31.8170   46.1350 C   0  0  0  0  0  0  0  0  0  0  0  0
   57.9590   30.6280   45.8300 N   0  0  0  0  0  0  0  0  0  0  0  0
   58.3992   26.4578   42.8869 H   0  0  0  0  0  0  0  0  0  0  0  0
   56.8580   27.1156   42.2399 H   0  0  0  0  0  0  0  0  0  0  0  0
   58.3387   28.1325   42.2399 H   0  0  0  0  0  0  0  0  0  0  0  0
   56.8802   26.5986   45.7021 H   0  0  0  0  0  0  0  0  0  0  0  0
   58.3802   26.1200   44.7990 H   0  0  0  0  0  0  0  0  0  0  0  0
   57.5376   27.2394   48.0107 H   0  0  0  0  0  0  0  0  0  0  0  0
   59.0902   28.5115   49.4421 H   0  0  0  0  0  0  0  0  0  0  0  0
   61.0832   29.6447   48.5244 H   0  0  0  0  0  0  0  0  0  0  0  0
   61.5161   29.4797   46.0750 H   0  0  0  0  0  0  0  0  0  0  0  0
   59.9850   28.2206   44.6501 H   0  0  0  0  0  0  0  0  0  0  0  0
   56.8155   31.2808   42.7826 H   0  0  0  0  0  0  0  0  0  0  0  0
   57.7882   33.5042   43.2978 H   0  0  0  0  0  0  0  0  0  0  0  0
   60.2273   35.5773   47.3293 H   0  0  0  0  0  0  0  0  0  0  0  0
   59.5774   34.8034   48.7870 H   0  0  0  0  0  0  0  0  0  0  0  0
   62.2402   33.9517   46.0495 H   0  0  0  0  0  0  0  0  0  0  0  0
   62.3873   33.4113   51.3129 H   0  0  0  0  0  0  0  0  0  0  0  0
   61.4085   34.8809   50.8839 H   0  0  0  0  0  0  0  0  0  0  0  0
   59.4117   34.6423   51.9127 H   0  0  0  0  0  0  0  0  0  0  0  0
   57.3139   33.3902   52.2635 H   0  0  0  0  0  0  0  0  0  0  0  0
   57.1155   31.0770   51.3381 H   0  0  0  0  0  0  0  0  0  0  0  0
   59.0162   30.0547   50.0885 H   0  0  0  0  0  0  0  0  0  0  0  0
   61.1328   31.3303   49.7464 H   0  0  0  0  0  0  0  0  0  0  0  0
   59.3540   31.8080   48.0960 H   0  0  0  0  0  0  0  0  0  0  0  0
  1  2  1  0
  2  3  1  0
  3  4  1  0
  4  5  2  0
  5  6  1  0
  6  7  2  0
  7  8  1  0
  8  9  2  0
  2 10  1  0
 10 11  2  0
 10 12  1  0
 12 13  2  0
 13 14  1  0
 14 15  2  0
 15 16  1  0
 16 17  2  0
 17 18  1  0
 18 19  1  0
 19 20  2  0
 20 21  1  0
 21 22  2  0
 22 23  1  0
 23 24  1  0
 24 25  1  0
 25 26  2  0
 26 27  1  0
 27 28  2  0
 28 29  1  0
 29 30  2  0
 17 31  1  0
 31 32  1  0
 32 33  2  0
  9  4  1  0
 33 12  1  0
 32 15  1  0
 23 19  1  0
 30 25  1  0
  1 34  1  0
  1 35  1  0
  1 36  1  0
  3 37  1  0
  3 38  1  0
  5 39  1  0
  6 40  1  0
  7 41  1  0
  8 42  1  0
  9 43  1  0
 13 44  1  0
 14 45  1  0
 18 46  1  0
 18 47  1  0
 20 48  1  0
 24 49  1  0
 24 50  1  0
 26 51  1  0
 27 52  1  0
 28 53  1  0
 29 54  1  0
 30 55  1  0
 31 56  1  0
M  END
>  <smiles>  (79) 
CN(Cc1ccccc1)C(=O)c1ccc2nc(Cc3cnnn3Cc3ccccc3)[nH]c2n1

>  <score_type>  (79) 
oracle

>  <origin>  (79) 
adg

>  <m_score__min__energy>  (79) 
-9.7100000000000009

>  <m_primary>  (79) 
energy

$$$$
79:0
     RDKit          3D

 55 57  0  0  0  0  0  0  0  0999 V2000
   52.4080   29.9950   50.1160 C   0  0  0  0  0  0  0  0  0  0  0  0
   52.2640   30.9490   51.3230 C   0  0  0  0  0  0  0  0  0  0  0  0
   51.7210   30.1510   52.5290 C   0  0  0  0  0  0  0  0  0  0  0  0
   53.6360   31.5770   51.6710 C   0  0  0  0  0  0  0  0  0  0  0  0
   54.6980   30.5720   51.6120 N   0  0  0  0  0  0  0  0  0  0  0  0
   56.0570   31.0850   52.5610 S   0  0  0  0  0  0  0  0  0  0  0  0
   56.2770   32.5620   52.3880 O   0  0  0  0  0  0  0  0  0  0  0  0
   55.8070   30.7960   54.0140 O   0  0  0  0  0  0  0  0  0  0  0  0
   57.4810   30.1970   52.0290 C   0  0  0  0  0  0  0  0  0  0  0  0
   58.2010   29.4260   52.9490 C   0  0  0  0  0  0  0  0  0  0  0  0
   59.3150   28.6950   52.5320 C   0  0  0  0  0  0  0  0  0  0  0  0
   59.7160   28.7260   51.1940 C   0  0  0  0  0  0  0  0  0  0  0  0
   59.0030   29.4940   50.2550 C   0  0  0  0  0  0  0  0  0  0  0  0
   59.4210   29.5290   48.8330 C   0  0  0  0  0  0  0  0  0  0  0  0
   60.5180   29.0090   48.4920 O   0  0  0  0  0  0  0  0  0  0  0  0
   58.5600   30.1130   47.8460 N   0  0  0  0  0  0  0  0  0  0  0  0
   58.7520   31.3490   47.1350 C   0  0  0  0  0  0  0  0  0  0  0  0
   59.3840   32.4530   47.7400 C   0  0  0  0  0  0  0  0  0  0  0  0
   59.5350   33.6540   47.0430 C   0  0  0  0  0  0  0  0  0  0  0  0
   59.0440   33.7770   45.7440 C   0  0  0  0  0  0  0  0  0  0  0  0
   59.2370   35.2870   44.8750 Cl  0  0  0  0  0  0  0  0  0  0  0  0
   58.3860   32.7030   45.1420 C   0  0  0  0  0  0  0  0  0  0  0  0
   58.2170   31.4900   45.8340 C   0  0  0  0  0  0  0  0  0  0  0  0
   57.4990   30.3730   45.1720 C   0  0  0  0  0  0  0  0  0  0  0  0
   56.2940   30.5270   44.8390 O   0  0  0  0  0  0  0  0  0  0  0  0
   58.1110   29.0870   44.9630 N   0  0  0  0  0  0  0  0  0  0  0  0
   57.7970   27.9730   45.5590 C   0  0  0  0  0  0  0  0  0  0  0  0
   58.8030   27.2160   46.1690 C   0  0  0  0  0  0  0  0  0  0  0  0
   58.4700   26.0250   46.8170 C   0  0  0  0  0  0  0  0  0  0  0  0
   57.1380   25.6050   46.8600 C   0  0  0  0  0  0  0  0  0  0  0  0
   56.7050   24.1110   47.6670 Cl  0  0  0  0  0  0  0  0  0  0  0  0
   56.1570   26.3910   46.2530 C   0  0  0  0  0  0  0  0  0  0  0  0
   56.5030   27.5460   45.6270 N   0  0  0  0  0  0  0  0  0  0  0  0
   57.8800   30.2270   50.6850 C   0  0  0  0  0  0  0  0  0  0  0  0
   51.2960   32.0690   50.9850 C   0  0  0  0  0  0  0  0  0  0  0  0
   51.0130   32.3230   49.7830 O   0  0  0  0  0  0  0  0  0  0  0  0
   50.6600   32.7910   51.9910 O   0  0  0  0  0  0  0  0  0  0  0  0
   52.5631   28.9676   50.4771 H   0  0  0  0  0  0  0  0  0  0  0  0
   51.4936   30.0351   49.5058 H   0  0  0  0  0  0  0  0  0  0  0  0
   53.2698   30.3032   49.5058 H   0  0  0  0  0  0  0  0  0  0  0  0
   52.0476   30.6310   53.4633 H   0  0  0  0  0  0  0  0  0  0  0  0
   50.6218   30.1321   52.4913 H   0  0  0  0  0  0  0  0  0  0  0  0
   52.1069   29.1216   52.4913 H   0  0  0  0  0  0  0  0  0  0  0  0
   53.8582   32.3790   50.9517 H   0  0  0  0  0  0  0  0  0  0  0  0
   53.5895   31.9810   52.6931 H   0  0  0  0  0  0  0  0  0  0  0  0
   57.8883   29.3960   54.0032 H   0  0  0  0  0  0  0  0  0  0  0  0
   59.8789   28.0926   53.2594 H   0  0  0  0  0  0  0  0  0  0  0  0
   60.5942   28.1467   50.8728 H   0  0  0  0  0  0  0  0  0  0  0  0
   59.7617   32.3686   48.7697 H   0  0  0  0  0  0  0  0  0  0  0  0
   60.0427   34.5051   47.5203 H   0  0  0  0  0  0  0  0  0  0  0  0
   57.9966   32.8061   44.1184 H   0  0  0  0  0  0  0  0  0  0  0  0
   59.8485   27.5566   46.1383 H   0  0  0  0  0  0  0  0  0  0  0  0
   59.2547   25.4185   47.2928 H   0  0  0  0  0  0  0  0  0  0  0  0
   55.1037   26.0751   46.2815 H   0  0  0  0  0  0  0  0  0  0  0  0
   57.3110   30.8281   49.9605 H   0  0  0  0  0  0  0  0  0  0  0  0
  1  2  1  0
  2  3  1  0
  2  4  1  0
  4  5  1  0
  5  6  1  0
  6  7  2  0
  6  8  2  0
  6  9  1  0
  9 10  2  0
 10 11  1  0
 11 12  2  0
 12 13  1  0
 13 14  1  0
 14 15  2  0
 14 16  1  0
 16 17  1  0
 17 18  2  0
 18 19  1  0
 19 20  2  0
 20 21  1  0
 20 22  1  0
 22 23  2  0
 23 24  1  0
 24 25  2  0
 24 26  1  0
 26 27  2  3
 27 28  1  0
 28 29  2  0
 29 30  1  0
 30 31  1  0
 30 32  2  0
 32 33  1  0
 13 34  2  0
  2 35  1  0
 35 36  2  0
 35 37  1  0
 34  9  1  0
 23 17  1  0
 33 27  1  0
  1 38  1  0
  1 39  1  0
  1 40  1  0
  3 41  1  0
  3 42  1  0
  3 43  1  0
  4 44  1  0
  4 45  1  0
 10 46  1  0
 11 47  1  0
 12 48  1  0
 18 49  1  0
 19 50  1  0
 22 51  1  0
 28 52  1  0
 29 53  1  0
 32 54  1  0
 34 55  1  0
M  CHG  4   5  -1  16  -1  33  -1  37  -1
M  END
>  <UniqueID>  (80) 
71

>  <SMILES>  (80) 
CC(C)(C[N-]S(=O)(=O)c1cccc(C(=O)[N-]c2ccc(Cl)cc2C(=O)N=c2ccc(Cl)c[n-]2)c1)C(=O)[O-]

>  <Energy>  (80) 
68.27217183274472

>  <Genealogy>  (80) 
CC(C)(C[N-]S(=O)(=O)c1cccc(C(=O)[N-]c2ccc(Cl)cc2C(=O)N=c2ccc(Cl)c[n-]2)c1)C(=O)[O-] (protonated)
CC(C)(C[N-]S(=O)(=O)c1cccc(C(=O)[N-]c2ccc(Cl)cc2C(=O)N=c2ccc(Cl)c[n-]2)c1)C(=O)[O-] (3D coordinates assigned)
CC(C)(C[N-]S(=O)(=O)c1cccc(C(=O)[N-]c2ccc(Cl)cc2C(=O)N=c2ccc(Cl)c[n-]2)c1)C(=O)[O-] (optimized conformer: 68.27217183274472 kcal/mol)

>  <smiles>  (80) 
CC(C)(CNS(=O)(=O)c1cccc(C(=O)Nc2ccc(Cl)cc2C(=O)N=c2ccc(Cl)c[nH]2)c1)C(=O)O

>  <score_type>  (80) 
oracle

>  <origin>  (80) 
adg

>  <m_score__min__energy>  (80) 
-18.879999999999999

>  <m_primary>  (80) 
energy

$$$$
80:0
     RDKit          3D

 43 47  0  0  0  0  0  0  0  0999 V2000
   56.6593   30.4335   42.2019 H   0  0  0  0  0  0  0  0  0  0  0  0
   57.0320   30.8150   43.1640 C   0  0  0  0  0  0  0  0  0  0  0  0
   57.3630   32.0450   43.4060 N   0  0  0  0  0  0  0  0  0  0  0  0
   57.7900   32.1000   44.7380 N   0  0  0  0  0  0  0  0  0  0  0  0
   58.8260   32.8060   45.2240 C   0  0  0  0  0  0  0  0  0  0  0  0
   59.1830   33.9890   44.8220 N   0  0  0  0  0  0  0  0  0  0  0  0
   59.5060   35.0940   45.7180 C   0  0  0  0  0  0  0  0  0  0  0  0
   59.5131   35.8982   44.9675 H   0  0  0  0  0  0  0  0  0  0  0  0
   58.9220   34.9090   47.1060 C   0  0  0  0  0  0  0  0  0  0  0  0
   58.5702   35.7817   47.6757 H   0  0  0  0  0  0  0  0  0  0  0  0
   58.1103   34.3026   47.5343 H   0  0  0  0  0  0  0  0  0  0  0  0
   60.4110   34.7030   46.8720 C   0  0  0  0  0  0  0  0  0  0  0  0
   61.1362   35.4268   47.2722 H   0  0  0  0  0  0  0  0  0  0  0  0
   61.1229   33.8859   47.0607 H   0  0  0  0  0  0  0  0  0  0  0  0
   59.5290   32.0960   46.1280 N   0  0  0  0  0  0  0  0  0  0  0  0
   58.8790   30.9060   46.1320 C   0  0  0  0  0  0  0  0  0  0  0  0
   59.3820   29.8780   46.7560 N   0  0  0  0  0  0  0  0  0  0  0  0
   60.7110   29.6300   47.3090 C   0  0  0  0  0  0  0  0  0  0  0  0
   60.6502   28.7775   48.0015 H   0  0  0  0  0  0  0  0  0  0  0  0
   61.3874   29.4234   46.4665 H   0  0  0  0  0  0  0  0  0  0  0  0
   61.2670   30.8250   48.0590 C   0  0  0  0  0  0  0  0  0  0  0  0
   62.4140   31.4610   47.5420 C   0  0  0  0  0  0  0  0  0  0  0  0
   62.8912   31.0643   46.6338 H   0  0  0  0  0  0  0  0  0  0  0  0
   62.9520   32.5860   48.1660 C   0  0  0  0  0  0  0  0  0  0  0  0
   63.8684   33.0479   47.7699 H   0  0  0  0  0  0  0  0  0  0  0  0
   62.3300   33.1270   49.2920 C   0  0  0  0  0  0  0  0  0  0  0  0
   63.0060   34.5460   50.0710 Cl  0  0  0  0  0  0  0  0  0  0  0  0
   61.1540   32.5560   49.7770 C   0  0  0  0  0  0  0  0  0  0  0  0
   60.6550   32.9966   50.6527 H   0  0  0  0  0  0  0  0  0  0  0  0
   60.6020   31.4260   49.1590 C   0  0  0  0  0  0  0  0  0  0  0  0
   59.0480   30.8570   49.7650 Cl  0  0  0  0  0  0  0  0  0  0  0  0
   57.7810   30.9270   45.3260 N   0  0  0  0  0  0  0  0  0  0  0  0
   57.2340   30.0070   44.3830 C   0  0  0  0  0  0  0  0  0  0  0  0
   56.4570   28.9750   44.7180 C   0  0  0  0  0  0  0  0  0  0  0  0
   55.3999   29.0062   44.4153 H   0  0  0  0  0  0  0  0  0  0  0  0
   56.9260   27.7960   45.4680 C   0  0  0  0  0  0  0  0  0  0  0  0
   58.2310   27.4870   45.6140 N   0  0  0  0  0  0  0  0  0  0  0  0
   58.2070   26.3150   46.2860 C   0  0  0  0  0  0  0  0  0  0  0  0
   59.2510   25.6980   46.6210 O   0  0  0  0  0  0  0  0  0  0  0  0
   56.9680   25.8640   46.5570 N   0  0  0  0  0  0  0  0  0  0  0  0
   56.6970   24.9800   47.0430 H   0  0  0  0  0  0  0  0  0  0  0  0
   56.1600   26.7920   46.0270 C   0  0  0  0  0  0  0  0  0  0  0  0
   54.7740   26.6990   46.0110 O   0  0  0  0  0  0  0  0  0  0  0  0
  1  2  1  0
  2  3  2  0
  3  4  1  0
  4  5  1  0
  5  6  2  3
  6  7  1  0
  7  8  1  0
  7  9  1  0
  9 10  1  0
  9 11  1  0
  9 12  1  0
 12 13  1  0
 12 14  1  0
  5 15  1  0
 15 16  1  0
 16 17  2  0
 17 18  1  0
 18 19  1  0
 18 20  1  0
 18 21  1  0
 21 22  2  0
 22 23  1  0
 22 24  1  0
 24 25  1  0
 24 26  2  0
 26 27  1  0
 26 28  1  0
 28 29  1  0
 28 30  2  0
 30 31  1  0
 16 32  1  0
 32 33  1  0
 33 34  2  0
 34 35  1  0
 34 36  1  0
 36 37  1  0
 37 38  1  0
 38 39  2  0
 38 40  1  0
 40 41  1  0
 40 42  1  0
 42 43  1  0
 33  2  1  0
 42 36  2  0
 32  4  1  0
 12  7  1  0
 30 21  1  0
M  CHG  3  15  -1  37  -1  43  -1
M  END
>  <UniqueID>  (81) 
72

>  <SMILES>  (81) 
O=c1[n-]c(/C=C2\C=Nn3c(=NC4CC4)[n-]/c(=N/Cc4ccc(Cl)cc4Cl)n32)c([O-])[nH]1

>  <Energy>  (81) 
457.55519755928816

>  <Genealogy>  (81) 
O=c1[n-]c(C=C2C=Nn3c(=NC4CC4)[n-]c(=NCc4ccc(Cl)cc4Cl)n32)c([O-])[nH]1 (protonated)
O=c1[n-]c(/C=C2\C=Nn3c(=NC4CC4)[n-]/c(=N/Cc4ccc(Cl)cc4Cl)n32)c([O-])[nH]1 (cis-trans isomerization)
O=c1[n-]c(/C=C2\C=Nn3c(=NC4CC4)[n-]/c(=N/Cc4ccc(Cl)cc4Cl)n32)c([O-])[nH]1 (3D coordinates assigned)
O=c1[n-]c(/C=C2\C=Nn3c(=NC4CC4)[n-]/c(=N/Cc4ccc(Cl)cc4Cl)n32)c([O-])[nH]1 (nonaromatic ring conformer: 457.55519755928816 kcal/mol)

>  <smiles>  (81) 
O=c1[nH]c(O)c(C=C2C=Nn3c(=NC4CC4)[nH]c(=NCc4ccc(Cl)cc4Cl)n32)[nH]1

>  <score_type>  (81) 
oracle

>  <origin>  (81) 
adg

>  <m_score__min__energy>  (81) 
-15.119999999999999

>  <m_primary>  (81) 
energy

$$$$
81:0
     RDKit          3D

 34 35  0  0  0  0  0  0  0  0999 V2000
   54.9150   26.3420   46.0340 N   0  0  0  0  0  0  0  0  0  0  0  0
   55.8900   25.3610   46.3840 C   0  0  0  0  0  0  0  0  0  0  0  0
   55.5170   24.1850   46.6340 O   0  0  0  0  0  0  0  0  0  0  0  0
   57.3280   25.7160   46.3960 C   0  0  0  0  0  0  0  0  0  0  0  0
   57.6900   27.0380   46.7110 C   0  0  0  0  0  0  0  0  0  0  0  0
   59.0270   27.4550   46.6560 C   0  0  0  0  0  0  0  0  0  0  0  0
   59.3880   28.8780   46.9900 C   0  0  0  0  0  0  0  0  0  0  0  0
   59.4340   29.6800   45.8090 O   0  0  0  0  0  0  0  0  0  0  0  0
   58.7100   30.8680   45.5940 C   0  0  0  0  0  0  0  0  0  0  0  0
   59.2390   32.1230   45.9570 C   0  0  0  0  0  0  0  0  0  0  0  0
   58.5030   33.2900   45.7540 C   0  0  0  0  0  0  0  0  0  0  0  0
   57.2310   33.2250   45.1920 C   0  0  0  0  0  0  0  0  0  0  0  0
   56.6890   31.9920   44.8270 C   0  0  0  0  0  0  0  0  0  0  0  0
   57.4170   30.8000   45.0150 C   0  0  0  0  0  0  0  0  0  0  0  0
   56.8060   29.5100   44.5910 C   0  0  0  0  0  0  0  0  0  0  0  0
   55.4400   29.2110   44.8680 N   0  0  0  0  0  0  0  0  0  0  0  0
   57.5040   28.6510   43.9880 O   0  0  0  0  0  0  0  0  0  0  0  0
   60.0200   26.5330   46.3050 C   0  0  0  0  0  0  0  0  0  0  0  0
   59.6810   25.2130   46.0080 C   0  0  0  0  0  0  0  0  0  0  0  0
   58.3450   24.7850   46.0620 C   0  0  0  0  0  0  0  0  0  0  0  0
   58.0610   23.3970   45.8360 N   0  0  0  0  0  0  0  0  0  0  0  0
   55.1570   27.3570   46.0160 H   0  0  0  0  0  0  0  0  0  0  0  0
   56.9109   27.7566   47.0054 H   0  0  0  0  0  0  0  0  0  0  0  0
   58.6336   29.2898   47.6765 H   0  0  0  0  0  0  0  0  0  0  0  0
   60.3815   28.8883   47.4622 H   0  0  0  0  0  0  0  0  0  0  0  0
   60.2420   32.1825   46.4047 H   0  0  0  0  0  0  0  0  0  0  0  0
   58.9283   34.2637   46.0385 H   0  0  0  0  0  0  0  0  0  0  0  0
   56.6522   34.1472   45.0354 H   0  0  0  0  0  0  0  0  0  0  0  0
   55.6816   31.9499   44.3873 H   0  0  0  0  0  0  0  0  0  0  0  0
   55.1770   28.5840   45.6600 H   0  0  0  0  0  0  0  0  0  0  0  0
   61.0723   26.8508   46.2632 H   0  0  0  0  0  0  0  0  0  0  0  0
   60.4696   24.4990   45.7282 H   0  0  0  0  0  0  0  0  0  0  0  0
   57.1980   22.9410   46.2030 H   0  0  0  0  0  0  0  0  0  0  0  0
   58.7820   22.7740   45.4080 H   0  0  0  0  0  0  0  0  0  0  0  0
  1  2  1  0
  2  3  2  0
  2  4  1  0
  4  5  2  0
  5  6  1  0
  6  7  1  0
  7  8  1  0
  8  9  1  0
  9 10  2  0
 10 11  1  0
 11 12  2  0
 12 13  1  0
 13 14  2  0
 14 15  1  0
 15 16  1  0
 15 17  2  0
  6 18  2  0
 18 19  1  0
 19 20  2  0
 20 21  1  0
 20  4  1  0
 14  9  1  0
  1 22  1  0
  5 23  1  0
  7 24  1  0
  7 25  1  0
 10 26  1  0
 11 27  1  0
 12 28  1  0
 13 29  1  0
 16 30  1  0
 18 31  1  0
 19 32  1  0
 21 33  1  0
 21 34  1  0
M  CHG  2   1  -1  16  -1
M  END
>  <UniqueID>  (82) 
73

>  <SMILES>  (82) 
[NH-]C(=O)c1cc(COc2ccccc2C([NH-])=O)ccc1N

>  <Energy>  (82) 
41.40303577848104

>  <Genealogy>  (82) 
[NH-]C(=O)c1cc(COc2ccccc2C([NH-])=O)ccc1N (protonated)
[NH-]C(=O)c1cc(COc2ccccc2C([NH-])=O)ccc1N (3D coordinates assigned)
[NH-]C(=O)c1cc(COc2ccccc2C([NH-])=O)ccc1N (optimized conformer: 41.40303577848104 kcal/mol)

>  <smiles>  (82) 
NC(=O)c1cc(COc2ccccc2C(N)=O)ccc1N

>  <score_type>  (82) 
oracle

>  <origin>  (82) 
adg

>  <m_score__min__energy>  (82) 
-13.130000000000001

>  <m_primary>  (82) 
energy

$$$$
82:0
     RDKit          3D

 37 38  0  0  0  0  0  0  0  0999 V2000
   57.8100   33.3210   45.7430 C   0  0  0  0  0  0  0  0  0  0  0  0
   57.3950   32.0820   45.1780 O   0  0  0  0  0  0  0  0  0  0  0  0
   57.8060   30.8210   45.6420 C   0  0  0  0  0  0  0  0  0  0  0  0
   58.9600   30.6540   46.4310 C   0  0  0  0  0  0  0  0  0  0  0  0
   59.3450   29.3830   46.8570 C   0  0  0  0  0  0  0  0  0  0  0  0
   58.5870   28.2620   46.5070 C   0  0  0  0  0  0  0  0  0  0  0  0
   59.1520   26.6550   46.9590 S   0  0  0  0  0  0  0  0  0  0  0  0
   60.1420   26.1760   45.9360 O   0  0  0  0  0  0  0  0  0  0  0  0
   59.8300   26.6990   48.3020 O   0  0  0  0  0  0  0  0  0  0  0  0
   57.7730   25.5200   47.0310 C   0  0  0  0  0  0  0  0  0  0  0  0
   57.2910   25.1650   45.6490 C   0  0  0  0  0  0  0  0  0  0  0  0
   58.0880   25.2880   44.6800 O   0  0  0  0  0  0  0  0  0  0  0  0
   55.9420   24.5920   45.4060 C   0  0  0  0  0  0  0  0  0  0  0  0
   54.7650   25.3320   45.6260 C   0  0  0  0  0  0  0  0  0  0  0  0
   54.8210   26.6710   45.9960 O   0  0  0  0  0  0  0  0  0  0  0  0
   53.5500   24.7460   45.4560 N   0  0  0  0  0  0  0  0  0  0  0  0
   53.4470   23.4530   45.0470 C   0  0  0  0  0  0  0  0  0  0  0  0
   52.3140   22.9240   44.8980 O   0  0  0  0  0  0  0  0  0  0  0  0
   54.5660   22.7280   44.7990 N   0  0  0  0  0  0  0  0  0  0  0  0
   55.8020   23.2630   44.9650 C   0  0  0  0  0  0  0  0  0  0  0  0
   56.8160   22.5470   44.7420 O   0  0  0  0  0  0  0  0  0  0  0  0
   57.4290   28.4220   45.7380 C   0  0  0  0  0  0  0  0  0  0  0  0
   57.0350   29.7000   45.2960 C   0  0  0  0  0  0  0  0  0  0  0  0
   55.8960   29.8950   44.5000 O   0  0  0  0  0  0  0  0  0  0  0  0
   55.8740   29.7780   43.0810 C   0  0  0  0  0  0  0  0  0  0  0  0
   57.7862   33.2498   46.8404 H   0  0  0  0  0  0  0  0  0  0  0  0
   58.8339   33.5500   45.4126 H   0  0  0  0  0  0  0  0  0  0  0  0
   57.1306   34.1205   45.4126 H   0  0  0  0  0  0  0  0  0  0  0  0
   59.5613   31.5308   46.7130 H   0  0  0  0  0  0  0  0  0  0  0  0
   60.2494   29.2622   47.4713 H   0  0  0  0  0  0  0  0  0  0  0  0
   58.0896   24.6021   47.5480 H   0  0  0  0  0  0  0  0  0  0  0  0
   56.9490   26.0050   47.5748 H   0  0  0  0  0  0  0  0  0  0  0  0
   52.6830   25.3010   45.6350 H   0  0  0  0  0  0  0  0  0  0  0  0
   56.8217   27.5429   45.4766 H   0  0  0  0  0  0  0  0  0  0  0  0
   55.6774   28.7322   42.8023 H   0  0  0  0  0  0  0  0  0  0  0  0
   55.0811   30.4217   42.6723 H   0  0  0  0  0  0  0  0  0  0  0  0
   56.8465   30.0897   42.6723 H   0  0  0  0  0  0  0  0  0  0  0  0
  1  2  1  0
  2  3  1  0
  3  4  2  0
  4  5  1  0
  5  6  2  0
  6  7  1  0
  7  8  2  0
  7  9  2  0
  7 10  1  0
 10 11  1  0
 11 12  2  0
 11 13  1  0
 13 14  2  0
 14 15  1  0
 14 16  1  0
 16 17  1  0
 17 18  2  0
 17 19  1  0
 19 20  1  0
 20 21  2  0
  6 22  1  0
 22 23  2  0
 23 24  1  0
 24 25  1  0
 23  3  1  0
 20 13  1  0
  1 26  1  0
  1 27  1  0
  1 28  1  0
  4 29  1  0
  5 30  1  0
 10 31  1  0
 10 32  1  0
 16 33  1  0
 22 34  1  0
 25 35  1  0
 25 36  1  0
 25 37  1  0
M  CHG  2  15  -1  19  -1
M  END
>  <UniqueID>  (83) 
74

>  <SMILES>  (83) 
COc1ccc(S(=O)(=O)CC(=O)c2c([O-])[nH]c(=O)[n-]c2=O)cc1OC

>  <Energy>  (83) 
36.44826908532081

>  <Genealogy>  (83) 
COc1ccc(S(=O)(=O)CC(=O)c2c([O-])[nH]c(=O)[n-]c2=O)cc1OC (protonated)
COc1ccc(S(=O)(=O)CC(=O)c2c([O-])[nH]c(=O)[n-]c2=O)cc1OC (3D coordinates assigned)
COc1ccc(S(=O)(=O)CC(=O)c2c([O-])[nH]c(=O)[n-]c2=O)cc1OC (optimized conformer: 36.44826908532081 kcal/mol)

>  <smiles>  (83) 
COc1ccc(S(=O)(=O)CC(=O)c2c(O)[nH]c(=O)[nH]c2=O)cc1OC

>  <score_type>  (83) 
oracle

>  <origin>  (83) 
adg

>  <m_score__min__energy>  (83) 
-13.02

>  <m_primary>  (83) 
energy

$$$$
83:0
     RDKit          3D

 41 43  0  0  0  0  0  0  0  0999 V2000
   63.1200   32.1930   48.9560 O   0  0  0  0  0  0  0  0  0  0  0  0
   62.3890   31.9530   47.9580 C   0  0  0  0  0  0  0  0  0  0  0  0
   61.9850   33.0720   47.0540 C   0  0  0  0  0  0  0  0  0  0  0  0
   60.8220   34.1990   47.8970 S   0  0  0  0  0  0  0  0  0  0  0  0
   59.4810   33.9440   46.7300 C   0  0  0  0  0  0  0  0  0  0  0  0
   58.1890   33.6640   47.1940 C   0  0  0  0  0  0  0  0  0  0  0  0
   57.1470   33.4640   46.2830 C   0  0  0  0  0  0  0  0  0  0  0  0
   57.3910   33.5500   44.9090 C   0  0  0  0  0  0  0  0  0  0  0  0
   58.6790   33.8380   44.4440 C   0  0  0  0  0  0  0  0  0  0  0  0
   59.7210   34.0400   45.3530 C   0  0  0  0  0  0  0  0  0  0  0  0
   61.8620   30.6390   47.7300 N   0  0  0  0  0  0  0  0  0  0  0  0
   60.6590   30.3080   47.0210 C   0  0  0  0  0  0  0  0  0  0  0  0
   59.3810   30.5420   47.5630 C   0  0  0  0  0  0  0  0  0  0  0  0
   58.2360   30.1950   46.8410 C   0  0  0  0  0  0  0  0  0  0  0  0
   58.3510   29.5960   45.5790 C   0  0  0  0  0  0  0  0  0  0  0  0
   56.9010   29.1900   44.6670 S   0  0  0  0  0  0  0  0  0  0  0  0
   57.2980   28.7120   43.2990 O   0  0  0  0  0  0  0  0  0  0  0  0
   56.0160   30.3960   44.5120 O   0  0  0  0  0  0  0  0  0  0  0  0
   56.0270   27.9300   45.4800 N   0  0  0  0  0  0  0  0  0  0  0  0
   56.5680   26.8260   45.8930 C   0  0  0  0  0  0  0  0  0  0  0  0
   57.9220   26.7040   45.8850 N   0  0  0  0  0  0  0  0  0  0  0  0
   58.5260   25.5610   46.3090 C   0  0  0  0  0  0  0  0  0  0  0  0
   57.7520   24.4930   46.7600 C   0  0  0  0  0  0  0  0  0  0  0  0
   56.3650   24.6320   46.7630 C   0  0  0  0  0  0  0  0  0  0  0  0
   55.8000   25.7890   46.3310 N   0  0  0  0  0  0  0  0  0  0  0  0
   59.6220   29.3420   45.0490 C   0  0  0  0  0  0  0  0  0  0  0  0
   60.7680   29.6880   45.7700 C   0  0  0  0  0  0  0  0  0  0  0  0
   62.8811   33.6358   46.7554 H   0  0  0  0  0  0  0  0  0  0  0  0
   61.4868   32.6483   46.1695 H   0  0  0  0  0  0  0  0  0  0  0  0
   57.9942   33.6015   48.2748 H   0  0  0  0  0  0  0  0  0  0  0  0
   56.1340   33.2387   46.6479 H   0  0  0  0  0  0  0  0  0  0  0  0
   56.5706   33.3913   44.1936 H   0  0  0  0  0  0  0  0  0  0  0  0
   58.8713   33.9054   43.3630 H   0  0  0  0  0  0  0  0  0  0  0  0
   60.7313   34.2748   44.9868 H   0  0  0  0  0  0  0  0  0  0  0  0
   59.2834   30.9997   48.5585 H   0  0  0  0  0  0  0  0  0  0  0  0
   57.2404   30.3927   47.2648 H   0  0  0  0  0  0  0  0  0  0  0  0
   59.6229   25.4798   46.2959 H   0  0  0  0  0  0  0  0  0  0  0  0
   58.2249   23.5619   47.1056 H   0  0  0  0  0  0  0  0  0  0  0  0
   55.7292   23.8061   47.1146 H   0  0  0  0  0  0  0  0  0  0  0  0
   59.7188   28.8681   44.0610 H   0  0  0  0  0  0  0  0  0  0  0  0
   61.7623   29.4719   45.3521 H   0  0  0  0  0  0  0  0  0  0  0  0
  1  2  2  0
  2  3  1  0
  3  4  1  0
  4  5  1  0
  5  6  2  0
  6  7  1  0
  7  8  2  0
  8  9  1  0
  9 10  2  0
  2 11  1  0
 11 12  1  0
 12 13  2  0
 13 14  1  0
 14 15  2  0
 15 16  1  0
 16 17  2  0
 16 18  2  0
 16 19  1  0
 19 20  2  3
 20 21  1  0
 21 22  2  0
 22 23  1  0
 23 24  2  0
 24 25  1  0
 15 26  1  0
 26 27  2  0
 10  5  1  0
 27 12  1  0
 25 20  1  0
  3 28  1  0
  3 29  1  0
  6 30  1  0
  7 31  1  0
  8 32  1  0
  9 33  1  0
 10 34  1  0
 13 35  1  0
 14 36  1  0
 22 37  1  0
 23 38  1  0
 24 39  1  0
 26 40  1  0
 27 41  1  0
M  CHG  2  11  -1  25  -1
M  END
>  <UniqueID>  (84) 
75

>  <SMILES>  (84) 
O=C(CSc1ccccc1)[N-]c1ccc(S(=O)(=O)N=c2nccc[n-]2)cc1

>  <Energy>  (84) 
45.940648325958264

>  <Genealogy>  (84) 
O=C(CSc1ccccc1)[N-]c1ccc(S(=O)(=O)N=c2nccc[n-]2)cc1 (protonated)
O=C(CSc1ccccc1)[N-]c1ccc(S(=O)(=O)N=c2nccc[n-]2)cc1 (3D coordinates assigned)
O=C(CSc1ccccc1)[N-]c1ccc(S(=O)(=O)N=c2nccc[n-]2)cc1 (optimized conformer: 45.940648325958264 kcal/mol)

>  <smiles>  (84) 
O=C(CSc1ccccc1)Nc1ccc(S(=O)(=O)N=c2nccc[nH]2)cc1

>  <score_type>  (84) 
oracle

>  <origin>  (84) 
adg

>  <m_score__min__energy>  (84) 
-11.050000000000001

>  <m_primary>  (84) 
energy

$$$$
84:0
     RDKit          3D

 54 58  0  0  0  0  0  0  0  0999 V2000
   61.7320   30.5190   50.0100 C   0  0  0  0  0  0  0  0  0  0  0  0
   61.2520   30.9260   48.7340 O   0  0  0  0  0  0  0  0  0  0  0  0
   61.8460   31.9160   47.9360 C   0  0  0  0  0  0  0  0  0  0  0  0
   63.2050   31.8520   47.5670 C   0  0  0  0  0  0  0  0  0  0  0  0
   63.7770   32.8670   46.7950 C   0  0  0  0  0  0  0  0  0  0  0  0
   63.0060   33.9540   46.3850 C   0  0  0  0  0  0  0  0  0  0  0  0
   61.6580   34.0280   46.7390 C   0  0  0  0  0  0  0  0  0  0  0  0
   61.0640   33.0110   47.5060 C   0  0  0  0  0  0  0  0  0  0  0  0
   59.6610   33.0980   47.8370 N   0  0  0  0  0  0  0  0  0  0  0  0
   58.6730   33.2850   46.8000 C   0  0  0  0  0  0  0  0  0  0  0  0
   58.2530   34.4480   46.5490 O   0  0  0  0  0  0  0  0  0  0  0  0
   58.1290   32.1410   46.0320 C   0  0  0  0  0  0  0  0  0  0  0  0
   58.7010   30.8630   46.1280 C   0  0  0  0  0  0  0  0  0  0  0  0
   58.1690   29.7990   45.4000 C   0  0  0  0  0  0  0  0  0  0  0  0
   57.0690   30.0210   44.5700 C   0  0  0  0  0  0  0  0  0  0  0  0
   56.5310   31.2660   44.4720 N   0  0  0  0  0  0  0  0  0  0  0  0
   57.0340   32.3190   45.1710 C   0  0  0  0  0  0  0  0  0  0  0  0
   59.2350   32.9440   49.2080 C   0  0  0  0  0  0  0  0  0  0  0  0
   59.7340   33.7970   50.2100 C   0  0  0  0  0  0  0  0  0  0  0  0
   59.3220   33.6530   51.5390 C   0  0  0  0  0  0  0  0  0  0  0  0
   58.4020   32.6550   51.8840 C   0  0  0  0  0  0  0  0  0  0  0  0
   57.9870   32.4950   53.1720 N   0  0  0  0  0  0  0  0  0  0  0  0
   57.0920   31.5250   53.5050 C   0  0  0  0  0  0  0  0  0  0  0  0
   56.5810   30.6730   52.5110 C   0  0  0  0  0  0  0  0  0  0  0  0
   55.6050   29.6110   52.8220 C   0  0  0  0  0  0  0  0  0  0  0  0
   54.2480   29.5740   52.5360 C   0  0  0  0  0  0  0  0  0  0  0  0
   53.7250   28.4250   53.0070 N   0  0  0  0  0  0  0  0  0  0  0  0
   54.7090   27.7370   53.5650 N   0  0  0  0  0  0  0  0  0  0  0  0
   54.5270   26.4610   54.2430 C   0  0  0  0  0  0  0  0  0  0  0  0
   55.8610   28.4270   53.4860 C   0  0  0  0  0  0  0  0  0  0  0  0
   56.9990   30.8380   51.2260 N   0  0  0  0  0  0  0  0  0  0  0  0
   57.8940   31.8010   50.8850 C   0  0  0  0  0  0  0  0  0  0  0  0
   58.3080   31.9460   49.5580 C   0  0  0  0  0  0  0  0  0  0  0  0
   61.1463   31.0156   50.7976 H   0  0  0  0  0  0  0  0  0  0  0  0
   61.6296   29.4283   50.1095 H   0  0  0  0  0  0  0  0  0  0  0  0
   62.7913   30.7984   50.1095 H   0  0  0  0  0  0  0  0  0  0  0  0
   63.8191   30.9979   47.8886 H   0  0  0  0  0  0  0  0  0  0  0  0
   64.8379   32.8082   46.5102 H   0  0  0  0  0  0  0  0  0  0  0  0
   63.4605   34.7539   45.7820 H   0  0  0  0  0  0  0  0  0  0  0  0
   61.0555   34.8894   46.4150 H   0  0  0  0  0  0  0  0  0  0  0  0
   59.5720   30.6999   46.7797 H   0  0  0  0  0  0  0  0  0  0  0  0
   58.6118   28.7952   45.4791 H   0  0  0  0  0  0  0  0  0  0  0  0
   56.6372   29.1886   43.9950 H   0  0  0  0  0  0  0  0  0  0  0  0
   56.5806   33.3152   45.0612 H   0  0  0  0  0  0  0  0  0  0  0  0
   60.4550   34.5846   49.9455 H   0  0  0  0  0  0  0  0  0  0  0  0
   59.7210   34.3242   52.3138 H   0  0  0  0  0  0  0  0  0  0  0  0
   58.3530   33.1190   53.9260 H   0  0  0  0  0  0  0  0  0  0  0  0
   56.7693   31.4082   54.5501 H   0  0  0  0  0  0  0  0  0  0  0  0
   53.6872   30.3592   52.0078 H   0  0  0  0  0  0  0  0  0  0  0  0
   54.5494   26.6177   55.3315 H   0  0  0  0  0  0  0  0  0  0  0  0
   53.5579   26.0276   53.9548 H   0  0  0  0  0  0  0  0  0  0  0  0
   55.3362   25.7739   53.9548 H   0  0  0  0  0  0  0  0  0  0  0  0
   56.8359   28.1049   53.8809 H   0  0  0  0  0  0  0  0  0  0  0  0
   57.9067   31.2761   48.7833 H   0  0  0  0  0  0  0  0  0  0  0  0
  1  2  1  0
  2  3  1  0
  3  4  2  0
  4  5  1  0
  5  6  2  0
  6  7  1  0
  7  8  2  0
  8  9  1  0
  9 10  1  0
 10 11  2  0
 10 12  1  0
 12 13  2  0
 13 14  1  0
 14 15  2  0
 15 16  1  0
 16 17  2  0
  9 18  1  0
 18 19  2  0
 19 20  1  0
 20 21  2  0
 21 22  1  0
 22 23  2  0
 23 24  1  0
 24 25  1  0
 25 26  1  0
 26 27  2  0
 27 28  1  0
 28 29  1  0
 28 30  1  0
 24 31  2  0
 31 32  1  0
 32 33  2  0
  8  3  1  0
 17 12  1  0
 33 18  1  0
 32 21  1  0
 30 25  2  0
  1 34  1  0
  1 35  1  0
  1 36  1  0
  4 37  1  0
  5 38  1  0
  6 39  1  0
  7 40  1  0
 13 41  1  0
 14 42  1  0
 15 43  1  0
 17 44  1  0
 19 45  1  0
 20 46  1  0
 22 47  1  0
 23 48  1  0
 26 49  1  0
 29 50  1  0
 29 51  1  0
 29 52  1  0
 30 53  1  0
 33 54  1  0
M  CHG  1  22   1
M  END
>  <UniqueID>  (85) 
76

>  <SMILES>  (85) 
COc1ccccc1N(C(=O)c1cccnc1)c1ccc2[nH+]cc(-c3cnn(C)c3)nc2c1

>  <Energy>  (85) 
107.36008080975074

>  <Genealogy>  (85) 
COc1ccccc1N(C(=O)c1cccnc1)c1ccc2[nH+]cc(-c3cnn(C)c3)nc2c1 (protonated)
COc1ccccc1N(C(=O)c1cccnc1)c1ccc2[nH+]cc(-c3cnn(C)c3)nc2c1 (3D coordinates assigned)
COc1ccccc1N(C(=O)c1cccnc1)c1ccc2[nH+]cc(-c3cnn(C)c3)nc2c1 (optimized conformer: 107.36008080975074 kcal/mol)

>  <smiles>  (85) 
COc1ccccc1N(C(=O)c1cccnc1)c1ccc2ncc(-c3cnn(C)c3)nc2c1

>  <score_type>  (85) 
oracle

>  <origin>  (85) 
adg

>  <m_score__min__energy>  (85) 
-7.2000000000000002

>  <m_primary>  (85) 
energy

$$$$
85:0
     RDKit          3D

 52 55  0  0  0  0  0  0  0  0999 V2000
   50.1928   21.1224   45.4838 H   0  0  0  0  0  0  0  0  0  0  0  0
   50.6900   22.0770   45.2570 C   0  0  0  0  0  0  0  0  0  0  0  0
   52.0430   22.1770   45.3480 N   0  0  0  0  0  0  0  0  0  0  0  0
   52.7060   23.3340   45.0770 C   0  0  0  0  0  0  0  0  0  0  0  0
   54.0040   23.3480   45.1880 N   0  0  0  0  0  0  0  0  0  0  0  0
   54.7680   23.8830   46.3130 C   0  0  0  0  0  0  0  0  0  0  0  0
   55.2324   23.0551   46.8688 H   0  0  0  0  0  0  0  0  0  0  0  0
   54.0967   24.4402   46.9830 H   0  0  0  0  0  0  0  0  0  0  0  0
   55.8370   24.8010   45.7940 C   0  0  0  0  0  0  0  0  0  0  0  0
   56.9470   24.2790   45.1110 C   0  0  0  0  0  0  0  0  0  0  0  0
   57.0264   23.1952   44.9404 H   0  0  0  0  0  0  0  0  0  0  0  0
   57.9500   25.1320   44.6480 C   0  0  0  0  0  0  0  0  0  0  0  0
   58.8086   24.7199   44.0975 H   0  0  0  0  0  0  0  0  0  0  0  0
   57.8680   26.5080   44.8810 C   0  0  0  0  0  0  0  0  0  0  0  0
   58.6544   27.1768   44.5012 H   0  0  0  0  0  0  0  0  0  0  0  0
   56.7820   27.0390   45.6000 C   0  0  0  0  0  0  0  0  0  0  0  0
   56.6480   28.4450   45.8500 N   0  0  0  0  0  0  0  0  0  0  0  0
   56.3430   29.4660   44.8900 C   0  0  0  0  0  0  0  0  0  0  0  0
   55.1670   29.6160   44.4660 O   0  0  0  0  0  0  0  0  0  0  0  0
   57.3690   30.3370   44.4030 N   0  0  0  0  0  0  0  0  0  0  0  0
   57.7300   31.6130   44.9520 C   0  0  0  0  0  0  0  0  0  0  0  0
   57.3430   32.8190   44.3410 C   0  0  0  0  0  0  0  0  0  0  0  0
   56.7688   32.7997   43.4030 H   0  0  0  0  0  0  0  0  0  0  0  0
   57.6870   34.0430   44.9240 C   0  0  0  0  0  0  0  0  0  0  0  0
   57.3909   34.9842   44.4378 H   0  0  0  0  0  0  0  0  0  0  0  0
   58.4050   34.0740   46.1210 C   0  0  0  0  0  0  0  0  0  0  0  0
   58.6731   35.0397   46.5744 H   0  0  0  0  0  0  0  0  0  0  0  0
   58.7860   32.8770   46.7480 C   0  0  0  0  0  0  0  0  0  0  0  0
   59.5120   32.9090   48.0650 C   0  0  0  0  0  0  0  0  0  0  0  0
   59.1640   33.7726   48.6507 H   0  0  0  0  0  0  0  0  0  0  0  0
   59.3056   31.9767   48.6111 H   0  0  0  0  0  0  0  0  0  0  0  0
   60.9940   33.0270   47.8390 C   0  0  0  0  0  0  0  0  0  0  0  0
   61.4880   33.7270   46.7250 C   0  0  0  0  0  0  0  0  0  0  0  0
   60.7888   34.2152   46.0301 H   0  0  0  0  0  0  0  0  0  0  0  0
   62.8650   33.8050   46.4970 C   0  0  0  0  0  0  0  0  0  0  0  0
   63.2469   34.3605   45.6278 H   0  0  0  0  0  0  0  0  0  0  0  0
   63.7580   33.1780   47.3720 C   0  0  0  0  0  0  0  0  0  0  0  0
   64.8412   33.2420   47.1915 H   0  0  0  0  0  0  0  0  0  0  0  0
   63.2740   32.4700   48.4760 C   0  0  0  0  0  0  0  0  0  0  0  0
   63.9767   31.9754   49.1627 H   0  0  0  0  0  0  0  0  0  0  0  0
   61.8980   32.3900   48.7080 C   0  0  0  0  0  0  0  0  0  0  0  0
   61.5205   31.8264   49.5739 H   0  0  0  0  0  0  0  0  0  0  0  0
   58.4270   31.6500   46.1660 C   0  0  0  0  0  0  0  0  0  0  0  0
   58.6959   30.7092   46.6686 H   0  0  0  0  0  0  0  0  0  0  0  0
   55.7650   26.1810   46.0390 C   0  0  0  0  0  0  0  0  0  0  0  0
   54.9013   26.5933   46.5812 H   0  0  0  0  0  0  0  0  0  0  0  0
   51.9680   24.4730   44.6890 C   0  0  0  0  0  0  0  0  0  0  0  0
   52.4833   25.4187   44.4652 H   0  0  0  0  0  0  0  0  0  0  0  0
   50.5780   24.3880   44.5920 C   0  0  0  0  0  0  0  0  0  0  0  0
   49.9925   25.2695   44.2917 H   0  0  0  0  0  0  0  0  0  0  0  0
   49.9320   23.1850   44.8760 C   0  0  0  0  0  0  0  0  0  0  0  0
   48.8371   23.1104   44.8005 H   0  0  0  0  0  0  0  0  0  0  0  0
  1  2  1  0
  2  3  1  0
  3  4  1  0
  4  5  2  0
  5  6  1  0
  6  7  1  0
  6  8  1  0
  6  9  1  0
  9 10  2  0
 10 11  1  0
 10 12  1  0
 12 13  1  0
 12 14  2  0
 14 15  1  0
 14 16  1  0
 16 17  1  0
 17 18  1  0
 18 19  2  0
 18 20  1  0
 20 21  1  0
 21 22  2  0
 22 23  1  0
 22 24  1  0
 24 25  1  0
 24 26  2  0
 26 27  1  0
 26 28  1  0
 28 29  1  0
 29 30  1  0
 29 31  1  0
 29 32  1  0
 32 33  2  0
 33 34  1  0
 33 35  1  0
 35 36  1  0
 35 37  2  0
 37 38  1  0
 37 39  1  0
 39 40  1  0
 39 41  2  0
 41 42  1  0
 28 43  2  0
 43 44  1  0
 16 45  2  0
 45 46  1  0
  4 47  1  0
 47 48  1  0
 47 49  2  0
 49 50  1  0
 49 51  1  0
 51 52  1  0
 51  2  2  0
 45  9  1  0
 43 21  1  0
 41 32  1  0
M  CHG  3   3  -1  17  -1  20  -1
M  END
>  <UniqueID>  (86) 
77

>  <SMILES>  (86) 
O=C([N-]c1cccc(C/N=c2\cccc[n-]2)c1)[N-]c1cccc(Cc2ccccc2)c1

>  <Energy>  (86) 
63.568778099024904

>  <Genealogy>  (86) 
O=C([N-]c1cccc(CN=c2cccc[n-]2)c1)[N-]c1cccc(Cc2ccccc2)c1 (protonated)
O=C([N-]c1cccc(C/N=c2\cccc[n-]2)c1)[N-]c1cccc(Cc2ccccc2)c1 (cis-trans isomerization)
O=C([N-]c1cccc(C/N=c2\cccc[n-]2)c1)[N-]c1cccc(Cc2ccccc2)c1 (3D coordinates assigned)
O=C([N-]c1cccc(C/N=c2\cccc[n-]2)c1)[N-]c1cccc(Cc2ccccc2)c1 (optimized conformer: 63.568778099024904 kcal/mol)

>  <smiles>  (86) 
O=C(Nc1cccc(CN=c2cccc[nH]2)c1)Nc1cccc(Cc2ccccc2)c1

>  <score_type>  (86) 
oracle

>  <origin>  (86) 
adg

>  <m_score__min__energy>  (86) 
-14.609999999999999

>  <m_primary>  (86) 
energy

$$$$
86:0
     RDKit          3D

 60 63  0  0  0  0  0  0  0  0999 V2000
   57.3110   31.3140   44.5020 C   0  0  0  0  0  0  0  0  0  0  0  0
   57.7300   32.4880   44.0140 C   0  0  0  0  0  0  0  0  0  0  0  0
   58.1260   32.6000   42.5670 C   0  0  0  0  0  0  0  0  0  0  0  0
   57.7490   33.7020   44.8610 C   0  0  0  0  0  0  0  0  0  0  0  0
   56.7210   34.4300   44.9540 O   0  0  0  0  0  0  0  0  0  0  0  0
   58.9360   34.0610   45.5170 O   0  0  0  0  0  0  0  0  0  0  0  0
   59.5860   33.2950   46.4970 C   0  0  0  0  0  0  0  0  0  0  0  0
   60.9700   33.0490   46.4540 C   0  0  0  0  0  0  0  0  0  0  0  0
   61.5800   32.2870   47.4520 C   0  0  0  0  0  0  0  0  0  0  0  0
   60.8220   31.7540   48.5030 C   0  0  0  0  0  0  0  0  0  0  0  0
   61.4690   30.9370   49.5500 C   0  0  0  0  0  0  0  0  0  0  0  0
   62.4400   31.5090   50.3020 N   0  0  0  0  0  0  0  0  0  0  0  0
   63.1180   30.8180   51.2500 C   0  0  0  0  0  0  0  0  0  0  0  0
   64.0210   31.4120   51.8990 O   0  0  0  0  0  0  0  0  0  0  0  0
   62.8320   29.4970   51.4850 N   0  0  0  0  0  0  0  0  0  0  0  0
   63.5590   28.7410   52.5290 C   0  0  0  0  0  0  0  0  0  0  0  0
   64.8840   28.2370   52.0060 C   0  0  0  0  0  0  0  0  0  0  0  0
   65.9000   29.1490   51.6630 C   0  0  0  0  0  0  0  0  0  0  0  0
   67.1220   28.6910   51.1640 C   0  0  0  0  0  0  0  0  0  0  0  0
   67.3440   27.3220   51.0060 C   0  0  0  0  0  0  0  0  0  0  0  0
   66.3450   26.4070   51.3470 C   0  0  0  0  0  0  0  0  0  0  0  0
   65.1190   26.8570   51.8460 C   0  0  0  0  0  0  0  0  0  0  0  0
   64.1690   25.9480   52.1780 F   0  0  0  0  0  0  0  0  0  0  0  0
   61.8480   28.8780   50.7520 C   0  0  0  0  0  0  0  0  0  0  0  0
   61.5560   27.6710   50.9810 O   0  0  0  0  0  0  0  0  0  0  0  0
   61.1400   29.5830   49.7590 C   0  0  0  0  0  0  0  0  0  0  0  0
   60.0150   28.9460   49.0300 C   0  0  0  0  0  0  0  0  0  0  0  0
   58.8480   29.0430   49.4990 O   0  0  0  0  0  0  0  0  0  0  0  0
   60.2310   28.1800   47.7530 C   0  0  0  0  0  0  0  0  0  0  0  0
   58.9120   27.7710   47.1510 C   0  0  0  0  0  0  0  0  0  0  0  0
   58.3190   26.5480   47.5090 C   0  0  0  0  0  0  0  0  0  0  0  0
   57.0650   26.1970   46.9990 C   0  0  0  0  0  0  0  0  0  0  0  0
   56.3920   27.0640   46.1330 C   0  0  0  0  0  0  0  0  0  0  0  0
   55.1430   26.7160   45.6330 O   0  0  0  0  0  0  0  0  0  0  0  0
   56.9760   28.2820   45.7710 C   0  0  0  0  0  0  0  0  0  0  0  0
   58.2320   28.6350   46.2740 C   0  0  0  0  0  0  0  0  0  0  0  0
   59.4510   32.0350   48.5730 C   0  0  0  0  0  0  0  0  0  0  0  0
   58.8330   32.8010   47.5730 C   0  0  0  0  0  0  0  0  0  0  0  0
   57.4680   33.0700   47.6390 O   0  0  0  0  0  0  0  0  0  0  0  0
   57.0210   31.2300   45.5598 H   0  0  0  0  0  0  0  0  0  0  0  0
   57.2567   30.4332   43.8452 H   0  0  0  0  0  0  0  0  0  0  0  0
   59.1824   32.8988   42.4980 H   0  0  0  0  0  0  0  0  0  0  0  0
   57.9870   31.6273   42.0725 H   0  0  0  0  0  0  0  0  0  0  0  0
   57.4981   33.3558   42.0725 H   0  0  0  0  0  0  0  0  0  0  0  0
   61.5741   33.4585   45.6310 H   0  0  0  0  0  0  0  0  0  0  0  0
   62.6639   32.1036   47.4130 H   0  0  0  0  0  0  0  0  0  0  0  0
   63.7393   29.4000   53.3911 H   0  0  0  0  0  0  0  0  0  0  0  0
   62.9473   27.8768   52.8272 H   0  0  0  0  0  0  0  0  0  0  0  0
   65.7308   30.2286   51.7886 H   0  0  0  0  0  0  0  0  0  0  0  0
   67.9100   29.4100   50.8954 H   0  0  0  0  0  0  0  0  0  0  0  0
   68.3066   26.9633   50.6126 H   0  0  0  0  0  0  0  0  0  0  0  0
   66.5236   25.3288   51.2225 H   0  0  0  0  0  0  0  0  0  0  0  0
   60.7735   28.8154   47.0375 H   0  0  0  0  0  0  0  0  0  0  0  0
   60.8149   27.2749   47.9766 H   0  0  0  0  0  0  0  0  0  0  0  0
   58.8432   25.8643   48.1929 H   0  0  0  0  0  0  0  0  0  0  0  0
   56.6073   25.2369   47.2798 H   0  0  0  0  0  0  0  0  0  0  0  0
   56.4463   28.9637   45.0893 H   0  0  0  0  0  0  0  0  0  0  0  0
   58.6899   29.5918   45.9827 H   0  0  0  0  0  0  0  0  0  0  0  0
   58.8564   31.6532   49.4160 H   0  0  0  0  0  0  0  0  0  0  0  0
   57.0240   33.7220   47.0020 H   0  0  0  0  0  0  0  0  0  0  0  0
  1  2  2  0
  2  3  1  0
  2  4  1  0
  4  5  2  0
  4  6  1  0
  6  7  1  0
  7  8  2  0
  8  9  1  0
  9 10  2  0
 10 11  1  0
 11 12  1  0
 12 13  1  0
 13 14  2  0
 13 15  1  0
 15 16  1  0
 16 17  1  0
 17 18  2  0
 18 19  1  0
 19 20  2  0
 20 21  1  0
 21 22  2  0
 22 23  1  0
 15 24  1  0
 24 25  2  0
 24 26  1  0
 26 27  1  0
 27 28  2  0
 27 29  1  0
 29 30  1  0
 30 31  2  0
 31 32  1  0
 32 33  2  0
 33 34  1  0
 33 35  1  0
 35 36  2  0
 10 37  1  0
 37 38  2  0
 38 39  1  0
 38  7  1  0
 26 11  2  0
 36 30  1  0
 22 17  1  0
  1 40  1  0
  1 41  1  0
  3 42  1  0
  3 43  1  0
  3 44  1  0
  8 45  1  0
  9 46  1  0
 16 47  1  0
 16 48  1  0
 18 49  1  0
 19 50  1  0
 20 51  1  0
 21 52  1  0
 29 53  1  0
 29 54  1  0
 31 55  1  0
 32 56  1  0
 35 57  1  0
 36 58  1  0
 37 59  1  0
 39 60  1  0
M  CHG  2  12  -1  34  -1
M  END
>  <UniqueID>  (87) 
78

>  <SMILES>  (87) 
C=C(C)C(=O)Oc1ccc(-c2[n-]c(=O)n(Cc3ccccc3F)c(=O)c2C(=O)Cc2ccc([O-])cc2)cc1O

>  <Energy>  (87) 
82.43344727153354

>  <Genealogy>  (87) 
C=C(C)C(=O)Oc1ccc(-c2[n-]c(=O)n(Cc3ccccc3F)c(=O)c2C(=O)Cc2ccc([O-])cc2)cc1O (protonated)
C=C(C)C(=O)Oc1ccc(-c2[n-]c(=O)n(Cc3ccccc3F)c(=O)c2C(=O)Cc2ccc([O-])cc2)cc1O (3D coordinates assigned)
C=C(C)C(=O)Oc1ccc(-c2[n-]c(=O)n(Cc3ccccc3F)c(=O)c2C(=O)Cc2ccc([O-])cc2)cc1O (optimized conformer: 82.43344727153354 kcal/mol)

>  <smiles>  (87) 
C=C(C)C(=O)Oc1ccc(-c2[nH]c(=O)n(Cc3ccccc3F)c(=O)c2C(=O)Cc2ccc(O)cc2)cc1O

>  <score_type>  (87) 
oracle

>  <origin>  (87) 
adg

>  <m_score__min__energy>  (87) 
-11.800000000000001

>  <m_primary>  (87) 
energy

$$$$
87:0
     RDKit          3D

 45 47  0  0  0  0  0  0  0  0999 V2000
   56.0300   28.5090   45.1980 O   0  0  0  0  0  0  0  0  0  0  0  0
   56.2040   27.3380   45.6300 C   0  0  0  0  0  0  0  0  0  0  0  0
   55.1050   26.5720   45.9980 O   0  0  0  0  0  0  0  0  0  0  0  0
   57.5850   26.7620   45.7190 C   0  0  0  0  0  0  0  0  0  0  0  0
   58.2780   27.0900   47.0520 C   0  0  0  0  0  0  0  0  0  0  0  0
   59.6140   27.8340   46.8900 C   0  0  0  0  0  0  0  0  0  0  0  0
   59.6490   29.1860   47.6140 C   0  0  0  0  0  0  0  0  0  0  0  0
   59.0420   30.2810   46.7580 C   0  0  0  0  0  0  0  0  0  0  0  0
   58.8060   29.9650   45.3970 C   0  0  0  0  0  0  0  0  0  0  0  0
   58.3080   30.9180   44.5020 C   0  0  0  0  0  0  0  0  0  0  0  0
   58.0530   32.2020   44.9650 C   0  0  0  0  0  0  0  0  0  0  0  0
   57.6210   33.2260   44.1800 N   0  0  0  0  0  0  0  0  0  0  0  0
   57.4830   34.3800   44.8710 C   0  0  0  0  0  0  0  0  0  0  0  0
   57.8970   34.1620   46.4920 S   0  0  0  0  0  0  0  0  0  0  0  0
   58.2540   32.5240   46.3000 C   0  0  0  0  0  0  0  0  0  0  0  0
   58.7080   31.5860   47.2480 C   0  0  0  0  0  0  0  0  0  0  0  0
   58.8460   32.0110   48.7050 C   0  0  0  0  0  0  0  0  0  0  0  0
   59.7290   33.2560   48.8990 C   0  0  0  0  0  0  0  0  0  0  0  0
   61.0790   33.1130   48.2510 C   0  0  0  0  0  0  0  0  0  0  0  0
   61.4290   33.9210   47.1570 C   0  0  0  0  0  0  0  0  0  0  0  0
   62.6860   33.7870   46.5570 C   0  0  0  0  0  0  0  0  0  0  0  0
   63.6000   32.8510   47.0490 C   0  0  0  0  0  0  0  0  0  0  0  0
   63.2610   32.0480   48.1420 C   0  0  0  0  0  0  0  0  0  0  0  0
   62.0060   32.1800   48.7450 C   0  0  0  0  0  0  0  0  0  0  0  0
   57.5180   25.6688   45.6164 H   0  0  0  0  0  0  0  0  0  0  0  0
   58.1850   27.2092   44.9128 H   0  0  0  0  0  0  0  0  0  0  0  0
   57.6012   27.7185   47.6494 H   0  0  0  0  0  0  0  0  0  0  0  0
   58.5027   26.1306   47.5410 H   0  0  0  0  0  0  0  0  0  0  0  0
   60.4173   27.2007   47.2946 H   0  0  0  0  0  0  0  0  0  0  0  0
   59.7454   28.0364   45.8168 H   0  0  0  0  0  0  0  0  0  0  0  0
   59.0795   29.1060   48.5517 H   0  0  0  0  0  0  0  0  0  0  0  0
   60.6983   29.4448   47.8191 H   0  0  0  0  0  0  0  0  0  0  0  0
   59.0191   28.9479   45.0362 H   0  0  0  0  0  0  0  0  0  0  0  0
   58.1218   30.6548   43.4503 H   0  0  0  0  0  0  0  0  0  0  0  0
   57.4270   33.1400   43.1570 H   0  0  0  0  0  0  0  0  0  0  0  0
   57.1463   35.3322   44.4352 H   0  0  0  0  0  0  0  0  0  0  0  0
   57.8432   32.2301   49.1005 H   0  0  0  0  0  0  0  0  0  0  0  0
   59.3328   31.1820   49.2396 H   0  0  0  0  0  0  0  0  0  0  0  0
   59.2165   34.1238   48.4582 H   0  0  0  0  0  0  0  0  0  0  0  0
   59.8896   33.3861   49.9794 H   0  0  0  0  0  0  0  0  0  0  0  0
   60.7130   34.6613   46.7707 H   0  0  0  0  0  0  0  0  0  0  0  0
   62.9550   34.4187   45.6976 H   0  0  0  0  0  0  0  0  0  0  0  0
   64.5873   32.7461   46.5756 H   0  0  0  0  0  0  0  0  0  0  0  0
   63.9817   31.3120   48.5279 H   0  0  0  0  0  0  0  0  0  0  0  0
   61.7439   31.5513   49.6088 H   0  0  0  0  0  0  0  0  0  0  0  0
  1  2  2  0
  2  3  1  0
  2  4  1  0
  4  5  1  0
  5  6  1  0
  6  7  1  0
  7  8  1  0
  8  9  2  0
  9 10  1  0
 10 11  2  0
 11 12  1  0
 12 13  2  0
 13 14  1  0
 14 15  1  0
 15 16  2  0
 16 17  1  0
 17 18  1  0
 18 19  1  0
 19 20  2  0
 20 21  1  0
 21 22  2  0
 22 23  1  0
 23 24  2  0
 16  8  1  0
 24 19  1  0
 15 11  1  0
  4 25  1  0
  4 26  1  0
  5 27  1  0
  5 28  1  0
  6 29  1  0
  6 30  1  0
  7 31  1  0
  7 32  1  0
  9 33  1  0
 10 34  1  0
 12 35  1  0
 13 36  1  0
 17 37  1  0
 17 38  1  0
 18 39  1  0
 18 40  1  0
 20 41  1  0
 21 42  1  0
 22 43  1  0
 23 44  1  0
 24 45  1  0
M  CHG  2   3  -1  12   1
M  END
>  <UniqueID>  (88) 
79

>  <SMILES>  (88) 
O=C([O-])CCCCc1ccc2[nH+]csc2c1CCc1ccccc1

>  <Energy>  (88) 
76.32578865755399

>  <Genealogy>  (88) 
O=C([O-])CCCCc1ccc2[nH+]csc2c1CCc1ccccc1 (protonated)
O=C([O-])CCCCc1ccc2[nH+]csc2c1CCc1ccccc1 (3D coordinates assigned)
O=C([O-])CCCCc1ccc2[nH+]csc2c1CCc1ccccc1 (optimized conformer: 76.32578865755399 kcal/mol)

>  <smiles>  (88) 
O=C(O)CCCCc1ccc2ncsc2c1CCc1ccccc1

>  <score_type>  (88) 
oracle

>  <origin>  (88) 
adg

>  <m_score__min__energy>  (88) 
-10.08

>  <m_primary>  (88) 
energy

$$$$
88:0
     RDKit          3D

 38 40  0  0  0  0  0  0  0  0999 V2000
   58.4850   29.3260   47.0300 O   0  0  0  0  0  0  0  0  0  0  0  0
   57.7110   29.4180   46.0390 C   0  0  0  0  0  0  0  0  0  0  0  0
   56.7570   28.3830   45.7690 N   0  0  0  0  0  0  0  0  0  0  0  0
   57.0480   26.9840   45.6410 C   0  0  0  0  0  0  0  0  0  0  0  0
   58.3850   26.5870   45.5060 C   0  0  0  0  0  0  0  0  0  0  0  0
   58.7140   25.2340   45.3880 C   0  0  0  0  0  0  0  0  0  0  0  0
   57.7080   24.2620   45.4270 C   0  0  0  0  0  0  0  0  0  0  0  0
   58.1590   22.4130   45.2710 Br  0  0  0  0  0  0  0  0  0  0  0  0
   56.3750   24.6470   45.5970 C   0  0  0  0  0  0  0  0  0  0  0  0
   56.0410   26.0010   45.7150 C   0  0  0  0  0  0  0  0  0  0  0  0
   54.7500   26.3360   45.9610 F   0  0  0  0  0  0  0  0  0  0  0  0
   57.7990   30.5960   45.1520 C   0  0  0  0  0  0  0  0  0  0  0  0
   57.7200   30.3960   43.7620 C   0  0  0  0  0  0  0  0  0  0  0  0
   57.7160   31.4830   42.8870 C   0  0  0  0  0  0  0  0  0  0  0  0
   57.7890   32.7830   43.3840 C   0  0  0  0  0  0  0  0  0  0  0  0
   57.8890   32.9990   44.7590 C   0  0  0  0  0  0  0  0  0  0  0  0
   57.9210   31.9170   45.6520 C   0  0  0  0  0  0  0  0  0  0  0  0
   58.1870   32.2710   47.4000 S   0  0  0  0  0  0  0  0  0  0  0  0
   59.9670   32.4850   47.2010 C   0  0  0  0  0  0  0  0  0  0  0  0
   60.7950   31.3710   47.4030 C   0  0  0  0  0  0  0  0  0  0  0  0
   62.1830   31.5020   47.3550 C   0  0  0  0  0  0  0  0  0  0  0  0
   62.7590   32.7460   47.0990 C   0  0  0  0  0  0  0  0  0  0  0  0
   64.1080   32.8730   47.0580 F   0  0  0  0  0  0  0  0  0  0  0  0
   61.9460   33.8590   46.8700 C   0  0  0  0  0  0  0  0  0  0  0  0
   60.5460   33.7400   46.8950 C   0  0  0  0  0  0  0  0  0  0  0  0
   59.7400   34.8860   46.5800 N   0  0  0  0  0  0  0  0  0  0  0  0
   58.9530   35.3530   47.4280 O   0  0  0  0  0  0  0  0  0  0  0  0
   59.6560   35.3320   45.2810 O   0  0  0  0  0  0  0  0  0  0  0  0
   59.1813   27.3458   45.4928 H   0  0  0  0  0  0  0  0  0  0  0  0
   59.7647   24.9327   45.2643 H   0  0  0  0  0  0  0  0  0  0  0  0
   55.5852   23.8825   45.6382 H   0  0  0  0  0  0  0  0  0  0  0  0
   57.6608   29.3734   43.3610 H   0  0  0  0  0  0  0  0  0  0  0  0
   57.6551   31.3133   41.8019 H   0  0  0  0  0  0  0  0  0  0  0  0
   57.7678   33.6384   42.6927 H   0  0  0  0  0  0  0  0  0  0  0  0
   57.9432   34.0271   45.1465 H   0  0  0  0  0  0  0  0  0  0  0  0
   60.3463   30.3863   47.6008 H   0  0  0  0  0  0  0  0  0  0  0  0
   62.8238   30.6232   47.5192 H   0  0  0  0  0  0  0  0  0  0  0  0
   62.4061   34.8376   46.6683 H   0  0  0  0  0  0  0  0  0  0  0  0
  1  2  2  0
  2  3  1  0
  3  4  1  0
  4  5  2  0
  5  6  1  0
  6  7  2  0
  7  8  1  0
  7  9  1  0
  9 10  2  0
 10 11  1  0
  2 12  1  0
 12 13  2  0
 13 14  1  0
 14 15  2  0
 15 16  1  0
 16 17  2  0
 17 18  1  0
 18 19  1  0
 19 20  2  0
 20 21  1  0
 21 22  2  0
 22 23  1  0
 22 24  1  0
 24 25  2  0
 25 26  1  0
 26 27  2  0
 26 28  1  0
 10  4  1  0
 17 12  1  0
 25 19  1  0
  5 29  1  0
  6 30  1  0
  9 31  1  0
 13 32  1  0
 14 33  1  0
 15 34  1  0
 16 35  1  0
 20 36  1  0
 21 37  1  0
 24 38  1  0
M  CHG  3   3  -1  26   1  28  -1
M  END
>  <UniqueID>  (89) 
80

>  <SMILES>  (89) 
O=C([N-]c1ccc(Br)cc1F)c1ccccc1Sc1ccc(F)cc1[N+](=O)[O-]

>  <Energy>  (89) 
51.32871675502776

>  <Genealogy>  (89) 
O=C([N-]c1ccc(Br)cc1F)c1ccccc1Sc1ccc(F)cc1[N+](=O)[O-] (protonated)
O=C([N-]c1ccc(Br)cc1F)c1ccccc1Sc1ccc(F)cc1[N+](=O)[O-] (3D coordinates assigned)
O=C([N-]c1ccc(Br)cc1F)c1ccccc1Sc1ccc(F)cc1[N+](=O)[O-] (optimized conformer: 51.32871675502776 kcal/mol)

>  <smiles>  (89) 
O=C(Nc1ccc(Br)cc1F)c1ccccc1Sc1ccc(F)cc1[N+](=O)[O-]

>  <score_type>  (89) 
oracle

>  <origin>  (89) 
adg

>  <m_score__min__energy>  (89) 
-10.58

>  <m_primary>  (89) 
energy

$$$$
89:0
     RDKit          3D

 37 38  0  0  0  0  0  0  0  0999 V2000
   64.5170   32.0850   46.8770 H   0  0  0  0  0  0  0  0  0  0  0  0
   63.7330   31.8380   47.4690 O   0  0  0  0  0  0  0  0  0  0  0  0
   62.4780   32.4170   47.2930 C   0  0  0  0  0  0  0  0  0  0  0  0
   61.3350   31.7300   47.7120 C   0  0  0  0  0  0  0  0  0  0  0  0
   61.4328   30.7441   48.1900 H   0  0  0  0  0  0  0  0  0  0  0  0
   60.0680   32.2910   47.5260 C   0  0  0  0  0  0  0  0  0  0  0  0
   59.1734   31.7461   47.8618 H   0  0  0  0  0  0  0  0  0  0  0  0
   59.9320   33.5480   46.9120 C   0  0  0  0  0  0  0  0  0  0  0  0
   58.5620   34.1140   46.6320 C   0  0  0  0  0  0  0  0  0  0  0  0
   58.6562   34.9115   45.8803 H   0  0  0  0  0  0  0  0  0  0  0  0
   58.1582   34.4990   47.5800 H   0  0  0  0  0  0  0  0  0  0  0  0
   57.5850   33.0510   46.1040 C   0  0  0  0  0  0  0  0  0  0  0  0
   56.6576   33.5497   45.7857 H   0  0  0  0  0  0  0  0  0  0  0  0
   57.3965   32.3336   46.9163 H   0  0  0  0  0  0  0  0  0  0  0  0
   58.1510   32.2850   44.9330 C   0  0  0  0  0  0  0  0  0  0  0  0
   58.8200   32.9140   44.0680 O   0  0  0  0  0  0  0  0  0  0  0  0
   58.0620   30.8070   44.8350 C   0  0  0  0  0  0  0  0  0  0  0  0
   59.2510   30.0620   44.8040 C   0  0  0  0  0  0  0  0  0  0  0  0
   60.2186   30.5833   44.7587 H   0  0  0  0  0  0  0  0  0  0  0  0
   59.2190   28.6660   44.8300 C   0  0  0  0  0  0  0  0  0  0  0  0
   60.1607   28.0975   44.8255 H   0  0  0  0  0  0  0  0  0  0  0  0
   57.9890   27.9820   44.8620 C   0  0  0  0  0  0  0  0  0  0  0  0
   57.9000   26.5030   44.9440 C   0  0  0  0  0  0  0  0  0  0  0  0
   58.2028   25.9164   44.0641 H   0  0  0  0  0  0  0  0  0  0  0  0
   57.4720   25.8400   46.0280 C   0  0  0  0  0  0  0  0  0  0  0  0
   58.2151   25.3895   46.7024 H   0  0  0  0  0  0  0  0  0  0  0  0
   56.0430   25.6940   46.3470 C   0  0  0  0  0  0  0  0  0  0  0  0
   55.6060   24.6630   46.9260 O   0  0  0  0  0  0  0  0  0  0  0  0
   55.1580   26.7050   45.9960 O   0  0  0  0  0  0  0  0  0  0  0  0
   56.8010   28.7260   44.8570 C   0  0  0  0  0  0  0  0  0  0  0  0
   55.8334   28.2032   44.8786 H   0  0  0  0  0  0  0  0  0  0  0  0
   56.8290   30.1230   44.8250 C   0  0  0  0  0  0  0  0  0  0  0  0
   55.6240   30.8140   44.7650 O   0  0  0  0  0  0  0  0  0  0  0  0
   61.0860   34.2450   46.5140 C   0  0  0  0  0  0  0  0  0  0  0  0
   60.9930   35.2401   46.0546 H   0  0  0  0  0  0  0  0  0  0  0  0
   62.3510   33.6800   46.6990 C   0  0  0  0  0  0  0  0  0  0  0  0
   63.2490   34.2280   46.3776 H   0  0  0  0  0  0  0  0  0  0  0  0
  1  2  1  0
  2  3  1  0
  3  4  2  0
  4  5  1  0
  4  6  1  0
  6  7  1  0
  6  8  2  0
  8  9  1  0
  9 10  1  0
  9 11  1  0
  9 12  1  0
 12 13  1  0
 12 14  1  0
 12 15  1  0
 15 16  2  0
 15 17  1  0
 17 18  2  0
 18 19  1  0
 18 20  1  0
 20 21  1  0
 20 22  2  0
 22 23  1  0
 23 24  1  0
 23 25  2  0
 25 26  1  0
 25 27  1  0
 27 28  2  0
 27 29  1  0
 22 30  1  0
 30 31  1  0
 30 32  2  0
 32 33  1  0
  8 34  1  0
 34 35  1  0
 34 36  2  0
 36 37  1  0
 36  3  1  0
 32 17  1  0
M  CHG  2  29  -1  33  -1
M  END
>  <UniqueID>  (90) 
81

>  <SMILES>  (90) 
O=C([O-])/C=C/c1ccc(C(=O)CCc2ccc(O)cc2)c([O-])c1

>  <Energy>  (90) 
38.7113248742371

>  <Genealogy>  (90) 
O=C([O-])C=Cc1ccc(C(=O)CCc2ccc(O)cc2)c([O-])c1 (protonated)
O=C([O-])/C=C/c1ccc(C(=O)CCc2ccc(O)cc2)c([O-])c1 (cis-trans isomerization)
O=C([O-])/C=C/c1ccc(C(=O)CCc2ccc(O)cc2)c([O-])c1 (3D coordinates assigned)
O=C([O-])/C=C/c1ccc(C(=O)CCc2ccc(O)cc2)c([O-])c1 (optimized conformer: 38.7113248742371 kcal/mol)

>  <smiles>  (90) 
O=C(O)C=Cc1ccc(C(=O)CCc2ccc(O)cc2)c(O)c1

>  <score_type>  (90) 
oracle

>  <origin>  (90) 
adg

>  <m_score__min__energy>  (90) 
-13.140000000000001

>  <m_primary>  (90) 
energy

$$$$
