0:0
     RDKit          3D

 59 61  0  0  0  0  0  0  0  0999 V2000
   65.2170   32.6970   49.8550 C   0  0  0  0  0  0  0  0  0  0  0  0
   64.4420   32.1860   48.7740 O   0  0  0  0  0  0  0  0  0  0  0  0
   63.2970   32.8090   48.2580 C   0  0  0  0  0  0  0  0  0  0  0  0
   62.1550   33.0610   49.0430 C   0  0  0  0  0  0  0  0  0  0  0  0
   61.0380   33.6880   48.4810 C   0  0  0  0  0  0  0  0  0  0  0  0
   61.0450   34.0680   47.1340 C   0  0  0  0  0  0  0  0  0  0  0  0
   59.6360   34.8660   46.4430 S   0  0  0  0  0  0  0  0  0  0  0  0
   58.5600   34.9430   47.4900 O   0  0  0  0  0  0  0  0  0  0  0  0
   59.9750   36.2610   45.9940 O   0  0  0  0  0  0  0  0  0  0  0  0
   59.0450   33.9600   45.0830 N   0  0  0  0  0  0  0  0  0  0  0  0
   58.8720   32.5320   45.0820 C   0  0  0  0  0  0  0  0  0  0  0  0
   58.3760   31.9040   43.9300 C   0  0  0  0  0  0  0  0  0  0  0  0
   58.2140   30.5170   43.8870 C   0  0  0  0  0  0  0  0  0  0  0  0
   58.5390   29.7250   45.0020 C   0  0  0  0  0  0  0  0  0  0  0  0
   58.3970   28.2450   44.9480 C   0  0  0  0  0  0  0  0  0  0  0  0
   57.9460   27.6150   43.7730 C   0  0  0  0  0  0  0  0  0  0  0  0
   57.7940   26.2260   43.7280 C   0  0  0  0  0  0  0  0  0  0  0  0
   58.0900   25.4470   44.8510 C   0  0  0  0  0  0  0  0  0  0  0  0
   57.8510   23.7010   44.8240 S   0  0  0  0  0  0  0  0  0  0  0  0
   57.7750   23.2090   43.4050 O   0  0  0  0  0  0  0  0  0  0  0  0
   59.0210   23.0380   45.4970 O   0  0  0  0  0  0  0  0  0  0  0  0
   56.3880   23.2730   45.6660 N   0  0  0  0  0  0  0  0  0  0  0  0
   55.2500   24.0780   45.2040 C   0  0  2  0  0  0  0  0  0  0  0  0
   55.2240   25.3680   45.9770 C   0  0  0  0  0  0  0  0  0  0  0  0
   54.4580   26.3040   45.6250 O   0  0  0  0  0  0  0  0  0  0  0  0
   56.0320   25.5260   47.0970 O   0  0  0  0  0  0  0  0  0  0  0  0
   53.9350   23.2840   45.4070 C   0  0  0  0  0  0  0  0  0  0  0  0
   53.7130   22.9310   46.8880 C   0  0  0  0  0  0  0  0  0  0  0  0
   52.7260   24.0780   44.8870 C   0  0  0  0  0  0  0  0  0  0  0  0
   58.5390   26.0670   46.0230 C   0  0  0  0  0  0  0  0  0  0  0  0
   58.6950   27.4540   46.0720 C   0  0  0  0  0  0  0  0  0  0  0  0
   59.0180   30.3550   46.1630 C   0  0  0  0  0  0  0  0  0  0  0  0
   59.1860   31.7430   46.2030 C   0  0  0  0  0  0  0  0  0  0  0  0
   62.1790   33.8180   46.3500 C   0  0  0  0  0  0  0  0  0  0  0  0
   63.2960   33.1920   46.9110 C   0  0  0  0  0  0  0  0  0  0  0  0
   64.7596   32.3954   50.8088 H   0  0  0  0  0  0  0  0  0  0  0  0
   66.2393   32.2952   49.7953 H   0  0  0  0  0  0  0  0  0  0  0  0
   65.2505   33.7949   49.7953 H   0  0  0  0  0  0  0  0  0  0  0  0
   62.1415   32.7636   50.1020 H   0  0  0  0  0  0  0  0  0  0  0  0
   60.1502   33.8833   49.1004 H   0  0  0  0  0  0  0  0  0  0  0  0
   58.8540   34.4940   44.2050 H   0  0  0  0  0  0  0  0  0  0  0  0
   58.1117   32.5101   43.0509 H   0  0  0  0  0  0  0  0  0  0  0  0
   57.8290   30.0408   42.9732 H   0  0  0  0  0  0  0  0  0  0  0  0
   57.7116   28.2194   42.8843 H   0  0  0  0  0  0  0  0  0  0  0  0
   57.4399   25.7436   42.8050 H   0  0  0  0  0  0  0  0  0  0  0  0
   55.3517   24.3046   44.1324 H   0  0  0  0  0  0  0  0  0  0  0  0
   54.0309   22.3514   44.8317 H   0  0  0  0  0  0  0  0  0  0  0  0
   54.1915   23.6919   47.5220 H   0  0  0  0  0  0  0  0  0  0  0  0
   52.6341   22.9025   47.1004 H   0  0  0  0  0  0  0  0  0  0  0  0
   54.1547   21.9462   47.1004 H   0  0  0  0  0  0  0  0  0  0  0  0
   52.1443   24.4600   45.7389 H   0  0  0  0  0  0  0  0  0  0  0  0
   53.0773   24.9218   44.2750 H   0  0  0  0  0  0  0  0  0  0  0  0
   52.0912   23.4204   44.2750 H   0  0  0  0  0  0  0  0  0  0  0  0
   58.7701   25.4587   46.9099 H   0  0  0  0  0  0  0  0  0  0  0  0
   59.0534   27.9310   46.9961 H   0  0  0  0  0  0  0  0  0  0  0  0
   59.2632   29.7508   47.0489 H   0  0  0  0  0  0  0  0  0  0  0  0
   59.5664   32.2209   47.1178 H   0  0  0  0  0  0  0  0  0  0  0  0
   62.1904   34.1149   45.2909 H   0  0  0  0  0  0  0  0  0  0  0  0
   64.1822   32.9985   46.2887 H   0  0  0  0  0  0  0  0  0  0  0  0
  1  2  1  0
  2  3  1  0
  3  4  2  0
  4  5  1  0
  5  6  2  0
  6  7  1  0
  7  8  2  0
  7  9  2  0
  7 10  1  0
 10 11  1  0
 11 12  2  0
 12 13  1  0
 13 14  2  0
 14 15  1  0
 15 16  2  0
 16 17  1  0
 17 18  2  0
 18 19  1  0
 19 20  2  0
 19 21  2  0
 19 22  1  0
 22 23  1  0
 23 24  1  0
 24 25  2  0
 24 26  1  0
 23 27  1  0
 27 28  1  0
 27 29  1  0
 18 30  1  0
 30 31  2  0
 14 32  1  0
 32 33  2  0
  6 34  1  0
 34 35  2  0
 35  3  1  0
 33 11  1  0
 31 15  1  0
  1 36  1  0
  1 37  1  0
  1 38  1  0
  4 39  1  0
  5 40  1  0
 10 41  1  0
 12 42  1  0
 13 43  1  0
 16 44  1  0
 17 45  1  0
 23 46  1  6
 27 47  1  0
 28 48  1  0
 28 49  1  0
 28 50  1  0
 29 51  1  0
 29 52  1  0
 29 53  1  0
 30 54  1  0
 31 55  1  0
 32 56  1  0
 33 57  1  0
 34 58  1  0
 35 59  1  0
M  CHG  2  22  -1  26  -1
M  END
>  <UniqueID>  (1) 
1

>  <SMILES>  (1) 
COc1ccc(S(=O)(=O)Nc2ccc(-c3ccc(S(=O)(=O)[N-][C@H](C(=O)[O-])C(C)C)cc3)cc2)cc1

>  <Energy>  (1) 
62.5998124098745

>  <Genealogy>  (1) 
COc1ccc(S(=O)(=O)Nc2ccc(-c3ccc(S(=O)(=O)[N-]C(C(=O)[O-])C(C)C)cc3)cc2)cc1 (protonated)
COc1ccc(S(=O)(=O)Nc2ccc(-c3ccc(S(=O)(=O)[N-][C@H](C(=O)[O-])C(C)C)cc3)cc2)cc1 (chirality)
COc1ccc(S(=O)(=O)Nc2ccc(-c3ccc(S(=O)(=O)[N-][C@H](C(=O)[O-])C(C)C)cc3)cc2)cc1 (3D coordinates assigned)
COc1ccc(S(=O)(=O)Nc2ccc(-c3ccc(S(=O)(=O)[N-][C@H](C(=O)[O-])C(C)C)cc3)cc2)cc1 (optimized conformer: 62.5998124098745 kcal/mol)

>  <smiles>  (1) 
COc1ccc(S(=O)(=O)Nc2ccc(-c3ccc(S(=O)(=O)NC(C(=O)O)C(C)C)cc3)cc2)cc1

>  <score_type>  (1) 
oracle

>  <origin>  (1) 
adg

>  <m_score__min__energy>  (1) 
-13.34

>  <m_primary>  (1) 
energy

$$$$
1:0
     RDKit          3D

 19 19  0  0  0  0  0  0  0  0999 V2000
   57.4810   26.8170   45.6750 C   0  0  0  0  0  0  0  0  0  0  0  0
   57.1350   25.7800   46.6990 C   0  0  0  0  0  0  0  0  0  0  0  0
   57.6790   25.8480   47.8340 O   0  0  0  0  0  0  0  0  0  0  0  0
   56.1600   24.6940   46.4180 C   0  0  0  0  0  0  0  0  0  0  0  0
   56.4860   23.3430   46.6550 C   0  0  0  0  0  0  0  0  0  0  0  0
   57.7410   22.9800   47.1310 O   0  0  0  0  0  0  0  0  0  0  0  0
   55.5560   22.3380   46.3900 C   0  0  0  0  0  0  0  0  0  0  0  0
   54.2980   22.6490   45.8750 C   0  0  0  0  0  0  0  0  0  0  0  0
   53.4060   21.6110   45.6240 O   0  0  0  0  0  0  0  0  0  0  0  0
   53.9480   23.9910   45.6160 C   0  0  0  0  0  0  0  0  0  0  0  0
   52.6200   24.3550   45.0650 C   0  0  0  0  0  0  0  0  0  0  0  0
   51.9310   23.5350   44.4020 O   0  0  0  0  0  0  0  0  0  0  0  0
   54.8870   25.0090   45.8910 C   0  0  0  0  0  0  0  0  0  0  0  0
   54.5470   26.3400   45.6600 O   0  0  0  0  0  0  0  0  0  0  0  0
   57.7901   27.7434   46.1812 H   0  0  0  0  0  0  0  0  0  0  0  0
   58.3055   26.4503   45.0459 H   0  0  0  0  0  0  0  0  0  0  0  0
   56.6015   27.0188   45.0459 H   0  0  0  0  0  0  0  0  0  0  0  0
   55.8178   21.2884   46.5895 H   0  0  0  0  0  0  0  0  0  0  0  0
   52.2266   25.3672   45.2398 H   0  0  0  0  0  0  0  0  0  0  0  0
  1  2  1  0
  2  3  2  0
  2  4  1  0
  4  5  2  0
  5  6  1  0
  5  7  1  0
  7  8  2  0
  8  9  1  0
  8 10  1  0
 10 11  1  0
 11 12  2  0
 10 13  2  0
 13 14  1  0
 13  4  1  0
  1 15  1  0
  1 16  1  0
  1 17  1  0
  7 18  1  0
 11 19  1  0
M  CHG  3   6  -1   9  -1  14  -1
M  END
>  <UniqueID>  (2) 
2

>  <SMILES>  (2) 
CC(=O)c1c([O-])cc([O-])c(C=O)c1[O-]

>  <Energy>  (2) 
25.16342271824494

>  <Genealogy>  (2) 
CC(=O)c1c([O-])cc([O-])c(C=O)c1[O-] (protonated)
CC(=O)c1c([O-])cc([O-])c(C=O)c1[O-] (3D coordinates assigned)
CC(=O)c1c([O-])cc([O-])c(C=O)c1[O-] (optimized conformer: 25.16342271824494 kcal/mol)

>  <smiles>  (2) 
CC(=O)c1c(O)cc(O)c(C=O)c1O

>  <score_type>  (2) 
oracle

>  <origin>  (2) 
adg

>  <m_score__min__energy>  (2) 
-11.74

>  <m_primary>  (2) 
energy

$$$$
2:0
     RDKit          3D

 18 18  0  0  0  0  0  0  0  0999 V2000
   59.5381   35.0407   46.9488 H   0  0  0  0  0  0  0  0  0  0  0  0
   58.9210   34.2910   46.4320 C   0  0  0  0  0  0  0  0  0  0  0  0
   58.5070   34.5060   45.1570 N   0  0  0  0  0  0  0  0  0  0  0  0
   57.7440   33.5930   44.5020 C   0  0  0  0  0  0  0  0  0  0  0  0
   57.4179   33.7854   43.4692 H   0  0  0  0  0  0  0  0  0  0  0  0
   57.3740   32.4060   45.1460 C   0  0  0  0  0  0  0  0  0  0  0  0
   56.6420   31.5440   44.5000 N   0  0  0  0  0  0  0  0  0  0  0  0
   56.6100   29.8270   44.7600 S   0  0  0  0  0  0  0  0  0  0  0  0
   55.1890   29.3520   44.8710 O   0  0  0  0  0  0  0  0  0  0  0  0
   57.3670   29.4840   46.0120 O   0  0  0  0  0  0  0  0  0  0  0  0
   57.3840   29.0240   43.3770 C   0  0  0  0  0  0  0  0  0  0  0  0
   58.1040   28.2770   43.7426 H   0  0  0  0  0  0  0  0  0  0  0  0
   56.6170   28.5256   42.7661 H   0  0  0  0  0  0  0  0  0  0  0  0
   57.9103   29.7722   42.7661 H   0  0  0  0  0  0  0  0  0  0  0  0
   57.7930   32.1920   46.4320 N   0  0  0  0  0  0  0  0  0  0  0  0
   57.5420   31.3240   46.9530 H   0  0  0  0  0  0  0  0  0  0  0  0
   58.5570   33.1110   47.0810 C   0  0  0  0  0  0  0  0  0  0  0  0
   58.8867   32.9246   48.1137 H   0  0  0  0  0  0  0  0  0  0  0  0
  1  2  1  0
  2  3  1  0
  3  4  2  0
  4  5  1  0
  4  6  1  0
  6  7  2  0
  7  8  1  0
  8  9  2  0
  8 10  2  0
  8 11  1  0
 11 12  1  0
 11 13  1  0
 11 14  1  0
  6 15  1  0
 15 16  1  0
 15 17  1  0
 17 18  1  0
 17  2  2  0
M  END
>  <UniqueID>  (3) 
3

>  <SMILES>  (3) 
CS(=O)(=O)/N=c1/cncc[nH]1

>  <Energy>  (3) 
18.342572824905073

>  <Genealogy>  (3) 
CS(=O)(=O)/N=c1/cncc[nH]1 (cis-trans isomerization)
CS(=O)(=O)/N=c1/cncc[nH]1 (3D coordinates assigned)
CS(=O)(=O)/N=c1/cncc[nH]1 (optimized conformer: 18.342572824905073 kcal/mol)

>  <smiles>  (3) 
CS(=O)(=O)N=c1cncc[nH]1

>  <score_type>  (3) 
oracle

>  <origin>  (3) 
adg

>  <m_score__min__energy>  (3) 
-5.2599999999999998

>  <m_primary>  (3) 
energy

$$$$
3:0
     RDKit          3D

 49 52  0  0  0  0  0  0  0  0999 V2000
   53.4020   24.5330   45.5590 C   0  0  0  0  0  0  0  0  0  0  0  0
   54.7210   25.0440   45.7110 O   0  0  0  0  0  0  0  0  0  0  0  0
   55.8870   24.3840   45.2860 C   0  0  0  0  0  0  0  0  0  0  0  0
   55.9310   23.6570   44.0790 C   0  0  0  0  0  0  0  0  0  0  0  0
   57.1030   23.0080   43.6870 C   0  0  0  0  0  0  0  0  0  0  0  0
   58.2420   23.0740   44.4890 C   0  0  0  0  0  0  0  0  0  0  0  0
   58.2140   23.7910   45.6870 C   0  0  0  0  0  0  0  0  0  0  0  0
   57.0420   24.4530   46.0920 C   0  0  0  0  0  0  0  0  0  0  0  0
   57.0210   25.2060   47.3970 C   0  0  0  0  0  0  0  0  0  0  0  0
   57.4000   26.6020   47.1850 N   0  0  0  0  0  0  0  0  0  0  0  0
   58.7190   27.0910   47.4660 C   0  0  0  0  0  0  0  0  0  0  0  0
   59.6250   26.2960   47.8370 O   0  0  0  0  0  0  0  0  0  0  0  0
   59.0300   28.5210   47.3250 C   0  0  0  0  0  0  0  0  0  0  0  0
   58.2790   29.3860   46.6100 N   0  0  0  0  0  0  0  0  0  0  0  0
   58.9380   30.5480   46.7860 C   0  0  0  0  0  0  0  0  0  0  0  0
   58.4530   31.8280   46.2330 C   0  0  0  0  0  0  0  0  0  0  0  0
   58.6190   32.9980   46.9900 C   0  0  0  0  0  0  0  0  0  0  0  0
   58.1570   34.2250   46.5060 C   0  0  0  0  0  0  0  0  0  0  0  0
   57.5400   34.2950   45.2560 C   0  0  0  0  0  0  0  0  0  0  0  0
   57.3920   33.1420   44.4820 C   0  0  0  0  0  0  0  0  0  0  0  0
   57.8510   31.9070   44.9580 C   0  0  0  0  0  0  0  0  0  0  0  0
   57.7200   30.5030   43.9040 Cl  0  0  0  0  0  0  0  0  0  0  0  0
   60.0370   30.3830   47.5560 N   0  0  0  0  0  0  0  0  0  0  0  0
   61.0390   31.3480   47.9250 C   0  0  0  0  0  0  0  0  0  0  0  0
   62.1800   31.5110   47.1220 C   0  0  0  0  0  0  0  0  0  0  0  0
   63.1610   32.4470   47.4670 C   0  0  0  0  0  0  0  0  0  0  0  0
   63.0040   33.2340   48.6100 C   0  0  0  0  0  0  0  0  0  0  0  0
   61.8640   33.0940   49.4050 C   0  0  0  0  0  0  0  0  0  0  0  0
   60.8810   32.1610   49.0630 C   0  0  0  0  0  0  0  0  0  0  0  0
   60.0940   29.1100   47.9050 N   0  0  0  0  0  0  0  0  0  0  0  0
   52.9587   24.3613   46.5510 H   0  0  0  0  0  0  0  0  0  0  0  0
   52.7893   25.2588   45.0042 H   0  0  0  0  0  0  0  0  0  0  0  0
   53.4382   23.5838   45.0042 H   0  0  0  0  0  0  0  0  0  0  0  0
   55.0360   23.6008   43.4420 H   0  0  0  0  0  0  0  0  0  0  0  0
   57.1282   22.4432   42.7434 H   0  0  0  0  0  0  0  0  0  0  0  0
   59.1636   22.5606   44.1775 H   0  0  0  0  0  0  0  0  0  0  0  0
   59.1143   23.8380   46.3173 H   0  0  0  0  0  0  0  0  0  0  0  0
   56.0074   25.1660   47.8224 H   0  0  0  0  0  0  0  0  0  0  0  0
   57.7394   24.7419   48.0888 H   0  0  0  0  0  0  0  0  0  0  0  0
   56.6760   27.2590   46.8180 H   0  0  0  0  0  0  0  0  0  0  0  0
   59.1157   32.9490   47.9702 H   0  0  0  0  0  0  0  0  0  0  0  0
   58.2797   35.1359   47.1104 H   0  0  0  0  0  0  0  0  0  0  0  0
   57.1696   35.2601   44.8798 H   0  0  0  0  0  0  0  0  0  0  0  0
   56.9127   33.2039   43.4938 H   0  0  0  0  0  0  0  0  0  0  0  0
   62.3030   30.8989   46.2163 H   0  0  0  0  0  0  0  0  0  0  0  0
   64.0559   32.5630   46.8380 H   0  0  0  0  0  0  0  0  0  0  0  0
   63.7789   33.9649   48.8845 H   0  0  0  0  0  0  0  0  0  0  0  0
   61.7397   33.7190   50.3016 H   0  0  0  0  0  0  0  0  0  0  0  0
   59.9799   32.0617   49.6860 H   0  0  0  0  0  0  0  0  0  0  0  0
  1  2  1  0
  2  3  1  0
  3  4  2  0
  4  5  1  0
  5  6  2  0
  6  7  1  0
  7  8  2  0
  8  9  1  0
  9 10  1  0
 10 11  1  0
 11 12  2  0
 11 13  1  0
 13 14  1  0
 14 15  2  0
 15 16  1  0
 16 17  2  0
 17 18  1  0
 18 19  2  0
 19 20  1  0
 20 21  2  0
 21 22  1  0
 15 23  1  0
 23 24  1  0
 24 25  2  0
 25 26  1  0
 26 27  2  0
 27 28  1  0
 28 29  2  0
 23 30  1  0
  8  3  1  0
 30 13  2  0
 21 16  1  0
 29 24  1  0
  1 31  1  0
  1 32  1  0
  1 33  1  0
  4 34  1  0
  5 35  1  0
  6 36  1  0
  7 37  1  0
  9 38  1  0
  9 39  1  0
 10 40  1  0
 17 41  1  0
 18 42  1  0
 19 43  1  0
 20 44  1  0
 25 45  1  0
 26 46  1  0
 27 47  1  0
 28 48  1  0
 29 49  1  0
M  END
>  <UniqueID>  (4) 
4

>  <SMILES>  (4) 
COc1ccccc1CNC(=O)c1nc(-c2ccccc2Cl)n(-c2ccccc2)n1

>  <Energy>  (4) 
93.5357810897707

>  <Genealogy>  (4) 
COc1ccccc1CNC(=O)c1nc(-c2ccccc2Cl)n(-c2ccccc2)n1 (3D coordinates assigned)
COc1ccccc1CNC(=O)c1nc(-c2ccccc2Cl)n(-c2ccccc2)n1 (optimized conformer: 93.5357810897707 kcal/mol)

>  <smiles>  (4) 
COc1ccccc1CNC(=O)c1nc(-c2ccccc2Cl)n(-c2ccccc2)n1

>  <score_type>  (4) 
oracle

>  <origin>  (4) 
adg

>  <m_score__min__energy>  (4) 
-8.3000000000000007

>  <m_primary>  (4) 
energy

$$$$
4:0
     RDKit          3D

 38 39  0  0  0  0  0  0  0  0999 V2000
   56.2220   25.1130   46.7430 O   0  0  0  0  0  0  0  0  0  0  0  0
   55.8030   26.1650   46.1900 C   0  0  0  0  0  0  0  0  0  0  0  0
   54.4420   26.3330   45.9720 O   0  0  0  0  0  0  0  0  0  0  0  0
   56.7700   27.2020   45.7190 C   0  0  0  0  0  0  0  0  0  0  0  0
   56.0440   28.4140   45.3400 N   0  0  0  0  0  0  0  0  0  0  0  0
   56.9590   29.3040   44.1610 S   0  0  0  0  0  0  0  0  0  0  0  0
   58.0780   28.4420   43.6490 O   0  0  0  0  0  0  0  0  0  0  0  0
   56.0740   29.6690   43.0010 O   0  0  0  0  0  0  0  0  0  0  0  0
   57.6410   30.7610   44.8830 C   0  0  0  0  0  0  0  0  0  0  0  0
   57.0830   32.0110   44.5860 C   0  0  0  0  0  0  0  0  0  0  0  0
   57.6270   33.1750   45.1380 C   0  0  0  0  0  0  0  0  0  0  0  0
   58.7320   33.0980   46.0010 C   0  0  0  0  0  0  0  0  0  0  0  0
   59.3270   34.3200   46.5770 C   0  0  0  0  0  0  0  0  0  0  0  0
   59.9530   35.1110   45.8230 O   0  0  0  0  0  0  0  0  0  0  0  0
   59.2480   34.6210   47.9760 N   0  0  0  0  0  0  0  0  0  0  0  0
   60.0310   33.9640   49.0160 C   0  0  0  0  0  0  0  0  0  0  0  0
   61.2620   33.3630   48.4030 C   0  0  0  0  0  0  0  0  0  0  0  0
   61.4680   31.9730   48.4450 C   0  0  0  0  0  0  0  0  0  0  0  0
   62.5980   31.4110   47.8440 C   0  0  0  0  0  0  0  0  0  0  0  0
   63.5240   32.2280   47.1890 C   0  0  0  0  0  0  0  0  0  0  0  0
   63.3180   33.6090   47.1290 C   0  0  0  0  0  0  0  0  0  0  0  0
   62.1890   34.1760   47.7290 C   0  0  0  0  0  0  0  0  0  0  0  0
   59.3080   31.8480   46.2710 C   0  0  0  0  0  0  0  0  0  0  0  0
   58.7620   30.6850   45.7190 C   0  0  0  0  0  0  0  0  0  0  0  0
   57.4776   27.4370   46.5278 H   0  0  0  0  0  0  0  0  0  0  0  0
   57.3209   26.8187   44.8475 H   0  0  0  0  0  0  0  0  0  0  0  0
   55.1520   28.1280   44.8740 H   0  0  0  0  0  0  0  0  0  0  0  0
   56.2133   32.0773   43.9158 H   0  0  0  0  0  0  0  0  0  0  0  0
   57.1879   34.1540   44.8954 H   0  0  0  0  0  0  0  0  0  0  0  0
   60.3224   34.7017   49.7782 H   0  0  0  0  0  0  0  0  0  0  0  0
   59.4291   33.1727   49.4868 H   0  0  0  0  0  0  0  0  0  0  0  0
   60.7377   31.3256   48.9524 H   0  0  0  0  0  0  0  0  0  0  0  0
   62.7589   30.3237   47.8866 H   0  0  0  0  0  0  0  0  0  0  0  0
   64.4148   31.7840   46.7208 H   0  0  0  0  0  0  0  0  0  0  0  0
   64.0447   34.2508   46.6093 H   0  0  0  0  0  0  0  0  0  0  0  0
   62.0261   35.2624   47.6731 H   0  0  0  0  0  0  0  0  0  0  0  0
   60.1936   31.7822   46.9202 H   0  0  0  0  0  0  0  0  0  0  0  0
   59.2144   29.7075   45.9421 H   0  0  0  0  0  0  0  0  0  0  0  0
  1  2  2  0
  2  3  1  0
  2  4  1  0
  4  5  1  0
  5  6  1  0
  6  7  2  0
  6  8  2  0
  6  9  1  0
  9 10  2  0
 10 11  1  0
 11 12  2  0
 12 13  1  0
 13 14  2  0
 13 15  1  0
 15 16  1  0
 16 17  1  0
 17 18  2  0
 18 19  1  0
 19 20  2  0
 20 21  1  0
 21 22  2  0
 12 23  1  0
 23 24  2  0
 24  9  1  0
 22 17  1  0
  4 25  1  0
  4 26  1  0
  5 27  1  0
 10 28  1  0
 11 29  1  0
 16 30  1  0
 16 31  1  0
 18 32  1  0
 19 33  1  0
 20 34  1  0
 21 35  1  0
 22 36  1  0
 23 37  1  0
 24 38  1  0
M  CHG  2   3  -1  15  -1
M  END
>  <UniqueID>  (5) 
5

>  <SMILES>  (5) 
O=C([O-])CNS(=O)(=O)c1ccc(C(=O)[N-]Cc2ccccc2)cc1

>  <Energy>  (5) 
38.06010313191042

>  <Genealogy>  (5) 
O=C([O-])CNS(=O)(=O)c1ccc(C(=O)[N-]Cc2ccccc2)cc1 (protonated)
O=C([O-])CNS(=O)(=O)c1ccc(C(=O)[N-]Cc2ccccc2)cc1 (3D coordinates assigned)
O=C([O-])CNS(=O)(=O)c1ccc(C(=O)[N-]Cc2ccccc2)cc1 (optimized conformer: 38.06010313191042 kcal/mol)

>  <smiles>  (5) 
O=C(O)CNS(=O)(=O)c1ccc(C(=O)NCc2ccccc2)cc1

>  <score_type>  (5) 
oracle

>  <origin>  (5) 
adg

>  <m_score__min__energy>  (5) 
-12.35

>  <m_primary>  (5) 
energy

$$$$
5:0
     RDKit          3D

 31 32  0  0  0  0  0  0  0  0999 V2000
   58.7040   31.0720   47.8650 N   0  0  0  0  0  0  0  0  0  0  0  0
   59.6370   32.0430   47.3730 C   0  0  0  0  0  0  0  0  0  0  0  0
   61.0060   31.8660   47.6250 C   0  0  0  0  0  0  0  0  0  0  0  0
   61.9400   32.7940   47.1550 C   0  0  0  0  0  0  0  0  0  0  0  0
   61.5140   33.9070   46.4270 C   0  0  0  0  0  0  0  0  0  0  0  0
   60.1550   34.0960   46.1690 C   0  0  0  0  0  0  0  0  0  0  0  0
   59.2100   33.1700   46.6340 C   0  0  0  0  0  0  0  0  0  0  0  0
   57.4760   33.4540   46.2530 S   0  0  0  0  0  0  0  0  0  0  0  0
   57.4020   32.0280   45.1780 C   0  0  0  0  0  0  0  0  0  0  0  0
   57.0950   30.7900   45.6110 N   0  0  0  0  0  0  0  0  0  0  0  0
   57.1580   29.8780   44.6030 C   0  0  0  0  0  0  0  0  0  0  0  0
   56.8990   28.4850   44.8200 N   0  0  0  0  0  0  0  0  0  0  0  0
   57.9010   27.5850   45.3860 C   0  0  0  0  0  0  0  0  0  0  0  0
   57.4020   26.9910   46.7070 C   0  0  0  0  0  0  0  0  0  0  0  0
   56.1600   26.1870   46.4850 C   0  0  0  0  0  0  0  0  0  0  0  0
   55.1410   26.7240   45.9750 O   0  0  0  0  0  0  0  0  0  0  0  0
   56.1120   24.8580   46.8860 O   0  0  0  0  0  0  0  0  0  0  0  0
   57.5090   30.3900   43.3580 C   0  0  0  0  0  0  0  0  0  0  0  0
   57.7620   32.0440   43.5380 S   0  0  0  0  0  0  0  0  0  0  0  0
   57.8810   30.7900   47.2880 H   0  0  0  0  0  0  0  0  0  0  0  0
   58.8120   30.6230   48.8000 H   0  0  0  0  0  0  0  0  0  0  0  0
   61.3469   30.9903   48.1968 H   0  0  0  0  0  0  0  0  0  0  0  0
   63.0110   32.6474   47.3587 H   0  0  0  0  0  0  0  0  0  0  0  0
   62.2501   34.6356   46.0564 H   0  0  0  0  0  0  0  0  0  0  0  0
   59.8237   34.9759   45.5980 H   0  0  0  0  0  0  0  0  0  0  0  0
   55.9530   28.1030   44.5930 H   0  0  0  0  0  0  0  0  0  0  0  0
   58.0990   26.7700   44.6743 H   0  0  0  0  0  0  0  0  0  0  0  0
   58.8232   28.1535   45.5769 H   0  0  0  0  0  0  0  0  0  0  0  0
   58.1828   26.3415   47.1295 H   0  0  0  0  0  0  0  0  0  0  0  0
   57.1741   27.8123   47.4023 H   0  0  0  0  0  0  0  0  0  0  0  0
   57.6041   29.8168   42.4240 H   0  0  0  0  0  0  0  0  0  0  0  0
  1  2  1  0
  2  3  2  0
  3  4  1  0
  4  5  2  0
  5  6  1  0
  6  7  2  0
  7  8  1  0
  8  9  1  0
  9 10  2  0
 10 11  1  0
 11 12  1  0
 12 13  1  0
 13 14  1  0
 14 15  1  0
 15 16  2  0
 15 17  1  0
 11 18  2  0
 18 19  1  0
  7  2  1  0
 19  9  1  0
  1 20  1  0
  1 21  1  0
  3 22  1  0
  4 23  1  0
  5 24  1  0
  6 25  1  0
 12 26  1  0
 13 27  1  0
 13 28  1  0
 14 29  1  0
 14 30  1  0
 18 31  1  0
M  CHG  1  17  -1
M  END
>  <UniqueID>  (6) 
6

>  <SMILES>  (6) 
Nc1ccccc1Sc1nc(NCCC(=O)[O-])cs1

>  <Energy>  (6) 
50.17983425737533

>  <Genealogy>  (6) 
Nc1ccccc1Sc1nc(NCCC(=O)[O-])cs1 (protonated)
Nc1ccccc1Sc1nc(NCCC(=O)[O-])cs1 (3D coordinates assigned)
Nc1ccccc1Sc1nc(NCCC(=O)[O-])cs1 (optimized conformer: 50.17983425737533 kcal/mol)

>  <smiles>  (6) 
Nc1ccccc1Sc1nc(NCCC(=O)O)cs1

>  <score_type>  (6) 
oracle

>  <origin>  (6) 
adg

>  <m_score__min__energy>  (6) 
-10

>  <m_primary>  (6) 
energy

$$$$
6:0
     RDKit          3D

 54 57  0  0  0  0  0  0  0  0999 V2000
   54.4800   30.1313   43.5901 H   0  0  0  0  0  0  0  0  0  0  0  0
   55.5090   29.9120   43.9110 C   0  0  0  0  0  0  0  0  0  0  0  0
   55.7360   28.9820   44.8780 N   0  0  0  0  0  0  0  0  0  0  0  0
   56.9890   28.6700   45.3100 C   0  0  0  0  0  0  0  0  0  0  0  0
   57.1160   27.7800   46.2530 N   0  0  0  0  0  0  0  0  0  0  0  0
   58.1640   26.8090   46.3970 C   0  0  0  0  0  0  0  0  0  0  0  0
   57.8800   25.5840   46.3150 O   0  0  0  0  0  0  0  0  0  0  0  0
   59.6030   27.2250   46.5310 C   0  0  0  0  0  0  0  0  0  0  0  0
   60.2290   26.3293   46.6572 H   0  0  0  0  0  0  0  0  0  0  0  0
   59.9025   27.7708   45.6241 H   0  0  0  0  0  0  0  0  0  0  0  0
   59.7800   28.1260   47.7240 C   0  0  0  0  0  0  0  0  0  0  0  0
   59.2960   29.4450   47.6880 C   0  0  0  0  0  0  0  0  0  0  0  0
   58.7993   29.8190   46.7806 H   0  0  0  0  0  0  0  0  0  0  0  0
   59.4410   30.2890   48.8000 C   0  0  0  0  0  0  0  0  0  0  0  0
   58.9050   31.6960   48.7650 C   0  0  0  0  0  0  0  0  0  0  0  0
   59.2961   32.2096   47.8743 H   0  0  0  0  0  0  0  0  0  0  0  0
   57.8063   31.6556   48.7300 H   0  0  0  0  0  0  0  0  0  0  0  0
   59.3230   32.4540   49.9960 C   0  0  0  0  0  0  0  0  0  0  0  0
   58.5900   32.4160   51.0210 O   0  0  0  0  0  0  0  0  0  0  0  0
   60.5580   33.1800   50.0550 N   0  0  0  0  0  0  0  0  0  0  0  0
   61.6090   33.1370   49.0810 C   0  0  0  0  0  0  0  0  0  0  0  0
   62.7830   32.3980   49.3130 C   0  0  0  0  0  0  0  0  0  0  0  0
   62.9119   31.8581   50.2627 H   0  0  0  0  0  0  0  0  0  0  0  0
   63.7860   32.3470   48.3420 C   0  0  0  0  0  0  0  0  0  0  0  0
   64.7089   31.7804   48.5350 H   0  0  0  0  0  0  0  0  0  0  0  0
   63.6190   33.0140   47.1270 C   0  0  0  0  0  0  0  0  0  0  0  0
   64.4112   32.9750   46.3648 H   0  0  0  0  0  0  0  0  0  0  0  0
   62.4460   33.7310   46.8790 C   0  0  0  0  0  0  0  0  0  0  0  0
   62.3105   34.2419   45.9143 H   0  0  0  0  0  0  0  0  0  0  0  0
   61.4370   33.8030   47.8570 C   0  0  0  0  0  0  0  0  0  0  0  0
   60.2430   34.5010   47.6230 O   0  0  0  0  0  0  0  0  0  0  0  0
   59.3050   34.1910   46.6280 C   0  0  0  0  0  0  0  0  0  0  0  0
   57.9700   33.8630   46.9390 C   0  0  0  0  0  0  0  0  0  0  0  0
   57.6350   33.8612   47.9868 H   0  0  0  0  0  0  0  0  0  0  0  0
   57.0710   33.5400   45.9190 C   0  0  0  0  0  0  0  0  0  0  0  0
   56.0281   33.2915   46.1651 H   0  0  0  0  0  0  0  0  0  0  0  0
   57.4940   33.5320   44.5870 C   0  0  0  0  0  0  0  0  0  0  0  0
   56.7837   33.2813   43.7854 H   0  0  0  0  0  0  0  0  0  0  0  0
   58.8210   33.8430   44.2740 C   0  0  0  0  0  0  0  0  0  0  0  0
   59.1551   33.8328   43.2260 H   0  0  0  0  0  0  0  0  0  0  0  0
   59.7240   34.1670   45.2920 C   0  0  0  0  0  0  0  0  0  0  0  0
   60.7686   34.4042   45.0418 H   0  0  0  0  0  0  0  0  0  0  0  0
   60.0460   29.7960   49.9660 C   0  0  0  0  0  0  0  0  0  0  0  0
   60.1505   30.4471   50.8464 H   0  0  0  0  0  0  0  0  0  0  0  0
   60.5160   28.4820   50.0130 C   0  0  0  0  0  0  0  0  0  0  0  0
   60.9927   28.1030   50.9291 H   0  0  0  0  0  0  0  0  0  0  0  0
   60.3830   27.6460   48.9000 C   0  0  0  0  0  0  0  0  0  0  0  0
   60.8380   26.3680   48.9730 F   0  0  0  0  0  0  0  0  0  0  0  0
   58.0920   29.3530   44.7520 C   0  0  0  0  0  0  0  0  0  0  0  0
   59.1124   29.1350   45.1003 H   0  0  0  0  0  0  0  0  0  0  0  0
   57.8780   30.3070   43.7550 C   0  0  0  0  0  0  0  0  0  0  0  0
   58.7322   30.8368   43.3081 H   0  0  0  0  0  0  0  0  0  0  0  0
   56.5810   30.5880   43.3260 C   0  0  0  0  0  0  0  0  0  0  0  0
   56.4050   31.3332   42.5363 H   0  0  0  0  0  0  0  0  0  0  0  0
  1  2  1  0
  2  3  1  0
  3  4  1  0
  4  5  2  0
  5  6  1  0
  6  7  2  0
  6  8  1  0
  8  9  1  0
  8 10  1  0
  8 11  1  0
 11 12  2  0
 12 13  1  0
 12 14  1  0
 14 15  1  0
 15 16  1  0
 15 17  1  0
 15 18  1  0
 18 19  2  0
 18 20  1  0
 20 21  1  0
 21 22  2  0
 22 23  1  0
 22 24  1  0
 24 25  1  0
 24 26  2  0
 26 27  1  0
 26 28  1  0
 28 29  1  0
 28 30  2  0
 30 31  1  0
 31 32  1  0
 32 33  2  0
 33 34  1  0
 33 35  1  0
 35 36  1  0
 35 37  2  0
 37 38  1  0
 37 39  1  0
 39 40  1  0
 39 41  2  0
 41 42  1  0
 14 43  2  0
 43 44  1  0
 43 45  1  0
 45 46  1  0
 45 47  2  0
 47 48  1  0
  4 49  1  0
 49 50  1  0
 49 51  2  0
 51 52  1  0
 51 53  1  0
 53 54  1  0
 53  2  2  0
 47 11  1  0
 30 21  1  0
 41 32  1  0
M  CHG  2   3  -1  20  -1
M  END
>  <UniqueID>  (7) 
7

>  <SMILES>  (7) 
O=C(Cc1cc(CC(=O)[N-]c2ccccc2Oc2ccccc2)ccc1F)/N=c1\cccc[n-]1

>  <Energy>  (7) 
78.33398584134792

>  <Genealogy>  (7) 
O=C(Cc1cc(CC(=O)[N-]c2ccccc2Oc2ccccc2)ccc1F)N=c1cccc[n-]1 (protonated)
O=C(Cc1cc(CC(=O)[N-]c2ccccc2Oc2ccccc2)ccc1F)/N=c1\cccc[n-]1 (cis-trans isomerization)
O=C(Cc1cc(CC(=O)[N-]c2ccccc2Oc2ccccc2)ccc1F)/N=c1\cccc[n-]1 (3D coordinates assigned)
O=C(Cc1cc(CC(=O)[N-]c2ccccc2Oc2ccccc2)ccc1F)/N=c1\cccc[n-]1 (optimized conformer: 78.33398584134792 kcal/mol)

>  <smiles>  (7) 
O=C(Cc1cc(CC(=O)Nc2ccccc2Oc2ccccc2)ccc1F)N=c1cccc[nH]1

>  <score_type>  (7) 
oracle

>  <origin>  (7) 
adg

>  <m_score__min__energy>  (7) 
-12.300000000000001

>  <m_primary>  (7) 
energy

$$$$
7:0
     RDKit          3D

 33 34  0  0  0  0  0  0  0  0999 V2000
   60.8480   33.4190   46.4420 C   0  0  0  0  0  0  0  0  0  0  0  0
   59.4400   34.5010   46.5630 S   0  0  0  0  0  0  0  0  0  0  0  0
   59.3350   34.9890   47.9810 O   0  0  0  0  0  0  0  0  0  0  0  0
   59.6080   35.6890   45.6560 O   0  0  0  0  0  0  0  0  0  0  0  0
   57.9860   33.6440   46.1580 N   0  0  0  0  0  0  0  0  0  0  0  0
   57.7990   32.8870   44.9470 C   0  0  0  0  0  0  0  0  0  0  0  0
   58.3670   33.2860   43.7220 C   0  0  0  0  0  0  0  0  0  0  0  0
   58.1580   32.5280   42.5670 C   0  0  0  0  0  0  0  0  0  0  0  0
   57.3860   31.3670   42.6180 C   0  0  0  0  0  0  0  0  0  0  0  0
   56.8140   30.9510   43.8290 C   0  0  0  0  0  0  0  0  0  0  0  0
   55.9780   29.6990   43.8780 C   0  0  0  0  0  0  0  0  0  0  0  0
   55.9660   29.1380   45.2300 N   0  0  0  0  0  0  0  0  0  0  0  0
   56.4340   27.8220   45.5730 C   0  0  0  0  0  0  0  0  0  0  0  0
   57.8010   27.5200   45.6800 C   0  0  0  0  0  0  0  0  0  0  0  0
   58.1750   26.2170   46.0140 C   0  0  0  0  0  0  0  0  0  0  0  0
   59.3930   25.9130   46.1150 O   0  0  0  0  0  0  0  0  0  0  0  0
   57.2240   25.2730   46.2320 N   0  0  0  0  0  0  0  0  0  0  0  0
   55.9050   25.5790   46.1310 C   0  0  0  0  0  0  0  0  0  0  0  0
   55.0370   24.6910   46.3390 O   0  0  0  0  0  0  0  0  0  0  0  0
   55.5210   26.8400   45.8070 N   0  0  0  0  0  0  0  0  0  0  0  0
   57.0140   31.7230   44.9850 C   0  0  0  0  0  0  0  0  0  0  0  0
   61.1940   33.1531   47.4518 H   0  0  0  0  0  0  0  0  0  0  0  0
   60.5628   32.5054   45.8997 H   0  0  0  0  0  0  0  0  0  0  0  0
   61.6574   33.9297   45.8997 H   0  0  0  0  0  0  0  0  0  0  0  0
   57.2410   33.6150   46.8890 H   0  0  0  0  0  0  0  0  0  0  0  0
   58.9784   34.1992   43.6740 H   0  0  0  0  0  0  0  0  0  0  0  0
   58.6039   32.8479   41.6137 H   0  0  0  0  0  0  0  0  0  0  0  0
   57.2253   30.7755   41.7046 H   0  0  0  0  0  0  0  0  0  0  0  0
   54.9476   29.9407   43.5781 H   0  0  0  0  0  0  0  0  0  0  0  0
   56.4111   28.9572   43.1909 H   0  0  0  0  0  0  0  0  0  0  0  0
   55.5480   29.7200   45.9910 H   0  0  0  0  0  0  0  0  0  0  0  0
   58.5621   28.2945   45.5042 H   0  0  0  0  0  0  0  0  0  0  0  0
   56.5498   31.4120   45.9325 H   0  0  0  0  0  0  0  0  0  0  0  0
  1  2  1  0
  2  3  2  0
  2  4  2  0
  2  5  1  0
  5  6  1  0
  6  7  2  0
  7  8  1  0
  8  9  2  0
  9 10  1  0
 10 11  1  0
 11 12  1  0
 12 13  1  0
 13 14  2  0
 14 15  1  0
 15 16  2  0
 15 17  1  0
 17 18  1  0
 18 19  2  0
 18 20  1  0
 10 21  2  0
 21  6  1  0
 20 13  1  0
  1 22  1  0
  1 23  1  0
  1 24  1  0
  5 25  1  0
  7 26  1  0
  8 27  1  0
  9 28  1  0
 11 29  1  0
 11 30  1  0
 12 31  1  0
 14 32  1  0
 21 33  1  0
M  CHG  2  17  -1  20  -1
M  END
>  <UniqueID>  (8) 
8

>  <SMILES>  (8) 
CS(=O)(=O)Nc1cccc(CNc2cc(=O)[n-]c(=O)[n-]2)c1

>  <Energy>  (8) 
32.26003916605798

>  <Genealogy>  (8) 
CS(=O)(=O)Nc1cccc(CNc2cc(=O)[n-]c(=O)[n-]2)c1 (protonated)
CS(=O)(=O)Nc1cccc(CNc2cc(=O)[n-]c(=O)[n-]2)c1 (3D coordinates assigned)
CS(=O)(=O)Nc1cccc(CNc2cc(=O)[n-]c(=O)[n-]2)c1 (optimized conformer: 32.26003916605798 kcal/mol)

>  <smiles>  (8) 
CS(=O)(=O)Nc1cccc(CNc2cc(=O)[nH]c(=O)[nH]2)c1

>  <score_type>  (8) 
oracle

>  <origin>  (8) 
adg

>  <m_score__min__energy>  (8) 
-11.67

>  <m_primary>  (8) 
energy

$$$$
8:0
     RDKit          3D

 66 69  0  0  0  0  0  0  0  0999 V2000
   55.1510   26.3730   45.9710 N   0  0  0  0  0  0  0  0  0  0  0  0
   56.8470   26.6660   45.8170 S   0  0  0  0  0  0  0  0  0  0  0  0
   57.4440   25.6730   44.8590 O   0  0  0  0  0  0  0  0  0  0  0  0
   57.5050   26.4990   47.1570 O   0  0  0  0  0  0  0  0  0  0  0  0
   57.1110   28.3010   45.2200 C   0  0  0  0  0  0  0  0  0  0  0  0
   56.0220   29.1120   44.8750 C   0  0  0  0  0  0  0  0  0  0  0  0
   56.2330   30.4080   44.3940 C   0  0  0  0  0  0  0  0  0  0  0  0
   57.5400   30.9050   44.2470 C   0  0  0  0  0  0  0  0  0  0  0  0
   57.7730   32.3200   43.7800 C   0  0  0  0  0  0  0  0  0  0  0  0
   57.5590   33.3230   44.9210 C   0  0  0  0  0  0  0  0  0  0  0  0
   58.5980   33.1970   45.9440 N   0  0  0  0  0  0  0  0  0  0  0  0
   59.6680   34.1470   46.0480 C   0  0  0  0  0  0  0  0  0  0  0  0
   59.5990   35.2320   45.4090 O   0  0  0  0  0  0  0  0  0  0  0  0
   60.8480   33.8800   46.9070 C   0  0  0  0  0  0  0  0  0  0  0  0
   62.1520   33.9310   46.3840 C   0  0  0  0  0  0  0  0  0  0  0  0
   63.2530   33.6700   47.2040 C   0  0  0  0  0  0  0  0  0  0  0  0
   63.0690   33.3630   48.5520 C   0  0  0  0  0  0  0  0  0  0  0  0
   61.7770   33.3210   49.0940 C   0  0  0  0  0  0  0  0  0  0  0  0
   61.5430   32.9220   50.7980 S   0  0  0  0  0  0  0  0  0  0  0  0
   61.0670   34.1450   51.5330 O   0  0  0  0  0  0  0  0  0  0  0  0
   60.4790   31.8660   50.9170 O   0  0  0  0  0  0  0  0  0  0  0  0
   63.0220   32.3520   51.5360 N   0  0  0  0  0  0  0  0  0  0  0  0
   63.5850   31.2220   50.7680 C   0  0  0  0  0  0  0  0  0  0  0  0
   65.0680   31.0270   51.0930 C   0  0  0  0  0  0  0  0  0  0  0  0
   65.8540   32.2110   50.6800 N   0  0  0  0  0  0  0  0  0  0  0  0
   67.2180   32.2520   51.2530 C   0  0  0  0  0  0  0  0  0  0  0  0
   67.9030   33.5980   51.1160 C   0  0  0  0  0  0  0  0  0  0  0  0
   68.7380   33.8610   50.0150 C   0  0  0  0  0  0  0  0  0  0  0  0
   69.3760   35.0980   49.8910 C   0  0  0  0  0  0  0  0  0  0  0  0
   69.1730   36.0900   50.8520 C   0  0  0  0  0  0  0  0  0  0  0  0
   68.3220   35.8510   51.9340 C   0  0  0  0  0  0  0  0  0  0  0  0
   67.6830   34.6140   52.0630 C   0  0  0  0  0  0  0  0  0  0  0  0
   65.1150   33.4960   50.7410 C   0  0  0  0  0  0  0  0  0  0  0  0
   63.9780   33.4610   51.7770 C   0  0  0  0  0  0  0  0  0  0  0  0
   60.6720   33.5910   48.2730 C   0  0  0  0  0  0  0  0  0  0  0  0
   58.6280   30.0880   44.5900 C   0  0  0  0  0  0  0  0  0  0  0  0
   58.4150   28.7920   45.0700 C   0  0  0  0  0  0  0  0  0  0  0  0
   54.7770   27.0870   46.6370 H   0  0  0  0  0  0  0  0  0  0  0  0
   54.9969   28.7278   44.9829 H   0  0  0  0  0  0  0  0  0  0  0  0
   55.3731   31.0411   44.1296 H   0  0  0  0  0  0  0  0  0  0  0  0
   58.8054   32.4108   43.4113 H   0  0  0  0  0  0  0  0  0  0  0  0
   57.0539   32.5453   42.9787 H   0  0  0  0  0  0  0  0  0  0  0  0
   57.5830   34.3431   44.5101 H   0  0  0  0  0  0  0  0  0  0  0  0
   56.5855   33.1135   45.3883 H   0  0  0  0  0  0  0  0  0  0  0  0
   58.5370   32.4230   46.6420 H   0  0  0  0  0  0  0  0  0  0  0  0
   62.3065   34.1778   45.3232 H   0  0  0  0  0  0  0  0  0  0  0  0
   64.2692   33.7068   46.7845 H   0  0  0  0  0  0  0  0  0  0  0  0
   63.9395   33.1534   49.1910 H   0  0  0  0  0  0  0  0  0  0  0  0
   63.0363   30.3036   51.0238 H   0  0  0  0  0  0  0  0  0  0  0  0
   63.4859   31.4419   49.6948 H   0  0  0  0  0  0  0  0  0  0  0  0
   65.1835   30.8769   52.1766 H   0  0  0  0  0  0  0  0  0  0  0  0
   65.4377   30.1481   50.5445 H   0  0  0  0  0  0  0  0  0  0  0  0
   67.1516   32.0047   52.3228 H   0  0  0  0  0  0  0  0  0  0  0  0
   67.8230   31.5274   50.6882 H   0  0  0  0  0  0  0  0  0  0  0  0
   68.8897   33.0882   49.2470 H   0  0  0  0  0  0  0  0  0  0  0  0
   70.0392   35.2904   49.0348 H   0  0  0  0  0  0  0  0  0  0  0  0
   69.6831   37.0600   50.7574 H   0  0  0  0  0  0  0  0  0  0  0  0
   68.1545   36.6369   52.6852 H   0  0  0  0  0  0  0  0  0  0  0  0
   67.0044   34.4346   52.9100 H   0  0  0  0  0  0  0  0  0  0  0  0
   65.8181   34.2970   51.0130 H   0  0  0  0  0  0  0  0  0  0  0  0
   64.6673   33.6766   49.7526 H   0  0  0  0  0  0  0  0  0  0  0  0
   64.4169   33.3369   52.7780 H   0  0  0  0  0  0  0  0  0  0  0  0
   63.4210   34.4059   51.6932 H   0  0  0  0  0  0  0  0  0  0  0  0
   59.6587   33.5767   48.7009 H   0  0  0  0  0  0  0  0  0  0  0  0
   59.6541   30.4691   44.4807 H   0  0  0  0  0  0  0  0  0  0  0  0
   59.2737   28.1559   45.3307 H   0  0  0  0  0  0  0  0  0  0  0  0
  1  2  1  0
  2  3  2  0
  2  4  2  0
  2  5  1  0
  5  6  2  0
  6  7  1  0
  7  8  2  0
  8  9  1  0
  9 10  1  0
 10 11  1  0
 11 12  1  0
 12 13  2  0
 12 14  1  0
 14 15  2  0
 15 16  1  0
 16 17  2  0
 17 18  1  0
 18 19  1  0
 19 20  2  0
 19 21  2  0
 19 22  1  0
 22 23  1  0
 23 24  1  0
 24 25  1  0
 25 26  1  0
 26 27  1  0
 27 28  2  0
 28 29  1  0
 29 30  2  0
 30 31  1  0
 31 32  2  0
 25 33  1  0
 33 34  1  0
 18 35  2  0
  8 36  1  0
 36 37  2  0
 37  5  1  0
 35 14  1  0
 34 22  1  0
 32 27  1  0
  1 38  1  0
  6 39  1  0
  7 40  1  0
  9 41  1  0
  9 42  1  0
 10 43  1  0
 10 44  1  0
 11 45  1  0
 15 46  1  0
 16 47  1  0
 17 48  1  0
 23 49  1  0
 23 50  1  0
 24 51  1  0
 24 52  1  0
 26 53  1  0
 26 54  1  0
 28 55  1  0
 29 56  1  0
 30 57  1  0
 31 58  1  0
 32 59  1  0
 33 60  1  0
 33 61  1  0
 34 62  1  0
 34 63  1  0
 35 64  1  0
 36 65  1  0
 37 66  1  0
M  CHG  1   1  -1
M  END
>  <UniqueID>  (9) 
9

>  <SMILES>  (9) 
[NH-]S(=O)(=O)c1ccc(CCNC(=O)c2cccc(S(=O)(=O)N3CCN(Cc4ccccc4)CC3)c2)cc1

>  <Energy>  (9) 
79.74729515122935

>  <Genealogy>  (9) 
[NH-]S(=O)(=O)c1ccc(CCNC(=O)c2cccc(S(=O)(=O)N3CCN(Cc4ccccc4)CC3)c2)cc1 (protonated)
[NH-]S(=O)(=O)c1ccc(CCNC(=O)c2cccc(S(=O)(=O)N3CCN(Cc4ccccc4)CC3)c2)cc1 (3D coordinates assigned)
[NH-]S(=O)(=O)c1ccc(CCNC(=O)c2cccc(S(=O)(=O)N3CCN(Cc4ccccc4)CC3)c2)cc1 (nonaromatic ring conformer: 79.74729515122935 kcal/mol)

>  <smiles>  (9) 
NS(=O)(=O)c1ccc(CCNC(=O)c2cccc(S(=O)(=O)N3CCN(Cc4ccccc4)CC3)c2)cc1

>  <score_type>  (9) 
oracle

>  <origin>  (9) 
adg

>  <m_score__min__energy>  (9) 
-12.789999999999999

>  <m_primary>  (9) 
energy

$$$$
9:0
     RDKit          3D

 50 52  0  0  0  0  0  0  0  0999 V2000
   57.7800   33.1920   52.4480 C   0  0  0  0  0  0  0  0  0  0  0  0
   58.7040   32.8360   51.3210 C   0  0  0  0  0  0  0  0  0  0  0  0
   59.7200   33.7240   50.9390 C   0  0  0  0  0  0  0  0  0  0  0  0
   60.5350   33.4320   49.8420 C   0  0  0  0  0  0  0  0  0  0  0  0
   60.3420   32.2520   49.1110 C   0  0  0  0  0  0  0  0  0  0  0  0
   61.3390   31.9140   47.6950 S   0  0  0  0  0  0  0  0  0  0  0  0
   61.9640   33.2010   47.2330 O   0  0  0  0  0  0  0  0  0  0  0  0
   62.4410   30.9680   48.0910 O   0  0  0  0  0  0  0  0  0  0  0  0
   60.4510   31.2180   46.3680 N   0  0  0  0  0  0  0  0  0  0  0  0
   59.9930   30.0040   46.2790 C   0  0  0  0  0  0  0  0  0  0  0  0
   59.1700   29.6320   45.2610 N   0  0  0  0  0  0  0  0  0  0  0  0
   58.6880   28.3670   45.1580 C   0  0  0  0  0  0  0  0  0  0  0  0
   57.7700   28.0180   44.0160 C   0  0  0  0  0  0  0  0  0  0  0  0
   57.0590   29.2430   43.4210 C   0  0  0  0  0  0  0  0  0  0  0  0
   56.1800   29.9280   44.4210 C   0  0  0  0  0  0  0  0  0  0  0  0
   55.1670   29.3360   44.8790 O   0  0  0  0  0  0  0  0  0  0  0  0
   56.5100   31.2180   44.8500 O   0  0  0  0  0  0  0  0  0  0  0  0
   57.4520   32.0530   44.1810 C   0  0  0  0  0  0  0  0  0  0  0  0
   58.0850   33.0210   45.1450 C   0  0  0  0  0  0  0  0  0  0  0  0
   58.9900   33.9870   44.6720 C   0  0  0  0  0  0  0  0  0  0  0  0
   59.5550   34.9150   45.5530 C   0  0  0  0  0  0  0  0  0  0  0  0
   59.2150   34.8890   46.9090 C   0  0  0  0  0  0  0  0  0  0  0  0
   58.3150   33.9290   47.3860 C   0  0  0  0  0  0  0  0  0  0  0  0
   57.7560   32.9930   46.5090 C   0  0  0  0  0  0  0  0  0  0  0  0
   59.0350   27.4190   46.1300 C   0  0  0  0  0  0  0  0  0  0  0  0
   59.8860   27.8070   47.1630 C   0  0  0  0  0  0  0  0  0  0  0  0
   60.2210   26.9730   48.0430 O   0  0  0  0  0  0  0  0  0  0  0  0
   60.3490   29.0860   47.2210 N   0  0  0  0  0  0  0  0  0  0  0  0
   59.3200   31.3670   49.4860 C   0  0  0  0  0  0  0  0  0  0  0  0
   58.5000   31.6610   50.5810 C   0  0  0  0  0  0  0  0  0  0  0  0
   58.2812   32.9989   53.4080 H   0  0  0  0  0  0  0  0  0  0  0  0
   57.5136   34.2572   52.3812 H   0  0  0  0  0  0  0  0  0  0  0  0
   56.8678   32.5810   52.3812 H   0  0  0  0  0  0  0  0  0  0  0  0
   59.8760   34.6541   51.5052 H   0  0  0  0  0  0  0  0  0  0  0  0
   61.3321   34.1319   49.5508 H   0  0  0  0  0  0  0  0  0  0  0  0
   58.3631   27.5379   43.2237 H   0  0  0  0  0  0  0  0  0  0  0  0
   56.9934   27.3469   44.4116 H   0  0  0  0  0  0  0  0  0  0  0  0
   57.8182   29.9569   43.0690 H   0  0  0  0  0  0  0  0  0  0  0  0
   56.4224   28.8953   42.5941 H   0  0  0  0  0  0  0  0  0  0  0  0
   58.2362   31.4253   43.7326 H   0  0  0  0  0  0  0  0  0  0  0  0
   56.9269   32.6237   43.4009 H   0  0  0  0  0  0  0  0  0  0  0  0
   59.2550   34.0133   43.6047 H   0  0  0  0  0  0  0  0  0  0  0  0
   60.2670   35.6654   45.1789 H   0  0  0  0  0  0  0  0  0  0  0  0
   59.6546   35.6227   47.6006 H   0  0  0  0  0  0  0  0  0  0  0  0
   58.0466   33.9104   48.4526 H   0  0  0  0  0  0  0  0  0  0  0  0
   57.0571   32.2335   46.8895 H   0  0  0  0  0  0  0  0  0  0  0  0
   58.6445   26.3919   46.0787 H   0  0  0  0  0  0  0  0  0  0  0  0
   60.9880   29.3650   48.0010 H   0  0  0  0  0  0  0  0  0  0  0  0
   59.1628   30.4387   48.9172 H   0  0  0  0  0  0  0  0  0  0  0  0
   57.6928   30.9689   50.8628 H   0  0  0  0  0  0  0  0  0  0  0  0
  1  2  1  0
  2  3  2  0
  3  4  1  0
  4  5  2  0
  5  6  1  0
  6  7  2  0
  6  8  2  0
  6  9  1  0
  9 10  2  3
 10 11  1  0
 11 12  1  0
 12 13  1  0
 13 14  1  0
 14 15  1  0
 15 16  2  0
 15 17  1  0
 17 18  1  0
 18 19  1  0
 19 20  2  0
 20 21  1  0
 21 22  2  0
 22 23  1  0
 23 24  2  0
 12 25  2  0
 25 26  1  0
 26 27  2  0
 26 28  1  0
  5 29  1  0
 29 30  2  0
 30  2  1  0
 28 10  1  0
 24 19  1  0
  1 31  1  0
  1 32  1  0
  1 33  1  0
  3 34  1  0
  4 35  1  0
 13 36  1  0
 13 37  1  0
 14 38  1  0
 14 39  1  0
 18 40  1  0
 18 41  1  0
 20 42  1  0
 21 43  1  0
 22 44  1  0
 23 45  1  0
 24 46  1  0
 25 47  1  0
 28 48  1  0
 29 49  1  0
 30 50  1  0
M  CHG  1  11  -1
M  END
>  <UniqueID>  (10) 
10

>  <SMILES>  (10) 
Cc1ccc(S(=O)(=O)N=c2[n-]c(CCC(=O)OCc3ccccc3)cc(=O)[nH]2)cc1

>  <Energy>  (10) 
44.36353336933513

>  <Genealogy>  (10) 
Cc1ccc(S(=O)(=O)N=c2[n-]c(CCC(=O)OCc3ccccc3)cc(=O)[nH]2)cc1 (protonated)
Cc1ccc(S(=O)(=O)N=c2[n-]c(CCC(=O)OCc3ccccc3)cc(=O)[nH]2)cc1 (3D coordinates assigned)
Cc1ccc(S(=O)(=O)N=c2[n-]c(CCC(=O)OCc3ccccc3)cc(=O)[nH]2)cc1 (optimized conformer: 44.36353336933513 kcal/mol)

>  <smiles>  (10) 
Cc1ccc(S(=O)(=O)N=c2[nH]c(CCC(=O)OCc3ccccc3)cc(=O)[nH]2)cc1

>  <score_type>  (10) 
oracle

>  <origin>  (10) 
adg

>  <m_score__min__energy>  (10) 
-11.220000000000001

>  <m_primary>  (10) 
energy

$$$$
10:0
     RDKit          3D

 48 50  0  0  1  0  0  0  0  0999 V2000
   61.3700   33.0300   52.1220 C   0  0  0  0  0  0  0  0  0  0  0  0
   61.0330   33.8650   51.0280 O   0  0  0  0  0  0  0  0  0  0  0  0
   61.8620   33.7370   49.9130 C   0  0  0  0  0  0  0  0  0  0  0  0
   63.2300   33.6500   50.0160 C   0  0  0  0  0  0  0  0  0  0  0  0
   64.0720   33.5210   48.9190 C   0  0  0  0  0  0  0  0  0  0  0  0
   63.4660   33.4830   47.6880 C   0  0  0  0  0  0  0  0  0  0  0  0
   62.1150   33.5680   47.5600 C   0  0  0  0  0  0  0  0  0  0  0  0
   61.2710   33.6990   48.6770 C   0  0  0  0  0  0  0  0  0  0  0  0
   59.5360   33.7700   48.3570 S   0  0  0  0  0  0  0  0  0  0  0  0
   59.0810   33.3050   46.7040 C   0  0  0  0  0  0  0  0  0  0  0  0
   58.7970   34.3010   45.7790 C   0  0  0  0  0  0  0  0  0  0  0  0
   58.4200   33.9610   44.4750 C   0  0  0  0  0  0  0  0  0  0  0  0
   58.3000   32.6900   44.0220 C   0  0  0  0  0  0  0  0  0  0  0  0
   57.8020   32.1700   42.7910 C   0  0  0  0  0  0  0  0  0  0  0  0
   56.9480   31.2200   42.5710 C   0  0  0  0  0  0  0  0  0  0  0  0
   56.4660   30.2410   43.5070 C   0  0  0  0  0  0  0  0  0  0  0  0
   56.7960   28.8950   43.1780 O   0  0  0  0  0  0  0  0  0  0  0  0
   55.8130   30.3620   44.5660 N   0  0  0  0  0  0  0  0  0  0  0  0
   55.1530   29.2950   45.1520 O   0  0  0  0  0  0  0  0  0  0  0  0
   58.5990   31.6930   44.9890 C   0  0  0  0  0  0  0  0  0  0  0  0
   58.9700   32.0150   46.2600 C   0  0  0  0  0  0  0  0  0  0  0  0
   59.2590   30.9380   47.1900 C   0  0  0  0  0  0  0  0  0  0  0  0
   60.3560   31.0390   47.8350 O   0  0  0  0  0  0  0  0  0  0  0  0
   58.4570   29.8300   47.4340 N   0  0  0  0  0  0  0  0  0  0  0  0
   58.5830   28.6570   46.9210 C   0  0  0  0  0  0  0  0  0  0  0  0
   59.4440   27.7850   47.5620 C   0  0  0  0  0  0  0  0  0  0  0  0
   59.5880   26.5590   47.0200 N   0  0  0  0  0  0  0  0  0  0  0  0
   58.9070   26.2090   45.8920 C   0  0  0  0  0  0  0  0  0  0  0  0
   58.0460   27.0970   45.2580 C   0  0  0  0  0  0  0  0  0  0  0  0
   57.9120   28.3160   45.8080 N   0  0  0  0  0  0  0  0  0  0  0  0
   61.1575   33.5565   53.0642 H   0  0  0  0  0  0  0  0  0  0  0  0
   60.7742   32.1065   52.0756 H   0  0  0  0  0  0  0  0  0  0  0  0
   62.4399   32.7788   52.0756 H   0  0  0  0  0  0  0  0  0  0  0  0
   63.6810   33.6843   51.0187 H   0  0  0  0  0  0  0  0  0  0  0  0
   65.1642   33.4530   49.0305 H   0  0  0  0  0  0  0  0  0  0  0  0
   64.0867   33.3816   46.7855 H   0  0  0  0  0  0  0  0  0  0  0  0
   61.6699   33.5333   46.5547 H   0  0  0  0  0  0  0  0  0  0  0  0
   58.8685   35.3589   46.0718 H   0  0  0  0  0  0  0  0  0  0  0  0
   58.2071   34.7795   43.7716 H   0  0  0  0  0  0  0  0  0  0  0  0
   58.2055   32.6499   41.8872 H   0  0  0  0  0  0  0  0  0  0  0  0
   56.5453   31.1554   41.5494 H   0  0  0  0  0  0  0  0  0  0  0  0
   56.3030   28.1740   43.7490 H   0  0  0  0  0  0  0  0  0  0  0  0
   54.7680   28.5920   44.5130 H   0  0  0  0  0  0  0  0  0  0  0  0
   58.5291   30.6328   44.7041 H   0  0  0  0  0  0  0  0  0  0  0  0
   59.9867   28.0784   48.4727 H   0  0  0  0  0  0  0  0  0  0  0  0
   59.0421   25.2005   45.4740 H   0  0  0  0  0  0  0  0  0  0  0  0
   57.4986   26.8147   44.3466 H   0  0  0  0  0  0  0  0  0  0  0  0
   57.2670   29.0080   45.3430 H   0  0  0  0  0  0  0  0  0  0  0  0
  1  2  1  0
  2  3  1  0
  3  4  2  0
  4  5  1  0
  5  6  2  0
  6  7  1  0
  7  8  2  0
  8  9  1  0
  9 10  1  0
 10 11  2  0
 11 12  1  0
 12 13  2  0
 13 14  1  0
 14 15  2  0
 15 16  1  0
 16 17  1  0
 16 18  2  0
 18 19  1  0
 13 20  1  0
 20 21  2  0
 21 22  1  0
 22 23  2  0
 22 24  1  0
 24 25  2  0
 25 26  1  0
 26 27  2  0
 27 28  1  0
 28 29  2  0
 29 30  1  0
  8  3  1  0
 21 10  1  0
 30 25  1  0
  1 31  1  0
  1 32  1  0
  1 33  1  0
  4 34  1  0
  5 35  1  0
  6 36  1  0
  7 37  1  0
 11 38  1  0
 12 39  1  0
 14 40  1  0
 15 41  1  0
 17 42  1  0
 19 43  1  0
 20 44  1  0
 26 45  1  0
 28 46  1  0
 29 47  1  0
 30 48  1  0
M  END
>  <smiles>  (11) 
COc1ccccc1Sc1ccc(C=CC(O)=NO)cc1C(=O)N=c1cncc[nH]1

>  <score_type>  (11) 
oracle

>  <origin>  (11) 
adg

>  <m_score__min__energy>  (11) 
-9.3900000000000006

>  <m_primary>  (11) 
energy

$$$$
11:0
     RDKit          3D

 31 33  0  0  0  0  0  0  0  0999 V2000
   55.1850   29.2900   44.8420 N   0  0  0  0  0  0  0  0  0  0  0  0
   56.4170   28.7040   45.2610 C   0  0  0  0  0  0  0  0  0  0  0  0
   56.4740   27.4650   45.4760 O   0  0  0  0  0  0  0  0  0  0  0  0
   57.5740   29.5110   45.4990 N   0  0  0  0  0  0  0  0  0  0  0  0
   57.8380   30.8040   44.9370 C   0  0  0  0  0  0  0  0  0  0  0  0
   57.5910   31.0070   43.5750 C   0  0  0  0  0  0  0  0  0  0  0  0
   57.8170   32.2570   42.9950 C   0  0  0  0  0  0  0  0  0  0  0  0
   58.2770   33.3210   43.7750 C   0  0  0  0  0  0  0  0  0  0  0  0
   58.5040   33.1460   45.1510 C   0  0  0  0  0  0  0  0  0  0  0  0
   58.9780   34.2970   46.0080 C   0  0  1  0  0  0  0  0  0  0  0  0
   58.5800   34.0810   47.4010 N   0  0  0  0  0  0  0  0  0  0  0  0
   59.4840   33.5560   48.3720 C   0  0  0  0  0  0  0  0  0  0  0  0
   59.0550   33.2310   49.5120 O   0  0  0  0  0  0  0  0  0  0  0  0
   60.9060   33.4330   48.0320 C   0  0  0  0  0  0  0  0  0  0  0  0
   61.8450   32.8890   48.9230 C   0  0  0  0  0  0  0  0  0  0  0  0
   63.1960   32.8290   48.5640 C   0  0  0  0  0  0  0  0  0  0  0  0
   64.4740   32.0890   49.7750 Br  0  0  0  0  0  0  0  0  0  0  0  0
   63.6130   33.3160   47.3200 C   0  0  0  0  0  0  0  0  0  0  0  0
   62.6790   33.8600   46.4330 C   0  0  0  0  0  0  0  0  0  0  0  0
   61.3250   33.9110   46.7810 C   0  0  0  0  0  0  0  0  0  0  0  0
   60.3980   34.4530   45.8810 O   0  0  0  0  0  0  0  0  0  0  0  0
   58.2750   31.8830   45.7280 C   0  0  0  0  0  0  0  0  0  0  0  0
   54.3740   29.3560   45.4950 H   0  0  0  0  0  0  0  0  0  0  0  0
   57.2166   30.1772   42.9575 H   0  0  0  0  0  0  0  0  0  0  0  0
   57.6323   32.4044   41.9207 H   0  0  0  0  0  0  0  0  0  0  0  0
   58.4624   34.3005   43.3099 H   0  0  0  0  0  0  0  0  0  0  0  0
   58.5065   35.2293   45.6639 H   0  0  0  0  0  0  0  0  0  0  0  0
   61.5187   32.5102   49.9028 H   0  0  0  0  0  0  0  0  0  0  0  0
   64.6758   33.2708   47.0400 H   0  0  0  0  0  0  0  0  0  0  0  0
   63.0098   34.2490   45.4587 H   0  0  0  0  0  0  0  0  0  0  0  0
   58.4389   31.7379   46.8060 H   0  0  0  0  0  0  0  0  0  0  0  0
  1  2  1  0
  2  3  2  0
  2  4  1  0
  4  5  1  0
  5  6  2  0
  6  7  1  0
  7  8  2  0
  8  9  1  0
  9 10  1  0
 10 11  1  0
 11 12  1  0
 12 13  2  0
 12 14  1  0
 14 15  2  0
 15 16  1  0
 16 17  1  0
 16 18  2  0
 18 19  1  0
 19 20  2  0
 20 21  1  0
  9 22  2  0
 22  5  1  0
 21 10  1  0
 20 14  1  0
  1 23  1  0
  6 24  1  0
  7 25  1  0
  8 26  1  0
 10 27  1  6
 15 28  1  0
 18 29  1  0
 19 30  1  0
 22 31  1  0
M  CHG  3   1  -1   4  -1  11  -1
M  END
>  <UniqueID>  (12) 
11

>  <SMILES>  (12) 
[NH-]C(=O)[N-]c1cccc([C@H]2[N-]C(=O)c3cc(Br)ccc3O2)c1

>  <Energy>  (12) 
39.56505175584026

>  <Genealogy>  (12) 
[NH-]C(=O)[N-]c1cccc(C2[N-]C(=O)c3cc(Br)ccc3O2)c1 (protonated)
[NH-]C(=O)[N-]c1cccc([C@H]2[N-]C(=O)c3cc(Br)ccc3O2)c1 (chirality)
[NH-]C(=O)[N-]c1cccc([C@H]2[N-]C(=O)c3cc(Br)ccc3O2)c1 (3D coordinates assigned)
[NH-]C(=O)[N-]c1cccc([C@H]2[N-]C(=O)c3cc(Br)ccc3O2)c1 (nonaromatic ring conformer: 39.56505175584026 kcal/mol)

>  <smiles>  (12) 
NC(=O)Nc1cccc(C2NC(=O)c3cc(Br)ccc3O2)c1

>  <score_type>  (12) 
oracle

>  <origin>  (12) 
adg

>  <m_score__min__energy>  (12) 
-13.58

>  <m_primary>  (12) 
energy

$$$$
12:0
     RDKit          3D

 47 49  0  0  0  0  0  0  0  0999 V2000
   57.7310   32.0040   50.0220 N   0  0  0  0  0  0  0  0  0  0  0  0
   58.0980   31.2090   51.5140 S   0  0  0  0  0  0  0  0  0  0  0  0
   57.7880   32.1380   52.6550 O   0  0  0  0  0  0  0  0  0  0  0  0
   57.2340   29.9860   51.6430 O   0  0  0  0  0  0  0  0  0  0  0  0
   59.7800   30.7280   51.5790 N   0  0  0  0  0  0  0  0  0  0  0  0
   60.1250   29.7400   50.5340 C   0  0  0  0  0  0  0  0  0  0  0  0
   60.9480   30.3340   49.3780 C   0  0  0  0  0  0  0  0  0  0  0  0
   60.5120   31.7140   49.1020 N   0  0  0  0  0  0  0  0  0  0  0  0
   61.1330   32.2340   47.8640 C   0  0  0  0  0  0  0  0  0  0  0  0
   60.1090   32.9670   47.0280 C   0  0  0  0  0  0  0  0  0  0  0  0
   60.3860   34.2940   46.6530 C   0  0  0  0  0  0  0  0  0  0  0  0
   59.5460   34.9810   45.7780 C   0  0  0  0  0  0  0  0  0  0  0  0
   58.4270   34.3470   45.2480 C   0  0  0  0  0  0  0  0  0  0  0  0
   58.1260   33.0350   45.6150 C   0  0  0  0  0  0  0  0  0  0  0  0
   58.9300   32.3360   46.5360 C   0  0  0  0  0  0  0  0  0  0  0  0
   58.5160   30.9310   46.9400 C   0  0  0  0  0  0  0  0  0  0  0  0
   58.7690   29.9500   45.8730 N   0  0  0  0  0  0  0  0  0  0  0  0
   59.9920   29.4960   45.5240 C   0  0  0  0  0  0  0  0  0  0  0  0
   59.8880   28.5590   44.5190 C   0  0  0  0  0  0  0  0  0  0  0  0
   58.5470   28.4500   44.2190 C   0  0  0  0  0  0  0  0  0  0  0  0
   57.8840   29.3350   45.0480 C   0  0  0  0  0  0  0  0  0  0  0  0
   56.4430   29.6170   44.9450 C   0  0  0  0  0  0  0  0  0  0  0  0
   56.0340   30.7300   44.5310 O   0  0  0  0  0  0  0  0  0  0  0  0
   55.5220   28.6160   45.2280 O   0  0  0  0  0  0  0  0  0  0  0  0
   60.8070   32.6010   50.2500 C   0  0  0  0  0  0  0  0  0  0  0  0
   60.6900   31.8860   51.6140 C   0  0  0  0  0  0  0  0  0  0  0  0
   57.0040   32.7280   50.2220 H   0  0  0  0  0  0  0  0  0  0  0  0
   58.5910   32.5180   49.7280 H   0  0  0  0  0  0  0  0  0  0  0  0
   60.7089   28.9315   50.9980 H   0  0  0  0  0  0  0  0  0  0  0  0
   59.1790   29.3773   50.1056 H   0  0  0  0  0  0  0  0  0  0  0  0
   62.0129   30.3373   49.6538 H   0  0  0  0  0  0  0  0  0  0  0  0
   60.7963   29.7218   48.4768 H   0  0  0  0  0  0  0  0  0  0  0  0
   61.9462   32.9255   48.1294 H   0  0  0  0  0  0  0  0  0  0  0  0
   61.5298   31.3891   47.2820 H   0  0  0  0  0  0  0  0  0  0  0  0
   61.2777   34.7966   47.0557 H   0  0  0  0  0  0  0  0  0  0  0  0
   59.7679   36.0237   45.5068 H   0  0  0  0  0  0  0  0  0  0  0  0
   57.7782   34.8811   44.5382 H   0  0  0  0  0  0  0  0  0  0  0  0
   57.2469   32.5388   45.1781 H   0  0  0  0  0  0  0  0  0  0  0  0
   59.0853   30.6370   47.8341 H   0  0  0  0  0  0  0  0  0  0  0  0
   57.4345   30.9415   47.1404 H   0  0  0  0  0  0  0  0  0  0  0  0
   60.9376   29.8274   45.9779 H   0  0  0  0  0  0  0  0  0  0  0  0
   60.7140   28.0059   44.0480 H   0  0  0  0  0  0  0  0  0  0  0  0
   58.0933   27.7880   43.4668 H   0  0  0  0  0  0  0  0  0  0  0  0
   61.8326   32.9837   50.1422 H   0  0  0  0  0  0  0  0  0  0  0  0
   60.0621   33.4103   50.2390 H   0  0  0  0  0  0  0  0  0  0  0  0
   61.6893   31.5380   51.9145 H   0  0  0  0  0  0  0  0  0  0  0  0
   60.2753   32.6097   52.3311 H   0  0  0  0  0  0  0  0  0  0  0  0
  1  2  1  0
  2  3  2  0
  2  4  2  0
  2  5  1  0
  5  6  1  0
  6  7  1  0
  7  8  1  0
  8  9  1  0
  9 10  1  0
 10 11  2  0
 11 12  1  0
 12 13  2  0
 13 14  1  0
 14 15  2  0
 15 16  1  0
 16 17  1  0
 17 18  1  0
 18 19  2  0
 19 20  1  0
 20 21  2  0
 21 22  1  0
 22 23  2  0
 22 24  1  0
  8 25  1  0
 25 26  1  0
 26  5  1  0
 15 10  1  0
 21 17  1  0
  1 27  1  0
  1 28  1  0
  6 29  1  0
  6 30  1  0
  7 31  1  0
  7 32  1  0
  9 33  1  0
  9 34  1  0
 11 35  1  0
 12 36  1  0
 13 37  1  0
 14 38  1  0
 16 39  1  0
 16 40  1  0
 18 41  1  0
 19 42  1  0
 20 43  1  0
 25 44  1  0
 25 45  1  0
 26 46  1  0
 26 47  1  0
M  CHG  1  24  -1
M  END
>  <UniqueID>  (13) 
12

>  <SMILES>  (13) 
NS(=O)(=O)N1CCN(Cc2ccccc2Cn2cccc2C(=O)[O-])CC1

>  <Energy>  (13) 
84.9593273558452

>  <Genealogy>  (13) 
NS(=O)(=O)N1CCN(Cc2ccccc2Cn2cccc2C(=O)[O-])CC1 (protonated)
NS(=O)(=O)N1CCN(Cc2ccccc2Cn2cccc2C(=O)[O-])CC1 (3D coordinates assigned)
NS(=O)(=O)N1CCN(Cc2ccccc2Cn2cccc2C(=O)[O-])CC1 (nonaromatic ring conformer: 84.9593273558452 kcal/mol)

>  <smiles>  (13) 
NS(=O)(=O)N1CCN(Cc2ccccc2Cn2cccc2C(=O)O)CC1

>  <score_type>  (13) 
oracle

>  <origin>  (13) 
adg

>  <m_score__min__energy>  (13) 
-10.449999999999999

>  <m_primary>  (13) 
energy

$$$$
13:0
     RDKit          3D

 47 49  0  0  0  0  0  0  0  0999 V2000
   56.2490   22.6130   42.6420 C   0  0  0  0  0  0  0  0  0  0  0  0
   56.3100   21.9250   43.9410 N   0  0  0  0  0  0  0  0  0  0  0  0
   57.7130   21.7620   44.4020 C   0  0  0  0  0  0  0  0  0  0  0  0
   58.0950   22.7900   45.4760 C   0  0  0  0  0  0  0  0  0  0  0  0
   57.2240   22.6580   46.6640 N   0  0  0  0  0  0  0  0  0  0  0  0
   57.3460   23.7840   47.6180 C   0  0  0  0  0  0  0  0  0  0  0  0
   57.3920   25.1480   46.9560 C   0  0  0  0  0  0  0  0  0  0  0  0
   58.5910   25.8770   46.9200 C   0  0  0  0  0  0  0  0  0  0  0  0
   58.6420   27.1300   46.3030 C   0  0  0  0  0  0  0  0  0  0  0  0
   57.4960   27.6770   45.7090 C   0  0  0  0  0  0  0  0  0  0  0  0
   57.5700   28.9750   45.0940 N   0  0  0  0  0  0  0  0  0  0  0  0
   56.4350   29.8160   44.8460 C   0  0  0  0  0  0  0  0  0  0  0  0
   55.2660   29.3520   44.9390 O   0  0  0  0  0  0  0  0  0  0  0  0
   56.6490   31.1600   44.4010 N   0  0  0  0  0  0  0  0  0  0  0  0
   57.4380   32.1630   45.0600 C   0  0  0  0  0  0  0  0  0  0  0  0
   57.5130   33.4850   44.5840 C   0  0  0  0  0  0  0  0  0  0  0  0
   58.2760   34.4360   45.2690 C   0  0  0  0  0  0  0  0  0  0  0  0
   58.9560   34.0820   46.4380 C   0  0  0  0  0  0  0  0  0  0  0  0
   59.6930   35.0060   47.1010 F   0  0  0  0  0  0  0  0  0  0  0  0
   58.8650   32.7760   46.9270 C   0  0  0  0  0  0  0  0  0  0  0  0
   58.1020   31.8220   46.2460 C   0  0  0  0  0  0  0  0  0  0  0  0
   56.2820   26.9710   45.7890 C   0  0  0  0  0  0  0  0  0  0  0  0
   56.2320   25.7190   46.4080 C   0  0  0  0  0  0  0  0  0  0  0  0
   55.8300   22.2520   46.3630 C   0  0  0  0  0  0  0  0  0  0  0  0
   55.4310   22.6020   44.9240 C   0  0  0  0  0  0  0  0  0  0  0  0
   56.1529   23.6966   42.8051 H   0  0  0  0  0  0  0  0  0  0  0  0
   57.1689   22.4077   42.0748 H   0  0  0  0  0  0  0  0  0  0  0  0
   55.3796   22.2491   42.0748 H   0  0  0  0  0  0  0  0  0  0  0  0
   57.8331   20.7518   44.8203 H   0  0  0  0  0  0  0  0  0  0  0  0
   58.3728   21.9184   43.5358 H   0  0  0  0  0  0  0  0  0  0  0  0
   59.1407   22.6265   45.7757 H   0  0  0  0  0  0  0  0  0  0  0  0
   57.9695   23.7996   45.0577 H   0  0  0  0  0  0  0  0  0  0  0  0
   56.4812   23.7577   48.2973 H   0  0  0  0  0  0  0  0  0  0  0  0
   58.3020   23.6529   48.1462 H   0  0  0  0  0  0  0  0  0  0  0  0
   59.4978   25.4587   47.3812 H   0  0  0  0  0  0  0  0  0  0  0  0
   59.5880   27.6909   46.2833 H   0  0  0  0  0  0  0  0  0  0  0  0
   58.4960   29.2980   44.7320 H   0  0  0  0  0  0  0  0  0  0  0  0
   56.9703   33.7711   43.6710 H   0  0  0  0  0  0  0  0  0  0  0  0
   58.3413   35.4654   44.8869 H   0  0  0  0  0  0  0  0  0  0  0  0
   59.3949   32.4976   47.8499 H   0  0  0  0  0  0  0  0  0  0  0  0
   58.0227   30.7993   46.6432 H   0  0  0  0  0  0  0  0  0  0  0  0
   55.3668   27.4068   45.3619 H   0  0  0  0  0  0  0  0  0  0  0  0
   55.2767   25.1767   46.4664 H   0  0  0  0  0  0  0  0  0  0  0  0
   55.7380   21.1649   46.5032 H   0  0  0  0  0  0  0  0  0  0  0  0
   55.1610   22.7976   47.0448 H   0  0  0  0  0  0  0  0  0  0  0  0
   54.3917   22.2848   44.7532 H   0  0  0  0  0  0  0  0  0  0  0  0
   55.5334   23.6890   44.7902 H   0  0  0  0  0  0  0  0  0  0  0  0
  1  2  1  0
  2  3  1  0
  3  4  1  0
  4  5  1  0
  5  6  1  0
  6  7  1  0
  7  8  2  0
  8  9  1  0
  9 10  2  0
 10 11  1  0
 11 12  1  0
 12 13  2  0
 12 14  1  0
 14 15  1  0
 15 16  2  0
 16 17  1  0
 17 18  2  0
 18 19  1  0
 18 20  1  0
 20 21  2  0
 10 22  1  0
 22 23  2  0
  5 24  1  0
 24 25  1  0
 25  2  1  0
 23  7  1  0
 21 15  1  0
  1 26  1  0
  1 27  1  0
  1 28  1  0
  3 29  1  0
  3 30  1  0
  4 31  1  0
  4 32  1  0
  6 33  1  0
  6 34  1  0
  8 35  1  0
  9 36  1  0
 11 37  1  0
 16 38  1  0
 17 39  1  0
 20 40  1  0
 21 41  1  0
 22 42  1  0
 23 43  1  0
 24 44  1  0
 24 45  1  0
 25 46  1  0
 25 47  1  0
M  CHG  1  14  -1
M  END
>  <UniqueID>  (14) 
13

>  <SMILES>  (14) 
CN1CCN(Cc2ccc(NC(=O)[N-]c3ccc(F)cc3)cc2)CC1

>  <Energy>  (14) 
69.00876107624255

>  <Genealogy>  (14) 
CN1CCN(Cc2ccc(NC(=O)[N-]c3ccc(F)cc3)cc2)CC1 (protonated)
CN1CCN(Cc2ccc(NC(=O)[N-]c3ccc(F)cc3)cc2)CC1 (3D coordinates assigned)
CN1CCN(Cc2ccc(NC(=O)[N-]c3ccc(F)cc3)cc2)CC1 (nonaromatic ring conformer: 69.00876107624255 kcal/mol)

>  <smiles>  (14) 
CN1CCN(Cc2ccc(NC(=O)Nc3ccc(F)cc3)cc2)CC1

>  <score_type>  (14) 
oracle

>  <origin>  (14) 
adg

>  <m_score__min__energy>  (14) 
-10.130000000000001

>  <m_primary>  (14) 
energy

$$$$
14:0
     RDKit          3D

 54 57  0  0  0  0  0  0  0  0999 V2000
   57.7970   26.4230   43.9500 N   0  0  0  0  0  0  0  0  0  0  0  0
   58.3150   27.0870   45.1090 C   0  0  0  0  0  0  0  0  0  0  0  0
   59.5360   26.6670   45.6530 C   0  0  0  0  0  0  0  0  0  0  0  0
   60.0680   27.2980   46.7770 C   0  0  0  0  0  0  0  0  0  0  0  0
   59.3790   28.3570   47.3910 C   0  0  0  0  0  0  0  0  0  0  0  0
   59.9440   29.0250   48.5920 C   0  0  0  0  0  0  0  0  0  0  0  0
   59.6870   30.3880   48.8350 C   0  0  0  0  0  0  0  0  0  0  0  0
   60.2100   31.0150   49.9720 C   0  0  0  0  0  0  0  0  0  0  0  0
   60.9930   30.2910   50.8750 C   0  0  0  0  0  0  0  0  0  0  0  0
   61.2570   28.9400   50.6410 C   0  0  0  0  0  0  0  0  0  0  0  0
   60.7360   28.3080   49.5080 C   0  0  0  0  0  0  0  0  0  0  0  0
   58.1490   28.7740   46.8530 C   0  0  0  0  0  0  0  0  0  0  0  0
   57.6200   28.1610   45.7000 C   0  0  0  0  0  0  0  0  0  0  0  0
   56.3570   28.5660   45.1490 N   0  0  0  0  0  0  0  0  0  0  0  0
   56.1010   29.6980   44.3030 C   0  0  0  0  0  0  0  0  0  0  0  0
   55.1220   29.6850   43.5070 O   0  0  0  0  0  0  0  0  0  0  0  0
   56.9520   30.9050   44.4070 C   0  0  0  0  0  0  0  0  0  0  0  0
   57.3980   31.3620   45.6610 C   0  0  0  0  0  0  0  0  0  0  0  0
   58.1960   32.5050   45.7560 C   0  0  0  0  0  0  0  0  0  0  0  0
   58.5750   33.2050   44.6010 C   0  0  0  0  0  0  0  0  0  0  0  0
   59.3970   34.4590   44.7170 C   0  0  0  0  0  0  0  0  0  0  0  0
   60.5470   34.2220   45.5850 N   0  0  0  0  0  0  0  0  0  0  0  0
   60.4640   34.3350   47.0170 C   0  0  0  0  0  0  0  0  0  0  0  0
   59.4810   34.9320   47.5380 O   0  0  0  0  0  0  0  0  0  0  0  0
   61.5230   33.7720   47.8900 C   0  0  0  0  0  0  0  0  0  0  0  0
   62.4230   32.8180   47.3790 C   0  0  0  0  0  0  0  0  0  0  0  0
   63.4340   32.2920   48.1920 C   0  0  0  0  0  0  0  0  0  0  0  0
   63.5610   32.7170   49.5170 C   0  0  0  0  0  0  0  0  0  0  0  0
   62.6800   33.6720   50.0310 C   0  0  0  0  0  0  0  0  0  0  0  0
   61.6670   34.2010   49.2230 C   0  0  0  0  0  0  0  0  0  0  0  0
   58.1280   32.7580   43.3490 C   0  0  0  0  0  0  0  0  0  0  0  0
   57.3270   31.6170   43.2530 C   0  0  0  0  0  0  0  0  0  0  0  0
   57.0200   26.8500   43.3960 H   0  0  0  0  0  0  0  0  0  0  0  0
   58.1490   25.4870   43.6490 H   0  0  0  0  0  0  0  0  0  0  0  0
   60.0803   25.8313   45.1889 H   0  0  0  0  0  0  0  0  0  0  0  0
   61.0333   26.9643   47.1854 H   0  0  0  0  0  0  0  0  0  0  0  0
   59.0718   30.9632   48.1274 H   0  0  0  0  0  0  0  0  0  0  0  0
   60.0042   32.0800   50.1551 H   0  0  0  0  0  0  0  0  0  0  0  0
   61.4010   30.7849   51.7692 H   0  0  0  0  0  0  0  0  0  0  0  0
   61.8766   28.3714   51.3501 H   0  0  0  0  0  0  0  0  0  0  0  0
   60.9466   27.2429   49.3313 H   0  0  0  0  0  0  0  0  0  0  0  0
   57.5925   29.5893   47.3384 H   0  0  0  0  0  0  0  0  0  0  0  0
   57.1163   30.8154   46.5731 H   0  0  0  0  0  0  0  0  0  0  0  0
   58.5292   32.8582   46.7430 H   0  0  0  0  0  0  0  0  0  0  0  0
   59.7492   34.7577   43.7186 H   0  0  0  0  0  0  0  0  0  0  0  0
   58.7773   35.2592   45.1480 H   0  0  0  0  0  0  0  0  0  0  0  0
   61.4600   33.9870   45.1350 H   0  0  0  0  0  0  0  0  0  0  0  0
   62.3314   32.4839   46.3350 H   0  0  0  0  0  0  0  0  0  0  0  0
   64.1299   31.5426   47.7869 H   0  0  0  0  0  0  0  0  0  0  0  0
   64.3541   32.3000   50.1551 H   0  0  0  0  0  0  0  0  0  0  0  0
   62.7828   34.0088   51.0731 H   0  0  0  0  0  0  0  0  0  0  0  0
   60.9796   34.9562   49.6318 H   0  0  0  0  0  0  0  0  0  0  0  0
   58.4091   33.3079   42.4388 H   0  0  0  0  0  0  0  0  0  0  0  0
   56.9864   31.2722   42.2655 H   0  0  0  0  0  0  0  0  0  0  0  0
  1  2  1  0
  2  3  2  0
  3  4  1  0
  4  5  2  0
  5  6  1  0
  6  7  2  0
  7  8  1  0
  8  9  2  0
  9 10  1  0
 10 11  2  0
  5 12  1  0
 12 13  2  0
 13 14  1  0
 14 15  1  0
 15 16  2  0
 15 17  1  0
 17 18  2  0
 18 19  1  0
 19 20  2  0
 20 21  1  0
 21 22  1  0
 22 23  1  0
 23 24  2  0
 23 25  1  0
 25 26  2  0
 26 27  1  0
 27 28  2  0
 28 29  1  0
 29 30  2  0
 20 31  1  0
 31 32  2  0
 13  2  1  0
 32 17  1  0
 11  6  1  0
 30 25  1  0
  1 33  1  0
  1 34  1  0
  3 35  1  0
  4 36  1  0
  7 37  1  0
  8 38  1  0
  9 39  1  0
 10 40  1  0
 11 41  1  0
 12 42  1  0
 18 43  1  0
 19 44  1  0
 21 45  1  0
 21 46  1  0
 22 47  1  0
 26 48  1  0
 27 49  1  0
 28 50  1  0
 29 51  1  0
 30 52  1  0
 31 53  1  0
 32 54  1  0
M  CHG  1  14  -1
M  END
>  <UniqueID>  (15) 
14

>  <SMILES>  (15) 
Nc1ccc(-c2ccccc2)cc1[N-]C(=O)c1ccc(CNC(=O)c2ccccc2)cc1

>  <Energy>  (15) 
68.56444684277733

>  <Genealogy>  (15) 
Nc1ccc(-c2ccccc2)cc1[N-]C(=O)c1ccc(CNC(=O)c2ccccc2)cc1 (protonated)
Nc1ccc(-c2ccccc2)cc1[N-]C(=O)c1ccc(CNC(=O)c2ccccc2)cc1 (3D coordinates assigned)
Nc1ccc(-c2ccccc2)cc1[N-]C(=O)c1ccc(CNC(=O)c2ccccc2)cc1 (optimized conformer: 68.56444684277733 kcal/mol)

>  <smiles>  (15) 
Nc1ccc(-c2ccccc2)cc1NC(=O)c1ccc(CNC(=O)c2ccccc2)cc1

>  <score_type>  (15) 
oracle

>  <origin>  (15) 
adg

>  <m_score__min__energy>  (15) 
-10.56

>  <m_primary>  (15) 
energy

$$$$
15:0
     RDKit          3D

 47 49  0  0  0  0  0  0  0  0999 V2000
   60.0410   28.6800   45.2830 C   0  0  0  0  0  0  0  0  0  0  0  0
   59.4400   30.0560   45.4910 C   0  0  0  0  0  0  0  0  0  0  0  0
   58.2650   30.4640   44.8050 C   0  0  0  0  0  0  0  0  0  0  0  0
   57.5240   29.5560   43.8380 C   0  0  0  0  0  0  0  0  0  0  0  0
   56.1270   29.3490   44.3330 C   0  0  0  0  0  0  0  0  0  0  0  0
   55.1740   30.0120   43.8440 O   0  0  0  0  0  0  0  0  0  0  0  0
   55.8730   28.3250   45.2940 N   0  0  0  0  0  0  0  0  0  0  0  0
   56.9330   27.5050   45.8590 C   0  0  0  0  0  0  0  0  0  0  0  0
   56.8220   26.1080   45.3110 C   0  0  0  0  0  0  0  0  0  0  0  0
   55.8110   25.2450   45.7520 C   0  0  0  0  0  0  0  0  0  0  0  0
   55.7120   23.9500   45.2270 C   0  0  0  0  0  0  0  0  0  0  0  0
   56.6060   23.5140   44.2420 C   0  0  0  0  0  0  0  0  0  0  0  0
   56.5260   21.8580   43.6470 S   0  0  0  0  0  0  0  0  0  0  0  0
   55.5370   20.8920   44.6870 N   0  0  0  0  0  0  0  0  0  0  0  0
   57.9140   21.2850   43.5900 O   0  0  0  0  0  0  0  0  0  0  0  0
   55.9330   21.8340   42.2630 O   0  0  0  0  0  0  0  0  0  0  0  0
   57.5970   24.3890   43.7750 C   0  0  0  0  0  0  0  0  0  0  0  0
   57.7020   25.6790   44.3040 C   0  0  0  0  0  0  0  0  0  0  0  0
   57.7140   31.7210   45.1260 C   0  0  0  0  0  0  0  0  0  0  0  0
   56.6460   32.1090   44.5840 O   0  0  0  0  0  0  0  0  0  0  0  0
   58.2970   32.5130   46.0130 O   0  0  0  0  0  0  0  0  0  0  0  0
   59.4230   32.2070   46.6390 C   0  0  0  0  0  0  0  0  0  0  0  0
   59.9770   33.1240   47.5600 C   0  0  0  0  0  0  0  0  0  0  0  0
   59.2640   34.4140   47.8830 C   0  0  0  0  0  0  0  0  0  0  0  0
   61.2190   32.8270   48.1660 C   0  0  0  0  0  0  0  0  0  0  0  0
   61.8450   33.7080   49.0540 O   0  0  0  0  0  0  0  0  0  0  0  0
   61.8660   31.6270   47.8730 C   0  0  0  0  0  0  0  0  0  0  0  0
   61.2960   30.7030   47.0040 C   0  0  0  0  0  0  0  0  0  0  0  0
   60.0620   30.9720   46.3770 C   0  0  0  0  0  0  0  0  0  0  0  0
   60.2433   28.2168   46.2600 H   0  0  0  0  0  0  0  0  0  0  0  0
   59.3348   28.0529   44.7190 H   0  0  0  0  0  0  0  0  0  0  0  0
   60.9810   28.7719   44.7190 H   0  0  0  0  0  0  0  0  0  0  0  0
   57.4966   30.0226   42.8422 H   0  0  0  0  0  0  0  0  0  0  0  0
   58.0403   28.5871   43.7700 H   0  0  0  0  0  0  0  0  0  0  0  0
   57.9109   27.9299   45.5885 H   0  0  0  0  0  0  0  0  0  0  0  0
   56.8382   27.4812   46.9547 H   0  0  0  0  0  0  0  0  0  0  0  0
   55.0928   25.5849   46.5126 H   0  0  0  0  0  0  0  0  0  0  0  0
   54.9266   23.2713   45.5912 H   0  0  0  0  0  0  0  0  0  0  0  0
   55.2040   20.0720   44.1360 H   0  0  0  0  0  0  0  0  0  0  0  0
   58.2939   24.0597   42.9902 H   0  0  0  0  0  0  0  0  0  0  0  0
   58.4785   26.3620   43.9292 H   0  0  0  0  0  0  0  0  0  0  0  0
   59.1981   34.5332   48.9745 H   0  0  0  0  0  0  0  0  0  0  0  0
   59.8231   35.2591   47.4550 H   0  0  0  0  0  0  0  0  0  0  0  0
   58.2510   34.3902   47.4550 H   0  0  0  0  0  0  0  0  0  0  0  0
   61.8730   33.5550   50.0550 H   0  0  0  0  0  0  0  0  0  0  0  0
   62.8399   31.4084   48.3353 H   0  0  0  0  0  0  0  0  0  0  0  0
   61.8129   29.7529   46.8038 H   0  0  0  0  0  0  0  0  0  0  0  0
  1  2  1  0
  2  3  2  0
  3  4  1  0
  4  5  1  0
  5  6  2  0
  5  7  1  0
  7  8  1  0
  8  9  1  0
  9 10  2  0
 10 11  1  0
 11 12  2  0
 12 13  1  0
 13 14  1  0
 13 15  2  0
 13 16  2  0
 12 17  1  0
 17 18  2  0
  3 19  1  0
 19 20  2  0
 19 21  1  0
 21 22  1  0
 22 23  2  0
 23 24  1  0
 23 25  1  0
 25 26  1  0
 25 27  2  0
 27 28  1  0
 28 29  2  0
 29  2  1  0
 18  9  1  0
 29 22  1  0
  1 30  1  0
  1 31  1  0
  1 32  1  0
  4 33  1  0
  4 34  1  0
  8 35  1  0
  8 36  1  0
 10 37  1  0
 11 38  1  0
 14 39  1  0
 17 40  1  0
 18 41  1  0
 24 42  1  0
 24 43  1  0
 24 44  1  0
 26 45  1  0
 27 46  1  0
 28 47  1  0
M  CHG  2   7  -1  14  -1
M  END
>  <UniqueID>  (16) 
15

>  <SMILES>  (16) 
Cc1c(CC(=O)[N-]Cc2ccc(S([NH-])(=O)=O)cc2)c(=O)oc2c(C)c(O)ccc12

>  <Energy>  (16) 
52.64962971417699

>  <Genealogy>  (16) 
Cc1c(CC(=O)[N-]Cc2ccc(S([NH-])(=O)=O)cc2)c(=O)oc2c(C)c(O)ccc12 (protonated)
Cc1c(CC(=O)[N-]Cc2ccc(S([NH-])(=O)=O)cc2)c(=O)oc2c(C)c(O)ccc12 (3D coordinates assigned)
Cc1c(CC(=O)[N-]Cc2ccc(S([NH-])(=O)=O)cc2)c(=O)oc2c(C)c(O)ccc12 (optimized conformer: 52.64962971417699 kcal/mol)

>  <smiles>  (16) 
Cc1c(CC(=O)NCc2ccc(S(N)(=O)=O)cc2)c(=O)oc2c(C)c(O)ccc12

>  <score_type>  (16) 
oracle

>  <origin>  (16) 
adg

>  <m_score__min__energy>  (16) 
-12.130000000000001

>  <m_primary>  (16) 
energy

$$$$
16:0
     RDKit          3D

 46 48  0  0  0  0  0  0  0  0999 V2000
   58.5150   22.9370   47.0960 H   0  0  0  0  0  0  0  0  0  0  0  0
   58.3870   23.4270   46.2180 O   0  0  0  0  0  0  0  0  0  0  0  0
   57.9720   24.7570   46.1790 C   0  0  0  0  0  0  0  0  0  0  0  0
   56.6060   25.0480   46.1290 C   0  0  0  0  0  0  0  0  0  0  0  0
   55.8699   24.2306   46.1322 H   0  0  0  0  0  0  0  0  0  0  0  0
   56.1740   26.3750   46.0750 C   0  0  0  0  0  0  0  0  0  0  0  0
   54.8150   26.6600   46.0170 O   0  0  0  0  0  0  0  0  0  0  0  0
   57.1070   27.4160   46.0780 C   0  0  0  0  0  0  0  0  0  0  0  0
   56.7605   28.4587   46.0267 H   0  0  0  0  0  0  0  0  0  0  0  0
   58.4840   27.1420   46.1460 C   0  0  0  0  0  0  0  0  0  0  0  0
   59.4330   28.2840   46.1380 C   0  0  0  0  0  0  0  0  0  0  0  0
   59.7005   28.7271   45.1674 H   0  0  0  0  0  0  0  0  0  0  0  0
   59.9840   28.8080   47.2440 C   0  0  0  0  0  0  0  0  0  0  0  0
   60.2690   28.1274   48.0598 H   0  0  0  0  0  0  0  0  0  0  0  0
   60.2270   30.2600   47.4190 C   0  0  0  0  0  0  0  0  0  0  0  0
   61.5210   30.6960   47.7450 C   0  0  0  0  0  0  0  0  0  0  0  0
   62.3284   29.9596   47.8711 H   0  0  0  0  0  0  0  0  0  0  0  0
   61.7950   32.0660   47.9120 C   0  0  0  0  0  0  0  0  0  0  0  0
   63.0760   32.5440   48.2290 O   0  0  0  0  0  0  0  0  0  0  0  0
   63.3310   33.7080   49.0090 C   0  0  0  0  0  0  0  0  0  0  0  0
   63.2751   33.4528   50.0775 H   0  0  0  0  0  0  0  0  0  0  0  0
   64.3348   34.0929   48.7760 H   0  0  0  0  0  0  0  0  0  0  0  0
   62.5801   34.4773   48.7760 H   0  0  0  0  0  0  0  0  0  0  0  0
   60.7620   32.9950   47.7570 C   0  0  0  0  0  0  0  0  0  0  0  0
   60.9749   34.0673   47.8793 H   0  0  0  0  0  0  0  0  0  0  0  0
   59.4630   32.5820   47.4490 C   0  0  0  0  0  0  0  0  0  0  0  0
   58.4710   33.5660   47.3000 O   0  0  0  0  0  0  0  0  0  0  0  0
   58.1650   34.2530   46.0850 C   0  0  0  0  0  0  0  0  0  0  0  0
   57.2692   34.8729   46.2374 H   0  0  0  0  0  0  0  0  0  0  0  0
   59.0248   34.8818   45.8103 H   0  0  0  0  0  0  0  0  0  0  0  0
   57.9050   33.2760   44.9660 C   0  0  0  0  0  0  0  0  0  0  0  0
   58.5420   33.4300   43.7230 C   0  0  0  0  0  0  0  0  0  0  0  0
   59.2419   34.2638   43.5650 H   0  0  0  0  0  0  0  0  0  0  0  0
   58.2890   32.5270   42.6870 C   0  0  0  0  0  0  0  0  0  0  0  0
   58.7843   32.6567   41.7134 H   0  0  0  0  0  0  0  0  0  0  0  0
   57.4090   31.4600   42.8840 C   0  0  0  0  0  0  0  0  0  0  0  0
   57.2094   30.7533   42.0650 H   0  0  0  0  0  0  0  0  0  0  0  0
   56.7810   31.2900   44.1240 C   0  0  0  0  0  0  0  0  0  0  0  0
   55.8760   30.1890   44.3290 C   0  0  0  0  0  0  0  0  0  0  0  0
   55.1490   29.3040   44.4950 N   0  0  0  0  0  0  0  0  0  0  0  0
   57.0320   32.1950   45.1640 C   0  0  0  0  0  0  0  0  0  0  0  0
   56.5428   32.0576   46.1396 H   0  0  0  0  0  0  0  0  0  0  0  0
   59.1940   31.2090   47.3010 C   0  0  0  0  0  0  0  0  0  0  0  0
   58.1674   30.8741   47.0912 H   0  0  0  0  0  0  0  0  0  0  0  0
   58.9110   25.7980   46.1840 C   0  0  0  0  0  0  0  0  0  0  0  0
   59.9857   25.5657   46.2177 H   0  0  0  0  0  0  0  0  0  0  0  0
  1  2  1  0
  2  3  1  0
  3  4  2  0
  4  5  1  0
  4  6  1  0
  6  7  1  0
  6  8  2  0
  8  9  1  0
  8 10  1  0
 10 11  1  0
 11 12  1  0
 11 13  2  0
 13 14  1  0
 13 15  1  0
 15 16  2  0
 16 17  1  0
 16 18  1  0
 18 19  1  0
 19 20  1  0
 20 21  1  0
 20 22  1  0
 20 23  1  0
 18 24  2  0
 24 25  1  0
 24 26  1  0
 26 27  1  0
 27 28  1  0
 28 29  1  0
 28 30  1  0
 28 31  1  0
 31 32  2  0
 32 33  1  0
 32 34  1  0
 34 35  1  0
 34 36  2  0
 36 37  1  0
 36 38  1  0
 38 39  1  0
 39 40  3  0
 38 41  2  0
 41 42  1  0
 26 43  2  0
 43 44  1  0
 10 45  2  0
 45 46  1  0
 45  3  1  0
 43 15  1  0
 41 31  1  0
M  CHG  1   7  -1
M  END
>  <UniqueID>  (17) 
16

>  <SMILES>  (17) 
COc1cc(/C=C/c2cc([O-])cc(O)c2)cc(OCc2cccc(C#N)c2)c1

>  <Energy>  (17) 
51.04337650434834

>  <Genealogy>  (17) 
COc1cc(C=Cc2cc([O-])cc(O)c2)cc(OCc2cccc(C#N)c2)c1 (protonated)
COc1cc(/C=C/c2cc([O-])cc(O)c2)cc(OCc2cccc(C#N)c2)c1 (cis-trans isomerization)
COc1cc(/C=C/c2cc([O-])cc(O)c2)cc(OCc2cccc(C#N)c2)c1 (3D coordinates assigned)
COc1cc(/C=C/c2cc([O-])cc(O)c2)cc(OCc2cccc(C#N)c2)c1 (optimized conformer: 51.04337650434834 kcal/mol)

>  <smiles>  (17) 
COc1cc(C=Cc2cc(O)cc(O)c2)cc(OCc2cccc(C#N)c2)c1

>  <score_type>  (17) 
oracle

>  <origin>  (17) 
adg

>  <m_score__min__energy>  (17) 
-12.34

>  <m_primary>  (17) 
energy

$$$$
17:0
     RDKit          3D

 23 24  0  0  0  0  0  0  0  0999 V2000
   58.6290   28.9790   48.4860 O   0  0  0  0  0  0  0  0  0  0  0  0
   59.0480   29.9510   47.8040 C   0  0  0  0  0  0  0  0  0  0  0  0
   59.8210   29.7370   46.5720 C   0  0  0  0  0  0  0  0  0  0  0  0
   61.0740   29.8510   46.6120 O   0  0  0  0  0  0  0  0  0  0  0  0
   59.1890   29.4800   45.3110 N   0  0  0  0  0  0  0  0  0  0  0  0
   57.7790   29.5290   45.0590 C   0  0  0  0  0  0  0  0  0  0  0  0
   56.8750   28.4960   45.2210 C   0  0  0  0  0  0  0  0  0  0  0  0
   57.1530   27.1070   45.6580 C   0  0  0  0  0  0  0  0  0  0  0  0
   58.4740   26.6230   45.6990 C   0  0  0  0  0  0  0  0  0  0  0  0
   58.7390   25.3170   46.1220 C   0  0  0  0  0  0  0  0  0  0  0  0
   60.0180   24.8680   46.1600 F   0  0  0  0  0  0  0  0  0  0  0  0
   57.6910   24.4820   46.5160 C   0  0  0  0  0  0  0  0  0  0  0  0
   57.9530   23.1830   46.9390 O   0  0  0  0  0  0  0  0  0  0  0  0
   56.3760   24.9530   46.4890 C   0  0  0  0  0  0  0  0  0  0  0  0
   56.1020   26.2570   46.0640 C   0  0  0  0  0  0  0  0  0  0  0  0
   54.7810   26.6930   46.0360 O   0  0  0  0  0  0  0  0  0  0  0  0
   55.6470   28.9490   44.8940 N   0  0  0  0  0  0  0  0  0  0  0  0
   55.7360   30.2290   44.5600 N   0  0  0  0  0  0  0  0  0  0  0  0
   57.0230   30.6100   44.6540 C   0  0  0  0  0  0  0  0  0  0  0  0
   57.5650   32.2610   44.4140 Cl  0  0  0  0  0  0  0  0  0  0  0  0
   58.8320   30.9774   48.1356 H   0  0  0  0  0  0  0  0  0  0  0  0
   59.3045   27.2774   45.3958 H   0  0  0  0  0  0  0  0  0  0  0  0
   55.5523   24.2952   46.8034 H   0  0  0  0  0  0  0  0  0  0  0  0
  1  2  2  0
  2  3  1  0
  3  4  2  0
  3  5  1  0
  5  6  1  0
  6  7  1  0
  7  8  1  0
  8  9  2  0
  9 10  1  0
 10 11  1  0
 10 12  2  0
 12 13  1  0
 12 14  1  0
 14 15  2  0
 15 16  1  0
  7 17  2  0
 17 18  1  0
 18 19  1  0
 19 20  1  0
 19  6  2  0
 15  8  1  0
  2 21  1  0
  9 22  1  0
 14 23  1  0
M  CHG  4   5  -1  13  -1  16  -1  18  -1
M  END
>  <UniqueID>  (18) 
17

>  <SMILES>  (18) 
O=CC(=O)[N-]c1c(-c2cc(F)c([O-])cc2[O-])n[n-]c1Cl

>  <Energy>  (18) 
65.74597599280668

>  <Genealogy>  (18) 
O=CC(=O)[N-]c1c(-c2cc(F)c([O-])cc2[O-])n[n-]c1Cl (protonated)
O=CC(=O)[N-]c1c(-c2cc(F)c([O-])cc2[O-])n[n-]c1Cl (3D coordinates assigned)
O=CC(=O)[N-]c1c(-c2cc(F)c([O-])cc2[O-])n[n-]c1Cl (optimized conformer: 65.74597599280668 kcal/mol)

>  <smiles>  (18) 
O=CC(=O)Nc1c(-c2cc(F)c(O)cc2O)n[nH]c1Cl

>  <score_type>  (18) 
oracle

>  <origin>  (18) 
adg

>  <m_score__min__energy>  (18) 
-14.779999999999999

>  <m_primary>  (18) 
energy

$$$$
18:0
     RDKit          3D

 52 55  0  0  0  0  0  0  0  0999 V2000
   57.9970   24.1680   46.3230 N   0  0  0  0  0  0  0  0  0  0  0  0
   57.9260   25.5640   46.0040 C   0  0  0  0  0  0  0  0  0  0  0  0
   59.0960   26.2490   45.6490 C   0  0  0  0  0  0  0  0  0  0  0  0
   59.0490   27.6030   45.3040 C   0  0  0  0  0  0  0  0  0  0  0  0
   57.8330   28.2980   45.3070 C   0  0  0  0  0  0  0  0  0  0  0  0
   57.7830   29.7460   44.9690 C   0  0  0  0  0  0  0  0  0  0  0  0
   57.4600   30.1700   43.6680 C   0  0  0  0  0  0  0  0  0  0  0  0
   57.3750   31.5310   43.3680 C   0  0  0  0  0  0  0  0  0  0  0  0
   57.6210   32.4860   44.3540 C   0  0  0  0  0  0  0  0  0  0  0  0
   57.9650   32.0880   45.6520 C   0  0  0  0  0  0  0  0  0  0  0  0
   58.2510   33.1020   46.6280 N   0  0  0  0  0  0  0  0  0  0  0  0
   59.4300   34.3630   46.4430 S   0  0  0  0  0  0  0  0  0  0  0  0
   59.6460   34.6380   44.9810 O   0  0  0  0  0  0  0  0  0  0  0  0
   58.9310   35.5990   47.1370 O   0  0  0  0  0  0  0  0  0  0  0  0
   60.9690   33.8740   47.1620 C   0  0  0  0  0  0  0  0  0  0  0  0
   62.1280   33.8460   46.3700 C   0  0  0  0  0  0  0  0  0  0  0  0
   63.3580   33.4820   46.9280 C   0  0  0  0  0  0  0  0  0  0  0  0
   63.4430   33.1490   48.2820 C   0  0  0  0  0  0  0  0  0  0  0  0
   62.2950   33.1770   49.0800 C   0  0  0  0  0  0  0  0  0  0  0  0
   61.0570   33.5380   48.5310 C   0  0  0  0  0  0  0  0  0  0  0  0
   59.6520   33.5590   49.5910 Cl  0  0  0  0  0  0  0  0  0  0  0  0
   58.0380   30.7150   45.9590 C   0  0  0  0  0  0  0  0  0  0  0  0
   56.6540   27.6120   45.6500 C   0  0  0  0  0  0  0  0  0  0  0  0
   56.6880   26.2480   46.0010 C   0  0  0  0  0  0  0  0  0  0  0  0
   55.4930   25.5380   46.3670 N   0  0  0  0  0  0  0  0  0  0  0  0
   55.1370   23.8770   46.0140 S   0  0  0  0  0  0  0  0  0  0  0  0
   55.6680   22.9810   47.1030 O   0  0  0  0  0  0  0  0  0  0  0  0
   55.8240   23.4980   44.7330 O   0  0  0  0  0  0  0  0  0  0  0  0
   53.3970   23.6750   45.8110 C   0  0  0  0  0  0  0  0  0  0  0  0
   52.6880   24.4350   44.8650 C   0  0  0  0  0  0  0  0  0  0  0  0
   51.3100   24.2420   44.7010 C   0  0  0  0  0  0  0  0  0  0  0  0
   50.6370   23.3010   45.4870 C   0  0  0  0  0  0  0  0  0  0  0  0
   51.3350   22.5500   46.4370 C   0  0  0  0  0  0  0  0  0  0  0  0
   52.7130   22.7290   46.5950 C   0  0  0  0  0  0  0  0  0  0  0  0
   58.9080   23.6640   46.3800 H   0  0  0  0  0  0  0  0  0  0  0  0
   57.1260   23.6140   46.4860 H   0  0  0  0  0  0  0  0  0  0  0  0
   60.0588   25.7171   45.6418 H   0  0  0  0  0  0  0  0  0  0  0  0
   59.9756   28.1274   45.0276 H   0  0  0  0  0  0  0  0  0  0  0  0
   57.2730   29.4245   42.8811 H   0  0  0  0  0  0  0  0  0  0  0  0
   57.1127   31.8515   42.3489 H   0  0  0  0  0  0  0  0  0  0  0  0
   57.5446   33.5562   44.1113 H   0  0  0  0  0  0  0  0  0  0  0  0
   62.0684   34.1119   45.3043 H   0  0  0  0  0  0  0  0  0  0  0  0
   64.2603   33.4579   46.2992 H   0  0  0  0  0  0  0  0  0  0  0  0
   64.4114   32.8652   48.7198 H   0  0  0  0  0  0  0  0  0  0  0  0
   62.3641   32.9139   50.1458 H   0  0  0  0  0  0  0  0  0  0  0  0
   58.2962   30.3971   46.9799 H   0  0  0  0  0  0  0  0  0  0  0  0
   55.6931   28.1473   45.6441 H   0  0  0  0  0  0  0  0  0  0  0  0
   53.2152   25.1817   44.2531 H   0  0  0  0  0  0  0  0  0  0  0  0
   50.7573   24.8306   43.9540 H   0  0  0  0  0  0  0  0  0  0  0  0
   49.5550   23.1515   45.3571 H   0  0  0  0  0  0  0  0  0  0  0  0
   50.8004   21.8181   47.0604 H   0  0  0  0  0  0  0  0  0  0  0  0
   53.2631   22.1284   47.3343 H   0  0  0  0  0  0  0  0  0  0  0  0
  1  2  1  0
  2  3  2  0
  3  4  1  0
  4  5  2  0
  5  6  1  0
  6  7  2  0
  7  8  1  0
  8  9  2  0
  9 10  1  0
 10 11  1  0
 11 12  1  0
 12 13  2  0
 12 14  2  0
 12 15  1  0
 15 16  2  0
 16 17  1  0
 17 18  2  0
 18 19  1  0
 19 20  2  0
 20 21  1  0
 10 22  2  0
  5 23  1  0
 23 24  2  0
 24 25  1  0
 25 26  1  0
 26 27  2  0
 26 28  2  0
 26 29  1  0
 29 30  2  0
 30 31  1  0
 31 32  2  0
 32 33  1  0
 33 34  2  0
 24  2  1  0
 34 29  1  0
 22  6  1  0
 20 15  1  0
  1 35  1  0
  1 36  1  0
  3 37  1  0
  4 38  1  0
  7 39  1  0
  8 40  1  0
  9 41  1  0
 16 42  1  0
 17 43  1  0
 18 44  1  0
 19 45  1  0
 22 46  1  0
 23 47  1  0
 30 48  1  0
 31 49  1  0
 32 50  1  0
 33 51  1  0
 34 52  1  0
M  CHG  2  11  -1  25  -1
M  END
>  <UniqueID>  (19) 
18

>  <SMILES>  (19) 
Nc1ccc(-c2cccc([N-]S(=O)(=O)c3ccccc3Cl)c2)cc1[N-]S(=O)(=O)c1ccccc1

>  <Energy>  (19) 
71.61175369447164

>  <Genealogy>  (19) 
Nc1ccc(-c2cccc([N-]S(=O)(=O)c3ccccc3Cl)c2)cc1[N-]S(=O)(=O)c1ccccc1 (protonated)
Nc1ccc(-c2cccc([N-]S(=O)(=O)c3ccccc3Cl)c2)cc1[N-]S(=O)(=O)c1ccccc1 (3D coordinates assigned)
Nc1ccc(-c2cccc([N-]S(=O)(=O)c3ccccc3Cl)c2)cc1[N-]S(=O)(=O)c1ccccc1 (optimized conformer: 71.61175369447164 kcal/mol)

>  <smiles>  (19) 
Nc1ccc(-c2cccc(NS(=O)(=O)c3ccccc3Cl)c2)cc1NS(=O)(=O)c1ccccc1

>  <score_type>  (19) 
oracle

>  <origin>  (19) 
adg

>  <m_score__min__energy>  (19) 
-13.119999999999999

>  <m_primary>  (19) 
energy

$$$$
19:0
     RDKit          3D

 57 59  0  0  0  0  0  0  0  0999 V2000
   58.8490   34.5970   52.8380 C   0  0  0  0  0  0  0  0  0  0  0  0
   57.8870   33.6730   52.3400 O   0  0  0  0  0  0  0  0  0  0  0  0
   58.2020   32.4770   51.6760 C   0  0  0  0  0  0  0  0  0  0  0  0
   57.8260   31.2200   52.1830 C   0  0  0  0  0  0  0  0  0  0  0  0
   58.1620   30.0510   51.4970 C   0  0  0  0  0  0  0  0  0  0  0  0
   58.8950   30.1160   50.3000 C   0  0  0  0  0  0  0  0  0  0  0  0
   59.2420   28.9310   49.5610 N   0  0  0  0  0  0  0  0  0  0  0  0
   60.5360   28.3060   49.5790 C   0  0  0  0  0  0  0  0  0  0  0  0
   61.5040   28.8410   50.1870 O   0  0  0  0  0  0  0  0  0  0  0  0
   60.7630   27.0250   48.8320 C   0  0  0  0  0  0  0  0  0  0  0  0
   60.6470   27.2280   47.3860 N   0  0  0  0  0  0  0  0  0  0  0  0
   59.5010   27.8370   46.7620 C   0  0  0  0  0  0  0  0  0  0  0  0
   59.5250   29.2200   46.4620 C   0  0  0  0  0  0  0  0  0  0  0  0
   60.7420   30.0590   46.7510 C   0  0  0  0  0  0  0  0  0  0  0  0
   58.4250   29.8170   45.8300 C   0  0  0  0  0  0  0  0  0  0  0  0
   57.2900   29.0660   45.4970 C   0  0  0  0  0  0  0  0  0  0  0  0
   56.1470   29.7120   44.8100 C   0  0  0  0  0  0  0  0  0  0  0  0
   55.1200   29.0460   44.5070 O   0  0  0  0  0  0  0  0  0  0  0  0
   56.1930   31.0640   44.4880 O   0  0  0  0  0  0  0  0  0  0  0  0
   57.2660   27.6960   45.7940 C   0  0  0  0  0  0  0  0  0  0  0  0
   58.3690   27.0680   46.3960 C   0  0  0  0  0  0  0  0  0  0  0  0
   58.3170   25.5790   46.6130 C   0  0  0  0  0  0  0  0  0  0  0  0
   59.2400   31.3700   49.7790 C   0  0  0  0  0  0  0  0  0  0  0  0
   58.9090   32.5540   50.4660 C   0  0  0  0  0  0  0  0  0  0  0  0
   59.2610   33.8260   49.9810 O   0  0  0  0  0  0  0  0  0  0  0  0
   60.1390   34.0810   48.8840 C   0  0  0  0  0  0  0  0  0  0  0  0
   59.3930   34.0490   47.5770 C   0  0  0  0  0  0  0  0  0  0  0  0
   58.1220   33.4550   47.4970 C   0  0  0  0  0  0  0  0  0  0  0  0
   57.4290   33.4380   46.2830 C   0  0  0  0  0  0  0  0  0  0  0  0
   57.9930   34.0200   45.1450 C   0  0  0  0  0  0  0  0  0  0  0  0
   59.2520   34.6220   45.2190 C   0  0  0  0  0  0  0  0  0  0  0  0
   59.9490   34.6420   46.4320 C   0  0  0  0  0  0  0  0  0  0  0  0
   58.8351   34.5837   53.9378 H   0  0  0  0  0  0  0  0  0  0  0  0
   59.8497   34.3128   52.4805 H   0  0  0  0  0  0  0  0  0  0  0  0
   58.6054   35.6083   52.4805 H   0  0  0  0  0  0  0  0  0  0  0  0
   57.2635   31.1574   53.1262 H   0  0  0  0  0  0  0  0  0  0  0  0
   57.8512   29.0741   51.8958 H   0  0  0  0  0  0  0  0  0  0  0  0
   58.5320   28.5550   48.8910 H   0  0  0  0  0  0  0  0  0  0  0  0
   61.7709   26.6492   49.0620 H   0  0  0  0  0  0  0  0  0  0  0  0
   59.9980   26.2990   49.1445 H   0  0  0  0  0  0  0  0  0  0  0  0
   61.5200   27.1320   46.8190 H   0  0  0  0  0  0  0  0  0  0  0  0
   60.8744   30.1503   47.8392 H   0  0  0  0  0  0  0  0  0  0  0  0
   61.6300   29.5803   46.3124 H   0  0  0  0  0  0  0  0  0  0  0  0
   60.6104   31.0592   46.3124 H   0  0  0  0  0  0  0  0  0  0  0  0
   58.4535   30.8906   45.5921 H   0  0  0  0  0  0  0  0  0  0  0  0
   56.3707   27.1044   45.5522 H   0  0  0  0  0  0  0  0  0  0  0  0
   58.3096   25.3658   47.6921 H   0  0  0  0  0  0  0  0  0  0  0  0
   57.4041   25.1730   46.1527 H   0  0  0  0  0  0  0  0  0  0  0  0
   59.1993   25.1103   46.1527 H   0  0  0  0  0  0  0  0  0  0  0  0
   59.7765   31.4306   48.8206 H   0  0  0  0  0  0  0  0  0  0  0  0
   60.5967   35.0729   49.0127 H   0  0  0  0  0  0  0  0  0  0  0  0
   60.9124   33.2991   48.8652 H   0  0  0  0  0  0  0  0  0  0  0  0
   57.6710   33.0021   48.3923 H   0  0  0  0  0  0  0  0  0  0  0  0
   56.4375   32.9654   46.2236 H   0  0  0  0  0  0  0  0  0  0  0  0
   57.4461   34.0044   44.1907 H   0  0  0  0  0  0  0  0  0  0  0  0
   59.6954   35.0805   44.3228 H   0  0  0  0  0  0  0  0  0  0  0  0
   60.9361   35.1240   46.4889 H   0  0  0  0  0  0  0  0  0  0  0  0
  1  2  1  0
  2  3  1  0
  3  4  2  0
  4  5  1  0
  5  6  2  0
  6  7  1  0
  7  8  1  0
  8  9  2  0
  8 10  1  0
 10 11  1  0
 11 12  1  0
 12 13  2  0
 13 14  1  0
 13 15  1  0
 15 16  2  0
 16 17  1  0
 17 18  2  0
 17 19  1  0
 16 20  1  0
 20 21  2  0
 21 22  1  0
  6 23  1  0
 23 24  2  0
 24 25  1  0
 25 26  1  0
 26 27  1  0
 27 28  2  0
 28 29  1  0
 29 30  2  0
 30 31  1  0
 31 32  2  0
 24  3  1  0
 32 27  1  0
 21 12  1  0
  1 33  1  0
  1 34  1  0
  1 35  1  0
  4 36  1  0
  5 37  1  0
  7 38  1  0
 10 39  1  0
 10 40  1  0
 11 41  1  0
 14 42  1  0
 14 43  1  0
 14 44  1  0
 15 45  1  0
 20 46  1  0
 22 47  1  0
 22 48  1  0
 22 49  1  0
 23 50  1  0
 26 51  1  0
 26 52  1  0
 28 53  1  0
 29 54  1  0
 30 55  1  0
 31 56  1  0
 32 57  1  0
M  CHG  1  19  -1
M  END
>  <UniqueID>  (20) 
19

>  <SMILES>  (20) 
COc1ccc(NC(=O)CNc2c(C)cc(C(=O)[O-])cc2C)cc1OCc1ccccc1

>  <Energy>  (20) 
63.61624656621774

>  <Genealogy>  (20) 
COc1ccc(NC(=O)CNc2c(C)cc(C(=O)[O-])cc2C)cc1OCc1ccccc1 (protonated)
COc1ccc(NC(=O)CNc2c(C)cc(C(=O)[O-])cc2C)cc1OCc1ccccc1 (3D coordinates assigned)
COc1ccc(NC(=O)CNc2c(C)cc(C(=O)[O-])cc2C)cc1OCc1ccccc1 (optimized conformer: 63.61624656621774 kcal/mol)

>  <smiles>  (20) 
COc1ccc(NC(=O)CNc2c(C)cc(C(=O)O)cc2C)cc1OCc1ccccc1

>  <score_type>  (20) 
oracle

>  <origin>  (20) 
adg

>  <m_score__min__energy>  (20) 
-10.800000000000001

>  <m_primary>  (20) 
energy

$$$$
20:0
     RDKit          3D

 51 54  0  0  0  0  0  0  0  0999 V2000
   64.6890   33.0150   49.1100 C   0  0  0  0  0  0  0  0  0  0  0  0
   64.1450   33.0640   47.7960 O   0  0  0  0  0  0  0  0  0  0  0  0
   62.8010   32.7890   47.5250 C   0  0  0  0  0  0  0  0  0  0  0  0
   62.4910   31.8160   46.7850 O   0  0  0  0  0  0  0  0  0  0  0  0
   61.7430   33.7450   48.0090 C   0  0  2  0  0  0  0  0  0  0  0  0
   61.4430   33.4850   49.3800 O   0  0  0  0  0  0  0  0  0  0  0  0
   60.4480   32.5900   49.7900 C   0  0  0  0  0  0  0  0  0  0  0  0
   60.3960   32.1980   51.1400 C   0  0  0  0  0  0  0  0  0  0  0  0
   59.3920   31.3140   51.5240 C   0  0  0  0  0  0  0  0  0  0  0  0
   58.4760   30.8390   50.6430 C   0  0  0  0  0  0  0  0  0  0  0  0
   58.4840   31.2060   49.3020 C   0  0  0  0  0  0  0  0  0  0  0  0
   59.4910   32.0930   48.8610 C   0  0  0  0  0  0  0  0  0  0  0  0
   59.5200   32.5380   47.4180 C   0  0  2  0  0  0  0  0  0  0  0  0
   59.7600   31.4420   46.4580 N   0  0  0  0  0  0  0  0  0  0  0  0
   58.8810   30.8750   45.4590 C   0  0  0  0  0  0  0  0  0  0  0  0
   57.5190   31.6410   44.9450 S   0  0  0  0  0  0  0  0  0  0  0  0
   59.2580   29.6400   44.8210 N   0  0  0  0  0  0  0  0  0  0  0  0
   59.0380   28.5400   45.7240 C   0  0  0  0  0  0  0  0  0  0  0  0
   59.8990   28.3350   46.8180 C   0  0  0  0  0  0  0  0  0  0  0  0
   59.6750   27.2780   47.7040 C   0  0  0  0  0  0  0  0  0  0  0  0
   58.5990   26.4110   47.5020 C   0  0  0  0  0  0  0  0  0  0  0  0
   57.7380   26.5960   46.4140 C   0  0  0  0  0  0  0  0  0  0  0  0
   56.4080   25.4700   46.1560 S   0  0  0  0  0  0  0  0  0  0  0  0
   54.9260   26.3410   45.9970 N   0  0  0  0  0  0  0  0  0  0  0  0
   56.6460   24.6590   44.9110 O   0  0  0  0  0  0  0  0  0  0  0  0
   56.3160   24.5350   47.3290 O   0  0  0  0  0  0  0  0  0  0  0  0
   57.9510   27.6680   45.5350 C   0  0  0  0  0  0  0  0  0  0  0  0
   60.4440   33.7620   47.1690 C   0  0  2  0  0  0  0  0  0  0  0  0
   60.7310   33.9200   45.8020 O   0  0  0  0  0  0  0  0  0  0  0  0
   57.6060   29.9900   51.2980 O   0  0  0  0  0  0  0  0  0  0  0  0
   57.9990   29.9280   52.6760 C   0  0  0  0  0  0  0  0  0  0  0  0
   59.1430   30.7870   52.7770 O   0  0  0  0  0  0  0  0  0  0  0  0
   63.8754   33.0883   49.8467 H   0  0  0  0  0  0  0  0  0  0  0  0
   65.2255   32.0649   49.2495 H   0  0  0  0  0  0  0  0  0  0  0  0
   65.3866   33.8539   49.2495 H   0  0  0  0  0  0  0  0  0  0  0  0
   62.1756   34.7492   47.8892 H   0  0  0  0  0  0  0  0  0  0  0  0
   61.1262   32.5784   51.8695 H   0  0  0  0  0  0  0  0  0  0  0  0
   57.7278   30.8168   48.6044 H   0  0  0  0  0  0  0  0  0  0  0  0
   58.4954   32.8838   47.2167 H   0  0  0  0  0  0  0  0  0  0  0  0
   60.6700   30.9450   46.5930 H   0  0  0  0  0  0  0  0  0  0  0  0
   58.7110   29.5060   43.9380 H   0  0  0  0  0  0  0  0  0  0  0  0
   60.2680   29.6760   44.5460 H   0  0  0  0  0  0  0  0  0  0  0  0
   60.7527   29.0103   46.9765 H   0  0  0  0  0  0  0  0  0  0  0  0
   60.3472   27.1286   48.5618 H   0  0  0  0  0  0  0  0  0  0  0  0
   58.4273   25.5791   48.2009 H   0  0  0  0  0  0  0  0  0  0  0  0
   55.1590   27.3560   46.0710 H   0  0  0  0  0  0  0  0  0  0  0  0
   57.2629   27.8278   44.6918 H   0  0  0  0  0  0  0  0  0  0  0  0
   59.8717   34.6366   47.5120 H   0  0  0  0  0  0  0  0  0  0  0  0
   61.4550   33.2760   45.5840 H   0  0  0  0  0  0  0  0  0  0  0  0
   57.1874   30.2876   53.3256 H   0  0  0  0  0  0  0  0  0  0  0  0
   58.2262   28.8998   52.9940 H   0  0  0  0  0  0  0  0  0  0  0  0
  1  2  1  0
  2  3  1  0
  3  4  2  0
  3  5  1  0
  5  6  1  0
  6  7  1  0
  7  8  2  0
  8  9  1  0
  9 10  2  0
 10 11  1  0
 11 12  2  0
 12 13  1  0
 13 14  1  0
 14 15  1  0
 15 16  2  0
 15 17  1  0
 17 18  1  0
 18 19  2  0
 19 20  1  0
 20 21  2  0
 21 22  1  0
 22 23  1  0
 23 24  1  0
 23 25  2  0
 23 26  2  0
 22 27  2  0
 13 28  1  0
 28 29  1  0
 10 30  1  0
 30 31  1  0
 31 32  1  0
 28  5  1  0
 12  7  1  0
 27 18  1  0
 32  9  1  0
  1 33  1  0
  1 34  1  0
  1 35  1  0
  5 36  1  1
  8 37  1  0
 11 38  1  0
 13 39  1  6
 14 40  1  0
 17 41  1  0
 17 42  1  0
 19 43  1  0
 20 44  1  0
 21 45  1  0
 24 46  1  0
 27 47  1  0
 28 48  1  1
 29 49  1  0
 31 50  1  0
 31 51  1  0
M  CHG  2  17   1  24  -1
M  END
>  <UniqueID>  (21) 
20

>  <SMILES>  (21) 
COC(=O)[C@@H]1Oc2cc3c(cc2[C@H](NC(=S)[NH2+]c2cccc(S([NH-])(=O)=O)c2)C1O)OCO3

>  <Energy>  (21) 
88.13920019521177

>  <Genealogy>  (21) 
COC(=O)C1Oc2cc3c(cc2C(NC(=S)[NH2+]c2cccc(S([NH-])(=O)=O)c2)C1O)OCO3 (protonated)
COC(=O)[C@@H]1Oc2cc3c(cc2[C@H](NC(=S)[NH2+]c2cccc(S([NH-])(=O)=O)c2)C1O)OCO3 (chirality)
COC(=O)[C@@H]1Oc2cc3c(cc2[C@H](NC(=S)[NH2+]c2cccc(S([NH-])(=O)=O)c2)C1O)OCO3 (3D coordinates assigned)
COC(=O)[C@@H]1Oc2cc3c(cc2[C@H](NC(=S)[NH2+]c2cccc(S([NH-])(=O)=O)c2)C1O)OCO3 (nonaromatic ring conformer: 88.13920019521177 kcal/mol)

>  <smiles>  (21) 
COC(=O)C1Oc2cc3c(cc2C(NC(=S)Nc2cccc(S(N)(=O)=O)c2)C1O)OCO3

>  <score_type>  (21) 
oracle

>  <origin>  (21) 
adg

>  <m_score__min__energy>  (21) 
-9.2799999999999994

>  <m_primary>  (21) 
energy

$$$$
21:0
     RDKit          3D

 23 24  0  0  0  0  0  0  0  0999 V2000
   55.2620   29.7540   44.8770 O   0  0  0  0  0  0  0  0  0  0  0  0
   56.4360   29.3360   45.0610 C   0  0  0  0  0  0  0  0  0  0  0  0
   57.5300   30.1800   44.6780 N   0  0  0  0  0  0  0  0  0  0  0  0
   57.7870   31.5060   45.1630 C   0  0  0  0  0  0  0  0  0  0  0  0
   57.4090   32.5980   44.3710 C   0  0  0  0  0  0  0  0  0  0  0  0
   57.6360   33.9040   44.8120 C   0  0  0  0  0  0  0  0  0  0  0  0
   58.2300   34.1300   46.0560 C   0  0  0  0  0  0  0  0  0  0  0  0
   58.5840   33.0490   46.8690 C   0  0  0  0  0  0  0  0  0  0  0  0
   59.3020   33.3450   48.4440 Cl  0  0  0  0  0  0  0  0  0  0  0  0
   58.3550   31.7370   46.4330 C   0  0  0  0  0  0  0  0  0  0  0  0
   58.6480   30.6980   47.2570 F   0  0  0  0  0  0  0  0  0  0  0  0
   56.6530   27.9720   45.5960 C   0  0  0  0  0  0  0  0  0  0  0  0
   57.9070   27.5830   46.0900 C   0  0  0  0  0  0  0  0  0  0  0  0
   58.0550   26.2880   46.5900 C   0  0  0  0  0  0  0  0  0  0  0  0
   59.1690   25.9060   47.0350 O   0  0  0  0  0  0  0  0  0  0  0  0
   56.9970   25.4370   46.5960 N   0  0  0  0  0  0  0  0  0  0  0  0
   55.7860   25.8280   46.1210 C   0  0  0  0  0  0  0  0  0  0  0  0
   54.8160   25.0270   46.1350 O   0  0  0  0  0  0  0  0  0  0  0  0
   55.6220   27.0840   45.6310 N   0  0  0  0  0  0  0  0  0  0  0  0
   56.9304   32.4260   43.3956 H   0  0  0  0  0  0  0  0  0  0  0  0
   57.3466   34.7556   44.1788 H   0  0  0  0  0  0  0  0  0  0  0  0
   58.4193   35.1588   46.3961 H   0  0  0  0  0  0  0  0  0  0  0  0
   58.7553   28.2832   46.0835 H   0  0  0  0  0  0  0  0  0  0  0  0
  1  2  2  0
  2  3  1  0
  3  4  1  0
  4  5  2  0
  5  6  1  0
  6  7  2  0
  7  8  1  0
  8  9  1  0
  8 10  2  0
 10 11  1  0
  2 12  1  0
 12 13  2  0
 13 14  1  0
 14 15  2  0
 14 16  1  0
 16 17  1  0
 17 18  2  0
 17 19  1  0
 10  4  1  0
 19 12  1  0
  5 20  1  0
  6 21  1  0
  7 22  1  0
 13 23  1  0
M  CHG  3   3  -1  16  -1  19  -1
M  END
>  <UniqueID>  (22) 
21

>  <SMILES>  (22) 
O=C([N-]c1cccc(Cl)c1F)c1cc(=O)[n-]c(=O)[n-]1

>  <Energy>  (22) 
32.143845778678845

>  <Genealogy>  (22) 
O=C([N-]c1cccc(Cl)c1F)c1cc(=O)[n-]c(=O)[n-]1 (protonated)
O=C([N-]c1cccc(Cl)c1F)c1cc(=O)[n-]c(=O)[n-]1 (3D coordinates assigned)
O=C([N-]c1cccc(Cl)c1F)c1cc(=O)[n-]c(=O)[n-]1 (optimized conformer: 32.143845778678845 kcal/mol)

>  <smiles>  (22) 
O=C(Nc1cccc(Cl)c1F)c1cc(=O)[nH]c(=O)[nH]1

>  <score_type>  (22) 
oracle

>  <origin>  (22) 
adg

>  <m_score__min__energy>  (22) 
-12.359999999999999

>  <m_primary>  (22) 
energy

$$$$
22:0
     RDKit          3D

 31 32  0  0  0  0  0  0  0  0999 V2000
   63.7130   32.3340   47.0110 C   0  0  0  0  0  0  0  0  0  0  0  0
   63.3570   33.9530   47.7590 S   0  0  0  0  0  0  0  0  0  0  0  0
   61.7860   33.4190   48.4250 C   0  0  0  0  0  0  0  0  0  0  0  0
   60.7240   34.2690   48.4890 N   0  0  0  0  0  0  0  0  0  0  0  0
   59.4920   33.3600   49.1330 S   0  0  0  0  0  0  0  0  0  0  0  0
   60.3410   31.9450   49.3030 C   0  0  0  0  0  0  0  0  0  0  0  0
   59.6850   30.3910   49.9090 S   0  0  0  0  0  0  0  0  0  0  0  0
   60.7560   29.3390   48.8640 C   0  0  0  0  0  0  0  0  0  0  0  0
   60.5590   29.6310   47.4030 C   0  0  0  0  0  0  0  0  0  0  0  0
   61.5370   30.0580   46.7300 O   0  0  0  0  0  0  0  0  0  0  0  0
   59.2710   29.3610   46.7260 C   0  0  0  0  0  0  0  0  0  0  0  0
   58.5490   30.3920   46.1010 C   0  0  0  0  0  0  0  0  0  0  0  0
   57.3240   30.1240   45.4870 C   0  0  0  0  0  0  0  0  0  0  0  0
   56.7970   28.8300   45.4990 C   0  0  0  0  0  0  0  0  0  0  0  0
   55.5710   28.5880   44.8890 O   0  0  0  0  0  0  0  0  0  0  0  0
   57.5060   27.7890   46.1230 C   0  0  0  0  0  0  0  0  0  0  0  0
   56.8350   26.1580   46.1740 S   0  0  0  0  0  0  0  0  0  0  0  0
   55.1180   26.1970   45.9790 N   0  0  0  0  0  0  0  0  0  0  0  0
   57.1650   25.5260   47.4960 O   0  0  0  0  0  0  0  0  0  0  0  0
   57.4250   25.3350   45.0640 O   0  0  0  0  0  0  0  0  0  0  0  0
   58.7510   28.0560   46.7110 C   0  0  0  0  0  0  0  0  0  0  0  0
   61.6030   32.1380   48.8700 N   0  0  0  0  0  0  0  0  0  0  0  0
   63.8764   31.5910   47.8055 H   0  0  0  0  0  0  0  0  0  0  0  0
   62.8618   32.0230   46.3875 H   0  0  0  0  0  0  0  0  0  0  0  0
   64.6162   32.4088   46.3875 H   0  0  0  0  0  0  0  0  0  0  0  0
   61.8074   29.5266   49.1273 H   0  0  0  0  0  0  0  0  0  0  0  0
   60.4884   28.2875   49.0447 H   0  0  0  0  0  0  0  0  0  0  0  0
   58.9512   31.4158   46.0955 H   0  0  0  0  0  0  0  0  0  0  0  0
   56.7711   30.9356   44.9914 H   0  0  0  0  0  0  0  0  0  0  0  0
   54.7830   27.0950   46.3940 H   0  0  0  0  0  0  0  0  0  0  0  0
   59.3260   27.2355   47.1649 H   0  0  0  0  0  0  0  0  0  0  0  0
  1  2  1  0
  2  3  1  0
  3  4  2  0
  4  5  1  0
  5  6  1  0
  6  7  1  0
  7  8  1  0
  8  9  1  0
  9 10  2  0
  9 11  1  0
 11 12  2  0
 12 13  1  0
 13 14  2  0
 14 15  1  0
 14 16  1  0
 16 17  1  0
 17 18  1  0
 17 19  2  0
 17 20  2  0
 16 21  2  0
  6 22  2  0
 22  3  1  0
 21 11  1  0
  1 23  1  0
  1 24  1  0
  1 25  1  0
  8 26  1  0
  8 27  1  0
 12 28  1  0
 13 29  1  0
 18 30  1  0
 21 31  1  0
M  CHG  2  15  -1  18  -1
M  END
>  <UniqueID>  (23) 
22

>  <SMILES>  (23) 
CSc1nsc(SCC(=O)c2ccc([O-])c(S([NH-])(=O)=O)c2)n1

>  <Energy>  (23) 
60.854345561047005

>  <Genealogy>  (23) 
CSc1nsc(SCC(=O)c2ccc([O-])c(S([NH-])(=O)=O)c2)n1 (protonated)
CSc1nsc(SCC(=O)c2ccc([O-])c(S([NH-])(=O)=O)c2)n1 (3D coordinates assigned)
CSc1nsc(SCC(=O)c2ccc([O-])c(S([NH-])(=O)=O)c2)n1 (optimized conformer: 60.854345561047005 kcal/mol)

>  <smiles>  (23) 
CSc1nsc(SCC(=O)c2ccc(O)c(S(N)(=O)=O)c2)n1

>  <score_type>  (23) 
oracle

>  <origin>  (23) 
adg

>  <m_score__min__energy>  (23) 
-13.34

>  <m_primary>  (23) 
energy

$$$$
23:0
     RDKit          3D

 50 53  0  0  0  0  0  0  0  0999 V2000
   58.3580   28.4460   44.8190 O   0  0  0  0  0  0  0  0  0  0  0  0
   57.1760   28.8680   44.9340 C   0  0  0  0  0  0  0  0  0  0  0  0
   56.8980   30.2380   44.6240 N   0  0  0  0  0  0  0  0  0  0  0  0
   57.5580   31.3780   45.1940 C   0  0  0  0  0  0  0  0  0  0  0  0
   57.0050   32.6690   45.1130 C   0  0  0  0  0  0  0  0  0  0  0  0
   57.6620   33.7540   45.6990 C   0  0  0  0  0  0  0  0  0  0  0  0
   58.8660   33.5590   46.3850 C   0  0  0  0  0  0  0  0  0  0  0  0
   59.7080   34.9510   47.1360 S   0  0  0  0  0  0  0  0  0  0  0  0
   61.1790   33.9930   47.4830 C   0  0  0  0  0  0  0  0  0  0  0  0
   61.3390   33.3690   48.7250 C   0  0  0  0  0  0  0  0  0  0  0  0
   62.4950   32.6240   48.9720 C   0  0  0  0  0  0  0  0  0  0  0  0
   63.4740   32.5140   47.9810 C   0  0  0  0  0  0  0  0  0  0  0  0
   63.2800   33.1540   46.7540 C   0  0  0  0  0  0  0  0  0  0  0  0
   62.1460   33.8730   46.5330 N   0  0  0  0  0  0  0  0  0  0  0  0
   59.4080   32.2730   46.4860 C   0  0  0  0  0  0  0  0  0  0  0  0
   58.7500   31.1860   45.9020 C   0  0  0  0  0  0  0  0  0  0  0  0
   56.1150   27.9600   45.2670 N   0  0  0  0  0  0  0  0  0  0  0  0
   56.3160   26.6920   45.9160 C   0  0  0  0  0  0  0  0  0  0  0  0
   55.4860   25.5900   45.6460 C   0  0  0  0  0  0  0  0  0  0  0  0
   55.7170   24.3610   46.2710 C   0  0  0  0  0  0  0  0  0  0  0  0
   56.7940   24.2090   47.1650 C   0  0  0  0  0  0  0  0  0  0  0  0
   57.0720   22.9970   47.8190 O   0  0  0  0  0  0  0  0  0  0  0  0
   56.7910   21.6970   47.3010 C   0  0  0  0  0  0  0  0  0  0  0  0
   57.1540   21.6110   45.8470 C   0  0  0  0  0  0  0  0  0  0  0  0
   58.4380   21.9670   45.4100 C   0  0  0  0  0  0  0  0  0  0  0  0
   58.7490   21.8730   44.0520 C   0  0  0  0  0  0  0  0  0  0  0  0
   57.7850   21.4220   43.1480 C   0  0  0  0  0  0  0  0  0  0  0  0
   56.5200   21.0670   43.6190 C   0  0  0  0  0  0  0  0  0  0  0  0
   56.2350   21.1650   44.9460 N   0  0  0  0  0  0  0  0  0  0  0  0
   57.6270   25.3030   47.4190 C   0  0  0  0  0  0  0  0  0  0  0  0
   57.3980   26.5320   46.7940 C   0  0  0  0  0  0  0  0  0  0  0  0
   56.0519   32.8248   44.5864 H   0  0  0  0  0  0  0  0  0  0  0  0
   57.2320   34.7634   45.6209 H   0  0  0  0  0  0  0  0  0  0  0  0
   60.5630   33.4639   49.4988 H   0  0  0  0  0  0  0  0  0  0  0  0
   62.6339   32.1260   49.9429 H   0  0  0  0  0  0  0  0  0  0  0  0
   64.3877   31.9298   48.1648 H   0  0  0  0  0  0  0  0  0  0  0  0
   64.0442   33.0766   45.9666 H   0  0  0  0  0  0  0  0  0  0  0  0
   60.3536   32.1167   47.0259 H   0  0  0  0  0  0  0  0  0  0  0  0
   59.1715   30.1747   45.9996 H   0  0  0  0  0  0  0  0  0  0  0  0
   55.1520   28.1990   44.9410 H   0  0  0  0  0  0  0  0  0  0  0  0
   54.6500   25.6953   44.9389 H   0  0  0  0  0  0  0  0  0  0  0  0
   55.0539   23.5083   46.0632 H   0  0  0  0  0  0  0  0  0  0  0  0
   57.3734   20.9517   47.8625 H   0  0  0  0  0  0  0  0  0  0  0  0
   55.7138   21.5012   47.4070 H   0  0  0  0  0  0  0  0  0  0  0  0
   59.1927   22.3168   46.1298 H   0  0  0  0  0  0  0  0  0  0  0  0
   59.7510   22.1535   43.6952 H   0  0  0  0  0  0  0  0  0  0  0  0
   58.0201   21.3473   42.0760 H   0  0  0  0  0  0  0  0  0  0  0  0
   55.7530   20.7078   42.9171 H   0  0  0  0  0  0  0  0  0  0  0  0
   58.4703   25.1954   48.1171 H   0  0  0  0  0  0  0  0  0  0  0  0
   58.0708   27.3794   46.9920 H   0  0  0  0  0  0  0  0  0  0  0  0
  1  2  2  0
  2  3  1  0
  3  4  1  0
  4  5  2  0
  5  6  1  0
  6  7  2  0
  7  8  1  0
  8  9  1  0
  9 10  2  0
 10 11  1  0
 11 12  2  0
 12 13  1  0
 13 14  2  0
  7 15  1  0
 15 16  2  0
  2 17  1  0
 17 18  1  0
 18 19  2  0
 19 20  1  0
 20 21  2  0
 21 22  1  0
 22 23  1  0
 23 24  1  0
 24 25  2  0
 25 26  1  0
 26 27  2  0
 27 28  1  0
 28 29  2  0
 21 30  1  0
 30 31  2  0
 16  4  1  0
 31 18  1  0
 14  9  1  0
 29 24  1  0
  5 32  1  0
  6 33  1  0
 10 34  1  0
 11 35  1  0
 12 36  1  0
 13 37  1  0
 15 38  1  0
 16 39  1  0
 17 40  1  0
 19 41  1  0
 20 42  1  0
 23 43  1  0
 23 44  1  0
 25 45  1  0
 26 46  1  0
 27 47  1  0
 28 48  1  0
 30 49  1  0
 31 50  1  0
M  CHG  1   3  -1
M  END
>  <UniqueID>  (24) 
23

>  <SMILES>  (24) 
O=C([N-]c1ccc(Sc2ccccn2)cc1)Nc1ccc(OCc2ccccn2)cc1

>  <Energy>  (24) 
58.18310790945836

>  <Genealogy>  (24) 
O=C([N-]c1ccc(Sc2ccccn2)cc1)Nc1ccc(OCc2ccccn2)cc1 (protonated)
O=C([N-]c1ccc(Sc2ccccn2)cc1)Nc1ccc(OCc2ccccn2)cc1 (3D coordinates assigned)
O=C([N-]c1ccc(Sc2ccccn2)cc1)Nc1ccc(OCc2ccccn2)cc1 (optimized conformer: 58.18310790945836 kcal/mol)

>  <smiles>  (24) 
O=C(Nc1ccc(OCc2ccccn2)cc1)Nc1ccc(Sc2ccccn2)cc1

>  <score_type>  (24) 
oracle

>  <origin>  (24) 
adg

>  <m_score__min__energy>  (24) 
-10.710000000000001

>  <m_primary>  (24) 
energy

$$$$
24:0
     RDKit          3D

 48 50  0  0  0  0  0  0  0  0999 V2000
   54.7940   25.9010   45.8310 N   0  0  0  0  0  0  0  0  0  0  0  0
   54.6220   24.1820   45.8580 S   0  0  0  0  0  0  0  0  0  0  0  0
   53.4220   23.7920   45.0410 O   0  0  0  0  0  0  0  0  0  0  0  0
   54.4100   23.7190   47.2730 O   0  0  0  0  0  0  0  0  0  0  0  0
   56.0830   23.4380   45.1990 C   0  0  0  0  0  0  0  0  0  0  0  0
   55.9830   22.5450   44.1200 C   0  0  0  0  0  0  0  0  0  0  0  0
   57.1270   21.9600   43.5780 C   0  0  0  0  0  0  0  0  0  0  0  0
   58.3800   22.2590   44.1070 C   0  0  0  0  0  0  0  0  0  0  0  0
   58.4960   23.1450   45.1800 C   0  0  0  0  0  0  0  0  0  0  0  0
   57.3500   23.7460   45.7360 C   0  0  0  0  0  0  0  0  0  0  0  0
   57.4450   24.6760   46.8260 N   0  0  0  0  0  0  0  0  0  0  0  0
   58.3540   26.1520   46.8130 S   0  0  0  0  0  0  0  0  0  0  0  0
   59.8200   25.8290   46.8040 O   0  0  0  0  0  0  0  0  0  0  0  0
   58.0450   26.9480   48.0500 O   0  0  0  0  0  0  0  0  0  0  0  0
   57.9670   27.0590   45.3550 C   0  0  0  0  0  0  0  0  0  0  0  0
   58.4470   26.6470   44.1040 C   0  0  0  0  0  0  0  0  0  0  0  0
   58.1510   27.3940   42.9610 C   0  0  0  0  0  0  0  0  0  0  0  0
   57.3790   28.5550   43.0600 C   0  0  0  0  0  0  0  0  0  0  0  0
   56.9010   28.9840   44.3100 C   0  0  0  0  0  0  0  0  0  0  0  0
   56.0910   30.2200   44.4300 C   0  0  0  0  0  0  0  0  0  0  0  0
   54.8620   30.1820   44.1570 O   0  0  0  0  0  0  0  0  0  0  0  0
   56.6750   31.4770   44.8030 N   0  0  0  0  0  0  0  0  0  0  0  0
   57.8540   31.6550   45.6010 C   0  0  0  0  0  0  0  0  0  0  0  0
   58.5920   32.8360   45.4650 C   0  0  0  0  0  0  0  0  0  0  0  0
   59.7470   33.0370   46.2260 C   0  0  0  0  0  0  0  0  0  0  0  0
   60.1660   32.0650   47.1380 C   0  0  0  0  0  0  0  0  0  0  0  0
   59.4200   30.8890   47.3040 C   0  0  0  0  0  0  0  0  0  0  0  0
   59.9300   29.6510   48.4440 S   0  0  0  0  0  0  0  0  0  0  0  0
   60.2970   28.1960   47.5840 N   0  0  0  0  0  0  0  0  0  0  0  0
   61.1510   30.1280   49.1790 O   0  0  0  0  0  0  0  0  0  0  0  0
   58.8360   29.3700   49.4350 O   0  0  0  0  0  0  0  0  0  0  0  0
   58.2600   30.6930   46.5440 C   0  0  0  0  0  0  0  0  0  0  0  0
   57.1920   28.2220   45.4530 C   0  0  0  0  0  0  0  0  0  0  0  0
   53.8450   26.3060   45.9810 H   0  0  0  0  0  0  0  0  0  0  0  0
   54.9953   22.3052   43.6993 H   0  0  0  0  0  0  0  0  0  0  0  0
   57.0396   21.2621   42.7323 H   0  0  0  0  0  0  0  0  0  0  0  0
   59.2810   21.7959   43.6783 H   0  0  0  0  0  0  0  0  0  0  0  0
   59.4889   23.3751   45.5937 H   0  0  0  0  0  0  0  0  0  0  0  0
   59.0569   25.7352   44.0222 H   0  0  0  0  0  0  0  0  0  0  0  0
   58.5267   27.0674   41.9801 H   0  0  0  0  0  0  0  0  0  0  0  0
   57.1446   29.1355   42.1555 H   0  0  0  0  0  0  0  0  0  0  0  0
   58.2617   33.6096   44.7561 H   0  0  0  0  0  0  0  0  0  0  0  0
   60.3280   33.9634   46.1065 H   0  0  0  0  0  0  0  0  0  0  0  0
   61.0820   32.2222   47.7265 H   0  0  0  0  0  0  0  0  0  0  0  0
   60.1940   27.4090   48.2620 H   0  0  0  0  0  0  0  0  0  0  0  0
   59.5490   28.0700   46.8650 H   0  0  0  0  0  0  0  0  0  0  0  0
   57.6622   29.7805   46.6854 H   0  0  0  0  0  0  0  0  0  0  0  0
   56.8083   28.5408   46.4334 H   0  0  0  0  0  0  0  0  0  0  0  0
  1  2  1  0
  2  3  2  0
  2  4  2  0
  2  5  1  0
  5  6  2  0
  6  7  1  0
  7  8  2  0
  8  9  1  0
  9 10  2  0
 10 11  1  0
 11 12  1  0
 12 13  2  0
 12 14  2  0
 12 15  1  0
 15 16  2  0
 16 17  1  0
 17 18  2  0
 18 19  1  0
 19 20  1  0
 20 21  2  0
 20 22  1  0
 22 23  1  0
 23 24  2  0
 24 25  1  0
 25 26  2  0
 26 27  1  0
 27 28  1  0
 28 29  1  0
 28 30  2  0
 28 31  2  0
 27 32  2  0
 19 33  2  0
 10  5  1  0
 33 15  1  0
 32 23  1  0
  1 34  1  0
  6 35  1  0
  7 36  1  0
  8 37  1  0
  9 38  1  0
 16 39  1  0
 17 40  1  0
 18 41  1  0
 24 42  1  0
 25 43  1  0
 26 44  1  0
 29 45  1  0
 29 46  1  0
 32 47  1  0
 33 48  1  0
M  CHG  3   1  -1  11  -1  22  -1
M  END
>  <UniqueID>  (25) 
24

>  <SMILES>  (25) 
[NH-]S(=O)(=O)c1ccccc1[N-]S(=O)(=O)c1cccc(C(=O)[N-]c2cccc(S(N)(=O)=O)c2)c1

>  <Energy>  (25) 
57.10642319975426

>  <Genealogy>  (25) 
[NH-]S(=O)(=O)c1ccccc1[N-]S(=O)(=O)c1cccc(C(=O)[N-]c2cccc(S(N)(=O)=O)c2)c1 (protonated)
[NH-]S(=O)(=O)c1ccccc1[N-]S(=O)(=O)c1cccc(C(=O)[N-]c2cccc(S(N)(=O)=O)c2)c1 (3D coordinates assigned)
[NH-]S(=O)(=O)c1ccccc1[N-]S(=O)(=O)c1cccc(C(=O)[N-]c2cccc(S(N)(=O)=O)c2)c1 (optimized conformer: 57.10642319975426 kcal/mol)

>  <smiles>  (25) 
NS(=O)(=O)c1cccc(NC(=O)c2cccc(S(=O)(=O)Nc3ccccc3S(N)(=O)=O)c2)c1

>  <score_type>  (25) 
oracle

>  <origin>  (25) 
adg

>  <m_score__min__energy>  (25) 
-16.280000000000001

>  <m_primary>  (25) 
energy

$$$$
25:0
     RDKit          3D

 35 38  0  0  0  0  0  0  0  0999 V2000
   59.2690   35.7210   44.9170 N   0  0  0  0  0  0  0  0  0  0  0  0
   59.0870   34.5850   45.0480 C   0  0  0  0  0  0  0  0  0  0  0  0
   58.8620   33.1750   45.2100 C   0  0  0  0  0  0  0  0  0  0  0  0
   59.0900   32.3660   46.3350 C   0  0  0  0  0  0  0  0  0  0  0  0
   59.7060   32.8030   47.6280 C   0  0  0  0  0  0  0  0  0  0  0  0
   61.2010   32.8670   47.4880 C   0  0  0  0  0  0  0  0  0  0  0  0
   62.0220   31.9920   48.2190 C   0  0  0  0  0  0  0  0  0  0  0  0
   63.4140   32.0800   48.1140 C   0  0  0  0  0  0  0  0  0  0  0  0
   63.9940   33.0460   47.2880 C   0  0  0  0  0  0  0  0  0  0  0  0
   63.1850   33.9270   46.5660 C   0  0  0  0  0  0  0  0  0  0  0  0
   61.7930   33.8430   46.6670 C   0  0  0  0  0  0  0  0  0  0  0  0
   58.7390   31.0760   46.0720 N   0  0  0  0  0  0  0  0  0  0  0  0
   58.3050   31.0830   44.8240 N   0  0  0  0  0  0  0  0  0  0  0  0
   57.7760   30.1260   44.0090 C   0  0  0  0  0  0  0  0  0  0  0  0
   57.6110   28.7060   44.3940 C   0  0  0  0  0  0  0  0  0  0  0  0
   58.0430   27.6910   43.5200 C   0  0  0  0  0  0  0  0  0  0  0  0
   57.9010   26.3450   43.8690 C   0  0  0  0  0  0  0  0  0  0  0  0
   57.3350   25.9960   45.0980 C   0  0  0  0  0  0  0  0  0  0  0  0
   57.1580   24.3070   45.5370 Cl  0  0  0  0  0  0  0  0  0  0  0  0
   56.9160   26.9960   45.9810 C   0  0  0  0  0  0  0  0  0  0  0  0
   57.0560   28.3430   45.6350 C   0  0  0  0  0  0  0  0  0  0  0  0
   57.3810   30.5950   42.7810 N   0  0  0  0  0  0  0  0  0  0  0  0
   57.7310   32.2430   42.7670 S   0  0  0  0  0  0  0  0  0  0  0  0
   58.3550   32.2870   44.3030 C   0  0  0  0  0  0  0  0  0  0  0  0
   59.3221   33.7982   47.8966 H   0  0  0  0  0  0  0  0  0  0  0  0
   59.4472   32.0791   48.4147 H   0  0  0  0  0  0  0  0  0  0  0  0
   61.5686   31.2352   48.8761 H   0  0  0  0  0  0  0  0  0  0  0  0
   64.0527   31.3879   48.6824 H   0  0  0  0  0  0  0  0  0  0  0  0
   65.0889   33.1130   47.2060 H   0  0  0  0  0  0  0  0  0  0  0  0
   63.6438   34.6877   45.9173 H   0  0  0  0  0  0  0  0  0  0  0  0
   61.1591   34.5426   46.1025 H   0  0  0  0  0  0  0  0  0  0  0  0
   58.4962   27.9592   42.5542 H   0  0  0  0  0  0  0  0  0  0  0  0
   58.2352   25.5595   43.1753 H   0  0  0  0  0  0  0  0  0  0  0  0
   56.4750   26.7218   46.9507 H   0  0  0  0  0  0  0  0  0  0  0  0
   56.7302   29.1243   46.3374 H   0  0  0  0  0  0  0  0  0  0  0  0
  1  2  3  0
  2  3  1  0
  3  4  1  0
  4  5  1  0
  5  6  1  0
  6  7  2  0
  7  8  1  0
  8  9  2  0
  9 10  1  0
 10 11  2  0
  4 12  2  0
 12 13  1  0
 13 14  1  0
 14 15  1  0
 15 16  2  0
 16 17  1  0
 17 18  2  0
 18 19  1  0
 18 20  1  0
 20 21  2  0
 14 22  2  0
 22 23  1  0
 23 24  1  0
 24  3  2  0
 11  6  1  0
 24 13  1  0
 21 15  1  0
  5 25  1  0
  5 26  1  0
  7 27  1  0
  8 28  1  0
  9 29  1  0
 10 30  1  0
 11 31  1  0
 16 32  1  0
 17 33  1  0
 20 34  1  0
 21 35  1  0
M  END
>  <UniqueID>  (26) 
25

>  <SMILES>  (26) 
N#Cc1c(Cc2ccccc2)nn2c(-c3ccc(Cl)cc3)nsc12

>  <Energy>  (26) 
129.96467044858196

>  <Genealogy>  (26) 
N#Cc1c(Cc2ccccc2)nn2c(-c3ccc(Cl)cc3)nsc12 (3D coordinates assigned)
N#Cc1c(Cc2ccccc2)nn2c(-c3ccc(Cl)cc3)nsc12 (optimized conformer: 129.96467044858196 kcal/mol)

>  <smiles>  (26) 
N#Cc1c(Cc2ccccc2)nn2c(-c3ccc(Cl)cc3)nsc12

>  <score_type>  (26) 
oracle

>  <origin>  (26) 
adg

>  <m_score__min__energy>  (26) 
-8.1300000000000008

>  <m_primary>  (26) 
energy

$$$$
26:0
     RDKit          3D

 52 56  0  0  0  0  0  0  0  0999 V2000
   57.2690   32.3730   40.9870 C   0  0  0  0  0  0  0  0  0  0  0  0
   57.1990   31.5070   42.2000 C   0  0  0  0  0  0  0  0  0  0  0  0
   56.3200   30.4750   42.2480 N   0  0  0  0  0  0  0  0  0  0  0  0
   56.2600   29.6550   43.3280 C   0  0  0  0  0  0  0  0  0  0  0  0
   57.1150   29.8580   44.4200 C   0  0  0  0  0  0  0  0  0  0  0  0
   57.0110   28.9470   45.6180 C   0  0  0  0  0  0  0  0  0  0  0  0
   57.3260   27.5690   45.2170 N   0  0  0  0  0  0  0  0  0  0  0  0
   57.6130   26.7050   46.3720 C   0  0  0  0  0  0  0  0  0  0  0  0
   56.4250   25.8730   46.7580 C   0  0  0  0  0  0  0  0  0  0  0  0
   56.4950   25.1010   47.7530 O   0  0  0  0  0  0  0  0  0  0  0  0
   55.2280   25.9420   45.9770 N   0  0  0  0  0  0  0  0  0  0  0  0
   54.7200   24.8040   45.2260 C   0  0  0  0  0  0  0  0  0  0  0  0
   54.4490   23.5800   46.0830 C   0  0  0  0  0  0  0  0  0  0  0  0
   53.2930   24.4460   45.5980 C   0  0  0  0  0  0  0  0  0  0  0  0
   58.0560   30.9100   44.3320 C   0  0  0  0  0  0  0  0  0  0  0  0
   59.0270   31.1940   45.4060 C   0  0  0  0  0  0  0  0  0  0  0  0
   59.8480   30.1540   45.9020 C   0  0  0  0  0  0  0  0  0  0  0  0
   60.7990   30.4110   46.9010 C   0  0  0  0  0  0  0  0  0  0  0  0
   60.9010   31.7090   47.3980 C   0  0  0  0  0  0  0  0  0  0  0  0
   60.0850   32.7290   46.9430 C   0  0  0  0  0  0  0  0  0  0  0  0
   59.1320   32.4920   45.9520 C   0  0  0  0  0  0  0  0  0  0  0  0
   60.3890   34.0300   47.6260 C   0  0  0  0  0  0  0  0  0  0  0  0
   61.5050   33.6060   48.5370 C   0  0  0  0  0  0  0  0  0  0  0  0
   62.2250   34.3990   49.4310 C   0  0  0  0  0  0  0  0  0  0  0  0
   63.2480   33.8010   50.1870 C   0  0  0  0  0  0  0  0  0  0  0  0
   63.5340   32.4290   50.0400 C   0  0  0  0  0  0  0  0  0  0  0  0
   62.8010   31.6430   49.1360 C   0  0  0  0  0  0  0  0  0  0  0  0
   61.7920   32.2590   48.3970 C   0  0  0  0  0  0  0  0  0  0  0  0
   58.0630   31.7080   43.2310 N   0  0  0  0  0  0  0  0  0  0  0  0
   57.3541   33.4262   41.2928 H   0  0  0  0  0  0  0  0  0  0  0  0
   58.1475   32.0933   40.3870 H   0  0  0  0  0  0  0  0  0  0  0  0
   56.3570   32.2380   40.3870 H   0  0  0  0  0  0  0  0  0  0  0  0
   55.5365   28.8267   43.3464 H   0  0  0  0  0  0  0  0  0  0  0  0
   57.7219   29.2752   46.3905 H   0  0  0  0  0  0  0  0  0  0  0  0
   55.9876   28.9862   46.0195 H   0  0  0  0  0  0  0  0  0  0  0  0
   56.5140   27.1740   44.6850 H   0  0  0  0  0  0  0  0  0  0  0  0
   58.4479   26.0358   46.1167 H   0  0  0  0  0  0  0  0  0  0  0  0
   57.8686   27.3505   47.2252 H   0  0  0  0  0  0  0  0  0  0  0  0
   55.2646   24.9878   44.2881 H   0  0  0  0  0  0  0  0  0  0  0  0
   54.5949   22.5727   45.6658 H   0  0  0  0  0  0  0  0  0  0  0  0
   54.7969   23.2235   47.0638 H   0  0  0  0  0  0  0  0  0  0  0  0
   52.6036   24.0641   44.8306 H   0  0  0  0  0  0  0  0  0  0  0  0
   52.4593   24.9744   46.0835 H   0  0  0  0  0  0  0  0  0  0  0  0
   59.7398   29.1354   45.5011 H   0  0  0  0  0  0  0  0  0  0  0  0
   61.4475   29.6085   47.2822 H   0  0  0  0  0  0  0  0  0  0  0  0
   58.4744   33.3015   45.6024 H   0  0  0  0  0  0  0  0  0  0  0  0
   60.7184   34.7974   46.9100 H   0  0  0  0  0  0  0  0  0  0  0  0
   59.5308   34.4916   48.1363 H   0  0  0  0  0  0  0  0  0  0  0  0
   61.9969   35.4694   49.5419 H   0  0  0  0  0  0  0  0  0  0  0  0
   63.8287   34.4075   50.8975 H   0  0  0  0  0  0  0  0  0  0  0  0
   64.3363   31.9709   50.6370 H   0  0  0  0  0  0  0  0  0  0  0  0
   63.0169   30.5713   49.0144 H   0  0  0  0  0  0  0  0  0  0  0  0
  1  2  1  0
  2  3  2  0
  3  4  1  0
  4  5  2  0
  5  6  1  0
  6  7  1  0
  7  8  1  0
  8  9  1  0
  9 10  2  0
  9 11  1  0
 11 12  1  0
 12 13  1  0
 13 14  1  0
  5 15  1  0
 15 16  1  0
 16 17  2  0
 17 18  1  0
 18 19  2  0
 19 20  1  0
 20 21  2  0
 20 22  1  0
 22 23  1  0
 23 24  2  0
 24 25  1  0
 25 26  2  0
 26 27  1  0
 27 28  2  0
 15 29  2  0
 29  2  1  0
 14 12  1  0
 21 16  1  0
 28 23  1  0
 28 19  1  0
  1 30  1  0
  1 31  1  0
  1 32  1  0
  4 33  1  0
  6 34  1  0
  6 35  1  0
  7 36  1  0
  8 37  1  0
  8 38  1  0
 12 39  1  0
 13 40  1  0
 13 41  1  0
 14 42  1  0
 14 43  1  0
 17 44  1  0
 18 45  1  0
 21 46  1  0
 22 47  1  0
 22 48  1  0
 24 49  1  0
 25 50  1  0
 26 51  1  0
 27 52  1  0
M  CHG  1  11  -1
M  END
>  <UniqueID>  (27) 
26

>  <SMILES>  (27) 
Cc1ncc(CNCC(=O)[N-]C2CC2)c(-c2ccc3c(c2)Cc2ccccc2-3)n1

>  <Energy>  (27) 
346.283967397867

>  <Genealogy>  (27) 
Cc1ncc(CNCC(=O)[N-]C2CC2)c(-c2ccc3c(c2)Cc2ccccc2-3)n1 (protonated)
Cc1ncc(CNCC(=O)[N-]C2CC2)c(-c2ccc3c(c2)Cc2ccccc2-3)n1 (3D coordinates assigned)
Cc1ncc(CNCC(=O)[N-]C2CC2)c(-c2ccc3c(c2)Cc2ccccc2-3)n1 (nonaromatic ring conformer: 346.283967397867 kcal/mol)

>  <smiles>  (27) 
Cc1ncc(CNCC(=O)NC2CC2)c(-c2ccc3c(c2)Cc2ccccc2-3)n1

>  <score_type>  (27) 
oracle

>  <origin>  (27) 
adg

>  <m_score__min__energy>  (27) 
-11.050000000000001

>  <m_primary>  (27) 
energy

$$$$
27:0
     RDKit          3D

 31 32  0  0  0  0  0  0  0  0999 V2000
   58.3270   27.1780   43.7020 C   0  0  0  0  0  0  0  0  0  0  0  0
   58.4940   27.6410   45.1310 C   0  0  0  0  0  0  0  0  0  0  0  0
   59.2830   26.8900   46.0450 C   0  0  0  0  0  0  0  0  0  0  0  0
   59.8330   25.6070   45.7150 N   0  0  0  0  0  0  0  0  0  0  0  0
   59.1040   24.3720   45.6420 C   0  0  0  0  0  0  0  0  0  0  0  0
   59.7460   23.2910   45.7090 O   0  0  0  0  0  0  0  0  0  0  0  0
   57.6290   24.3290   45.5060 C   0  0  0  0  0  0  0  0  0  0  0  0
   57.0150   23.7420   44.3890 C   0  0  0  0  0  0  0  0  0  0  0  0
   55.6220   23.7050   44.2930 C   0  0  0  0  0  0  0  0  0  0  0  0
   54.8520   24.2690   45.3120 C   0  0  0  0  0  0  0  0  0  0  0  0
   53.1030   24.2350   45.2170 Cl  0  0  0  0  0  0  0  0  0  0  0  0
   55.4580   24.8530   46.3780 N   0  0  0  0  0  0  0  0  0  0  0  0
   56.8120   24.9020   46.4940 C   0  0  0  0  0  0  0  0  0  0  0  0
   59.5550   27.4060   47.3160 C   0  0  0  0  0  0  0  0  0  0  0  0
   58.9930   28.6120   47.7260 C   0  0  0  0  0  0  0  0  0  0  0  0
   58.1480   29.3160   46.8710 C   0  0  0  0  0  0  0  0  0  0  0  0
   57.8800   28.8410   45.5780 C   0  0  0  0  0  0  0  0  0  0  0  0
   56.7860   29.7820   44.5490 S   0  0  0  0  0  0  0  0  0  0  0  0
   55.1510   29.3170   44.8590 N   0  0  0  0  0  0  0  0  0  0  0  0
   57.0970   29.5350   43.1000 O   0  0  0  0  0  0  0  0  0  0  0  0
   56.9560   31.2490   44.8250 O   0  0  0  0  0  0  0  0  0  0  0  0
   57.9538   26.1433   43.6931 H   0  0  0  0  0  0  0  0  0  0  0  0
   57.6080   27.8316   43.1864 H   0  0  0  0  0  0  0  0  0  0  0  0
   59.2977   27.2221   43.1864 H   0  0  0  0  0  0  0  0  0  0  0  0
   57.6320   23.3101   43.5873 H   0  0  0  0  0  0  0  0  0  0  0  0
   55.1369   23.2366   43.4240 H   0  0  0  0  0  0  0  0  0  0  0  0
   57.2694   25.3927   47.3658 H   0  0  0  0  0  0  0  0  0  0  0  0
   60.2188   26.8542   47.9978 H   0  0  0  0  0  0  0  0  0  0  0  0
   59.2166   29.0097   48.7269 H   0  0  0  0  0  0  0  0  0  0  0  0
   57.6861   30.2539   47.2129 H   0  0  0  0  0  0  0  0  0  0  0  0
   55.1760   28.6110   45.6290 H   0  0  0  0  0  0  0  0  0  0  0  0
  1  2  1  0
  2  3  2  0
  3  4  1  0
  4  5  1  0
  5  6  2  0
  5  7  1  0
  7  8  2  0
  8  9  1  0
  9 10  2  0
 10 11  1  0
 10 12  1  0
 12 13  2  0
  3 14  1  0
 14 15  2  0
 15 16  1  0
 16 17  2  0
 17 18  1  0
 18 19  1  0
 18 20  2  0
 18 21  2  0
 17  2  1  0
 13  7  1  0
  1 22  1  0
  1 23  1  0
  1 24  1  0
  8 25  1  0
  9 26  1  0
 13 27  1  0
 14 28  1  0
 15 29  1  0
 16 30  1  0
 19 31  1  0
M  CHG  2   4  -1  19  -1
M  END
>  <UniqueID>  (28) 
27

>  <SMILES>  (28) 
Cc1c([N-]C(=O)c2ccc(Cl)nc2)cccc1S([NH-])(=O)=O

>  <Energy>  (28) 
44.301868622581

>  <Genealogy>  (28) 
Cc1c([N-]C(=O)c2ccc(Cl)nc2)cccc1S([NH-])(=O)=O (protonated)
Cc1c([N-]C(=O)c2ccc(Cl)nc2)cccc1S([NH-])(=O)=O (3D coordinates assigned)
Cc1c([N-]C(=O)c2ccc(Cl)nc2)cccc1S([NH-])(=O)=O (optimized conformer: 44.301868622581 kcal/mol)

>  <smiles>  (28) 
Cc1c(NC(=O)c2ccc(Cl)nc2)cccc1S(N)(=O)=O

>  <score_type>  (28) 
oracle

>  <origin>  (28) 
adg

>  <m_score__min__energy>  (28) 
-11.44

>  <m_primary>  (28) 
energy

$$$$
28:0
     RDKit          3D

 64 67  0  0  0  0  0  0  0  0999 V2000
   63.7810   33.2240   46.7730 C   0  0  0  0  0  0  0  0  0  0  0  0
   63.7800   32.5970   48.1640 C   0  0  0  0  0  0  0  0  0  0  0  0
   62.6200   33.1280   49.0120 C   0  0  0  0  0  0  0  0  0  0  0  0
   61.4190   33.4450   48.1620 C   0  0  0  0  0  0  0  0  0  0  0  0
   61.3550   34.5700   47.4170 N   0  0  0  0  0  0  0  0  0  0  0  0
   60.1440   34.5200   46.8320 C   0  0  0  0  0  0  0  0  0  0  0  0
   59.6360   35.5870   45.9160 C   0  0  0  0  0  0  0  0  0  0  0  0
   59.4810   33.3690   47.2250 C   0  0  0  0  0  0  0  0  0  0  0  0
   58.1150   32.9650   46.8190 C   0  0  0  0  0  0  0  0  0  0  0  0
   57.1070   33.4790   47.3730 O   0  0  0  0  0  0  0  0  0  0  0  0
   57.9420   32.0250   45.8010 O   0  0  0  0  0  0  0  0  0  0  0  0
   57.9620   32.3720   44.4220 C   0  0  0  0  0  0  0  0  0  0  0  0
   60.3000   32.6820   48.0580 N   0  0  0  0  0  0  0  0  0  0  0  0
   60.0630   31.3610   48.6630 C   0  0  0  0  0  0  0  0  0  0  0  0
   59.6590   30.3450   47.6210 C   0  0  0  0  0  0  0  0  0  0  0  0
   58.5760   29.4770   47.8450 C   0  0  0  0  0  0  0  0  0  0  0  0
   58.2020   28.5480   46.8740 C   0  0  0  0  0  0  0  0  0  0  0  0
   58.9150   28.4560   45.6740 C   0  0  0  0  0  0  0  0  0  0  0  0
   58.5440   27.4390   44.6760 C   0  0  0  0  0  0  0  0  0  0  0  0
   58.1850   27.8720   43.3920 C   0  0  0  0  0  0  0  0  0  0  0  0
   57.7780   26.9540   42.4220 C   0  0  0  0  0  0  0  0  0  0  0  0
   57.7270   25.5930   42.7270 C   0  0  0  0  0  0  0  0  0  0  0  0
   58.0860   25.1480   44.0000 C   0  0  0  0  0  0  0  0  0  0  0  0
   58.5050   26.0550   44.9860 C   0  0  0  0  0  0  0  0  0  0  0  0
   58.9560   25.4010   46.5730 S   0  0  0  0  0  0  0  0  0  0  0  0
   59.8740   26.3300   47.3170 O   0  0  0  0  0  0  0  0  0  0  0  0
   59.6850   24.1040   46.3710 O   0  0  0  0  0  0  0  0  0  0  0  0
   57.5250   25.0960   47.5030 N   0  0  0  0  0  0  0  0  0  0  0  0
   56.4040   24.4550   46.9500 N   0  0  0  0  0  0  0  0  0  0  0  0
   56.2330   23.1060   47.0950 C   0  0  0  0  0  0  0  0  0  0  0  0
   57.0970   22.4110   47.6920 O   0  0  0  0  0  0  0  0  0  0  0  0
   55.1040   22.4840   46.5630 C   0  0  0  0  0  0  0  0  0  0  0  0
   54.1790   23.2590   45.8630 C   0  0  0  0  0  0  0  0  0  0  0  0
   53.0290   22.6850   45.3260 O   0  0  0  0  0  0  0  0  0  0  0  0
   54.4050   24.5860   45.6980 N   0  0  0  0  0  0  0  0  0  0  0  0
   55.5050   25.1860   46.2260 C   0  0  0  0  0  0  0  0  0  0  0  0
   55.6780   26.4220   46.0550 O   0  0  0  0  0  0  0  0  0  0  0  0
   59.9690   29.3450   45.4250 C   0  0  0  0  0  0  0  0  0  0  0  0
   60.3350   30.2890   46.3910 C   0  0  0  0  0  0  0  0  0  0  0  0
   63.7827   34.3202   46.8649 H   0  0  0  0  0  0  0  0  0  0  0  0
   64.6786   32.9005   46.2256 H   0  0  0  0  0  0  0  0  0  0  0  0
   62.8823   32.9034   46.2256 H   0  0  0  0  0  0  0  0  0  0  0  0
   63.6818   31.5058   48.0653 H   0  0  0  0  0  0  0  0  0  0  0  0
   64.7243   32.8587   48.6639 H   0  0  0  0  0  0  0  0  0  0  0  0
   62.3417   32.3661   49.7550 H   0  0  0  0  0  0  0  0  0  0  0  0
   62.9482   34.0539   49.5069 H   0  0  0  0  0  0  0  0  0  0  0  0
   59.2383   36.4223   46.5111 H   0  0  0  0  0  0  0  0  0  0  0  0
   60.4589   35.9479   45.2815 H   0  0  0  0  0  0  0  0  0  0  0  0
   58.8371   35.1758   45.2815 H   0  0  0  0  0  0  0  0  0  0  0  0
   58.0250   33.4654   44.3199 H   0  0  0  0  0  0  0  0  0  0  0  0
   58.8349   31.9078   43.9397 H   0  0  0  0  0  0  0  0  0  0  0  0
   57.0416   32.0112   43.9397 H   0  0  0  0  0  0  0  0  0  0  0  0
   60.9862   31.0216   49.1555 H   0  0  0  0  0  0  0  0  0  0  0  0
   59.2448   31.4547   49.3923 H   0  0  0  0  0  0  0  0  0  0  0  0
   58.0198   29.5308   48.7925 H   0  0  0  0  0  0  0  0  0  0  0  0
   57.3427   27.8849   47.0527 H   0  0  0  0  0  0  0  0  0  0  0  0
   58.2243   28.9436   43.1467 H   0  0  0  0  0  0  0  0  0  0  0  0
   57.4975   27.3034   41.4174 H   0  0  0  0  0  0  0  0  0  0  0  0
   57.4035   24.8705   41.9633 H   0  0  0  0  0  0  0  0  0  0  0  0
   58.0401   24.0740   44.2335 H   0  0  0  0  0  0  0  0  0  0  0  0
   54.9458   21.4032   46.6928 H   0  0  0  0  0  0  0  0  0  0  0  0
   52.9330   21.6820   45.2380 H   0  0  0  0  0  0  0  0  0  0  0  0
   60.5099   29.3008   44.4682 H   0  0  0  0  0  0  0  0  0  0  0  0
   61.1566   30.9911   46.1860 H   0  0  0  0  0  0  0  0  0  0  0  0
  1  2  1  0
  2  3  1  0
  3  4  1  0
  4  5  2  0
  5  6  1  0
  6  7  1  0
  6  8  2  0
  8  9  1  0
  9 10  2  0
  9 11  1  0
 11 12  1  0
  8 13  1  0
 13 14  1  0
 14 15  1  0
 15 16  2  0
 16 17  1  0
 17 18  2  0
 18 19  1  0
 19 20  2  0
 20 21  1  0
 21 22  2  0
 22 23  1  0
 23 24  2  0
 24 25  1  0
 25 26  2  0
 25 27  2  0
 25 28  1  0
 28 29  1  0
 29 30  1  0
 30 31  2  0
 30 32  1  0
 32 33  2  0
 33 34  1  0
 33 35  1  0
 35 36  1  0
 36 37  2  0
 18 38  1  0
 38 39  2  0
 13  4  1  0
 39 15  1  0
 24 19  1  0
 36 29  1  0
  1 40  1  0
  1 41  1  0
  1 42  1  0
  2 43  1  0
  2 44  1  0
  3 45  1  0
  3 46  1  0
  7 47  1  0
  7 48  1  0
  7 49  1  0
 12 50  1  0
 12 51  1  0
 12 52  1  0
 14 53  1  0
 14 54  1  0
 16 55  1  0
 17 56  1  0
 20 57  1  0
 21 58  1  0
 22 59  1  0
 23 60  1  0
 32 61  1  0
 34 62  1  0
 38 63  1  0
 39 64  1  0
M  CHG  2  28  -1  35  -1
M  END
>  <UniqueID>  (29) 
28

>  <SMILES>  (29) 
CCCc1nc(C)c(C(=O)OC)n1Cc1ccc(-c2ccccc2S(=O)(=O)[N-]n2c(=O)cc(O)[n-]c2=O)cc1

>  <Energy>  (29) 
104.95871820929432

>  <Genealogy>  (29) 
CCCc1nc(C)c(C(=O)OC)n1Cc1ccc(-c2ccccc2S(=O)(=O)[N-]n2c(=O)cc(O)[n-]c2=O)cc1 (protonated)
CCCc1nc(C)c(C(=O)OC)n1Cc1ccc(-c2ccccc2S(=O)(=O)[N-]n2c(=O)cc(O)[n-]c2=O)cc1 (3D coordinates assigned)
CCCc1nc(C)c(C(=O)OC)n1Cc1ccc(-c2ccccc2S(=O)(=O)[N-]n2c(=O)cc(O)[n-]c2=O)cc1 (optimized conformer: 104.95871820929432 kcal/mol)

>  <smiles>  (29) 
CCCc1nc(C)c(C(=O)OC)n1Cc1ccc(-c2ccccc2S(=O)(=O)Nn2c(=O)cc(O)[nH]c2=O)cc1

>  <score_type>  (29) 
oracle

>  <origin>  (29) 
adg

>  <m_score__min__energy>  (29) 
-12.210000000000001

>  <m_primary>  (29) 
energy

$$$$
29:0
     RDKit          3D

 42 44  0  0  0  0  0  0  0  0999 V2000
   57.0286   30.9398   42.1255 H   0  0  0  0  0  0  0  0  0  0  0  0
   57.3650   31.5280   42.9920 C   0  0  0  0  0  0  0  0  0  0  0  0
   58.1490   32.6230   42.9390 N   0  0  0  0  0  0  0  0  0  0  0  0
   58.3480   33.0420   44.1820 N   0  0  0  0  0  0  0  0  0  0  0  0
   59.2000   34.1760   44.5220 C   0  0  0  0  0  0  0  0  0  0  0  0
   59.2690   34.2678   45.6160 H   0  0  0  0  0  0  0  0  0  0  0  0
   60.2048   34.0182   44.1032 H   0  0  0  0  0  0  0  0  0  0  0  0
   58.7687   35.0972   44.1032 H   0  0  0  0  0  0  0  0  0  0  0  0
   57.7080   32.2280   45.0470 C   0  0  0  0  0  0  0  0  0  0  0  0
   57.8210   32.2890   46.5390 C   0  0  0  0  0  0  0  0  0  0  0  0
   56.9394   31.8131   46.9932 H   0  0  0  0  0  0  0  0  0  0  0  0
   58.7299   31.7590   46.8599 H   0  0  0  0  0  0  0  0  0  0  0  0
   57.8766   33.3397   46.8599 H   0  0  0  0  0  0  0  0  0  0  0  0
   57.0520   31.2640   44.3140 C   0  0  0  0  0  0  0  0  0  0  0  0
   56.4390   30.0780   44.8440 N   0  0  0  0  0  0  0  0  0  0  0  0
   57.0110   28.9460   45.1410 C   0  0  0  0  0  0  0  0  0  0  0  0
   56.2340   27.9330   45.6080 N   0  0  0  0  0  0  0  0  0  0  0  0
   56.7380   26.7160   45.9390 C   0  0  0  0  0  0  0  0  0  0  0  0
   56.0675   25.9289   46.3143 H   0  0  0  0  0  0  0  0  0  0  0  0
   58.1110   26.4590   45.8040 C   0  0  0  0  0  0  0  0  0  0  0  0
   58.6820   25.1370   46.1550 C   0  0  0  0  0  0  0  0  0  0  0  0
   59.9220   24.9480   46.0320 O   0  0  0  0  0  0  0  0  0  0  0  0
   57.8610   24.0420   46.5830 N   0  0  0  0  0  0  0  0  0  0  0  0
   56.5270   23.7590   46.1350 C   0  0  0  0  0  0  0  0  0  0  0  0
   56.1900   23.7580   44.7710 C   0  0  0  0  0  0  0  0  0  0  0  0
   56.9621   23.9675   44.0161 H   0  0  0  0  0  0  0  0  0  0  0  0
   54.8780   23.4920   44.3690 C   0  0  0  0  0  0  0  0  0  0  0  0
   54.6257   23.4793   43.2984 H   0  0  0  0  0  0  0  0  0  0  0  0
   53.8770   23.2400   45.3280 C   0  0  0  0  0  0  0  0  0  0  0  0
   52.5450   22.9650   44.9830 O   0  0  0  0  0  0  0  0  0  0  0  0
   51.6920   23.8310   44.2360 C   0  0  0  0  0  0  0  0  0  0  0  0
   52.2010   24.0220   42.9640 F   0  0  0  0  0  0  0  0  0  0  0  0
   50.4190   23.2950   44.1590 F   0  0  0  0  0  0  0  0  0  0  0  0
   51.6220   25.0520   44.8770 F   0  0  0  0  0  0  0  0  0  0  0  0
   54.2160   23.2670   46.6870 C   0  0  0  0  0  0  0  0  0  0  0  0
   53.4421   23.0778   47.4455 H   0  0  0  0  0  0  0  0  0  0  0  0
   55.5280   23.5320   47.0880 C   0  0  0  0  0  0  0  0  0  0  0  0
   55.7769   23.5623   48.1590 H   0  0  0  0  0  0  0  0  0  0  0  0
   58.9310   27.4720   45.2880 C   0  0  0  0  0  0  0  0  0  0  0  0
   60.0060   27.2871   45.1455 H   0  0  0  0  0  0  0  0  0  0  0  0
   58.3890   28.7150   44.9540 C   0  0  0  0  0  0  0  0  0  0  0  0
   59.0332   29.5087   44.5476 H   0  0  0  0  0  0  0  0  0  0  0  0
  1  2  1  0
  2  3  2  0
  3  4  1  0
  4  5  1  0
  5  6  1  0
  5  7  1  0
  5  8  1  0
  4  9  1  0
  9 10  1  0
 10 11  1  0
 10 12  1  0
 10 13  1  0
  9 14  2  0
 14 15  1  0
 15 16  2  0
 16 17  1  0
 17 18  1  0
 18 19  1  0
 18 20  2  0
 20 21  1  0
 21 22  2  0
 21 23  1  0
 23 24  1  0
 24 25  2  0
 25 26  1  0
 25 27  1  0
 27 28  1  0
 27 29  2  0
 29 30  1  0
 30 31  1  0
 31 32  1  0
 31 33  1  0
 31 34  1  0
 29 35  1  0
 35 36  1  0
 35 37  2  0
 37 38  1  0
 20 39  1  0
 39 40  1  0
 39 41  2  0
 41 42  1  0
 14  2  1  0
 41 16  1  0
 37 24  1  0
M  CHG  2  17  -1  23  -1
M  END
>  <UniqueID>  (30) 
29

>  <SMILES>  (30) 
Cc1c(/N=c2\ccc(C(=O)[N-]c3ccc(OC(F)(F)F)cc3)c[n-]2)cnn1C

>  <Energy>  (30) 
90.32434963696707

>  <Genealogy>  (30) 
Cc1c(N=c2ccc(C(=O)[N-]c3ccc(OC(F)(F)F)cc3)c[n-]2)cnn1C (protonated)
Cc1c(/N=c2\ccc(C(=O)[N-]c3ccc(OC(F)(F)F)cc3)c[n-]2)cnn1C (cis-trans isomerization)
Cc1c(/N=c2\ccc(C(=O)[N-]c3ccc(OC(F)(F)F)cc3)c[n-]2)cnn1C (3D coordinates assigned)
Cc1c(/N=c2\ccc(C(=O)[N-]c3ccc(OC(F)(F)F)cc3)c[n-]2)cnn1C (optimized conformer: 90.32434963696707 kcal/mol)

>  <smiles>  (30) 
Cc1c(N=c2ccc(C(=O)Nc3ccc(OC(F)(F)F)cc3)c[nH]2)cnn1C

>  <score_type>  (30) 
oracle

>  <origin>  (30) 
adg

>  <m_score__min__energy>  (30) 
-10.25

>  <m_primary>  (30) 
energy

$$$$
30:0
     RDKit          3D

 44 46  0  0  0  0  0  0  0  0999 V2000
   58.0740   27.4780   43.4210 C   0  0  0  0  0  0  0  0  0  0  0  0
   58.5050   28.4740   44.4550 C   0  0  0  0  0  0  0  0  0  0  0  0
   58.3060   29.8400   44.3960 C   0  0  0  0  0  0  0  0  0  0  0  0
   57.7610   30.5300   43.3150 O   0  0  0  0  0  0  0  0  0  0  0  0
   58.7500   30.4060   45.5410 N   0  0  0  0  0  0  0  0  0  0  0  0
   58.6900   31.7870   45.9320 C   0  0  0  0  0  0  0  0  0  0  0  0
   57.6220   32.5940   45.5070 C   0  0  0  0  0  0  0  0  0  0  0  0
   57.5700   33.9400   45.8740 C   0  0  0  0  0  0  0  0  0  0  0  0
   58.5850   34.4920   46.6610 C   0  0  0  0  0  0  0  0  0  0  0  0
   59.6620   33.7050   47.0850 C   0  0  0  0  0  0  0  0  0  0  0  0
   60.6830   34.3190   47.8850 N   0  0  0  0  0  0  0  0  0  0  0  0
   62.3480   33.8380   47.9500 S   0  0  0  0  0  0  0  0  0  0  0  0
   62.4720   32.0950   48.2890 C   0  0  0  0  0  0  0  0  0  0  0  0
   63.0240   34.5920   49.0600 O   0  0  0  0  0  0  0  0  0  0  0  0
   63.0310   34.1720   46.6540 O   0  0  0  0  0  0  0  0  0  0  0  0
   59.7120   32.3500   46.7110 C   0  0  0  0  0  0  0  0  0  0  0  0
   59.2050   29.3680   46.2770 C   0  0  0  0  0  0  0  0  0  0  0  0
   59.6730   29.4920   47.4420 O   0  0  0  0  0  0  0  0  0  0  0  0
   59.0730   28.1790   45.6470 N   0  0  0  0  0  0  0  0  0  0  0  0
   59.3790   26.8540   46.1950 C   0  0  0  0  0  0  0  0  0  0  0  0
   58.1540   25.9820   46.1630 C   0  0  0  0  0  0  0  0  0  0  0  0
   58.2730   24.5820   46.1590 C   0  0  0  0  0  0  0  0  0  0  0  0
   57.1310   23.7770   46.1010 C   0  0  0  0  0  0  0  0  0  0  0  0
   55.8630   24.3620   46.0490 C   0  0  0  0  0  0  0  0  0  0  0  0
   55.7350   25.7550   46.0490 C   0  0  0  0  0  0  0  0  0  0  0  0
   54.4740   26.3360   45.9950 O   0  0  0  0  0  0  0  0  0  0  0  0
   56.8760   26.5630   46.1050 C   0  0  0  0  0  0  0  0  0  0  0  0
   57.6845   26.5778   43.9189 H   0  0  0  0  0  0  0  0  0  0  0  0
   57.2863   27.9193   42.7926 H   0  0  0  0  0  0  0  0  0  0  0  0
   58.9349   27.2060   42.7926 H   0  0  0  0  0  0  0  0  0  0  0  0
   57.9980   30.2960   42.3600 H   0  0  0  0  0  0  0  0  0  0  0  0
   56.8243   32.1644   44.8832 H   0  0  0  0  0  0  0  0  0  0  0  0
   56.7290   34.5672   45.5434 H   0  0  0  0  0  0  0  0  0  0  0  0
   58.5369   35.5525   46.9491 H   0  0  0  0  0  0  0  0  0  0  0  0
   62.4835   31.9330   49.3769 H   0  0  0  0  0  0  0  0  0  0  0  0
   61.6087   31.5737   47.8498 H   0  0  0  0  0  0  0  0  0  0  0  0
   63.4004   31.7012   47.8498 H   0  0  0  0  0  0  0  0  0  0  0  0
   60.5595   31.7265   47.0320 H   0  0  0  0  0  0  0  0  0  0  0  0
   60.1731   26.3869   45.5939 H   0  0  0  0  0  0  0  0  0  0  0  0
   59.7126   26.9654   47.2373 H   0  0  0  0  0  0  0  0  0  0  0  0
   59.2690   24.1171   46.2017 H   0  0  0  0  0  0  0  0  0  0  0  0
   57.2310   22.6816   46.0963 H   0  0  0  0  0  0  0  0  0  0  0  0
   54.9656   23.7272   46.0081 H   0  0  0  0  0  0  0  0  0  0  0  0
   56.7720   27.6581   46.1036 H   0  0  0  0  0  0  0  0  0  0  0  0
  1  2  1  0
  2  3  2  0
  3  4  1  0
  3  5  1  0
  5  6  1  0
  6  7  2  0
  7  8  1  0
  8  9  2  0
  9 10  1  0
 10 11  1  0
 11 12  1  0
 12 13  1  0
 12 14  2  0
 12 15  2  0
 10 16  2  0
  5 17  1  0
 17 18  2  0
 17 19  1  0
 19 20  1  0
 20 21  1  0
 21 22  2  0
 22 23  1  0
 23 24  2  0
 24 25  1  0
 25 26  1  0
 25 27  2  0
 19  2  1  0
 27 21  1  0
 16  6  1  0
  1 28  1  0
  1 29  1  0
  1 30  1  0
  4 31  1  0
  7 32  1  0
  8 33  1  0
  9 34  1  0
 13 35  1  0
 13 36  1  0
 13 37  1  0
 16 38  1  0
 20 39  1  0
 20 40  1  0
 22 41  1  0
 23 42  1  0
 24 43  1  0
 27 44  1  0
M  CHG  2  11  -1  26  -1
M  END
>  <UniqueID>  (31) 
30

>  <SMILES>  (31) 
Cc1c(O)n(-c2cccc([N-]S(C)(=O)=O)c2)c(=O)n1Cc1cccc([O-])c1

>  <Energy>  (31) 
82.46915279251704

>  <Genealogy>  (31) 
Cc1c(O)n(-c2cccc([N-]S(C)(=O)=O)c2)c(=O)n1Cc1cccc([O-])c1 (protonated)
Cc1c(O)n(-c2cccc([N-]S(C)(=O)=O)c2)c(=O)n1Cc1cccc([O-])c1 (3D coordinates assigned)
Cc1c(O)n(-c2cccc([N-]S(C)(=O)=O)c2)c(=O)n1Cc1cccc([O-])c1 (optimized conformer: 82.46915279251704 kcal/mol)

>  <smiles>  (31) 
Cc1c(O)n(-c2cccc(NS(C)(=O)=O)c2)c(=O)n1Cc1cccc(O)c1

>  <score_type>  (31) 
oracle

>  <origin>  (31) 
adg

>  <m_score__min__energy>  (31) 
-12.77

>  <m_primary>  (31) 
energy

$$$$
31:0
     RDKit          3D

 54 56  0  0  0  0  0  0  0  0999 V2000
   59.2990   35.2200   45.2480 C   0  0  0  0  0  0  0  0  0  0  0  0
   59.1030   34.0900   46.2260 C   0  0  0  0  0  0  0  0  0  0  0  0
   59.9220   34.0660   47.3640 C   0  0  0  0  0  0  0  0  0  0  0  0
   59.8980   32.9830   48.2410 C   0  0  0  0  0  0  0  0  0  0  0  0
   59.0520   31.8950   47.9990 C   0  0  0  0  0  0  0  0  0  0  0  0
   59.0700   30.4960   49.0810 S   0  0  0  0  0  0  0  0  0  0  0  0
   58.6250   29.2780   48.3220 O   0  0  0  0  0  0  0  0  0  0  0  0
   60.4820   30.2640   49.5470 O   0  0  0  0  0  0  0  0  0  0  0  0
   58.0330   30.7790   50.4670 N   0  0  0  0  0  0  0  0  0  0  0  0
   58.0900   32.1990   50.8530 C   0  0  0  0  0  0  0  0  0  0  0  0
   57.4250   32.4270   52.2290 C   0  0  0  0  0  0  0  0  0  0  0  0
   57.8340   31.5450   53.2700 O   0  0  0  0  0  0  0  0  0  0  0  0
   58.8030   30.6030   52.8540 C   0  0  0  0  0  0  0  0  0  0  0  0
   58.3500   29.8600   51.5880 C   0  0  0  0  0  0  0  0  0  0  0  0
   58.2240   31.9110   46.8690 C   0  0  0  0  0  0  0  0  0  0  0  0
   58.2300   33.0010   45.9820 C   0  0  0  0  0  0  0  0  0  0  0  0
   57.3100   32.9960   44.8780 N   0  0  0  0  0  0  0  0  0  0  0  0
   57.4440   32.0320   43.7870 C   0  0  0  0  0  0  0  0  0  0  0  0
   57.3320   30.6360   44.3190 C   0  0  0  0  0  0  0  0  0  0  0  0
   56.2670   30.2740   44.8870 O   0  0  0  0  0  0  0  0  0  0  0  0
   58.4220   29.7100   44.1760 N   0  0  0  0  0  0  0  0  0  0  0  0
   58.5780   28.5270   44.9790 C   0  0  0  0  0  0  0  0  0  0  0  0
   59.8290   28.1640   45.5160 C   0  0  0  0  0  0  0  0  0  0  0  0
   59.9620   26.9950   46.2700 C   0  0  0  0  0  0  0  0  0  0  0  0
   58.8580   26.1680   46.4870 C   0  0  0  0  0  0  0  0  0  0  0  0
   57.6100   26.5050   45.9410 C   0  0  0  0  0  0  0  0  0  0  0  0
   56.2300   25.4340   46.1740 S   0  0  0  0  0  0  0  0  0  0  0  0
   54.7660   26.3330   46.0000 N   0  0  0  0  0  0  0  0  0  0  0  0
   56.2660   24.3320   45.1520 O   0  0  0  0  0  0  0  0  0  0  0  0
   56.2810   24.8210   47.5460 O   0  0  0  0  0  0  0  0  0  0  0  0
   57.4790   27.6750   45.1820 C   0  0  0  0  0  0  0  0  0  0  0  0
   59.4617   36.1579   45.7992 H   0  0  0  0  0  0  0  0  0  0  0  0
   60.1741   35.0099   44.6155 H   0  0  0  0  0  0  0  0  0  0  0  0
   58.4042   35.3169   44.6155 H   0  0  0  0  0  0  0  0  0  0  0  0
   60.5928   34.9138   47.5674 H   0  0  0  0  0  0  0  0  0  0  0  0
   60.5479   32.9836   49.1285 H   0  0  0  0  0  0  0  0  0  0  0  0
   59.1422   32.5154   50.9054 H   0  0  0  0  0  0  0  0  0  0  0  0
   57.5468   32.7885   50.0998 H   0  0  0  0  0  0  0  0  0  0  0  0
   57.6539   33.4545   52.5481 H   0  0  0  0  0  0  0  0  0  0  0  0
   56.3528   32.2332   52.0779 H   0  0  0  0  0  0  0  0  0  0  0  0
   59.7463   31.1282   52.6433 H   0  0  0  0  0  0  0  0  0  0  0  0
   58.9399   29.8663   53.6593 H   0  0  0  0  0  0  0  0  0  0  0  0
   59.1561   29.1824   51.2703 H   0  0  0  0  0  0  0  0  0  0  0  0
   57.4305   29.3100   51.8368 H   0  0  0  0  0  0  0  0  0  0  0  0
   57.5588   31.0571   46.6730 H   0  0  0  0  0  0  0  0  0  0  0  0
   56.9490   33.9340   44.5780 H   0  0  0  0  0  0  0  0  0  0  0  0
   56.6476   32.2051   43.0483 H   0  0  0  0  0  0  0  0  0  0  0  0
   58.4280   32.1592   43.3121 H   0  0  0  0  0  0  0  0  0  0  0  0
   59.1030   29.8740   43.4020 H   0  0  0  0  0  0  0  0  0  0  0  0
   60.7060   28.8044   45.3407 H   0  0  0  0  0  0  0  0  0  0  0  0
   60.9404   26.7252   46.6943 H   0  0  0  0  0  0  0  0  0  0  0  0
   58.9666   25.2519   47.0862 H   0  0  0  0  0  0  0  0  0  0  0  0
   54.7870   27.0910   46.7200 H   0  0  0  0  0  0  0  0  0  0  0  0
   56.5046   27.9298   44.7397 H   0  0  0  0  0  0  0  0  0  0  0  0
  1  2  1  0
  2  3  2  0
  3  4  1  0
  4  5  2  0
  5  6  1  0
  6  7  2  0
  6  8  2  0
  6  9  1  0
  9 10  1  0
 10 11  1  0
 11 12  1  0
 12 13  1  0
 13 14  1  0
  5 15  1  0
 15 16  2  0
 16 17  1  0
 17 18  1  0
 18 19  1  0
 19 20  2  0
 19 21  1  0
 21 22  1  0
 22 23  2  0
 23 24  1  0
 24 25  2  0
 25 26  1  0
 26 27  1  0
 27 28  1  0
 27 29  2  0
 27 30  2  0
 26 31  2  0
 16  2  1  0
 31 22  1  0
 14  9  1  0
  1 32  1  0
  1 33  1  0
  1 34  1  0
  3 35  1  0
  4 36  1  0
 10 37  1  0
 10 38  1  0
 11 39  1  0
 11 40  1  0
 13 41  1  0
 13 42  1  0
 14 43  1  0
 14 44  1  0
 15 45  1  0
 17 46  1  0
 18 47  1  0
 18 48  1  0
 21 49  1  0
 23 50  1  0
 24 51  1  0
 25 52  1  0
 28 53  1  0
 31 54  1  0
M  CHG  1  28  -1
M  END
>  <UniqueID>  (32) 
31

>  <SMILES>  (32) 
Cc1ccc(S(=O)(=O)N2CCOCC2)cc1NCC(=O)Nc1cccc(S([NH-])(=O)=O)c1

>  <Energy>  (32) 
78.80130401425434

>  <Genealogy>  (32) 
Cc1ccc(S(=O)(=O)N2CCOCC2)cc1NCC(=O)Nc1cccc(S([NH-])(=O)=O)c1 (protonated)
Cc1ccc(S(=O)(=O)N2CCOCC2)cc1NCC(=O)Nc1cccc(S([NH-])(=O)=O)c1 (3D coordinates assigned)
Cc1ccc(S(=O)(=O)N2CCOCC2)cc1NCC(=O)Nc1cccc(S([NH-])(=O)=O)c1 (nonaromatic ring conformer: 78.80130401425434 kcal/mol)

>  <smiles>  (32) 
Cc1ccc(S(=O)(=O)N2CCOCC2)cc1NCC(=O)Nc1cccc(S(N)(=O)=O)c1

>  <score_type>  (32) 
oracle

>  <origin>  (32) 
adg

>  <m_score__min__energy>  (32) 
-13.18

>  <m_primary>  (32) 
energy

$$$$
32:0
     RDKit          3D

 56 59  0  0  0  0  0  0  0  0999 V2000
   56.5920   23.7790   43.3800 C   0  0  0  0  0  0  0  0  0  0  0  0
   57.0820   22.8010   44.3980 C   0  0  0  0  0  0  0  0  0  0  0  0
   56.3270   22.4690   45.4490 C   0  0  0  0  0  0  0  0  0  0  0  0
   56.5390   23.0550   46.7890 C   0  0  0  0  0  0  0  0  0  0  0  0
   57.0360   22.3520   47.7100 O   0  0  0  0  0  0  0  0  0  0  0  0
   56.1210   24.3910   47.0940 N   0  0  0  0  0  0  0  0  0  0  0  0
   56.7130   25.6030   46.6040 C   0  0  0  0  0  0  0  0  0  0  0  0
   58.0880   25.8580   46.7340 C   0  0  0  0  0  0  0  0  0  0  0  0
   58.6320   27.0480   46.2450 C   0  0  0  0  0  0  0  0  0  0  0  0
   57.8080   27.9940   45.6320 C   0  0  0  0  0  0  0  0  0  0  0  0
   56.4210   27.7750   45.5440 C   0  0  0  0  0  0  0  0  0  0  0  0
   55.5460   28.7140   44.9000 N   0  0  0  0  0  0  0  0  0  0  0  0
   55.9450   29.7920   44.0440 C   0  0  0  0  0  0  0  0  0  0  0  0
   56.2870   29.5390   42.8610 O   0  0  0  0  0  0  0  0  0  0  0  0
   55.9660   31.1490   44.5000 N   0  0  0  0  0  0  0  0  0  0  0  0
   57.1230   31.8360   44.9930 C   0  0  0  0  0  0  0  0  0  0  0  0
   58.0430   31.1350   45.7780 C   0  0  0  0  0  0  0  0  0  0  0  0
   59.1940   31.7680   46.2490 C   0  0  0  0  0  0  0  0  0  0  0  0
   59.4590   33.1060   45.9180 C   0  0  0  0  0  0  0  0  0  0  0  0
   60.7230   33.7100   46.3810 C   0  0  0  0  0  0  0  0  0  0  0  0
   60.8570   34.9620   46.3680 O   0  0  0  0  0  0  0  0  0  0  0  0
   61.8240   32.8930   46.7910 N   0  0  0  0  0  0  0  0  0  0  0  0
   62.4850   33.0490   48.0530 C   0  0  0  0  0  0  0  0  0  0  0  0
   63.8840   33.0930   48.0810 C   0  0  0  0  0  0  0  0  0  0  0  0
   64.5650   33.2210   49.2930 C   0  0  0  0  0  0  0  0  0  0  0  0
   63.8570   33.3340   50.4900 C   0  0  0  0  0  0  0  0  0  0  0  0
   62.4540   33.3270   50.4840 C   0  0  0  0  0  0  0  0  0  0  0  0
   61.7400   33.4850   51.6820 C   0  0  0  0  0  0  0  0  0  0  0  0
   60.3450   33.4870   51.6740 C   0  0  0  0  0  0  0  0  0  0  0  0
   59.6500   33.3390   50.4730 C   0  0  0  0  0  0  0  0  0  0  0  0
   60.3460   33.1940   49.2710 C   0  0  0  0  0  0  0  0  0  0  0  0
   61.7540   33.1770   49.2580 C   0  0  0  0  0  0  0  0  0  0  0  0
   58.5370   33.8180   45.1190 C   0  0  0  0  0  0  0  0  0  0  0  0
   58.7350   35.1540   44.7700 O   0  0  0  0  0  0  0  0  0  0  0  0
   57.3760   33.1780   44.6650 C   0  0  0  0  0  0  0  0  0  0  0  0
   55.8850   26.5760   46.0310 C   0  0  0  0  0  0  0  0  0  0  0  0
   56.1553   24.6507   43.8894 H   0  0  0  0  0  0  0  0  0  0  0  0
   57.4330   24.1055   42.7506 H   0  0  0  0  0  0  0  0  0  0  0  0
   55.8270   23.3008   42.7506 H   0  0  0  0  0  0  0  0  0  0  0  0
   58.0776   22.3484   44.2805 H   0  0  0  0  0  0  0  0  0  0  0  0
   55.5199   21.7343   45.3122 H   0  0  0  0  0  0  0  0  0  0  0  0
   58.7388   25.1180   47.2226 H   0  0  0  0  0  0  0  0  0  0  0  0
   59.7107   27.2401   46.3429 H   0  0  0  0  0  0  0  0  0  0  0  0
   58.2449   28.9140   45.2163 H   0  0  0  0  0  0  0  0  0  0  0  0
   57.8588   30.0792   46.0257 H   0  0  0  0  0  0  0  0  0  0  0  0
   59.8997   31.2136   46.8851 H   0  0  0  0  0  0  0  0  0  0  0  0
   64.4510   33.0262   47.1408 H   0  0  0  0  0  0  0  0  0  0  0  0
   65.6649   33.2328   49.3043 H   0  0  0  0  0  0  0  0  0  0  0  0
   64.4006   33.4289   51.4416 H   0  0  0  0  0  0  0  0  0  0  0  0
   62.2826   33.6077   52.6310 H   0  0  0  0  0  0  0  0  0  0  0  0
   59.7913   33.6056   52.6171 H   0  0  0  0  0  0  0  0  0  0  0  0
   58.5500   33.3365   50.4731 H   0  0  0  0  0  0  0  0  0  0  0  0
   59.7902   33.0923   48.3272 H   0  0  0  0  0  0  0  0  0  0  0  0
   59.5160   35.7020   45.1080 H   0  0  0  0  0  0  0  0  0  0  0  0
   56.6555   33.7322   44.0455 H   0  0  0  0  0  0  0  0  0  0  0  0
   54.8018   26.3969   45.9626 H   0  0  0  0  0  0  0  0  0  0  0  0
  1  2  1  0
  2  3  2  3
  3  4  1  0
  4  5  2  0
  4  6  1  0
  6  7  1  0
  7  8  2  0
  8  9  1  0
  9 10  2  0
 10 11  1  0
 11 12  1  0
 12 13  1  0
 13 14  2  0
 13 15  1  0
 15 16  1  0
 16 17  2  0
 17 18  1  0
 18 19  2  0
 19 20  1  0
 20 21  2  0
 20 22  1  0
 22 23  1  0
 23 24  2  0
 24 25  1  0
 25 26  2  0
 26 27  1  0
 27 28  2  0
 28 29  1  0
 29 30  2  0
 30 31  1  0
 31 32  2  0
 19 33  1  0
 33 34  1  0
 33 35  2  0
 11 36  2  0
 36  7  1  0
 35 16  1  0
 32 23  1  0
 32 27  1  0
  1 37  1  0
  1 38  1  0
  1 39  1  0
  2 40  1  0
  3 41  1  0
  8 42  1  0
  9 43  1  0
 10 44  1  0
 17 45  1  0
 18 46  1  0
 24 47  1  0
 25 48  1  0
 26 49  1  0
 28 50  1  0
 29 51  1  0
 30 52  1  0
 31 53  1  0
 34 54  1  0
 35 55  1  0
 36 56  1  0
M  CHG  4   6  -1  12  -1  15  -1  22  -1
M  END
>  <UniqueID>  (33) 
32

>  <SMILES>  (33) 
CC=CC(=O)[N-]c1cccc([N-]C(=O)[N-]c2ccc(C(=O)[N-]c3cccc4ccccc34)c(O)c2)c1

>  <Energy>  (33) 
80.91522394116195

>  <Genealogy>  (33) 
CC=CC(=O)[N-]c1cccc([N-]C(=O)[N-]c2ccc(C(=O)[N-]c3cccc4ccccc34)c(O)c2)c1 (protonated)
CC=CC(=O)[N-]c1cccc([N-]C(=O)[N-]c2ccc(C(=O)[N-]c3cccc4ccccc34)c(O)c2)c1 (3D coordinates assigned)
CC=CC(=O)[N-]c1cccc([N-]C(=O)[N-]c2ccc(C(=O)[N-]c3cccc4ccccc34)c(O)c2)c1 (optimized conformer: 80.91522394116195 kcal/mol)

>  <smiles>  (33) 
CC=CC(=O)Nc1cccc(NC(=O)Nc2ccc(C(=O)Nc3cccc4ccccc34)c(O)c2)c1

>  <score_type>  (33) 
oracle

>  <origin>  (33) 
adg

>  <m_score__min__energy>  (33) 
-15.08

>  <m_primary>  (33) 
energy

$$$$
33:0
     RDKit          3D

 49 51  0  0  0  0  0  0  0  0999 V2000
   58.4264   32.7493   41.2848 H   0  0  0  0  0  0  0  0  0  0  0  0
   58.0430   32.3540   42.2370 C   0  0  0  0  0  0  0  0  0  0  0  0
   57.6230   31.9210   43.2800 C   0  0  0  0  0  0  0  0  0  0  0  0
   57.1110   31.3970   44.5520 C   0  0  0  0  0  0  0  0  0  0  0  0
   56.3231   32.0659   44.9285 H   0  0  0  0  0  0  0  0  0  0  0  0
   56.7034   30.3892   44.3842 H   0  0  0  0  0  0  0  0  0  0  0  0
   58.1600   31.3170   45.5160 O   0  0  0  0  0  0  0  0  0  0  0  0
   58.9280   32.4020   45.9730 C   0  0  0  0  0  0  0  0  0  0  0  0
   58.3380   33.6710   45.9810 C   0  0  0  0  0  0  0  0  0  0  0  0
   57.3012   33.7926   45.6341 H   0  0  0  0  0  0  0  0  0  0  0  0
   59.0550   34.7850   46.4260 C   0  0  0  0  0  0  0  0  0  0  0  0
   58.5813   35.7778   46.4296 H   0  0  0  0  0  0  0  0  0  0  0  0
   60.3720   34.6390   46.8660 C   0  0  0  0  0  0  0  0  0  0  0  0
   60.9358   35.5182   47.2112 H   0  0  0  0  0  0  0  0  0  0  0  0
   60.9770   33.3760   46.8690 C   0  0  0  0  0  0  0  0  0  0  0  0
   62.6330   33.2000   47.4400 S   0  0  0  0  0  0  0  0  0  0  0  0
   63.3310   32.0810   46.7180 O   0  0  0  0  0  0  0  0  0  0  0  0
   63.3740   34.4820   47.1890 O   0  0  0  0  0  0  0  0  0  0  0  0
   62.6390   32.8640   49.1400 N   0  0  0  0  0  0  0  0  0  0  0  0
   61.8790   31.8300   49.7800 C   0  0  0  0  0  0  0  0  0  0  0  0
   61.7310   31.7640   51.1770 C   0  0  0  0  0  0  0  0  0  0  0  0
   62.2076   32.5223   51.8156 H   0  0  0  0  0  0  0  0  0  0  0  0
   60.9810   30.7390   51.7550 C   0  0  0  0  0  0  0  0  0  0  0  0
   60.8816   30.6829   52.8491 H   0  0  0  0  0  0  0  0  0  0  0  0
   60.3560   29.7840   50.9500 C   0  0  0  0  0  0  0  0  0  0  0  0
   59.7698   28.9768   51.4134 H   0  0  0  0  0  0  0  0  0  0  0  0
   60.4720   29.8490   49.5530 C   0  0  0  0  0  0  0  0  0  0  0  0
   59.7530   28.8680   48.7030 C   0  0  0  0  0  0  0  0  0  0  0  0
   58.5130   29.0080   48.5230 O   0  0  0  0  0  0  0  0  0  0  0  0
   60.4180   27.6990   48.0830 C   0  0  0  0  0  0  0  0  0  0  0  0
   61.3845   27.3874   48.5058 H   0  0  0  0  0  0  0  0  0  0  0  0
   59.9420   26.9870   47.0490 C   0  0  0  0  0  0  0  0  0  0  0  0
   60.6740   26.4772   46.4053 H   0  0  0  0  0  0  0  0  0  0  0  0
   58.5110   26.8340   46.7070 C   0  0  0  0  0  0  0  0  0  0  0  0
   57.8610   25.6300   47.0100 C   0  0  0  0  0  0  0  0  0  0  0  0
   58.4097   24.8243   47.5197 H   0  0  0  0  0  0  0  0  0  0  0  0
   56.5180   25.4490   46.6670 C   0  0  0  0  0  0  0  0  0  0  0  0
   56.0184   24.4952   46.8923 H   0  0  0  0  0  0  0  0  0  0  0  0
   55.8070   26.4770   46.0380 C   0  0  0  0  0  0  0  0  0  0  0  0
   54.4760   26.2780   45.6940 O   0  0  0  0  0  0  0  0  0  0  0  0
   56.4410   27.7000   45.7620 C   0  0  0  0  0  0  0  0  0  0  0  0
   55.7550   28.7450   45.1460 O   0  0  0  0  0  0  0  0  0  0  0  0
   54.7700   28.9120   45.3120 H   0  0  0  0  0  0  0  0  0  0  0  0
   57.7850   27.8790   46.1100 C   0  0  0  0  0  0  0  0  0  0  0  0
   58.2761   28.8438   45.9150 H   0  0  0  0  0  0  0  0  0  0  0  0
   61.2610   30.8620   48.9790 C   0  0  0  0  0  0  0  0  0  0  0  0
   61.3942   30.8942   47.8876 H   0  0  0  0  0  0  0  0  0  0  0  0
   60.2570   32.2590   46.4210 C   0  0  0  0  0  0  0  0  0  0  0  0
   60.7315   31.2666   46.4192 H   0  0  0  0  0  0  0  0  0  0  0  0
  1  2  1  0
  2  3  3  0
  3  4  1  0
  4  5  1  0
  4  6  1  0
  4  7  1  0
  7  8  1  0
  8  9  2  0
  9 10  1  0
  9 11  1  0
 11 12  1  0
 11 13  2  0
 13 14  1  0
 13 15  1  0
 15 16  1  0
 16 17  2  0
 16 18  2  0
 16 19  1  0
 19 20  1  0
 20 21  2  0
 21 22  1  0
 21 23  1  0
 23 24  1  0
 23 25  2  0
 25 26  1  0
 25 27  1  0
 27 28  1  0
 28 29  2  0
 28 30  1  0
 30 31  1  0
 30 32  2  0
 32 33  1  0
 32 34  1  0
 34 35  2  0
 35 36  1  0
 35 37  1  0
 37 38  1  0
 37 39  2  0
 39 40  1  0
 39 41  1  0
 41 42  1  0
 42 43  1  0
 41 44  2  0
 44 45  1  0
 27 46  2  0
 46 47  1  0
 15 48  2  0
 48 49  1  0
 48  8  1  0
 46 20  1  0
 44 34  1  0
M  CHG  2  19  -1  40  -1
M  END
>  <UniqueID>  (34) 
33

>  <SMILES>  (34) 
C#CCOc1cccc(S(=O)(=O)[N-]c2cccc(C(=O)/C=C\c3ccc([O-])c(O)c3)c2)c1

>  <Energy>  (34) 
62.08014679699394

>  <Genealogy>  (34) 
C#CCOc1cccc(S(=O)(=O)[N-]c2cccc(C(=O)C=Cc3ccc([O-])c(O)c3)c2)c1 (protonated)
C#CCOc1cccc(S(=O)(=O)[N-]c2cccc(C(=O)/C=C\c3ccc([O-])c(O)c3)c2)c1 (cis-trans isomerization)
C#CCOc1cccc(S(=O)(=O)[N-]c2cccc(C(=O)/C=C\c3ccc([O-])c(O)c3)c2)c1 (3D coordinates assigned)
C#CCOc1cccc(S(=O)(=O)[N-]c2cccc(C(=O)/C=C\c3ccc([O-])c(O)c3)c2)c1 (optimized conformer: 62.08014679699394 kcal/mol)

>  <smiles>  (34) 
C#CCOc1cccc(S(=O)(=O)Nc2cccc(C(=O)C=Cc3ccc(O)c(O)c3)c2)c1

>  <score_type>  (34) 
oracle

>  <origin>  (34) 
adg

>  <m_score__min__energy>  (34) 
-14.43

>  <m_primary>  (34) 
energy

$$$$
34:0
     RDKit          3D

 58 61  0  0  0  0  0  0  0  0999 V2000
   57.8250   32.2360   42.6800 C   0  0  0  0  0  0  0  0  0  0  0  0
   57.9960   33.4310   43.4380 O   0  0  0  0  0  0  0  0  0  0  0  0
   58.3500   33.4610   44.8000 C   0  0  0  0  0  0  0  0  0  0  0  0
   57.3890   33.0880   45.7510 C   0  0  0  0  0  0  0  0  0  0  0  0
   57.6980   33.0950   47.1210 C   0  0  0  0  0  0  0  0  0  0  0  0
   58.9720   33.4910   47.5620 C   0  0  0  0  0  0  0  0  0  0  0  0
   59.2670   33.5280   49.0170 C   0  0  0  0  0  0  0  0  0  0  0  0
   59.9350   34.5380   49.6200 N   0  0  0  0  0  0  0  0  0  0  0  0
   60.1100   34.1920   50.8680 O   0  0  0  0  0  0  0  0  0  0  0  0
   59.6060   32.9990   51.1120 C   0  0  0  0  0  0  0  0  0  0  0  0
   59.6630   32.3050   52.4390 C   0  0  0  0  0  0  0  0  0  0  0  0
   59.0400   32.5140   49.9450 C   0  0  0  0  0  0  0  0  0  0  0  0
   58.4990   31.1250   49.7000 C   0  0  0  0  0  0  0  0  0  0  0  0
   59.5820   30.1620   49.2790 C   0  0  0  0  0  0  0  0  0  0  0  0
   59.6010   28.9940   49.7680 O   0  0  0  0  0  0  0  0  0  0  0  0
   60.5400   30.5290   48.2630 N   0  0  0  0  0  0  0  0  0  0  0  0
   60.3850   29.9650   46.9480 C   0  0  0  0  0  0  0  0  0  0  0  0
   61.4040   29.8250   46.2230 O   0  0  0  0  0  0  0  0  0  0  0  0
   59.1260   29.3170   46.5350 C   0  0  0  0  0  0  0  0  0  0  0  0
   57.9780   30.0490   45.5700 S   0  0  0  0  0  0  0  0  0  0  0  0
   56.8350   28.8500   45.4840 N   0  0  0  0  0  0  0  0  0  0  0  0
   57.3270   27.8170   46.2270 C   0  0  0  0  0  0  0  0  0  0  0  0
   56.5380   26.5690   46.3280 C   0  0  0  0  0  0  0  0  0  0  0  0
   55.1350   26.6160   46.0740 N   0  0  0  0  0  0  0  0  0  0  0  0
   57.0780   25.4690   46.6060 O   0  0  0  0  0  0  0  0  0  0  0  0
   58.5940   28.0550   46.8510 C   0  0  0  0  0  0  0  0  0  0  0  0
   59.1900   27.1780   47.8160 N   0  0  0  0  0  0  0  0  0  0  0  0
   61.7730   31.1690   48.6490 C   0  0  0  0  0  0  0  0  0  0  0  0
   62.3560   30.9200   49.9080 C   0  0  0  0  0  0  0  0  0  0  0  0
   63.5610   31.5380   50.2630 C   0  0  0  0  0  0  0  0  0  0  0  0
   64.2030   32.4120   49.3690 C   0  0  0  0  0  0  0  0  0  0  0  0
   65.5080   33.0550   49.7330 C   0  0  0  0  0  0  0  0  0  0  0  0
   63.6470   32.6260   48.0950 C   0  0  0  0  0  0  0  0  0  0  0  0
   62.4400   32.0150   47.7430 C   0  0  0  0  0  0  0  0  0  0  0  0
   59.9460   33.8480   46.6080 C   0  0  0  0  0  0  0  0  0  0  0  0
   59.6370   33.8410   45.2390 C   0  0  0  0  0  0  0  0  0  0  0  0
   57.7029   31.3827   43.3633 H   0  0  0  0  0  0  0  0  0  0  0  0
   56.9310   32.3288   42.0459 H   0  0  0  0  0  0  0  0  0  0  0  0
   58.7092   32.0743   42.0459 H   0  0  0  0  0  0  0  0  0  0  0  0
   56.3838   32.7871   45.4207 H   0  0  0  0  0  0  0  0  0  0  0  0
   56.9373   32.7883   47.8540 H   0  0  0  0  0  0  0  0  0  0  0  0
   59.6018   33.0505   53.2456 H   0  0  0  0  0  0  0  0  0  0  0  0
   58.8194   31.6041   52.5227 H   0  0  0  0  0  0  0  0  0  0  0  0
   60.6097   31.7511   52.5227 H   0  0  0  0  0  0  0  0  0  0  0  0
   58.0362   30.7556   50.6270 H   0  0  0  0  0  0  0  0  0  0  0  0
   57.7633   31.1861   48.8846 H   0  0  0  0  0  0  0  0  0  0  0  0
   54.4760   27.0960   46.7360 H   0  0  0  0  0  0  0  0  0  0  0  0
   58.8630   26.2000   47.9720 H   0  0  0  0  0  0  0  0  0  0  0  0
   59.8840   27.5270   48.5090 H   0  0  0  0  0  0  0  0  0  0  0  0
   61.8619   30.2370   50.6147 H   0  0  0  0  0  0  0  0  0  0  0  0
   64.0082   31.3382   51.2479 H   0  0  0  0  0  0  0  0  0  0  0  0
   65.6013   33.1010   50.8281 H   0  0  0  0  0  0  0  0  0  0  0  0
   66.3369   32.4622   49.3190 H   0  0  0  0  0  0  0  0  0  0  0  0
   65.5430   34.0735   49.3190 H   0  0  0  0  0  0  0  0  0  0  0  0
   64.1634   33.2761   47.3734 H   0  0  0  0  0  0  0  0  0  0  0  0
   62.0072   32.1971   46.7483 H   0  0  0  0  0  0  0  0  0  0  0  0
   60.9554   34.1341   46.9387 H   0  0  0  0  0  0  0  0  0  0  0  0
   60.4016   34.1331   44.5041 H   0  0  0  0  0  0  0  0  0  0  0  0
  1  2  1  0
  2  3  1  0
  3  4  2  0
  4  5  1  0
  5  6  2  0
  6  7  1  0
  7  8  2  0
  8  9  1  0
  9 10  1  0
 10 11  1  0
 10 12  2  0
 12 13  1  0
 13 14  1  0
 14 15  2  0
 14 16  1  0
 16 17  1  0
 17 18  2  0
 17 19  1  0
 19 20  1  0
 20 21  1  0
 21 22  2  0
 22 23  1  0
 23 24  1  0
 23 25  2  0
 22 26  1  0
 26 27  1  0
 16 28  1  0
 28 29  2  0
 29 30  1  0
 30 31  2  0
 31 32  1  0
 31 33  1  0
 33 34  2  0
  6 35  1  0
 35 36  2  0
 36  3  1  0
 12  7  1  0
 26 19  2  0
 34 28  1  0
  1 37  1  0
  1 38  1  0
  1 39  1  0
  4 40  1  0
  5 41  1  0
 11 42  1  0
 11 43  1  0
 11 44  1  0
 13 45  1  0
 13 46  1  0
 24 47  1  0
 27 48  1  0
 27 49  1  0
 29 50  1  0
 30 51  1  0
 32 52  1  0
 32 53  1  0
 32 54  1  0
 33 55  1  0
 34 56  1  0
 35 57  1  0
 36 58  1  0
M  CHG  1  24  -1
M  END
>  <UniqueID>  (35) 
34

>  <SMILES>  (35) 
COc1ccc(-c2noc(C)c2CC(=O)N(C(=O)c2snc(C([NH-])=O)c2N)c2ccc(C)cc2)cc1

>  <Energy>  (35) 
142.8528751334983

>  <Genealogy>  (35) 
COc1ccc(-c2noc(C)c2CC(=O)N(C(=O)c2snc(C([NH-])=O)c2N)c2ccc(C)cc2)cc1 (protonated)
COc1ccc(-c2noc(C)c2CC(=O)N(C(=O)c2snc(C([NH-])=O)c2N)c2ccc(C)cc2)cc1 (3D coordinates assigned)
COc1ccc(-c2noc(C)c2CC(=O)N(C(=O)c2snc(C([NH-])=O)c2N)c2ccc(C)cc2)cc1 (optimized conformer: 142.8528751334983 kcal/mol)

>  <smiles>  (35) 
COc1ccc(-c2noc(C)c2CC(=O)N(C(=O)c2snc(C(N)=O)c2N)c2ccc(C)cc2)cc1

>  <score_type>  (35) 
oracle

>  <origin>  (35) 
adg

>  <m_score__min__energy>  (35) 
-13.17

>  <m_primary>  (35) 
energy

$$$$
35:0
     RDKit          3D

 40 43  0  0  1  0  0  0  0  0999 V2000
   59.6960   35.8970   45.6090 C   0  0  0  0  0  0  0  0  0  0  0  0
   59.3410   34.5070   46.0300 C   0  0  0  0  0  0  0  0  0  0  0  0
   58.0410   34.0400   46.0540 C   0  0  0  0  0  0  0  0  0  0  0  0
   57.7400   32.7370   46.4420 C   0  0  0  0  0  0  0  0  0  0  0  0
   58.7490   31.9010   46.8060 C   0  0  0  0  0  0  0  0  0  0  0  0
   58.6090   30.5550   47.2080 N   0  0  0  0  0  0  0  0  0  0  0  0
   58.1170   29.6930   46.4110 C   0  0  0  0  0  0  0  0  0  0  0  0
   58.3640   28.3570   46.7220 C   0  0  0  0  0  0  0  0  0  0  0  0
   57.8750   27.3220   45.9240 C   0  0  0  0  0  0  0  0  0  0  0  0
   58.1390   26.0050   46.3040 N   0  0  0  0  0  0  0  0  0  0  0  0
   57.9170   24.8360   45.5300 C   0  0  0  0  0  0  0  0  0  0  0  0
   58.8780   23.8200   45.6930 C   0  0  0  0  0  0  0  0  0  0  0  0
   58.7650   22.6300   44.9590 C   0  0  0  0  0  0  0  0  0  0  0  0
   57.7080   22.4860   44.0900 C   0  0  0  0  0  0  0  0  0  0  0  0
   57.3750   21.4650   43.2810 N   0  0  0  0  0  0  0  0  0  0  0  0
   56.2630   21.7890   42.6260 N   0  0  0  0  0  0  0  0  0  0  0  0
   55.8650   23.0170   43.0000 C   0  0  0  0  0  0  0  0  0  0  0  0
   56.7810   23.5030   43.9520 C   0  0  0  0  0  0  0  0  0  0  0  0
   56.8590   24.6880   44.6580 C   0  0  0  0  0  0  0  0  0  0  0  0
   57.1600   27.6980   44.8520 N   0  0  0  0  0  0  0  0  0  0  0  0
   56.9090   28.9810   44.5330 C   0  0  0  0  0  0  0  0  0  0  0  0
   57.3830   30.0050   45.3070 N   0  0  0  0  0  0  0  0  0  0  0  0
   60.0670   32.3840   46.7790 C   0  0  0  0  0  0  0  0  0  0  0  0
   60.3830   33.6540   46.4030 C   0  0  0  0  0  0  0  0  0  0  0  0
   59.8553   36.5208   46.5009 H   0  0  0  0  0  0  0  0  0  0  0  0
   60.6171   35.8742   45.0082 H   0  0  0  0  0  0  0  0  0  0  0  0
   58.8767   36.3187   45.0082 H   0  0  0  0  0  0  0  0  0  0  0  0
   57.2234   34.7143   45.7593 H   0  0  0  0  0  0  0  0  0  0  0  0
   56.6971   32.3875   46.4540 H   0  0  0  0  0  0  0  0  0  0  0  0
   58.9572   28.1133   47.6157 H   0  0  0  0  0  0  0  0  0  0  0  0
   58.5500   25.8290   47.2720 H   0  0  0  0  0  0  0  0  0  0  0  0
   59.7146   23.9589   46.3936 H   0  0  0  0  0  0  0  0  0  0  0  0
   59.5076   21.8269   45.0760 H   0  0  0  0  0  0  0  0  0  0  0  0
   57.8530   20.5550   43.1410 H   0  0  0  0  0  0  0  0  0  0  0  0
   54.9778   23.5497   42.6270 H   0  0  0  0  0  0  0  0  0  0  0  0
   56.1077   25.4812   44.5298 H   0  0  0  0  0  0  0  0  0  0  0  0
   56.7580   26.9710   44.2270 H   0  0  0  0  0  0  0  0  0  0  0  0
   56.3139   29.2100   43.6367 H   0  0  0  0  0  0  0  0  0  0  0  0
   60.8810   31.7059   47.0749 H   0  0  0  0  0  0  0  0  0  0  0  0
   61.4277   33.9983   46.3932 H   0  0  0  0  0  0  0  0  0  0  0  0
  1  2  1  0
  2  3  2  0
  3  4  1  0
  4  5  2  0
  5  6  1  0
  6  7  2  0
  7  8  1  0
  8  9  2  0
  9 10  1  0
 10 11  1  0
 11 12  2  0
 12 13  1  0
 13 14  2  0
 14 15  1  0
 15 16  1  0
 16 17  2  0
 17 18  1  0
 18 19  2  0
  9 20  1  0
 20 21  1  0
 21 22  2  0
  5 23  1  0
 23 24  2  0
 24  2  1  0
 22  7  1  0
 19 11  1  0
 18 14  1  0
  1 25  1  0
  1 26  1  0
  1 27  1  0
  3 28  1  0
  4 29  1  0
  8 30  1  0
 10 31  1  0
 12 32  1  0
 13 33  1  0
 15 34  1  0
 17 35  1  0
 19 36  1  0
 20 37  1  0
 21 38  1  0
 23 39  1  0
 24 40  1  0
M  END
>  <smiles>  (36) 
Cc1ccc(N=c2cc(Nc3ccc4[nH]ncc4c3)[nH]cn2)cc1

>  <score_type>  (36) 
oracle

>  <origin>  (36) 
adg

>  <m_score__min__energy>  (36) 
-8.2300000000000004

>  <m_primary>  (36) 
energy

$$$$
36:0
     RDKit          3D

 28 29  0  0  0  0  0  0  0  0999 V2000
   54.4010   26.7170   46.7590 H   0  0  0  0  0  0  0  0  0  0  0  0
   55.0380   26.3950   45.9960 N   0  0  0  0  0  0  0  0  0  0  0  0
   56.2970   26.6940   46.0020 C   0  0  0  0  0  0  0  0  0  0  0  0
   57.2440   25.8660   46.5140 N   0  0  0  0  0  0  0  0  0  0  0  0
   58.3790   26.5630   46.3130 C   0  0  0  0  0  0  0  0  0  0  0  0
   59.6770   26.1790   46.6420 C   0  0  0  0  0  0  0  0  0  0  0  0
   59.8770   25.2148   47.1322 H   0  0  0  0  0  0  0  0  0  0  0  0
   60.7230   27.0640   46.3270 C   0  0  0  0  0  0  0  0  0  0  0  0
   61.7604   26.7938   46.5734 H   0  0  0  0  0  0  0  0  0  0  0  0
   60.4500   28.2980   45.6960 C   0  0  0  0  0  0  0  0  0  0  0  0
   61.2772   28.9812   45.4531 H   0  0  0  0  0  0  0  0  0  0  0  0
   59.1300   28.6600   45.3760 C   0  0  0  0  0  0  0  0  0  0  0  0
   58.9056   29.6179   44.8840 H   0  0  0  0  0  0  0  0  0  0  0  0
   58.1130   27.7600   45.7050 C   0  0  0  0  0  0  0  0  0  0  0  0
   56.7870   27.8560   45.4980 N   0  0  0  0  0  0  0  0  0  0  0  0
   56.0340   28.9450   44.8680 C   0  0  0  0  0  0  0  0  0  0  0  0
   54.9943   28.6188   44.7178 H   0  0  0  0  0  0  0  0  0  0  0  0
   56.0809   29.8217   45.5307 H   0  0  0  0  0  0  0  0  0  0  0  0
   56.6330   29.3400   43.5090 C   0  0  0  0  0  0  0  0  0  0  0  0
   57.5638   28.7728   43.3610 H   0  0  0  0  0  0  0  0  0  0  0  0
   55.8770   29.1099   42.7439 H   0  0  0  0  0  0  0  0  0  0  0  0
   56.9540   30.8430   43.3900 C   0  0  0  0  0  0  0  0  0  0  0  0
   57.7888   30.9701   42.6851 H   0  0  0  0  0  0  0  0  0  0  0  0
   56.0441   31.3508   43.0376 H   0  0  0  0  0  0  0  0  0  0  0  0
   57.3440   31.4690   44.7280 C   0  0  0  0  0  0  0  0  0  0  0  0
   56.9573   30.8484   45.5498 H   0  0  0  0  0  0  0  0  0  0  0  0
   58.4400   31.5298   44.7988 H   0  0  0  0  0  0  0  0  0  0  0  0
   56.9154   32.4796   44.7988 H   0  0  0  0  0  0  0  0  0  0  0  0
  1  2  1  0
  2  3  2  0
  3  4  1  0
  4  5  1  0
  5  6  2  0
  6  7  1  0
  6  8  1  0
  8  9  1  0
  8 10  2  0
 10 11  1  0
 10 12  1  0
 12 13  1  0
 12 14  2  0
 14 15  1  0
 15 16  1  0
 16 17  1  0
 16 18  1  0
 16 19  1  0
 19 20  1  0
 19 21  1  0
 19 22  1  0
 22 23  1  0
 22 24  1  0
 22 25  1  0
 25 26  1  0
 25 27  1  0
 25 28  1  0
 15  3  1  0
 14  5  1  0
M  CHG  1   4  -1
M  END
>  <UniqueID>  (37) 
35

>  <SMILES>  (37) 
[H]/N=c1\[n-]c2ccccc2n1CCCC

>  <Energy>  (37) 
60.875675513533906

>  <Genealogy>  (37) 
CCCCn1c(=N)[n-]c2ccccc21 (protonated)
[H]/N=c1\[n-]c2ccccc2n1CCCC (cis-trans isomerization)
[H]/N=c1\[n-]c2ccccc2n1CCCC (3D coordinates assigned)
[H]/N=c1\[n-]c2ccccc2n1CCCC (optimized conformer: 60.875675513533906 kcal/mol)

>  <smiles>  (37) 
CCCCn1c(=N)[nH]c2ccccc21

>  <score_type>  (37) 
oracle

>  <origin>  (37) 
adg

>  <m_score__min__energy>  (37) 
-7.5999999999999996

>  <m_primary>  (37) 
energy

$$$$
37:0
     RDKit          3D

 69 72  0  0  0  0  0  0  0  0999 V2000
   65.1270   32.5990   50.2310 C   0  0  0  0  0  0  0  0  0  0  0  0
   63.8110   32.8150   50.7280 O   0  0  0  0  0  0  0  0  0  0  0  0
   62.9150   31.7950   51.0880 C   0  0  0  0  0  0  0  0  0  0  0  0
   62.9610   30.5240   50.4780 C   0  0  0  0  0  0  0  0  0  0  0  0
   62.0760   29.5170   50.8730 C   0  0  0  0  0  0  0  0  0  0  0  0
   61.1330   29.7660   51.8680 C   0  0  0  0  0  0  0  0  0  0  0  0
   61.0650   31.0230   52.4680 C   0  0  0  0  0  0  0  0  0  0  0  0
   61.9490   32.0460   52.0860 C   0  0  0  0  0  0  0  0  0  0  0  0
   61.8640   33.3750   52.7870 C   0  0  0  0  0  0  0  0  0  0  0  0
   60.6480   33.4210   53.5850 N   0  0  0  0  0  0  0  0  0  0  0  0
   59.5140   34.2170   53.2320 C   0  0  0  0  0  0  0  0  0  0  0  0
   58.9300   34.9170   54.1020 O   0  0  0  0  0  0  0  0  0  0  0  0
   59.0270   34.2180   51.8220 C   0  0  0  0  0  0  0  0  0  0  0  0
   59.1950   32.9160   51.2700 O   0  0  0  0  0  0  0  0  0  0  0  0
   59.0680   32.6420   49.9060 C   0  0  0  0  0  0  0  0  0  0  0  0
   57.9350   32.3720   49.4170 O   0  0  0  0  0  0  0  0  0  0  0  0
   60.2560   32.7110   49.0270 C   0  0  0  0  0  0  0  0  0  0  0  0
   61.0720   33.8560   49.0850 C   0  0  0  0  0  0  0  0  0  0  0  0
   62.2630   33.9200   48.3600 C   0  0  0  0  0  0  0  0  0  0  0  0
   62.6640   32.8400   47.5760 C   0  0  0  0  0  0  0  0  0  0  0  0
   61.8610   31.7030   47.4920 C   0  0  0  0  0  0  0  0  0  0  0  0
   60.6390   31.6340   48.1830 C   0  0  0  0  0  0  0  0  0  0  0  0
   59.7770   30.4560   47.9430 C   0  0  0  0  0  0  0  0  0  0  0  0
   59.3340   29.8080   48.9300 O   0  0  0  0  0  0  0  0  0  0  0  0
   59.4960   30.0120   46.6050 N   0  0  0  0  0  0  0  0  0  0  0  0
   58.8740   28.7540   46.3030 C   0  0  0  0  0  0  0  0  0  0  0  0
   58.7830   27.7790   47.3070 C   0  0  0  0  0  0  0  0  0  0  0  0
   58.1650   26.5530   47.0490 C   0  0  0  0  0  0  0  0  0  0  0  0
   57.6160   26.2980   45.7910 C   0  0  0  0  0  0  0  0  0  0  0  0
   57.6810   27.2700   44.7900 C   0  0  0  0  0  0  0  0  0  0  0  0
   58.2880   28.5050   45.0440 C   0  0  0  0  0  0  0  0  0  0  0  0
   58.2820   29.4800   44.0500 O   0  0  0  0  0  0  0  0  0  0  0  0
   57.1230   30.7330   44.0620 S   0  0  0  0  0  0  0  0  0  0  0  0
   55.9190   30.3050   44.8560 O   0  0  0  0  0  0  0  0  0  0  0  0
   56.6920   31.0350   42.6530 O   0  0  0  0  0  0  0  0  0  0  0  0
   57.8410   32.1710   44.7720 C   0  0  0  0  0  0  0  0  0  0  0  0
   57.7110   32.4360   46.1430 C   0  0  0  0  0  0  0  0  0  0  0  0
   58.3000   33.5760   46.6970 C   0  0  0  0  0  0  0  0  0  0  0  0
   59.0270   34.4640   45.8860 C   0  0  0  0  0  0  0  0  0  0  0  0
   59.6170   35.7110   46.4740 C   0  0  0  0  0  0  0  0  0  0  0  0
   59.1370   34.2070   44.5110 C   0  0  0  0  0  0  0  0  0  0  0  0
   58.5540   33.0620   43.9590 C   0  0  0  0  0  0  0  0  0  0  0  0
   65.8234   32.4847   51.0748 H   0  0  0  0  0  0  0  0  0  0  0  0
   65.1419   31.6864   49.6171 H   0  0  0  0  0  0  0  0  0  0  0  0
   65.4328   33.4590   49.6171 H   0  0  0  0  0  0  0  0  0  0  0  0
   63.6981   30.3241   49.6864 H   0  0  0  0  0  0  0  0  0  0  0  0
   62.1240   28.5262   50.3976 H   0  0  0  0  0  0  0  0  0  0  0  0
   60.4412   28.9700   52.1807 H   0  0  0  0  0  0  0  0  0  0  0  0
   60.3127   31.2153   53.2471 H   0  0  0  0  0  0  0  0  0  0  0  0
   62.7385   33.5014   53.4422 H   0  0  0  0  0  0  0  0  0  0  0  0
   61.8466   34.1841   52.0420 H   0  0  0  0  0  0  0  0  0  0  0  0
   57.9621   34.4927   51.8003 H   0  0  0  0  0  0  0  0  0  0  0  0
   59.6013   34.9475   51.2321 H   0  0  0  0  0  0  0  0  0  0  0  0
   60.7680   34.7098   49.7084 H   0  0  0  0  0  0  0  0  0  0  0  0
   62.8865   34.8250   48.4076 H   0  0  0  0  0  0  0  0  0  0  0  0
   63.6141   32.8844   47.0233 H   0  0  0  0  0  0  0  0  0  0  0  0
   62.1876   30.8506   46.8781 H   0  0  0  0  0  0  0  0  0  0  0  0
   59.7190   30.6410   45.8020 H   0  0  0  0  0  0  0  0  0  0  0  0
   59.2010   27.9810   48.3042 H   0  0  0  0  0  0  0  0  0  0  0  0
   58.1109   25.7880   47.8376 H   0  0  0  0  0  0  0  0  0  0  0  0
   57.1321   25.3313   45.5880 H   0  0  0  0  0  0  0  0  0  0  0  0
   57.2532   27.0638   43.7978 H   0  0  0  0  0  0  0  0  0  0  0  0
   57.1440   31.7449   46.7840 H   0  0  0  0  0  0  0  0  0  0  0  0
   58.1940   33.7791   47.7729 H   0  0  0  0  0  0  0  0  0  0  0  0
   59.5873   35.6483   47.5718 H   0  0  0  0  0  0  0  0  0  0  0  0
   60.6601   35.8156   46.1407 H   0  0  0  0  0  0  0  0  0  0  0  0
   59.0364   36.5838   46.1407 H   0  0  0  0  0  0  0  0  0  0  0  0
   59.6841   34.9091   43.8646 H   0  0  0  0  0  0  0  0  0  0  0  0
   58.6556   32.8601   42.8825 H   0  0  0  0  0  0  0  0  0  0  0  0
  1  2  1  0
  2  3  1  0
  3  4  2  0
  4  5  1  0
  5  6  2  0
  6  7  1  0
  7  8  2  0
  8  9  1  0
  9 10  1  0
 10 11  1  0
 11 12  2  0
 11 13  1  0
 13 14  1  0
 14 15  1  0
 15 16  2  0
 15 17  1  0
 17 18  2  0
 18 19  1  0
 19 20  2  0
 20 21  1  0
 21 22  2  0
 22 23  1  0
 23 24  2  0
 23 25  1  0
 25 26  1  0
 26 27  2  0
 27 28  1  0
 28 29  2  0
 29 30  1  0
 30 31  2  0
 31 32  1  0
 32 33  1  0
 33 34  2  0
 33 35  2  0
 33 36  1  0
 36 37  2  0
 37 38  1  0
 38 39  2  0
 39 40  1  0
 39 41  1  0
 41 42  2  0
  8  3  1  0
 22 17  1  0
 31 26  1  0
 42 36  1  0
  1 43  1  0
  1 44  1  0
  1 45  1  0
  4 46  1  0
  5 47  1  0
  6 48  1  0
  7 49  1  0
  9 50  1  0
  9 51  1  0
 13 52  1  0
 13 53  1  0
 18 54  1  0
 19 55  1  0
 20 56  1  0
 21 57  1  0
 25 58  1  0
 27 59  1  0
 28 60  1  0
 29 61  1  0
 30 62  1  0
 37 63  1  0
 38 64  1  0
 40 65  1  0
 40 66  1  0
 40 67  1  0
 41 68  1  0
 42 69  1  0
M  CHG  1  10  -1
M  END
>  <UniqueID>  (38) 
36

>  <SMILES>  (38) 
COc1ccccc1C[N-]C(=O)COC(=O)c1ccccc1C(=O)Nc1ccccc1OS(=O)(=O)c1ccc(C)cc1

>  <Energy>  (38) 
76.70872440059328

>  <Genealogy>  (38) 
COc1ccccc1C[N-]C(=O)COC(=O)c1ccccc1C(=O)Nc1ccccc1OS(=O)(=O)c1ccc(C)cc1 (protonated)
COc1ccccc1C[N-]C(=O)COC(=O)c1ccccc1C(=O)Nc1ccccc1OS(=O)(=O)c1ccc(C)cc1 (3D coordinates assigned)
COc1ccccc1C[N-]C(=O)COC(=O)c1ccccc1C(=O)Nc1ccccc1OS(=O)(=O)c1ccc(C)cc1 (optimized conformer: 76.70872440059328 kcal/mol)

>  <smiles>  (38) 
COc1ccccc1CNC(=O)COC(=O)c1ccccc1C(=O)Nc1ccccc1OS(=O)(=O)c1ccc(C)cc1

>  <score_type>  (38) 
oracle

>  <origin>  (38) 
adg

>  <m_score__min__energy>  (38) 
-11.710000000000001

>  <m_primary>  (38) 
energy

$$$$
38:0
     RDKit          3D

 33 35  0  0  0  0  0  0  0  0999 V2000
   55.6550   29.3380   44.8750 O   0  0  0  0  0  0  0  0  0  0  0  0
   56.7310   29.9560   44.6590 C   0  0  0  0  0  0  0  0  0  0  0  0
   57.9410   29.1910   44.1920 C   0  0  0  0  0  0  0  0  0  0  0  0
   57.9650   27.8170   44.7880 C   0  0  0  0  0  0  0  0  0  0  0  0
   57.7630   26.6290   44.0990 C   0  0  0  0  0  0  0  0  0  0  0  0
   57.9200   25.4830   44.9040 C   0  0  0  0  0  0  0  0  0  0  0  0
   57.7520   24.0960   44.4000 C   0  0  0  0  0  0  0  0  0  0  0  0
   58.5610   23.0520   44.8910 C   0  0  0  0  0  0  0  0  0  0  0  0
   58.4000   21.7470   44.4150 C   0  0  0  0  0  0  0  0  0  0  0  0
   57.4340   21.4680   43.4470 C   0  0  0  0  0  0  0  0  0  0  0  0
   56.6250   22.4920   42.9520 C   0  0  0  0  0  0  0  0  0  0  0  0
   56.7820   23.7990   43.4220 C   0  0  0  0  0  0  0  0  0  0  0  0
   58.2580   25.7890   46.2240 C   0  0  0  0  0  0  0  0  0  0  0  0
   58.3610   27.4600   46.3800 S   0  0  0  0  0  0  0  0  0  0  0  0
   56.7510   31.3810   44.8220 N   0  0  0  0  0  0  0  0  0  0  0  0
   57.7840   32.1140   45.1160 C   0  0  0  0  0  0  0  0  0  0  0  0
   57.7150   33.8660   44.8570 S   0  0  0  0  0  0  0  0  0  0  0  0
   58.1330   34.1720   46.6130 C   0  0  0  0  0  0  0  0  0  0  0  0
   58.3750   32.8640   47.3820 C   0  0  0  0  0  0  0  0  0  0  0  0
   59.0500   31.6080   46.2580 S   0  0  0  0  0  0  0  0  0  0  0  0
   57.9139   29.1079   43.0955 H   0  0  0  0  0  0  0  0  0  0  0  0
   58.8444   29.7302   44.5132 H   0  0  0  0  0  0  0  0  0  0  0  0
   57.5058   26.5863   43.0303 H   0  0  0  0  0  0  0  0  0  0  0  0
   59.3243   23.2650   45.6539 H   0  0  0  0  0  0  0  0  0  0  0  0
   59.0362   20.9385   44.8044 H   0  0  0  0  0  0  0  0  0  0  0  0
   57.3102   20.4406   43.0740 H   0  0  0  0  0  0  0  0  0  0  0  0
   55.8626   22.2701   42.1907 H   0  0  0  0  0  0  0  0  0  0  0  0
   56.1434   24.6020   43.0253 H   0  0  0  0  0  0  0  0  0  0  0  0
   58.4285   25.0581   47.0282 H   0  0  0  0  0  0  0  0  0  0  0  0
   59.0448   34.7855   46.6596 H   0  0  0  0  0  0  0  0  0  0  0  0
   57.2820   34.6891   47.0803 H   0  0  0  0  0  0  0  0  0  0  0  0
   59.0900   33.0466   48.1978 H   0  0  0  0  0  0  0  0  0  0  0  0
   57.4223   32.5052   47.7986 H   0  0  0  0  0  0  0  0  0  0  0  0
  1  2  2  0
  2  3  1  0
  3  4  1  0
  4  5  2  0
  5  6  1  0
  6  7  1  0
  7  8  2  0
  8  9  1  0
  9 10  2  0
 10 11  1  0
 11 12  2  0
  6 13  2  0
 13 14  1  0
  2 15  1  0
 15 16  2  3
 16 17  1  0
 17 18  1  0
 18 19  1  0
 19 20  1  0
 14  4  1  0
 20 16  1  0
 12  7  1  0
  3 21  1  0
  3 22  1  0
  5 23  1  0
  8 24  1  0
  9 25  1  0
 10 26  1  0
 11 27  1  0
 12 28  1  0
 13 29  1  0
 18 30  1  0
 18 31  1  0
 19 32  1  0
 19 33  1  0
M  END
>  <UniqueID>  (39) 
37

>  <SMILES>  (39) 
O=C(Cc1cc(-c2ccccc2)cs1)N=C1SCCS1

>  <Energy>  (39) 
72.46623754058214

>  <Genealogy>  (39) 
O=C(Cc1cc(-c2ccccc2)cs1)N=C1SCCS1 (3D coordinates assigned)
O=C(Cc1cc(-c2ccccc2)cs1)N=C1SCCS1 (nonaromatic ring conformer: 72.46623754058214 kcal/mol)

>  <smiles>  (39) 
O=C(Cc1cc(-c2ccccc2)cs1)N=C1SCCS1

>  <score_type>  (39) 
oracle

>  <origin>  (39) 
adg

>  <m_score__min__energy>  (39) 
-8.0999999999999996

>  <m_primary>  (39) 
energy

$$$$
39:0
     RDKit          3D

 38 40  0  0  0  0  0  0  0  0999 V2000
   65.1270   33.0890   48.9870 N   0  0  0  0  0  0  0  0  0  0  0  0
   63.9060   32.3390   49.9540 S   0  0  0  0  0  0  0  0  0  0  0  0
   63.3970   33.3200   50.9720 O   0  0  0  0  0  0  0  0  0  0  0  0
   64.4830   31.1490   50.6690 O   0  0  0  0  0  0  0  0  0  0  0  0
   62.5830   31.8190   48.9290 C   0  0  0  0  0  0  0  0  0  0  0  0
   62.7140   31.2720   47.6600 C   0  0  0  0  0  0  0  0  0  0  0  0
   61.4830   30.9730   47.0660 C   0  0  0  0  0  0  0  0  0  0  0  0
   60.4010   31.2950   47.8730 C   0  0  0  0  0  0  0  0  0  0  0  0
   58.6790   31.0710   47.4430 S   0  0  0  0  0  0  0  0  0  0  0  0
   58.6530   32.5440   46.4120 C   0  0  0  0  0  0  0  0  0  0  0  0
   59.4520   33.6330   46.7840 C   0  0  0  0  0  0  0  0  0  0  0  0
   59.3890   34.8310   46.0690 C   0  0  0  0  0  0  0  0  0  0  0  0
   58.5170   34.9550   44.9870 C   0  0  0  0  0  0  0  0  0  0  0  0
   57.7190   33.8730   44.6050 C   0  0  0  0  0  0  0  0  0  0  0  0
   57.8060   32.6510   45.2860 C   0  0  0  0  0  0  0  0  0  0  0  0
   56.9630   31.5680   44.8640 N   0  0  0  0  0  0  0  0  0  0  0  0
   57.3220   30.5390   44.1510 C   0  0  0  0  0  0  0  0  0  0  0  0
   57.7960   29.2600   44.7270 C   0  0  0  0  0  0  0  0  0  0  0  0
   59.1790   29.0390   44.8300 C   0  0  0  0  0  0  0  0  0  0  0  0
   59.6650   27.8420   45.3610 C   0  0  0  0  0  0  0  0  0  0  0  0
   58.7760   26.8650   45.8150 C   0  0  0  0  0  0  0  0  0  0  0  0
   57.3990   27.0920   45.7550 C   0  0  0  0  0  0  0  0  0  0  0  0
   56.9040   28.2910   45.2310 C   0  0  0  0  0  0  0  0  0  0  0  0
   55.5330   28.5210   45.2480 O   0  0  0  0  0  0  0  0  0  0  0  0
   60.9530   31.9470   49.3210 S   0  0  0  0  0  0  0  0  0  0  0  0
   66.0230   32.5900   49.1840 H   0  0  0  0  0  0  0  0  0  0  0  0
   64.8870   32.8960   47.9890 H   0  0  0  0  0  0  0  0  0  0  0  0
   63.6837   31.0925   47.1726 H   0  0  0  0  0  0  0  0  0  0  0  0
   61.3833   30.5293   46.0644 H   0  0  0  0  0  0  0  0  0  0  0  0
   60.1325   33.5440   47.6437 H   0  0  0  0  0  0  0  0  0  0  0  0
   60.0278   35.6781   46.3594 H   0  0  0  0  0  0  0  0  0  0  0  0
   58.4575   35.9043   44.4345 H   0  0  0  0  0  0  0  0  0  0  0  0
   57.0180   33.9812   43.7643 H   0  0  0  0  0  0  0  0  0  0  0  0
   57.2700   30.6252   43.0556 H   0  0  0  0  0  0  0  0  0  0  0  0
   59.8834   29.8128   44.4907 H   0  0  0  0  0  0  0  0  0  0  0  0
   60.7495   27.6685   45.4217 H   0  0  0  0  0  0  0  0  0  0  0  0
   59.1602   25.9170   46.2197 H   0  0  0  0  0  0  0  0  0  0  0  0
   56.7010   26.3248   46.1213 H   0  0  0  0  0  0  0  0  0  0  0  0
  1  2  1  0
  2  3  2  0
  2  4  2  0
  2  5  1  0
  5  6  2  0
  6  7  1  0
  7  8  2  0
  8  9  1  0
  9 10  1  0
 10 11  2  0
 11 12  1  0
 12 13  2  0
 13 14  1  0
 14 15  2  0
 15 16  1  0
 16 17  2  3
 17 18  1  0
 18 19  2  0
 19 20  1  0
 20 21  2  0
 21 22  1  0
 22 23  2  0
 23 24  1  0
  8 25  1  0
 25  5  1  0
 15 10  1  0
 23 18  1  0
  1 26  1  0
  1 27  1  0
  6 28  1  0
  7 29  1  0
 11 30  1  0
 12 31  1  0
 13 32  1  0
 14 33  1  0
 17 34  1  0
 19 35  1  0
 20 36  1  0
 21 37  1  0
 22 38  1  0
M  CHG  1  24  -1
M  END
>  <UniqueID>  (40) 
38

>  <SMILES>  (40) 
NS(=O)(=O)c1ccc(Sc2ccccc2N=Cc2ccccc2[O-])s1

>  <Energy>  (40) 
75.78067208455847

>  <Genealogy>  (40) 
NS(=O)(=O)c1ccc(Sc2ccccc2N=Cc2ccccc2[O-])s1 (protonated)
NS(=O)(=O)c1ccc(Sc2ccccc2N=Cc2ccccc2[O-])s1 (3D coordinates assigned)
NS(=O)(=O)c1ccc(Sc2ccccc2N=Cc2ccccc2[O-])s1 (optimized conformer: 75.78067208455847 kcal/mol)

>  <smiles>  (40) 
NS(=O)(=O)c1ccc(Sc2ccccc2N=Cc2ccccc2O)s1

>  <score_type>  (40) 
oracle

>  <origin>  (40) 
adg

>  <m_score__min__energy>  (40) 
-13.130000000000001

>  <m_primary>  (40) 
energy

$$$$
40:0
     RDKit          3D

 55 59  0  0  0  0  0  0  0  0999 V2000
   59.4390   29.8450   53.1880 C   0  0  0  0  0  0  0  0  0  0  0  0
   59.5750   29.9880   51.7010 C   0  0  0  0  0  0  0  0  0  0  0  0
   58.4560   29.8420   50.8710 C   0  0  0  0  0  0  0  0  0  0  0  0
   58.5920   29.9230   49.4840 C   0  0  0  0  0  0  0  0  0  0  0  0
   59.8550   30.1280   48.9000 C   0  0  0  0  0  0  0  0  0  0  0  0
   60.0050   30.1300   47.4690 N   0  0  0  0  0  0  0  0  0  0  0  0
   58.9830   30.5760   46.5640 C   0  0  0  0  0  0  0  0  0  0  0  0
   57.9920   29.8110   45.9510 C   0  0  0  0  0  0  0  0  0  0  0  0
   57.8300   28.3440   46.0030 C   0  0  0  0  0  0  0  0  0  0  0  0
   58.9020   27.5280   46.4030 C   0  0  0  0  0  0  0  0  0  0  0  0
   58.7460   26.1420   46.4830 C   0  0  0  0  0  0  0  0  0  0  0  0
   57.5210   25.5520   46.1470 C   0  0  0  0  0  0  0  0  0  0  0  0
   57.3530   24.1720   46.2270 O   0  0  0  0  0  0  0  0  0  0  0  0
   56.4570   26.3550   45.7270 C   0  0  0  0  0  0  0  0  0  0  0  0
   56.6050   27.7440   45.6520 C   0  0  0  0  0  0  0  0  0  0  0  0
   55.5240   28.5210   45.2480 O   0  0  0  0  0  0  0  0  0  0  0  0
   57.1920   30.6210   45.2130 N   0  0  0  0  0  0  0  0  0  0  0  0
   57.7270   31.8490   45.3910 C   0  0  0  0  0  0  0  0  0  0  0  0
   57.2540   33.0300   44.8270 C   0  0  0  0  0  0  0  0  0  0  0  0
   57.9360   34.2190   45.1300 C   0  0  0  0  0  0  0  0  0  0  0  0
   59.0550   34.2040   45.9940 C   0  0  0  0  0  0  0  0  0  0  0  0
   59.8040   35.4690   46.2890 C   0  0  0  0  0  0  0  0  0  0  0  0
   59.4940   32.9760   46.5220 C   0  0  0  0  0  0  0  0  0  0  0  0
   58.8070   31.8520   46.1920 N   0  0  0  0  0  0  0  0  0  0  0  0
   60.9770   30.3010   49.7370 C   0  0  0  0  0  0  0  0  0  0  0  0
   62.2520   30.5270   49.2060 O   0  0  0  0  0  0  0  0  0  0  0  0
   62.6430   31.7190   48.5770 C   0  0  0  0  0  0  0  0  0  0  0  0
   62.2920   32.9360   49.1740 C   0  0  0  0  0  0  0  0  0  0  0  0
   62.6670   34.1470   48.5830 C   0  0  0  0  0  0  0  0  0  0  0  0
   63.3910   34.1490   47.3880 C   0  0  0  0  0  0  0  0  0  0  0  0
   63.7400   32.9400   46.7800 C   0  0  0  0  0  0  0  0  0  0  0  0
   63.3660   31.7270   47.3680 C   0  0  0  0  0  0  0  0  0  0  0  0
   60.8360   30.2050   51.1260 C   0  0  0  0  0  0  0  0  0  0  0  0
   60.1143   30.5550   53.6879 H   0  0  0  0  0  0  0  0  0  0  0  0
   58.4007   30.0565   53.4833 H   0  0  0  0  0  0  0  0  0  0  0  0
   59.7023   28.8186   53.4833 H   0  0  0  0  0  0  0  0  0  0  0  0
   57.4654   29.6627   51.3143 H   0  0  0  0  0  0  0  0  0  0  0  0
   57.7038   29.8257   48.8424 H   0  0  0  0  0  0  0  0  0  0  0  0
   60.9090   29.8200   47.0520 H   0  0  0  0  0  0  0  0  0  0  0  0
   59.8709   27.9839   46.6549 H   0  0  0  0  0  0  0  0  0  0  0  0
   59.5868   25.5129   46.8105 H   0  0  0  0  0  0  0  0  0  0  0  0
   56.7060   23.6810   45.6210 H   0  0  0  0  0  0  0  0  0  0  0  0
   55.4974   25.8920   45.4538 H   0  0  0  0  0  0  0  0  0  0  0  0
   56.3749   33.0318   44.1657 H   0  0  0  0  0  0  0  0  0  0  0  0
   57.5973   35.1695   44.6919 H   0  0  0  0  0  0  0  0  0  0  0  0
   59.8832   35.6028   47.3780 H   0  0  0  0  0  0  0  0  0  0  0  0
   60.8120   35.4085   45.8527 H   0  0  0  0  0  0  0  0  0  0  0  0
   59.2663   36.3237   45.8527 H   0  0  0  0  0  0  0  0  0  0  0  0
   60.3706   32.9276   47.1847 H   0  0  0  0  0  0  0  0  0  0  0  0
   61.7184   32.9397   50.1126 H   0  0  0  0  0  0  0  0  0  0  0  0
   62.3915   35.0993   49.0598 H   0  0  0  0  0  0  0  0  0  0  0  0
   63.6864   35.1024   46.9256 H   0  0  0  0  0  0  0  0  0  0  0  0
   64.3091   32.9422   45.8386 H   0  0  0  0  0  0  0  0  0  0  0  0
   63.6373   30.7767   46.8849 H   0  0  0  0  0  0  0  0  0  0  0  0
   61.7211   30.3005   51.7721 H   0  0  0  0  0  0  0  0  0  0  0  0
  1  2  1  0
  2  3  2  0
  3  4  1  0
  4  5  2  0
  5  6  1  0
  6  7  1  0
  7  8  2  0
  8  9  1  0
  9 10  2  0
 10 11  1  0
 11 12  2  0
 12 13  1  0
 12 14  1  0
 14 15  2  0
 15 16  1  0
  8 17  1  0
 17 18  2  0
 18 19  1  0
 19 20  2  0
 20 21  1  0
 21 22  1  0
 21 23  2  0
 23 24  1  0
  5 25  1  0
 25 26  1  0
 26 27  1  0
 27 28  2  0
 28 29  1  0
 29 30  2  0
 30 31  1  0
 31 32  2  0
 25 33  2  0
 33  2  1  0
 24  7  1  0
 32 27  1  0
 15  9  1  0
 24 18  1  0
  1 34  1  0
  1 35  1  0
  1 36  1  0
  3 37  1  0
  4 38  1  0
  6 39  1  0
 10 40  1  0
 11 41  1  0
 13 42  1  0
 14 43  1  0
 19 44  1  0
 20 45  1  0
 22 46  1  0
 22 47  1  0
 22 48  1  0
 23 49  1  0
 28 50  1  0
 29 51  1  0
 30 52  1  0
 31 53  1  0
 32 54  1  0
 33 55  1  0
M  CHG  1  16  -1
M  END
>  <UniqueID>  (41) 
39

>  <SMILES>  (41) 
Cc1ccc(Nc2c(-c3ccc(O)cc3[O-])nc3ccc(C)cn23)c(Oc2ccccc2)c1

>  <Energy>  (41) 
112.57625472836106

>  <Genealogy>  (41) 
Cc1ccc(Nc2c(-c3ccc(O)cc3[O-])nc3ccc(C)cn23)c(Oc2ccccc2)c1 (protonated)
Cc1ccc(Nc2c(-c3ccc(O)cc3[O-])nc3ccc(C)cn23)c(Oc2ccccc2)c1 (3D coordinates assigned)
Cc1ccc(Nc2c(-c3ccc(O)cc3[O-])nc3ccc(C)cn23)c(Oc2ccccc2)c1 (optimized conformer: 112.57625472836106 kcal/mol)

>  <smiles>  (41) 
Cc1ccc(Nc2c(-c3ccc(O)cc3O)nc3ccc(C)cn23)c(Oc2ccccc2)c1

>  <score_type>  (41) 
oracle

>  <origin>  (41) 
adg

>  <m_score__min__energy>  (41) 
-13.1

>  <m_primary>  (41) 
energy

$$$$
41:0
     RDKit          3D

 57 60  0  0  0  0  0  0  0  0999 V2000
   57.1400   25.4130   46.3010 C   0  0  0  0  0  0  0  0  0  0  0  0
   57.1150   26.8660   45.9260 C   0  0  0  0  0  0  0  0  0  0  0  0
   55.9180   27.4190   45.6040 N   0  0  0  0  0  0  0  0  0  0  0  0
   55.8030   28.6920   45.2400 N   0  0  0  0  0  0  0  0  0  0  0  0
   56.8800   29.5110   45.1610 C   0  0  0  0  0  0  0  0  0  0  0  0
   56.7130   30.7030   44.7880 O   0  0  0  0  0  0  0  0  0  0  0  0
   58.1610   29.0220   45.4860 C   0  0  0  0  0  0  0  0  0  0  0  0
   59.3720   29.9330   45.3380 C   0  0  0  0  0  0  0  0  0  0  0  0
   59.9990   30.2300   46.6770 C   0  0  0  0  0  0  0  0  0  0  0  0
   59.2650   30.0410   47.8590 C   0  0  0  0  0  0  0  0  0  0  0  0
   59.8370   30.3310   49.1000 C   0  0  0  0  0  0  0  0  0  0  0  0
   61.1520   30.8050   49.1770 C   0  0  0  0  0  0  0  0  0  0  0  0
   61.8400   31.2140   50.7470 S   0  0  0  0  0  0  0  0  0  0  0  0
   60.7750   31.0310   51.7910 O   0  0  0  0  0  0  0  0  0  0  0  0
   62.9780   30.2820   51.0650 O   0  0  0  0  0  0  0  0  0  0  0  0
   62.3940   32.8780   50.7680 N   0  0  0  0  0  0  0  0  0  0  0  0
   61.3320   33.8060   51.2160 C   0  0  0  0  0  0  0  0  0  0  0  0
   60.1890   33.9190   50.1950 C   0  0  0  0  0  0  0  0  0  0  0  0
   60.7130   33.9280   48.8250 N   0  0  0  0  0  0  0  0  0  0  0  0
   59.8190   33.7680   47.7080 C   0  0  0  0  0  0  0  0  0  0  0  0
   60.1810   34.2490   46.4360 C   0  0  0  0  0  0  0  0  0  0  0  0
   59.3140   34.0990   45.3510 C   0  0  0  0  0  0  0  0  0  0  0  0
   58.0770   33.4750   45.5220 C   0  0  0  0  0  0  0  0  0  0  0  0
   57.7020   33.0020   46.7830 C   0  0  0  0  0  0  0  0  0  0  0  0
   58.5660   33.1470   47.8740 C   0  0  0  0  0  0  0  0  0  0  0  0
   58.1660   32.7100   49.0940 F   0  0  0  0  0  0  0  0  0  0  0  0
   62.1350   34.2090   48.6150 C   0  0  0  0  0  0  0  0  0  0  0  0
   63.0040   33.2590   49.4630 C   0  0  0  0  0  0  0  0  0  0  0  0
   61.8940   30.9820   48.0010 C   0  0  0  0  0  0  0  0  0  0  0  0
   61.3230   30.6900   46.7590 C   0  0  0  0  0  0  0  0  0  0  0  0
   58.2810   27.6690   45.9030 C   0  0  0  0  0  0  0  0  0  0  0  0
   59.6310   27.0660   46.2290 C   0  0  0  0  0  0  0  0  0  0  0  0
   57.1416   25.3171   47.3968 H   0  0  0  0  0  0  0  0  0  0  0  0
   56.2503   24.9130   45.8905 H   0  0  0  0  0  0  0  0  0  0  0  0
   58.0463   24.9439   45.8905 H   0  0  0  0  0  0  0  0  0  0  0  0
   60.1158   29.4393   44.6953 H   0  0  0  0  0  0  0  0  0  0  0  0
   59.0410   30.8819   44.8907 H   0  0  0  0  0  0  0  0  0  0  0  0
   58.2335   29.6624   47.8075 H   0  0  0  0  0  0  0  0  0  0  0  0
   59.2519   30.1864   50.0202 H   0  0  0  0  0  0  0  0  0  0  0  0
   63.1500   32.9130   51.4920 H   0  0  0  0  0  0  0  0  0  0  0  0
   60.9209   33.4402   52.1685 H   0  0  0  0  0  0  0  0  0  0  0  0
   61.7819   34.8033   51.3299 H   0  0  0  0  0  0  0  0  0  0  0  0
   59.5112   33.0612   50.3162 H   0  0  0  0  0  0  0  0  0  0  0  0
   59.6498   34.8613   50.3723 H   0  0  0  0  0  0  0  0  0  0  0  0
   61.1522   34.7459   46.2953 H   0  0  0  0  0  0  0  0  0  0  0  0
   59.6068   34.4736   44.3591 H   0  0  0  0  0  0  0  0  0  0  0  0
   57.3977   33.3555   44.6651 H   0  0  0  0  0  0  0  0  0  0  0  0
   56.7252   32.5146   46.9178 H   0  0  0  0  0  0  0  0  0  0  0  0
   62.3783   34.0696   47.5513 H   0  0  0  0  0  0  0  0  0  0  0  0
   62.3413   35.2460   48.9184 H   0  0  0  0  0  0  0  0  0  0  0  0
   63.1795   32.3411   48.8827 H   0  0  0  0  0  0  0  0  0  0  0  0
   63.9334   33.8004   49.6935 H   0  0  0  0  0  0  0  0  0  0  0  0
   62.9286   31.3517   48.0557 H   0  0  0  0  0  0  0  0  0  0  0  0
   61.9142   30.8213   45.8407 H   0  0  0  0  0  0  0  0  0  0  0  0
   59.7540   27.0110   47.3207 H   0  0  0  0  0  0  0  0  0  0  0  0
   59.6936   26.0544   45.8016 H   0  0  0  0  0  0  0  0  0  0  0  0
   60.4262   27.6945   45.8016 H   0  0  0  0  0  0  0  0  0  0  0  0
  1  2  1  0
  2  3  2  0
  3  4  1  0
  4  5  1  0
  5  6  2  0
  5  7  1  0
  7  8  1  0
  8  9  1  0
  9 10  2  0
 10 11  1  0
 11 12  2  0
 12 13  1  0
 13 14  2  0
 13 15  2  0
 13 16  1  0
 16 17  1  0
 17 18  1  0
 18 19  1  0
 19 20  1  0
 20 21  2  0
 21 22  1  0
 22 23  2  0
 23 24  1  0
 24 25  2  0
 25 26  1  0
 19 27  1  0
 27 28  1  0
 12 29  1  0
 29 30  2  0
  7 31  2  0
 31 32  1  0
 31  2  1  0
 30  9  1  0
 28 16  1  0
 25 20  1  0
  1 33  1  0
  1 34  1  0
  1 35  1  0
  8 36  1  0
  8 37  1  0
 10 38  1  0
 11 39  1  0
 16 40  1  0
 17 41  1  0
 17 42  1  0
 18 43  1  0
 18 44  1  0
 21 45  1  0
 22 46  1  0
 23 47  1  0
 24 48  1  0
 27 49  1  0
 27 50  1  0
 28 51  1  0
 28 52  1  0
 29 53  1  0
 30 54  1  0
 32 55  1  0
 32 56  1  0
 32 57  1  0
M  CHG  2   4  -1  16   1
M  END
>  <UniqueID>  (42) 
40

>  <SMILES>  (42) 
Cc1n[n-]c(=O)c(Cc2ccc(S(=O)(=O)[NH+]3CCN(c4ccccc4F)CC3)cc2)c1C

>  <Energy>  (42) 
75.44219362493885

>  <Genealogy>  (42) 
Cc1n[n-]c(=O)c(Cc2ccc(S(=O)(=O)[NH+]3CCN(c4ccccc4F)CC3)cc2)c1C (protonated)
Cc1n[n-]c(=O)c(Cc2ccc(S(=O)(=O)[NH+]3CCN(c4ccccc4F)CC3)cc2)c1C (3D coordinates assigned)
Cc1n[n-]c(=O)c(Cc2ccc(S(=O)(=O)[NH+]3CCN(c4ccccc4F)CC3)cc2)c1C (nonaromatic ring conformer: 75.44219362493885 kcal/mol)

>  <smiles>  (42) 
Cc1n[nH]c(=O)c(Cc2ccc(S(=O)(=O)N3CCN(c4ccccc4F)CC3)cc2)c1C

>  <score_type>  (42) 
oracle

>  <origin>  (42) 
adg

>  <m_score__min__energy>  (42) 
-11.039999999999999

>  <m_primary>  (42) 
energy

$$$$
42:0
     RDKit          3D

 37 39  0  0  0  0  0  0  0  0999 V2000
   55.5200   28.8900   45.0290 N   0  0  0  0  0  0  0  0  0  0  0  0
   56.7040   30.0540   44.5490 S   0  0  0  0  0  0  0  0  0  0  0  0
   56.1990   31.4350   44.8600 O   0  0  0  0  0  0  0  0  0  0  0  0
   56.9450   29.9500   43.0700 O   0  0  0  0  0  0  0  0  0  0  0  0
   58.2070   29.7550   45.4140 C   0  0  0  0  0  0  0  0  0  0  0  0
   59.3820   29.4430   44.7150 C   0  0  0  0  0  0  0  0  0  0  0  0
   60.5670   29.1870   45.4120 C   0  0  0  0  0  0  0  0  0  0  0  0
   60.5810   29.2320   46.8090 C   0  0  0  0  0  0  0  0  0  0  0  0
   59.4090   29.5390   47.5140 C   0  0  0  0  0  0  0  0  0  0  0  0
   59.3980   29.5650   48.9430 N   0  0  0  0  0  0  0  0  0  0  0  0
   58.7790   30.5830   49.7390 C   0  0  0  0  0  0  0  0  0  0  0  0
   57.7770   30.2770   50.4370 O   0  0  0  0  0  0  0  0  0  0  0  0
   59.3090   31.9990   49.8090 C   0  0  0  0  0  0  0  0  0  0  0  0
   60.0470   32.3900   48.5810 N   0  0  0  0  0  0  0  0  0  0  0  0
   61.4100   32.1860   48.5170 C   0  0  0  0  0  0  0  0  0  0  0  0
   62.0250   31.5900   49.4420 O   0  0  0  0  0  0  0  0  0  0  0  0
   62.1420   32.6480   47.4230 C   0  0  0  0  0  0  0  0  0  0  0  0
   61.5130   33.2720   46.4030 N   0  0  0  0  0  0  0  0  0  0  0  0
   60.1690   33.4390   46.4040 C   0  0  0  0  0  0  0  0  0  0  0  0
   59.5520   34.0690   45.3190 C   0  0  0  0  0  0  0  0  0  0  0  0
   58.1660   34.2190   45.2910 C   0  0  0  0  0  0  0  0  0  0  0  0
   57.3900   33.7300   46.3400 C   0  0  0  0  0  0  0  0  0  0  0  0
   57.9940   33.1040   47.4340 C   0  0  0  0  0  0  0  0  0  0  0  0
   59.4020   32.9660   47.5000 C   0  0  0  0  0  0  0  0  0  0  0  0
   58.2320   29.8270   46.8130 C   0  0  0  0  0  0  0  0  0  0  0  0
   54.5930   29.3700   45.0000 H   0  0  0  0  0  0  0  0  0  0  0  0
   59.3715   29.3995   43.6159 H   0  0  0  0  0  0  0  0  0  0  0  0
   61.4888   28.9500   44.8605 H   0  0  0  0  0  0  0  0  0  0  0  0
   61.5130   29.0262   47.3559 H   0  0  0  0  0  0  0  0  0  0  0  0
   58.4615   32.6868   49.9456 H   0  0  0  0  0  0  0  0  0  0  0  0
   60.0121   32.0520   50.6533 H   0  0  0  0  0  0  0  0  0  0  0  0
   63.2321   32.5042   47.3908 H   0  0  0  0  0  0  0  0  0  0  0  0
   60.1616   34.4473   44.4852 H   0  0  0  0  0  0  0  0  0  0  0  0
   57.6849   34.7237   44.4402 H   0  0  0  0  0  0  0  0  0  0  0  0
   56.2957   33.8373   46.3069 H   0  0  0  0  0  0  0  0  0  0  0  0
   57.3697   32.7147   48.2517 H   0  0  0  0  0  0  0  0  0  0  0  0
   57.3227   30.1111   47.3630 H   0  0  0  0  0  0  0  0  0  0  0  0
  1  2  1  0
  2  3  2  0
  2  4  2  0
  2  5  1  0
  5  6  2  0
  6  7  1  0
  7  8  2  0
  8  9  1  0
  9 10  1  0
 10 11  1  0
 11 12  2  0
 11 13  1  0
 13 14  1  0
 14 15  1  0
 15 16  2  0
 15 17  1  0
 17 18  2  0
 18 19  1  0
 19 20  2  0
 20 21  1  0
 21 22  2  0
 22 23  1  0
 23 24  2  0
  9 25  2  0
 25  5  1  0
 24 14  1  0
 24 19  1  0
  1 26  1  0
  6 27  1  0
  7 28  1  0
  8 29  1  0
 13 30  1  0
 13 31  1  0
 17 32  1  0
 20 33  1  0
 21 34  1  0
 22 35  1  0
 23 36  1  0
 25 37  1  0
M  CHG  2   1  -1  10  -1
M  END
>  <UniqueID>  (43) 
41

>  <SMILES>  (43) 
[NH-]S(=O)(=O)c1cccc([N-]C(=O)Cn2c(=O)cnc3ccccc32)c1

>  <Energy>  (43) 
53.55007348804049

>  <Genealogy>  (43) 
[NH-]S(=O)(=O)c1cccc([N-]C(=O)Cn2c(=O)cnc3ccccc32)c1 (protonated)
[NH-]S(=O)(=O)c1cccc([N-]C(=O)Cn2c(=O)cnc3ccccc32)c1 (3D coordinates assigned)
[NH-]S(=O)(=O)c1cccc([N-]C(=O)Cn2c(=O)cnc3ccccc32)c1 (optimized conformer: 53.55007348804049 kcal/mol)

>  <smiles>  (43) 
NS(=O)(=O)c1cccc(NC(=O)Cn2c(=O)cnc3ccccc32)c1

>  <score_type>  (43) 
oracle

>  <origin>  (43) 
adg

>  <m_score__min__energy>  (43) 
-12.23

>  <m_primary>  (43) 
energy

$$$$
43:0
     RDKit          3D

 52 54  0  0  1  0  0  0  0  0999 V2000
   60.4420   33.7850   50.8900 C   0  0  0  0  0  0  0  0  0  0  0  0
   60.1750   34.0110   49.4820 N   0  0  0  0  0  0  0  0  0  0  0  0
   59.1350   33.3020   48.8440 C   0  0  0  0  0  0  0  0  0  0  0  0
   58.4770   32.4850   49.5670 O   0  0  0  0  0  0  0  0  0  0  0  0
   58.8130   33.4790   47.4350 C   0  0  0  0  0  0  0  0  0  0  0  0
   59.4470   34.3930   46.6200 C   0  0  0  0  0  0  0  0  0  0  0  0
   59.1430   34.5600   45.2850 C   0  0  0  0  0  0  0  0  0  0  0  0
   58.1460   33.7600   44.7570 C   0  0  0  0  0  0  0  0  0  0  0  0
   57.4880   32.8340   45.5410 C   0  0  0  0  0  0  0  0  0  0  0  0
   57.2700   27.6210   45.8620 N   0  0  0  0  0  0  0  0  0  0  0  0
   57.1020   28.5750   44.9940 C   0  0  0  0  0  0  0  0  0  0  0  0
   56.7500   30.5870   43.1310 C   0  0  0  0  0  0  0  0  0  0  0  0
   56.9870   29.2820   42.7400 C   0  0  0  0  0  0  0  0  0  0  0  0
   57.1580   28.3070   43.6600 N   0  0  0  0  0  0  0  0  0  0  0  0
   56.6950   30.8540   44.4860 C   0  0  0  0  0  0  0  0  0  0  0  0
   56.4760   32.0560   44.9100 N   0  0  0  0  0  0  0  0  0  0  0  0
   58.6100   27.5240   46.4590 C   0  0  0  0  0  0  0  0  0  0  0  0
   58.5170   28.3100   47.7670 C   0  0  0  0  0  0  0  0  0  0  0  0
   59.6140   29.3280   47.8750 C   0  0  0  0  0  0  0  0  0  0  0  0
   60.1200   29.8520   46.6960 C   0  0  0  0  0  0  0  0  0  0  0  0
   61.1320   30.7940   46.7500 C   0  0  0  0  0  0  0  0  0  0  0  0
   61.6280   31.2030   47.9830 C   0  0  0  0  0  0  0  0  0  0  0  0
   62.8950   32.3860   47.9820 S   0  0  0  0  0  0  0  0  0  0  0  0
   64.0610   32.1200   46.7420 N   0  0  0  0  0  0  0  0  0  0  0  0
   63.6540   32.3580   49.2910 O   0  0  0  0  0  0  0  0  0  0  0  0
   62.3360   33.7710   47.8430 O   0  0  0  0  0  0  0  0  0  0  0  0
   61.1190   30.6770   49.1540 C   0  0  0  0  0  0  0  0  0  0  0  0
   60.1010   29.7290   49.1210 C   0  0  0  0  0  0  0  0  0  0  0  0
   56.8710   29.8480   45.3650 N   0  0  0  0  0  0  0  0  0  0  0  0
   57.8240   32.7000   46.8720 C   0  0  0  0  0  0  0  0  0  0  0  0
   59.7412   34.3781   51.4959 H   0  0  0  0  0  0  0  0  0  0  0  0
   60.3133   32.7172   51.1208 H   0  0  0  0  0  0  0  0  0  0  0  0
   61.4739   34.0883   51.1208 H   0  0  0  0  0  0  0  0  0  0  0  0
   60.7570   34.6910   48.9680 H   0  0  0  0  0  0  0  0  0  0  0  0
   60.2365   35.0218   47.0574 H   0  0  0  0  0  0  0  0  0  0  0  0
   59.6719   35.2993   44.6656 H   0  0  0  0  0  0  0  0  0  0  0  0
   57.8733   33.8632   43.6963 H   0  0  0  0  0  0  0  0  0  0  0  0
   56.6099   31.3862   42.3882 H   0  0  0  0  0  0  0  0  0  0  0  0
   57.0368   29.0350   41.6693 H   0  0  0  0  0  0  0  0  0  0  0  0
   57.3400   27.3020   43.3860 H   0  0  0  0  0  0  0  0  0  0  0  0
   58.8703   26.4737   46.6566 H   0  0  0  0  0  0  0  0  0  0  0  0
   59.3896   27.9212   45.7923 H   0  0  0  0  0  0  0  0  0  0  0  0
   57.5459   28.8252   47.8063 H   0  0  0  0  0  0  0  0  0  0  0  0
   58.6186   27.6025   48.6032 H   0  0  0  0  0  0  0  0  0  0  0  0
   59.7205   29.5219   45.7257 H   0  0  0  0  0  0  0  0  0  0  0  0
   61.5424   31.2176   45.8215 H   0  0  0  0  0  0  0  0  0  0  0  0
   64.7660   32.8860   46.6790 H   0  0  0  0  0  0  0  0  0  0  0  0
   64.5150   31.2010   46.9690 H   0  0  0  0  0  0  0  0  0  0  0  0
   61.5220   31.0105   50.1217 H   0  0  0  0  0  0  0  0  0  0  0  0
   59.6912   29.3071   50.0505 H   0  0  0  0  0  0  0  0  0  0  0  0
   56.8190   30.1100   46.3790 H   0  0  0  0  0  0  0  0  0  0  0  0
   57.2958   31.9616   47.4930 H   0  0  0  0  0  0  0  0  0  0  0  0
  1  2  1  0
  2  3  1  0
  3  4  2  0
  3  5  1  0
  5  6  2  0
  6  7  1  0
  7  8  2  0
  8  9  1  0
  9 10  1  0
 10 11  2  0
 11 12  1  0
 12 13  2  0
 13 14  1  0
 14 15  1  0
 15 16  2  0
 16 17  1  0
 17 18  1  0
 18 19  1  0
 19 20  2  0
 20 21  1  0
 21 22  2  0
 22 23  1  0
 23 24  1  0
 23 25  2  0
 23 26  2  0
 22 27  1  0
 27 28  2  0
 15 29  1  0
  9 30  2  0
 30  5  1  0
 29 11  1  0
 28 19  1  0
  1 31  1  0
  1 32  1  0
  1 33  1  0
  2 34  1  0
  6 35  1  0
  7 36  1  0
  8 37  1  0
 12 38  1  0
 13 39  1  0
 14 40  1  0
 17 41  1  0
 17 42  1  0
 18 43  1  0
 18 44  1  0
 20 45  1  0
 21 46  1  0
 24 47  1  0
 24 48  1  0
 27 49  1  0
 28 50  1  0
 29 51  1  0
 30 52  1  0
M  END
>  <smiles>  (44) 
CNC(=O)c1cccc(N=c2cc[nH]c(=NCCc3ccc(S(N)(=O)=O)cc3)[nH]2)c1

>  <score_type>  (44) 
oracle

>  <origin>  (44) 
adg

>  <m_score__min__energy>  (44) 
-9.4800000000000004

>  <m_primary>  (44) 
energy

$$$$
44:0
     RDKit          3D

 46 49  0  0  0  0  0  0  0  0999 V2000
   59.0080   26.6904   44.9282 H   0  0  0  0  0  0  0  0  0  0  0  0
   58.0930   26.9620   45.4750 C   0  0  0  0  0  0  0  0  0  0  0  0
   57.4020   25.8870   46.2180 C   0  0  0  0  0  0  0  0  0  0  0  0
   57.9920   24.8270   46.8020 N   0  0  0  0  0  0  0  0  0  0  0  0
   56.9570   24.1480   47.3420 C   0  0  0  0  0  0  0  0  0  0  0  0
   57.1110   23.0770   47.9830 O   0  0  0  0  0  0  0  0  0  0  0  0
   55.7450   24.7080   47.1400 N   0  0  0  0  0  0  0  0  0  0  0  0
   56.0460   25.8060   46.4280 C   0  0  0  0  0  0  0  0  0  0  0  0
   55.0970   26.7170   45.9790 O   0  0  0  0  0  0  0  0  0  0  0  0
   57.6950   28.2430   45.4130 C   0  0  0  0  0  0  0  0  0  0  0  0
   56.6560   28.8290   44.6900 C   0  0  0  0  0  0  0  0  0  0  0  0
   55.9661   28.2921   44.0223 H   0  0  0  0  0  0  0  0  0  0  0  0
   56.6270   30.1590   44.9360 N   0  0  0  0  0  0  0  0  0  0  0  0
   57.6020   30.4420   45.7830 N   0  0  0  0  0  0  0  0  0  0  0  0
   57.9810   31.6390   46.3320 C   0  0  0  0  0  0  0  0  0  0  0  0
   57.4160   32.8030   46.1120 N   0  0  0  0  0  0  0  0  0  0  0  0
   57.7300   34.2270   45.8770 C   0  0  0  0  0  0  0  0  0  0  0  0
   56.6755   34.5298   45.9560 H   0  0  0  0  0  0  0  0  0  0  0  0
   59.0300   34.7600   46.4350 C   0  0  0  0  0  0  0  0  0  0  0  0
   59.0770   35.7789   46.8470 H   0  0  0  0  0  0  0  0  0  0  0  0
   59.7514   34.4225   47.1938 H   0  0  0  0  0  0  0  0  0  0  0  0
   58.8560   34.5470   44.9210 C   0  0  0  0  0  0  0  0  0  0  0  0
   58.7784   35.4132   44.2474 H   0  0  0  0  0  0  0  0  0  0  0  0
   59.4008   33.9932   44.1423 H   0  0  0  0  0  0  0  0  0  0  0  0
   59.0410   31.6210   47.1870 N   0  0  0  0  0  0  0  0  0  0  0  0
   59.7050   30.4660   47.4910 C   0  0  0  0  0  0  0  0  0  0  0  0
   60.7170   30.4660   48.3110 N   0  0  0  0  0  0  0  0  0  0  0  0
   61.0080   29.4770   49.3580 C   0  0  1  0  0  0  0  0  0  0  0  0
   61.5805   28.6459   48.9204 H   0  0  0  0  0  0  0  0  0  0  0  0
   61.8950   30.0950   50.4500 C   0  0  0  0  0  0  0  0  0  0  0  0
   61.5019   29.8211   51.4402 H   0  0  0  0  0  0  0  0  0  0  0  0
   62.9224   29.7162   50.3458 H   0  0  0  0  0  0  0  0  0  0  0  0
   61.8956   31.1900   50.3458 H   0  0  0  0  0  0  0  0  0  0  0  0
   59.7010   28.8560   49.9110 C   0  0  0  0  0  0  0  0  0  0  0  0
   58.9245   28.9361   49.1360 H   0  0  0  0  0  0  0  0  0  0  0  0
   59.9293   27.8125   50.1735 H   0  0  0  0  0  0  0  0  0  0  0  0
   59.1810   29.5350   51.1900 C   0  0  0  0  0  0  0  0  0  0  0  0
   58.7860   28.7608   51.8643 H   0  0  0  0  0  0  0  0  0  0  0  0
   60.0226   30.0780   51.6448 H   0  0  0  0  0  0  0  0  0  0  0  0
   58.0940   30.5310   50.9130 C   0  0  0  0  0  0  0  0  0  0  0  0
   57.0170   30.4830   51.5650 O   0  0  0  0  0  0  0  0  0  0  0  0
   58.2740   31.5460   49.9230 N   0  0  0  0  0  0  0  0  0  0  0  0
   59.1550   31.6000   49.3650 H   0  0  0  0  0  0  0  0  0  0  0  0
   57.5160   32.2400   49.7380 H   0  0  0  0  0  0  0  0  0  0  0  0
   59.3080   29.2930   46.9310 N   0  0  0  0  0  0  0  0  0  0  0  0
   58.2540   29.3090   46.0820 C   0  0  0  0  0  0  0  0  0  0  0  0
  1  2  1  0
  2  3  1  0
  3  4  1  0
  4  5  1  0
  5  6  2  0
  5  7  1  0
  7  8  1  0
  8  9  1  0
  2 10  2  0
 10 11  1  0
 11 12  1  0
 11 13  2  0
 13 14  1  0
 14 15  1  0
 15 16  2  3
 16 17  1  0
 17 18  1  0
 17 19  1  0
 19 20  1  0
 19 21  1  0
 19 22  1  0
 22 23  1  0
 22 24  1  0
 15 25  1  0
 25 26  1  0
 26 27  2  3
 27 28  1  0
 28 29  1  6
 28 30  1  0
 30 31  1  0
 30 32  1  0
 30 33  1  0
 28 34  1  0
 34 35  1  0
 34 36  1  0
 34 37  1  0
 37 38  1  0
 37 39  1  0
 37 40  1  0
 40 41  2  0
 40 42  1  0
 42 43  1  0
 42 44  1  0
 26 45  1  0
 45 46  2  0
  8  3  2  0
 46 10  1  0
 46 14  1  0
 22 17  1  0
M  CHG  4   4  -1   7  -1   9  -1  25  -1
M  END
>  <UniqueID>  (45) 
42

>  <SMILES>  (45) 
C[C@@H](CCC(N)=O)N=c1nc2/c(=C/c3[n-]c(=O)[n-]c3[O-])cnn2c(=NC2CC2)[n-]1

>  <Energy>  (45) 
405.98936525913683

>  <Genealogy>  (45) 
CC(CCC(N)=O)N=c1nc2c(=Cc3[n-]c(=O)[n-]c3[O-])cnn2c(=NC2CC2)[n-]1 (protonated)
C[C@@H](CCC(N)=O)N=c1nc2c(=Cc3[n-]c(=O)[n-]c3[O-])cnn2c(=NC2CC2)[n-]1 (chirality)
C[C@@H](CCC(N)=O)N=c1nc2/c(=C/c3[n-]c(=O)[n-]c3[O-])cnn2c(=NC2CC2)[n-]1 (cis-trans isomerization)
C[C@@H](CCC(N)=O)N=c1nc2/c(=C/c3[n-]c(=O)[n-]c3[O-])cnn2c(=NC2CC2)[n-]1 (3D coordinates assigned)
C[C@@H](CCC(N)=O)N=c1nc2/c(=C/c3[n-]c(=O)[n-]c3[O-])cnn2c(=NC2CC2)[n-]1 (nonaromatic ring conformer: 405.98936525913683 kcal/mol)

>  <smiles>  (45) 
CC(CCC(N)=O)N=c1nc2c(=Cc3[nH]c(=O)[nH]c3O)cnn2c(=NC2CC2)[nH]1

>  <score_type>  (45) 
oracle

>  <origin>  (45) 
adg

>  <m_score__min__energy>  (45) 
-17.27

>  <m_primary>  (45) 
energy

$$$$
45:0
     RDKit          3D

 37 40  0  0  0  0  0  0  0  0999 V2000
   54.7720   29.3440   44.2460 O   0  0  0  0  0  0  0  0  0  0  0  0
   55.9150   29.3820   44.7700 C   0  0  0  0  0  0  0  0  0  0  0  0
   56.5760   30.5790   44.8780 N   0  0  0  0  0  0  0  0  0  0  0  0
   57.8150   30.6590   45.4440 C   0  0  0  0  0  0  0  0  0  0  0  0
   58.3940   31.7720   45.5460 O   0  0  0  0  0  0  0  0  0  0  0  0
   58.3980   29.4820   45.9060 C   0  0  0  0  0  0  0  0  0  0  0  0
   59.5840   29.1540   46.5480 C   0  0  0  0  0  0  0  0  0  0  0  0
   60.7300   30.0560   46.9000 C   0  0  0  0  0  0  0  0  0  0  0  0
   60.2470   31.2020   47.7540 C   0  0  0  0  0  0  0  0  0  0  0  0
   59.3630   30.9680   48.8250 C   0  0  0  0  0  0  0  0  0  0  0  0
   58.9580   29.7080   49.1250 F   0  0  0  0  0  0  0  0  0  0  0  0
   58.8890   32.0360   49.5940 C   0  0  0  0  0  0  0  0  0  0  0  0
   59.2840   33.3420   49.3000 C   0  0  0  0  0  0  0  0  0  0  0  0
   60.1510   33.5870   48.2330 C   0  0  0  0  0  0  0  0  0  0  0  0
   60.6310   32.5260   47.4590 C   0  0  0  0  0  0  0  0  0  0  0  0
   61.4650   32.7920   46.4220 F   0  0  0  0  0  0  0  0  0  0  0  0
   59.5760   27.8180   46.7760 N   0  0  0  0  0  0  0  0  0  0  0  0
   58.4470   27.2940   46.3080 N   0  0  0  0  0  0  0  0  0  0  0  0
   58.0990   25.9000   46.3810 C   0  0  0  0  0  0  0  0  0  0  0  0
   58.8610   24.9450   45.6860 C   0  0  0  0  0  0  0  0  0  0  0  0
   58.5250   23.5890   45.7480 C   0  0  0  0  0  0  0  0  0  0  0  0
   57.4220   23.1740   46.4990 C   0  0  0  0  0  0  0  0  0  0  0  0
   56.6510   24.1150   47.1870 C   0  0  0  0  0  0  0  0  0  0  0  0
   55.5750   23.7120   47.9060 F   0  0  0  0  0  0  0  0  0  0  0  0
   56.9850   25.4720   47.1280 C   0  0  0  0  0  0  0  0  0  0  0  0
   57.7260   28.3020   45.7790 C   0  0  0  0  0  0  0  0  0  0  0  0
   56.4890   28.2300   45.2280 N   0  0  0  0  0  0  0  0  0  0  0  0
   61.4866   29.4825   47.4555 H   0  0  0  0  0  0  0  0  0  0  0  0
   61.1684   30.4576   45.9745 H   0  0  0  0  0  0  0  0  0  0  0  0
   58.2031   31.8461   50.4327 H   0  0  0  0  0  0  0  0  0  0  0  0
   58.9121   34.1790   49.9092 H   0  0  0  0  0  0  0  0  0  0  0  0
   60.4572   34.6177   48.0008 H   0  0  0  0  0  0  0  0  0  0  0  0
   60.3450   27.2710   47.2250 H   0  0  0  0  0  0  0  0  0  0  0  0
   59.7274   25.2664   45.0893 H   0  0  0  0  0  0  0  0  0  0  0  0
   59.1298   22.8479   45.2048 H   0  0  0  0  0  0  0  0  0  0  0  0
   57.1606   22.1067   46.5487 H   0  0  0  0  0  0  0  0  0  0  0  0
   56.3735   26.2094   47.6686 H   0  0  0  0  0  0  0  0  0  0  0  0
  1  2  2  0
  2  3  1  0
  3  4  1  0
  4  5  2  0
  4  6  1  0
  6  7  1  0
  7  8  1  0
  8  9  1  0
  9 10  2  0
 10 11  1  0
 10 12  1  0
 12 13  2  0
 13 14  1  0
 14 15  2  0
 15 16  1  0
  7 17  2  0
 17 18  1  0
 18 19  1  0
 19 20  2  0
 20 21  1  0
 21 22  2  0
 22 23  1  0
 23 24  1  0
 23 25  2  0
 18 26  1  0
 26 27  1  0
 27  2  1  0
 26  6  2  0
 15  9  1  0
 25 19  1  0
  8 28  1  0
  8 29  1  0
 12 30  1  0
 13 31  1  0
 14 32  1  0
 17 33  1  0
 20 34  1  0
 21 35  1  0
 22 36  1  0
 25 37  1  0
M  CHG  3   3  -1  17   1  27  -1
M  END
>  <UniqueID>  (46) 
43

>  <SMILES>  (46) 
O=c1[n-]c(=O)c2c(Cc3c(F)cccc3F)[nH+]n(-c3cccc(F)c3)c2[n-]1

>  <Energy>  (46) 
89.77107207975996

>  <Genealogy>  (46) 
O=c1[n-]c(=O)c2c(Cc3c(F)cccc3F)[nH+]n(-c3cccc(F)c3)c2[n-]1 (protonated)
O=c1[n-]c(=O)c2c(Cc3c(F)cccc3F)[nH+]n(-c3cccc(F)c3)c2[n-]1 (3D coordinates assigned)
O=c1[n-]c(=O)c2c(Cc3c(F)cccc3F)[nH+]n(-c3cccc(F)c3)c2[n-]1 (optimized conformer: 89.77107207975996 kcal/mol)

>  <smiles>  (46) 
O=c1[nH]c(=O)c2c(Cc3c(F)cccc3F)nn(-c3cccc(F)c3)c2[nH]1

>  <score_type>  (46) 
oracle

>  <origin>  (46) 
adg

>  <m_score__min__energy>  (46) 
-9.7200000000000006

>  <m_primary>  (46) 
energy

$$$$
46:0
     RDKit          3D

 29 31  0  0  0  0  0  0  0  0999 V2000
   57.7270   32.3690   41.9410 C   0  0  0  0  0  0  0  0  0  0  0  0
   57.8400   32.2410   43.2670 C   0  0  0  0  0  0  0  0  0  0  0  0
   58.0850   33.3110   44.0610 N   0  0  0  0  0  0  0  0  0  0  0  0
   58.2650   32.8320   45.3010 C   0  0  0  0  0  0  0  0  0  0  0  0
   58.5580   33.5690   46.4490 C   0  0  0  0  0  0  0  0  0  0  0  0
   58.7100   32.8700   47.6590 C   0  0  0  0  0  0  0  0  0  0  0  0
   58.5670   31.4680   47.6950 C   0  0  0  0  0  0  0  0  0  0  0  0
   58.2720   30.7500   46.5230 C   0  0  0  0  0  0  0  0  0  0  0  0
   58.1320   31.4660   45.3290 C   0  0  0  0  0  0  0  0  0  0  0  0
   57.8320   31.0520   44.0360 C   0  0  0  0  0  0  0  0  0  0  0  0
   57.5910   29.7720   43.6770 C   0  0  0  0  0  0  0  0  0  0  0  0
   57.5210   28.6250   44.6000 C   0  0  0  0  0  0  0  0  0  0  0  0
   56.3140   28.2680   45.2260 C   0  0  0  0  0  0  0  0  0  0  0  0
   55.1450   28.9740   44.9570 O   0  0  0  0  0  0  0  0  0  0  0  0
   56.2840   27.2300   46.1040 N   0  0  0  0  0  0  0  0  0  0  0  0
   57.4180   26.5390   46.4050 C   0  0  0  0  0  0  0  0  0  0  0  0
   57.3720   25.2940   47.4650 S   0  0  0  0  0  0  0  0  0  0  0  0
   58.5990   26.8870   45.8350 N   0  0  0  0  0  0  0  0  0  0  0  0
   58.6770   27.9140   44.9500 C   0  0  0  0  0  0  0  0  0  0  0  0
   59.7930   28.2130   44.4450 O   0  0  0  0  0  0  0  0  0  0  0  0
   57.5278   31.4845   41.3181 H   0  0  0  0  0  0  0  0  0  0  0  0
   57.8332   33.3588   41.4730 H   0  0  0  0  0  0  0  0  0  0  0  0
   58.1600   34.3120   43.7670 H   0  0  0  0  0  0  0  0  0  0  0  0
   58.6666   34.6629   46.4084 H   0  0  0  0  0  0  0  0  0  0  0  0
   58.9418   33.4200   48.5830 H   0  0  0  0  0  0  0  0  0  0  0  0
   58.6872   30.9316   48.6478 H   0  0  0  0  0  0  0  0  0  0  0  0
   58.1546   29.6565   46.5440 H   0  0  0  0  0  0  0  0  0  0  0  0
   57.4340   29.5691   42.6073 H   0  0  0  0  0  0  0  0  0  0  0  0
   55.3760   26.9710   46.5530 H   0  0  0  0  0  0  0  0  0  0  0  0
  1  2  2  0
  2  3  1  0
  3  4  1  0
  4  5  2  0
  5  6  1  0
  6  7  2  0
  7  8  1  0
  8  9  2  0
  9 10  1  0
 10 11  2  3
 11 12  1  0
 12 13  2  0
 13 14  1  0
 13 15  1  0
 15 16  1  0
 16 17  2  0
 16 18  1  0
 18 19  1  0
 19 20  2  0
 10  2  1  0
 19 12  1  0
  9  4  1  0
  1 21  1  0
  1 22  1  0
  3 23  1  0
  5 24  1  0
  6 25  1  0
  7 26  1  0
  8 27  1  0
 11 28  1  0
 15 29  1  0
M  CHG  2  14  -1  18  -1
M  END
>  <UniqueID>  (47) 
44

>  <SMILES>  (47) 
C=c1[nH]c2ccccc2c1=Cc1c([O-])[nH]c(=S)[n-]c1=O

>  <Energy>  (47) 
80.87747485470356

>  <Genealogy>  (47) 
C=c1[nH]c2ccccc2c1=Cc1c([O-])[nH]c(=S)[n-]c1=O (protonated)
C=c1[nH]c2ccccc2c1=Cc1c([O-])[nH]c(=S)[n-]c1=O (3D coordinates assigned)
C=c1[nH]c2ccccc2c1=Cc1c([O-])[nH]c(=S)[n-]c1=O (optimized conformer: 80.87747485470356 kcal/mol)

>  <smiles>  (47) 
C=c1[nH]c2ccccc2c1=Cc1c(O)[nH]c(=S)[nH]c1=O

>  <score_type>  (47) 
oracle

>  <origin>  (47) 
adg

>  <m_score__min__energy>  (47) 
-12.529999999999999

>  <m_primary>  (47) 
energy

$$$$
47:0
     RDKit          3D

 42 44  0  0  0  0  0  0  0  0999 V2000
   57.1030   29.1850   43.0330 N   0  0  0  0  0  0  0  0  0  0  0  0
   56.6130   29.9830   44.4870 S   0  0  0  0  0  0  0  0  0  0  0  0
   56.8680   29.0690   45.6520 O   0  0  0  0  0  0  0  0  0  0  0  0
   55.1410   30.2810   44.4320 O   0  0  0  0  0  0  0  0  0  0  0  0
   57.5270   31.4860   44.6830 C   0  0  0  0  0  0  0  0  0  0  0  0
   57.9520   31.8660   45.9670 C   0  0  0  0  0  0  0  0  0  0  0  0
   58.6980   33.0390   46.1610 C   0  0  0  0  0  0  0  0  0  0  0  0
   59.1350   33.4250   47.5240 C   0  0  0  0  0  0  0  0  0  0  0  0
   58.4520   33.0650   48.5180 O   0  0  0  0  0  0  0  0  0  0  0  0
   60.2910   34.2440   47.7480 N   0  0  0  0  0  0  0  0  0  0  0  0
   61.5120   33.8310   48.3790 C   0  0  0  0  0  0  0  0  0  0  0  0
   61.5010   33.5010   49.7360 C   0  0  0  0  0  0  0  0  0  0  0  0
   62.6740   33.0820   50.3670 C   0  0  0  0  0  0  0  0  0  0  0  0
   63.8660   32.9830   49.6240 C   0  0  0  0  0  0  0  0  0  0  0  0
   65.1040   32.5580   50.2370 N   0  0  0  0  0  0  0  0  0  0  0  0
   65.1630   31.2520   50.9070 C   0  0  0  0  0  0  0  0  0  0  0  0
   66.5980   30.7160   50.8990 C   0  0  0  0  0  0  0  0  0  0  0  0
   67.4980   31.6840   51.4000 O   0  0  0  0  0  0  0  0  0  0  0  0
   67.5400   32.7900   50.5220 C   0  0  0  0  0  0  0  0  0  0  0  0
   66.1900   33.5140   50.4900 C   0  0  0  0  0  0  0  0  0  0  0  0
   63.8400   33.2810   48.2950 N   0  0  0  0  0  0  0  0  0  0  0  0
   62.7100   33.6920   47.6620 C   0  0  0  0  0  0  0  0  0  0  0  0
   58.9970   33.8500   45.0560 C   0  0  0  0  0  0  0  0  0  0  0  0
   58.5840   33.4770   43.7760 C   0  0  0  0  0  0  0  0  0  0  0  0
   57.8570   32.3000   43.5780 C   0  0  0  0  0  0  0  0  0  0  0  0
   57.3870   31.8840   41.9330 Cl  0  0  0  0  0  0  0  0  0  0  0  0
   58.1430   29.2470   42.9790 H   0  0  0  0  0  0  0  0  0  0  0  0
   56.8660   28.1740   43.1450 H   0  0  0  0  0  0  0  0  0  0  0  0
   57.6967   31.2359   46.8318 H   0  0  0  0  0  0  0  0  0  0  0  0
   60.5651   33.5714   50.3097 H   0  0  0  0  0  0  0  0  0  0  0  0
   62.6669   32.8308   51.4379 H   0  0  0  0  0  0  0  0  0  0  0  0
   64.8222   31.3618   51.9471 H   0  0  0  0  0  0  0  0  0  0  0  0
   64.5133   30.5446   50.3709 H   0  0  0  0  0  0  0  0  0  0  0  0
   66.6501   29.8153   51.5282 H   0  0  0  0  0  0  0  0  0  0  0  0
   66.8790   30.4760   49.8629 H   0  0  0  0  0  0  0  0  0  0  0  0
   68.3166   33.4908   50.8624 H   0  0  0  0  0  0  0  0  0  0  0  0
   67.7680   32.4264   49.5092 H   0  0  0  0  0  0  0  0  0  0  0  0
   66.0203   34.0080   51.4581 H   0  0  0  0  0  0  0  0  0  0  0  0
   66.2040   34.2611   49.6827 H   0  0  0  0  0  0  0  0  0  0  0  0
   62.7345   33.9162   46.5854 H   0  0  0  0  0  0  0  0  0  0  0  0
   59.5596   34.7843   45.1991 H   0  0  0  0  0  0  0  0  0  0  0  0
   58.8330   34.1152   42.9153 H   0  0  0  0  0  0  0  0  0  0  0  0
  1  2  1  0
  2  3  2  0
  2  4  2  0
  2  5  1  0
  5  6  2  0
  6  7  1  0
  7  8  1  0
  8  9  2  0
  8 10  1  0
 10 11  1  0
 11 12  2  0
 12 13  1  0
 13 14  2  0
 14 15  1  0
 15 16  1  0
 16 17  1  0
 17 18  1  0
 18 19  1  0
 19 20  1  0
 14 21  1  0
 21 22  2  0
  7 23  2  0
 23 24  1  0
 24 25  2  0
 25 26  1  0
 25  5  1  0
 22 11  1  0
 20 15  1  0
  1 27  1  0
  1 28  1  0
  6 29  1  0
 12 30  1  0
 13 31  1  0
 16 32  1  0
 16 33  1  0
 17 34  1  0
 17 35  1  0
 19 36  1  0
 19 37  1  0
 20 38  1  0
 20 39  1  0
 22 40  1  0
 23 41  1  0
 24 42  1  0
M  CHG  1  10  -1
M  END
>  <UniqueID>  (48) 
45

>  <SMILES>  (48) 
NS(=O)(=O)c1cc(C(=O)[N-]c2ccc(N3CCOCC3)nc2)ccc1Cl

>  <Energy>  (48) 
55.63058469501931

>  <Genealogy>  (48) 
NS(=O)(=O)c1cc(C(=O)[N-]c2ccc(N3CCOCC3)nc2)ccc1Cl (protonated)
NS(=O)(=O)c1cc(C(=O)[N-]c2ccc(N3CCOCC3)nc2)ccc1Cl (3D coordinates assigned)
NS(=O)(=O)c1cc(C(=O)[N-]c2ccc(N3CCOCC3)nc2)ccc1Cl (nonaromatic ring conformer: 55.63058469501931 kcal/mol)

>  <smiles>  (48) 
NS(=O)(=O)c1cc(C(=O)Nc2ccc(N3CCOCC3)nc2)ccc1Cl

>  <score_type>  (48) 
oracle

>  <origin>  (48) 
adg

>  <m_score__min__energy>  (48) 
-10.109999999999999

>  <m_primary>  (48) 
energy

$$$$
48:0
     RDKit          3D

 37 38  0  0  0  0  0  0  0  0999 V2000
   59.6830   27.2340   47.9270 C   0  0  0  0  0  0  0  0  0  0  0  0
   59.0420   27.4230   46.5760 C   0  0  0  0  0  0  0  0  0  0  0  0
   58.3950   26.3300   45.9770 C   0  0  0  0  0  0  0  0  0  0  0  0
   57.8000   26.4560   44.7240 C   0  0  0  0  0  0  0  0  0  0  0  0
   57.8240   27.6790   44.0590 C   0  0  0  0  0  0  0  0  0  0  0  0
   58.4490   28.7910   44.6350 C   0  0  0  0  0  0  0  0  0  0  0  0
   58.4120   30.0380   43.9260 N   0  0  0  0  0  0  0  0  0  0  0  0
   57.5570   31.1200   44.3240 C   0  0  0  0  0  0  0  0  0  0  0  0
   56.6660   30.9280   45.1960 O   0  0  0  0  0  0  0  0  0  0  0  0
   57.7170   32.4590   43.7250 C   0  0  0  0  0  0  0  0  0  0  0  0
   58.1870   32.5710   42.5600 O   0  0  0  0  0  0  0  0  0  0  0  0
   57.4010   33.7020   44.5070 C   0  0  0  0  0  0  0  0  0  0  0  0
   58.3200   33.8090   45.6940 C   0  0  0  0  0  0  0  0  0  0  0  0
   59.5250   34.5220   45.5900 C   0  0  0  0  0  0  0  0  0  0  0  0
   60.4030   34.5860   46.6770 C   0  0  0  0  0  0  0  0  0  0  0  0
   60.0870   33.9310   47.8720 C   0  0  0  0  0  0  0  0  0  0  0  0
   58.8940   33.2110   47.9790 C   0  0  0  0  0  0  0  0  0  0  0  0
   58.0130   33.1470   46.8950 C   0  0  0  0  0  0  0  0  0  0  0  0
   59.1170   28.6590   45.8810 C   0  0  0  0  0  0  0  0  0  0  0  0
   59.8940   29.8190   46.4650 C   0  0  0  0  0  0  0  0  0  0  0  0
   58.9473   27.4509   48.7155 H   0  0  0  0  0  0  0  0  0  0  0  0
   60.0307   26.1951   48.0257 H   0  0  0  0  0  0  0  0  0  0  0  0
   60.5388   27.9180   48.0257 H   0  0  0  0  0  0  0  0  0  0  0  0
   58.3577   25.3645   46.5027 H   0  0  0  0  0  0  0  0  0  0  0  0
   57.3102   25.5877   44.2590 H   0  0  0  0  0  0  0  0  0  0  0  0
   57.3474   27.7721   43.0720 H   0  0  0  0  0  0  0  0  0  0  0  0
   58.9060   30.0970   43.0070 H   0  0  0  0  0  0  0  0  0  0  0  0
   57.5350   34.5826   43.8616 H   0  0  0  0  0  0  0  0  0  0  0  0
   56.3599   33.6532   44.8588 H   0  0  0  0  0  0  0  0  0  0  0  0
   59.7797   35.0325   44.6495 H   0  0  0  0  0  0  0  0  0  0  0  0
   61.3425   35.1517   46.5921 H   0  0  0  0  0  0  0  0  0  0  0  0
   60.7772   33.9826   48.7270 H   0  0  0  0  0  0  0  0  0  0  0  0
   58.6475   32.6936   48.9179 H   0  0  0  0  0  0  0  0  0  0  0  0
   57.0765   32.5766   46.9826 H   0  0  0  0  0  0  0  0  0  0  0  0
   59.8595   29.7675   47.5633 H   0  0  0  0  0  0  0  0  0  0  0  0
   60.9398   29.7665   46.1281 H   0  0  0  0  0  0  0  0  0  0  0  0
   59.4474   30.7661   46.1281 H   0  0  0  0  0  0  0  0  0  0  0  0
  1  2  1  0
  2  3  2  0
  3  4  1  0
  4  5  2  0
  5  6  1  0
  6  7  1  0
  7  8  1  0
  8  9  2  0
  8 10  1  0
 10 11  2  0
 10 12  1  0
 12 13  1  0
 13 14  2  0
 14 15  1  0
 15 16  2  0
 16 17  1  0
 17 18  2  0
  6 19  2  0
 19 20  1  0
 19  2  1  0
 18 13  1  0
  1 21  1  0
  1 22  1  0
  1 23  1  0
  3 24  1  0
  4 25  1  0
  5 26  1  0
  7 27  1  0
 12 28  1  0
 12 29  1  0
 14 30  1  0
 15 31  1  0
 16 32  1  0
 17 33  1  0
 18 34  1  0
 20 35  1  0
 20 36  1  0
 20 37  1  0
M  END
>  <UniqueID>  (49) 
46

>  <SMILES>  (49) 
Cc1cccc(NC(=O)C(=O)Cc2ccccc2)c1C

>  <Energy>  (49) 
41.694446801567885

>  <Genealogy>  (49) 
Cc1cccc(NC(=O)C(=O)Cc2ccccc2)c1C (3D coordinates assigned)
Cc1cccc(NC(=O)C(=O)Cc2ccccc2)c1C (optimized conformer: 41.694446801567885 kcal/mol)

>  <smiles>  (49) 
Cc1cccc(NC(=O)C(=O)Cc2ccccc2)c1C

>  <score_type>  (49) 
oracle

>  <origin>  (49) 
adg

>  <m_score__min__energy>  (49) 
-7.6100000000000003

>  <m_primary>  (49) 
energy

$$$$
49:0
     RDKit          3D

 46 47  0  0  0  0  0  0  0  0999 V2000
   53.0210   30.7620   51.2640 C   0  0  0  0  0  0  0  0  0  0  0  0
   54.2470   30.1330   51.9130 C   0  0  0  0  0  0  0  0  0  0  0  0
   55.3900   31.0360   51.8310 N   0  0  0  0  0  0  0  0  0  0  0  0
   56.7520   30.6080   51.9500 C   0  0  0  0  0  0  0  0  0  0  0  0
   57.0420   29.3860   51.8470 O   0  0  0  0  0  0  0  0  0  0  0  0
   57.8060   31.5620   52.1190 N   0  0  0  0  0  0  0  0  0  0  0  0
   58.7720   31.9380   51.1280 C   0  0  0  0  0  0  0  0  0  0  0  0
   59.3380   30.9410   50.3250 C   0  0  0  0  0  0  0  0  0  0  0  0
   60.3000   31.2650   49.3640 C   0  0  0  0  0  0  0  0  0  0  0  0
   60.7170   32.5930   49.2050 C   0  0  0  0  0  0  0  0  0  0  0  0
   61.9520   33.0080   48.0180 S   0  0  0  0  0  0  0  0  0  0  0  0
   62.6790   34.2540   48.4410 O   0  0  0  0  0  0  0  0  0  0  0  0
   62.9450   31.8840   47.9320 O   0  0  0  0  0  0  0  0  0  0  0  0
   61.2300   33.2530   46.4570 N   0  0  0  0  0  0  0  0  0  0  0  0
   60.6670   34.5980   46.3780 C   0  0  0  0  0  0  0  0  0  0  0  0
   59.1570   34.5310   46.5960 C   0  0  0  0  0  0  0  0  0  0  0  0
   58.5870   33.2840   45.9760 C   0  0  0  0  0  0  0  0  0  0  0  0
   58.0550   33.3190   44.6760 C   0  0  0  0  0  0  0  0  0  0  0  0
   57.4930   32.1700   44.1140 C   0  0  0  0  0  0  0  0  0  0  0  0
   57.4430   30.9770   44.8470 C   0  0  0  0  0  0  0  0  0  0  0  0
   56.7440   29.5280   44.1300 S   0  0  0  0  0  0  0  0  0  0  0  0
   55.1530   29.2850   44.7560 N   0  0  0  0  0  0  0  0  0  0  0  0
   56.6750   29.6800   42.6370 O   0  0  0  0  0  0  0  0  0  0  0  0
   57.6010   28.3360   44.4550 O   0  0  0  0  0  0  0  0  0  0  0  0
   57.9670   30.9400   46.1460 C   0  0  0  0  0  0  0  0  0  0  0  0
   58.5290   32.0900   46.7100 C   0  0  0  0  0  0  0  0  0  0  0  0
   60.1790   33.5890   50.0290 C   0  0  0  0  0  0  0  0  0  0  0  0
   59.2160   33.2660   50.9890 C   0  0  0  0  0  0  0  0  0  0  0  0
   52.3327   31.1151   52.0460 H   0  0  0  0  0  0  0  0  0  0  0  0
   53.3324   31.6117   50.6386 H   0  0  0  0  0  0  0  0  0  0  0  0
   52.5125   30.0135   50.6386 H   0  0  0  0  0  0  0  0  0  0  0  0
   54.0283   29.9213   52.9701 H   0  0  0  0  0  0  0  0  0  0  0  0
   54.4915   29.2013   51.3818 H   0  0  0  0  0  0  0  0  0  0  0  0
   59.0234   29.8945   50.4511 H   0  0  0  0  0  0  0  0  0  0  0  0
   60.7307   30.4752   48.7310 H   0  0  0  0  0  0  0  0  0  0  0  0
   61.1217   35.2320   47.1534 H   0  0  0  0  0  0  0  0  0  0  0  0
   60.8758   35.0254   45.3862 H   0  0  0  0  0  0  0  0  0  0  0  0
   58.9476   34.5260   47.6759 H   0  0  0  0  0  0  0  0  0  0  0  0
   58.6911   35.4075   46.1220 H   0  0  0  0  0  0  0  0  0  0  0  0
   58.0811   34.2548   44.0984 H   0  0  0  0  0  0  0  0  0  0  0  0
   57.0881   32.2021   43.0917 H   0  0  0  0  0  0  0  0  0  0  0  0
   55.2510   28.7290   45.6350 H   0  0  0  0  0  0  0  0  0  0  0  0
   57.9363   30.0043   46.7236 H   0  0  0  0  0  0  0  0  0  0  0  0
   58.9277   32.0579   47.7347 H   0  0  0  0  0  0  0  0  0  0  0  0
   60.5158   34.6305   49.9203 H   0  0  0  0  0  0  0  0  0  0  0  0
   58.8038   34.0526   51.6381 H   0  0  0  0  0  0  0  0  0  0  0  0
  1  2  1  0
  2  3  1  0
  3  4  1  0
  4  5  2  0
  4  6  1  0
  6  7  1  0
  7  8  2  0
  8  9  1  0
  9 10  2  0
 10 11  1  0
 11 12  2  0
 11 13  2  0
 11 14  1  0
 14 15  1  0
 15 16  1  0
 16 17  1  0
 17 18  2  0
 18 19  1  0
 19 20  2  0
 20 21  1  0
 21 22  1  0
 21 23  2  0
 21 24  2  0
 20 25  1  0
 25 26  2  0
 10 27  1  0
 27 28  2  0
 28  7  1  0
 26 17  1  0
  1 29  1  0
  1 30  1  0
  1 31  1  0
  2 32  1  0
  2 33  1  0
  8 34  1  0
  9 35  1  0
 15 36  1  0
 15 37  1  0
 16 38  1  0
 16 39  1  0
 18 40  1  0
 19 41  1  0
 22 42  1  0
 25 43  1  0
 26 44  1  0
 27 45  1  0
 28 46  1  0
M  CHG  4   3  -1   6  -1  14  -1  22  -1
M  END
>  <UniqueID>  (50) 
47

>  <SMILES>  (50) 
CC[N-]C(=O)[N-]c1ccc(S(=O)(=O)[N-]CCc2ccc(S([NH-])(=O)=O)cc2)cc1

>  <Energy>  (50) 
39.50248145205739

>  <Genealogy>  (50) 
CC[N-]C(=O)[N-]c1ccc(S(=O)(=O)[N-]CCc2ccc(S([NH-])(=O)=O)cc2)cc1 (protonated)
CC[N-]C(=O)[N-]c1ccc(S(=O)(=O)[N-]CCc2ccc(S([NH-])(=O)=O)cc2)cc1 (3D coordinates assigned)
CC[N-]C(=O)[N-]c1ccc(S(=O)(=O)[N-]CCc2ccc(S([NH-])(=O)=O)cc2)cc1 (optimized conformer: 39.50248145205739 kcal/mol)

>  <smiles>  (50) 
CCNC(=O)Nc1ccc(S(=O)(=O)NCCc2ccc(S(N)(=O)=O)cc2)cc1

>  <score_type>  (50) 
oracle

>  <origin>  (50) 
adg

>  <m_score__min__energy>  (50) 
-14.880000000000001

>  <m_primary>  (50) 
energy

$$$$
50:0
     RDKit          3D

 58 60  0  0  0  0  0  0  0  0999 V2000
   59.1580   34.4710   46.2240 C   0  0  0  0  0  0  0  0  0  0  0  0
   58.5020   33.2640   45.6200 C   0  0  0  0  0  0  0  0  0  0  0  0
   58.0660   33.3020   44.2890 C   0  0  0  0  0  0  0  0  0  0  0  0
   57.4900   32.1700   43.7030 C   0  0  0  0  0  0  0  0  0  0  0  0
   57.3450   30.9890   44.4410 C   0  0  0  0  0  0  0  0  0  0  0  0
   56.5790   29.5820   43.7030 S   0  0  0  0  0  0  0  0  0  0  0  0
   57.6010   28.7300   43.0030 O   0  0  0  0  0  0  0  0  0  0  0  0
   55.5640   30.0560   42.7020 O   0  0  0  0  0  0  0  0  0  0  0  0
   55.7880   28.6290   44.9210 N   0  0  0  0  0  0  0  0  0  0  0  0
   56.4480   27.5600   45.6210 C   0  0  0  0  0  0  0  0  0  0  0  0
   57.8100   27.6480   45.9540 C   0  0  0  0  0  0  0  0  0  0  0  0
   58.4310   26.6550   46.7300 C   0  0  0  0  0  0  0  0  0  0  0  0
   59.8780   26.7950   47.1590 C   0  0  1  0  0  0  0  0  0  0  0  0
   60.6810   27.1920   46.0750 O   0  0  0  0  0  0  0  0  0  0  0  0
   60.0270   27.7660   48.3490 C   0  0  0  0  0  0  0  0  0  0  0  0
   60.7600   28.9720   47.9280 N   0  0  0  0  0  0  0  0  0  0  0  0
   60.4480   30.1450   48.7680 C   0  0  1  0  0  0  0  0  0  0  0  0
   61.1320   31.3750   48.1650 C   0  0  0  0  0  0  0  0  0  0  0  0
   58.9170   30.3580   48.8800 C   0  0  0  0  0  0  0  0  0  0  0  0
   58.5290   30.9560   50.2070 C   0  0  0  0  0  0  0  0  0  0  0  0
   58.0570   30.1400   51.2480 C   0  0  0  0  0  0  0  0  0  0  0  0
   57.6770   30.7050   52.4700 C   0  0  0  0  0  0  0  0  0  0  0  0
   57.7630   32.0870   52.6590 C   0  0  0  0  0  0  0  0  0  0  0  0
   58.2280   32.9070   51.6250 C   0  0  0  0  0  0  0  0  0  0  0  0
   58.6070   32.3460   50.4030 C   0  0  0  0  0  0  0  0  0  0  0  0
   57.6840   25.5310   47.1180 C   0  0  0  0  0  0  0  0  0  0  0  0
   56.3440   25.4090   46.7460 C   0  0  0  0  0  0  0  0  0  0  0  0
   55.7220   26.4190   46.0070 C   0  0  0  0  0  0  0  0  0  0  0  0
   54.3780   26.2890   45.6740 O   0  0  0  0  0  0  0  0  0  0  0  0
   57.7890   30.9460   45.7690 C   0  0  0  0  0  0  0  0  0  0  0  0
   58.3690   32.0760   46.3550 C   0  0  0  0  0  0  0  0  0  0  0  0
   59.1190   34.3992   47.3210 H   0  0  0  0  0  0  0  0  0  0  0  0
   60.2071   34.5204   45.8969 H   0  0  0  0  0  0  0  0  0  0  0  0
   58.6288   35.3782   45.8969 H   0  0  0  0  0  0  0  0  0  0  0  0
   58.1771   34.2259   43.7024 H   0  0  0  0  0  0  0  0  0  0  0  0
   57.1494   32.2078   42.6577 H   0  0  0  0  0  0  0  0  0  0  0  0
   54.8540   28.9620   45.2490 H   0  0  0  0  0  0  0  0  0  0  0  0
   58.3992   28.5075   45.6018 H   0  0  0  0  0  0  0  0  0  0  0  0
   60.2239   25.8079   47.4996 H   0  0  0  0  0  0  0  0  0  0  0  0
   61.2120   27.9800   46.3600 H   0  0  0  0  0  0  0  0  0  0  0  0
   59.0290   28.0543   48.7107 H   0  0  0  0  0  0  0  0  0  0  0  0
   60.5864   27.2667   49.1538 H   0  0  0  0  0  0  0  0  0  0  0  0
   60.5350   29.1840   46.9270 H   0  0  0  0  0  0  0  0  0  0  0  0
   60.8255   29.9777   49.7876 H   0  0  0  0  0  0  0  0  0  0  0  0
   61.4943   32.0265   48.9739 H   0  0  0  0  0  0  0  0  0  0  0  0
   61.9815   31.0546   47.5440 H   0  0  0  0  0  0  0  0  0  0  0  0
   60.4116   31.9276   47.5440 H   0  0  0  0  0  0  0  0  0  0  0  0
   58.5923   31.0351   48.0762 H   0  0  0  0  0  0  0  0  0  0  0  0
   58.4288   29.3762   48.7926 H   0  0  0  0  0  0  0  0  0  0  0  0
   57.9858   29.0521   51.1019 H   0  0  0  0  0  0  0  0  0  0  0  0
   57.3102   30.0610   53.2828 H   0  0  0  0  0  0  0  0  0  0  0  0
   57.4651   32.5302   53.6207 H   0  0  0  0  0  0  0  0  0  0  0  0
   58.2952   33.9947   51.7745 H   0  0  0  0  0  0  0  0  0  0  0  0
   58.9679   32.9944   49.5910 H   0  0  0  0  0  0  0  0  0  0  0  0
   58.1580   24.7412   47.7192 H   0  0  0  0  0  0  0  0  0  0  0  0
   55.7749   24.5134   47.0360 H   0  0  0  0  0  0  0  0  0  0  0  0
   57.6811   30.0202   46.3531 H   0  0  0  0  0  0  0  0  0  0  0  0
   58.7222   32.0332   47.3959 H   0  0  0  0  0  0  0  0  0  0  0  0
  1  2  1  0
  2  3  2  0
  3  4  1  0
  4  5  2  0
  5  6  1  0
  6  7  2  0
  6  8  2  0
  6  9  1  0
  9 10  1  0
 10 11  2  0
 11 12  1  0
 12 13  1  0
 13 14  1  0
 13 15  1  0
 15 16  1  0
 16 17  1  0
 17 18  1  0
 17 19  1  0
 19 20  1  0
 20 21  2  0
 21 22  1  0
 22 23  2  0
 23 24  1  0
 24 25  2  0
 12 26  2  0
 26 27  1  0
 27 28  2  0
 28 29  1  0
  5 30  1  0
 30 31  2  0
 31  2  1  0
 28 10  1  0
 25 20  1  0
  1 32  1  0
  1 33  1  0
  1 34  1  0
  3 35  1  0
  4 36  1  0
  9 37  1  0
 11 38  1  0
 13 39  1  1
 14 40  1  0
 15 41  1  0
 15 42  1  0
 16 43  1  0
 17 44  1  1
 18 45  1  0
 18 46  1  0
 18 47  1  0
 19 48  1  0
 19 49  1  0
 21 50  1  0
 22 51  1  0
 23 52  1  0
 24 53  1  0
 25 54  1  0
 26 55  1  0
 27 56  1  0
 30 57  1  0
 31 58  1  0
M  CHG  1  29  -1
M  END
>  <UniqueID>  (51) 
48

>  <SMILES>  (51) 
Cc1ccc(S(=O)(=O)Nc2cc([C@@H](O)CN[C@@H](C)Cc3ccccc3)ccc2[O-])cc1

>  <Energy>  (51) 
56.840113395506656

>  <Genealogy>  (51) 
Cc1ccc(S(=O)(=O)Nc2cc(C(O)CNC(C)Cc3ccccc3)ccc2[O-])cc1 (protonated)
Cc1ccc(S(=O)(=O)Nc2cc([C@@H](O)CN[C@@H](C)Cc3ccccc3)ccc2[O-])cc1 (chirality)
Cc1ccc(S(=O)(=O)Nc2cc([C@@H](O)CN[C@@H](C)Cc3ccccc3)ccc2[O-])cc1 (3D coordinates assigned)
Cc1ccc(S(=O)(=O)Nc2cc([C@@H](O)CN[C@@H](C)Cc3ccccc3)ccc2[O-])cc1 (optimized conformer: 56.840113395506656 kcal/mol)

>  <smiles>  (51) 
Cc1ccc(S(=O)(=O)Nc2cc(C(O)CNC(C)Cc3ccccc3)ccc2O)cc1

>  <score_type>  (51) 
oracle

>  <origin>  (51) 
adg

>  <m_score__min__energy>  (51) 
-12.77

>  <m_primary>  (51) 
energy

$$$$
51:0
     RDKit          3D

 45 47  0  0  0  0  0  0  0  0999 V2000
   55.1430   27.4370   46.0210 H   0  0  0  0  0  0  0  0  0  0  0  0
   55.1540   26.3930   46.0060 N   0  0  0  0  0  0  0  0  0  0  0  0
   56.8080   25.9040   45.8770 S   0  0  0  0  0  0  0  0  0  0  0  0
   57.0930   24.8680   46.9260 O   0  0  0  0  0  0  0  0  0  0  0  0
   57.0310   25.3130   44.5130 O   0  0  0  0  0  0  0  0  0  0  0  0
   57.8930   27.2810   46.1050 C   0  0  0  0  0  0  0  0  0  0  0  0
   59.1540   27.0880   46.6930 C   0  0  0  0  0  0  0  0  0  0  0  0
   59.4712   26.0769   46.9880 H   0  0  0  0  0  0  0  0  0  0  0  0
   60.0070   28.1730   46.9050 C   0  0  0  0  0  0  0  0  0  0  0  0
   60.9874   28.0159   47.3784 H   0  0  0  0  0  0  0  0  0  0  0  0
   59.6190   29.4550   46.5180 C   0  0  0  0  0  0  0  0  0  0  0  0
   60.2945   30.3074   46.6830 H   0  0  0  0  0  0  0  0  0  0  0  0
   58.3730   29.6570   45.9210 C   0  0  0  0  0  0  0  0  0  0  0  0
   58.0790   30.6672   45.5999 H   0  0  0  0  0  0  0  0  0  0  0  0
   57.4910   28.5790   45.7270 C   0  0  0  0  0  0  0  0  0  0  0  0
   56.1880   28.7830   45.1530 N   0  0  0  0  0  0  0  0  0  0  0  0
   55.8760   29.6690   44.0680 C   0  0  0  0  0  0  0  0  0  0  0  0
   54.7360   29.6100   43.5410 O   0  0  0  0  0  0  0  0  0  0  0  0
   56.8340   30.6070   43.5540 N   0  0  0  0  0  0  0  0  0  0  0  0
   57.1580   31.7280   44.1220 C   0  0  0  0  0  0  0  0  0  0  0  0
   56.5750   32.2050   45.2470 N   0  0  0  0  0  0  0  0  0  0  0  0
   57.1670   33.3510   45.6680 C   0  0  0  0  0  0  0  0  0  0  0  0
   56.8449   33.8876   46.5726 H   0  0  0  0  0  0  0  0  0  0  0  0
   58.2140   33.7940   44.8650 C   0  0  0  0  0  0  0  0  0  0  0  0
   59.1840   34.8720   45.2280 C   0  0  0  0  0  0  0  0  0  0  0  0
   58.6345   35.7697   45.5477 H   0  0  0  0  0  0  0  0  0  0  0  0
   59.8062   35.1200   44.3554 H   0  0  0  0  0  0  0  0  0  0  0  0
   60.0580   34.3890   46.3530 C   0  0  0  0  0  0  0  0  0  0  0  0
   61.3140   33.8220   46.0790 C   0  0  0  0  0  0  0  0  0  0  0  0
   61.6251   33.6590   45.0366 H   0  0  0  0  0  0  0  0  0  0  0  0
   62.1700   33.4640   47.1240 C   0  0  0  0  0  0  0  0  0  0  0  0
   63.1517   33.0214   46.8997 H   0  0  0  0  0  0  0  0  0  0  0  0
   61.7840   33.6660   48.4580 C   0  0  0  0  0  0  0  0  0  0  0  0
   62.7240   33.3250   49.5830 C   0  0  0  0  0  0  0  0  0  0  0  0
   62.3066   32.4872   50.1609 H   0  0  0  0  0  0  0  0  0  0  0  0
   62.8426   34.2101   50.2252 H   0  0  0  0  0  0  0  0  0  0  0  0
   64.0930   32.9260   49.0400 C   0  0  0  0  0  0  0  0  0  0  0  0
   64.7763   32.7268   49.8787 H   0  0  0  0  0  0  0  0  0  0  0  0
   63.9935   32.0195   48.4249 H   0  0  0  0  0  0  0  0  0  0  0  0
   64.4961   33.7440   48.4249 H   0  0  0  0  0  0  0  0  0  0  0  0
   60.5370   34.2500   48.7310 C   0  0  0  0  0  0  0  0  0  0  0  0
   60.2324   34.4270   49.7731 H   0  0  0  0  0  0  0  0  0  0  0  0
   59.6800   34.6080   47.6860 C   0  0  0  0  0  0  0  0  0  0  0  0
   58.7043   35.0638   47.9103 H   0  0  0  0  0  0  0  0  0  0  0  0
   58.4120   32.7100   43.5900 S   0  0  0  0  0  0  0  0  0  0  0  0
  1  2  1  0
  2  3  1  0
  3  4  2  0
  3  5  2  0
  3  6  1  0
  6  7  2  0
  7  8  1  0
  7  9  1  0
  9 10  1  0
  9 11  2  0
 11 12  1  0
 11 13  1  0
 13 14  1  0
 13 15  2  0
 15 16  1  0
 16 17  1  0
 17 18  2  0
 17 19  1  0
 19 20  2  0
 20 21  1  0
 21 22  1  0
 22 23  1  0
 22 24  2  0
 24 25  1  0
 25 26  1  0
 25 27  1  0
 25 28  1  0
 28 29  2  0
 29 30  1  0
 29 31  1  0
 31 32  1  0
 31 33  2  0
 33 34  1  0
 34 35  1  0
 34 36  1  0
 34 37  1  0
 37 38  1  0
 37 39  1  0
 37 40  1  0
 33 41  1  0
 41 42  1  0
 41 43  2  0
 43 44  1  0
 24 45  1  0
 15  6  1  0
 45 20  1  0
 43 28  1  0
M  CHG  3   2  -1  16  -1  21  -1
M  END
>  <UniqueID>  (52) 
49

>  <SMILES>  (52) 
CCc1ccc(Cc2c[n-]/c(=N\C(=O)[N-]c3ccccc3S([NH-])(=O)=O)s2)cc1

>  <Energy>  (52) 
78.62292166098776

>  <Genealogy>  (52) 
CCc1ccc(Cc2c[n-]c(=NC(=O)[N-]c3ccccc3S([NH-])(=O)=O)s2)cc1 (protonated)
CCc1ccc(Cc2c[n-]/c(=N\C(=O)[N-]c3ccccc3S([NH-])(=O)=O)s2)cc1 (cis-trans isomerization)
CCc1ccc(Cc2c[n-]/c(=N\C(=O)[N-]c3ccccc3S([NH-])(=O)=O)s2)cc1 (3D coordinates assigned)
CCc1ccc(Cc2c[n-]/c(=N\C(=O)[N-]c3ccccc3S([NH-])(=O)=O)s2)cc1 (optimized conformer: 78.62292166098776 kcal/mol)

>  <smiles>  (52) 
CCc1ccc(Cc2c[nH]c(=NC(=O)Nc3ccccc3S(N)(=O)=O)s2)cc1

>  <score_type>  (52) 
oracle

>  <origin>  (52) 
adg

>  <m_score__min__energy>  (52) 
-15.23

>  <m_primary>  (52) 
energy

$$$$
52:0
     RDKit          3D

 65 68  0  0  1  0  0  0  0  0999 V2000
   58.9050   33.7430   51.6370 C   0  0  0  0  0  0  0  0  0  0  0  0
   58.5570   32.6990   50.6260 C   0  0  0  0  0  0  0  0  0  0  0  0
   58.9510   33.1000   49.3520 O   0  0  0  0  0  0  0  0  0  0  0  0
   60.2360   33.3250   48.9180 C   0  0  0  0  0  0  0  0  0  0  0  0
   61.3710   33.0900   49.6630 C   0  0  0  0  0  0  0  0  0  0  0  0
   62.6460   33.3370   49.1690 C   0  0  0  0  0  0  0  0  0  0  0  0
   63.8230   33.0890   49.9430 N   0  0  0  0  0  0  0  0  0  0  0  0
   64.1210   34.0360   50.9930 C   0  0  0  0  0  0  0  0  0  0  0  0
   65.2190   33.5830   51.9000 C   0  0  0  0  0  0  0  0  0  0  0  0
   66.3220   33.1610   51.0420 N   0  0  0  0  0  0  0  0  0  0  0  0
   67.6020   33.7790   51.0830 C   0  0  0  0  0  0  0  0  0  0  0  0
   67.8280   34.9070   52.0420 C   0  0  0  0  0  0  0  0  0  0  0  0
   68.5180   33.3870   50.3330 O   0  0  0  0  0  0  0  0  0  0  0  0
   66.0790   32.0720   50.1250 C   0  0  0  0  0  0  0  0  0  0  0  0
   64.6630   31.9680   49.6950 C   0  0  0  0  0  0  0  0  0  0  0  0
   62.7090   33.8320   47.8820 C   0  0  0  0  0  0  0  0  0  0  0  0
   61.6030   34.0810   47.1040 C   0  0  0  0  0  0  0  0  0  0  0  0
   60.3690   33.8280   47.6180 C   0  0  0  0  0  0  0  0  0  0  0  0
   59.2190   34.0820   46.8200 N   0  0  0  0  0  0  0  0  0  0  0  0
   58.7150   33.2070   46.0490 C   0  0  0  0  0  0  0  0  0  0  0  0
   58.5870   33.5490   44.7360 N   0  0  0  0  0  0  0  0  0  0  0  0
   58.0520   32.6110   43.9340 C   0  0  0  0  0  0  0  0  0  0  0  0
   57.6440   31.3760   44.3600 C   0  0  0  0  0  0  0  0  0  0  0  0
   56.9550   30.2020   43.2970 Cl  0  0  0  0  0  0  0  0  0  0  0  0
   57.7900   31.0730   45.6900 C   0  0  0  0  0  0  0  0  0  0  0  0
   57.4630   29.9650   46.2350 N   0  0  0  0  0  0  0  0  0  0  0  0
   58.2140   28.7790   46.0610 C   0  0  0  0  0  0  0  0  0  0  0  0
   57.7440   27.8060   45.1650 C   0  0  0  0  0  0  0  0  0  0  0  0
   58.4740   26.6360   44.9470 C   0  0  0  0  0  0  0  0  0  0  0  0
   59.6630   26.4500   45.6240 C   0  0  0  0  0  0  0  0  0  0  0  0
   60.1430   27.4040   46.5170 C   0  0  0  0  0  0  0  0  0  0  0  0
   59.4230   28.5770   46.7430 C   0  0  0  0  0  0  0  0  0  0  0  0
   60.0400   29.7670   47.8580 S   0  0  0  0  0  0  0  0  0  0  0  0
   58.7330   30.3510   48.8600 N   0  0  0  0  0  0  0  0  0  0  0  0
   61.0870   29.2030   48.7780 O   0  0  0  0  0  0  0  0  0  0  0  0
   60.6300   30.9280   47.1360 O   0  0  0  0  0  0  0  0  0  0  0  0
   58.3310   32.0140   46.5110 N   0  0  0  0  0  0  0  0  0  0  0  0
   58.7685   33.3335   52.6488 H   0  0  0  0  0  0  0  0  0  0  0  0
   59.9534   34.0480   51.5032 H   0  0  0  0  0  0  0  0  0  0  0  0
   58.2493   34.6160   51.5032 H   0  0  0  0  0  0  0  0  0  0  0  0
   59.0695   31.7606   50.8843 H   0  0  0  0  0  0  0  0  0  0  0  0
   57.4670   32.5508   50.6299 H   0  0  0  0  0  0  0  0  0  0  0  0
   61.2641   32.6934   50.6834 H   0  0  0  0  0  0  0  0  0  0  0  0
   64.4200   34.9882   50.5305 H   0  0  0  0  0  0  0  0  0  0  0  0
   63.2134   34.1413   51.6056 H   0  0  0  0  0  0  0  0  0  0  0  0
   65.5393   34.4102   52.5505 H   0  0  0  0  0  0  0  0  0  0  0  0
   64.8836   32.7600   52.5482 H   0  0  0  0  0  0  0  0  0  0  0  0
   67.7529   34.5320   53.0734 H   0  0  0  0  0  0  0  0  0  0  0  0
   68.8292   35.3323   51.8785 H   0  0  0  0  0  0  0  0  0  0  0  0
   67.0679   35.6852   51.8785 H   0  0  0  0  0  0  0  0  0  0  0  0
   66.7042   32.2218   49.2324 H   0  0  0  0  0  0  0  0  0  0  0  0
   66.3265   31.1403   50.6548 H   0  0  0  0  0  0  0  0  0  0  0  0
   64.6594   31.7857   48.6102 H   0  0  0  0  0  0  0  0  0  0  0  0
   64.2405   31.1570   50.3064 H   0  0  0  0  0  0  0  0  0  0  0  0
   63.7010   34.0392   47.4542 H   0  0  0  0  0  0  0  0  0  0  0  0
   61.7139   34.4777   46.0841 H   0  0  0  0  0  0  0  0  0  0  0  0
   58.8930   34.4850   44.3920 H   0  0  0  0  0  0  0  0  0  0  0  0
   57.9349   32.8520   42.8671 H   0  0  0  0  0  0  0  0  0  0  0  0
   56.7954   27.9662   44.6317 H   0  0  0  0  0  0  0  0  0  0  0  0
   58.1069   25.8726   44.2453 H   0  0  0  0  0  0  0  0  0  0  0  0
   60.2421   25.5303   45.4544 H   0  0  0  0  0  0  0  0  0  0  0  0
   61.0923   27.2323   47.0456 H   0  0  0  0  0  0  0  0  0  0  0  0
   57.8240   30.1470   48.3920 H   0  0  0  0  0  0  0  0  0  0  0  0
   58.8440   31.3670   48.9900 H   0  0  0  0  0  0  0  0  0  0  0  0
   58.4580   31.8200   47.5290 H   0  0  0  0  0  0  0  0  0  0  0  0
  1  2  1  0
  2  3  1  0
  3  4  1  0
  4  5  2  0
  5  6  1  0
  6  7  1  0
  7  8  1  0
  8  9  1  0
  9 10  1  0
 10 11  1  0
 11 12  1  0
 11 13  2  0
 10 14  1  0
 14 15  1  0
  6 16  2  0
 16 17  1  0
 17 18  2  0
 18 19  1  0
 19 20  2  0
 20 21  1  0
 21 22  1  0
 22 23  2  0
 23 24  1  0
 23 25  1  0
 25 26  2  0
 26 27  1  0
 27 28  2  0
 28 29  1  0
 29 30  2  0
 30 31  1  0
 31 32  2  0
 32 33  1  0
 33 34  1  0
 33 35  2  0
 33 36  2  0
 25 37  1  0
 18  4  1  0
 37 20  1  0
 15  7  1  0
 32 27  1  0
  1 38  1  0
  1 39  1  0
  1 40  1  0
  2 41  1  0
  2 42  1  0
  5 43  1  0
  8 44  1  0
  8 45  1  0
  9 46  1  0
  9 47  1  0
 12 48  1  0
 12 49  1  0
 12 50  1  0
 14 51  1  0
 14 52  1  0
 15 53  1  0
 15 54  1  0
 16 55  1  0
 17 56  1  0
 21 57  1  0
 22 58  1  0
 28 59  1  0
 29 60  1  0
 30 61  1  0
 31 62  1  0
 34 63  1  0
 34 64  1  0
 37 65  1  0
M  END
>  <smiles>  (53) 
CCOc1cc(N2CCN(C(C)=O)CC2)ccc1N=c1[nH]cc(Cl)c(=Nc2ccccc2S(N)(=O)=O)[nH]1

>  <score_type>  (53) 
oracle

>  <origin>  (53) 
adg

>  <m_score__min__energy>  (53) 
-10.109999999999999

>  <m_primary>  (53) 
energy

$$$$
53:0
     RDKit          3D

 33 35  0  0  0  0  0  0  0  0999 V2000
   58.8960   31.6880   49.6250 C   0  0  0  0  0  0  0  0  0  0  0  0
   58.8770   33.0350   49.1650 O   0  0  0  0  0  0  0  0  0  0  0  0
   58.8960   33.4100   47.8130 C   0  0  0  0  0  0  0  0  0  0  0  0
   59.4710   34.6190   47.3740 C   0  0  0  0  0  0  0  0  0  0  0  0
   59.4670   34.9450   46.0150 C   0  0  0  0  0  0  0  0  0  0  0  0
   58.8890   34.0770   45.0860 C   0  0  0  0  0  0  0  0  0  0  0  0
   58.3090   32.8750   45.5120 C   0  0  0  0  0  0  0  0  0  0  0  0
   57.5720   31.7910   44.3380 S   0  0  0  0  0  0  0  0  0  0  0  0
   56.2120   31.3890   44.8340 O   0  0  0  0  0  0  0  0  0  0  0  0
   57.4250   32.4710   43.0060 O   0  0  0  0  0  0  0  0  0  0  0  0
   58.5480   30.3710   44.1430 N   0  0  0  0  0  0  0  0  0  0  0  0
   58.3970   29.1560   44.8900 C   0  0  0  0  0  0  0  0  0  0  0  0
   59.4970   28.5250   45.5330 C   0  0  0  0  0  0  0  0  0  0  0  0
   59.3140   27.3360   46.2660 C   0  0  0  0  0  0  0  0  0  0  0  0
   58.0290   26.8110   46.3310 C   0  0  0  0  0  0  0  0  0  0  0  0
   57.6120   25.7060   46.9600 N   0  0  0  0  0  0  0  0  0  0  0  0
   56.2860   25.6750   46.6960 C   0  0  0  0  0  0  0  0  0  0  0  0
   55.5250   24.7670   47.1220 O   0  0  0  0  0  0  0  0  0  0  0  0
   55.8410   26.7050   45.9310 N   0  0  0  0  0  0  0  0  0  0  0  0
   56.9680   27.4080   45.7160 C   0  0  0  0  0  0  0  0  0  0  0  0
   57.1110   28.5830   44.9840 C   0  0  0  0  0  0  0  0  0  0  0  0
   58.3190   32.5460   46.8740 C   0  0  0  0  0  0  0  0  0  0  0  0
   58.8962   31.6761   50.7249 H   0  0  0  0  0  0  0  0  0  0  0  0
   58.0052   31.1608   49.2528 H   0  0  0  0  0  0  0  0  0  0  0  0
   59.8013   31.1862   49.2528 H   0  0  0  0  0  0  0  0  0  0  0  0
   59.9240   35.3077   48.1024 H   0  0  0  0  0  0  0  0  0  0  0  0
   59.9205   35.8881   45.6760 H   0  0  0  0  0  0  0  0  0  0  0  0
   58.8892   34.3377   44.0173 H   0  0  0  0  0  0  0  0  0  0  0  0
   60.5004   28.9694   45.4574 H   0  0  0  0  0  0  0  0  0  0  0  0
   60.1579   26.8410   46.7688 H   0  0  0  0  0  0  0  0  0  0  0  0
   58.1770   25.0290   47.5210 H   0  0  0  0  0  0  0  0  0  0  0  0
   56.2458   29.0518   44.4925 H   0  0  0  0  0  0  0  0  0  0  0  0
   57.8692   31.5997   47.2090 H   0  0  0  0  0  0  0  0  0  0  0  0
  1  2  1  0
  2  3  1  0
  3  4  2  0
  4  5  1  0
  5  6  2  0
  6  7  1  0
  7  8  1  0
  8  9  2  0
  8 10  2  0
  8 11  1  0
 11 12  1  0
 12 13  2  0
 13 14  1  0
 14 15  2  0
 15 16  1  0
 16 17  1  0
 17 18  2  0
 17 19  1  0
 19 20  1  0
 20 21  2  0
  7 22  2  0
 22  3  1  0
 21 12  1  0
 20 15  1  0
  1 23  1  0
  1 24  1  0
  1 25  1  0
  4 26  1  0
  5 27  1  0
  6 28  1  0
 13 29  1  0
 14 30  1  0
 16 31  1  0
 21 32  1  0
 22 33  1  0
M  CHG  2  11  -1  19  -1
M  END
>  <UniqueID>  (54) 
50

>  <SMILES>  (54) 
COc1cccc(S(=O)(=O)[N-]c2ccc3[nH]c(=O)[n-]c3c2)c1

>  <Energy>  (54) 
75.01494809658847

>  <Genealogy>  (54) 
COc1cccc(S(=O)(=O)[N-]c2ccc3[nH]c(=O)[n-]c3c2)c1 (protonated)
COc1cccc(S(=O)(=O)[N-]c2ccc3[nH]c(=O)[n-]c3c2)c1 (3D coordinates assigned)
COc1cccc(S(=O)(=O)[N-]c2ccc3[nH]c(=O)[n-]c3c2)c1 (optimized conformer: 75.01494809658847 kcal/mol)

>  <smiles>  (54) 
COc1cccc(S(=O)(=O)Nc2ccc3[nH]c(=O)[nH]c3c2)c1

>  <score_type>  (54) 
oracle

>  <origin>  (54) 
adg

>  <m_score__min__energy>  (54) 
-10.6

>  <m_primary>  (54) 
energy

$$$$
54:0
     RDKit          3D

 24 25  0  0  0  0  0  0  0  0999 V2000
   54.7710   29.3440   44.2100 O   0  0  0  0  0  0  0  0  0  0  0  0
   55.9870   29.6790   44.2200 C   0  0  0  0  0  0  0  0  0  0  0  0
   56.3460   31.0020   43.9630 C   0  0  0  0  0  0  0  0  0  0  0  0
   57.7040   31.3420   43.9760 C   0  0  0  0  0  0  0  0  0  0  0  0
   58.1440   32.7570   43.7470 C   0  0  0  0  0  0  0  0  0  0  0  0
   58.5010   33.4060   45.0560 C   0  0  0  0  0  0  0  0  0  0  0  0
   59.2830   34.5740   45.0760 C   0  0  0  0  0  0  0  0  0  0  0  0
   59.6450   35.1570   46.2950 C   0  0  0  0  0  0  0  0  0  0  0  0
   59.2390   34.5740   47.4990 C   0  0  0  0  0  0  0  0  0  0  0  0
   58.4730   33.4040   47.4860 C   0  0  0  0  0  0  0  0  0  0  0  0
   58.1090   32.8190   46.2700 C   0  0  0  0  0  0  0  0  0  0  0  0
   58.6290   30.3870   44.2570 N   0  0  0  0  0  0  0  0  0  0  0  0
   58.2630   29.1020   44.5050 C   0  0  0  0  0  0  0  0  0  0  0  0
   59.4130   27.9870   44.8330 S   0  0  0  0  0  0  0  0  0  0  0  0
   56.9470   28.7520   44.4840 N   0  0  0  0  0  0  0  0  0  0  0  0
   55.5786   31.7620   43.7546 H   0  0  0  0  0  0  0  0  0  0  0  0
   59.0237   32.7620   43.0867 H   0  0  0  0  0  0  0  0  0  0  0  0
   57.3216   33.3184   43.2795 H   0  0  0  0  0  0  0  0  0  0  0  0
   59.6111   35.0307   44.1306 H   0  0  0  0  0  0  0  0  0  0  0  0
   60.2500   36.0756   46.3062 H   0  0  0  0  0  0  0  0  0  0  0  0
   59.5220   35.0355   48.4566 H   0  0  0  0  0  0  0  0  0  0  0  0
   58.1567   32.9437   48.4337 H   0  0  0  0  0  0  0  0  0  0  0  0
   57.5128   31.8946   46.2639 H   0  0  0  0  0  0  0  0  0  0  0  0
   56.6660   27.7620   44.6770 H   0  0  0  0  0  0  0  0  0  0  0  0
  1  2  2  0
  2  3  1  0
  3  4  2  0
  4  5  1  0
  5  6  1  0
  6  7  2  0
  7  8  1  0
  8  9  2  0
  9 10  1  0
 10 11  2  0
  4 12  1  0
 12 13  1  0
 13 14  2  0
 13 15  1  0
 15  2  1  0
 11  6  1  0
  3 16  1  0
  5 17  1  0
  5 18  1  0
  7 19  1  0
  8 20  1  0
  9 21  1  0
 10 22  1  0
 11 23  1  0
 15 24  1  0
M  CHG  1  12  -1
M  END
>  <UniqueID>  (55) 
51

>  <SMILES>  (55) 
O=c1cc(Cc2ccccc2)[n-]c(=S)[nH]1

>  <Energy>  (55) 
23.782338991738385

>  <Genealogy>  (55) 
O=c1cc(Cc2ccccc2)[n-]c(=S)[nH]1 (protonated)
O=c1cc(Cc2ccccc2)[n-]c(=S)[nH]1 (3D coordinates assigned)
O=c1cc(Cc2ccccc2)[n-]c(=S)[nH]1 (optimized conformer: 23.782338991738385 kcal/mol)

>  <smiles>  (55) 
O=c1cc(Cc2ccccc2)[nH]c(=S)[nH]1

>  <score_type>  (55) 
oracle

>  <origin>  (55) 
adg

>  <m_score__min__energy>  (55) 
-7.8700000000000001

>  <m_primary>  (55) 
energy

$$$$
55:0
     RDKit          3D

 78 82  0  0  0  0  0  0  0  0999 V2000
   59.7560   21.9200   51.6450 C   0  0  0  0  0  0  0  0  0  0  0  0
   59.6360   23.2100   52.2370 O   0  0  0  0  0  0  0  0  0  0  0  0
   60.6510   24.1820   52.2420 C   0  0  0  0  0  0  0  0  0  0  0  0
   60.3910   25.5430   51.9930 C   0  0  0  0  0  0  0  0  0  0  0  0
   61.4210   26.5090   52.0820 C   0  0  0  0  0  0  0  0  0  0  0  0
   62.7470   26.0650   52.3190 C   0  0  0  0  0  0  0  0  0  0  0  0
   63.0000   24.7060   52.5400 C   0  0  0  0  0  0  0  0  0  0  0  0
   61.9630   23.7740   52.5020 C   0  0  0  0  0  0  0  0  0  0  0  0
   62.2390   22.4300   52.7130 O   0  0  0  0  0  0  0  0  0  0  0  0
   63.9180   27.0220   52.3830 C   0  0  0  0  0  0  0  0  0  0  0  0
   63.5690   28.4590   51.9460 C   0  0  0  0  0  0  0  0  0  0  0  0
   62.2130   28.8620   52.3810 N   0  0  0  0  0  0  0  0  0  0  0  0
   62.1250   28.8850   53.8630 C   0  0  0  0  0  0  0  0  0  0  0  0
   61.2140   27.9820   51.7120 C   0  0  2  0  0  0  0  0  0  0  0  0
   59.7670   28.5820   51.7030 C   0  0  0  0  0  0  0  0  0  0  0  0
   59.5120   29.7780   50.8110 C   0  0  0  0  0  0  0  0  0  0  0  0
   59.2500   31.0260   51.4010 C   0  0  0  0  0  0  0  0  0  0  0  0
   59.0560   32.1720   50.6120 C   0  0  0  0  0  0  0  0  0  0  0  0
   58.8140   33.4330   51.1820 O   0  0  0  0  0  0  0  0  0  0  0  0
   58.5390   33.6590   52.5610 C   0  0  0  0  0  0  0  0  0  0  0  0
   59.1040   32.0640   49.2130 C   0  0  0  0  0  0  0  0  0  0  0  0
   58.9280   33.2380   48.4040 N   0  0  0  0  0  0  0  0  0  0  0  0
   58.5830   33.2240   47.0060 C   0  0  0  0  0  0  0  0  0  0  0  0
   59.0260   34.2700   46.1820 C   0  0  0  0  0  0  0  0  0  0  0  0
   58.6730   34.3070   44.8320 C   0  0  0  0  0  0  0  0  0  0  0  0
   57.8720   33.3030   44.2910 C   0  0  0  0  0  0  0  0  0  0  0  0
   57.4260   32.2480   45.0940 C   0  0  0  0  0  0  0  0  0  0  0  0
   56.6040   31.2360   44.5030 N   0  0  0  0  0  0  0  0  0  0  0  0
   56.4920   29.8700   44.9200 C   0  0  0  0  0  0  0  0  0  0  0  0
   55.3550   29.3330   44.8620 O   0  0  0  0  0  0  0  0  0  0  0  0
   57.6720   29.0400   45.3000 C   0  0  0  0  0  0  0  0  0  0  0  0
   58.9110   29.1490   44.6370 C   0  0  0  0  0  0  0  0  0  0  0  0
   59.9780   28.3170   44.9810 C   0  0  0  0  0  0  0  0  0  0  0  0
   59.8130   27.3270   45.9530 C   0  0  0  0  0  0  0  0  0  0  0  0
   58.5770   27.1560   46.5820 C   0  0  0  0  0  0  0  0  0  0  0  0
   58.3990   26.0440   47.4700 N   0  0  0  0  0  0  0  0  0  0  0  0
   57.3400   24.7050   47.1420 S   0  0  0  0  0  0  0  0  0  0  0  0
   57.8150   23.9200   45.6220 C   0  0  0  0  0  0  0  0  0  0  0  0
   57.4080   23.7140   48.2720 O   0  0  0  0  0  0  0  0  0  0  0  0
   55.9310   25.2060   46.9850 O   0  0  0  0  0  0  0  0  0  0  0  0
   57.5240   28.0390   46.2810 C   0  0  0  0  0  0  0  0  0  0  0  0
   57.7580   32.2220   46.4580 C   0  0  0  0  0  0  0  0  0  0  0  0
   59.3990   30.8270   48.6210 C   0  0  0  0  0  0  0  0  0  0  0  0
   59.6060   29.6890   49.4100 C   0  0  0  0  0  0  0  0  0  0  0  0
   59.9190   28.4780   48.8010 O   0  0  0  0  0  0  0  0  0  0  0  0
   59.8268   21.1588   52.4359 H   0  0  0  0  0  0  0  0  0  0  0  0
   58.8726   21.7193   51.0210 H   0  0  0  0  0  0  0  0  0  0  0  0
   60.6612   21.8857   51.0210 H   0  0  0  0  0  0  0  0  0  0  0  0
   59.3723   25.8600   51.7254 H   0  0  0  0  0  0  0  0  0  0  0  0
   64.0270   24.3698   52.7457 H   0  0  0  0  0  0  0  0  0  0  0  0
   64.2843   27.0536   53.4197 H   0  0  0  0  0  0  0  0  0  0  0  0
   64.6775   26.6480   51.6806 H   0  0  0  0  0  0  0  0  0  0  0  0
   64.3023   29.1509   52.3858 H   0  0  0  0  0  0  0  0  0  0  0  0
   63.5951   28.4934   50.8468 H   0  0  0  0  0  0  0  0  0  0  0  0
   63.1048   28.6289   54.2925 H   0  0  0  0  0  0  0  0  0  0  0  0
   61.8296   29.8905   54.1972 H   0  0  0  0  0  0  0  0  0  0  0  0
   61.3754   28.1526   54.1972 H   0  0  0  0  0  0  0  0  0  0  0  0
   61.4011   27.9620   50.6282 H   0  0  0  0  0  0  0  0  0  0  0  0
   59.0808   27.7826   51.3865 H   0  0  0  0  0  0  0  0  0  0  0  0
   59.6127   28.9570   52.7255 H   0  0  0  0  0  0  0  0  0  0  0  0
   59.1960   31.1069   52.4967 H   0  0  0  0  0  0  0  0  0  0  0  0
   59.2440   33.0796   53.1752 H   0  0  0  0  0  0  0  0  0  0  0  0
   58.6506   34.7299   52.7864 H   0  0  0  0  0  0  0  0  0  0  0  0
   57.5100   33.3421   52.7864 H   0  0  0  0  0  0  0  0  0  0  0  0
   59.0330   34.1680   48.8710 H   0  0  0  0  0  0  0  0  0  0  0  0
   59.6564   35.0670   46.6033 H   0  0  0  0  0  0  0  0  0  0  0  0
   59.0276   35.1300   44.1941 H   0  0  0  0  0  0  0  0  0  0  0  0
   57.5894   33.3403   43.2286 H   0  0  0  0  0  0  0  0  0  0  0  0
   59.0385   29.8970   43.8406 H   0  0  0  0  0  0  0  0  0  0  0  0
   60.9520   28.4413   44.4851 H   0  0  0  0  0  0  0  0  0  0  0  0
   60.6598   26.6794   46.2243 H   0  0  0  0  0  0  0  0  0  0  0  0
   58.3727   22.9983   45.8440 H   0  0  0  0  0  0  0  0  0  0  0  0
   56.9149   23.6727   45.0401 H   0  0  0  0  0  0  0  0  0  0  0  0
   58.4517   24.6027   45.0401 H   0  0  0  0  0  0  0  0  0  0  0  0
   56.5696   27.9466   46.8201 H   0  0  0  0  0  0  0  0  0  0  0  0
   57.3728   31.4168   47.1008 H   0  0  0  0  0  0  0  0  0  0  0  0
   59.4684   30.7502   47.5259 H   0  0  0  0  0  0  0  0  0  0  0  0
   59.2060   27.8000   48.5630 H   0  0  0  0  0  0  0  0  0  0  0  0
  1  2  1  0
  2  3  1  0
  3  4  2  0
  4  5  1  0
  5  6  2  0
  6  7  1  0
  7  8  2  0
  8  9  1  0
  6 10  1  0
 10 11  1  0
 11 12  1  0
 12 13  1  0
 12 14  1  0
 14 15  1  0
 15 16  1  0
 16 17  2  0
 17 18  1  0
 18 19  1  0
 19 20  1  0
 18 21  2  0
 21 22  1  0
 22 23  1  0
 23 24  2  0
 24 25  1  0
 25 26  2  0
 26 27  1  0
 27 28  1  0
 28 29  1  0
 29 30  2  0
 29 31  1  0
 31 32  2  0
 32 33  1  0
 33 34  2  0
 34 35  1  0
 35 36  1  0
 36 37  1  0
 37 38  1  0
 37 39  2  0
 37 40  2  0
 35 41  2  0
 27 42  2  0
 21 43  1  0
 43 44  2  0
 44 45  1  0
  8  3  1  0
 44 16  1  0
 14  5  1  0
 42 23  1  0
 41 31  1  0
  1 46  1  0
  1 47  1  0
  1 48  1  0
  4 49  1  0
  7 50  1  0
 10 51  1  0
 10 52  1  0
 11 53  1  0
 11 54  1  0
 13 55  1  0
 13 56  1  0
 13 57  1  0
 14 58  1  6
 15 59  1  0
 15 60  1  0
 17 61  1  0
 20 62  1  0
 20 63  1  0
 20 64  1  0
 22 65  1  0
 24 66  1  0
 25 67  1  0
 26 68  1  0
 32 69  1  0
 33 70  1  0
 34 71  1  0
 38 72  1  0
 38 73  1  0
 38 74  1  0
 41 75  1  0
 42 76  1  0
 43 77  1  0
 45 78  1  0
M  CHG  3   9  -1  28  -1  36  -1
M  END
>  <UniqueID>  (56) 
52

>  <SMILES>  (56) 
COc1cc2c(cc1[O-])CCN(C)[C@@H]2Cc1cc(OC)c(Nc2cccc([N-]C(=O)c3cccc([N-]S(C)(=O)=O)c3)c2)cc1O

>  <Energy>  (56) 
111.84988852602346

>  <Genealogy>  (56) 
COc1cc2c(cc1[O-])CCN(C)C2Cc1cc(OC)c(Nc2cccc([N-]C(=O)c3cccc([N-]S(C)(=O)=O)c3)c2)cc1O (protonated)
COc1cc2c(cc1[O-])CCN(C)[C@@H]2Cc1cc(OC)c(Nc2cccc([N-]C(=O)c3cccc([N-]S(C)(=O)=O)c3)c2)cc1O (chirality)
COc1cc2c(cc1[O-])CCN(C)[C@@H]2Cc1cc(OC)c(Nc2cccc([N-]C(=O)c3cccc([N-]S(C)(=O)=O)c3)c2)cc1O (3D coordinates assigned)
COc1cc2c(cc1[O-])CCN(C)[C@@H]2Cc1cc(OC)c(Nc2cccc([N-]C(=O)c3cccc([N-]S(C)(=O)=O)c3)c2)cc1O (nonaromatic ring conformer: 111.84988852602346 kcal/mol)

>  <smiles>  (56) 
COc1cc2c(cc1O)CCN(C)C2Cc1cc(OC)c(Nc2cccc(NC(=O)c3cccc(NS(C)(=O)=O)c3)c2)cc1O

>  <score_type>  (56) 
oracle

>  <origin>  (56) 
adg

>  <m_score__min__energy>  (56) 
-14.76

>  <m_primary>  (56) 
energy

$$$$
56:0
     RDKit          3D

 34 35  0  0  0  0  0  0  0  0999 V2000
   57.2223   32.7860   45.8092 H   0  0  0  0  0  0  0  0  0  0  0  0
   57.4260   31.7810   45.4110 C   0  0  0  0  0  0  0  0  0  0  0  0
   56.6050   31.2460   44.4720 N   0  0  0  0  0  0  0  0  0  0  0  0
   56.8150   30.0100   43.9450 C   0  0  0  0  0  0  0  0  0  0  0  0
   55.9050   29.5200   42.9530 N   0  0  0  0  0  0  0  0  0  0  0  0
   56.0340   28.5630   42.5590 H   0  0  0  0  0  0  0  0  0  0  0  0
   55.1060   30.0920   42.6010 H   0  0  0  0  0  0  0  0  0  0  0  0
   57.9180   29.2440   44.3820 C   0  0  0  0  0  0  0  0  0  0  0  0
   58.1650   27.9290   43.8280 C   0  0  0  0  0  0  0  0  0  0  0  0
   58.3600   26.8780   43.3870 N   0  0  0  0  0  0  0  0  0  0  0  0
   58.7770   29.7690   45.3720 C   0  0  0  0  0  0  0  0  0  0  0  0
   59.8020   29.0590   45.7660 N   0  0  0  0  0  0  0  0  0  0  0  0
   60.1380   28.6610   47.1050 C   0  0  0  0  0  0  0  0  0  0  0  0
   60.1540   29.6010   48.1500 C   0  0  0  0  0  0  0  0  0  0  0  0
   59.9529   30.6610   47.9355 H   0  0  0  0  0  0  0  0  0  0  0  0
   60.4240   29.1960   49.4600 C   0  0  0  0  0  0  0  0  0  0  0  0
   60.4506   29.9389   50.2708 H   0  0  0  0  0  0  0  0  0  0  0  0
   60.6600   27.8490   49.7400 C   0  0  0  0  0  0  0  0  0  0  0  0
   60.8831   27.5326   50.7696 H   0  0  0  0  0  0  0  0  0  0  0  0
   60.6130   26.9020   48.7130 C   0  0  0  0  0  0  0  0  0  0  0  0
   60.7979   25.8410   48.9367 H   0  0  0  0  0  0  0  0  0  0  0  0
   60.3310   27.3000   47.3990 C   0  0  0  0  0  0  0  0  0  0  0  0
   60.2820   26.0610   46.0950 S   0  0  0  0  0  0  0  0  0  0  0  0
   58.6190   25.4200   46.5250 C   0  0  0  0  0  0  0  0  0  0  0  0
   58.3137   24.6893   45.7615 H   0  0  0  0  0  0  0  0  0  0  0  0
   58.6847   24.9583   47.5212 H   0  0  0  0  0  0  0  0  0  0  0  0
   57.5660   26.5290   46.5930 C   0  0  0  0  0  0  0  0  0  0  0  0
   57.6854   27.0768   47.5394 H   0  0  0  0  0  0  0  0  0  0  0  0
   57.7135   27.1961   45.7309 H   0  0  0  0  0  0  0  0  0  0  0  0
   56.1760   25.9760   46.5240 C   0  0  0  0  0  0  0  0  0  0  0  0
   55.9290   24.8250   46.9710 O   0  0  0  0  0  0  0  0  0  0  0  0
   55.1460   26.7460   45.9980 O   0  0  0  0  0  0  0  0  0  0  0  0
   58.5260   31.0610   45.8720 C   0  0  0  0  0  0  0  0  0  0  0  0
   59.1967   31.5008   46.6248 H   0  0  0  0  0  0  0  0  0  0  0  0
  1  2  1  0
  2  3  1  0
  3  4  1  0
  4  5  1  0
  5  6  1  0
  5  7  1  0
  4  8  2  0
  8  9  1  0
  9 10  3  0
  8 11  1  0
 11 12  2  0
 12 13  1  0
 13 14  2  0
 14 15  1  0
 14 16  1  0
 16 17  1  0
 16 18  2  0
 18 19  1  0
 18 20  1  0
 20 21  1  0
 20 22  2  0
 22 23  1  0
 23 24  1  0
 24 25  1  0
 24 26  1  0
 24 27  1  0
 27 28  1  0
 27 29  1  0
 27 30  1  0
 30 31  2  0
 30 32  1  0
 11 33  1  0
 33 34  1  0
 33  2  2  0
 22 13  1  0
M  CHG  2   3  -1  32  -1
M  END
>  <UniqueID>  (57) 
53

>  <SMILES>  (57) 
N#Cc1c(N)[n-]cc/c1=N\c1ccccc1SCCC(=O)[O-]

>  <Energy>  (57) 
39.41686393519186

>  <Genealogy>  (57) 
N#Cc1c(N)[n-]ccc1=Nc1ccccc1SCCC(=O)[O-] (protonated)
N#Cc1c(N)[n-]cc/c1=N\c1ccccc1SCCC(=O)[O-] (cis-trans isomerization)
N#Cc1c(N)[n-]cc/c1=N\c1ccccc1SCCC(=O)[O-] (3D coordinates assigned)
N#Cc1c(N)[n-]cc/c1=N\c1ccccc1SCCC(=O)[O-] (optimized conformer: 39.41686393519186 kcal/mol)

>  <smiles>  (57) 
N#Cc1c(N)[nH]ccc1=Nc1ccccc1SCCC(=O)O

>  <score_type>  (57) 
oracle

>  <origin>  (57) 
adg

>  <m_score__min__energy>  (57) 
-10.949999999999999

>  <m_primary>  (57) 
energy

$$$$
57:0
     RDKit          3D

 59 61  0  0  0  0  0  0  0  0999 V2000
   61.5110   29.3430   50.5260 C   0  0  0  0  0  0  0  0  0  0  0  0
   61.4560   30.5530   49.7790 O   0  0  0  0  0  0  0  0  0  0  0  0
   62.0750   31.7560   50.1580 C   0  0  0  0  0  0  0  0  0  0  0  0
   61.9550   32.2770   51.4610 C   0  0  0  0  0  0  0  0  0  0  0  0
   62.5860   33.4760   51.8040 C   0  0  0  0  0  0  0  0  0  0  0  0
   63.3400   34.1680   50.8550 C   0  0  0  0  0  0  0  0  0  0  0  0
   63.4660   33.6650   49.5600 C   0  0  0  0  0  0  0  0  0  0  0  0
   62.8400   32.4590   49.2030 C   0  0  0  0  0  0  0  0  0  0  0  0
   62.9930   31.9130   47.8070 C   0  0  0  0  0  0  0  0  0  0  0  0
   62.3620   32.8310   46.8320 N   0  0  0  0  0  0  0  0  0  0  0  0
   63.3410   33.8400   46.3850 C   0  0  0  0  0  0  0  0  0  0  0  0
   61.1610   33.4700   47.4160 C   0  0  0  0  0  0  0  0  0  0  0  0
   60.3030   34.1500   46.3370 C   0  0  0  0  0  0  0  0  0  0  0  0
   58.8810   34.4760   46.8170 C   0  0  0  0  0  0  0  0  0  0  0  0
   58.0010   33.3600   46.6540 O   0  0  0  0  0  0  0  0  0  0  0  0
   58.3090   32.0070   46.8830 C   0  0  0  0  0  0  0  0  0  0  0  0
   58.2950   31.0400   45.8580 C   0  0  0  0  0  0  0  0  0  0  0  0
   58.5520   29.6920   46.1420 C   0  0  0  0  0  0  0  0  0  0  0  0
   58.4360   28.6540   45.0570 C   0  0  0  0  0  0  0  0  0  0  0  0
   57.6210   27.4750   45.5410 C   0  0  0  0  0  0  0  0  0  0  0  0
   56.2190   27.5410   45.6220 C   0  0  0  0  0  0  0  0  0  0  0  0
   55.5350   28.6850   45.2280 O   0  0  0  0  0  0  0  0  0  0  0  0
   55.5140   26.4780   46.0900 N   0  0  0  0  0  0  0  0  0  0  0  0
   56.1400   25.3440   46.4950 C   0  0  0  0  0  0  0  0  0  0  0  0
   55.4650   24.3740   46.9270 O   0  0  0  0  0  0  0  0  0  0  0  0
   57.4930   25.2560   46.4370 N   0  0  0  0  0  0  0  0  0  0  0  0
   58.2440   26.2880   45.9750 C   0  0  0  0  0  0  0  0  0  0  0  0
   59.4990   26.1700   45.9400 O   0  0  0  0  0  0  0  0  0  0  0  0
   58.8550   29.3130   47.4570 C   0  0  0  0  0  0  0  0  0  0  0  0
   58.9100   30.2700   48.4720 C   0  0  0  0  0  0  0  0  0  0  0  0
   58.6330   31.6220   48.1930 C   0  0  0  0  0  0  0  0  0  0  0  0
   58.6610   32.6080   49.1910 O   0  0  0  0  0  0  0  0  0  0  0  0
   58.5980   32.3430   50.5880 C   0  0  0  0  0  0  0  0  0  0  0  0
   61.5005   29.5751   51.6012 H   0  0  0  0  0  0  0  0  0  0  0  0
   60.6403   28.7185   50.2771 H   0  0  0  0  0  0  0  0  0  0  0  0
   62.4348   28.8001   50.2771 H   0  0  0  0  0  0  0  0  0  0  0  0
   61.3611   31.7370   52.2132 H   0  0  0  0  0  0  0  0  0  0  0  0
   62.4881   33.8752   52.8243 H   0  0  0  0  0  0  0  0  0  0  0  0
   63.8355   35.1112   51.1286 H   0  0  0  0  0  0  0  0  0  0  0  0
   64.0586   34.2155   48.8145 H   0  0  0  0  0  0  0  0  0  0  0  0
   64.0625   31.8104   47.5712 H   0  0  0  0  0  0  0  0  0  0  0  0
   62.5019   30.9305   47.7478 H   0  0  0  0  0  0  0  0  0  0  0  0
   63.8031   34.3163   47.2622 H   0  0  0  0  0  0  0  0  0  0  0  0
   64.1195   33.3526   45.7797 H   0  0  0  0  0  0  0  0  0  0  0  0
   62.8303   34.6035   45.7797 H   0  0  0  0  0  0  0  0  0  0  0  0
   60.5572   32.7016   47.9209 H   0  0  0  0  0  0  0  0  0  0  0  0
   61.4920   34.2394   48.1290 H   0  0  0  0  0  0  0  0  0  0  0  0
   60.7950   35.0870   46.0372 H   0  0  0  0  0  0  0  0  0  0  0  0
   60.2129   33.4459   45.4967 H   0  0  0  0  0  0  0  0  0  0  0  0
   58.9176   34.7491   47.8819 H   0  0  0  0  0  0  0  0  0  0  0  0
   58.4959   35.3091   46.2106 H   0  0  0  0  0  0  0  0  0  0  0  0
   58.0800   31.3466   44.8237 H   0  0  0  0  0  0  0  0  0  0  0  0
   57.9436   29.0996   44.1801 H   0  0  0  0  0  0  0  0  0  0  0  0
   59.4437   28.3050   44.7875 H   0  0  0  0  0  0  0  0  0  0  0  0
   59.0505   28.2560   47.6905 H   0  0  0  0  0  0  0  0  0  0  0  0
   59.1714   29.9658   49.4963 H   0  0  0  0  0  0  0  0  0  0  0  0
   58.8172   33.2651   51.1464 H   0  0  0  0  0  0  0  0  0  0  0  0
   57.5903   31.9873   50.8487 H   0  0  0  0  0  0  0  0  0  0  0  0
   59.3378   31.5718   50.8487 H   0  0  0  0  0  0  0  0  0  0  0  0
  1  2  1  0
  2  3  1  0
  3  4  2  0
  4  5  1  0
  5  6  2  0
  6  7  1  0
  7  8  2  0
  8  9  1  0
  9 10  1  0
 10 11  1  0
 10 12  1  0
 12 13  1  0
 13 14  1  0
 14 15  1  0
 15 16  1  0
 16 17  2  0
 17 18  1  0
 18 19  1  0
 19 20  1  0
 20 21  2  0
 21 22  1  0
 21 23  1  0
 23 24  1  0
 24 25  2  0
 24 26  1  0
 26 27  1  0
 27 28  2  0
 18 29  2  0
 29 30  1  0
 30 31  2  0
 31 32  1  0
 32 33  1  0
  8  3  1  0
 31 16  1  0
 27 20  1  0
  1 34  1  0
  1 35  1  0
  1 36  1  0
  4 37  1  0
  5 38  1  0
  6 39  1  0
  7 40  1  0
  9 41  1  0
  9 42  1  0
 11 43  1  0
 11 44  1  0
 11 45  1  0
 12 46  1  0
 12 47  1  0
 13 48  1  0
 13 49  1  0
 14 50  1  0
 14 51  1  0
 17 52  1  0
 19 53  1  0
 19 54  1  0
 29 55  1  0
 30 56  1  0
 33 57  1  0
 33 58  1  0
 33 59  1  0
M  CHG  3  22  -1  23  -1  26  -1
M  END
>  <UniqueID>  (58) 
54

>  <SMILES>  (58) 
COc1ccccc1CN(C)CCCOc1cc(Cc2c([O-])[n-]c(=O)[n-]c2=O)ccc1OC

>  <Energy>  (58) 
59.54992722256922

>  <Genealogy>  (58) 
COc1ccccc1CN(C)CCCOc1cc(Cc2c([O-])[n-]c(=O)[n-]c2=O)ccc1OC (protonated)
COc1ccccc1CN(C)CCCOc1cc(Cc2c([O-])[n-]c(=O)[n-]c2=O)ccc1OC (3D coordinates assigned)
COc1ccccc1CN(C)CCCOc1cc(Cc2c([O-])[n-]c(=O)[n-]c2=O)ccc1OC (optimized conformer: 59.54992722256922 kcal/mol)

>  <smiles>  (58) 
COc1ccccc1CN(C)CCCOc1cc(Cc2c(O)[nH]c(=O)[nH]c2=O)ccc1OC

>  <score_type>  (58) 
oracle

>  <origin>  (58) 
adg

>  <m_score__min__energy>  (58) 
-17.420000000000002

>  <m_primary>  (58) 
energy

$$$$
58:0
     RDKit          3D

 45 47  0  0  0  0  0  0  0  0999 V2000
   63.1920   31.7840   47.1110 C   0  0  0  0  0  0  0  0  0  0  0  0
   63.1310   32.6450   48.3790 C   0  0  0  0  0  0  0  0  0  0  0  0
   64.5030   33.2680   48.6710 C   0  0  0  0  0  0  0  0  0  0  0  0
   62.0190   33.7420   48.2700 C   0  0  0  0  0  0  0  0  0  0  0  0
   61.1030   33.3850   49.3830 C   0  0  0  0  0  0  0  0  0  0  0  0
   59.9250   34.0210   49.7770 C   0  0  0  0  0  0  0  0  0  0  0  0
   59.2190   33.4980   50.8710 C   0  0  0  0  0  0  0  0  0  0  0  0
   59.6980   32.3600   51.5490 C   0  0  0  0  0  0  0  0  0  0  0  0
   60.8980   31.7350   51.1360 C   0  0  0  0  0  0  0  0  0  0  0  0
   61.4380   30.6050   51.7700 O   0  0  0  0  0  0  0  0  0  0  0  0
   61.8540   29.4140   51.1020 C   0  0  0  0  0  0  0  0  0  0  0  0
   60.9180   29.0920   49.9770 C   0  0  0  0  0  0  0  0  0  0  0  0
   59.9910   28.2590   50.1650 O   0  0  0  0  0  0  0  0  0  0  0  0
   61.1050   29.6940   48.6870 N   0  0  0  0  0  0  0  0  0  0  0  0
   60.0760   29.7780   47.6870 C   0  0  0  0  0  0  0  0  0  0  0  0
   59.6580   28.6420   46.9690 C   0  0  0  0  0  0  0  0  0  0  0  0
   58.6370   28.7440   46.0200 C   0  0  0  0  0  0  0  0  0  0  0  0
   58.0070   29.9730   45.7880 C   0  0  0  0  0  0  0  0  0  0  0  0
   56.7300   30.0990   44.5830 S   0  0  0  0  0  0  0  0  0  0  0  0
   55.5210   28.9070   44.8970 N   0  0  0  0  0  0  0  0  0  0  0  0
   56.1130   31.4690   44.6380 O   0  0  0  0  0  0  0  0  0  0  0  0
   57.3010   29.8840   43.2090 O   0  0  0  0  0  0  0  0  0  0  0  0
   58.4110   31.1030   46.5110 C   0  0  0  0  0  0  0  0  0  0  0  0
   59.4320   31.0030   47.4610 C   0  0  0  0  0  0  0  0  0  0  0  0
   61.5690   32.2830   50.0410 C   0  0  0  0  0  0  0  0  0  0  0  0
   62.7440   31.8260   49.4860 O   0  0  0  0  0  0  0  0  0  0  0  0
   63.2672   30.7230   47.3915 H   0  0  0  0  0  0  0  0  0  0  0  0
   62.2804   31.9423   46.5161 H   0  0  0  0  0  0  0  0  0  0  0  0
   64.0722   32.0692   46.5161 H   0  0  0  0  0  0  0  0  0  0  0  0
   64.6511   33.3353   49.7589 H   0  0  0  0  0  0  0  0  0  0  0  0
   65.2919   32.6398   48.2317 H   0  0  0  0  0  0  0  0  0  0  0  0
   64.5492   34.2754   48.2317 H   0  0  0  0  0  0  0  0  0  0  0  0
   62.4394   34.7490   48.4089 H   0  0  0  0  0  0  0  0  0  0  0  0
   61.5249   33.7686   47.2876 H   0  0  0  0  0  0  0  0  0  0  0  0
   59.5590   34.9104   49.2431 H   0  0  0  0  0  0  0  0  0  0  0  0
   58.2865   33.9792   51.2009 H   0  0  0  0  0  0  0  0  0  0  0  0
   59.1362   31.9553   52.4038 H   0  0  0  0  0  0  0  0  0  0  0  0
   62.8676   29.5591   50.7000 H   0  0  0  0  0  0  0  0  0  0  0  0
   61.8481   28.5812   51.8206 H   0  0  0  0  0  0  0  0  0  0  0  0
   62.0540   30.0620   48.4500 H   0  0  0  0  0  0  0  0  0  0  0  0
   60.1370   27.6695   47.1555 H   0  0  0  0  0  0  0  0  0  0  0  0
   58.3267   27.8543   45.4524 H   0  0  0  0  0  0  0  0  0  0  0  0
   54.6640   29.4150   45.2070 H   0  0  0  0  0  0  0  0  0  0  0  0
   57.9232   32.0723   46.3306 H   0  0  0  0  0  0  0  0  0  0  0  0
   59.7323   31.8918   48.0353 H   0  0  0  0  0  0  0  0  0  0  0  0
  1  2  1  0
  2  3  1  0
  2  4  1  0
  4  5  1  0
  5  6  2  0
  6  7  1  0
  7  8  2  0
  8  9  1  0
  9 10  1  0
 10 11  1  0
 11 12  1  0
 12 13  2  0
 12 14  1  0
 14 15  1  0
 15 16  2  0
 16 17  1  0
 17 18  2  0
 18 19  1  0
 19 20  1  0
 19 21  2  0
 19 22  2  0
 18 23  1  0
 23 24  2  0
  9 25  2  0
 25 26  1  0
 26  2  1  0
 25  5  1  0
 24 15  1  0
  1 27  1  0
  1 28  1  0
  1 29  1  0
  3 30  1  0
  3 31  1  0
  3 32  1  0
  4 33  1  0
  4 34  1  0
  6 35  1  0
  7 36  1  0
  8 37  1  0
 11 38  1  0
 11 39  1  0
 14 40  1  0
 16 41  1  0
 17 42  1  0
 20 43  1  0
 23 44  1  0
 24 45  1  0
M  CHG  1  20  -1
M  END
>  <UniqueID>  (59) 
55

>  <SMILES>  (59) 
CC1(C)Cc2cccc(OCC(=O)Nc3ccc(S([NH-])(=O)=O)cc3)c2O1

>  <Energy>  (59) 
60.61127985536034

>  <Genealogy>  (59) 
CC1(C)Cc2cccc(OCC(=O)Nc3ccc(S([NH-])(=O)=O)cc3)c2O1 (protonated)
CC1(C)Cc2cccc(OCC(=O)Nc3ccc(S([NH-])(=O)=O)cc3)c2O1 (3D coordinates assigned)
CC1(C)Cc2cccc(OCC(=O)Nc3ccc(S([NH-])(=O)=O)cc3)c2O1 (nonaromatic ring conformer: 60.61127985536034 kcal/mol)

>  <smiles>  (59) 
CC1(C)Cc2cccc(OCC(=O)Nc3ccc(S(N)(=O)=O)cc3)c2O1

>  <score_type>  (59) 
oracle

>  <origin>  (59) 
adg

>  <m_score__min__energy>  (59) 
-10.5

>  <m_primary>  (59) 
energy

$$$$
59:0
     RDKit          3D

 48 50  0  0  0  0  0  0  0  0999 V2000
   51.7290   21.8950   47.9400 O   0  0  0  0  0  0  0  0  0  0  0  0
   52.6920   22.0390   47.1410 C   0  0  0  0  0  0  0  0  0  0  0  0
   52.4450   22.1690   45.7330 N   0  0  0  0  0  0  0  0  0  0  0  0
   51.1020   22.0380   45.1680 C   0  0  0  0  0  0  0  0  0  0  0  0
   50.7740   23.2340   44.3200 C   0  0  0  0  0  0  0  0  0  0  0  0
   50.4550   23.0800   42.9620 C   0  0  0  0  0  0  0  0  0  0  0  0
   50.1860   24.2040   42.1710 C   0  0  0  0  0  0  0  0  0  0  0  0
   50.2290   25.4830   42.7300 C   0  0  0  0  0  0  0  0  0  0  0  0
   50.5350   25.6430   44.0840 C   0  0  0  0  0  0  0  0  0  0  0  0
   50.7940   24.5210   44.8810 C   0  0  0  0  0  0  0  0  0  0  0  0
   54.0340   22.0030   47.6480 N   0  0  0  0  0  0  0  0  0  0  0  0
   55.1500   22.6560   47.0310 C   0  0  0  0  0  0  0  0  0  0  0  0
   56.2950   22.1450   47.1530 O   0  0  0  0  0  0  0  0  0  0  0  0
   54.9880   23.8950   46.3240 N   0  0  0  0  0  0  0  0  0  0  0  0
   56.1130   24.7000   45.9340 C   0  0  0  0  0  0  0  0  0  0  0  0
   57.3410   24.0940   45.6280 C   0  0  0  0  0  0  0  0  0  0  0  0
   58.4390   24.8720   45.2640 C   0  0  0  0  0  0  0  0  0  0  0  0
   58.3220   26.2610   45.1960 C   0  0  0  0  0  0  0  0  0  0  0  0
   57.0940   26.8890   45.4790 C   0  0  0  0  0  0  0  0  0  0  0  0
   56.9630   28.3200   45.3970 N   0  0  0  0  0  0  0  0  0  0  0  0
   57.2950   29.0750   44.2160 C   0  0  0  0  0  0  0  0  0  0  0  0
   57.4220   28.4840   43.1080 O   0  0  0  0  0  0  0  0  0  0  0  0
   57.4640   30.5430   44.2890 C   0  0  0  0  0  0  0  0  0  0  0  0
   57.7200   31.3010   43.1320 C   0  0  0  0  0  0  0  0  0  0  0  0
   57.8700   32.6850   43.2380 C   0  0  0  0  0  0  0  0  0  0  0  0
   57.7690   33.3010   44.4850 C   0  0  0  0  0  0  0  0  0  0  0  0
   57.5120   32.5220   45.6130 C   0  0  0  0  0  0  0  0  0  0  0  0
   57.3610   31.1760   45.4900 N   0  0  0  0  0  0  0  0  0  0  0  0
   55.9990   26.1000   45.8810 C   0  0  0  0  0  0  0  0  0  0  0  0
   54.7830   26.7040   46.1940 O   0  0  0  0  0  0  0  0  0  0  0  0
   53.2520   22.1650   45.0720 H   0  0  0  0  0  0  0  0  0  0  0  0
   51.0560   21.1303   44.5484 H   0  0  0  0  0  0  0  0  0  0  0  0
   50.3733   21.9711   45.9893 H   0  0  0  0  0  0  0  0  0  0  0  0
   50.4162   22.0744   42.5180 H   0  0  0  0  0  0  0  0  0  0  0  0
   49.9401   24.0790   41.1062 H   0  0  0  0  0  0  0  0  0  0  0  0
   50.0221   26.3641   42.1048 H   0  0  0  0  0  0  0  0  0  0  0  0
   50.5725   26.6505   44.5240 H   0  0  0  0  0  0  0  0  0  0  0  0
   51.0141   24.6485   45.9512 H   0  0  0  0  0  0  0  0  0  0  0  0
   54.2170   21.4560   48.5220 H   0  0  0  0  0  0  0  0  0  0  0  0
   54.0350   24.2150   46.0490 H   0  0  0  0  0  0  0  0  0  0  0  0
   57.4378   22.9993   45.6756 H   0  0  0  0  0  0  0  0  0  0  0  0
   59.3997   24.3900   45.0299 H   0  0  0  0  0  0  0  0  0  0  0  0
   59.1955   26.8696   44.9193 H   0  0  0  0  0  0  0  0  0  0  0  0
   56.4940   28.8190   46.1830 H   0  0  0  0  0  0  0  0  0  0  0  0
   57.8013   30.8076   42.1522 H   0  0  0  0  0  0  0  0  0  0  0  0
   58.0675   33.2883   42.3397 H   0  0  0  0  0  0  0  0  0  0  0  0
   57.8908   34.3903   44.5781 H   0  0  0  0  0  0  0  0  0  0  0  0
   57.4314   32.9963   46.6022 H   0  0  0  0  0  0  0  0  0  0  0  0
  1  2  2  0
  2  3  1  0
  3  4  1  0
  4  5  1  0
  5  6  2  0
  6  7  1  0
  7  8  2  0
  8  9  1  0
  9 10  2  0
  2 11  1  0
 11 12  1  0
 12 13  2  0
 12 14  1  0
 14 15  1  0
 15 16  2  0
 16 17  1  0
 17 18  2  0
 18 19  1  0
 19 20  1  0
 20 21  1  0
 21 22  2  0
 21 23  1  0
 23 24  2  0
 24 25  1  0
 25 26  2  0
 26 27  1  0
 27 28  2  0
 19 29  2  0
 29 30  1  0
 10  5  1  0
 29 15  1  0
 28 23  1  0
  3 31  1  0
  4 32  1  0
  4 33  1  0
  6 34  1  0
  7 35  1  0
  8 36  1  0
  9 37  1  0
 10 38  1  0
 11 39  1  0
 14 40  1  0
 16 41  1  0
 17 42  1  0
 18 43  1  0
 20 44  1  0
 24 45  1  0
 25 46  1  0
 26 47  1  0
 27 48  1  0
M  CHG  1  30  -1
M  END
>  <UniqueID>  (60) 
56

>  <SMILES>  (60) 
O=C(NCc1ccccc1)NC(=O)Nc1cccc(NC(=O)c2ccccn2)c1[O-]

>  <Energy>  (60) 
61.31370737891511

>  <Genealogy>  (60) 
O=C(NCc1ccccc1)NC(=O)Nc1cccc(NC(=O)c2ccccn2)c1[O-] (protonated)
O=C(NCc1ccccc1)NC(=O)Nc1cccc(NC(=O)c2ccccn2)c1[O-] (3D coordinates assigned)
O=C(NCc1ccccc1)NC(=O)Nc1cccc(NC(=O)c2ccccn2)c1[O-] (optimized conformer: 61.31370737891511 kcal/mol)

>  <smiles>  (60) 
O=C(NCc1ccccc1)NC(=O)Nc1cccc(NC(=O)c2ccccn2)c1O

>  <score_type>  (60) 
oracle

>  <origin>  (60) 
adg

>  <m_score__min__energy>  (60) 
-12.029999999999999

>  <m_primary>  (60) 
energy

$$$$
60:0
     RDKit          3D

 56 59  0  0  0  0  0  0  0  0999 V2000
   60.2390   30.3140   48.9430 C   0  0  0  0  0  0  0  0  0  0  0  0
   60.5450   31.6930   48.5590 N   0  0  0  0  0  0  0  0  0  0  0  0
   61.9010   32.1820   48.5890 C   0  0  0  0  0  0  0  0  0  0  0  0
   62.4320   32.8820   47.4910 C   0  0  0  0  0  0  0  0  0  0  0  0
   63.7520   33.3450   47.5140 C   0  0  0  0  0  0  0  0  0  0  0  0
   64.5520   33.1210   48.6370 C   0  0  0  0  0  0  0  0  0  0  0  0
   64.0340   32.4290   49.7360 C   0  0  0  0  0  0  0  0  0  0  0  0
   62.7190   31.9590   49.7130 C   0  0  0  0  0  0  0  0  0  0  0  0
   59.2230   32.8060   48.3550 S   0  0  0  0  0  0  0  0  0  0  0  0
   58.0520   32.3700   49.1920 O   0  0  0  0  0  0  0  0  0  0  0  0
   59.6530   34.1690   48.8230 O   0  0  0  0  0  0  0  0  0  0  0  0
   58.7280   32.8620   46.6650 C   0  0  0  0  0  0  0  0  0  0  0  0
   59.3250   33.7690   45.7790 C   0  0  0  0  0  0  0  0  0  0  0  0
   58.9020   33.8350   44.4510 C   0  0  0  0  0  0  0  0  0  0  0  0
   57.8820   32.9960   43.9980 C   0  0  0  0  0  0  0  0  0  0  0  0
   57.2950   32.0640   44.8680 C   0  0  0  0  0  0  0  0  0  0  0  0
   56.2130   31.2250   44.4410 N   0  0  0  0  0  0  0  0  0  0  0  0
   56.2300   29.7910   44.3970 C   0  0  0  0  0  0  0  0  0  0  0  0
   55.1350   29.1690   44.3690 O   0  0  0  0  0  0  0  0  0  0  0  0
   57.5100   29.0080   44.5010 C   0  0  0  0  0  0  0  0  0  0  0  0
   57.9620   28.7450   46.2510 S   0  0  0  0  0  0  0  0  0  0  0  0
   57.6220   26.9840   46.2170 C   0  0  0  0  0  0  0  0  0  0  0  0
   58.5540   25.9660   46.2900 C   0  0  0  0  0  0  0  0  0  0  0  0
   57.8230   24.7910   46.2410 C   0  0  0  0  0  0  0  0  0  0  0  0
   58.3670   23.5130   46.3070 O   0  0  0  0  0  0  0  0  0  0  0  0
   56.4990   25.0440   46.1400 N   0  0  0  0  0  0  0  0  0  0  0  0
   55.4330   24.0800   46.0710 C   0  0  0  0  0  0  0  0  0  0  0  0
   54.3030   24.3240   45.2740 C   0  0  0  0  0  0  0  0  0  0  0  0
   53.2540   23.3990   45.2340 C   0  0  0  0  0  0  0  0  0  0  0  0
   53.3240   22.2270   45.9890 C   0  0  0  0  0  0  0  0  0  0  0  0
   54.4500   21.9700   46.7790 C   0  0  0  0  0  0  0  0  0  0  0  0
   54.5340   20.5040   47.7350 Cl  0  0  0  0  0  0  0  0  0  0  0  0
   55.5030   22.8910   46.8170 C   0  0  0  0  0  0  0  0  0  0  0  0
   56.3810   26.3880   46.1250 C   0  0  0  0  0  0  0  0  0  0  0  0
   55.1750   27.0700   46.0070 O   0  0  0  0  0  0  0  0  0  0  0  0
   57.7090   32.0140   46.2070 C   0  0  0  0  0  0  0  0  0  0  0  0
   60.2213   30.2342   50.0400 H   0  0  0  0  0  0  0  0  0  0  0  0
   59.2561   30.0303   48.5388 H   0  0  0  0  0  0  0  0  0  0  0  0
   61.0097   29.6412   48.5388 H   0  0  0  0  0  0  0  0  0  0  0  0
   61.8044   33.0670   46.6068 H   0  0  0  0  0  0  0  0  0  0  0  0
   64.1601   33.8857   46.6473 H   0  0  0  0  0  0  0  0  0  0  0  0
   65.5885   33.4887   48.6567 H   0  0  0  0  0  0  0  0  0  0  0  0
   64.6637   32.2543   50.6209 H   0  0  0  0  0  0  0  0  0  0  0  0
   62.3197   31.4108   50.5790 H   0  0  0  0  0  0  0  0  0  0  0  0
   60.1296   34.4310   46.1316 H   0  0  0  0  0  0  0  0  0  0  0  0
   59.3730   34.5493   43.7597 H   0  0  0  0  0  0  0  0  0  0  0  0
   57.5373   33.0657   42.9557 H   0  0  0  0  0  0  0  0  0  0  0  0
   57.3776   28.0320   44.0112 H   0  0  0  0  0  0  0  0  0  0  0  0
   58.3137   29.5750   44.0084 H   0  0  0  0  0  0  0  0  0  0  0  0
   59.6463   26.0678   46.3701 H   0  0  0  0  0  0  0  0  0  0  0  0
   58.4840   22.9540   45.4700 H   0  0  0  0  0  0  0  0  0  0  0  0
   54.2422   25.2467   44.6783 H   0  0  0  0  0  0  0  0  0  0  0  0
   52.3723   23.5957   44.6063 H   0  0  0  0  0  0  0  0  0  0  0  0
   52.4941   21.5055   45.9629 H   0  0  0  0  0  0  0  0  0  0  0  0
   56.3898   22.6833   47.4338 H   0  0  0  0  0  0  0  0  0  0  0  0
   57.2323   31.3064   46.9013 H   0  0  0  0  0  0  0  0  0  0  0  0
  1  2  1  0
  2  3  1  0
  3  4  2  0
  4  5  1  0
  5  6  2  0
  6  7  1  0
  7  8  2  0
  2  9  1  0
  9 10  2  0
  9 11  2  0
  9 12  1  0
 12 13  2  0
 13 14  1  0
 14 15  2  0
 15 16  1  0
 16 17  1  0
 17 18  1  0
 18 19  2  0
 18 20  1  0
 20 21  1  0
 21 22  1  0
 22 23  1  0
 23 24  2  0
 24 25  1  0
 24 26  1  0
 26 27  1  0
 27 28  2  0
 28 29  1  0
 29 30  2  0
 30 31  1  0
 31 32  1  0
 31 33  2  0
 26 34  1  0
 34 35  1  0
 16 36  2  0
  8  3  1  0
 36 12  1  0
 34 22  2  0
 33 27  1  0
  1 37  1  0
  1 38  1  0
  1 39  1  0
  4 40  1  0
  5 41  1  0
  6 42  1  0
  7 43  1  0
  8 44  1  0
 13 45  1  0
 14 46  1  0
 15 47  1  0
 20 48  1  0
 20 49  1  0
 23 50  1  0
 25 51  1  0
 28 52  1  0
 29 53  1  0
 30 54  1  0
 33 55  1  0
 36 56  1  0
M  CHG  2  17  -1  35  -1
M  END
>  <UniqueID>  (61) 
57

>  <SMILES>  (61) 
CN(c1ccccc1)S(=O)(=O)c1cccc([N-]C(=O)CSc2cc(O)n(-c3cccc(Cl)c3)c2[O-])c1

>  <Energy>  (61) 
91.10889107514089

>  <Genealogy>  (61) 
CN(c1ccccc1)S(=O)(=O)c1cccc([N-]C(=O)CSc2cc(O)n(-c3cccc(Cl)c3)c2[O-])c1 (protonated)
CN(c1ccccc1)S(=O)(=O)c1cccc([N-]C(=O)CSc2cc(O)n(-c3cccc(Cl)c3)c2[O-])c1 (3D coordinates assigned)
CN(c1ccccc1)S(=O)(=O)c1cccc([N-]C(=O)CSc2cc(O)n(-c3cccc(Cl)c3)c2[O-])c1 (optimized conformer: 91.10889107514089 kcal/mol)

>  <smiles>  (61) 
CN(c1ccccc1)S(=O)(=O)c1cccc(NC(=O)CSc2cc(O)n(-c3cccc(Cl)c3)c2O)c1

>  <score_type>  (61) 
oracle

>  <origin>  (61) 
adg

>  <m_score__min__energy>  (61) 
-14.69

>  <m_primary>  (61) 
energy

$$$$
61:0
     RDKit          3D

 42 44  0  0  0  0  0  0  0  0999 V2000
   60.7720   26.7550   46.8380 C   0  0  0  0  0  0  0  0  0  0  0  0
   59.7020   27.5910   46.2020 C   0  0  0  0  0  0  0  0  0  0  0  0
   60.0160   28.4460   45.1340 C   0  0  0  0  0  0  0  0  0  0  0  0
   59.0130   29.1980   44.5150 C   0  0  0  0  0  0  0  0  0  0  0  0
   57.6850   29.0970   44.9530 C   0  0  0  0  0  0  0  0  0  0  0  0
   56.4140   30.0310   44.1710 S   0  0  0  0  0  0  0  0  0  0  0  0
   55.0980   29.3370   44.3800 O   0  0  0  0  0  0  0  0  0  0  0  0
   56.7030   30.1510   42.7010 O   0  0  0  0  0  0  0  0  0  0  0  0
   56.3660   31.6170   44.8710 N   0  0  0  0  0  0  0  0  0  0  0  0
   57.5140   32.4080   45.2090 C   0  0  0  0  0  0  0  0  0  0  0  0
   57.7890   33.6330   44.5760 C   0  0  0  0  0  0  0  0  0  0  0  0
   58.9310   34.3600   44.9220 C   0  0  0  0  0  0  0  0  0  0  0  0
   59.7980   33.8800   45.9060 C   0  0  0  0  0  0  0  0  0  0  0  0
   59.5250   32.6750   46.5630 C   0  0  0  0  0  0  0  0  0  0  0  0
   60.4540   32.2050   47.5510 N   0  0  0  0  0  0  0  0  0  0  0  0
   60.2460   31.1310   48.4780 C   0  0  0  0  0  0  0  0  0  0  0  0
   60.7650   30.0010   48.2640 O   0  0  0  0  0  0  0  0  0  0  0  0
   59.3760   31.3310   49.6610 C   0  0  0  0  0  0  0  0  0  0  0  0
   59.3170   32.5750   50.3090 C   0  0  0  0  0  0  0  0  0  0  0  0
   58.4950   32.7460   51.4240 C   0  0  0  0  0  0  0  0  0  0  0  0
   57.7360   31.6720   51.8860 C   0  0  0  0  0  0  0  0  0  0  0  0
   57.7980   30.4670   51.2560 N   0  0  0  0  0  0  0  0  0  0  0  0
   57.0430   29.4190   51.7310 O   0  0  0  0  0  0  0  0  0  0  0  0
   58.5930   30.2770   50.1670 C   0  0  0  0  0  0  0  0  0  0  0  0
   58.3880   31.9320   46.1950 C   0  0  0  0  0  0  0  0  0  0  0  0
   57.3660   28.2270   46.0030 C   0  0  0  0  0  0  0  0  0  0  0  0
   58.3680   27.4730   46.6220 C   0  0  0  0  0  0  0  0  0  0  0  0
   60.6870   26.8214   47.9327 H   0  0  0  0  0  0  0  0  0  0  0  0
   60.6540   25.7074   46.5239 H   0  0  0  0  0  0  0  0  0  0  0  0
   61.7599   27.1229   46.5239 H   0  0  0  0  0  0  0  0  0  0  0  0
   61.0554   28.5247   44.7826 H   0  0  0  0  0  0  0  0  0  0  0  0
   59.2664   29.8706   43.6823 H   0  0  0  0  0  0  0  0  0  0  0  0
   57.1040   34.0197   43.8071 H   0  0  0  0  0  0  0  0  0  0  0  0
   59.1478   35.3133   44.4178 H   0  0  0  0  0  0  0  0  0  0  0  0
   60.7006   34.4524   46.1661 H   0  0  0  0  0  0  0  0  0  0  0  0
   59.9198   33.4167   49.9372 H   0  0  0  0  0  0  0  0  0  0  0  0
   58.4466   33.7196   51.9336 H   0  0  0  0  0  0  0  0  0  0  0  0
   57.0844   31.7988   52.7631 H   0  0  0  0  0  0  0  0  0  0  0  0
   58.6234   29.2917   49.6789 H   0  0  0  0  0  0  0  0  0  0  0  0
   58.1837   30.9690   46.6858 H   0  0  0  0  0  0  0  0  0  0  0  0
   56.3235   28.1364   46.3421 H   0  0  0  0  0  0  0  0  0  0  0  0
   58.1098   26.7852   47.4407 H   0  0  0  0  0  0  0  0  0  0  0  0
  1  2  1  0
  2  3  2  0
  3  4  1  0
  4  5  2  0
  5  6  1  0
  6  7  2  0
  6  8  2  0
  6  9  1  0
  9 10  1  0
 10 11  2  0
 11 12  1  0
 12 13  2  0
 13 14  1  0
 14 15  1  0
 15 16  1  0
 16 17  2  0
 16 18  1  0
 18 19  2  0
 19 20  1  0
 20 21  2  0
 21 22  1  0
 22 23  1  0
 22 24  2  0
 14 25  2  0
  5 26  1  0
 26 27  2  0
 27  2  1  0
 25 10  1  0
 24 18  1  0
  1 28  1  0
  1 29  1  0
  1 30  1  0
  3 31  1  0
  4 32  1  0
 11 33  1  0
 12 34  1  0
 13 35  1  0
 19 36  1  0
 20 37  1  0
 21 38  1  0
 24 39  1  0
 25 40  1  0
 26 41  1  0
 27 42  1  0
M  CHG  4   9  -1  15  -1  22   1  23  -1
M  END
>  <UniqueID>  (62) 
58

>  <SMILES>  (62) 
Cc1ccc(S(=O)(=O)[N-]c2cccc([N-]C(=O)c3ccc[n+]([O-])c3)c2)cc1

>  <Energy>  (62) 
52.51346997608422

>  <Genealogy>  (62) 
Cc1ccc(S(=O)(=O)[N-]c2cccc([N-]C(=O)c3ccc[n+]([O-])c3)c2)cc1 (protonated)
Cc1ccc(S(=O)(=O)[N-]c2cccc([N-]C(=O)c3ccc[n+]([O-])c3)c2)cc1 (3D coordinates assigned)
Cc1ccc(S(=O)(=O)[N-]c2cccc([N-]C(=O)c3ccc[n+]([O-])c3)c2)cc1 (optimized conformer: 52.51346997608422 kcal/mol)

>  <smiles>  (62) 
Cc1ccc(S(=O)(=O)Nc2cccc(NC(=O)c3ccc[n+]([O-])c3)c2)cc1

>  <score_type>  (62) 
oracle

>  <origin>  (62) 
adg

>  <m_score__min__energy>  (62) 
-12.58

>  <m_primary>  (62) 
energy

$$$$
62:0
     RDKit          3D

 46 49  0  0  0  0  0  0  0  0999 V2000
   61.4803   28.3672   50.2127 H   0  0  0  0  0  0  0  0  0  0  0  0
   60.5180   28.9000   50.2220 C   0  0  0  0  0  0  0  0  0  0  0  0
   60.0100   29.5790   49.2190 O   0  0  0  0  0  0  0  0  0  0  0  0
   58.8580   30.0980   49.5310 N   0  0  0  0  0  0  0  0  0  0  0  0
   58.6070   29.7390   50.8020 C   0  0  0  0  0  0  0  0  0  0  0  0
   57.5160   30.0930   51.4220 N   0  0  0  0  0  0  0  0  0  0  0  0
   57.2960   31.2610   52.2290 C   0  0  0  0  0  0  0  0  0  0  0  0
   56.6450   32.2480   51.7950 O   0  0  0  0  0  0  0  0  0  0  0  0
   57.8540   31.3060   53.6170 C   0  0  0  0  0  0  0  0  0  0  0  0
   57.0353   31.1723   54.3394 H   0  0  0  0  0  0  0  0  0  0  0  0
   58.5954   30.5007   53.7255 H   0  0  0  0  0  0  0  0  0  0  0  0
   58.6760   32.9050   53.9330 S   0  0  0  0  0  0  0  0  0  0  0  0
   59.6460   32.8620   52.4290 C   0  0  0  0  0  0  0  0  0  0  0  0
   59.4740   33.6960   51.3870 N   0  0  0  0  0  0  0  0  0  0  0  0
   60.3630   33.3320   50.4750 N   0  0  0  0  0  0  0  0  0  0  0  0
   61.0380   32.2920   51.0010 C   0  0  0  0  0  0  0  0  0  0  0  0
   62.1290   31.5490   50.2960 C   0  0  0  0  0  0  0  0  0  0  0  0
   63.0246   31.5311   50.9345 H   0  0  0  0  0  0  0  0  0  0  0  0
   61.7845   30.5243   50.0925 H   0  0  0  0  0  0  0  0  0  0  0  0
   62.4690   32.2170   48.9830 C   0  0  0  0  0  0  0  0  0  0  0  0
   63.7420   32.8010   48.8540 C   0  0  0  0  0  0  0  0  0  0  0  0
   64.4644   32.7173   49.6793 H   0  0  0  0  0  0  0  0  0  0  0  0
   64.0990   33.4840   47.6940 C   0  0  0  0  0  0  0  0  0  0  0  0
   65.1010   33.9289   47.6045 H   0  0  0  0  0  0  0  0  0  0  0  0
   63.1890   33.6040   46.6480 C   0  0  0  0  0  0  0  0  0  0  0  0
   63.4646   34.1646   45.7426 H   0  0  0  0  0  0  0  0  0  0  0  0
   61.9280   33.0150   46.7450 C   0  0  0  0  0  0  0  0  0  0  0  0
   61.2104   33.1338   45.9198 H   0  0  0  0  0  0  0  0  0  0  0  0
   61.5570   32.2670   47.8880 C   0  0  0  0  0  0  0  0  0  0  0  0
   60.2430   31.6490   47.9980 N   0  0  0  0  0  0  0  0  0  0  0  0
   60.3390   30.6090   48.0090 H   0  0  0  0  0  0  0  0  0  0  0  0
   59.8350   31.9090   48.9230 H   0  0  0  0  0  0  0  0  0  0  0  0
   59.3410   31.9790   46.9100 C   0  0  0  0  0  0  0  0  0  0  0  0
   58.9220   30.9900   45.9840 C   0  0  0  0  0  0  0  0  0  0  0  0
   59.4210   29.3070   46.1160 Cl  0  0  0  0  0  0  0  0  0  0  0  0
   58.0650   31.3320   44.9320 C   0  0  0  0  0  0  0  0  0  0  0  0
   57.7514   30.5626   44.2111 H   0  0  0  0  0  0  0  0  0  0  0  0
   57.6060   32.6400   44.7910 C   0  0  0  0  0  0  0  0  0  0  0  0
   56.9407   32.9011   43.9548 H   0  0  0  0  0  0  0  0  0  0  0  0
   57.9880   33.6180   45.7070 C   0  0  0  0  0  0  0  0  0  0  0  0
   57.6141   34.6467   45.5972 H   0  0  0  0  0  0  0  0  0  0  0  0
   58.8450   33.2980   46.7660 C   0  0  0  0  0  0  0  0  0  0  0  0
   59.2610   34.5760   47.9000 Cl  0  0  0  0  0  0  0  0  0  0  0  0
   60.6040   32.0000   52.2010 O   0  0  0  0  0  0  0  0  0  0  0  0
   59.6470   28.9650   51.2880 C   0  0  0  0  0  0  0  0  0  0  0  0
   59.7526   28.5114   52.2845 H   0  0  0  0  0  0  0  0  0  0  0  0
  1  2  1  0
  2  3  1  0
  3  4  1  0
  4  5  1  0
  5  6  2  0
  6  7  1  0
  7  8  2  0
  7  9  1  0
  9 10  1  0
  9 11  1  0
  9 12  1  0
 12 13  1  0
 13 14  2  0
 14 15  1  0
 15 16  2  0
 16 17  1  0
 17 18  1  0
 17 19  1  0
 17 20  1  0
 20 21  2  0
 21 22  1  0
 21 23  1  0
 23 24  1  0
 23 25  2  0
 25 26  1  0
 25 27  1  0
 27 28  1  0
 27 29  2  0
 29 30  1  0
 30 31  1  0
 30 32  1  0
 30 33  1  0
 33 34  2  0
 34 35  1  0
 34 36  1  0
 36 37  1  0
 36 38  2  0
 38 39  1  0
 38 40  1  0
 40 41  1  0
 40 42  2  0
 42 43  1  0
 16 44  1  0
  5 45  1  0
 45 46  1  0
 45  2  2  0
 44 13  1  0
 29 20  1  0
 42 33  1  0
M  CHG  2   4  -1  30   1
M  END
>  <UniqueID>  (63) 
59

>  <SMILES>  (63) 
O=C(CSc1nnc(Cc2ccccc2[NH2+]c2c(Cl)cccc2Cl)o1)/N=c1\cco[n-]1

>  <Energy>  (63) 
118.13072672222646

>  <Genealogy>  (63) 
O=C(CSc1nnc(Cc2ccccc2[NH2+]c2c(Cl)cccc2Cl)o1)N=c1cco[n-]1 (protonated)
O=C(CSc1nnc(Cc2ccccc2[NH2+]c2c(Cl)cccc2Cl)o1)/N=c1\cco[n-]1 (cis-trans isomerization)
O=C(CSc1nnc(Cc2ccccc2[NH2+]c2c(Cl)cccc2Cl)o1)/N=c1\cco[n-]1 (3D coordinates assigned)
O=C(CSc1nnc(Cc2ccccc2[NH2+]c2c(Cl)cccc2Cl)o1)/N=c1\cco[n-]1 (optimized conformer: 118.13072672222646 kcal/mol)

>  <smiles>  (63) 
O=C(CSc1nnc(Cc2ccccc2Nc2c(Cl)cccc2Cl)o1)N=c1cco[nH]1

>  <score_type>  (63) 
oracle

>  <origin>  (63) 
adg

>  <m_score__min__energy>  (63) 
-10.35

>  <m_primary>  (63) 
energy

$$$$
63:0
     RDKit          3D

 44 46  0  0  0  0  0  0  0  0999 V2000
   55.2100   29.3470   44.9620 O   0  0  0  0  0  0  0  0  0  0  0  0
   56.4410   29.2910   44.6910 C   0  0  0  0  0  0  0  0  0  0  0  0
   56.9570   30.0900   43.6180 N   0  0  0  0  0  0  0  0  0  0  0  0
   57.6390   31.3640   43.8090 C   0  0  0  0  0  0  0  0  0  0  0  0
   56.9310   32.2010   44.8800 C   0  0  0  0  0  0  0  0  0  0  0  0
   57.9200   33.0730   45.6060 C   0  0  0  0  0  0  0  0  0  0  0  0
   58.1880   32.8590   46.9680 C   0  0  0  0  0  0  0  0  0  0  0  0
   59.0800   33.6930   47.6500 C   0  0  0  0  0  0  0  0  0  0  0  0
   59.7000   34.7510   46.9800 C   0  0  0  0  0  0  0  0  0  0  0  0
   59.4260   34.9800   45.6290 C   0  0  0  0  0  0  0  0  0  0  0  0
   58.5380   34.1460   44.9430 C   0  0  0  0  0  0  0  0  0  0  0  0
   57.3350   28.4070   45.4930 C   0  0  0  0  0  0  0  0  0  0  0  0
   58.6350   28.8590   45.8010 C   0  0  0  0  0  0  0  0  0  0  0  0
   59.5130   28.0650   46.5420 C   0  0  0  0  0  0  0  0  0  0  0  0
   59.1120   26.8110   46.9930 C   0  0  0  0  0  0  0  0  0  0  0  0
   57.8330   26.3410   46.6970 C   0  0  0  0  0  0  0  0  0  0  0  0
   56.9410   27.1160   45.9380 C   0  0  0  0  0  0  0  0  0  0  0  0
   55.6250   26.6190   45.6760 N   0  0  0  0  0  0  0  0  0  0  0  0
   55.1380   24.9870   46.0010 S   0  0  0  0  0  0  0  0  0  0  0  0
   55.6050   24.6150   47.3790 O   0  0  0  0  0  0  0  0  0  0  0  0
   53.6370   24.9060   45.9800 O   0  0  0  0  0  0  0  0  0  0  0  0
   55.8490   23.8560   44.8400 C   0  0  0  0  0  0  0  0  0  0  0  0
   57.2230   23.5900   44.8990 C   0  0  0  0  0  0  0  0  0  0  0  0
   57.8060   22.7100   43.9840 C   0  0  0  0  0  0  0  0  0  0  0  0
   57.0090   22.1130   43.0070 C   0  0  0  0  0  0  0  0  0  0  0  0
   55.6780   22.3820   42.9580 N   0  0  0  0  0  0  0  0  0  0  0  0
   55.0800   23.2280   43.8410 C   0  0  0  0  0  0  0  0  0  0  0  0
   53.8420   23.4420   43.7490 O   0  0  0  0  0  0  0  0  0  0  0  0
   58.6756   31.1751   44.1249 H   0  0  0  0  0  0  0  0  0  0  0  0
   57.6251   31.9190   42.8594 H   0  0  0  0  0  0  0  0  0  0  0  0
   56.1721   32.8364   44.3999 H   0  0  0  0  0  0  0  0  0  0  0  0
   56.4550   31.5235   45.6042 H   0  0  0  0  0  0  0  0  0  0  0  0
   57.6946   32.0325   47.5003 H   0  0  0  0  0  0  0  0  0  0  0  0
   59.2936   33.5159   48.7144 H   0  0  0  0  0  0  0  0  0  0  0  0
   60.4042   35.4040   47.5164 H   0  0  0  0  0  0  0  0  0  0  0  0
   59.9095   35.8174   45.1046 H   0  0  0  0  0  0  0  0  0  0  0  0
   58.3226   34.3308   43.8803 H   0  0  0  0  0  0  0  0  0  0  0  0
   58.9617   29.8500   45.4530 H   0  0  0  0  0  0  0  0  0  0  0  0
   60.5246   28.4319   46.7699 H   0  0  0  0  0  0  0  0  0  0  0  0
   59.8035   26.1911   47.5825 H   0  0  0  0  0  0  0  0  0  0  0  0
   57.5191   25.3520   47.0621 H   0  0  0  0  0  0  0  0  0  0  0  0
   57.8438   24.0747   45.6669 H   0  0  0  0  0  0  0  0  0  0  0  0
   58.8826   22.4900   44.0334 H   0  0  0  0  0  0  0  0  0  0  0  0
   57.4581   21.4244   42.2762 H   0  0  0  0  0  0  0  0  0  0  0  0
  1  2  2  0
  2  3  1  0
  3  4  1  0
  4  5  1  0
  5  6  1  0
  6  7  2  0
  7  8  1  0
  8  9  2  0
  9 10  1  0
 10 11  2  0
  2 12  1  0
 12 13  2  0
 13 14  1  0
 14 15  2  0
 15 16  1  0
 16 17  2  0
 17 18  1  0
 18 19  1  0
 19 20  2  0
 19 21  2  0
 19 22  1  0
 22 23  2  0
 23 24  1  0
 24 25  2  0
 25 26  1  0
 26 27  1  0
 27 28  2  0
 11  6  1  0
 17 12  1  0
 27 22  1  0
  4 29  1  0
  4 30  1  0
  5 31  1  0
  5 32  1  0
  7 33  1  0
  8 34  1  0
  9 35  1  0
 10 36  1  0
 11 37  1  0
 13 38  1  0
 14 39  1  0
 15 40  1  0
 16 41  1  0
 23 42  1  0
 24 43  1  0
 25 44  1  0
M  CHG  3   3  -1  18  -1  26  -1
M  END
>  <UniqueID>  (64) 
60

>  <SMILES>  (64) 
O=C([N-]CCc1ccccc1)c1ccccc1[N-]S(=O)(=O)c1ccc[n-]c1=O

>  <Energy>  (64) 
56.15894154800589

>  <Genealogy>  (64) 
O=C([N-]CCc1ccccc1)c1ccccc1[N-]S(=O)(=O)c1ccc[n-]c1=O (protonated)
O=C([N-]CCc1ccccc1)c1ccccc1[N-]S(=O)(=O)c1ccc[n-]c1=O (3D coordinates assigned)
O=C([N-]CCc1ccccc1)c1ccccc1[N-]S(=O)(=O)c1ccc[n-]c1=O (optimized conformer: 56.15894154800589 kcal/mol)

>  <smiles>  (64) 
O=C(NCCc1ccccc1)c1ccccc1NS(=O)(=O)c1ccc[nH]c1=O

>  <score_type>  (64) 
oracle

>  <origin>  (64) 
adg

>  <m_score__min__energy>  (64) 
-15.19

>  <m_primary>  (64) 
energy

$$$$
64:0
     RDKit          3D

 59 63  0  0  1  0  0  0  0  0999 V2000
   56.0950   28.3580   45.2020 O   0  0  0  0  0  0  0  0  0  0  0  0
   57.0670   27.6910   45.2320 C   0  0  0  0  0  0  0  0  0  0  0  0
   57.4760   26.3660   45.4650 N   0  0  0  0  0  0  0  0  0  0  0  0
   55.9940   25.8700   46.1660 C   0  0  0  0  0  0  0  0  0  0  0  0
   55.1570   26.6870   46.2530 O   0  0  0  0  0  0  0  0  0  0  0  0
   55.9650   24.5580   46.5560 O   0  0  0  0  0  0  0  0  0  0  0  0
   54.7330   23.8530   46.3450 C   0  0  0  0  0  0  0  0  0  0  0  0
   54.5120   22.8800   47.3310 C   0  0  0  0  0  0  0  0  0  0  0  0
   53.3290   22.1230   47.2370 C   0  0  0  0  0  0  0  0  0  0  0  0
   52.4200   22.3500   46.1940 C   0  0  0  0  0  0  0  0  0  0  0  0
   51.2780   21.6200   46.0580 F   0  0  0  0  0  0  0  0  0  0  0  0
   52.7210   23.3450   45.2510 C   0  0  0  0  0  0  0  0  0  0  0  0
   53.8760   24.1010   45.3180 C   0  0  0  0  0  0  0  0  0  0  0  0
   58.3570   28.4390   44.9540 N   0  0  0  0  0  0  0  0  0  0  0  0
   58.1040   29.8130   44.8090 C   0  0  0  0  0  0  0  0  0  0  0  0
   57.4290   30.1200   43.6040 C   0  0  0  0  0  0  0  0  0  0  0  0
   57.0820   31.3930   43.2780 C   0  0  0  0  0  0  0  0  0  0  0  0
   57.4270   32.3730   44.1920 C   0  0  0  0  0  0  0  0  0  0  0  0
   58.0980   32.0580   45.3940 C   0  0  0  0  0  0  0  0  0  0  0  0
   58.3310   33.2030   46.3030 C   0  0  0  0  0  0  0  0  0  0  0  0
   57.5390   34.1460   46.4290 O   0  0  0  0  0  0  0  0  0  0  0  0
   59.5930   33.1290   47.0600 C   0  0  0  0  0  0  0  0  0  0  0  0
   59.6740   32.7930   48.3830 C   0  0  0  0  0  0  0  0  0  0  0  0
   60.9010   32.7160   48.9930 C   0  0  0  0  0  0  0  0  0  0  0  0
   62.0930   32.9680   48.3220 C   0  0  0  0  0  0  0  0  0  0  0  0
   63.4040   32.8930   48.6870 C   0  0  0  0  0  0  0  0  0  0  0  0
   64.1340   32.7060   49.8970 C   0  0  0  0  0  0  0  0  0  0  0  0
   65.3610   32.3800   50.1390 C   0  0  0  0  0  0  0  0  0  0  0  0
   66.4210   33.2820   50.5620 C   0  0  0  0  0  0  0  0  0  0  0  0
   66.1250   34.1840   51.5370 C   0  0  0  0  0  0  0  0  0  0  0  0
   67.1460   34.9920   52.0420 C   0  0  0  0  0  0  0  0  0  0  0  0
   68.4470   34.9110   51.5900 C   0  0  0  0  0  0  0  0  0  0  0  0
   68.6950   33.9740   50.5940 C   0  0  0  0  0  0  0  0  0  0  0  0
   67.6890   33.2200   50.1380 N   0  0  0  0  0  0  0  0  0  0  0  0
   64.0950   33.1990   47.5210 N   0  0  0  0  0  0  0  0  0  0  0  0
   63.2350   33.4360   46.5470 N   0  0  0  0  0  0  0  0  0  0  0  0
   61.9850   33.3050   46.9970 C   0  0  0  0  0  0  0  0  0  0  0  0
   60.7850   33.3960   46.3480 C   0  0  0  0  0  0  0  0  0  0  0  0
   58.4430   30.7770   45.7130 C   0  0  0  0  0  0  0  0  0  0  0  0
   57.7170   25.5450   45.6130 H   0  0  0  0  0  0  0  0  0  0  0  0
   55.2338   22.7153   48.1445 H   0  0  0  0  0  0  0  0  0  0  0  0
   53.1161   21.3475   47.9875 H   0  0  0  0  0  0  0  0  0  0  0  0
   52.0128   23.5296   44.4298 H   0  0  0  0  0  0  0  0  0  0  0  0
   54.0945   24.8754   44.5679 H   0  0  0  0  0  0  0  0  0  0  0  0
   59.2160   27.9090   44.9180 H   0  0  0  0  0  0  0  0  0  0  0  0
   57.1776   29.3041   42.9104 H   0  0  0  0  0  0  0  0  0  0  0  0
   56.5569   31.6307   42.3411 H   0  0  0  0  0  0  0  0  0  0  0  0
   57.1727   33.4215   43.9774 H   0  0  0  0  0  0  0  0  0  0  0  0
   58.7587   32.5851   48.9565 H   0  0  0  0  0  0  0  0  0  0  0  0
   60.9436   32.4434   50.0578 H   0  0  0  0  0  0  0  0  0  0  0  0
   63.5344   32.8720   50.8042 H   0  0  0  0  0  0  0  0  0  0  0  0
   65.6290   31.3206   50.0133 H   0  0  0  0  0  0  0  0  0  0  0  0
   65.0983   34.2752   51.9211 H   0  0  0  0  0  0  0  0  0  0  0  0
   66.9038   35.7205   52.8298 H   0  0  0  0  0  0  0  0  0  0  0  0
   69.2435   35.5523   51.9953 H   0  0  0  0  0  0  0  0  0  0  0  0
   69.7089   33.8537   50.1847 H   0  0  0  0  0  0  0  0  0  0  0  0
   65.1280   33.2400   47.3930 H   0  0  0  0  0  0  0  0  0  0  0  0
   60.7474   33.6737   45.2843 H   0  0  0  0  0  0  0  0  0  0  0  0
   58.9667   30.5344   46.6494 H   0  0  0  0  0  0  0  0  0  0  0  0
  1  2  2  0
  2  3  1  0
  3  4  1  0
  4  5  2  0
  4  6  1  0
  6  7  1  0
  7  8  2  0
  8  9  1  0
  9 10  2  0
 10 11  1  0
 10 12  1  0
 12 13  2  0
  2 14  1  0
 14 15  1  0
 15 16  2  0
 16 17  1  0
 17 18  2  0
 18 19  1  0
 19 20  1  0
 20 21  2  0
 20 22  1  0
 22 23  1  0
 23 24  2  0
 24 25  1  0
 25 26  2  0
 26 27  1  0
 27 28  2  0
 28 29  1  0
 29 30  2  0
 30 31  1  0
 31 32  2  0
 32 33  1  0
 33 34  2  0
 26 35  1  0
 35 36  1  0
 36 37  2  0
 37 38  1  0
 19 39  2  0
 13  7  1  0
 39 15  1  0
 38 22  2  0
 37 25  1  0
 34 29  1  0
  3 40  1  0
  8 41  1  0
  9 42  1  0
 12 43  1  0
 13 44  1  0
 14 45  1  0
 16 46  1  0
 17 47  1  0
 18 48  1  0
 23 49  1  0
 24 50  1  0
 27 51  1  0
 28 52  1  0
 30 53  1  0
 31 54  1  0
 32 55  1  0
 33 56  1  0
 35 57  1  0
 38 58  1  0
 39 59  1  0
M  END
>  <smiles>  (65) 
O=C(NC(=O)Oc1ccc(F)cc1)Nc1cccc(C(=O)c2ccc3c(C=Cc4ccccn4)[nH]nc3c2)c1

>  <score_type>  (65) 
oracle

>  <origin>  (65) 
adg

>  <m_score__min__energy>  (65) 
-11.460000000000001

>  <m_primary>  (65) 
energy

$$$$
65:0
     RDKit          3D

 49 51  0  0  0  0  0  0  0  0999 V2000
   66.7310   32.8100   50.0390 N   0  0  0  0  0  0  0  0  0  0  0  0
   65.3710   33.3390   50.1160 C   0  0  0  0  0  0  0  0  0  0  0  0
   64.3590   32.2310   50.0410 C   0  0  0  0  0  0  0  0  0  0  0  0
   64.6380   31.1070   50.5400 O   0  0  0  0  0  0  0  0  0  0  0  0
   63.0620   32.4770   49.4750 N   0  0  0  0  0  0  0  0  0  0  0  0
   62.0760   31.4480   49.2830 C   0  0  0  0  0  0  0  0  0  0  0  0
   62.0680   30.3200   50.1220 C   0  0  0  0  0  0  0  0  0  0  0  0
   61.1470   29.2900   49.9240 C   0  0  0  0  0  0  0  0  0  0  0  0
   60.2110   29.3730   48.8920 C   0  0  0  0  0  0  0  0  0  0  0  0
   59.2820   28.2980   48.7010 N   0  0  0  0  0  0  0  0  0  0  0  0
   59.2380   27.4240   47.5650 C   0  0  0  0  0  0  0  0  0  0  0  0
   58.6580   26.3120   47.6820 O   0  0  0  0  0  0  0  0  0  0  0  0
   59.7520   27.8490   46.2110 C   0  0  0  0  0  0  0  0  0  0  0  0
   58.7890   28.7610   45.4890 C   0  0  0  0  0  0  0  0  0  0  0  0
   59.2630   29.8370   44.7180 C   0  0  0  0  0  0  0  0  0  0  0  0
   58.3680   30.6750   44.0440 C   0  0  0  0  0  0  0  0  0  0  0  0
   56.9940   30.4290   44.1080 C   0  0  0  0  0  0  0  0  0  0  0  0
   56.5130   29.3390   44.8410 C   0  0  0  0  0  0  0  0  0  0  0  0
   55.1480   29.0780   44.8800 O   0  0  0  0  0  0  0  0  0  0  0  0
   57.4040   28.5080   45.5310 C   0  0  0  0  0  0  0  0  0  0  0  0
   60.2440   30.4640   48.0170 C   0  0  0  0  0  0  0  0  0  0  0  0
   61.1660   31.5100   48.2000 C   0  0  0  0  0  0  0  0  0  0  0  0
   61.1140   32.6870   47.2950 C   0  0  0  0  0  0  0  0  0  0  0  0
   62.1780   33.3190   47.0560 O   0  0  0  0  0  0  0  0  0  0  0  0
   59.8400   33.1670   46.6980 C   0  0  0  0  0  0  0  0  0  0  0  0
   58.6200   32.9190   47.3530 C   0  0  0  0  0  0  0  0  0  0  0  0
   57.4140   33.3500   46.7910 C   0  0  0  0  0  0  0  0  0  0  0  0
   57.4150   34.0460   45.5800 C   0  0  0  0  0  0  0  0  0  0  0  0
   58.6210   34.3200   44.9330 C   0  0  0  0  0  0  0  0  0  0  0  0
   59.8290   33.8880   45.4890 C   0  0  0  0  0  0  0  0  0  0  0  0
   66.7360   31.8310   50.4110 H   0  0  0  0  0  0  0  0  0  0  0  0
   67.0180   32.7680   49.0320 H   0  0  0  0  0  0  0  0  0  0  0  0
   65.2470   33.8761   51.0679 H   0  0  0  0  0  0  0  0  0  0  0  0
   65.2103   34.0195   49.2668 H   0  0  0  0  0  0  0  0  0  0  0  0
   62.8070   33.4640   49.2390 H   0  0  0  0  0  0  0  0  0  0  0  0
   62.7957   30.2483   50.9438 H   0  0  0  0  0  0  0  0  0  0  0  0
   61.1589   28.4098   50.5836 H   0  0  0  0  0  0  0  0  0  0  0  0
   60.7064   28.3790   46.3461 H   0  0  0  0  0  0  0  0  0  0  0  0
   59.8767   26.9426   45.6004 H   0  0  0  0  0  0  0  0  0  0  0  0
   60.3449   30.0212   44.6442 H   0  0  0  0  0  0  0  0  0  0  0  0
   58.7466   31.5288   43.4628 H   0  0  0  0  0  0  0  0  0  0  0  0
   56.2911   31.0920   43.5823 H   0  0  0  0  0  0  0  0  0  0  0  0
   57.0207   27.6538   46.1084 H   0  0  0  0  0  0  0  0  0  0  0  0
   59.5387   30.5043   47.1738 H   0  0  0  0  0  0  0  0  0  0  0  0
   58.6145   32.3826   48.3134 H   0  0  0  0  0  0  0  0  0  0  0  0
   56.4634   33.1406   47.3034 H   0  0  0  0  0  0  0  0  0  0  0  0
   56.4650   34.3783   45.1361 H   0  0  0  0  0  0  0  0  0  0  0  0
   58.6211   34.8766   43.9842 H   0  0  0  0  0  0  0  0  0  0  0  0
   60.7769   34.1130   44.9783 H   0  0  0  0  0  0  0  0  0  0  0  0
  1  2  1  0
  2  3  1  0
  3  4  2  0
  3  5  1  0
  5  6  1  0
  6  7  2  0
  7  8  1  0
  8  9  2  0
  9 10  1  0
 10 11  1  0
 11 12  2  0
 11 13  1  0
 13 14  1  0
 14 15  2  0
 15 16  1  0
 16 17  2  0
 17 18  1  0
 18 19  1  0
 18 20  2  0
  9 21  1  0
 21 22  2  0
 22 23  1  0
 23 24  2  0
 23 25  1  0
 25 26  2  0
 26 27  1  0
 27 28  2  0
 28 29  1  0
 29 30  2  0
 22  6  1  0
 30 25  1  0
 20 14  1  0
  1 31  1  0
  1 32  1  0
  2 33  1  0
  2 34  1  0
  5 35  1  0
  7 36  1  0
  8 37  1  0
 13 38  1  0
 13 39  1  0
 15 40  1  0
 16 41  1  0
 17 42  1  0
 20 43  1  0
 21 44  1  0
 26 45  1  0
 27 46  1  0
 28 47  1  0
 29 48  1  0
 30 49  1  0
M  CHG  2  10  -1  19  -1
M  END
>  <UniqueID>  (66) 
61

>  <SMILES>  (66) 
NCC(=O)Nc1ccc([N-]C(=O)Cc2cccc([O-])c2)cc1C(=O)c1ccccc1

>  <Energy>  (66) 
62.5943543337788

>  <Genealogy>  (66) 
NCC(=O)Nc1ccc([N-]C(=O)Cc2cccc([O-])c2)cc1C(=O)c1ccccc1 (protonated)
NCC(=O)Nc1ccc([N-]C(=O)Cc2cccc([O-])c2)cc1C(=O)c1ccccc1 (3D coordinates assigned)
NCC(=O)Nc1ccc([N-]C(=O)Cc2cccc([O-])c2)cc1C(=O)c1ccccc1 (optimized conformer: 62.5943543337788 kcal/mol)

>  <smiles>  (66) 
NCC(=O)Nc1ccc(NC(=O)Cc2cccc(O)c2)cc1C(=O)c1ccccc1

>  <score_type>  (66) 
oracle

>  <origin>  (66) 
adg

>  <m_score__min__energy>  (66) 
-14.49

>  <m_primary>  (66) 
energy

$$$$
66:0
     RDKit          3D

 30 31  0  0  0  0  0  0  0  0999 V2000
   60.5160   34.5970   48.9440 C   0  0  0  0  0  0  0  0  0  0  0  0
   59.5670   34.7060   47.8880 O   0  0  0  0  0  0  0  0  0  0  0  0
   59.0660   33.6180   47.1600 C   0  0  0  0  0  0  0  0  0  0  0  0
   59.3290   32.3250   47.6270 C   0  0  0  0  0  0  0  0  0  0  0  0
   58.8500   31.2080   46.9380 C   0  0  0  0  0  0  0  0  0  0  0  0
   58.0830   31.3650   45.7770 C   0  0  0  0  0  0  0  0  0  0  0  0
   57.6290   30.1910   45.0890 N   0  0  0  0  0  0  0  0  0  0  0  0
   56.2670   29.8000   44.8710 C   0  0  0  0  0  0  0  0  0  0  0  0
   55.4250   30.6340   44.4470 O   0  0  0  0  0  0  0  0  0  0  0  0
   55.8200   28.4910   45.2380 N   0  0  0  0  0  0  0  0  0  0  0  0
   56.6520   27.4010   45.6620 C   0  0  0  0  0  0  0  0  0  0  0  0
   58.0560   27.5030   45.6750 C   0  0  0  0  0  0  0  0  0  0  0  0
   58.8370   26.4130   46.0710 C   0  0  0  0  0  0  0  0  0  0  0  0
   58.2270   25.2110   46.4410 C   0  0  0  0  0  0  0  0  0  0  0  0
   56.8350   25.0950   46.4050 C   0  0  0  0  0  0  0  0  0  0  0  0
   56.0500   26.1830   46.0090 C   0  0  0  0  0  0  0  0  0  0  0  0
   54.6990   26.0550   45.9740 F   0  0  0  0  0  0  0  0  0  0  0  0
   57.8340   32.6600   45.2900 C   0  0  0  0  0  0  0  0  0  0  0  0
   58.3150   33.7780   45.9800 C   0  0  0  0  0  0  0  0  0  0  0  0
   59.9963   34.6567   49.9116 H   0  0  0  0  0  0  0  0  0  0  0  0
   61.0399   33.6328   48.8681 H   0  0  0  0  0  0  0  0  0  0  0  0
   61.2449   35.4173   48.8681 H   0  0  0  0  0  0  0  0  0  0  0  0
   59.9185   32.1870   48.5454 H   0  0  0  0  0  0  0  0  0  0  0  0
   59.0770   30.1981   47.3102 H   0  0  0  0  0  0  0  0  0  0  0  0
   58.5402   28.4433   45.3726 H   0  0  0  0  0  0  0  0  0  0  0  0
   59.9332   26.5015   46.0914 H   0  0  0  0  0  0  0  0  0  0  0  0
   58.8424   24.3570   46.7603 H   0  0  0  0  0  0  0  0  0  0  0  0
   56.3556   24.1464   46.6886 H   0  0  0  0  0  0  0  0  0  0  0  0
   57.2584   32.7949   44.3623 H   0  0  0  0  0  0  0  0  0  0  0  0
   58.1051   34.7881   45.5982 H   0  0  0  0  0  0  0  0  0  0  0  0
  1  2  1  0
  2  3  1  0
  3  4  2  0
  4  5  1  0
  5  6  2  0
  6  7  1  0
  7  8  1  0
  8  9  2  0
  8 10  1  0
 10 11  1  0
 11 12  2  0
 12 13  1  0
 13 14  2  0
 14 15  1  0
 15 16  2  0
 16 17  1  0
  6 18  1  0
 18 19  2  0
 19  3  1  0
 16 11  1  0
  1 20  1  0
  1 21  1  0
  1 22  1  0
  4 23  1  0
  5 24  1  0
 12 25  1  0
 13 26  1  0
 14 27  1  0
 15 28  1  0
 18 29  1  0
 19 30  1  0
M  CHG  2   7  -1  10  -1
M  END
>  <UniqueID>  (67) 
62

>  <SMILES>  (67) 
COc1ccc([N-]C(=O)[N-]c2ccccc2F)cc1

>  <Energy>  (67) 
36.85697611293951

>  <Genealogy>  (67) 
COc1ccc([N-]C(=O)[N-]c2ccccc2F)cc1 (protonated)
COc1ccc([N-]C(=O)[N-]c2ccccc2F)cc1 (3D coordinates assigned)
COc1ccc([N-]C(=O)[N-]c2ccccc2F)cc1 (optimized conformer: 36.85697611293951 kcal/mol)

>  <smiles>  (67) 
COc1ccc(NC(=O)Nc2ccccc2F)cc1

>  <score_type>  (67) 
oracle

>  <origin>  (67) 
adg

>  <m_score__min__energy>  (67) 
-10.300000000000001

>  <m_primary>  (67) 
energy

$$$$
67:0
     RDKit          3D

 45 48  0  0  0  0  0  0  0  0999 V2000
   59.1450   34.7820   44.8860 C   0  0  0  0  0  0  0  0  0  0  0  0
   58.5460   33.4340   44.6240 C   0  0  0  0  0  0  0  0  0  0  0  0
   58.0810   32.6480   45.6900 C   0  0  0  0  0  0  0  0  0  0  0  0
   57.4730   31.4130   45.4430 C   0  0  0  0  0  0  0  0  0  0  0  0
   57.3090   30.9580   44.1270 C   0  0  0  0  0  0  0  0  0  0  0  0
   56.4790   29.4440   43.7920 S   0  0  0  0  0  0  0  0  0  0  0  0
   57.3720   28.5500   42.9790 O   0  0  0  0  0  0  0  0  0  0  0  0
   55.2040   29.7060   43.0420 O   0  0  0  0  0  0  0  0  0  0  0  0
   56.1330   28.6880   45.3110 N   0  0  0  0  0  0  0  0  0  0  0  0
   56.5560   27.3730   45.6900 C   0  0  0  0  0  0  0  0  0  0  0  0
   55.6130   26.3750   45.9910 C   0  0  0  0  0  0  0  0  0  0  0  0
   56.0350   25.1160   46.4220 C   0  0  0  0  0  0  0  0  0  0  0  0
   55.1310   24.1460   46.7160 N   0  0  0  0  0  0  0  0  0  0  0  0
   55.5280   22.9170   47.1430 C   0  0  0  0  0  0  0  0  0  0  0  0
   54.6670   22.0370   47.4070 O   0  0  0  0  0  0  0  0  0  0  0  0
   56.8970   22.6460   47.2830 C   0  0  0  0  0  0  0  0  0  0  0  0
   57.2920   21.5170   47.6760 O   0  0  0  0  0  0  0  0  0  0  0  0
   57.8050   23.6150   46.9920 N   0  0  0  0  0  0  0  0  0  0  0  0
   57.4090   24.8440   46.5660 C   0  0  0  0  0  0  0  0  0  0  0  0
   58.3520   25.8320   46.2700 C   0  0  0  0  0  0  0  0  0  0  0  0
   57.9380   27.0960   45.8160 C   0  0  0  0  0  0  0  0  0  0  0  0
   58.9660   28.1140   45.4820 C   0  0  0  0  0  0  0  0  0  0  0  0
   59.4470   28.1320   44.3170 O   0  0  0  0  0  0  0  0  0  0  0  0
   59.4340   29.1180   46.4720 C   0  0  0  0  0  0  0  0  0  0  0  0
   60.4720   30.0160   46.1580 C   0  0  0  0  0  0  0  0  0  0  0  0
   60.8870   30.9720   47.0890 C   0  0  0  0  0  0  0  0  0  0  0  0
   60.2820   31.0350   48.3460 C   0  0  0  0  0  0  0  0  0  0  0  0
   59.2630   30.1380   48.6760 C   0  0  0  0  0  0  0  0  0  0  0  0
   58.8430   29.1790   47.7470 C   0  0  0  0  0  0  0  0  0  0  0  0
   57.7650   31.7470   43.0610 C   0  0  0  0  0  0  0  0  0  0  0  0
   58.3750   32.9800   43.3080 C   0  0  0  0  0  0  0  0  0  0  0  0
   59.2180   34.9462   45.9712 H   0  0  0  0  0  0  0  0  0  0  0  0
   60.1492   34.8301   44.4396 H   0  0  0  0  0  0  0  0  0  0  0  0
   58.5077   35.5595   44.4396 H   0  0  0  0  0  0  0  0  0  0  0  0
   58.1953   33.0050   46.7242 H   0  0  0  0  0  0  0  0  0  0  0  0
   57.1223   30.7966   46.2839 H   0  0  0  0  0  0  0  0  0  0  0  0
   54.5386   26.5868   45.8866 H   0  0  0  0  0  0  0  0  0  0  0  0
   59.4242   25.6192   46.3930 H   0  0  0  0  0  0  0  0  0  0  0  0
   60.9595   29.9647   45.1733 H   0  0  0  0  0  0  0  0  0  0  0  0
   61.6918   31.6762   46.8312 H   0  0  0  0  0  0  0  0  0  0  0  0
   60.6076   31.7906   49.0761 H   0  0  0  0  0  0  0  0  0  0  0  0
   58.7898   30.1855   49.6679 H   0  0  0  0  0  0  0  0  0  0  0  0
   58.0466   28.4693   48.0154 H   0  0  0  0  0  0  0  0  0  0  0  0
   57.6421   31.3941   42.0264 H   0  0  0  0  0  0  0  0  0  0  0  0
   58.7226   33.5972   42.4664 H   0  0  0  0  0  0  0  0  0  0  0  0
  1  2  1  0
  2  3  2  0
  3  4  1  0
  4  5  2  0
  5  6  1  0
  6  7  2  0
  6  8  2  0
  6  9  1  0
  9 10  1  0
 10 11  2  0
 11 12  1  0
 12 13  1  0
 13 14  1  0
 14 15  2  0
 14 16  1  0
 16 17  2  0
 16 18  1  0
 18 19  1  0
 19 20  1  0
 20 21  2  0
 21 22  1  0
 22 23  2  0
 22 24  1  0
 24 25  2  0
 25 26  1  0
 26 27  2  0
 27 28  1  0
 28 29  2  0
  5 30  1  0
 30 31  2  0
 31  2  1  0
 21 10  1  0
 29 24  1  0
 19 12  2  0
  1 32  1  0
  1 33  1  0
  1 34  1  0
  3 35  1  0
  4 36  1  0
 11 37  1  0
 20 38  1  0
 25 39  1  0
 26 40  1  0
 27 41  1  0
 28 42  1  0
 29 43  1  0
 30 44  1  0
 31 45  1  0
M  CHG  3   9  -1  13  -1  18  -1
M  END
>  <UniqueID>  (68) 
63

>  <SMILES>  (68) 
Cc1ccc(S(=O)(=O)[N-]c2cc3[n-]c(=O)c(=O)[n-]c3cc2C(=O)c2ccccc2)cc1

>  <Energy>  (68) 
62.58701823859865

>  <Genealogy>  (68) 
Cc1ccc(S(=O)(=O)[N-]c2cc3[n-]c(=O)c(=O)[n-]c3cc2C(=O)c2ccccc2)cc1 (protonated)
Cc1ccc(S(=O)(=O)[N-]c2cc3[n-]c(=O)c(=O)[n-]c3cc2C(=O)c2ccccc2)cc1 (3D coordinates assigned)
Cc1ccc(S(=O)(=O)[N-]c2cc3[n-]c(=O)c(=O)[n-]c3cc2C(=O)c2ccccc2)cc1 (optimized conformer: 62.58701823859865 kcal/mol)

>  <smiles>  (68) 
Cc1ccc(S(=O)(=O)Nc2cc3[nH]c(=O)c(=O)[nH]c3cc2C(=O)c2ccccc2)cc1

>  <score_type>  (68) 
oracle

>  <origin>  (68) 
adg

>  <m_score__min__energy>  (68) 
-13.91

>  <m_primary>  (68) 
energy

$$$$
68:0
     RDKit          3D

 60 62  0  0  0  0  0  0  0  0999 V2000
   57.1900   30.6680   54.6420 C   0  0  0  0  0  0  0  0  0  0  0  0
   56.2660   30.6180   53.4970 N   0  0  2  0  0  0  0  0  0  0  0  0
   54.9530   30.0850   53.9340 C   0  0  0  0  0  0  0  0  0  0  0  0
   53.8100   30.6760   53.1430 C   0  0  0  0  0  0  0  0  0  0  0  0
   52.5680   30.9140   53.7550 C   0  0  0  0  0  0  0  0  0  0  0  0
   51.5140   31.4650   53.0190 C   0  0  0  0  0  0  0  0  0  0  0  0
   51.6960   31.7920   51.6720 C   0  0  0  0  0  0  0  0  0  0  0  0
   50.6480   32.3390   50.9410 O   0  0  0  0  0  0  0  0  0  0  0  0
   52.9330   31.5660   51.0590 C   0  0  0  0  0  0  0  0  0  0  0  0
   53.9830   31.0040   51.7890 C   0  0  0  0  0  0  0  0  0  0  0  0
   56.8680   29.8080   52.4450 C   0  0  0  0  0  0  0  0  0  0  0  0
   56.6830   28.5970   52.4400 O   0  0  0  0  0  0  0  0  0  0  0  0
   57.8510   30.3770   51.4200 C   0  0  2  0  0  0  0  0  0  0  0  0
   59.1670   29.5790   51.2380 C   0  0  0  0  0  0  0  0  0  0  0  0
   59.7380   29.7570   49.8520 C   0  0  0  0  0  0  0  0  0  0  0  0
   60.9560   30.4340   49.6640 C   0  0  0  0  0  0  0  0  0  0  0  0
   61.4620   30.6300   48.3760 C   0  0  0  0  0  0  0  0  0  0  0  0
   60.7560   30.1550   47.2670 C   0  0  0  0  0  0  0  0  0  0  0  0
   59.5450   29.4830   47.4450 C   0  0  0  0  0  0  0  0  0  0  0  0
   59.0340   29.2870   48.7310 C   0  0  0  0  0  0  0  0  0  0  0  0
   58.1150   31.8160   51.6350 N   0  0  0  0  0  0  0  0  0  0  0  0
   58.1810   32.6140   50.4030 C   0  0  0  0  0  0  0  0  0  0  0  0
   59.4030   33.5390   50.4660 C   0  0  0  0  0  0  0  0  0  0  0  0
   59.6550   34.2750   49.1410 C   0  0  0  0  0  0  0  0  0  0  0  0
   61.0310   33.9770   48.5970 C   0  0  0  0  0  0  0  0  0  0  0  0
   62.1180   33.8210   49.4740 C   0  0  0  0  0  0  0  0  0  0  0  0
   63.4010   33.5860   48.9720 C   0  0  0  0  0  0  0  0  0  0  0  0
   63.6110   33.5080   47.5930 C   0  0  0  0  0  0  0  0  0  0  0  0
   62.5340   33.6610   46.7130 C   0  0  0  0  0  0  0  0  0  0  0  0
   61.2500   33.8940   47.2120 C   0  0  0  0  0  0  0  0  0  0  0  0
   56.6147   30.6369   55.5790 H   0  0  0  0  0  0  0  0  0  0  0  0
   57.8714   29.8054   54.6012 H   0  0  0  0  0  0  0  0  0  0  0  0
   57.7743   31.5991   54.6012 H   0  0  0  0  0  0  0  0  0  0  0  0
   56.1150   31.6000   53.1770 H   0  0  0  0  0  0  0  0  0  0  0  0
   54.9506   28.9932   53.7997 H   0  0  0  0  0  0  0  0  0  0  0  0
   54.8109   30.3566   54.9904 H   0  0  0  0  0  0  0  0  0  0  0  0
   52.4240   30.6661   54.8170 H   0  0  0  0  0  0  0  0  0  0  0  0
   50.5408   31.6412   53.5005 H   0  0  0  0  0  0  0  0  0  0  0  0
   53.0789   31.8310   50.0014 H   0  0  0  0  0  0  0  0  0  0  0  0
   54.9507   30.8174   51.3003 H   0  0  0  0  0  0  0  0  0  0  0  0
   57.3226   30.2586   50.4625 H   0  0  0  0  0  0  0  0  0  0  0  0
   59.9032   29.9317   51.9753 H   0  0  0  0  0  0  0  0  0  0  0  0
   58.9449   28.5116   51.3840 H   0  0  0  0  0  0  0  0  0  0  0  0
   61.5130   30.8110   50.5344 H   0  0  0  0  0  0  0  0  0  0  0  0
   62.4164   31.1584   48.2349 H   0  0  0  0  0  0  0  0  0  0  0  0
   61.1546   30.3107   46.2536 H   0  0  0  0  0  0  0  0  0  0  0  0
   58.9922   29.1072   46.5714 H   0  0  0  0  0  0  0  0  0  0  0  0
   58.0765   28.7625   48.8659 H   0  0  0  0  0  0  0  0  0  0  0  0
   59.0200   31.9230   52.1520 H   0  0  0  0  0  0  0  0  0  0  0  0
   58.2710   31.9441   49.5352 H   0  0  0  0  0  0  0  0  0  0  0  0
   57.2661   33.2166   50.3036 H   0  0  0  0  0  0  0  0  0  0  0  0
   59.2400   34.2848   51.2580 H   0  0  0  0  0  0  0  0  0  0  0  0
   60.2841   32.9139   50.6730 H   0  0  0  0  0  0  0  0  0  0  0  0
   58.9025   33.9548   48.4053 H   0  0  0  0  0  0  0  0  0  0  0  0
   59.5839   35.3567   49.3276 H   0  0  0  0  0  0  0  0  0  0  0  0
   61.9583   33.8841   50.5605 H   0  0  0  0  0  0  0  0  0  0  0  0
   64.2471   33.4622   49.6640 H   0  0  0  0  0  0  0  0  0  0  0  0
   64.6220   33.3265   47.1995 H   0  0  0  0  0  0  0  0  0  0  0  0
   62.6984   33.5978   45.6272 H   0  0  0  0  0  0  0  0  0  0  0  0
   60.4061   34.0131   46.5166 H   0  0  0  0  0  0  0  0  0  0  0  0
  1  2  1  0
  2  3  1  0
  3  4  1  0
  4  5  2  0
  5  6  1  0
  6  7  2  0
  7  8  1  0
  7  9  1  0
  9 10  2  0
  2 11  1  0
 11 12  2  0
 11 13  1  0
 13 14  1  0
 14 15  1  0
 15 16  2  0
 16 17  1  0
 17 18  2  0
 18 19  1  0
 19 20  2  0
 13 21  1  0
 21 22  1  0
 22 23  1  0
 23 24  1  0
 24 25  1  0
 25 26  2  0
 26 27  1  0
 27 28  2  0
 28 29  1  0
 29 30  2  0
 10  4  1  0
 20 15  1  0
 30 25  1  0
  1 31  1  0
  1 32  1  0
  1 33  1  0
  2 34  1  6
  3 35  1  0
  3 36  1  0
  5 37  1  0
  6 38  1  0
  9 39  1  0
 10 40  1  0
 13 41  1  6
 14 42  1  0
 14 43  1  0
 16 44  1  0
 17 45  1  0
 18 46  1  0
 19 47  1  0
 20 48  1  0
 21 49  1  0
 22 50  1  0
 22 51  1  0
 23 52  1  0
 23 53  1  0
 24 54  1  0
 24 55  1  0
 26 56  1  0
 27 57  1  0
 28 58  1  0
 29 59  1  0
 30 60  1  0
M  CHG  2   2   1   8  -1
M  END
>  <UniqueID>  (69) 
64

>  <SMILES>  (69) 
C[N@H+](Cc1ccc([O-])cc1)C(=O)[C@H](Cc1ccccc1)NCCCc1ccccc1

>  <Energy>  (69) 
56.23188315664777

>  <Genealogy>  (69) 
C[NH+](Cc1ccc([O-])cc1)C(=O)C(Cc1ccccc1)NCCCc1ccccc1 (protonated)
C[N@H+](Cc1ccc([O-])cc1)C(=O)[C@H](Cc1ccccc1)NCCCc1ccccc1 (chirality)
C[N@H+](Cc1ccc([O-])cc1)C(=O)[C@H](Cc1ccccc1)NCCCc1ccccc1 (3D coordinates assigned)
C[N@H+](Cc1ccc([O-])cc1)C(=O)[C@H](Cc1ccccc1)NCCCc1ccccc1 (optimized conformer: 56.23188315664777 kcal/mol)

>  <smiles>  (69) 
CN(Cc1ccc(O)cc1)C(=O)C(Cc1ccccc1)NCCCc1ccccc1

>  <score_type>  (69) 
oracle

>  <origin>  (69) 
adg

>  <m_score__min__energy>  (69) 
-11.01

>  <m_primary>  (69) 
energy

$$$$
69:0
     RDKit          3D

 47 49  0  0  1  0  0  0  0  0999 V2000
   59.5710   28.1930   44.3240 C   0  0  0  0  0  0  0  0  0  0  0  0
   58.8160   27.4350   45.3090 N   0  0  0  0  0  0  0  0  0  0  0  0
   58.4290   27.9480   46.5500 C   0  0  0  0  0  0  0  0  0  0  0  0
   57.4110   27.4240   47.1040 O   0  0  0  0  0  0  0  0  0  0  0  0
   59.0700   29.0240   47.2790 C   0  0  0  0  0  0  0  0  0  0  0  0
   58.7480   30.3560   47.1420 C   0  0  0  0  0  0  0  0  0  0  0  0
   59.4060   31.3340   47.8970 C   0  0  0  0  0  0  0  0  0  0  0  0
   60.3970   30.9670   48.7940 C   0  0  0  0  0  0  0  0  0  0  0  0
   61.1080   31.9710   49.5720 C   0  0  0  0  0  0  0  0  0  0  0  0
   60.7070   32.1400   50.9010 C   0  0  0  0  0  0  0  0  0  0  0  0
   61.3270   33.1130   51.6760 C   0  0  0  0  0  0  0  0  0  0  0  0
   62.3320   33.8960   51.1210 C   0  0  0  0  0  0  0  0  0  0  0  0
   62.6850   33.6940   49.8290 C   0  0  0  0  0  0  0  0  0  0  0  0
   62.0980   32.7310   48.9990 C   0  0  0  0  0  0  0  0  0  0  0  0
   62.6730   32.5390   47.3730 S   0  0  0  0  0  0  0  0  0  0  0  0
   64.2670   33.0940   47.1060 N   0  0  0  0  0  0  0  0  0  0  0  0
   61.7130   33.1490   46.3750 O   0  0  0  0  0  0  0  0  0  0  0  0
   62.6760   31.0520   47.0340 O   0  0  0  0  0  0  0  0  0  0  0  0
   60.7190   29.6390   48.9290 C   0  0  0  0  0  0  0  0  0  0  0  0
   60.0680   28.6470   48.1810 C   0  0  0  0  0  0  0  0  0  0  0  0
   58.4290   26.0760   45.0210 C   0  0  0  0  0  0  0  0  0  0  0  0
   57.7330   25.8570   43.8820 N   0  0  0  0  0  0  0  0  0  0  0  0
   57.3460   24.5950   43.5610 C   0  0  0  0  0  0  0  0  0  0  0  0
   57.6260   23.5020   44.3420 C   0  0  0  0  0  0  0  0  0  0  0  0
   57.2580   22.1480   44.0870 C   0  0  0  0  0  0  0  0  0  0  0  0
   57.9760   21.1310   44.7720 O   0  0  0  0  0  0  0  0  0  0  0  0
   56.3470   21.7070   43.3080 N   0  0  0  0  0  0  0  0  0  0  0  0
   56.2610   20.3890   43.0150 O   0  0  0  0  0  0  0  0  0  0  0  0
   58.3510   23.7910   45.5110 C   0  0  0  0  0  0  0  0  0  0  0  0
   58.7270   25.0470   45.8150 N   0  0  0  0  0  0  0  0  0  0  0  0
   60.2571   28.8818   44.8386 H   0  0  0  0  0  0  0  0  0  0  0  0
   60.1498   27.5015   43.6942 H   0  0  0  0  0  0  0  0  0  0  0  0
   58.8772   28.7691   43.6942 H   0  0  0  0  0  0  0  0  0  0  0  0
   57.9641   30.6550   46.4306 H   0  0  0  0  0  0  0  0  0  0  0  0
   59.1366   32.3939   47.7784 H   0  0  0  0  0  0  0  0  0  0  0  0
   59.9115   31.5112   51.3274 H   0  0  0  0  0  0  0  0  0  0  0  0
   61.0239   33.2624   52.7228 H   0  0  0  0  0  0  0  0  0  0  0  0
   62.8336   34.6686   51.7222 H   0  0  0  0  0  0  0  0  0  0  0  0
   63.4810   34.3246   49.4062 H   0  0  0  0  0  0  0  0  0  0  0  0
   64.8770   32.9700   47.9550 H   0  0  0  0  0  0  0  0  0  0  0  0
   64.7490   32.5760   46.3310 H   0  0  0  0  0  0  0  0  0  0  0  0
   61.5056   29.3464   49.6401 H   0  0  0  0  0  0  0  0  0  0  0  0
   60.3392   27.5879   48.3028 H   0  0  0  0  0  0  0  0  0  0  0  0
   56.7808   24.4419   42.6298 H   0  0  0  0  0  0  0  0  0  0  0  0
   58.0300   20.1970   44.3970 H   0  0  0  0  0  0  0  0  0  0  0  0
   56.9750   19.7660   43.3710 H   0  0  0  0  0  0  0  0  0  0  0  0
   58.6175   22.9708   46.1939 H   0  0  0  0  0  0  0  0  0  0  0  0
  1  2  1  0
  2  3  1  0
  3  4  2  0
  3  5  1  0
  5  6  2  0
  6  7  1  0
  7  8  2  0
  8  9  1  0
  9 10  2  0
 10 11  1  0
 11 12  2  0
 12 13  1  0
 13 14  2  0
 14 15  1  0
 15 16  1  0
 15 17  2  0
 15 18  2  0
  8 19  1  0
 19 20  2  0
  2 21  1  0
 21 22  2  0
 22 23  1  0
 23 24  2  0
 24 25  1  0
 25 26  1  0
 25 27  2  0
 27 28  1  0
 24 29  1  0
 29 30  2  0
 20  5  1  0
 30 21  1  0
 14  9  1  0
  1 31  1  0
  1 32  1  0
  1 33  1  0
  6 34  1  0
  7 35  1  0
 10 36  1  0
 11 37  1  0
 12 38  1  0
 13 39  1  0
 16 40  1  0
 16 41  1  0
 19 42  1  0
 20 43  1  0
 23 44  1  0
 26 45  1  0
 28 46  1  0
 29 47  1  0
M  END
>  <smiles>  (70) 
CN(C(=O)c1ccc(-c2ccccc2S(N)(=O)=O)cc1)c1ncc(C(O)=NO)cn1

>  <score_type>  (70) 
oracle

>  <origin>  (70) 
adg

>  <m_score__min__energy>  (70) 
-9.75

>  <m_primary>  (70) 
energy

$$$$
70:0
     RDKit          3D

 53 56  0  0  0  0  0  0  0  0999 V2000
   56.5780   21.6180   44.1260 C   0  0  0  0  0  0  0  0  0  0  0  0
   56.5130   23.0170   44.6630 C   0  0  0  0  0  0  0  0  0  0  0  0
   55.3090   23.5240   45.1740 C   0  0  0  0  0  0  0  0  0  0  0  0
   55.2380   24.8400   45.6420 C   0  0  0  0  0  0  0  0  0  0  0  0
   56.3760   25.6650   45.6060 C   0  0  0  0  0  0  0  0  0  0  0  0
   56.3320   27.0270   46.0540 N   0  0  0  0  0  0  0  0  0  0  0  0
   56.9450   28.1460   45.4020 C   0  0  0  0  0  0  0  0  0  0  0  0
   58.2010   28.2060   45.3520 O   0  0  0  0  0  0  0  0  0  0  0  0
   56.1490   29.2340   44.9050 N   0  0  0  0  0  0  0  0  0  0  0  0
   56.6690   30.2840   44.0680 C   0  0  0  0  0  0  0  0  0  0  0  0
   56.5090   30.2380   42.6720 C   0  0  0  0  0  0  0  0  0  0  0  0
   57.0210   31.2580   41.8650 C   0  0  0  0  0  0  0  0  0  0  0  0
   57.6940   32.3400   42.4360 C   0  0  0  0  0  0  0  0  0  0  0  0
   57.8480   32.4120   43.8270 C   0  0  0  0  0  0  0  0  0  0  0  0
   58.5260   33.4810   44.4270 C   0  0  0  0  0  0  0  0  0  0  0  0
   58.6770   33.5190   45.8150 C   0  0  0  0  0  0  0  0  0  0  0  0
   58.1370   32.4890   46.5980 C   0  0  0  0  0  0  0  0  0  0  0  0
   58.3030   32.4880   48.0980 C   0  0  0  0  0  0  0  0  0  0  0  0
   59.6960   32.2390   48.5260 N   0  0  0  0  0  0  0  0  0  0  0  0
   60.4680   31.3510   47.6210 C   0  0  0  0  0  0  0  0  0  0  0  0
   61.9340   31.7690   47.4700 C   0  0  0  0  0  0  0  0  0  0  0  0
   62.0180   33.2360   47.0510 C   0  0  0  0  0  0  0  0  0  0  0  0
   61.2410   34.1690   47.9980 C   0  0  0  0  0  0  0  0  0  0  0  0
   60.4060   33.4240   49.0600 C   0  0  0  0  0  0  0  0  0  0  0  0
   57.4750   31.4660   45.9960 N   0  0  0  0  0  0  0  0  0  0  0  0
   57.3200   31.3900   44.6460 C   0  0  0  0  0  0  0  0  0  0  0  0
   57.5640   25.1720   45.0540 C   0  0  0  0  0  0  0  0  0  0  0  0
   57.6350   23.8560   44.5880 C   0  0  0  0  0  0  0  0  0  0  0  0
   56.6111   20.9051   44.9631 H   0  0  0  0  0  0  0  0  0  0  0  0
   55.6881   21.4198   43.5106 H   0  0  0  0  0  0  0  0  0  0  0  0
   57.4824   21.5031   43.5106 H   0  0  0  0  0  0  0  0  0  0  0  0
   54.4157   22.8829   45.2068 H   0  0  0  0  0  0  0  0  0  0  0  0
   54.2895   25.2306   46.0392 H   0  0  0  0  0  0  0  0  0  0  0  0
   55.1780   29.3330   45.2790 H   0  0  0  0  0  0  0  0  0  0  0  0
   55.9768   29.3928   42.2112 H   0  0  0  0  0  0  0  0  0  0  0  0
   56.8930   31.2080   40.7736 H   0  0  0  0  0  0  0  0  0  0  0  0
   58.1028   33.1348   41.7948 H   0  0  0  0  0  0  0  0  0  0  0  0
   58.9389   34.2894   43.8058 H   0  0  0  0  0  0  0  0  0  0  0  0
   59.2160   34.3516   46.2907 H   0  0  0  0  0  0  0  0  0  0  0  0
   57.9871   33.4676   48.4861 H   0  0  0  0  0  0  0  0  0  0  0  0
   57.6856   31.6693   48.4963 H   0  0  0  0  0  0  0  0  0  0  0  0
   60.4361   30.3281   48.0243 H   0  0  0  0  0  0  0  0  0  0  0  0
   60.0053   31.4177   46.6253 H   0  0  0  0  0  0  0  0  0  0  0  0
   62.4521   31.6343   48.4309 H   0  0  0  0  0  0  0  0  0  0  0  0
   62.4100   31.1452   46.6991 H   0  0  0  0  0  0  0  0  0  0  0  0
   63.0750   33.5406   47.0456 H   0  0  0  0  0  0  0  0  0  0  0  0
   61.5649   33.3232   46.0525 H   0  0  0  0  0  0  0  0  0  0  0  0
   61.9634   34.8165   48.5165 H   0  0  0  0  0  0  0  0  0  0  0  0
   60.5343   34.7391   47.3771 H   0  0  0  0  0  0  0  0  0  0  0  0
   61.0798   33.0935   49.8642 H   0  0  0  0  0  0  0  0  0  0  0  0
   59.6398   34.1258   49.4211 H   0  0  0  0  0  0  0  0  0  0  0  0
   58.4472   25.8242   44.9865 H   0  0  0  0  0  0  0  0  0  0  0  0
   58.5748   23.4765   44.1606 H   0  0  0  0  0  0  0  0  0  0  0  0
  1  2  1  0
  2  3  2  0
  3  4  1  0
  4  5  2  0
  5  6  1  0
  6  7  1  0
  7  8  2  0
  7  9  1  0
  9 10  1  0
 10 11  2  0
 11 12  1  0
 12 13  2  0
 13 14  1  0
 14 15  2  0
 15 16  1  0
 16 17  2  0
 17 18  1  0
 18 19  1  0
 19 20  1  0
 20 21  1  0
 21 22  1  0
 22 23  1  0
 23 24  1  0
 17 25  1  0
 25 26  2  0
  5 27  1  0
 27 28  2  0
 28  2  1  0
 26 10  1  0
 26 14  1  0
 24 19  1  0
  1 29  1  0
  1 30  1  0
  1 31  1  0
  3 32  1  0
  4 33  1  0
  9 34  1  0
 11 35  1  0
 12 36  1  0
 13 37  1  0
 15 38  1  0
 16 39  1  0
 18 40  1  0
 18 41  1  0
 20 42  1  0
 20 43  1  0
 21 44  1  0
 21 45  1  0
 22 46  1  0
 22 47  1  0
 23 48  1  0
 23 49  1  0
 24 50  1  0
 24 51  1  0
 27 52  1  0
 28 53  1  0
M  CHG  1   6  -1
M  END
>  <UniqueID>  (71) 
65

>  <SMILES>  (71) 
Cc1ccc([N-]C(=O)Nc2cccc3ccc(CN4CCCCC4)nc23)cc1

>  <Energy>  (71) 
74.61315539699594

>  <Genealogy>  (71) 
Cc1ccc([N-]C(=O)Nc2cccc3ccc(CN4CCCCC4)nc23)cc1 (protonated)
Cc1ccc([N-]C(=O)Nc2cccc3ccc(CN4CCCCC4)nc23)cc1 (3D coordinates assigned)
Cc1ccc([N-]C(=O)Nc2cccc3ccc(CN4CCCCC4)nc23)cc1 (nonaromatic ring conformer: 74.61315539699594 kcal/mol)

>  <smiles>  (71) 
Cc1ccc(NC(=O)Nc2cccc3ccc(CN4CCCCC4)nc23)cc1

>  <score_type>  (71) 
oracle

>  <origin>  (71) 
adg

>  <m_score__min__energy>  (71) 
-11.06

>  <m_primary>  (71) 
energy

$$$$
71:0
     RDKit          3D

 55 59  0  0  1  0  0  0  0  0999 V2000
   57.6560   24.1330   46.0540 C   0  0  0  0  0  0  0  0  0  0  0  0
   57.7810   25.6070   46.1950 C   0  0  0  0  0  0  0  0  0  0  0  0
   58.7170   26.1120   47.0200 N   0  0  0  0  0  0  0  0  0  0  0  0
   58.8790   27.4350   47.1920 C   0  0  0  0  0  0  0  0  0  0  0  0
   59.6830   28.2380   47.9070 N   0  0  0  0  0  0  0  0  0  0  0  0
   59.3600   29.5440   47.6570 C   0  0  0  0  0  0  0  0  0  0  0  0
   60.0440   30.7060   48.2770 C   0  0  0  0  0  0  0  0  0  0  0  0
   59.5470   31.1990   49.5200 C   0  0  0  0  0  0  0  0  0  0  0  0
   60.6210   32.5790   49.9290 S   0  0  0  0  0  0  0  0  0  0  0  0
   61.6170   32.4010   48.4650 C   0  0  0  0  0  0  0  0  0  0  0  0
   62.9730   33.4260   48.0740 S   0  0  0  0  0  0  0  0  0  0  0  0
   64.4670   32.5670   48.3630 N   0  0  0  0  0  0  0  0  0  0  0  0
   62.9570   34.5660   49.0170 O   0  0  0  0  0  0  0  0  0  0  0  0
   62.9720   33.8400   46.6470 O   0  0  0  0  0  0  0  0  0  0  0  0
   61.0960   31.3600   47.7950 C   0  0  0  0  0  0  0  0  0  0  0  0
   58.3490   29.5510   46.7810 N   0  0  0  0  0  0  0  0  0  0  0  0
   58.0510   28.2800   46.4930 C   0  0  0  0  0  0  0  0  0  0  0  0
   57.0820   27.8020   45.6410 C   0  0  0  0  0  0  0  0  0  0  0  0
   56.3200   28.5880   44.9990 N   0  0  0  0  0  0  0  0  0  0  0  0
   56.6990   29.5670   44.1070 C   0  0  2  0  0  0  0  0  0  0  0  0
   56.3780   29.6010   42.6730 C   0  0  0  0  0  0  0  0  0  0  0  0
   56.6740   31.0820   42.3810 C   0  0  0  0  0  0  0  0  0  0  0  0
   57.2080   31.6800   43.5550 N   0  0  0  0  0  0  0  0  0  0  0  0
   58.1410   32.7370   43.3660 C   0  0  0  0  0  0  0  0  0  0  0  0
   58.4350   33.3730   44.6730 C   0  0  0  0  0  0  0  0  0  0  0  0
   57.6850   33.1800   45.8100 C   0  0  0  0  0  0  0  0  0  0  0  0
   57.9780   33.7910   47.0210 C   0  0  0  0  0  0  0  0  0  0  0  0
   59.0630   34.6320   47.1170 C   0  0  0  0  0  0  0  0  0  0  0  0
   59.8220   34.8420   46.0100 C   0  0  0  0  0  0  0  0  0  0  0  0
   59.5270   34.2300   44.7990 C   0  0  0  0  0  0  0  0  0  0  0  0
   57.7460   30.5810   44.3850 C   0  0  0  0  0  0  0  0  0  0  0  0
   56.9740   26.4470   45.5160 N   0  0  0  0  0  0  0  0  0  0  0  0
   57.6168   23.6712   47.0516 H   0  0  0  0  0  0  0  0  0  0  0  0
   56.7344   23.8942   45.5030 H   0  0  0  0  0  0  0  0  0  0  0  0
   58.5242   23.7424   45.5030 H   0  0  0  0  0  0  0  0  0  0  0  0
   60.4340   27.8780   48.5490 H   0  0  0  0  0  0  0  0  0  0  0  0
   58.6938   30.8178   50.1002 H   0  0  0  0  0  0  0  0  0  0  0  0
   64.4920   31.6810   47.8480 H   0  0  0  0  0  0  0  0  0  0  0  0
   65.2750   33.2000   48.2340 H   0  0  0  0  0  0  0  0  0  0  0  0
   61.5433   31.0463   46.8402 H   0  0  0  0  0  0  0  0  0  0  0  0
   55.7825   29.5849   44.7150 H   0  0  0  0  0  0  0  0  0  0  0  0
   57.0274   28.9304   42.0912 H   0  0  0  0  0  0  0  0  0  0  0  0
   55.3630   29.2665   42.4126 H   0  0  0  0  0  0  0  0  0  0  0  0
   57.4038   31.1591   41.5615 H   0  0  0  0  0  0  0  0  0  0  0  0
   55.7487   31.5980   42.0852 H   0  0  0  0  0  0  0  0  0  0  0  0
   59.0701   32.3342   42.9365 H   0  0  0  0  0  0  0  0  0  0  0  0
   57.7157   33.4848   42.6805 H   0  0  0  0  0  0  0  0  0  0  0  0
   56.8135   32.5110   45.7568 H   0  0  0  0  0  0  0  0  0  0  0  0
   57.3452   33.6037   47.9011 H   0  0  0  0  0  0  0  0  0  0  0  0
   59.3104   35.1236   48.0694 H   0  0  0  0  0  0  0  0  0  0  0  0
   60.6912   35.5130   46.0746 H   0  0  0  0  0  0  0  0  0  0  0  0
   60.1656   34.4247   43.9248 H   0  0  0  0  0  0  0  0  0  0  0  0
   58.7404   30.2542   44.0469 H   0  0  0  0  0  0  0  0  0  0  0  0
   57.9122   30.8193   45.4459 H   0  0  0  0  0  0  0  0  0  0  0  0
   56.2500   26.0500   44.8780 H   0  0  0  0  0  0  0  0  0  0  0  0
  1  2  1  0
  2  3  2  0
  3  4  1  0
  4  5  1  0
  5  6  1  0
  6  7  1  0
  7  8  2  0
  8  9  1  0
  9 10  1  0
 10 11  1  0
 11 12  1  0
 11 13  2  0
 11 14  2  0
 10 15  2  0
  6 16  2  0
 16 17  1  0
 17 18  1  0
 18 19  2  0
 19 20  1  0
 20 21  1  0
 21 22  1  0
 22 23  1  0
 23 24  1  0
 24 25  1  0
 25 26  2  0
 26 27  1  0
 27 28  2  0
 28 29  1  0
 29 30  2  0
 23 31  1  0
 18 32  1  0
 32  2  1  0
 17  4  2  0
 31 20  1  0
 15  7  1  0
 30 25  1  0
  1 33  1  0
  1 34  1  0
  1 35  1  0
  5 36  1  0
  8 37  1  0
 12 38  1  0
 12 39  1  0
 15 40  1  0
 20 41  1  1
 21 42  1  0
 21 43  1  0
 22 44  1  0
 22 45  1  0
 24 46  1  0
 24 47  1  0
 26 48  1  0
 27 49  1  0
 28 50  1  0
 29 51  1  0
 30 52  1  0
 31 53  1  0
 31 54  1  0
 32 55  1  0
M  END
>  <smiles>  (72) 
Cc1nc2[nH]c(-c3csc(S(N)(=O)=O)c3)nc2c(=NC2CCN(Cc3ccccc3)C2)[nH]1

>  <score_type>  (72) 
oracle

>  <origin>  (72) 
adg

>  <m_score__min__energy>  (72) 
-10.220000000000001

>  <m_primary>  (72) 
energy

$$$$
72:0
     RDKit          3D

 30 32  0  0  0  0  0  0  0  0999 V2000
   57.9980   25.0420   45.7160 C   0  0  0  0  0  0  0  0  0  0  0  0
   58.2270   26.5170   45.6310 C   0  0  0  0  0  0  0  0  0  0  0  0
   59.4620   27.0630   45.9300 C   0  0  0  0  0  0  0  0  0  0  0  0
   59.6120   28.4500   45.8320 C   0  0  0  0  0  0  0  0  0  0  0  0
   58.5550   29.2470   45.4480 C   0  0  0  0  0  0  0  0  0  0  0  0
   58.6840   30.5930   45.3490 N   0  0  0  0  0  0  0  0  0  0  0  0
   57.6320   31.3680   44.9690 C   0  0  0  0  0  0  0  0  0  0  0  0
   57.7380   32.7830   44.8550 N   0  0  0  0  0  0  0  0  0  0  0  0
   58.5230   33.5180   45.5540 C   0  0  0  0  0  0  0  0  0  0  0  0
   59.0980   32.9140   46.6340 N   0  0  0  0  0  0  0  0  0  0  0  0
   59.9450   33.6280   47.4270 C   0  0  0  0  0  0  0  0  0  0  0  0
   60.2060   34.9470   47.1250 C   0  0  0  0  0  0  0  0  0  0  0  0
   59.6210   35.5650   46.0240 C   0  0  0  0  0  0  0  0  0  0  0  0
   58.7830   34.8160   45.2580 N   0  0  0  0  0  0  0  0  0  0  0  0
   56.4770   30.7530   44.7000 N   0  0  0  0  0  0  0  0  0  0  0  0
   56.2940   29.4310   44.7820 C   0  0  0  0  0  0  0  0  0  0  0  0
   55.1420   28.9980   44.4950 O   0  0  0  0  0  0  0  0  0  0  0  0
   57.3410   28.6460   45.1610 C   0  0  0  0  0  0  0  0  0  0  0  0
   57.1450   27.2800   45.2450 C   0  0  0  0  0  0  0  0  0  0  0  0
   57.9509   24.7385   46.7723 H   0  0  0  0  0  0  0  0  0  0  0  0
   57.0498   24.7889   45.2191 H   0  0  0  0  0  0  0  0  0  0  0  0
   58.8248   24.5133   45.2191 H   0  0  0  0  0  0  0  0  0  0  0  0
   60.3032   26.4239   46.2365 H   0  0  0  0  0  0  0  0  0  0  0  0
   60.5840   28.9099   46.0639 H   0  0  0  0  0  0  0  0  0  0  0  0
   59.6090   31.0400   45.5680 H   0  0  0  0  0  0  0  0  0  0  0  0
   60.4167   33.1555   48.3012 H   0  0  0  0  0  0  0  0  0  0  0  0
   60.8898   35.5223   47.7665 H   0  0  0  0  0  0  0  0  0  0  0  0
   59.8282   36.6180   45.7826 H   0  0  0  0  0  0  0  0  0  0  0  0
   58.3220   35.2450   44.4200 H   0  0  0  0  0  0  0  0  0  0  0  0
   56.1713   26.8230   45.0147 H   0  0  0  0  0  0  0  0  0  0  0  0
  1  2  1  0
  2  3  2  0
  3  4  1  0
  4  5  2  0
  5  6  1  0
  6  7  1  0
  7  8  1  0
  8  9  2  3
  9 10  1  0
 10 11  2  0
 11 12  1  0
 12 13  2  0
 13 14  1  0
  7 15  2  0
 15 16  1  0
 16 17  2  0
 16 18  1  0
 18 19  2  0
 19  2  1  0
 18  5  1  0
 14  9  1  0
  1 20  1  0
  1 21  1  0
  1 22  1  0
  3 23  1  0
  4 24  1  0
  6 25  1  0
 11 26  1  0
 12 27  1  0
 13 28  1  0
 14 29  1  0
 19 30  1  0
M  END
>  <smiles>  (73) 
Cc1ccc2[nH]c(N=c3nccc[nH]3)nc(=O)c2c1

>  <score_type>  (73) 
oracle

>  <origin>  (73) 
adg

>  <m_score__min__energy>  (73) 
-6.4199999999999999

>  <m_primary>  (73) 
energy

$$$$
73:0
     RDKit          3D

 58 62  0  0  0  0  0  0  0  0999 V2000
   58.3840   21.9660   44.3900 C   0  0  0  0  0  0  0  0  0  0  0  0
   57.0770   21.2940   43.9730 C   0  0  0  0  0  0  0  0  0  0  0  0
   56.3140   22.1620   43.1330 O   0  0  0  0  0  0  0  0  0  0  0  0
   55.6100   23.2820   43.6080 C   0  0  0  0  0  0  0  0  0  0  0  0
   54.3550   23.3340   43.4800 O   0  0  0  0  0  0  0  0  0  0  0  0
   56.3230   24.3730   44.2280 N   0  0  0  0  0  0  0  0  0  0  0  0
   55.8940   24.8590   45.5580 C   0  0  0  0  0  0  0  0  0  0  0  0
   57.0620   25.4590   46.3500 C   0  0  0  0  0  0  0  0  0  0  0  0
   57.7970   26.4580   45.5040 C   0  0  0  0  0  0  0  0  0  0  0  0
   57.8710   26.2930   44.1260 C   0  0  0  0  0  0  0  0  0  0  0  0
   58.7970   27.5260   43.4360 S   0  0  0  0  0  0  0  0  0  0  0  0
   59.1080   28.2700   44.9040 C   0  0  0  0  0  0  0  0  0  0  0  0
   59.8340   29.3910   45.0940 N   0  0  0  0  0  0  0  0  0  0  0  0
   59.9970   29.8810   46.3530 C   0  0  0  0  0  0  0  0  0  0  0  0
   60.9920   31.3690   46.5450 S   0  0  0  0  0  0  0  0  0  0  0  0
   59.6090   32.4520   46.1630 C   0  0  0  0  0  0  0  0  0  0  0  0
   58.5260   31.9340   45.5320 N   0  0  0  0  0  0  0  0  0  0  0  0
   57.4420   32.6950   45.2310 C   0  0  0  0  0  0  0  0  0  0  0  0
   57.4140   34.0470   45.5780 C   0  0  0  0  0  0  0  0  0  0  0  0
   58.5150   34.6080   46.2230 C   0  0  0  0  0  0  0  0  0  0  0  0
   59.6380   33.8160   46.5110 C   0  0  0  0  0  0  0  0  0  0  0  0
   60.7870   34.3510   47.1910 N   0  0  0  0  0  0  0  0  0  0  0  0
   61.1270   34.0840   48.5540 C   0  0  0  0  0  0  0  0  0  0  0  0
   60.2510   34.2340   49.4450 O   0  0  0  0  0  0  0  0  0  0  0  0
   62.4970   33.6010   48.9180 C   0  0  0  0  0  0  0  0  0  0  0  0
   63.0730   34.4730   49.8240 F   0  0  0  0  0  0  0  0  0  0  0  0
   62.4190   32.3410   49.4850 F   0  0  0  0  0  0  0  0  0  0  0  0
   63.2960   33.5360   47.7890 F   0  0  0  0  0  0  0  0  0  0  0  0
   59.4280   29.2360   47.4320 N   0  0  0  0  0  0  0  0  0  0  0  0
   59.5910   29.7620   48.7640 C   0  0  0  0  0  0  0  0  0  0  0  0
   60.4310   29.1120   49.6830 C   0  0  0  0  0  0  0  0  0  0  0  0
   60.6050   29.6340   50.9690 C   0  0  0  0  0  0  0  0  0  0  0  0
   59.9350   30.8010   51.3480 C   0  0  0  0  0  0  0  0  0  0  0  0
   60.1120   31.3150   52.5900 F   0  0  0  0  0  0  0  0  0  0  0  0
   59.0840   31.4460   50.4430 C   0  0  0  0  0  0  0  0  0  0  0  0
   58.9090   30.9250   49.1560 C   0  0  0  0  0  0  0  0  0  0  0  0
   58.7010   28.0810   47.2460 C   0  0  0  0  0  0  0  0  0  0  0  0
   58.2020   27.4790   48.2330 O   0  0  0  0  0  0  0  0  0  0  0  0
   58.5200   27.5850   45.9470 C   0  0  0  0  0  0  0  0  0  0  0  0
   57.2300   25.1660   43.3770 C   0  0  0  0  0  0  0  0  0  0  0  0
   58.4459   21.9978   45.4878 H   0  0  0  0  0  0  0  0  0  0  0  0
   59.2343   21.3933   43.9912 H   0  0  0  0  0  0  0  0  0  0  0  0
   58.4129   22.9908   43.9912 H   0  0  0  0  0  0  0  0  0  0  0  0
   57.3049   20.3680   43.4248 H   0  0  0  0  0  0  0  0  0  0  0  0
   56.4905   21.0659   44.8752 H   0  0  0  0  0  0  0  0  0  0  0  0
   55.1219   25.6308   45.4229 H   0  0  0  0  0  0  0  0  0  0  0  0
   55.5018   24.0017   46.1247 H   0  0  0  0  0  0  0  0  0  0  0  0
   56.6734   25.9592   47.2494 H   0  0  0  0  0  0  0  0  0  0  0  0
   57.7530   24.6537   46.6399 H   0  0  0  0  0  0  0  0  0  0  0  0
   56.5831   32.2445   44.7120 H   0  0  0  0  0  0  0  0  0  0  0  0
   56.5328   34.6628   45.3450 H   0  0  0  0  0  0  0  0  0  0  0  0
   58.5040   35.6708   46.5063 H   0  0  0  0  0  0  0  0  0  0  0  0
   60.9537   28.1894   49.3905 H   0  0  0  0  0  0  0  0  0  0  0  0
   61.2698   29.1257   51.6829 H   0  0  0  0  0  0  0  0  0  0  0  0
   58.5533   32.3616   50.7431 H   0  0  0  0  0  0  0  0  0  0  0  0
   58.2342   31.4288   48.4484 H   0  0  0  0  0  0  0  0  0  0  0  0
   56.6539   25.5817   42.5372 H   0  0  0  0  0  0  0  0  0  0  0  0
   58.0298   24.4985   43.0239 H   0  0  0  0  0  0  0  0  0  0  0  0
  1  2  1  0
  2  3  1  0
  3  4  1  0
  4  5  2  0
  4  6  1  0
  6  7  1  0
  7  8  1  0
  8  9  1  0
  9 10  2  0
 10 11  1  0
 11 12  1  0
 12 13  1  0
 13 14  2  0
 14 15  1  0
 15 16  1  0
 16 17  2  0
 17 18  1  0
 18 19  2  0
 19 20  1  0
 20 21  2  0
 21 22  1  0
 22 23  1  0
 23 24  2  0
 23 25  1  0
 25 26  1  0
 25 27  1  0
 25 28  1  0
 14 29  1  0
 29 30  1  0
 30 31  2  0
 31 32  1  0
 32 33  2  0
 33 34  1  0
 33 35  1  0
 35 36  2  0
 29 37  1  0
 37 38  2  0
 37 39  1  0
 10 40  1  0
 40  6  1  0
 39  9  1  0
 39 12  2  0
 21 16  1  0
 36 30  1  0
  1 41  1  0
  1 42  1  0
  1 43  1  0
  2 44  1  0
  2 45  1  0
  7 46  1  0
  7 47  1  0
  8 48  1  0
  8 49  1  0
 18 50  1  0
 19 51  1  0
 20 52  1  0
 31 53  1  0
 32 54  1  0
 35 55  1  0
 36 56  1  0
 40 57  1  0
 40 58  1  0
M  CHG  1  22  -1
M  END
>  <UniqueID>  (74) 
66

>  <SMILES>  (74) 
CCOC(=O)N1CCc2c(sc3nc(Sc4ncccc4[N-]C(=O)C(F)(F)F)n(-c4ccc(F)cc4)c(=O)c23)C1

>  <Energy>  (74) 
110.14180594983293

>  <Genealogy>  (74) 
CCOC(=O)N1CCc2c(sc3nc(Sc4ncccc4[N-]C(=O)C(F)(F)F)n(-c4ccc(F)cc4)c(=O)c23)C1 (protonated)
CCOC(=O)N1CCc2c(sc3nc(Sc4ncccc4[N-]C(=O)C(F)(F)F)n(-c4ccc(F)cc4)c(=O)c23)C1 (3D coordinates assigned)
CCOC(=O)N1CCc2c(sc3nc(Sc4ncccc4[N-]C(=O)C(F)(F)F)n(-c4ccc(F)cc4)c(=O)c23)C1 (nonaromatic ring conformer: 110.14180594983293 kcal/mol)

>  <smiles>  (74) 
CCOC(=O)N1CCc2c(sc3nc(Sc4ncccc4NC(=O)C(F)(F)F)n(-c4ccc(F)cc4)c(=O)c23)C1

>  <score_type>  (74) 
oracle

>  <origin>  (74) 
adg

>  <m_score__min__energy>  (74) 
-8.9199999999999999

>  <m_primary>  (74) 
energy

$$$$
74:0
     RDKit          3D

 22 23  0  0  0  0  0  0  0  0999 V2000
   57.3580   24.8950   44.5220 C   0  0  0  0  0  0  0  0  0  0  0  0
   56.6580   25.6500   45.9730 S   0  0  0  0  0  0  0  0  0  0  0  0
   55.1730   25.4160   45.9830 O   0  0  0  0  0  0  0  0  0  0  0  0
   57.2590   25.0420   47.2070 O   0  0  0  0  0  0  0  0  0  0  0  0
   56.9840   27.3740   45.9520 C   0  0  0  0  0  0  0  0  0  0  0  0
   58.1020   27.8180   46.4420 N   0  0  0  0  0  0  0  0  0  0  0  0
   58.4440   29.5490   46.6230 S   0  0  0  0  0  0  0  0  0  0  0  0
   57.8120   29.9820   45.0030 C   0  0  0  0  0  0  0  0  0  0  0  0
   58.4360   30.9740   44.2380 C   0  0  0  0  0  0  0  0  0  0  0  0
   57.8480   31.4030   43.0440 C   0  0  0  0  0  0  0  0  0  0  0  0
   56.6390   30.8460   42.6180 C   0  0  0  0  0  0  0  0  0  0  0  0
   56.0250   29.8400   43.3700 C   0  0  0  0  0  0  0  0  0  0  0  0
   56.6190   29.3930   44.5610 C   0  0  0  0  0  0  0  0  0  0  0  0
   56.0910   28.2540   45.2530 N   0  0  0  0  0  0  0  0  0  0  0  0
   58.0773   24.1192   44.8231 H   0  0  0  0  0  0  0  0  0  0  0  0
   56.5561   24.4389   43.9229 H   0  0  0  0  0  0  0  0  0  0  0  0
   57.8734   25.6602   43.9229 H   0  0  0  0  0  0  0  0  0  0  0  0
   59.3859   31.4148   44.5749 H   0  0  0  0  0  0  0  0  0  0  0  0
   58.3378   32.1802   42.4390 H   0  0  0  0  0  0  0  0  0  0  0  0
   56.1693   31.2001   41.6885 H   0  0  0  0  0  0  0  0  0  0  0  0
   55.0769   29.3989   43.0287 H   0  0  0  0  0  0  0  0  0  0  0  0
   55.1420   27.8980   44.9960 H   0  0  0  0  0  0  0  0  0  0  0  0
  1  2  1  0
  2  3  2  0
  2  4  2  0
  2  5  1  0
  5  6  2  0
  6  7  1  0
  7  8  1  0
  8  9  2  0
  9 10  1  0
 10 11  2  0
 11 12  1  0
 12 13  2  0
 13 14  1  0
 14  5  1  0
 13  8  1  0
  1 15  1  0
  1 16  1  0
  1 17  1  0
  9 18  1  0
 10 19  1  0
 11 20  1  0
 12 21  1  0
 14 22  1  0
M  END
>  <UniqueID>  (75) 
67

>  <SMILES>  (75) 
CS(=O)(=O)C1=NSc2ccccc2N1

>  <Energy>  (75) 
32.79169357552087

>  <Genealogy>  (75) 
CS(=O)(=O)C1=NSc2ccccc2N1 (3D coordinates assigned)
CS(=O)(=O)C1=NSc2ccccc2N1 (nonaromatic ring conformer: 32.79169357552087 kcal/mol)

>  <smiles>  (75) 
CS(=O)(=O)C1=NSc2ccccc2N1

>  <score_type>  (75) 
oracle

>  <origin>  (75) 
adg

>  <m_score__min__energy>  (75) 
-6.8300000000000001

>  <m_primary>  (75) 
energy

$$$$
75:0
     RDKit          3D

 21 21  0  0  0  0  0  0  0  0999 V2000
   55.8940   28.3210   45.2480 O   0  0  0  0  0  0  0  0  0  0  0  0
   56.0670   27.1410   45.6530 C   0  0  0  0  0  0  0  0  0  0  0  0
   54.9720   26.3780   46.0370 O   0  0  0  0  0  0  0  0  0  0  0  0
   57.4410   26.5460   45.6750 C   0  0  0  0  0  0  0  0  0  0  0  0
   57.7300   25.7390   44.4040 C   0  0  0  0  0  0  0  0  0  0  0  0
   57.3980   24.2780   44.5810 C   0  0  0  0  0  0  0  0  0  0  0  0
   57.7200   23.6160   45.7780 C   0  0  0  0  0  0  0  0  0  0  0  0
   57.4380   22.2550   45.9290 C   0  0  0  0  0  0  0  0  0  0  0  0
   57.7590   21.6150   47.1210 O   0  0  0  0  0  0  0  0  0  0  0  0
   56.8370   21.5390   44.8860 C   0  0  0  0  0  0  0  0  0  0  0  0
   56.5630   20.1810   45.0570 O   0  0  0  0  0  0  0  0  0  0  0  0
   56.5210   22.1940   43.6840 C   0  0  0  0  0  0  0  0  0  0  0  0
   55.9290   21.4990   42.6360 O   0  0  0  0  0  0  0  0  0  0  0  0
   56.8050   23.5560   43.5340 C   0  0  0  0  0  0  0  0  0  0  0  0
   58.1794   27.3571   45.7578 H   0  0  0  0  0  0  0  0  0  0  0  0
   57.5057   25.8644   46.5360 H   0  0  0  0  0  0  0  0  0  0  0  0
   57.1251   26.1443   43.5795 H   0  0  0  0  0  0  0  0  0  0  0  0
   58.8045   25.8214   44.1833 H   0  0  0  0  0  0  0  0  0  0  0  0
   58.1960   24.1711   46.5998 H   0  0  0  0  0  0  0  0  0  0  0  0
   57.0170   19.4670   44.5010 H   0  0  0  0  0  0  0  0  0  0  0  0
   56.5618   24.0640   42.5891 H   0  0  0  0  0  0  0  0  0  0  0  0
  1  2  2  0
  2  3  1  0
  2  4  1  0
  4  5  1  0
  5  6  1  0
  6  7  2  0
  7  8  1  0
  8  9  1  0
  8 10  2  0
 10 11  1  0
 10 12  1  0
 12 13  1  0
 12 14  2  0
 14  6  1  0
  4 15  1  0
  4 16  1  0
  5 17  1  0
  5 18  1  0
  7 19  1  0
 11 20  1  0
 14 21  1  0
M  CHG  3   3  -1   9  -1  13  -1
M  END
>  <UniqueID>  (76) 
68

>  <SMILES>  (76) 
O=C([O-])CCc1cc([O-])c(O)c([O-])c1

>  <Energy>  (76) 
16.483707523632454

>  <Genealogy>  (76) 
O=C([O-])CCc1cc([O-])c(O)c([O-])c1 (protonated)
O=C([O-])CCc1cc([O-])c(O)c([O-])c1 (3D coordinates assigned)
O=C([O-])CCc1cc([O-])c(O)c([O-])c1 (optimized conformer: 16.483707523632454 kcal/mol)

>  <smiles>  (76) 
O=C(O)CCc1cc(O)c(O)c(O)c1

>  <score_type>  (76) 
oracle

>  <origin>  (76) 
adg

>  <m_score__min__energy>  (76) 
-12.869999999999999

>  <m_primary>  (76) 
energy

$$$$
76:0
     RDKit          3D

 47 49  0  0  0  0  0  0  0  0999 V2000
   56.3320   29.9260   42.8750 C   0  0  0  0  0  0  0  0  0  0  0  0
   56.2130   29.8360   44.3650 C   0  0  0  0  0  0  0  0  0  0  0  0
   55.1650   29.3510   44.8650 O   0  0  0  0  0  0  0  0  0  0  0  0
   57.2390   30.3200   45.2430 N   0  0  0  0  0  0  0  0  0  0  0  0
   57.5950   31.6910   45.4690 C   0  0  0  0  0  0  0  0  0  0  0  0
   57.4150   32.6720   44.4790 C   0  0  0  0  0  0  0  0  0  0  0  0
   57.8180   33.9880   44.7140 C   0  0  0  0  0  0  0  0  0  0  0  0
   58.4110   34.3350   45.9300 C   0  0  0  0  0  0  0  0  0  0  0  0
   58.6020   33.3670   46.9270 C   0  0  0  0  0  0  0  0  0  0  0  0
   59.2450   33.7420   48.1570 N   0  0  0  0  0  0  0  0  0  0  0  0
   60.6590   33.6280   48.3910 C   0  0  0  0  0  0  0  0  0  0  0  0
   61.4060   33.0630   47.5490 O   0  0  0  0  0  0  0  0  0  0  0  0
   61.2620   34.1710   49.6540 C   0  0  0  0  0  0  0  0  0  0  0  0
   61.0440   33.2720   50.7410 O   0  0  0  0  0  0  0  0  0  0  0  0
   59.8140   32.6800   51.0720 C   0  0  0  0  0  0  0  0  0  0  0  0
   59.5520   31.3910   50.5960 C   0  0  0  0  0  0  0  0  0  0  0  0
   58.3430   30.7540   50.8890 C   0  0  0  0  0  0  0  0  0  0  0  0
   57.3680   31.3990   51.6720 C   0  0  0  0  0  0  0  0  0  0  0  0
   56.0820   30.7260   51.9830 C   0  0  0  0  0  0  0  0  0  0  0  0
   54.9060   31.4020   51.8680 N   0  0  0  0  0  0  0  0  0  0  0  0
   53.7170   30.8100   52.1470 C   0  0  0  0  0  0  0  0  0  0  0  0
   52.6510   31.4700   52.0220 O   0  0  0  0  0  0  0  0  0  0  0  0
   53.6840   29.4720   52.5700 C   0  0  0  0  0  0  0  0  0  0  0  0
   52.3840   28.7790   52.8710 C   0  0  0  0  0  0  0  0  0  0  0  0
   54.9010   28.7900   52.6740 C   0  0  0  0  0  0  0  0  0  0  0  0
   56.0650   29.4250   52.3840 N   0  0  0  0  0  0  0  0  0  0  0  0
   57.6350   32.6930   52.1530 C   0  0  0  0  0  0  0  0  0  0  0  0
   58.8450   33.3270   51.8590 C   0  0  0  0  0  0  0  0  0  0  0  0
   58.2160   32.0380   46.6760 C   0  0  0  0  0  0  0  0  0  0  0  0
   57.1842   30.5705   42.6135 H   0  0  0  0  0  0  0  0  0  0  0  0
   56.4914   28.9205   42.4585 H   0  0  0  0  0  0  0  0  0  0  0  0
   55.4078   30.3531   42.4585 H   0  0  0  0  0  0  0  0  0  0  0  0
   56.9555   32.4024   43.5166 H   0  0  0  0  0  0  0  0  0  0  0  0
   57.6680   34.7540   43.9389 H   0  0  0  0  0  0  0  0  0  0  0  0
   58.7299   35.3728   46.1068 H   0  0  0  0  0  0  0  0  0  0  0  0
   58.6360   34.0110   48.9620 H   0  0  0  0  0  0  0  0  0  0  0  0
   62.3438   34.3072   49.5088 H   0  0  0  0  0  0  0  0  0  0  0  0
   60.7857   35.1343   49.8891 H   0  0  0  0  0  0  0  0  0  0  0  0
   60.3056   30.8732   49.9845 H   0  0  0  0  0  0  0  0  0  0  0  0
   58.1523   29.7411   50.5047 H   0  0  0  0  0  0  0  0  0  0  0  0
   52.2502   28.7077   53.9605 H   0  0  0  0  0  0  0  0  0  0  0  0
   51.5529   29.3537   52.4364 H   0  0  0  0  0  0  0  0  0  0  0  0
   52.3979   27.7686   52.4364 H   0  0  0  0  0  0  0  0  0  0  0  0
   54.9146   27.7369   52.9915 H   0  0  0  0  0  0  0  0  0  0  0  0
   56.8838   33.2114   52.7669 H   0  0  0  0  0  0  0  0  0  0  0  0
   59.0406   34.3381   52.2455 H   0  0  0  0  0  0  0  0  0  0  0  0
   58.4035   31.2637   47.4345 H   0  0  0  0  0  0  0  0  0  0  0  0
  1  2  1  0
  2  3  2  0
  2  4  1  0
  4  5  1  0
  5  6  2  0
  6  7  1  0
  7  8  2  0
  8  9  1  0
  9 10  1  0
 10 11  1  0
 11 12  2  0
 11 13  1  0
 13 14  1  0
 14 15  1  0
 15 16  2  0
 16 17  1  0
 17 18  2  0
 18 19  1  0
 19 20  2  0
 20 21  1  0
 21 22  2  0
 21 23  1  0
 23 24  1  0
 23 25  2  0
 25 26  1  0
 18 27  1  0
 27 28  2  0
  9 29  2  0
 29  5  1  0
 28 15  1  0
 26 19  1  0
  1 30  1  0
  1 31  1  0
  1 32  1  0
  6 33  1  0
  7 34  1  0
  8 35  1  0
 10 36  1  0
 13 37  1  0
 13 38  1  0
 16 39  1  0
 17 40  1  0
 24 41  1  0
 24 42  1  0
 24 43  1  0
 25 44  1  0
 27 45  1  0
 28 46  1  0
 29 47  1  0
M  CHG  2   4  -1  26  -1
M  END
>  <UniqueID>  (77) 
69

>  <SMILES>  (77) 
CC(=O)[N-]c1cccc(NC(=O)COc2ccc(-c3nc(=O)c(C)c[n-]3)cc2)c1

>  <Energy>  (77) 
57.94154785005538

>  <Genealogy>  (77) 
CC(=O)[N-]c1cccc(NC(=O)COc2ccc(-c3nc(=O)c(C)c[n-]3)cc2)c1 (protonated)
CC(=O)[N-]c1cccc(NC(=O)COc2ccc(-c3nc(=O)c(C)c[n-]3)cc2)c1 (3D coordinates assigned)
CC(=O)[N-]c1cccc(NC(=O)COc2ccc(-c3nc(=O)c(C)c[n-]3)cc2)c1 (optimized conformer: 57.94154785005538 kcal/mol)

>  <smiles>  (77) 
CC(=O)Nc1cccc(NC(=O)COc2ccc(-c3nc(=O)c(C)c[nH]3)cc2)c1

>  <score_type>  (77) 
oracle

>  <origin>  (77) 
adg

>  <m_score__min__energy>  (77) 
-11.699999999999999

>  <m_primary>  (77) 
energy

$$$$
77:0
     RDKit          3D

 47 49  0  0  0  0  0  0  0  0999 V2000
   60.8490   26.7140   46.7280 C   0  0  0  0  0  0  0  0  0  0  0  0
   59.7690   27.5620   46.1250 C   0  0  0  0  0  0  0  0  0  0  0  0
   60.0570   28.4470   45.0740 C   0  0  0  0  0  0  0  0  0  0  0  0
   59.0400   29.2150   44.4990 C   0  0  0  0  0  0  0  0  0  0  0  0
   57.7210   29.0860   44.9490 C   0  0  0  0  0  0  0  0  0  0  0  0
   56.4180   30.0080   44.2070 S   0  0  0  0  0  0  0  0  0  0  0  0
   55.0880   29.3510   44.4460 O   0  0  0  0  0  0  0  0  0  0  0  0
   56.6500   30.0790   42.7230 O   0  0  0  0  0  0  0  0  0  0  0  0
   56.4040   31.6170   44.8520 N   0  0  0  0  0  0  0  0  0  0  0  0
   57.5390   32.3190   45.3750 C   0  0  0  0  0  0  0  0  0  0  0  0
   57.8160   33.6000   44.8860 C   0  0  0  0  0  0  0  0  0  0  0  0
   58.8880   34.3340   45.3970 C   0  0  0  0  0  0  0  0  0  0  0  0
   59.6890   33.8000   46.4060 C   0  0  0  0  0  0  0  0  0  0  0  0
   59.4250   32.5170   46.9170 C   0  0  0  0  0  0  0  0  0  0  0  0
   60.2440   31.9220   48.0060 C   0  0  0  0  0  0  0  0  0  0  0  0
   59.7260   31.0010   48.6940 O   0  0  0  0  0  0  0  0  0  0  0  0
   61.5900   32.3610   48.3270 N   0  0  0  0  0  0  0  0  0  0  0  0
   61.6290   33.7110   48.9310 C   0  0  0  0  0  0  0  0  0  0  0  0
   63.0300   34.0320   49.4920 C   0  0  0  0  0  0  0  0  0  0  0  0
   64.1570   33.3440   48.7020 C   0  0  0  0  0  0  0  0  0  0  0  0
   63.7520   33.1060   47.2450 C   0  0  0  0  0  0  0  0  0  0  0  0
   62.4820   32.2340   47.1460 C   0  0  0  0  0  0  0  0  0  0  0  0
   58.3590   31.7760   46.3800 C   0  0  0  0  0  0  0  0  0  0  0  0
   57.4280   28.1920   45.9860 C   0  0  0  0  0  0  0  0  0  0  0  0
   58.4460   27.4340   46.5710 C   0  0  0  0  0  0  0  0  0  0  0  0
   60.7851   26.7642   47.8250 H   0  0  0  0  0  0  0  0  0  0  0  0
   60.7224   25.6715   46.4006 H   0  0  0  0  0  0  0  0  0  0  0  0
   61.8317   27.0843   46.4006 H   0  0  0  0  0  0  0  0  0  0  0  0
   61.0879   28.5367   44.7010 H   0  0  0  0  0  0  0  0  0  0  0  0
   59.2771   29.9225   43.6908 H   0  0  0  0  0  0  0  0  0  0  0  0
   57.1857   34.0314   44.0944 H   0  0  0  0  0  0  0  0  0  0  0  0
   59.1018   35.3381   45.0020 H   0  0  0  0  0  0  0  0  0  0  0  0
   60.5312   34.3852   46.8039 H   0  0  0  0  0  0  0  0  0  0  0  0
   61.9450   31.6990   49.0590 H   0  0  0  0  0  0  0  0  0  0  0  0
   61.3711   34.4551   48.1630 H   0  0  0  0  0  0  0  0  0  0  0  0
   60.9067   33.7422   49.7600 H   0  0  0  0  0  0  0  0  0  0  0  0
   63.1848   35.1203   49.4509 H   0  0  0  0  0  0  0  0  0  0  0  0
   63.0693   33.6547   50.5245 H   0  0  0  0  0  0  0  0  0  0  0  0
   65.0520   33.9830   48.7250 H   0  0  0  0  0  0  0  0  0  0  0  0
   64.3618   32.3691   49.1684 H   0  0  0  0  0  0  0  0  0  0  0  0
   63.5576   34.0764   46.7650 H   0  0  0  0  0  0  0  0  0  0  0  0
   64.5740   32.5772   46.7403 H   0  0  0  0  0  0  0  0  0  0  0  0
   61.9201   32.5356   46.2497 H   0  0  0  0  0  0  0  0  0  0  0  0
   62.8094   31.1851   47.0956 H   0  0  0  0  0  0  0  0  0  0  0  0
   58.1635   30.7588   46.7502 H   0  0  0  0  0  0  0  0  0  0  0  0
   56.3925   28.0859   46.3416 H   0  0  0  0  0  0  0  0  0  0  0  0
   58.2081   26.7337   47.3852 H   0  0  0  0  0  0  0  0  0  0  0  0
  1  2  1  0
  2  3  2  0
  3  4  1  0
  4  5  2  0
  5  6  1  0
  6  7  2  0
  6  8  2  0
  6  9  1  0
  9 10  1  0
 10 11  2  0
 11 12  1  0
 12 13  2  0
 13 14  1  0
 14 15  1  0
 15 16  2  0
 15 17  1  0
 17 18  1  0
 18 19  1  0
 19 20  1  0
 20 21  1  0
 21 22  1  0
 14 23  2  0
  5 24  1  0
 24 25  2  0
 25  2  1  0
 23 10  1  0
 22 17  1  0
  1 26  1  0
  1 27  1  0
  1 28  1  0
  3 29  1  0
  4 30  1  0
 11 31  1  0
 12 32  1  0
 13 33  1  0
 17 34  1  0
 18 35  1  0
 18 36  1  0
 19 37  1  0
 19 38  1  0
 20 39  1  0
 20 40  1  0
 21 41  1  0
 21 42  1  0
 22 43  1  0
 22 44  1  0
 23 45  1  0
 24 46  1  0
 25 47  1  0
M  CHG  2   9  -1  17   1
M  END
>  <UniqueID>  (78) 
70

>  <SMILES>  (78) 
Cc1ccc(S(=O)(=O)[N-]c2cccc(C(=O)[NH+]3CCCCC3)c2)cc1

>  <Energy>  (78) 
64.75500204949961

>  <Genealogy>  (78) 
Cc1ccc(S(=O)(=O)[N-]c2cccc(C(=O)[NH+]3CCCCC3)c2)cc1 (protonated)
Cc1ccc(S(=O)(=O)[N-]c2cccc(C(=O)[NH+]3CCCCC3)c2)cc1 (3D coordinates assigned)
Cc1ccc(S(=O)(=O)[N-]c2cccc(C(=O)[NH+]3CCCCC3)c2)cc1 (nonaromatic ring conformer: 64.75500204949961 kcal/mol)

>  <smiles>  (78) 
Cc1ccc(S(=O)(=O)Nc2cccc(C(=O)N3CCCCC3)c2)cc1

>  <score_type>  (78) 
oracle

>  <origin>  (78) 
adg

>  <m_score__min__energy>  (78) 
-9.4000000000000004

>  <m_primary>  (78) 
energy

$$$$
78:0
     RDKit          3D

 39 41  0  0  0  0  0  0  0  0999 V2000
   54.4930   26.6920   46.4340 H   0  0  0  0  0  0  0  0  0  0  0  0
   56.3990   30.7220   44.4850 N   0  0  0  0  0  0  0  0  0  0  0  0
   56.7910   29.6180   45.0440 C   0  0  0  0  0  0  0  0  0  0  0  0
   58.0850   29.4510   45.4340 N   0  0  0  0  0  0  0  0  0  0  0  0
   58.4830   28.2930   46.0170 C   0  0  0  0  0  0  0  0  0  0  0  0
   59.7230   28.1530   46.3790 N   0  0  0  0  0  0  0  0  0  0  0  0
   60.7700   29.1540   46.1780 C   0  0  0  0  0  0  0  0  0  0  0  0
   61.7520   28.6884   46.3477 H   0  0  0  0  0  0  0  0  0  0  0  0
   60.7013   29.5358   45.1487 H   0  0  0  0  0  0  0  0  0  0  0  0
   60.5970   30.3040   47.1330 C   0  0  0  0  0  0  0  0  0  0  0  0
   61.4420   31.4250   47.0660 C   0  0  0  0  0  0  0  0  0  0  0  0
   62.2512   31.4575   46.3216 H   0  0  0  0  0  0  0  0  0  0  0  0
   61.2580   32.4990   47.9420 C   0  0  0  0  0  0  0  0  0  0  0  0
   61.9233   33.3732   47.8860 H   0  0  0  0  0  0  0  0  0  0  0  0
   60.2290   32.4640   48.8900 C   0  0  0  0  0  0  0  0  0  0  0  0
   59.9990   33.8130   49.9850 Cl  0  0  0  0  0  0  0  0  0  0  0  0
   59.3820   31.3530   48.9590 C   0  0  0  0  0  0  0  0  0  0  0  0
   58.5724   31.3256   49.7032 H   0  0  0  0  0  0  0  0  0  0  0  0
   59.5620   30.2770   48.0840 C   0  0  0  0  0  0  0  0  0  0  0  0
   58.8916   29.4067   48.1401 H   0  0  0  0  0  0  0  0  0  0  0  0
   57.5780   27.2950   46.2130 N   0  0  0  0  0  0  0  0  0  0  0  0
   56.2870   27.4550   45.8250 C   0  0  0  0  0  0  0  0  0  0  0  0
   55.4280   26.5060   46.0080 N   0  0  0  0  0  0  0  0  0  0  0  0
   57.2710   31.6030   43.7120 C   0  0  0  0  0  0  0  0  0  0  0  0
   58.0742   31.0109   43.2491 H   0  0  0  0  0  0  0  0  0  0  0  0
   56.6862   32.1024   42.9255 H   0  0  0  0  0  0  0  0  0  0  0  0
   57.8700   32.6340   44.6240 C   0  0  0  0  0  0  0  0  0  0  0  0
   58.8540   33.5150   44.1460 C   0  0  0  0  0  0  0  0  0  0  0  0
   59.2066   33.4315   43.1074 H   0  0  0  0  0  0  0  0  0  0  0  0
   59.3870   34.4980   44.9860 C   0  0  0  0  0  0  0  0  0  0  0  0
   60.1647   35.1787   44.6093 H   0  0  0  0  0  0  0  0  0  0  0  0
   58.9330   34.6180   46.3060 C   0  0  0  0  0  0  0  0  0  0  0  0
   59.4560   35.5930   47.1530 O   0  0  0  0  0  0  0  0  0  0  0  0
   58.8580   36.1400   47.7610 H   0  0  0  0  0  0  0  0  0  0  0  0
   57.9420   33.7520   46.7810 C   0  0  0  0  0  0  0  0  0  0  0  0
   57.5826   33.8452   47.8164 H   0  0  0  0  0  0  0  0  0  0  0  0
   57.4070   32.7680   45.9430 C   0  0  0  0  0  0  0  0  0  0  0  0
   56.6207   32.0967   46.3186 H   0  0  0  0  0  0  0  0  0  0  0  0
   55.8970   28.6170   45.2420 N   0  0  0  0  0  0  0  0  0  0  0  0
  1  2  1  0
  2  3  2  0
  3  4  1  0
  4  5  1  0
  5  6  2  3
  6  7  1  0
  7  8  1  0
  7  9  1  0
  7 10  1  0
 10 11  2  0
 11 12  1  0
 11 13  1  0
 13 14  1  0
 13 15  2  0
 15 16  1  0
 15 17  1  0
 17 18  1  0
 17 19  2  0
 19 20  1  0
  5 21  1  0
 21 22  1  0
 22 23  2  0
 23 24  1  0
 24 25  1  0
 24 26  1  0
 24 27  1  0
 27 28  2  0
 28 29  1  0
 28 30  1  0
 30 31  1  0
 30 32  2  0
 32 33  1  0
 33 34  1  0
 32 35  1  0
 35 36  1  0
 35 37  2  0
 37 38  1  0
 22 39  1  0
 39  3  1  0
 19 10  1  0
 37 27  1  0
M  CHG  3   4  -1  21  -1  39  -1
M  END
>  <UniqueID>  (79) 
71

>  <SMILES>  (79) 
[H]/N=c1\[n-]c(=NCc2ccc(Cl)cc2)[n-]/c(=N\Cc2ccc(O)cc2)[n-]1

>  <Energy>  (79) 
39.13387742183931

>  <Genealogy>  (79) 
N=c1[n-]c(=NCc2ccc(O)cc2)[n-]c(=NCc2ccc(Cl)cc2)[n-]1 (protonated)
[H]/N=c1\[n-]c(=NCc2ccc(Cl)cc2)[n-]/c(=N\Cc2ccc(O)cc2)[n-]1 (cis-trans isomerization)
[H]/N=c1\[n-]c(=NCc2ccc(Cl)cc2)[n-]/c(=N\Cc2ccc(O)cc2)[n-]1 (3D coordinates assigned)
[H]/N=c1\[n-]c(=NCc2ccc(Cl)cc2)[n-]/c(=N\Cc2ccc(O)cc2)[n-]1 (optimized conformer: 39.13387742183931 kcal/mol)

>  <smiles>  (79) 
N=c1[nH]c(=NCc2ccc(O)cc2)[nH]c(=NCc2ccc(Cl)cc2)[nH]1

>  <score_type>  (79) 
oracle

>  <origin>  (79) 
adg

>  <m_score__min__energy>  (79) 
-12.619999999999999

>  <m_primary>  (79) 
energy

$$$$
79:0
     RDKit          3D

 37 39  0  0  0  0  0  0  0  0999 V2000
   59.7220   35.6710   46.8390 O   0  0  0  0  0  0  0  0  0  0  0  0
   59.6300   34.6120   46.1610 C   0  0  0  0  0  0  0  0  0  0  0  0
   58.8250   34.6260   44.8970 C   0  0  0  0  0  0  0  0  0  0  0  0
   57.0660   34.2210   45.1810 S   0  0  0  0  0  0  0  0  0  0  0  0
   57.3050   32.4490   45.1000 C   0  0  0  0  0  0  0  0  0  0  0  0
   56.3180   31.5670   44.8620 N   0  0  0  0  0  0  0  0  0  0  0  0
   56.8840   30.3690   44.8720 N   0  0  0  0  0  0  0  0  0  0  0  0
   58.1910   30.5750   45.1200 C   0  0  0  0  0  0  0  0  0  0  0  0
   59.2140   29.4880   45.1900 C   0  0  0  0  0  0  0  0  0  0  0  0
   59.6560   29.2920   46.6130 C   0  0  0  0  0  0  0  0  0  0  0  0
   59.6380   30.3690   47.5160 C   0  0  0  0  0  0  0  0  0  0  0  0
   60.0160   30.1760   48.8490 C   0  0  0  0  0  0  0  0  0  0  0  0
   60.4060   28.9090   49.2900 C   0  0  0  0  0  0  0  0  0  0  0  0
   60.4140   27.8310   48.4010 C   0  0  0  0  0  0  0  0  0  0  0  0
   60.0370   28.0180   47.0680 C   0  0  0  0  0  0  0  0  0  0  0  0
   58.4600   31.8510   45.2550 O   0  0  0  0  0  0  0  0  0  0  0  0
   60.1860   33.4160   46.6310 O   0  0  0  0  0  0  0  0  0  0  0  0
   61.3500   33.3440   47.4070 C   0  0  0  0  0  0  0  0  0  0  0  0
   62.5770   33.1920   46.7500 C   0  0  0  0  0  0  0  0  0  0  0  0
   63.7670   33.1090   47.4770 C   0  0  0  0  0  0  0  0  0  0  0  0
   63.7410   33.1910   48.8710 C   0  0  0  0  0  0  0  0  0  0  0  0
   65.2370   33.0890   49.7830 Cl  0  0  0  0  0  0  0  0  0  0  0  0
   62.5260   33.3700   49.5380 C   0  0  0  0  0  0  0  0  0  0  0  0
   61.3280   33.4540   48.8160 C   0  0  0  0  0  0  0  0  0  0  0  0
   59.8460   33.7870   49.7010 Cl  0  0  0  0  0  0  0  0  0  0  0  0
   58.8880   35.6291   44.4501 H   0  0  0  0  0  0  0  0  0  0  0  0
   59.2405   33.8577   44.2284 H   0  0  0  0  0  0  0  0  0  0  0  0
   58.7779   28.5518   44.8114 H   0  0  0  0  0  0  0  0  0  0  0  0
   60.0828   29.7685   44.5764 H   0  0  0  0  0  0  0  0  0  0  0  0
   59.3258   31.3666   47.1735 H   0  0  0  0  0  0  0  0  0  0  0  0
   60.0061   31.0229   49.5509 H   0  0  0  0  0  0  0  0  0  0  0  0
   60.7069   28.7600   50.3375 H   0  0  0  0  0  0  0  0  0  0  0  0
   60.7176   26.8333   48.7508 H   0  0  0  0  0  0  0  0  0  0  0  0
   60.0385   27.1654   46.3730 H   0  0  0  0  0  0  0  0  0  0  0  0
   62.6042   33.1375   45.6517 H   0  0  0  0  0  0  0  0  0  0  0  0
   64.7246   32.9791   46.9515 H   0  0  0  0  0  0  0  0  0  0  0  0
   62.5100   33.4453   50.6353 H   0  0  0  0  0  0  0  0  0  0  0  0
  1  2  2  0
  2  3  1  0
  3  4  1  0
  4  5  1  0
  5  6  2  0
  6  7  1  0
  7  8  2  0
  8  9  1  0
  9 10  1  0
 10 11  2  0
 11 12  1  0
 12 13  2  0
 13 14  1  0
 14 15  2  0
  8 16  1  0
  2 17  1  0
 17 18  1  0
 18 19  2  0
 19 20  1  0
 20 21  2  0
 21 22  1  0
 21 23  1  0
 23 24  2  0
 24 25  1  0
 16  5  1  0
 24 18  1  0
 15 10  1  0
  3 26  1  0
  3 27  1  0
  9 28  1  0
  9 29  1  0
 11 30  1  0
 12 31  1  0
 13 32  1  0
 14 33  1  0
 15 34  1  0
 19 35  1  0
 20 36  1  0
 23 37  1  0
M  END
>  <UniqueID>  (80) 
72

>  <SMILES>  (80) 
O=C(CSc1nnc(Cc2ccccc2)o1)Oc1ccc(Cl)cc1Cl

>  <Energy>  (80) 
75.06645152782596

>  <Genealogy>  (80) 
O=C(CSc1nnc(Cc2ccccc2)o1)Oc1ccc(Cl)cc1Cl (3D coordinates assigned)
O=C(CSc1nnc(Cc2ccccc2)o1)Oc1ccc(Cl)cc1Cl (optimized conformer: 75.06645152782596 kcal/mol)

>  <smiles>  (80) 
O=C(CSc1nnc(Cc2ccccc2)o1)Oc1ccc(Cl)cc1Cl

>  <score_type>  (80) 
oracle

>  <origin>  (80) 
adg

>  <m_score__min__energy>  (80) 
-8.4199999999999999

>  <m_primary>  (80) 
energy

$$$$
80:0
     RDKit          3D

 55 58  0  0  0  0  0  0  0  0999 V2000
   51.0130   30.7340   48.5510 C   0  0  0  0  0  0  0  0  0  0  0  0
   50.7310   32.0080   49.2860 C   0  0  0  0  0  0  0  0  0  0  0  0
   50.2540   32.9830   48.6480 O   0  0  0  0  0  0  0  0  0  0  0  0
   51.0310   32.1730   50.6800 N   0  0  0  0  0  0  0  0  0  0  0  0
   52.0140   31.4580   51.4450 C   0  0  0  0  0  0  0  0  0  0  0  0
   51.9110   31.4580   52.8400 C   0  0  0  0  0  0  0  0  0  0  0  0
   52.8300   30.7480   53.6160 C   0  0  0  0  0  0  0  0  0  0  0  0
   53.8570   30.0170   53.0040 C   0  0  0  0  0  0  0  0  0  0  0  0
   55.0110   29.1220   53.9910 S   0  0  0  0  0  0  0  0  0  0  0  0
   55.0770   29.7390   55.3610 O   0  0  0  0  0  0  0  0  0  0  0  0
   54.5720   27.6930   54.1470 O   0  0  0  0  0  0  0  0  0  0  0  0
   56.5860   29.2160   53.2670 N   0  0  0  0  0  0  0  0  0  0  0  0
   57.1110   30.3520   52.5660 C   0  0  0  0  0  0  0  0  0  0  0  0
   56.5530   31.6090   52.8140 C   0  0  0  0  0  0  0  0  0  0  0  0
   57.0190   32.7340   52.1360 C   0  0  0  0  0  0  0  0  0  0  0  0
   58.0700   32.6220   51.2250 C   0  0  0  0  0  0  0  0  0  0  0  0
   58.6890   31.3750   50.9950 C   0  0  0  0  0  0  0  0  0  0  0  0
   59.8570   31.2330   50.0800 C   0  0  0  0  0  0  0  0  0  0  0  0
   61.1110   31.7940   50.3740 C   0  0  0  0  0  0  0  0  0  0  0  0
   62.1690   31.5780   49.4920 C   0  0  0  0  0  0  0  0  0  0  0  0
   61.9850   30.8240   48.3810 N   0  0  0  0  0  0  0  0  0  0  0  0
   60.7740   30.2800   48.0970 C   0  0  0  0  0  0  0  0  0  0  0  0
   60.6510   29.5160   47.0500 N   0  0  0  0  0  0  0  0  0  0  0  0
   59.6260   28.5330   46.8420 C   0  0  0  0  0  0  0  0  0  0  0  0
   59.6590   27.2900   47.4980 C   0  0  0  0  0  0  0  0  0  0  0  0
   58.6230   26.3690   47.3080 C   0  0  0  0  0  0  0  0  0  0  0  0
   57.5530   26.6730   46.4580 C   0  0  0  0  0  0  0  0  0  0  0  0
   56.2620   25.5010   46.2130 S   0  0  0  0  0  0  0  0  0  0  0  0
   54.7710   26.3320   45.9480 N   0  0  0  0  0  0  0  0  0  0  0  0
   56.1380   24.6200   47.4260 O   0  0  0  0  0  0  0  0  0  0  0  0
   56.5760   24.6390   45.0220 O   0  0  0  0  0  0  0  0  0  0  0  0
   57.5020   27.9260   45.8330 C   0  0  0  0  0  0  0  0  0  0  0  0
   58.5270   28.8550   46.0360 C   0  0  0  0  0  0  0  0  0  0  0  0
   59.7290   30.4870   48.9470 N   0  0  0  0  0  0  0  0  0  0  0  0
   58.1870   30.2420   51.6670 C   0  0  0  0  0  0  0  0  0  0  0  0
   53.9400   29.9820   51.6060 C   0  0  0  0  0  0  0  0  0  0  0  0
   53.0210   30.6940   50.8300 C   0  0  0  0  0  0  0  0  0  0  0  0
   51.1920   29.9251   49.2746 H   0  0  0  0  0  0  0  0  0  0  0  0
   50.1501   30.4764   47.9192 H   0  0  0  0  0  0  0  0  0  0  0  0
   51.9040   30.8647   47.9192 H   0  0  0  0  0  0  0  0  0  0  0  0
   51.1017   32.0203   53.3286 H   0  0  0  0  0  0  0  0  0  0  0  0
   52.7472   30.7627   54.7128 H   0  0  0  0  0  0  0  0  0  0  0  0
   55.7409   31.7112   53.5489 H   0  0  0  0  0  0  0  0  0  0  0  0
   56.5561   33.7148   52.3199 H   0  0  0  0  0  0  0  0  0  0  0  0
   58.4187   33.5128   50.6819 H   0  0  0  0  0  0  0  0  0  0  0  0
   61.2557   32.3936   51.2848 H   0  0  0  0  0  0  0  0  0  0  0  0
   63.1548   32.0204   49.6983 H   0  0  0  0  0  0  0  0  0  0  0  0
   60.5004   27.0412   48.1615 H   0  0  0  0  0  0  0  0  0  0  0  0
   58.6494   25.4008   47.8294 H   0  0  0  0  0  0  0  0  0  0  0  0
   54.6990   27.0650   46.6890 H   0  0  0  0  0  0  0  0  0  0  0  0
   56.6532   28.1795   45.1808 H   0  0  0  0  0  0  0  0  0  0  0  0
   58.4698   29.8449   45.5597 H   0  0  0  0  0  0  0  0  0  0  0  0
   58.6434   29.2577   51.4856 H   0  0  0  0  0  0  0  0  0  0  0  0
   54.7303   29.3928   51.1178 H   0  0  0  0  0  0  0  0  0  0  0  0
   53.0861   30.6563   49.7326 H   0  0  0  0  0  0  0  0  0  0  0  0
  1  2  1  0
  2  3  2  0
  2  4  1  0
  4  5  1  0
  5  6  2  0
  6  7  1  0
  7  8  2  0
  8  9  1  0
  9 10  2  0
  9 11  2  0
  9 12  1  0
 12 13  1  0
 13 14  2  0
 14 15  1  0
 15 16  2  0
 16 17  1  0
 17 18  1  0
 18 19  1  0
 19 20  2  0
 20 21  1  0
 21 22  1  0
 22 23  2  3
 23 24  1  0
 24 25  2  0
 25 26  1  0
 26 27  2  0
 27 28  1  0
 28 29  1  0
 28 30  2  0
 28 31  2  0
 27 32  1  0
 32 33  2  0
 22 34  1  0
 17 35  2  0
  8 36  1  0
 36 37  2  0
 37  5  1  0
 35 13  1  0
 34 18  2  0
 33 24  1  0
  1 38  1  0
  1 39  1  0
  1 40  1  0
  6 41  1  0
  7 42  1  0
 14 43  1  0
 15 44  1  0
 16 45  1  0
 19 46  1  0
 20 47  1  0
 25 48  1  0
 26 49  1  0
 29 50  1  0
 32 51  1  0
 33 52  1  0
 35 53  1  0
 36 54  1  0
 37 55  1  0
M  CHG  4   4  -1  12  -1  21  -1  29  -1
M  END
>  <UniqueID>  (81) 
73

>  <SMILES>  (81) 
CC(=O)[N-]c1ccc(S(=O)(=O)[N-]c2cccc(-c3cc[n-]c(=Nc4ccc(S([NH-])(=O)=O)cc4)n3)c2)cc1

>  <Energy>  (81) 
75.85391161696168

>  <Genealogy>  (81) 
CC(=O)[N-]c1ccc(S(=O)(=O)[N-]c2cccc(-c3cc[n-]c(=Nc4ccc(S([NH-])(=O)=O)cc4)n3)c2)cc1 (protonated)
CC(=O)[N-]c1ccc(S(=O)(=O)[N-]c2cccc(-c3cc[n-]c(=Nc4ccc(S([NH-])(=O)=O)cc4)n3)c2)cc1 (3D coordinates assigned)
CC(=O)[N-]c1ccc(S(=O)(=O)[N-]c2cccc(-c3cc[n-]c(=Nc4ccc(S([NH-])(=O)=O)cc4)n3)c2)cc1 (optimized conformer: 75.85391161696168 kcal/mol)

>  <smiles>  (81) 
CC(=O)Nc1ccc(S(=O)(=O)Nc2cccc(-c3cc[nH]c(=Nc4ccc(S(N)(=O)=O)cc4)n3)c2)cc1

>  <score_type>  (81) 
oracle

>  <origin>  (81) 
adg

>  <m_score__min__energy>  (81) 
-18.25

>  <m_primary>  (81) 
energy

$$$$
81:0
     RDKit          3D

 51 54  0  0  0  0  0  0  0  0999 V2000
   59.6490   29.1888   43.9329 H   0  0  0  0  0  0  0  0  0  0  0  0
   58.7970   29.1280   44.6260 C   0  0  0  0  0  0  0  0  0  0  0  0
   58.0510   30.2290   44.8040 C   0  0  0  0  0  0  0  0  0  0  0  0
   56.6920   30.4270   44.3380 C   0  0  0  0  0  0  0  0  0  0  0  0
   56.0170   29.6480   43.6150 O   0  0  0  0  0  0  0  0  0  0  0  0
   56.2270   31.6170   44.8590 O   0  0  0  0  0  0  0  0  0  0  0  0
   57.2250   32.2130   45.5980 N   0  0  0  0  0  0  0  0  0  0  0  0
   58.2860   31.4620   45.5880 C   0  0  0  0  0  0  0  0  0  0  0  0
   59.5620   31.9200   46.1660 C   0  0  0  0  0  0  0  0  0  0  0  0
   59.8990   33.2820   46.1340 C   0  0  0  0  0  0  0  0  0  0  0  0
   59.2249   34.0025   45.6477 H   0  0  0  0  0  0  0  0  0  0  0  0
   61.0900   33.7260   46.7190 C   0  0  0  0  0  0  0  0  0  0  0  0
   61.3438   34.7962   46.7038 H   0  0  0  0  0  0  0  0  0  0  0  0
   61.9580   32.8110   47.3230 C   0  0  0  0  0  0  0  0  0  0  0  0
   63.5730   33.4200   48.1410 Br  0  0  0  0  0  0  0  0  0  0  0  0
   61.6430   31.4490   47.3290 C   0  0  0  0  0  0  0  0  0  0  0  0
   62.3307   30.7282   47.7953 H   0  0  0  0  0  0  0  0  0  0  0  0
   60.4550   31.0020   46.7430 C   0  0  0  0  0  0  0  0  0  0  0  0
   60.2188   29.9277   46.7337 H   0  0  0  0  0  0  0  0  0  0  0  0
   58.5460   27.8430   45.3010 C   0  0  0  0  0  0  0  0  0  0  0  0
   57.2560   27.2940   45.3500 C   0  0  0  0  0  0  0  0  0  0  0  0
   56.4201   27.8140   44.8592 H   0  0  0  0  0  0  0  0  0  0  0  0
   57.0290   26.0890   46.0200 C   0  0  0  0  0  0  0  0  0  0  0  0
   56.0104   25.6766   46.0700 H   0  0  0  0  0  0  0  0  0  0  0  0
   58.0860   25.4020   46.6280 C   0  0  0  0  0  0  0  0  0  0  0  0
   57.7930   24.2080   47.3070 O   0  0  0  0  0  0  0  0  0  0  0  0
   56.5080   23.5890   47.3860 C   0  0  0  0  0  0  0  0  0  0  0  0
   56.4339   23.0254   48.3277 H   0  0  0  0  0  0  0  0  0  0  0  0
   55.7325   24.3684   47.3515 H   0  0  0  0  0  0  0  0  0  0  0  0
   56.3050   22.6280   46.2020 C   0  0  0  0  0  0  0  0  0  0  0  0
   56.3604   21.5981   46.5843 H   0  0  0  0  0  0  0  0  0  0  0  0
   55.3267   22.8779   45.7655 H   0  0  0  0  0  0  0  0  0  0  0  0
   57.2990   22.7680   45.1060 N   0  0  0  0  0  0  0  0  0  0  0  0
   58.1050   23.2640   45.5600 H   0  0  0  0  0  0  0  0  0  0  0  0
   57.8480   21.4670   44.6290 C   0  0  0  0  0  0  0  0  0  0  0  0
   58.9464   21.5262   44.6379 H   0  0  0  0  0  0  0  0  0  0  0  0
   57.4721   20.6849   45.3050 H   0  0  0  0  0  0  0  0  0  0  0  0
   57.3900   21.1040   43.2100 C   0  0  0  0  0  0  0  0  0  0  0  0
   58.0615   21.5777   42.4788 H   0  0  0  0  0  0  0  0  0  0  0  0
   57.4184   20.0108   43.0915 H   0  0  0  0  0  0  0  0  0  0  0  0
   56.0750   21.5560   42.9950 O   0  0  0  0  0  0  0  0  0  0  0  0
   56.0720   22.9640   42.8860 C   0  0  0  0  0  0  0  0  0  0  0  0
   56.5231   23.2391   41.9212 H   0  0  0  0  0  0  0  0  0  0  0  0
   55.0250   23.2916   42.9669 H   0  0  0  0  0  0  0  0  0  0  0  0
   56.8590   23.6750   44.0150 C   0  0  0  0  0  0  0  0  0  0  0  0
   57.7509   24.1435   43.5733 H   0  0  0  0  0  0  0  0  0  0  0  0
   56.1757   24.4093   44.4666 H   0  0  0  0  0  0  0  0  0  0  0  0
   59.3870   25.9350   46.5430 C   0  0  0  0  0  0  0  0  0  0  0  0
   60.2284   25.4005   47.0082 H   0  0  0  0  0  0  0  0  0  0  0  0
   59.6150   27.1390   45.8710 C   0  0  0  0  0  0  0  0  0  0  0  0
   60.6378   27.5356   45.7892 H   0  0  0  0  0  0  0  0  0  0  0  0
  1  2  1  0
  2  3  2  0
  3  4  1  0
  4  5  2  0
  4  6  1  0
  6  7  1  0
  7  8  2  0
  8  9  1  0
  9 10  2  0
 10 11  1  0
 10 12  1  0
 12 13  1  0
 12 14  2  0
 14 15  1  0
 14 16  1  0
 16 17  1  0
 16 18  2  0
 18 19  1  0
  2 20  1  0
 20 21  2  0
 21 22  1  0
 21 23  1  0
 23 24  1  0
 23 25  2  0
 25 26  1  0
 26 27  1  0
 27 28  1  0
 27 29  1  0
 27 30  1  0
 30 31  1  0
 30 32  1  0
 30 33  1  0
 33 34  1  0
 33 35  1  0
 35 36  1  0
 35 37  1  0
 35 38  1  0
 38 39  1  0
 38 40  1  0
 38 41  1  0
 41 42  1  0
 42 43  1  0
 42 44  1  0
 42 45  1  0
 45 46  1  0
 45 47  1  0
 25 48  1  0
 48 49  1  0
 48 50  2  0
 50 51  1  0
  8  3  1  0
 18  9  1  0
 50 20  1  0
 45 33  1  0
M  CHG  1  33   1
M  END
>  <UniqueID>  (82) 
74

>  <SMILES>  (82) 
O=C1ON=C(c2ccc(Br)cc2)/C1=C\c1ccc(OCC[NH+]2CCOCC2)cc1

>  <Energy>  (82) 
110.89961282369433

>  <Genealogy>  (82) 
O=C1ON=C(c2ccc(Br)cc2)C1=Cc1ccc(OCC[NH+]2CCOCC2)cc1 (protonated)
O=C1ON=C(c2ccc(Br)cc2)/C1=C\c1ccc(OCC[NH+]2CCOCC2)cc1 (cis-trans isomerization)
O=C1ON=C(c2ccc(Br)cc2)/C1=C\c1ccc(OCC[NH+]2CCOCC2)cc1 (3D coordinates assigned)
O=C1ON=C(c2ccc(Br)cc2)/C1=C\c1ccc(OCC[NH+]2CCOCC2)cc1 (nonaromatic ring conformer: 110.89961282369433 kcal/mol)

>  <smiles>  (82) 
O=C1ON=C(c2ccc(Br)cc2)C1=Cc1ccc(OCCN2CCOCC2)cc1

>  <score_type>  (82) 
oracle

>  <origin>  (82) 
adg

>  <m_score__min__energy>  (82) 
-8.1199999999999992

>  <m_primary>  (82) 
energy

$$$$
82:0
     RDKit          3D

 61 64  0  0  0  0  0  0  0  0999 V2000
   61.1490   27.0330   50.8530 C   0  0  0  0  0  0  0  0  0  0  0  0
   60.8960   28.2500   50.0660 N   0  0  0  0  0  0  0  0  0  0  0  0
   61.5920   29.4910   50.4360 C   0  0  0  0  0  0  0  0  0  0  0  0
   60.0080   28.2120   48.9150 C   0  0  0  0  0  0  0  0  0  0  0  0
   59.8080   27.0110   48.1910 C   0  0  0  0  0  0  0  0  0  0  0  0
   58.9100   26.9630   47.1200 C   0  0  0  0  0  0  0  0  0  0  0  0
   58.1860   28.1070   46.7510 C   0  0  0  0  0  0  0  0  0  0  0  0
   56.9990   28.0320   45.4500 S   0  0  0  0  0  0  0  0  0  0  0  0
   55.9760   26.9710   45.7580 O   0  0  0  0  0  0  0  0  0  0  0  0
   57.6740   27.6690   44.1540 O   0  0  0  0  0  0  0  0  0  0  0  0
   56.2150   29.5630   45.2620 N   0  0  0  0  0  0  0  0  0  0  0  0
   56.8300   30.6010   44.5000 C   0  0  0  0  0  0  0  0  0  0  0  0
   56.8340   30.5290   43.0980 C   0  0  0  0  0  0  0  0  0  0  0  0
   57.4070   31.5580   42.3480 C   0  0  0  0  0  0  0  0  0  0  0  0
   57.9900   32.6560   42.9930 C   0  0  0  0  0  0  0  0  0  0  0  0
   58.0110   32.7290   44.4000 C   0  0  0  0  0  0  0  0  0  0  0  0
   58.6190   33.9010   45.0750 C   0  0  0  0  0  0  0  0  0  0  0  0
   58.4300   35.0550   44.5970 O   0  0  0  0  0  0  0  0  0  0  0  0
   59.3900   33.7570   46.2840 N   0  0  0  0  0  0  0  0  0  0  0  0
   60.4250   32.7170   46.3930 C   0  0  0  0  0  0  0  0  0  0  0  0
   60.4320   32.1230   47.8090 C   0  0  0  0  0  0  0  0  0  0  0  0
   60.3570   33.1790   48.8360 N   0  0  0  0  0  0  0  0  0  0  0  0
   60.1280   32.8200   50.2150 C   0  0  0  0  0  0  0  0  0  0  0  0
   61.1920   32.8760   51.1370 C   0  0  0  0  0  0  0  0  0  0  0  0
   60.9920   32.5190   52.4740 C   0  0  0  0  0  0  0  0  0  0  0  0
   59.7260   32.1250   52.9110 C   0  0  0  0  0  0  0  0  0  0  0  0
   58.6570   32.0700   52.0090 C   0  0  0  0  0  0  0  0  0  0  0  0
   58.8530   32.4010   50.6580 C   0  0  0  0  0  0  0  0  0  0  0  0
   57.7910   32.2930   49.7570 O   0  0  0  0  0  0  0  0  0  0  0  0
   60.3160   34.5900   48.4280 C   0  0  0  0  0  0  0  0  0  0  0  0
   59.2660   34.7810   47.3310 C   0  0  0  0  0  0  0  0  0  0  0  0
   57.4120   31.6990   45.1490 C   0  0  0  0  0  0  0  0  0  0  0  0
   58.3990   29.3090   47.4340 C   0  0  0  0  0  0  0  0  0  0  0  0
   59.3030   29.3660   48.4990 C   0  0  0  0  0  0  0  0  0  0  0  0
   61.0991   27.2729   51.9254 H   0  0  0  0  0  0  0  0  0  0  0  0
   60.3892   26.2753   50.6110 H   0  0  0  0  0  0  0  0  0  0  0  0
   62.1479   26.6409   50.6110 H   0  0  0  0  0  0  0  0  0  0  0  0
   61.6379   29.5729   51.5320 H   0  0  0  0  0  0  0  0  0  0  0  0
   62.6128   29.4750   50.0264 H   0  0  0  0  0  0  0  0  0  0  0  0
   61.0461   30.3537   50.0264 H   0  0  0  0  0  0  0  0  0  0  0  0
   60.3653   26.1060   48.4744 H   0  0  0  0  0  0  0  0  0  0  0  0
   58.7706   26.0240   46.5642 H   0  0  0  0  0  0  0  0  0  0  0  0
   56.3858   29.6621   42.5904 H   0  0  0  0  0  0  0  0  0  0  0  0
   57.4005   31.5062   41.2492 H   0  0  0  0  0  0  0  0  0  0  0  0
   58.4345   33.4668   42.3972 H   0  0  0  0  0  0  0  0  0  0  0  0
   60.2165   31.9190   45.6651 H   0  0  0  0  0  0  0  0  0  0  0  0
   61.4080   33.1655   46.1868 H   0  0  0  0  0  0  0  0  0  0  0  0
   59.5665   31.4533   47.9204 H   0  0  0  0  0  0  0  0  0  0  0  0
   61.3732   31.5710   47.9482 H   0  0  0  0  0  0  0  0  0  0  0  0
   62.1875   33.2031   50.8024 H   0  0  0  0  0  0  0  0  0  0  0  0
   61.8331   32.5486   53.1823 H   0  0  0  0  0  0  0  0  0  0  0  0
   59.5682   31.8573   53.9662 H   0  0  0  0  0  0  0  0  0  0  0  0
   57.6595   31.7664   52.3595 H   0  0  0  0  0  0  0  0  0  0  0  0
   56.8680   32.6420   49.9820 H   0  0  0  0  0  0  0  0  0  0  0  0
   60.0555   35.2138   49.2957 H   0  0  0  0  0  0  0  0  0  0  0  0
   61.3028   34.8859   48.0424 H   0  0  0  0  0  0  0  0  0  0  0  0
   58.2639   34.7143   47.7796 H   0  0  0  0  0  0  0  0  0  0  0  0
   59.4232   35.7673   46.8701 H   0  0  0  0  0  0  0  0  0  0  0  0
   57.4004   31.7557   46.2475 H   0  0  0  0  0  0  0  0  0  0  0  0
   57.8523   30.2143   47.1315 H   0  0  0  0  0  0  0  0  0  0  0  0
   59.4683   30.3204   49.0203 H   0  0  0  0  0  0  0  0  0  0  0  0
  1  2  1  0
  2  3  1  0
  2  4  1  0
  4  5  2  0
  5  6  1  0
  6  7  2  0
  7  8  1  0
  8  9  2  0
  8 10  2  0
  8 11  1  0
 11 12  1  0
 12 13  2  0
 13 14  1  0
 14 15  2  0
 15 16  1  0
 16 17  1  0
 17 18  2  0
 17 19  1  0
 19 20  1  0
 20 21  1  0
 21 22  1  0
 22 23  1  0
 23 24  2  0
 24 25  1  0
 25 26  2  0
 26 27  1  0
 27 28  2  0
 28 29  1  0
 22 30  1  0
 30 31  1  0
 16 32  2  0
  7 33  1  0
 33 34  2  0
 34  4  1  0
 32 12  1  0
 31 19  1  0
 28 23  1  0
  1 35  1  0
  1 36  1  0
  1 37  1  0
  3 38  1  0
  3 39  1  0
  3 40  1  0
  5 41  1  0
  6 42  1  0
 13 43  1  0
 14 44  1  0
 15 45  1  0
 20 46  1  0
 20 47  1  0
 21 48  1  0
 21 49  1  0
 24 50  1  0
 25 51  1  0
 26 52  1  0
 27 53  1  0
 29 54  1  0
 30 55  1  0
 30 56  1  0
 31 57  1  0
 31 58  1  0
 32 59  1  0
 33 60  1  0
 34 61  1  0
M  CHG  1  11  -1
M  END
>  <UniqueID>  (83) 
75

>  <SMILES>  (83) 
CN(C)c1ccc(S(=O)(=O)[N-]c2cccc(C(=O)N3CCN(c4ccccc4O)CC3)c2)cc1

>  <Energy>  (83) 
81.33193800510442

>  <Genealogy>  (83) 
CN(C)c1ccc(S(=O)(=O)[N-]c2cccc(C(=O)N3CCN(c4ccccc4O)CC3)c2)cc1 (protonated)
CN(C)c1ccc(S(=O)(=O)[N-]c2cccc(C(=O)N3CCN(c4ccccc4O)CC3)c2)cc1 (3D coordinates assigned)
CN(C)c1ccc(S(=O)(=O)[N-]c2cccc(C(=O)N3CCN(c4ccccc4O)CC3)c2)cc1 (nonaromatic ring conformer: 81.33193800510442 kcal/mol)

>  <smiles>  (83) 
CN(C)c1ccc(S(=O)(=O)Nc2cccc(C(=O)N3CCN(c4ccccc4O)CC3)c2)cc1

>  <score_type>  (83) 
oracle

>  <origin>  (83) 
adg

>  <m_score__min__energy>  (83) 
-11.34

>  <m_primary>  (83) 
energy

$$$$
83:0
     RDKit          3D

 42 45  0  0  0  0  0  0  0  0999 V2000
   52.7930   24.1480   45.4670 C   0  0  0  0  0  0  0  0  0  0  0  0
   54.0140   24.8790   45.5980 O   0  0  0  0  0  0  0  0  0  0  0  0
   55.2500   24.4630   45.0740 C   0  0  0  0  0  0  0  0  0  0  0  0
   55.3640   23.3490   44.2220 C   0  0  0  0  0  0  0  0  0  0  0  0
   56.6150   22.9420   43.7430 C   0  0  0  0  0  0  0  0  0  0  0  0
   57.7650   23.6270   44.1210 C   0  0  0  0  0  0  0  0  0  0  0  0
   57.6670   24.7460   44.9530 C   0  0  0  0  0  0  0  0  0  0  0  0
   56.4110   25.1810   45.4200 C   0  0  0  0  0  0  0  0  0  0  0  0
   56.3330   26.3360   46.2620 N   0  0  0  0  0  0  0  0  0  0  0  0
   57.5060   27.1110   46.5420 C   0  0  0  0  0  0  0  0  0  0  0  0
   58.3720   26.6540   47.3400 O   0  0  0  0  0  0  0  0  0  0  0  0
   57.6510   28.4870   45.9970 C   0  0  0  0  0  0  0  0  0  0  0  0
   57.2730   28.7600   44.6720 C   0  0  0  0  0  0  0  0  0  0  0  0
   57.3960   30.0490   44.1420 C   0  0  0  0  0  0  0  0  0  0  0  0
   57.9200   31.0880   44.9260 C   0  0  0  0  0  0  0  0  0  0  0  0
   58.0880   32.3990   44.4250 C   0  0  0  0  0  0  0  0  0  0  0  0
   57.7400   32.7000   43.2450 O   0  0  0  0  0  0  0  0  0  0  0  0
   58.6450   33.3390   45.2340 N   0  0  0  0  0  0  0  0  0  0  0  0
   59.0320   33.0590   46.4930 C   0  0  0  0  0  0  0  0  0  0  0  0
   58.8610   31.8220   47.0230 N   0  0  0  0  0  0  0  0  0  0  0  0
   58.3170   30.8250   46.2640 C   0  0  0  0  0  0  0  0  0  0  0  0
   58.1610   29.5310   46.7940 C   0  0  0  0  0  0  0  0  0  0  0  0
   59.6600   34.1980   47.1920 C   0  0  0  0  0  0  0  0  0  0  0  0
   59.7130   35.2790   46.0950 C   0  0  0  0  0  0  0  0  0  0  0  0
   58.9350   34.7160   44.8880 C   0  0  0  0  0  0  0  0  0  0  0  0
   52.3982   23.9116   46.4661 H   0  0  0  0  0  0  0  0  0  0  0  0
   52.0592   24.7555   44.9170 H   0  0  0  0  0  0  0  0  0  0  0  0
   52.9819   23.2143   44.9170 H   0  0  0  0  0  0  0  0  0  0  0  0
   54.4614   22.7925   43.9294 H   0  0  0  0  0  0  0  0  0  0  0  0
   56.6886   22.0782   43.0659 H   0  0  0  0  0  0  0  0  0  0  0  0
   58.7497   23.2888   43.7659 H   0  0  0  0  0  0  0  0  0  0  0  0
   58.5769   25.2907   45.2451 H   0  0  0  0  0  0  0  0  0  0  0  0
   56.8752   27.9500   44.0430 H   0  0  0  0  0  0  0  0  0  0  0  0
   57.0808   30.2486   43.1072 H   0  0  0  0  0  0  0  0  0  0  0  0
   59.1790   31.6400   48.0060 H   0  0  0  0  0  0  0  0  0  0  0  0
   58.4396   29.3327   47.8395 H   0  0  0  0  0  0  0  0  0  0  0  0
   59.0475   34.5272   48.0444 H   0  0  0  0  0  0  0  0  0  0  0  0
   60.6454   33.9595   47.6187 H   0  0  0  0  0  0  0  0  0  0  0  0
   59.2414   36.2064   46.4521 H   0  0  0  0  0  0  0  0  0  0  0  0
   60.7514   35.5188   45.8224 H   0  0  0  0  0  0  0  0  0  0  0  0
   58.0032   35.2795   44.7325 H   0  0  0  0  0  0  0  0  0  0  0  0
   59.5111   34.7935   43.9542 H   0  0  0  0  0  0  0  0  0  0  0  0
  1  2  1  0
  2  3  1  0
  3  4  2  0
  4  5  1  0
  5  6  2  0
  6  7  1  0
  7  8  2  0
  8  9  1  0
  9 10  1  0
 10 11  2  0
 10 12  1  0
 12 13  2  0
 13 14  1  0
 14 15  2  0
 15 16  1  0
 16 17  2  0
 16 18  1  0
 18 19  1  0
 19 20  2  0
 20 21  1  0
 21 22  2  0
 19 23  1  0
 23 24  1  0
 24 25  1  0
  8  3  1  0
 22 12  1  0
 21 15  1  0
 25 18  1  0
  1 26  1  0
  1 27  1  0
  1 28  1  0
  4 29  1  0
  5 30  1  0
  6 31  1  0
  7 32  1  0
 13 33  1  0
 14 34  1  0
 20 35  1  0
 22 36  1  0
 23 37  1  0
 23 38  1  0
 24 39  1  0
 24 40  1  0
 25 41  1  0
 25 42  1  0
M  CHG  2   9  -1  20   1
M  END
>  <UniqueID>  (84) 
76

>  <SMILES>  (84) 
COc1ccccc1[N-]C(=O)c1ccc2c(=O)n3c([nH+]c2c1)CCC3

>  <Energy>  (84) 
67.00428946027014

>  <Genealogy>  (84) 
COc1ccccc1[N-]C(=O)c1ccc2c(=O)n3c([nH+]c2c1)CCC3 (protonated)
COc1ccccc1[N-]C(=O)c1ccc2c(=O)n3c([nH+]c2c1)CCC3 (3D coordinates assigned)
COc1ccccc1[N-]C(=O)c1ccc2c(=O)n3c([nH+]c2c1)CCC3 (nonaromatic ring conformer: 67.00428946027014 kcal/mol)

>  <smiles>  (84) 
COc1ccccc1NC(=O)c1ccc2c(=O)n3c(nc2c1)CCC3

>  <score_type>  (84) 
oracle

>  <origin>  (84) 
adg

>  <m_score__min__energy>  (84) 
-9.4700000000000006

>  <m_primary>  (84) 
energy

$$$$
84:0
     RDKit          3D

 33 35  0  0  0  0  0  0  0  0999 V2000
   60.1622   36.6145   45.9594 H   0  0  0  0  0  0  0  0  0  0  0  0
   59.7150   35.6120   46.0300 C   0  0  0  0  0  0  0  0  0  0  0  0
   59.6370   34.9700   47.2700 C   0  0  0  0  0  0  0  0  0  0  0  0
   60.0224   35.4694   48.1711 H   0  0  0  0  0  0  0  0  0  0  0  0
   59.0710   33.6960   47.3680 C   0  0  0  0  0  0  0  0  0  0  0  0
   59.0103   33.1958   48.3458 H   0  0  0  0  0  0  0  0  0  0  0  0
   58.5800   33.0540   46.2210 C   0  0  0  0  0  0  0  0  0  0  0  0
   58.0100   31.7750   46.3060 C   0  0  0  0  0  0  0  0  0  0  0  0
   57.9288   31.2754   47.2826 H   0  0  0  0  0  0  0  0  0  0  0  0
   57.5420   31.1290   45.1480 C   0  0  0  0  0  0  0  0  0  0  0  0
   56.9070   29.8460   45.2290 N   0  0  0  0  0  0  0  0  0  0  0  0
   57.4560   28.7210   45.5930 C   0  0  0  0  0  0  0  0  0  0  0  0
   56.7130   27.4420   45.3250 C   0  0  0  0  0  0  0  0  0  0  0  0
   55.6338   27.6512   45.2864 H   0  0  0  0  0  0  0  0  0  0  0  0
   57.0525   27.0270   44.3645 H   0  0  0  0  0  0  0  0  0  0  0  0
   56.9850   26.4380   46.4140 C   0  0  0  0  0  0  0  0  0  0  0  0
   56.1040   25.6670   46.7640 O   0  0  0  0  0  0  0  0  0  0  0  0
   58.3690   26.3110   46.9930 C   0  0  0  0  0  0  0  0  0  0  0  0
   58.3199   25.7219   47.9206 H   0  0  0  0  0  0  0  0  0  0  0  0
   59.0160   25.8106   46.2575 H   0  0  0  0  0  0  0  0  0  0  0  0
   58.9540   27.6940   47.3050 C   0  0  0  0  0  0  0  0  0  0  0  0
   58.3817   28.1480   48.1274 H   0  0  0  0  0  0  0  0  0  0  0  0
   60.0095   27.5689   47.5884 H   0  0  0  0  0  0  0  0  0  0  0  0
   58.8870   28.6150   46.0820 C   0  0  0  0  0  0  0  0  0  0  0  0
   59.2530   29.6149   46.3581 H   0  0  0  0  0  0  0  0  0  0  0  0
   59.5136   28.1977   45.2799 H   0  0  0  0  0  0  0  0  0  0  0  0
   57.5900   31.7930   43.9170 C   0  0  0  0  0  0  0  0  0  0  0  0
   57.1800   31.3083   43.0187 H   0  0  0  0  0  0  0  0  0  0  0  0
   58.1550   33.0670   43.8210 C   0  0  0  0  0  0  0  0  0  0  0  0
   58.2064   33.5716   42.8449 H   0  0  0  0  0  0  0  0  0  0  0  0
   58.6570   33.7050   44.9650 C   0  0  0  0  0  0  0  0  0  0  0  0
   59.2270   34.9850   44.8800 C   0  0  0  0  0  0  0  0  0  0  0  0
   59.2897   35.4951   43.9074 H   0  0  0  0  0  0  0  0  0  0  0  0
  1  2  1  0
  2  3  2  0
  3  4  1  0
  3  5  1  0
  5  6  1  0
  5  7  2  0
  7  8  1  0
  8  9  1  0
  8 10  2  0
 10 11  1  0
 11 12  2  0
 12 13  1  0
 13 14  1  0
 13 15  1  0
 13 16  1  0
 16 17  2  0
 16 18  1  0
 18 19  1  0
 18 20  1  0
 18 21  1  0
 21 22  1  0
 21 23  1  0
 21 24  1  0
 24 25  1  0
 24 26  1  0
 10 27  1  0
 27 28  1  0
 27 29  2  0
 29 30  1  0
 29 31  1  0
 31 32  2  0
 32 33  1  0
 32  2  1  0
 31  7  1  0
 24 12  1  0
M  END
>  <UniqueID>  (85) 
77

>  <SMILES>  (85) 
O=C1CCC/C(=N\c2ccc3ccccc3c2)C1

>  <Energy>  (85) 
43.68875687438128

>  <Genealogy>  (85) 
O=C1CCC/C(=N\c2ccc3ccccc3c2)C1 (cis-trans isomerization)
O=C1CCC/C(=N\c2ccc3ccccc3c2)C1 (3D coordinates assigned)
O=C1CCC/C(=N\c2ccc3ccccc3c2)C1 (nonaromatic ring conformer: 43.68875687438128 kcal/mol)

>  <smiles>  (85) 
O=C1CCCC(=Nc2ccc3ccccc3c2)C1

>  <score_type>  (85) 
oracle

>  <origin>  (85) 
adg

>  <m_score__min__energy>  (85) 
-7.6500000000000004

>  <m_primary>  (85) 
energy

$$$$
85:0
     RDKit          3D

 47 49  0  0  0  0  0  0  0  0999 V2000
   54.9330   26.3350   46.0150 N   0  0  0  0  0  0  0  0  0  0  0  0
   56.6570   26.2380   45.9420 S   0  0  0  0  0  0  0  0  0  0  0  0
   57.1770   25.6170   47.2090 O   0  0  0  0  0  0  0  0  0  0  0  0
   57.0620   25.3770   44.7800 O   0  0  0  0  0  0  0  0  0  0  0  0
   57.3290   27.8540   45.7460 C   0  0  0  0  0  0  0  0  0  0  0  0
   57.0450   28.5970   44.5920 C   0  0  0  0  0  0  0  0  0  0  0  0
   57.5760   29.8790   44.4340 C   0  0  0  0  0  0  0  0  0  0  0  0
   58.3820   30.4330   45.4330 C   0  0  0  0  0  0  0  0  0  0  0  0
   58.6480   29.7100   46.6100 C   0  0  0  0  0  0  0  0  0  0  0  0
   59.4900   30.2300   47.6470 N   0  0  0  0  0  0  0  0  0  0  0  0
   59.0770   30.5920   48.9700 C   0  0  0  0  0  0  0  0  0  0  0  0
   58.6770   29.7160   49.7820 O   0  0  0  0  0  0  0  0  0  0  0  0
   59.1270   32.0240   49.3960 C   0  0  0  0  0  0  0  0  0  0  0  0
   58.1170   32.7750   48.7220 O   0  0  0  0  0  0  0  0  0  0  0  0
   58.2440   33.3680   47.4510 C   0  0  0  0  0  0  0  0  0  0  0  0
   57.2470   33.2450   46.4610 C   0  0  0  0  0  0  0  0  0  0  0  0
   57.4300   33.8140   45.1980 C   0  0  0  0  0  0  0  0  0  0  0  0
   58.6060   34.5010   44.9010 C   0  0  0  0  0  0  0  0  0  0  0  0
   59.6040   34.6290   45.8700 C   0  0  0  0  0  0  0  0  0  0  0  0
   59.4240   34.0800   47.1490 C   0  0  0  0  0  0  0  0  0  0  0  0
   60.4820   34.2450   48.1630 C   0  0  0  0  0  0  0  0  0  0  0  0
   60.2420   34.9280   49.1960 O   0  0  0  0  0  0  0  0  0  0  0  0
   61.7690   33.6300   47.9960 N   0  0  0  0  0  0  0  0  0  0  0  0
   62.9450   34.0390   48.7400 C   0  0  0  0  0  0  0  0  0  0  0  0
   64.0790   33.1680   48.2180 C   0  0  0  0  0  0  0  0  0  0  0  0
   63.4080   31.9790   47.5320 C   0  0  0  0  0  0  0  0  0  0  0  0
   61.9970   32.4390   47.1920 C   0  0  0  0  0  0  0  0  0  0  0  0
   58.1310   28.4150   46.7500 C   0  0  0  0  0  0  0  0  0  0  0  0
   54.6970   27.0880   46.7010 H   0  0  0  0  0  0  0  0  0  0  0  0
   56.4021   28.1692   43.8086 H   0  0  0  0  0  0  0  0  0  0  0  0
   57.3596   30.4541   43.5216 H   0  0  0  0  0  0  0  0  0  0  0  0
   58.8095   31.4375   45.2982 H   0  0  0  0  0  0  0  0  0  0  0  0
   58.9620   32.0859   50.4818 H   0  0  0  0  0  0  0  0  0  0  0  0
   60.1131   32.4397   49.1414 H   0  0  0  0  0  0  0  0  0  0  0  0
   56.3194   32.6976   46.6846 H   0  0  0  0  0  0  0  0  0  0  0  0
   56.6431   33.7195   44.4352 H   0  0  0  0  0  0  0  0  0  0  0  0
   58.7481   34.9424   43.9035 H   0  0  0  0  0  0  0  0  0  0  0  0
   60.5353   35.1626   45.6294 H   0  0  0  0  0  0  0  0  0  0  0  0
   63.1629   35.1022   48.5607 H   0  0  0  0  0  0  0  0  0  0  0  0
   62.8042   33.9194   49.8244 H   0  0  0  0  0  0  0  0  0  0  0  0
   64.6930   33.7292   47.4982 H   0  0  0  0  0  0  0  0  0  0  0  0
   64.7470   32.8434   49.0294 H   0  0  0  0  0  0  0  0  0  0  0  0
   63.9535   31.7072   46.6163 H   0  0  0  0  0  0  0  0  0  0  0  0
   63.3992   31.0899   48.1796 H   0  0  0  0  0  0  0  0  0  0  0  0
   61.9187   32.6779   46.1211 H   0  0  0  0  0  0  0  0  0  0  0  0
   61.2524   31.6572   47.4026 H   0  0  0  0  0  0  0  0  0  0  0  0
   58.3565   27.8332   47.6559 H   0  0  0  0  0  0  0  0  0  0  0  0
  1  2  1  0
  2  3  2  0
  2  4  2  0
  2  5  1  0
  5  6  2  0
  6  7  1  0
  7  8  2  0
  8  9  1  0
  9 10  1  0
 10 11  1  0
 11 12  2  0
 11 13  1  0
 13 14  1  0
 14 15  1  0
 15 16  2  0
 16 17  1  0
 17 18  2  0
 18 19  1  0
 19 20  2  0
 20 21  1  0
 21 22  2  0
 21 23  1  0
 23 24  1  0
 24 25  1  0
 25 26  1  0
 26 27  1  0
  9 28  2  0
 28  5  1  0
 20 15  1  0
 27 23  1  0
  1 29  1  0
  6 30  1  0
  7 31  1  0
  8 32  1  0
 13 33  1  0
 13 34  1  0
 16 35  1  0
 17 36  1  0
 18 37  1  0
 19 38  1  0
 24 39  1  0
 24 40  1  0
 25 41  1  0
 25 42  1  0
 26 43  1  0
 26 44  1  0
 27 45  1  0
 27 46  1  0
 28 47  1  0
M  CHG  2   1  -1  10  -1
M  END
>  <UniqueID>  (86) 
78

>  <SMILES>  (86) 
[NH-]S(=O)(=O)c1cccc([N-]C(=O)COc2ccccc2C(=O)N2CCCC2)c1

>  <Energy>  (86) 
54.31771407833643

>  <Genealogy>  (86) 
[NH-]S(=O)(=O)c1cccc([N-]C(=O)COc2ccccc2C(=O)N2CCCC2)c1 (protonated)
[NH-]S(=O)(=O)c1cccc([N-]C(=O)COc2ccccc2C(=O)N2CCCC2)c1 (3D coordinates assigned)
[NH-]S(=O)(=O)c1cccc([N-]C(=O)COc2ccccc2C(=O)N2CCCC2)c1 (nonaromatic ring conformer: 54.31771407833643 kcal/mol)

>  <smiles>  (86) 
NS(=O)(=O)c1cccc(NC(=O)COc2ccccc2C(=O)N2CCCC2)c1

>  <score_type>  (86) 
oracle

>  <origin>  (86) 
adg

>  <m_score__min__energy>  (86) 
-13.039999999999999

>  <m_primary>  (86) 
energy

$$$$
86:0
     RDKit          3D

 53 55  0  0  1  0  0  0  0  0999 V2000
   63.3160   33.9390   46.3880 C   0  0  0  0  0  0  0  0  0  0  0  0
   63.8230   33.1640   47.3350 C   0  0  0  0  0  0  0  0  0  0  0  0
   63.3360   33.1070   48.7390 C   0  0  0  0  0  0  0  0  0  0  0  0
   62.1500   32.3680   48.9230 N   0  0  0  0  0  0  0  0  0  0  0  0
   61.3080   32.0960   48.0520 C   0  0  0  0  0  0  0  0  0  0  0  0
   61.3660   30.8610   47.4700 N   0  0  0  0  0  0  0  0  0  0  0  0
   60.5010   30.4750   46.5160 C   0  0  0  0  0  0  0  0  0  0  0  0
   60.6510   29.2870   46.0370 N   0  0  0  0  0  0  0  0  0  0  0  0
   59.5340   28.4100   45.9900 C   0  0  0  0  0  0  0  0  0  0  0  0
   58.8870   27.9680   47.1280 C   0  0  0  0  0  0  0  0  0  0  0  0
   57.7880   27.1090   47.0160 C   0  0  0  0  0  0  0  0  0  0  0  0
   57.3280   26.6860   45.7780 C   0  0  0  0  0  0  0  0  0  0  0  0
   56.1830   25.7900   45.6320 C   0  0  0  0  0  0  0  0  0  0  0  0
   56.3450   24.4350   45.0790 C   0  0  0  0  0  0  0  0  0  0  0  0
   55.0150   26.1700   45.9840 O   0  0  0  0  0  0  0  0  0  0  0  0
   57.9870   27.1370   44.6470 C   0  0  0  0  0  0  0  0  0  0  0  0
   59.0760   27.9890   44.7370 C   0  0  0  0  0  0  0  0  0  0  0  0
   59.5480   31.3240   46.1190 N   0  0  0  0  0  0  0  0  0  0  0  0
   59.4640   32.5440   46.6710 C   0  0  0  0  0  0  0  0  0  0  0  0
   58.4110   33.4090   46.2020 N   0  0  0  0  0  0  0  0  0  0  0  0
   57.0840   32.9450   45.9130 C   0  0  0  0  0  0  0  0  0  0  0  0
   57.0250   32.1720   44.6380 C   0  0  0  0  0  0  0  0  0  0  0  0
   56.3070   31.0040   44.4990 C   0  0  0  0  0  0  0  0  0  0  0  0
   56.2970   30.3370   43.2880 C   0  0  0  0  0  0  0  0  0  0  0  0
   57.0230   30.8750   42.2370 C   0  0  0  0  0  0  0  0  0  0  0  0
   57.7480   32.0430   42.3570 C   0  0  0  0  0  0  0  0  0  0  0  0
   57.7540   32.7060   43.5720 C   0  0  0  0  0  0  0  0  0  0  0  0
   60.3500   32.9770   47.6670 C   0  0  0  0  0  0  0  0  0  0  0  0
   60.1290   34.2740   48.1660 N   0  0  0  0  0  0  0  0  0  0  0  0
   60.0110   35.2640   47.3680 O   0  0  0  0  0  0  0  0  0  0  0  0
   59.9720   34.5930   49.4970 O   0  0  0  0  0  0  0  0  0  0  0  0
   63.7401   33.9166   45.3733 H   0  0  0  0  0  0  0  0  0  0  0  0
   62.4708   34.6050   46.6163 H   0  0  0  0  0  0  0  0  0  0  0  0
   64.6675   32.5139   47.0626 H   0  0  0  0  0  0  0  0  0  0  0  0
   64.1234   32.6498   49.3562 H   0  0  0  0  0  0  0  0  0  0  0  0
   63.1041   34.1425   49.0289 H   0  0  0  0  0  0  0  0  0  0  0  0
   62.1080   30.1920   47.7740 H   0  0  0  0  0  0  0  0  0  0  0  0
   59.2352   28.2908   48.1203 H   0  0  0  0  0  0  0  0  0  0  0  0
   57.2791   26.7626   47.9276 H   0  0  0  0  0  0  0  0  0  0  0  0
   56.4316   23.7108   45.9025 H   0  0  0  0  0  0  0  0  0  0  0  0
   55.4704   24.1843   44.4607 H   0  0  0  0  0  0  0  0  0  0  0  0
   57.2540   24.3976   44.4607 H   0  0  0  0  0  0  0  0  0  0  0  0
   57.6385   26.8119   43.6556 H   0  0  0  0  0  0  0  0  0  0  0  0
   59.5807   28.3345   43.8227 H   0  0  0  0  0  0  0  0  0  0  0  0
   58.8900   30.9990   45.3770 H   0  0  0  0  0  0  0  0  0  0  0  0
   58.6620   34.4080   46.0800 H   0  0  0  0  0  0  0  0  0  0  0  0
   56.7475   32.2976   46.7362 H   0  0  0  0  0  0  0  0  0  0  0  0
   56.4331   33.8253   45.8059 H   0  0  0  0  0  0  0  0  0  0  0  0
   55.7413   30.6020   45.3524 H   0  0  0  0  0  0  0  0  0  0  0  0
   55.7280   29.4041   43.1619 H   0  0  0  0  0  0  0  0  0  0  0  0
   57.0212   30.3507   41.2700 H   0  0  0  0  0  0  0  0  0  0  0  0
   58.3122   32.4408   41.5006 H   0  0  0  0  0  0  0  0  0  0  0  0
   58.3237   33.6387   43.6966 H   0  0  0  0  0  0  0  0  0  0  0  0
  1  2  2  0
  2  3  1  0
  3  4  1  0
  4  5  2  0
  5  6  1  0
  6  7  1  0
  7  8  2  0
  8  9  1  0
  9 10  2  0
 10 11  1  0
 11 12  2  0
 12 13  1  0
 13 14  1  0
 13 15  2  0
 12 16  1  0
 16 17  2  0
  7 18  1  0
 18 19  1  0
 19 20  1  0
 20 21  1  0
 21 22  1  0
 22 23  2  0
 23 24  1  0
 24 25  2  0
 25 26  1  0
 26 27  2  0
 19 28  2  0
 28 29  1  0
 29 30  2  0
 29 31  1  0
 28  5  1  0
 17  9  1  0
 27 22  1  0
  1 32  1  0
  1 33  1  0
  2 34  1  0
  3 35  1  0
  3 36  1  0
  6 37  1  0
 10 38  1  0
 11 39  1  0
 14 40  1  0
 14 41  1  0
 14 42  1  0
 16 43  1  0
 17 44  1  0
 18 45  1  0
 20 46  1  0
 21 47  1  0
 21 48  1  0
 23 49  1  0
 24 50  1  0
 25 51  1  0
 26 52  1  0
 27 53  1  0
M  CHG  2  29   1  31  -1
M  END
>  <smiles>  (87) 
C=CCN=c1[nH]c(=Nc2ccc(C(C)=O)cc2)[nH]c(NCc2ccccc2)c1[N+](=O)[O-]

>  <score_type>  (87) 
oracle

>  <origin>  (87) 
adg

>  <m_score__min__energy>  (87) 
-8.3800000000000008

>  <m_primary>  (87) 
energy

$$$$
87:0
     RDKit          3D

 48 50  0  0  0  0  0  0  0  0999 V2000
   60.0420   34.2020   49.6030 C   0  0  0  0  0  0  0  0  0  0  0  0
   59.3130   34.7660   48.5160 O   0  0  0  0  0  0  0  0  0  0  0  0
   59.1000   34.1240   47.2870 C   0  0  0  0  0  0  0  0  0  0  0  0
   58.6710   32.7920   47.2980 C   0  0  0  0  0  0  0  0  0  0  0  0
   58.4400   32.1100   46.1010 C   0  0  0  0  0  0  0  0  0  0  0  0
   58.6360   32.7470   44.8710 C   0  0  0  0  0  0  0  0  0  0  0  0
   58.3870   32.0210   43.6990 O   0  0  0  0  0  0  0  0  0  0  0  0
   57.1120   31.5070   43.3240 C   0  0  0  0  0  0  0  0  0  0  0  0
   56.9360   30.1500   43.9230 C   0  0  0  0  0  0  0  0  0  0  0  0
   55.8500   29.8620   44.4940 O   0  0  0  0  0  0  0  0  0  0  0  0
   57.9600   29.1590   43.7630 N   0  0  0  0  0  0  0  0  0  0  0  0
   57.8850   27.8570   44.3560 C   0  0  0  0  0  0  0  0  0  0  0  0
   57.9150   27.5090   45.7020 C   0  0  0  0  0  0  0  0  0  0  0  0
   58.0960   28.4370   46.8690 C   0  0  0  0  0  0  0  0  0  0  0  0
   57.8370   26.1560   45.7920 N   0  0  0  0  0  0  0  0  0  0  0  0
   57.8150   25.3750   47.0330 C   0  0  0  0  0  0  0  0  0  0  0  0
   57.7640   25.6450   44.5640 N   0  0  0  0  0  0  0  0  0  0  0  0
   57.6390   24.2510   44.2330 C   0  0  0  0  0  0  0  0  0  0  0  0
   58.5110   23.3050   44.7940 C   0  0  0  0  0  0  0  0  0  0  0  0
   58.3770   21.9490   44.4810 C   0  0  0  0  0  0  0  0  0  0  0  0
   57.3670   21.5280   43.6110 C   0  0  0  0  0  0  0  0  0  0  0  0
   56.4870   22.4630   43.0560 C   0  0  0  0  0  0  0  0  0  0  0  0
   56.6200   23.8190   43.3680 C   0  0  0  0  0  0  0  0  0  0  0  0
   57.8140   26.6620   43.6800 C   0  0  0  0  0  0  0  0  0  0  0  0
   57.7670   26.5260   42.4280 O   0  0  0  0  0  0  0  0  0  0  0  0
   59.0730   34.0860   44.8540 C   0  0  0  0  0  0  0  0  0  0  0  0
   59.3010   34.7690   46.0530 C   0  0  0  0  0  0  0  0  0  0  0  0
   59.6039   34.5409   50.5534 H   0  0  0  0  0  0  0  0  0  0  0  0
   59.9928   33.1045   49.5473 H   0  0  0  0  0  0  0  0  0  0  0  0
   61.0920   34.5252   49.5473 H   0  0  0  0  0  0  0  0  0  0  0  0
   58.5143   32.2776   48.2576 H   0  0  0  0  0  0  0  0  0  0  0  0
   58.1013   31.0637   46.1258 H   0  0  0  0  0  0  0  0  0  0  0  0
   56.3217   32.1775   43.6926 H   0  0  0  0  0  0  0  0  0  0  0  0
   57.0478   31.4392   42.2280 H   0  0  0  0  0  0  0  0  0  0  0  0
   58.7090   29.3310   43.0530 H   0  0  0  0  0  0  0  0  0  0  0  0
   57.9859   27.8726   47.8068 H   0  0  0  0  0  0  0  0  0  0  0  0
   59.0989   28.8871   46.8275 H   0  0  0  0  0  0  0  0  0  0  0  0
   57.3358   29.2309   46.8275 H   0  0  0  0  0  0  0  0  0  0  0  0
   57.8342   26.0570   47.8958 H   0  0  0  0  0  0  0  0  0  0  0  0
   56.8994   24.7664   47.0670 H   0  0  0  0  0  0  0  0  0  0  0  0
   58.6949   24.7158   47.0670 H   0  0  0  0  0  0  0  0  0  0  0  0
   59.3035   23.6320   45.4832 H   0  0  0  0  0  0  0  0  0  0  0  0
   59.0668   21.2129   44.9196 H   0  0  0  0  0  0  0  0  0  0  0  0
   57.2643   20.4613   43.3628 H   0  0  0  0  0  0  0  0  0  0  0  0
   55.6903   22.1311   42.3740 H   0  0  0  0  0  0  0  0  0  0  0  0
   55.9233   24.5514   42.9341 H   0  0  0  0  0  0  0  0  0  0  0  0
   59.2357   34.5967   43.8934 H   0  0  0  0  0  0  0  0  0  0  0  0
   59.6391   35.8155   46.0311 H   0  0  0  0  0  0  0  0  0  0  0  0
  1  2  1  0
  2  3  1  0
  3  4  2  0
  4  5  1  0
  5  6  2  0
  6  7  1  0
  7  8  1  0
  8  9  1  0
  9 10  2  0
  9 11  1  0
 11 12  1  0
 12 13  2  0
 13 14  1  0
 13 15  1  0
 15 16  1  0
 15 17  1  0
 17 18  1  0
 18 19  2  0
 19 20  1  0
 20 21  2  0
 21 22  1  0
 22 23  2  0
 17 24  1  0
 24 25  2  0
  6 26  1  0
 26 27  2  0
 27  3  1  0
 24 12  1  0
 23 18  1  0
  1 28  1  0
  1 29  1  0
  1 30  1  0
  4 31  1  0
  5 32  1  0
  8 33  1  0
  8 34  1  0
 11 35  1  0
 14 36  1  0
 14 37  1  0
 14 38  1  0
 16 39  1  0
 16 40  1  0
 16 41  1  0
 19 42  1  0
 20 43  1  0
 21 44  1  0
 22 45  1  0
 23 46  1  0
 26 47  1  0
 27 48  1  0
M  END
>  <UniqueID>  (88) 
79

>  <SMILES>  (88) 
COc1ccc(OCC(=O)Nc2c(C)n(C)n(-c3ccccc3)c2=O)cc1

>  <Energy>  (88) 
93.13612287522841

>  <Genealogy>  (88) 
COc1ccc(OCC(=O)Nc2c(C)n(C)n(-c3ccccc3)c2=O)cc1 (3D coordinates assigned)
COc1ccc(OCC(=O)Nc2c(C)n(C)n(-c3ccccc3)c2=O)cc1 (optimized conformer: 93.13612287522841 kcal/mol)

>  <smiles>  (88) 
COc1ccc(OCC(=O)Nc2c(C)n(C)n(-c3ccccc3)c2=O)cc1

>  <score_type>  (88) 
oracle

>  <origin>  (88) 
adg

>  <m_score__min__energy>  (88) 
-8.3800000000000008

>  <m_primary>  (88) 
energy

$$$$
88:0
     RDKit          3D

 47 50  0  0  0  0  0  0  0  0999 V2000
   58.3200   31.7090   50.4770 C   0  0  0  0  0  0  0  0  0  0  0  0
   58.9610   33.0910   50.5500 C   0  0  0  0  0  0  0  0  0  0  0  0
   60.1210   33.2020   49.6030 C   0  0  0  0  0  0  0  0  0  0  0  0
   61.3790   32.8280   49.9350 N   0  0  0  0  0  0  0  0  0  0  0  0
   62.1370   33.0670   48.8520 C   0  0  0  0  0  0  0  0  0  0  0  0
   63.5070   32.8450   48.7160 C   0  0  0  0  0  0  0  0  0  0  0  0
   64.1070   33.1710   47.4860 C   0  0  0  0  0  0  0  0  0  0  0  0
   63.3340   33.7060   46.4320 C   0  0  0  0  0  0  0  0  0  0  0  0
   61.9540   33.9190   46.5970 C   0  0  0  0  0  0  0  0  0  0  0  0
   61.3850   33.5840   47.8270 C   0  0  0  0  0  0  0  0  0  0  0  0
   60.0800   33.6650   48.2830 C   0  0  0  0  0  0  0  0  0  0  0  0
   58.8810   34.1490   47.5080 C   0  0  0  0  0  0  0  0  0  0  0  0
   58.5020   33.1860   46.4090 C   0  0  0  0  0  0  0  0  0  0  0  0
   57.9780   33.6660   45.2000 C   0  0  0  0  0  0  0  0  0  0  0  0
   57.6050   32.7770   44.1890 C   0  0  0  0  0  0  0  0  0  0  0  0
   57.7430   31.3990   44.3750 C   0  0  0  0  0  0  0  0  0  0  0  0
   57.3330   30.5370   43.3630 O   0  0  0  0  0  0  0  0  0  0  0  0
   58.2680   30.8970   45.5830 C   0  0  0  0  0  0  0  0  0  0  0  0
   58.4390   29.4390   45.8040 C   0  0  0  0  0  0  0  0  0  0  0  0
   59.7220   28.8730   45.8670 C   0  0  0  0  0  0  0  0  0  0  0  0
   59.8770   27.5040   46.0930 C   0  0  0  0  0  0  0  0  0  0  0  0
   58.7580   26.6880   46.2660 C   0  0  0  0  0  0  0  0  0  0  0  0
   57.4650   27.2350   46.2170 C   0  0  0  0  0  0  0  0  0  0  0  0
   56.2800   26.3680   46.4070 C   0  0  0  0  0  0  0  0  0  0  0  0
   55.1480   26.7290   45.9880 O   0  0  0  0  0  0  0  0  0  0  0  0
   56.4010   25.1420   47.0520 O   0  0  0  0  0  0  0  0  0  0  0  0
   57.3150   28.6150   45.9870 C   0  0  0  0  0  0  0  0  0  0  0  0
   58.6320   31.8000   46.5960 C   0  0  0  0  0  0  0  0  0  0  0  0
   58.1450   31.3317   51.4954 H   0  0  0  0  0  0  0  0  0  0  0  0
   57.3616   31.7772   49.9415 H   0  0  0  0  0  0  0  0  0  0  0  0
   58.9911   31.0214   49.9415 H   0  0  0  0  0  0  0  0  0  0  0  0
   58.2091   33.8496   50.2870 H   0  0  0  0  0  0  0  0  0  0  0  0
   59.3306   33.2500   51.5738 H   0  0  0  0  0  0  0  0  0  0  0  0
   61.6990   32.4350   50.8500 H   0  0  0  0  0  0  0  0  0  0  0  0
   64.0995   32.4284   49.5439 H   0  0  0  0  0  0  0  0  0  0  0  0
   65.1856   33.0081   47.3442 H   0  0  0  0  0  0  0  0  0  0  0  0
   63.8149   33.9578   45.4753 H   0  0  0  0  0  0  0  0  0  0  0  0
   61.3425   34.3361   45.7833 H   0  0  0  0  0  0  0  0  0  0  0  0
   58.0304   34.2564   48.1972 H   0  0  0  0  0  0  0  0  0  0  0  0
   59.1374   35.1137   47.0459 H   0  0  0  0  0  0  0  0  0  0  0  0
   57.8600   34.7489   45.0469 H   0  0  0  0  0  0  0  0  0  0  0  0
   57.2007   33.1637   43.2419 H   0  0  0  0  0  0  0  0  0  0  0  0
   60.6089   29.5107   45.7378 H   0  0  0  0  0  0  0  0  0  0  0  0
   60.8854   27.0666   46.1349 H   0  0  0  0  0  0  0  0  0  0  0  0
   58.8893   25.6101   46.4418 H   0  0  0  0  0  0  0  0  0  0  0  0
   56.3070   29.0539   45.9500 H   0  0  0  0  0  0  0  0  0  0  0  0
   59.0244   31.4160   47.5492 H   0  0  0  0  0  0  0  0  0  0  0  0
  1  2  1  0
  2  3  1  0
  3  4  1  0
  4  5  1  0
  5  6  2  0
  6  7  1  0
  7  8  2  0
  8  9  1  0
  9 10  2  0
 10 11  1  0
 11 12  1  0
 12 13  1  0
 13 14  2  0
 14 15  1  0
 15 16  2  0
 16 17  1  0
 16 18  1  0
 18 19  1  0
 19 20  2  0
 20 21  1  0
 21 22  2  0
 22 23  1  0
 23 24  1  0
 24 25  2  0
 24 26  1  0
 23 27  2  0
 18 28  2  0
 11  3  2  0
 28 13  1  0
 10  5  1  0
 27 19  1  0
  1 29  1  0
  1 30  1  0
  1 31  1  0
  2 32  1  0
  2 33  1  0
  4 34  1  0
  6 35  1  0
  7 36  1  0
  8 37  1  0
  9 38  1  0
 12 39  1  0
 12 40  1  0
 14 41  1  0
 15 42  1  0
 20 43  1  0
 21 44  1  0
 22 45  1  0
 27 46  1  0
 28 47  1  0
M  CHG  2  17  -1  26  -1
M  END
>  <UniqueID>  (89) 
80

>  <SMILES>  (89) 
CCc1[nH]c2ccccc2c1Cc1ccc([O-])c(-c2cccc(C(=O)[O-])c2)c1

>  <Energy>  (89) 
86.37358319287341

>  <Genealogy>  (89) 
CCc1[nH]c2ccccc2c1Cc1ccc([O-])c(-c2cccc(C(=O)[O-])c2)c1 (protonated)
CCc1[nH]c2ccccc2c1Cc1ccc([O-])c(-c2cccc(C(=O)[O-])c2)c1 (3D coordinates assigned)
CCc1[nH]c2ccccc2c1Cc1ccc([O-])c(-c2cccc(C(=O)[O-])c2)c1 (optimized conformer: 86.37358319287341 kcal/mol)

>  <smiles>  (89) 
CCc1[nH]c2ccccc2c1Cc1ccc(O)c(-c2cccc(C(=O)O)c2)c1

>  <score_type>  (89) 
oracle

>  <origin>  (89) 
adg

>  <m_score__min__energy>  (89) 
-13.51

>  <m_primary>  (89) 
energy

$$$$
89:0
     RDKit          3D

 44 47  0  0  0  0  0  0  0  0999 V2000
   58.7630   32.2120   48.8750 C   0  0  0  0  0  0  0  0  0  0  0  0
   58.1450   32.3540   47.4740 C   0  0  2  0  0  0  0  0  0  0  0  0
   58.3720   31.0420   46.6750 C   0  0  0  0  0  0  0  0  0  0  0  0
   57.9250   31.2040   45.2900 N   0  0  0  0  0  0  0  0  0  0  0  0
   57.8990   32.3720   44.6420 C   0  0  0  0  0  0  0  0  0  0  0  0
   57.5740   32.2310   43.3450 N   0  0  0  0  0  0  0  0  0  0  0  0
   57.4010   30.9300   43.1460 N   0  0  0  0  0  0  0  0  0  0  0  0
   57.6310   30.3060   44.3230 C   0  0  0  0  0  0  0  0  0  0  0  0
   57.6090   28.8390   44.4690 C   0  0  0  0  0  0  0  0  0  0  0  0
   57.0900   28.2520   45.5820 N   0  0  0  0  0  0  0  0  0  0  0  0
   57.0800   26.9020   45.7250 C   0  0  0  0  0  0  0  0  0  0  0  0
   57.6100   26.0930   44.7210 C   0  0  0  0  0  0  0  0  0  0  0  0
   58.1430   26.7060   43.5890 C   0  0  0  0  0  0  0  0  0  0  0  0
   58.1350   28.0610   43.4840 N   0  0  0  0  0  0  0  0  0  0  0  0
   58.2780   33.6110   45.3090 C   0  0  0  0  0  0  0  0  0  0  0  0
   58.3310   34.6930   44.6660 O   0  0  0  0  0  0  0  0  0  0  0  0
   58.6240   33.5430   46.7100 N   0  0  0  0  0  0  0  0  0  0  0  0
   59.3830   34.6470   47.3260 C   0  0  0  0  0  0  0  0  0  0  0  0
   60.7950   34.2270   47.6400 C   0  0  0  0  0  0  0  0  0  0  0  0
   61.2650   34.2470   48.9630 C   0  0  0  0  0  0  0  0  0  0  0  0
   62.5770   33.8660   49.2530 C   0  0  0  0  0  0  0  0  0  0  0  0
   63.4460   33.4690   48.2310 C   0  0  0  0  0  0  0  0  0  0  0  0
   64.7540   33.0930   48.5810 O   0  0  0  0  0  0  0  0  0  0  0  0
   65.1770   32.7030   49.8850 C   0  0  0  0  0  0  0  0  0  0  0  0
   64.9970   33.7450   50.7770 F   0  0  0  0  0  0  0  0  0  0  0  0
   64.4660   31.5940   50.3060 F   0  0  0  0  0  0  0  0  0  0  0  0
   66.5210   32.3800   49.8430 F   0  0  0  0  0  0  0  0  0  0  0  0
   62.9840   33.4640   46.9010 C   0  0  0  0  0  0  0  0  0  0  0  0
   61.6710   33.8460   46.6110 C   0  0  0  0  0  0  0  0  0  0  0  0
   57.9895   32.3897   49.6367 H   0  0  0  0  0  0  0  0  0  0  0  0
   59.1696   31.1970   48.9952 H   0  0  0  0  0  0  0  0  0  0  0  0
   59.5719   32.9477   48.9952 H   0  0  0  0  0  0  0  0  0  0  0  0
   57.0683   32.5280   47.6171 H   0  0  0  0  0  0  0  0  0  0  0  0
   59.4435   30.7933   46.6833 H   0  0  0  0  0  0  0  0  0  0  0  0
   57.7927   30.2334   47.1447 H   0  0  0  0  0  0  0  0  0  0  0  0
   56.6544   26.4472   46.6316 H   0  0  0  0  0  0  0  0  0  0  0  0
   57.6075   24.9975   44.8201 H   0  0  0  0  0  0  0  0  0  0  0  0
   58.5699   26.0938   42.7810 H   0  0  0  0  0  0  0  0  0  0  0  0
   59.4080   35.4980   46.6294 H   0  0  0  0  0  0  0  0  0  0  0  0
   58.8862   34.9302   48.2657 H   0  0  0  0  0  0  0  0  0  0  0  0
   60.5957   34.5647   49.7761 H   0  0  0  0  0  0  0  0  0  0  0  0
   62.9304   33.8782   50.2946 H   0  0  0  0  0  0  0  0  0  0  0  0
   63.6585   33.1585   46.0875 H   0  0  0  0  0  0  0  0  0  0  0  0
   61.3212   33.8481   45.5681 H   0  0  0  0  0  0  0  0  0  0  0  0
  1  2  1  0
  2  3  1  0
  3  4  1  0
  4  5  1  0
  5  6  2  0
  6  7  1  0
  7  8  2  0
  8  9  1  0
  9 10  2  0
 10 11  1  0
 11 12  2  0
 12 13  1  0
 13 14  2  0
  5 15  1  0
 15 16  2  0
 15 17  1  0
 17 18  1  0
 18 19  1  0
 19 20  2  0
 20 21  1  0
 21 22  2  0
 22 23  1  0
 23 24  1  0
 24 25  1  0
 24 26  1  0
 24 27  1  0
 22 28  1  0
 28 29  2  0
 17  2  1  0
 29 19  1  0
  8  4  1  0
 14  9  1  0
  1 30  1  0
  1 31  1  0
  1 32  1  0
  2 33  1  1
  3 34  1  0
  3 35  1  0
 11 36  1  0
 12 37  1  0
 13 38  1  0
 18 39  1  0
 18 40  1  0
 20 41  1  0
 21 42  1  0
 28 43  1  0
 29 44  1  0
M  END
>  <UniqueID>  (90) 
81

>  <SMILES>  (90) 
C[C@@H]1Cn2c(nnc2-c2ncccn2)C(=O)N1Cc1ccc(OC(F)(F)F)cc1

>  <Energy>  (90) 
88.80617783965323

>  <Genealogy>  (90) 
C[C@@H]1Cn2c(nnc2-c2ncccn2)C(=O)N1Cc1ccc(OC(F)(F)F)cc1 (chirality)
C[C@@H]1Cn2c(nnc2-c2ncccn2)C(=O)N1Cc1ccc(OC(F)(F)F)cc1 (3D coordinates assigned)
C[C@@H]1Cn2c(nnc2-c2ncccn2)C(=O)N1Cc1ccc(OC(F)(F)F)cc1 (nonaromatic ring conformer: 88.80617783965323 kcal/mol)

>  <smiles>  (90) 
CC1Cn2c(nnc2-c2ncccn2)C(=O)N1Cc1ccc(OC(F)(F)F)cc1

>  <score_type>  (90) 
oracle

>  <origin>  (90) 
adg

>  <m_score__min__energy>  (90) 
-8.0399999999999991

>  <m_primary>  (90) 
energy

$$$$
90:0
     RDKit          3D

 42 44  0  0  0  0  0  0  0  0999 V2000
   55.1800   29.2850   42.6110 H   0  0  0  0  0  0  0  0  0  0  0  0
   55.1670   29.5990   43.6080 N   0  0  0  0  0  0  0  0  0  0  0  0
   56.2410   29.9510   44.2440 C   0  0  0  0  0  0  0  0  0  0  0  0
   57.0390   28.9910   44.8740 C   0  0  0  0  0  0  0  0  0  0  0  0
   56.7547   27.9291   44.8362 H   0  0  0  0  0  0  0  0  0  0  0  0
   58.2000   29.3810   45.5530 C   0  0  0  0  0  0  0  0  0  0  0  0
   58.9670   28.3310   46.2560 C   0  0  0  0  0  0  0  0  0  0  0  0
   59.6170   27.3350   45.5100 C   0  0  0  0  0  0  0  0  0  0  0  0
   59.5393   27.3344   44.4127 H   0  0  0  0  0  0  0  0  0  0  0  0
   60.3610   26.3460   46.1540 C   0  0  0  0  0  0  0  0  0  0  0  0
   60.8644   25.5656   45.5645 H   0  0  0  0  0  0  0  0  0  0  0  0
   60.4670   26.3460   47.5450 C   0  0  0  0  0  0  0  0  0  0  0  0
   61.0526   25.5640   48.0505 H   0  0  0  0  0  0  0  0  0  0  0  0
   59.8310   27.3370   48.2980 C   0  0  0  0  0  0  0  0  0  0  0  0
   59.9206   27.3328   49.3943 H   0  0  0  0  0  0  0  0  0  0  0  0
   59.0760   28.3410   47.6610 C   0  0  0  0  0  0  0  0  0  0  0  0
   58.4200   29.3520   48.3840 O   0  0  0  0  0  0  0  0  0  0  0  0
   59.0190   30.1150   49.4260 C   0  0  0  0  0  0  0  0  0  0  0  0
   58.7045   29.7144   50.4010 H   0  0  0  0  0  0  0  0  0  0  0  0
   60.1141   30.0554   49.3410 H   0  0  0  0  0  0  0  0  0  0  0  0
   58.7012   31.1647   49.3410 H   0  0  0  0  0  0  0  0  0  0  0  0
   58.5690   30.7500   45.5770 C   0  0  0  0  0  0  0  0  0  0  0  0
   57.7060   31.6880   44.9610 C   0  0  0  0  0  0  0  0  0  0  0  0
   56.5890   31.2630   44.3040 N   0  0  0  0  0  0  0  0  0  0  0  0
   55.9790   31.9670   43.8270 H   0  0  0  0  0  0  0  0  0  0  0  0
   58.0400   33.1620   44.9560 C   0  0  0  0  0  0  0  0  0  0  0  0
   58.6243   33.3873   44.0516 H   0  0  0  0  0  0  0  0  0  0  0  0
   57.0909   33.7176   44.9763 H   0  0  0  0  0  0  0  0  0  0  0  0
   58.8600   33.5930   46.1950 C   0  0  0  0  0  0  0  0  0  0  0  0
   59.2810   35.0680   46.0310 C   0  0  0  0  0  0  0  0  0  0  0  0
   59.4113   35.5246   47.0232 H   0  0  0  0  0  0  0  0  0  0  0  0
   60.2296   35.1191   45.4764 H   0  0  0  0  0  0  0  0  0  0  0  0
   58.5023   35.6121   45.4764 H   0  0  0  0  0  0  0  0  0  0  0  0
   58.0120   33.4670   47.4820 C   0  0  0  0  0  0  0  0  0  0  0  0
   58.6647   33.5640   48.3621 H   0  0  0  0  0  0  0  0  0  0  0  0
   57.2521   34.2621   47.4997 H   0  0  0  0  0  0  0  0  0  0  0  0
   57.5161   32.4853   47.4997 H   0  0  0  0  0  0  0  0  0  0  0  0
   60.1290   32.7140   46.2930 C   0  0  0  0  0  0  0  0  0  0  0  0
   60.8021   32.9741   45.4628 H   0  0  0  0  0  0  0  0  0  0  0  0
   60.5938   32.9098   47.2706 H   0  0  0  0  0  0  0  0  0  0  0  0
   59.8240   31.2440   46.2220 C   0  0  0  0  0  0  0  0  0  0  0  0
   60.6960   30.4390   46.6450 O   0  0  0  0  0  0  0  0  0  0  0  0
  1  2  1  0
  2  3  2  0
  3  4  1  0
  4  5  1  0
  4  6  2  0
  6  7  1  0
  7  8  2  0
  8  9  1  0
  8 10  1  0
 10 11  1  0
 10 12  2  0
 12 13  1  0
 12 14  1  0
 14 15  1  0
 14 16  2  0
 16 17  1  0
 17 18  1  0
 18 19  1  0
 18 20  1  0
 18 21  1  0
  6 22  1  0
 22 23  2  0
 23 24  1  0
 24 25  1  0
 23 26  1  0
 26 27  1  0
 26 28  1  0
 26 29  1  0
 29 30  1  0
 30 31  1  0
 30 32  1  0
 30 33  1  0
 29 34  1  0
 34 35  1  0
 34 36  1  0
 34 37  1  0
 29 38  1  0
 38 39  1  0
 38 40  1  0
 38 41  1  0
 41 42  2  0
 24  3  1  0
 16  7  1  0
 41 22  1  0
M  END
>  <UniqueID>  (91) 
82

>  <SMILES>  (91) 
[H]/N=c1\cc(-c2ccccc2OC)c2c([nH]1)CC(C)(C)CC2=O

>  <Energy>  (91) 
53.35617636575548

>  <Genealogy>  (91) 
[H]/N=c1\cc(-c2ccccc2OC)c2c([nH]1)CC(C)(C)CC2=O (cis-trans isomerization)
[H]/N=c1\cc(-c2ccccc2OC)c2c([nH]1)CC(C)(C)CC2=O (3D coordinates assigned)
[H]/N=c1\cc(-c2ccccc2OC)c2c([nH]1)CC(C)(C)CC2=O (nonaromatic ring conformer: 53.35617636575548 kcal/mol)

>  <smiles>  (91) 
COc1ccccc1-c1cc(=N)[nH]c2c1C(=O)CC(C)(C)C2

>  <score_type>  (91) 
oracle

>  <origin>  (91) 
adg

>  <m_score__min__energy>  (91) 
-7.6399999999999997

>  <m_primary>  (91) 
energy

$$$$
91:0
     RDKit          3D

 44 45  0  0  0  0  0  0  0  0999 V2000
   59.2410   34.2080   44.4800 C   0  0  0  0  0  0  0  0  0  0  0  0
   59.9330   34.4250   45.7870 C   0  0  0  0  0  0  0  0  0  0  0  0
   60.0330   35.5960   46.2410 O   0  0  0  0  0  0  0  0  0  0  0  0
   60.4370   33.2880   46.5790 C   0  0  0  0  0  0  0  0  0  0  0  0
   61.7580   33.0870   46.9520 C   0  0  0  0  0  0  0  0  0  0  0  0
   62.9160   33.9860   46.6480 C   0  0  0  0  0  0  0  0  0  0  0  0
   61.8830   31.9240   47.6160 N   0  0  0  0  0  0  0  0  0  0  0  0
   60.6610   31.3570   47.6700 C   0  0  0  0  0  0  0  0  0  0  0  0
   60.4370   30.0270   48.2740 C   0  0  0  0  0  0  0  0  0  0  0  0
   61.2980   29.5220   49.0430 O   0  0  0  0  0  0  0  0  0  0  0  0
   59.1890   29.3610   48.0520 N   0  0  0  0  0  0  0  0  0  0  0  0
   58.8340   28.5810   46.9010 C   0  0  0  0  0  0  0  0  0  0  0  0
   59.5400   28.7850   45.7090 C   0  0  0  0  0  0  0  0  0  0  0  0
   59.2380   28.0340   44.5710 C   0  0  0  0  0  0  0  0  0  0  0  0
   58.2370   27.0610   44.6190 C   0  0  0  0  0  0  0  0  0  0  0  0
   57.5370   26.8290   45.8090 C   0  0  0  0  0  0  0  0  0  0  0  0
   56.3040   25.5730   45.8610 S   0  0  0  0  0  0  0  0  0  0  0  0
   54.7380   26.3040   45.8660 N   0  0  0  0  0  0  0  0  0  0  0  0
   56.4550   24.7410   47.1050 O   0  0  0  0  0  0  0  0  0  0  0  0
   56.4430   24.6870   44.6560 O   0  0  0  0  0  0  0  0  0  0  0  0
   57.8430   27.5840   46.9530 C   0  0  0  0  0  0  0  0  0  0  0  0
   59.7170   32.1870   47.0560 C   0  0  0  0  0  0  0  0  0  0  0  0
   58.2160   31.9480   46.9960 C   0  0  0  0  0  0  0  0  0  0  0  0
   57.7890   31.4700   45.6060 C   0  0  0  0  0  0  0  0  0  0  0  0
   57.3950   33.1620   47.4520 C   0  0  0  0  0  0  0  0  0  0  0  0
   58.2060   33.8834   44.6626 H   0  0  0  0  0  0  0  0  0  0  0  0
   59.2352   35.1474   43.9078 H   0  0  0  0  0  0  0  0  0  0  0  0
   59.7726   33.4334   43.9078 H   0  0  0  0  0  0  0  0  0  0  0  0
   63.3659   34.3353   47.5890 H   0  0  0  0  0  0  0  0  0  0  0  0
   63.6672   33.4322   46.0658 H   0  0  0  0  0  0  0  0  0  0  0  0
   62.5657   34.8511   46.0658 H   0  0  0  0  0  0  0  0  0  0  0  0
   62.7720   31.5200   47.9860 H   0  0  0  0  0  0  0  0  0  0  0  0
   60.3375   29.5416   45.6688 H   0  0  0  0  0  0  0  0  0  0  0  0
   59.7893   28.2090   43.6353 H   0  0  0  0  0  0  0  0  0  0  0  0
   57.9980   26.4753   43.7191 H   0  0  0  0  0  0  0  0  0  0  0  0
   54.7690   27.0890   46.5540 H   0  0  0  0  0  0  0  0  0  0  0  0
   57.3054   27.3949   47.8938 H   0  0  0  0  0  0  0  0  0  0  0  0
   57.9979   31.1462   47.7168 H   0  0  0  0  0  0  0  0  0  0  0  0
   57.0593   30.6531   45.7073 H   0  0  0  0  0  0  0  0  0  0  0  0
   57.3306   32.3050   45.0559 H   0  0  0  0  0  0  0  0  0  0  0  0
   58.6702   31.1083   45.0559 H   0  0  0  0  0  0  0  0  0  0  0  0
   57.3715   33.1968   48.5512 H   0  0  0  0  0  0  0  0  0  0  0  0
   57.8565   34.0828   47.0658 H   0  0  0  0  0  0  0  0  0  0  0  0
   56.3686   33.0765   47.0658 H   0  0  0  0  0  0  0  0  0  0  0  0
  1  2  1  0
  2  3  2  0
  2  4  1  0
  4  5  2  0
  5  6  1  0
  5  7  1  0
  7  8  1  0
  8  9  1  0
  9 10  2  0
  9 11  1  0
 11 12  1  0
 12 13  2  0
 13 14  1  0
 14 15  2  0
 15 16  1  0
 16 17  1  0
 17 18  1  0
 17 19  2  0
 17 20  2  0
 16 21  2  0
  8 22  2  0
 22 23  1  0
 23 24  1  0
 23 25  1  0
 22  4  1  0
 21 12  1  0
  1 26  1  0
  1 27  1  0
  1 28  1  0
  6 29  1  0
  6 30  1  0
  6 31  1  0
  7 32  1  0
 13 33  1  0
 14 34  1  0
 15 35  1  0
 18 36  1  0
 21 37  1  0
 23 38  1  0
 24 39  1  0
 24 40  1  0
 24 41  1  0
 25 42  1  0
 25 43  1  0
 25 44  1  0
M  CHG  2  11  -1  18  -1
M  END
>  <UniqueID>  (92) 
83

>  <SMILES>  (92) 
CC(=O)c1c(C)[nH]c(C(=O)[N-]c2cccc(S([NH-])(=O)=O)c2)c1C(C)C

>  <Energy>  (92) 
74.66839703062873

>  <Genealogy>  (92) 
CC(=O)c1c(C)[nH]c(C(=O)[N-]c2cccc(S([NH-])(=O)=O)c2)c1C(C)C (protonated)
CC(=O)c1c(C)[nH]c(C(=O)[N-]c2cccc(S([NH-])(=O)=O)c2)c1C(C)C (3D coordinates assigned)
CC(=O)c1c(C)[nH]c(C(=O)[N-]c2cccc(S([NH-])(=O)=O)c2)c1C(C)C (optimized conformer: 74.66839703062873 kcal/mol)

>  <smiles>  (92) 
CC(=O)c1c(C)[nH]c(C(=O)Nc2cccc(S(N)(=O)=O)c2)c1C(C)C

>  <score_type>  (92) 
oracle

>  <origin>  (92) 
adg

>  <m_score__min__energy>  (92) 
-12.57

>  <m_primary>  (92) 
energy

$$$$
92:0
     RDKit          3D

 61 64  0  0  0  0  0  0  0  0999 V2000
   58.2360   32.3370   48.1800 C   0  0  0  0  0  0  0  0  0  0  0  0
   58.3100   32.8720   46.7820 C   0  0  0  0  0  0  0  0  0  0  0  0
   58.9700   34.0770   46.5110 C   0  0  0  0  0  0  0  0  0  0  0  0
   59.0400   34.5130   45.1900 C   0  0  0  0  0  0  0  0  0  0  0  0
   58.4900   33.7650   44.1980 N   0  0  0  0  0  0  0  0  0  0  0  0
   57.8720   32.5830   44.4710 C   0  0  0  0  0  0  0  0  0  0  0  0
   57.3640   31.8600   43.5190 N   0  0  0  0  0  0  0  0  0  0  0  0
   56.7100   30.2720   43.7620 S   0  0  0  0  0  0  0  0  0  0  0  0
   56.4600   29.6330   42.4250 O   0  0  0  0  0  0  0  0  0  0  0  0
   55.4070   30.3770   44.5020 O   0  0  0  0  0  0  0  0  0  0  0  0
   57.8320   29.3060   44.7170 C   0  0  0  0  0  0  0  0  0  0  0  0
   57.3620   28.5860   45.8210 C   0  0  0  0  0  0  0  0  0  0  0  0
   58.2490   27.8460   46.6080 C   0  0  0  0  0  0  0  0  0  0  0  0
   59.6180   27.8260   46.3110 C   0  0  0  0  0  0  0  0  0  0  0  0
   60.4860   27.0480   47.1540 N   0  0  0  0  0  0  0  0  0  0  0  0
   60.3490   26.8700   48.4320 C   0  0  0  0  0  0  0  0  0  0  0  0
   60.8090   27.8900   49.4000 C   0  0  0  0  0  0  0  0  0  0  0  0
   61.1310   27.6420   50.7260 C   0  0  0  0  0  0  0  0  0  0  0  0
   61.1330   26.2990   51.4000 C   0  0  0  0  0  0  0  0  0  0  0  0
   61.4100   28.8730   51.3090 C   0  0  0  0  0  0  0  0  0  0  0  0
   61.8160   29.0820   52.7140 C   0  0  0  0  0  0  0  0  0  0  0  0
   62.9310   28.6660   53.1240 O   0  0  0  0  0  0  0  0  0  0  0  0
   60.9820   29.7620   53.5930 O   0  0  0  0  0  0  0  0  0  0  0  0
   61.2810   29.8570   50.3850 N   0  0  0  0  0  0  0  0  0  0  0  0
   61.3710   31.5760   50.6900 S   0  0  0  0  0  0  0  0  0  0  0  0
   61.6860   32.2910   49.4060 O   0  0  0  0  0  0  0  0  0  0  0  0
   62.4730   31.8780   51.6660 O   0  0  0  0  0  0  0  0  0  0  0  0
   59.8390   32.1560   51.3360 C   0  0  0  0  0  0  0  0  0  0  0  0
   59.7320   33.4670   51.8110 C   0  0  0  0  0  0  0  0  0  0  0  0
   58.5230   33.9280   52.3360 C   0  0  0  0  0  0  0  0  0  0  0  0
   57.4150   33.0780   52.3960 C   0  0  0  0  0  0  0  0  0  0  0  0
   57.5060   31.7530   51.9320 C   0  0  0  0  0  0  0  0  0  0  0  0
   56.3700   30.8730   51.9950 N   0  0  0  0  0  0  0  0  0  0  0  0
   56.5230   29.6340   52.0000 O   0  0  0  0  0  0  0  0  0  0  0  0
   55.0930   31.3820   52.0620 O   0  0  0  0  0  0  0  0  0  0  0  0
   58.7280   31.3010   51.4010 C   0  0  0  0  0  0  0  0  0  0  0  0
   60.9540   29.2630   49.2100 C   0  0  0  0  0  0  0  0  0  0  0  0
   60.7700   29.9950   47.9090 C   0  0  0  0  0  0  0  0  0  0  0  0
   60.0860   28.5350   45.1880 C   0  0  0  0  0  0  0  0  0  0  0  0
   59.1970   29.2720   44.3990 C   0  0  0  0  0  0  0  0  0  0  0  0
   57.7900   32.1460   45.7560 N   0  0  0  0  0  0  0  0  0  0  0  0
   58.3504   33.1644   48.8958 H   0  0  0  0  0  0  0  0  0  0  0  0
   57.2619   31.8500   48.3352 H   0  0  0  0  0  0  0  0  0  0  0  0
   59.0413   31.6039   48.3352 H   0  0  0  0  0  0  0  0  0  0  0  0
   59.4227   34.6656   47.3226 H   0  0  0  0  0  0  0  0  0  0  0  0
   59.5404   35.4627   44.9499 H   0  0  0  0  0  0  0  0  0  0  0  0
   56.2908   28.6024   46.0704 H   0  0  0  0  0  0  0  0  0  0  0  0
   57.8690   27.2746   47.4677 H   0  0  0  0  0  0  0  0  0  0  0  0
   59.8829   25.9449   48.8020 H   0  0  0  0  0  0  0  0  0  0  0  0
   61.1328   26.4365   52.4914 H   0  0  0  0  0  0  0  0  0  0  0  0
   60.2357   25.7374   51.1010 H   0  0  0  0  0  0  0  0  0  0  0  0
   62.0320   25.7400   51.1010 H   0  0  0  0  0  0  0  0  0  0  0  0
   60.6032   34.1373   51.7709 H   0  0  0  0  0  0  0  0  0  0  0  0
   58.4424   34.9618   52.7030 H   0  0  0  0  0  0  0  0  0  0  0  0
   56.4649   33.4478   52.8090 H   0  0  0  0  0  0  0  0  0  0  0  0
   58.8134   30.2678   51.0334 H   0  0  0  0  0  0  0  0  0  0  0  0
   60.5065   31.0434   48.1123 H   0  0  0  0  0  0  0  0  0  0  0  0
   61.7055   29.9574   47.3316 H   0  0  0  0  0  0  0  0  0  0  0  0
   59.9634   29.5195   47.3316 H   0  0  0  0  0  0  0  0  0  0  0  0
   61.1551   28.5091   44.9303 H   0  0  0  0  0  0  0  0  0  0  0  0
   59.5702   29.8270   43.5257 H   0  0  0  0  0  0  0  0  0  0  0  0
  1  2  1  0
  2  3  1  0
  3  4  2  0
  4  5  1  0
  5  6  1  0
  6  7  2  3
  7  8  1  0
  8  9  2  0
  8 10  2  0
  8 11  1  0
 11 12  2  0
 12 13  1  0
 13 14  2  0
 14 15  1  0
 15 16  2  3
 16 17  1  0
 17 18  1  0
 18 19  1  0
 18 20  2  0
 20 21  1  0
 21 22  2  0
 21 23  1  0
 20 24  1  0
 24 25  1  0
 25 26  2  0
 25 27  2  0
 25 28  1  0
 28 29  2  0
 29 30  1  0
 30 31  2  0
 31 32  1  0
 32 33  1  0
 33 34  2  0
 33 35  1  0
 32 36  2  0
 24 37  1  0
 37 38  1  0
 14 39  1  0
 39 40  2  0
  6 41  1  0
 41  2  2  0
 40 11  1  0
 37 17  2  0
 36 28  1  0
  1 42  1  0
  1 43  1  0
  1 44  1  0
  3 45  1  0
  4 46  1  0
 12 47  1  0
 13 48  1  0
 16 49  1  0
 19 50  1  0
 19 51  1  0
 19 52  1  0
 29 53  1  0
 30 54  1  0
 31 55  1  0
 36 56  1  0
 38 57  1  0
 38 58  1  0
 38 59  1  0
 39 60  1  0
 40 61  1  0
M  CHG  4   5  -1  23  -1  33   1  35  -1
M  END
>  <UniqueID>  (93) 
84

>  <SMILES>  (93) 
Cc1cc[n-]c(=NS(=O)(=O)c2ccc(N=Cc3c(C)c(C(=O)[O-])n(S(=O)(=O)c4cccc([N+](=O)[O-])c4)c3C)cc2)n1

>  <Energy>  (93) 
106.503406732625

>  <Genealogy>  (93) 
Cc1cc[n-]c(=NS(=O)(=O)c2ccc(N=Cc3c(C)c(C(=O)[O-])n(S(=O)(=O)c4cccc([N+](=O)[O-])c4)c3C)cc2)n1 (protonated)
Cc1cc[n-]c(=NS(=O)(=O)c2ccc(N=Cc3c(C)c(C(=O)[O-])n(S(=O)(=O)c4cccc([N+](=O)[O-])c4)c3C)cc2)n1 (3D coordinates assigned)
Cc1cc[n-]c(=NS(=O)(=O)c2ccc(N=Cc3c(C)c(C(=O)[O-])n(S(=O)(=O)c4cccc([N+](=O)[O-])c4)c3C)cc2)n1 (optimized conformer: 106.503406732625 kcal/mol)

>  <smiles>  (93) 
Cc1cc[nH]c(=NS(=O)(=O)c2ccc(N=Cc3c(C)c(C(=O)O)n(S(=O)(=O)c4cccc([N+](=O)[O-])c4)c3C)cc2)n1

>  <score_type>  (93) 
oracle

>  <origin>  (93) 
adg

>  <m_score__min__energy>  (93) 
-13.81

>  <m_primary>  (93) 
energy

$$$$
93:0
     RDKit          3D

 49 52  0  0  0  0  0  0  0  0999 V2000
   60.2423   34.7780   46.3804 H   0  0  0  0  0  0  0  0  0  0  0  0
   59.4490   34.1200   45.9960 C   0  0  0  0  0  0  0  0  0  0  0  0
   58.7470   33.2870   46.8710 C   0  0  0  0  0  0  0  0  0  0  0  0
   58.9882   33.2901   47.9442 H   0  0  0  0  0  0  0  0  0  0  0  0
   57.7390   32.4500   46.3850 C   0  0  0  0  0  0  0  0  0  0  0  0
   57.1864   31.7983   47.0777 H   0  0  0  0  0  0  0  0  0  0  0  0
   57.4290   32.4380   45.0150 C   0  0  0  0  0  0  0  0  0  0  0  0
   56.3260   31.5500   44.5000 C   0  0  0  0  0  0  0  0  0  0  0  0
   55.9037   31.9916   43.5853 H   0  0  0  0  0  0  0  0  0  0  0  0
   55.5496   31.4635   45.2744 H   0  0  0  0  0  0  0  0  0  0  0  0
   56.8400   30.2140   44.1960 N   0  0  0  0  0  0  0  0  0  0  0  0
   57.0210   29.2710   45.0730 C   0  0  0  0  0  0  0  0  0  0  0  0
   56.1740   28.2110   45.0970 N   0  0  0  0  0  0  0  0  0  0  0  0
   56.3410   27.2170   46.0050 C   0  0  0  0  0  0  0  0  0  0  0  0
   55.5360   26.1950   45.9900 N   0  0  0  0  0  0  0  0  0  0  0  0
   55.7500   24.9440   45.3130 C   0  0  0  0  0  0  0  0  0  0  0  0
   56.8110   24.7520   44.4060 C   0  0  0  0  0  0  0  0  0  0  0  0
   57.5057   25.5780   44.1935 H   0  0  0  0  0  0  0  0  0  0  0  0
   56.9850   23.5170   43.7750 C   0  0  0  0  0  0  0  0  0  0  0  0
   57.8030   23.3795   43.0525 H   0  0  0  0  0  0  0  0  0  0  0  0
   56.1210   22.4570   44.0610 C   0  0  0  0  0  0  0  0  0  0  0  0
   56.2930   21.2580   43.4510 F   0  0  0  0  0  0  0  0  0  0  0  0
   55.0890   22.6270   44.9870 C   0  0  0  0  0  0  0  0  0  0  0  0
   54.4167   21.7884   45.2209 H   0  0  0  0  0  0  0  0  0  0  0  0
   54.9100   23.8630   45.6170 C   0  0  0  0  0  0  0  0  0  0  0  0
   54.1048   23.9879   46.3560 H   0  0  0  0  0  0  0  0  0  0  0  0
   57.3760   27.2830   46.8810 N   0  0  0  0  0  0  0  0  0  0  0  0
   58.2350   28.3350   46.8640 C   0  0  0  0  0  0  0  0  0  0  0  0
   59.2080   28.4260   47.7240 N   0  0  0  0  0  0  0  0  0  0  0  0
   59.8310   29.6360   48.1920 C   0  0  0  0  0  0  0  0  0  0  0  0
   59.4900   30.2250   49.4240 C   0  0  0  0  0  0  0  0  0  0  0  0
   58.7207   29.7613   50.0589 H   0  0  0  0  0  0  0  0  0  0  0  0
   60.1250   31.3960   49.8430 C   0  0  0  0  0  0  0  0  0  0  0  0
   59.8422   31.8618   50.7985 H   0  0  0  0  0  0  0  0  0  0  0  0
   61.1180   31.9770   49.0520 C   0  0  0  0  0  0  0  0  0  0  0  0
   61.6060   32.9057   49.3828 H   0  0  0  0  0  0  0  0  0  0  0  0
   61.4970   31.3860   47.8410 C   0  0  0  0  0  0  0  0  0  0  0  0
   62.5110   32.0000   47.0900 O   0  0  0  0  0  0  0  0  0  0  0  0
   63.5230   32.8380   47.6400 C   0  0  0  0  0  0  0  0  0  0  0  0
   63.4751   32.7983   48.7382 H   0  0  0  0  0  0  0  0  0  0  0  0
   64.5106   32.4897   47.3033 H   0  0  0  0  0  0  0  0  0  0  0  0
   63.3649   33.8732   47.3033 H   0  0  0  0  0  0  0  0  0  0  0  0
   60.8530   30.2060   47.4200 C   0  0  0  0  0  0  0  0  0  0  0  0
   61.1548   29.7274   46.4767 H   0  0  0  0  0  0  0  0  0  0  0  0
   58.0480   29.3310   45.9640 N   0  0  0  0  0  0  0  0  0  0  0  0
   58.1370   33.2800   44.1410 C   0  0  0  0  0  0  0  0  0  0  0  0
   57.8989   33.2805   43.0671 H   0  0  0  0  0  0  0  0  0  0  0  0
   59.1430   34.1170   44.6320 C   0  0  0  0  0  0  0  0  0  0  0  0
   59.6948   34.7744   43.9440 H   0  0  0  0  0  0  0  0  0  0  0  0
  1  2  1  0
  2  3  2  0
  3  4  1  0
  3  5  1  0
  5  6  1  0
  5  7  2  0
  7  8  1  0
  8  9  1  0
  8 10  1  0
  8 11  1  0
 11 12  2  3
 12 13  1  0
 13 14  1  0
 14 15  2  0
 15 16  1  0
 16 17  2  0
 17 18  1  0
 17 19  1  0
 19 20  1  0
 19 21  2  0
 21 22  1  0
 21 23  1  0
 23 24  1  0
 23 25  2  0
 25 26  1  0
 14 27  1  0
 27 28  1  0
 28 29  2  0
 29 30  1  0
 30 31  2  0
 31 32  1  0
 31 33  1  0
 33 34  1  0
 33 35  2  0
 35 36  1  0
 35 37  1  0
 37 38  1  0
 38 39  1  0
 39 40  1  0
 39 41  1  0
 39 42  1  0
 37 43  2  0
 43 44  1  0
 28 45  1  0
  7 46  1  0
 46 47  1  0
 46 48  2  0
 48 49  1  0
 48  2  1  0
 45 12  1  0
 25 16  1  0
 43 30  1  0
M  CHG  3  13  -1  27  -1  45  -1
M  END
>  <UniqueID>  (94) 
85

>  <SMILES>  (94) 
COc1cccc(/N=c2/[n-]c(=NCc3ccccc3)[n-]/c(=N/c3ccc(F)cc3)[n-]2)c1

>  <Energy>  (94) 
63.72195530514069

>  <Genealogy>  (94) 
COc1cccc(N=c2[n-]c(=NCc3ccccc3)[n-]c(=Nc3ccc(F)cc3)[n-]2)c1 (protonated)
COc1cccc(/N=c2/[n-]c(=NCc3ccccc3)[n-]/c(=N/c3ccc(F)cc3)[n-]2)c1 (cis-trans isomerization)
COc1cccc(/N=c2/[n-]c(=NCc3ccccc3)[n-]/c(=N/c3ccc(F)cc3)[n-]2)c1 (3D coordinates assigned)
COc1cccc(/N=c2/[n-]c(=NCc3ccccc3)[n-]/c(=N/c3ccc(F)cc3)[n-]2)c1 (optimized conformer: 63.72195530514069 kcal/mol)

>  <smiles>  (94) 
COc1cccc(N=c2[nH]c(=NCc3ccccc3)[nH]c(=Nc3ccc(F)cc3)[nH]2)c1

>  <score_type>  (94) 
oracle

>  <origin>  (94) 
adg

>  <m_score__min__energy>  (94) 
-13.35

>  <m_primary>  (94) 
energy

$$$$
94:0
     RDKit          3D

 45 46  0  0  0  0  0  0  0  0999 V2000
   63.7150   32.8610   46.7480 C   0  0  0  0  0  0  0  0  0  0  0  0
   62.5910   33.0640   47.7620 C   0  0  0  0  0  0  0  0  0  0  0  0
   62.1570   31.7440   48.4150 C   0  0  0  0  0  0  0  0  0  0  0  0
   61.5680   30.8370   47.4320 N   0  0  0  0  0  0  0  0  0  0  0  0
   60.3400   30.1320   47.6770 C   0  0  0  0  0  0  0  0  0  0  0  0
   59.8040   30.1840   48.8180 O   0  0  0  0  0  0  0  0  0  0  0  0
   59.6610   29.3880   46.5940 C   0  0  0  0  0  0  0  0  0  0  0  0
   60.2230   28.2220   46.0440 C   0  0  0  0  0  0  0  0  0  0  0  0
   59.5920   27.5700   44.9790 C   0  0  0  0  0  0  0  0  0  0  0  0
   58.4070   28.0810   44.4440 C   0  0  0  0  0  0  0  0  0  0  0  0
   57.8330   29.2350   44.9910 C   0  0  0  0  0  0  0  0  0  0  0  0
   56.4030   29.9620   44.2690 S   0  0  0  0  0  0  0  0  0  0  0  0
   56.3680   29.7030   42.7880 O   0  0  0  0  0  0  0  0  0  0  0  0
   55.1810   29.3460   44.8890 O   0  0  0  0  0  0  0  0  0  0  0  0
   56.3950   31.6760   44.5740 N   0  0  0  0  0  0  0  0  0  0  0  0
   57.5890   32.3280   44.0250 C   0  0  0  0  0  0  0  0  0  0  0  0
   57.7010   33.7830   44.4990 C   0  0  0  0  0  0  0  0  0  0  0  0
   58.3530   33.8980   45.8560 C   0  0  0  0  0  0  0  0  0  0  0  0
   59.3480   34.8620   46.0900 C   0  0  0  0  0  0  0  0  0  0  0  0
   59.9500   34.9630   47.3490 C   0  0  0  0  0  0  0  0  0  0  0  0
   59.5620   34.1060   48.3820 C   0  0  0  0  0  0  0  0  0  0  0  0
   58.5690   33.1470   48.1580 C   0  0  0  0  0  0  0  0  0  0  0  0
   57.9640   33.0440   46.9010 C   0  0  0  0  0  0  0  0  0  0  0  0
   58.4480   29.8710   46.0750 C   0  0  0  0  0  0  0  0  0  0  0  0
   64.6624   32.6899   47.2801 H   0  0  0  0  0  0  0  0  0  0  0  0
   63.4864   31.9896   46.1168 H   0  0  0  0  0  0  0  0  0  0  0  0
   63.8057   33.7573   46.1168 H   0  0  0  0  0  0  0  0  0  0  0  0
   62.9414   33.7499   48.5474 H   0  0  0  0  0  0  0  0  0  0  0  0
   61.7236   33.4789   47.2277 H   0  0  0  0  0  0  0  0  0  0  0  0
   63.0359   31.2613   48.8672 H   0  0  0  0  0  0  0  0  0  0  0  0
   61.3998   31.9667   49.1812 H   0  0  0  0  0  0  0  0  0  0  0  0
   62.0360   30.7620   46.5010 H   0  0  0  0  0  0  0  0  0  0  0  0
   61.1623   27.8211   46.4527 H   0  0  0  0  0  0  0  0  0  0  0  0
   60.0306   26.6517   44.5614 H   0  0  0  0  0  0  0  0  0  0  0  0
   57.9251   27.5769   43.5933 H   0  0  0  0  0  0  0  0  0  0  0  0
   58.4815   31.7751   44.3533 H   0  0  0  0  0  0  0  0  0  0  0  0
   57.5103   32.3267   42.9278 H   0  0  0  0  0  0  0  0  0  0  0  0
   58.3013   34.3468   43.7698 H   0  0  0  0  0  0  0  0  0  0  0  0
   56.6817   34.1882   44.5814 H   0  0  0  0  0  0  0  0  0  0  0  0
   59.6550   35.5401   45.2801 H   0  0  0  0  0  0  0  0  0  0  0  0
   60.7299   35.7183   47.5258 H   0  0  0  0  0  0  0  0  0  0  0  0
   60.0373   34.1855   49.3708 H   0  0  0  0  0  0  0  0  0  0  0  0
   58.2633   32.4727   48.9715 H   0  0  0  0  0  0  0  0  0  0  0  0
   57.1804   32.2911   46.7303 H   0  0  0  0  0  0  0  0  0  0  0  0
   57.9774   30.7575   46.5251 H   0  0  0  0  0  0  0  0  0  0  0  0
  1  2  1  0
  2  3  1  0
  3  4  1  0
  4  5  1  0
  5  6  2  0
  5  7  1  0
  7  8  2  0
  8  9  1  0
  9 10  2  0
 10 11  1  0
 11 12  1  0
 12 13  2  0
 12 14  2  0
 12 15  1  0
 15 16  1  0
 16 17  1  0
 17 18  1  0
 18 19  2  0
 19 20  1  0
 20 21  2  0
 21 22  1  0
 22 23  2  0
 11 24  2  0
 24  7  1  0
 23 18  1  0
  1 25  1  0
  1 26  1  0
  1 27  1  0
  2 28  1  0
  2 29  1  0
  3 30  1  0
  3 31  1  0
  4 32  1  0
  8 33  1  0
  9 34  1  0
 10 35  1  0
 16 36  1  0
 16 37  1  0
 17 38  1  0
 17 39  1  0
 19 40  1  0
 20 41  1  0
 21 42  1  0
 22 43  1  0
 23 44  1  0
 24 45  1  0
M  CHG  1  15  -1
M  END
>  <UniqueID>  (95) 
86

>  <SMILES>  (95) 
CCCNC(=O)c1cccc(S(=O)(=O)[N-]CCc2ccccc2)c1

>  <Energy>  (95) 
35.81355476286649

>  <Genealogy>  (95) 
CCCNC(=O)c1cccc(S(=O)(=O)[N-]CCc2ccccc2)c1 (protonated)
CCCNC(=O)c1cccc(S(=O)(=O)[N-]CCc2ccccc2)c1 (3D coordinates assigned)
CCCNC(=O)c1cccc(S(=O)(=O)[N-]CCc2ccccc2)c1 (optimized conformer: 35.81355476286649 kcal/mol)

>  <smiles>  (95) 
CCCNC(=O)c1cccc(S(=O)(=O)NCCc2ccccc2)c1

>  <score_type>  (95) 
oracle

>  <origin>  (95) 
adg

>  <m_score__min__energy>  (95) 
-9.7300000000000004

>  <m_primary>  (95) 
energy

$$$$
95:0
     RDKit          3D

 41 42  0  0  0  0  0  0  0  0999 V2000
   56.9800   32.7220   45.5960 O   0  0  0  0  0  0  0  0  0  0  0  0
   57.7570   32.4200   44.6490 C   0  0  0  0  0  0  0  0  0  0  0  0
   58.7000   33.4550   44.1120 C   0  0  0  0  0  0  0  0  0  0  0  0
   58.8110   34.6540   45.0620 C   0  0  0  0  0  0  0  0  0  0  0  0
   59.6720   34.3370   46.2570 C   0  0  0  0  0  0  0  0  0  0  0  0
   60.9800   33.8510   46.0850 C   0  0  0  0  0  0  0  0  0  0  0  0
   61.7880   33.5920   47.1980 C   0  0  0  0  0  0  0  0  0  0  0  0
   61.2990   33.8180   48.4850 C   0  0  0  0  0  0  0  0  0  0  0  0
   60.0050   34.3100   48.6660 C   0  0  0  0  0  0  0  0  0  0  0  0
   59.1940   34.5770   47.5550 C   0  0  0  0  0  0  0  0  0  0  0  0
   57.7190   31.1130   44.0570 N   0  0  0  0  0  0  0  0  0  0  0  0
   56.6830   30.1520   44.3180 C   0  0  0  0  0  0  0  0  0  0  0  0
   55.6100   30.5110   44.8710 O   0  0  0  0  0  0  0  0  0  0  0  0
   56.8200   28.7900   43.8850 N   0  0  0  0  0  0  0  0  0  0  0  0
   58.0830   28.1170   43.7710 C   0  0  0  0  0  0  0  0  0  0  0  0
   59.1250   28.6200   44.2710 O   0  0  0  0  0  0  0  0  0  0  0  0
   58.1510   26.7550   43.1480 C   0  0  0  0  0  0  0  0  0  0  0  0
   57.6850   25.7120   44.1270 C   0  0  0  0  0  0  0  0  0  0  0  0
   57.6970   25.9820   45.5050 C   0  0  0  0  0  0  0  0  0  0  0  0
   57.2350   25.0250   46.4130 C   0  0  0  0  0  0  0  0  0  0  0  0
   56.7550   23.7970   45.9530 C   0  0  0  0  0  0  0  0  0  0  0  0
   56.7280   23.5260   44.5820 C   0  0  0  0  0  0  0  0  0  0  0  0
   57.1880   24.4800   43.6720 C   0  0  0  0  0  0  0  0  0  0  0  0
   59.6951   33.0030   43.9876 H   0  0  0  0  0  0  0  0  0  0  0  0
   58.3112   33.8116   43.1468 H   0  0  0  0  0  0  0  0  0  0  0  0
   59.2539   35.5010   44.5175 H   0  0  0  0  0  0  0  0  0  0  0  0
   57.8016   34.9027   45.4215 H   0  0  0  0  0  0  0  0  0  0  0  0
   61.3698   33.6736   45.0718 H   0  0  0  0  0  0  0  0  0  0  0  0
   62.8099   33.2098   47.0579 H   0  0  0  0  0  0  0  0  0  0  0  0
   61.9339   33.6082   49.3584 H   0  0  0  0  0  0  0  0  0  0  0  0
   59.6219   34.4882   49.6816 H   0  0  0  0  0  0  0  0  0  0  0  0
   58.1793   34.9760   47.7004 H   0  0  0  0  0  0  0  0  0  0  0  0
   58.4430   30.8830   43.3410 H   0  0  0  0  0  0  0  0  0  0  0  0
   55.9470   28.2410   43.7220 H   0  0  0  0  0  0  0  0  0  0  0  0
   57.5066   26.7305   42.2568 H   0  0  0  0  0  0  0  0  0  0  0  0
   59.1922   26.5415   42.8646 H   0  0  0  0  0  0  0  0  0  0  0  0
   58.0711   26.9495   45.8710 H   0  0  0  0  0  0  0  0  0  0  0  0
   57.2496   25.2396   47.4918 H   0  0  0  0  0  0  0  0  0  0  0  0
   56.3981   23.0428   46.6697 H   0  0  0  0  0  0  0  0  0  0  0  0
   56.3442   22.5608   44.2198 H   0  0  0  0  0  0  0  0  0  0  0  0
   57.1609   24.2654   42.5935 H   0  0  0  0  0  0  0  0  0  0  0  0
  1  2  2  0
  2  3  1  0
  3  4  1  0
  4  5  1  0
  5  6  2  0
  6  7  1  0
  7  8  2  0
  8  9  1  0
  9 10  2  0
  2 11  1  0
 11 12  1  0
 12 13  2  0
 12 14  1  0
 14 15  1  0
 15 16  2  0
 15 17  1  0
 17 18  1  0
 18 19  2  0
 19 20  1  0
 20 21  2  0
 21 22  1  0
 22 23  2  0
 10  5  1  0
 23 18  1  0
  3 24  1  0
  3 25  1  0
  4 26  1  0
  4 27  1  0
  6 28  1  0
  7 29  1  0
  8 30  1  0
  9 31  1  0
 10 32  1  0
 11 33  1  0
 14 34  1  0
 17 35  1  0
 17 36  1  0
 19 37  1  0
 20 38  1  0
 21 39  1  0
 22 40  1  0
 23 41  1  0
M  END
>  <UniqueID>  (96) 
87

>  <SMILES>  (96) 
O=C(CCc1ccccc1)NC(=O)NC(=O)Cc1ccccc1

>  <Energy>  (96) 
37.13080545806203

>  <Genealogy>  (96) 
O=C(CCc1ccccc1)NC(=O)NC(=O)Cc1ccccc1 (3D coordinates assigned)
O=C(CCc1ccccc1)NC(=O)NC(=O)Cc1ccccc1 (optimized conformer: 37.13080545806203 kcal/mol)

>  <smiles>  (96) 
O=C(CCc1ccccc1)NC(=O)NC(=O)Cc1ccccc1

>  <score_type>  (96) 
oracle

>  <origin>  (96) 
adg

>  <m_score__min__energy>  (96) 
-8.2899999999999991

>  <m_primary>  (96) 
energy

$$$$
96:0
     RDKit          3D

 51 53  0  0  0  0  0  0  0  0999 V2000
   54.7710   26.3450   46.1220 O   0  0  0  0  0  0  0  0  0  0  0  0
   55.9350   25.8780   46.0000 C   0  0  0  0  0  0  0  0  0  0  0  0
   56.1550   24.6460   45.1600 C   0  0  0  0  0  0  0  0  0  0  0  0
   54.8470   23.8810   44.9290 C   0  0  0  0  0  0  0  0  0  0  0  0
   54.9310   23.0180   43.7470 N   0  0  0  0  0  0  0  0  0  0  0  0
   56.3350   21.9860   43.7780 S   0  0  0  0  0  0  0  0  0  0  0  0
   57.5760   22.8230   43.6370 O   0  0  0  0  0  0  0  0  0  0  0  0
   56.2700   21.0460   42.6090 O   0  0  0  0  0  0  0  0  0  0  0  0
   56.4140   21.0330   45.2610 C   0  0  0  0  0  0  0  0  0  0  0  0
   55.9040   19.7270   45.2770 C   0  0  0  0  0  0  0  0  0  0  0  0
   55.9460   18.9700   46.4530 C   0  0  0  0  0  0  0  0  0  0  0  0
   56.4930   19.5160   47.6170 C   0  0  0  0  0  0  0  0  0  0  0  0
   56.9980   20.8200   47.6080 C   0  0  0  0  0  0  0  0  0  0  0  0
   56.9590   21.5780   46.4330 C   0  0  0  0  0  0  0  0  0  0  0  0
   57.0190   26.5490   46.6550 N   0  0  0  0  0  0  0  0  0  0  0  0
   57.8160   27.6130   46.1110 C   0  0  0  0  0  0  0  0  0  0  0  0
   57.2280   28.8160   45.6830 C   0  0  0  0  0  0  0  0  0  0  0  0
   58.0130   29.8380   45.1330 C   0  0  0  0  0  0  0  0  0  0  0  0
   57.2630   31.3470   44.6050 S   0  0  0  0  0  0  0  0  0  0  0  0
   55.7930   31.1210   44.3890 O   0  0  0  0  0  0  0  0  0  0  0  0
   57.8670   31.7660   43.2930 O   0  0  0  0  0  0  0  0  0  0  0  0
   57.4870   32.6260   45.7780 N   0  0  0  0  0  0  0  0  0  0  0  0
   57.3820   33.9640   45.1560 C   0  0  0  0  0  0  0  0  0  0  0  0
   58.7590   34.6320   44.9900 C   0  0  0  0  0  0  0  0  0  0  0  0
   59.4590   34.7880   46.2170 O   0  0  0  0  0  0  0  0  0  0  0  0
   59.2100   33.7490   47.1570 C   0  0  0  0  0  0  0  0  0  0  0  0
   58.7460   32.4290   46.5220 C   0  0  0  0  0  0  0  0  0  0  0  0
   59.3940   29.6500   45.0020 C   0  0  0  0  0  0  0  0  0  0  0  0
   59.9810   28.4460   45.3940 C   0  0  0  0  0  0  0  0  0  0  0  0
   59.1970   27.4240   45.9390 C   0  0  0  0  0  0  0  0  0  0  0  0
   59.9670   25.9190   46.4210 Cl  0  0  0  0  0  0  0  0  0  0  0  0
   56.5696   24.9468   44.1865 H   0  0  0  0  0  0  0  0  0  0  0  0
   56.8515   23.9839   45.6953 H   0  0  0  0  0  0  0  0  0  0  0  0
   54.6360   23.2590   45.8114 H   0  0  0  0  0  0  0  0  0  0  0  0
   54.0430   24.6136   44.7650 H   0  0  0  0  0  0  0  0  0  0  0  0
   55.4697   19.2964   44.3627 H   0  0  0  0  0  0  0  0  0  0  0  0
   55.5482   17.9445   46.4611 H   0  0  0  0  0  0  0  0  0  0  0  0
   56.5264   18.9199   48.5409 H   0  0  0  0  0  0  0  0  0  0  0  0
   57.4262   21.2499   48.5255 H   0  0  0  0  0  0  0  0  0  0  0  0
   57.3566   22.6036   46.4281 H   0  0  0  0  0  0  0  0  0  0  0  0
   56.1414   28.9563   45.7808 H   0  0  0  0  0  0  0  0  0  0  0  0
   56.9161   33.8595   44.1650 H   0  0  0  0  0  0  0  0  0  0  0  0
   56.7735   34.5991   45.8165 H   0  0  0  0  0  0  0  0  0  0  0  0
   59.3689   34.0122   44.3163 H   0  0  0  0  0  0  0  0  0  0  0  0
   58.5859   35.6392   44.5830 H   0  0  0  0  0  0  0  0  0  0  0  0
   60.1388   33.5570   47.7143 H   0  0  0  0  0  0  0  0  0  0  0  0
   58.3911   34.0955   47.8045 H   0  0  0  0  0  0  0  0  0  0  0  0
   59.5218   32.0678   45.8309 H   0  0  0  0  0  0  0  0  0  0  0  0
   58.5750   31.6918   47.3203 H   0  0  0  0  0  0  0  0  0  0  0  0
   60.0193   30.4548   44.5882 H   0  0  0  0  0  0  0  0  0  0  0  0
   61.0647   28.3002   45.2738 H   0  0  0  0  0  0  0  0  0  0  0  0
  1  2  2  0
  2  3  1  0
  3  4  1  0
  4  5  1  0
  5  6  1  0
  6  7  2  0
  6  8  2  0
  6  9  1  0
  9 10  2  0
 10 11  1  0
 11 12  2  0
 12 13  1  0
 13 14  2  0
  2 15  1  0
 15 16  1  0
 16 17  2  0
 17 18  1  0
 18 19  1  0
 19 20  2  0
 19 21  2  0
 19 22  1  0
 22 23  1  0
 23 24  1  0
 24 25  1  0
 25 26  1  0
 26 27  1  0
 18 28  2  0
 28 29  1  0
 29 30  2  0
 30 31  1  0
 14  9  1  0
 30 16  1  0
 27 22  1  0
  3 32  1  0
  3 33  1  0
  4 34  1  0
  4 35  1  0
 10 36  1  0
 11 37  1  0
 12 38  1  0
 13 39  1  0
 14 40  1  0
 17 41  1  0
 23 42  1  0
 23 43  1  0
 24 44  1  0
 24 45  1  0
 26 46  1  0
 26 47  1  0
 27 48  1  0
 27 49  1  0
 28 50  1  0
 29 51  1  0
M  CHG  2   5  -1  15  -1
M  END
>  <UniqueID>  (97) 
88

>  <SMILES>  (97) 
O=C(CC[N-]S(=O)(=O)c1ccccc1)[N-]c1cc(S(=O)(=O)N2CCOCC2)ccc1Cl

>  <Energy>  (97) 
66.29924687518378

>  <Genealogy>  (97) 
O=C(CC[N-]S(=O)(=O)c1ccccc1)[N-]c1cc(S(=O)(=O)N2CCOCC2)ccc1Cl (protonated)
O=C(CC[N-]S(=O)(=O)c1ccccc1)[N-]c1cc(S(=O)(=O)N2CCOCC2)ccc1Cl (3D coordinates assigned)
O=C(CC[N-]S(=O)(=O)c1ccccc1)[N-]c1cc(S(=O)(=O)N2CCOCC2)ccc1Cl (nonaromatic ring conformer: 66.29924687518378 kcal/mol)

>  <smiles>  (97) 
O=C(CCNS(=O)(=O)c1ccccc1)Nc1cc(S(=O)(=O)N2CCOCC2)ccc1Cl

>  <score_type>  (97) 
oracle

>  <origin>  (97) 
adg

>  <m_score__min__energy>  (97) 
-12.99

>  <m_primary>  (97) 
energy

$$$$
