0:0
     RDKit          3D

 50 52  0  0  0  0  0  0  0  0999 V2000
   60.8270   30.5290   47.2170 C   0  0  0  0  0  0  0  0  0  0  0  0
   60.3980   31.8870   47.2200 O   0  0  0  0  0  0  0  0  0  0  0  0
   59.4260   32.4140   46.3560 C   0  0  0  0  0  0  0  0  0  0  0  0
   59.5340   33.7010   45.7970 C   0  0  0  0  0  0  0  0  0  0  0  0
   58.5420   34.1770   44.9370 C   0  0  0  0  0  0  0  0  0  0  0  0
   57.4380   33.3790   44.6290 C   0  0  0  0  0  0  0  0  0  0  0  0
   57.3080   32.1010   45.1820 C   0  0  0  0  0  0  0  0  0  0  0  0
   56.1770   31.3440   44.8420 O   0  0  0  0  0  0  0  0  0  0  0  0
   56.1550   30.2650   43.9080 C   0  0  0  0  0  0  0  0  0  0  0  0
   57.2020   29.2520   44.2560 C   0  0  0  0  0  0  0  0  0  0  0  0
   58.1670   29.0560   43.4670 O   0  0  0  0  0  0  0  0  0  0  0  0
   57.0840   28.4920   45.4670 N   0  0  0  0  0  0  0  0  0  0  0  0
   57.9490   27.3860   45.7660 C   0  0  0  0  0  0  0  0  0  0  0  0
   59.3340   27.5820   45.6650 C   0  0  0  0  0  0  0  0  0  0  0  0
   60.2220   26.5580   45.9960 C   0  0  0  0  0  0  0  0  0  0  0  0
   59.7340   25.3250   46.4270 C   0  0  0  0  0  0  0  0  0  0  0  0
   58.3580   25.1050   46.5080 C   0  0  0  0  0  0  0  0  0  0  0  0
   57.4450   26.1210   46.1630 C   0  0  0  0  0  0  0  0  0  0  0  0
   55.9910   25.8190   46.1950 C   0  0  0  0  0  0  0  0  0  0  0  0
   55.1430   26.7300   45.9980 O   0  0  0  0  0  0  0  0  0  0  0  0
   55.5390   24.4720   46.3750 N   0  0  0  0  0  0  0  0  0  0  0  0
   55.5690   23.4370   45.3390 C   0  0  0  0  0  0  0  0  0  0  0  0
   56.6760   22.4150   45.5520 C   0  0  0  0  0  0  0  0  0  0  0  0
   56.9460   21.8520   44.1690 C   0  0  0  0  0  0  0  0  0  0  0  0
   56.6470   22.9850   43.1910 C   0  0  0  0  0  0  0  0  0  0  0  0
   55.8000   24.0120   43.9430 C   0  0  0  0  0  0  0  0  0  0  0  0
   58.3130   31.6230   46.0470 C   0  0  0  0  0  0  0  0  0  0  0  0
   60.9381   30.1773   48.2533 H   0  0  0  0  0  0  0  0  0  0  0  0
   60.0807   29.9099   46.6977 H   0  0  0  0  0  0  0  0  0  0  0  0
   61.7935   30.4510   46.6977 H   0  0  0  0  0  0  0  0  0  0  0  0
   60.4014   34.3332   46.0379 H   0  0  0  0  0  0  0  0  0  0  0  0
   58.6304   35.1831   44.5011 H   0  0  0  0  0  0  0  0  0  0  0  0
   56.6642   33.7589   43.9457 H   0  0  0  0  0  0  0  0  0  0  0  0
   55.1651   29.7858   43.9310 H   0  0  0  0  0  0  0  0  0  0  0  0
   56.3605   30.6595   42.9020 H   0  0  0  0  0  0  0  0  0  0  0  0
   56.2010   28.5830   46.0190 H   0  0  0  0  0  0  0  0  0  0  0  0
   59.7237   28.5517   45.3218 H   0  0  0  0  0  0  0  0  0  0  0  0
   61.3066   26.7233   45.9170 H   0  0  0  0  0  0  0  0  0  0  0  0
   60.4350   24.5238   46.7038 H   0  0  0  0  0  0  0  0  0  0  0  0
   57.9823   24.1276   46.8449 H   0  0  0  0  0  0  0  0  0  0  0  0
   54.5795   22.9627   45.4159 H   0  0  0  0  0  0  0  0  0  0  0  0
   57.5774   22.8974   45.9580 H   0  0  0  0  0  0  0  0  0  0  0  0
   56.3910   21.6343   46.2726 H   0  0  0  0  0  0  0  0  0  0  0  0
   57.9968   21.5385   44.0818 H   0  0  0  0  0  0  0  0  0  0  0  0
   56.3251   20.9673   43.9646 H   0  0  0  0  0  0  0  0  0  0  0  0
   57.5852   23.4465   42.8491 H   0  0  0  0  0  0  0  0  0  0  0  0
   56.1138   22.6090   42.3054 H   0  0  0  0  0  0  0  0  0  0  0  0
   56.3345   24.9711   44.0097 H   0  0  0  0  0  0  0  0  0  0  0  0
   54.8478   24.2009   43.4257 H   0  0  0  0  0  0  0  0  0  0  0  0
   58.2218   30.6176   46.4840 H   0  0  0  0  0  0  0  0  0  0  0  0
  1  2  1  0
  2  3  1  0
  3  4  2  0
  4  5  1  0
  5  6  2  0
  6  7  1  0
  7  8  1  0
  8  9  1  0
  9 10  1  0
 10 11  2  0
 10 12  1  0
 12 13  1  0
 13 14  2  0
 14 15  1  0
 15 16  2  0
 16 17  1  0
 17 18  2  0
 18 19  1  0
 19 20  2  0
 19 21  1  0
 21 22  1  0
 22 23  1  0
 23 24  1  0
 24 25  1  0
 25 26  1  0
  7 27  2  0
 27  3  1  0
 18 13  1  0
 26 22  1  0
  1 28  1  0
  1 29  1  0
  1 30  1  0
  4 31  1  0
  5 32  1  0
  6 33  1  0
  9 34  1  0
  9 35  1  0
 12 36  1  0
 14 37  1  0
 15 38  1  0
 16 39  1  0
 17 40  1  0
 22 41  1  0
 23 42  1  0
 23 43  1  0
 24 44  1  0
 24 45  1  0
 25 46  1  0
 25 47  1  0
 26 48  1  0
 26 49  1  0
 27 50  1  0
M  CHG  1  21  -1
M  END
>  <UniqueID>  (1) 
1

>  <SMILES>  (1) 
COc1cccc(OCC(=O)Nc2ccccc2C(=O)[N-]C2CCCC2)c1

>  <Energy>  (1) 
61.856054385724946

>  <Genealogy>  (1) 
COc1cccc(OCC(=O)Nc2ccccc2C(=O)[N-]C2CCCC2)c1 (protonated)
COc1cccc(OCC(=O)Nc2ccccc2C(=O)[N-]C2CCCC2)c1 (3D coordinates assigned)
COc1cccc(OCC(=O)Nc2ccccc2C(=O)[N-]C2CCCC2)c1 (nonaromatic ring conformer: 61.856054385724946 kcal/mol)

>  <smiles>  (1) 
COc1cccc(OCC(=O)Nc2ccccc2C(=O)NC2CCCC2)c1

>  <score_type>  (1) 
oracle

>  <origin>  (1) 
adg

>  <m_score__min__energy>  (1) 
-10.41

>  <m_primary>  (1) 
energy

$$$$
1:0
     RDKit          3D

 64 67  0  0  0  0  0  0  0  0999 V2000
   56.8680   22.5230   43.7520 C   0  0  0  0  0  0  0  0  0  0  0  0
   55.7730   23.2400   44.4850 C   0  0  0  0  0  0  0  0  0  0  0  0
   54.6550   22.5290   44.7950 N   0  0  0  0  0  0  0  0  0  0  0  0
   53.6210   23.0870   45.4710 C   0  0  0  0  0  0  0  0  0  0  0  0
   52.5970   22.4030   45.7370 O   0  0  0  0  0  0  0  0  0  0  0  0
   53.6880   24.3830   45.8650 N   0  0  0  0  0  0  0  0  0  0  0  0
   54.7860   25.1420   45.6080 C   0  0  0  0  0  0  0  0  0  0  0  0
   54.8000   26.3420   45.9960 O   0  0  0  0  0  0  0  0  0  0  0  0
   55.8870   24.5850   44.9220 C   0  0  0  0  0  0  0  0  0  0  0  0
   57.3520   25.5560   44.6270 S   0  0  0  0  0  0  0  0  0  0  0  0
   57.7510   25.5090   43.1750 O   0  0  0  0  0  0  0  0  0  0  0  0
   58.4710   24.9880   45.4550 O   0  0  0  0  0  0  0  0  0  0  0  0
   57.1140   27.2200   45.0650 N   0  0  0  0  0  0  0  0  0  0  0  0
   58.1520   28.0790   45.5710 C   0  0  0  0  0  0  0  0  0  0  0  0
   58.8780   27.7670   46.7350 C   0  0  0  0  0  0  0  0  0  0  0  0
   59.9170   28.5970   47.1660 C   0  0  0  0  0  0  0  0  0  0  0  0
   60.2350   29.7630   46.4530 C   0  0  0  0  0  0  0  0  0  0  0  0
   61.4080   30.6100   46.8660 C   0  0  0  0  0  0  0  0  0  0  0  0
   61.4410   30.7590   48.3930 C   0  0  0  0  0  0  0  0  0  0  0  0
   62.6080   31.5650   48.8180 N   0  0  0  0  0  0  0  0  0  0  0  0
   62.3140   32.3680   50.0240 C   0  0  0  0  0  0  0  0  0  0  0  0
   61.2870   33.4860   49.7420 C   0  0  0  0  0  0  0  0  0  0  0  0
   61.4870   34.2020   48.3650 C   0  0  0  0  0  0  0  0  0  0  0  0
   60.3900   33.8290   47.4190 N   0  0  0  0  0  0  0  0  0  0  0  0
   59.1370   33.5090   48.1450 C   0  0  0  0  0  0  0  0  0  0  0  0
   58.1820   32.7270   47.2230 C   0  0  0  0  0  0  0  0  0  0  0  0
   58.3600   33.1130   45.7440 C   0  0  0  0  0  0  0  0  0  0  0  0
   58.7900   34.5790   45.6060 C   0  0  0  0  0  0  0  0  0  0  0  0
   60.0970   34.8610   46.3860 C   0  0  0  0  0  0  0  0  0  0  0  0
   62.9160   33.8940   47.8400 C   0  0  0  0  0  0  0  0  0  0  0  0
   63.1920   32.3770   47.7190 C   0  0  0  0  0  0  0  0  0  0  0  0
   59.5000   30.0850   45.3030 C   0  0  0  0  0  0  0  0  0  0  0  0
   58.4620   29.2540   44.8730 C   0  0  0  0  0  0  0  0  0  0  0  0
   57.5596   22.0702   44.4777 H   0  0  0  0  0  0  0  0  0  0  0  0
   56.4317   21.7352   43.1204 H   0  0  0  0  0  0  0  0  0  0  0  0
   57.4157   23.2379   43.1204 H   0  0  0  0  0  0  0  0  0  0  0  0
   56.1690   27.6260   44.8710 H   0  0  0  0  0  0  0  0  0  0  0  0
   58.6263   26.8636   47.3100 H   0  0  0  0  0  0  0  0  0  0  0  0
   60.4882   28.3347   48.0687 H   0  0  0  0  0  0  0  0  0  0  0  0
   62.3389   30.1319   46.5272 H   0  0  0  0  0  0  0  0  0  0  0  0
   61.3104   31.6061   46.4097 H   0  0  0  0  0  0  0  0  0  0  0  0
   60.5184   31.2565   48.7267 H   0  0  0  0  0  0  0  0  0  0  0  0
   61.5211   29.7585   48.8430 H   0  0  0  0  0  0  0  0  0  0  0  0
   61.9104   31.7039   50.8025 H   0  0  0  0  0  0  0  0  0  0  0  0
   63.2506   32.8433   50.3508 H   0  0  0  0  0  0  0  0  0  0  0  0
   60.2803   33.0430   49.7584 H   0  0  0  0  0  0  0  0  0  0  0  0
   61.4266   34.2500   50.5210 H   0  0  0  0  0  0  0  0  0  0  0  0
   61.4160   35.2943   48.4742 H   0  0  0  0  0  0  0  0  0  0  0  0
   59.3733   32.8976   49.0284 H   0  0  0  0  0  0  0  0  0  0  0  0
   58.6516   34.4446   48.4595 H   0  0  0  0  0  0  0  0  0  0  0  0
   58.3822   31.6512   47.3354 H   0  0  0  0  0  0  0  0  0  0  0  0
   57.1508   32.9738   47.5158 H   0  0  0  0  0  0  0  0  0  0  0  0
   59.1297   32.4686   45.2942 H   0  0  0  0  0  0  0  0  0  0  0  0
   57.3971   32.9804   45.2290 H   0  0  0  0  0  0  0  0  0  0  0  0
   58.9525   34.8055   44.5419 H   0  0  0  0  0  0  0  0  0  0  0  0
   57.9944   35.2135   46.0235 H   0  0  0  0  0  0  0  0  0  0  0  0
   60.9329   34.8895   45.6715 H   0  0  0  0  0  0  0  0  0  0  0  0
   59.9700   35.8218   46.9063 H   0  0  0  0  0  0  0  0  0  0  0  0
   63.0331   34.3535   46.8475 H   0  0  0  0  0  0  0  0  0  0  0  0
   63.6330   34.3059   48.5654 H   0  0  0  0  0  0  0  0  0  0  0  0
   62.7699   32.0239   46.7666 H   0  0  0  0  0  0  0  0  0  0  0  0
   64.2830   32.2475   47.7739 H   0  0  0  0  0  0  0  0  0  0  0  0
   59.7417   30.9964   44.7365 H   0  0  0  0  0  0  0  0  0  0  0  0
   57.8827   29.5248   43.9780 H   0  0  0  0  0  0  0  0  0  0  0  0
  1  2  1  0
  2  3  1  0
  3  4  1  0
  4  5  2  0
  4  6  1  0
  6  7  1  0
  7  8  2  0
  7  9  1  0
  9 10  1  0
 10 11  2  0
 10 12  2  0
 10 13  1  0
 13 14  1  0
 14 15  2  0
 15 16  1  0
 16 17  2  0
 17 18  1  0
 18 19  1  0
 19 20  1  0
 20 21  1  0
 21 22  1  0
 22 23  1  0
 23 24  1  0
 24 25  1  0
 25 26  1  0
 26 27  1  0
 27 28  1  0
 28 29  1  0
 23 30  1  0
 30 31  1  0
 17 32  1  0
 32 33  2  0
  9  2  2  0
 33 14  1  0
 31 20  1  0
 29 24  1  0
  1 34  1  0
  1 35  1  0
  1 36  1  0
 13 37  1  0
 15 38  1  0
 16 39  1  0
 18 40  1  0
 18 41  1  0
 19 42  1  0
 19 43  1  0
 21 44  1  0
 21 45  1  0
 22 46  1  0
 22 47  1  0
 23 48  1  0
 25 49  1  0
 25 50  1  0
 26 51  1  0
 26 52  1  0
 27 53  1  0
 27 54  1  0
 28 55  1  0
 28 56  1  0
 29 57  1  0
 29 58  1  0
 30 59  1  0
 30 60  1  0
 31 61  1  0
 31 62  1  0
 32 63  1  0
 33 64  1  0
M  CHG  2   3  -1   6  -1
M  END
>  <UniqueID>  (2) 
2

>  <SMILES>  (2) 
Cc1[n-]c(=O)[n-]c(=O)c1S(=O)(=O)Nc1ccc(CCN2CCC(N3CCCCC3)CC2)cc1

>  <Energy>  (2) 
88.942598486362

>  <Genealogy>  (2) 
Cc1[n-]c(=O)[n-]c(=O)c1S(=O)(=O)Nc1ccc(CCN2CCC(N3CCCCC3)CC2)cc1 (protonated)
Cc1[n-]c(=O)[n-]c(=O)c1S(=O)(=O)Nc1ccc(CCN2CCC(N3CCCCC3)CC2)cc1 (3D coordinates assigned)
Cc1[n-]c(=O)[n-]c(=O)c1S(=O)(=O)Nc1ccc(CCN2CCC(N3CCCCC3)CC2)cc1 (nonaromatic ring conformer: 88.942598486362 kcal/mol)

>  <smiles>  (2) 
Cc1[nH]c(=O)[nH]c(=O)c1S(=O)(=O)Nc1ccc(CCN2CCC(N3CCCCC3)CC2)cc1

>  <score_type>  (2) 
oracle

>  <origin>  (2) 
adg

>  <m_score__min__energy>  (2) 
-14.140000000000001

>  <m_primary>  (2) 
energy

$$$$
2:0
     RDKit          3D

 42 44  0  0  0  0  0  0  0  0999 V2000
   61.4880   33.7020   51.0870 O   0  0  0  0  0  0  0  0  0  0  0  0
   60.2990   33.8490   50.6970 C   0  0  0  0  0  0  0  0  0  0  0  0
   59.2710   33.8840   51.6300 O   0  0  0  0  0  0  0  0  0  0  0  0
   60.0010   33.9770   49.2670 C   0  0  0  0  0  0  0  0  0  0  0  0
   60.7660   34.6570   48.5320 O   0  0  0  0  0  0  0  0  0  0  0  0
   58.8780   33.2810   48.7120 N   0  0  0  0  0  0  0  0  0  0  0  0
   58.5560   33.1430   47.3170 C   0  0  0  0  0  0  0  0  0  0  0  0
   57.9140   34.1850   46.6300 C   0  0  0  0  0  0  0  0  0  0  0  0
   57.5970   34.0510   45.2840 C   0  0  0  0  0  0  0  0  0  0  0  0
   57.9020   32.8770   44.6060 C   0  0  0  0  0  0  0  0  0  0  0  0
   58.5150   31.7960   45.2660 C   0  0  0  0  0  0  0  0  0  0  0  0
   58.7890   30.5570   44.4290 C   0  0  0  0  0  0  0  0  0  0  0  0
   57.8910   29.4080   44.8450 C   0  0  0  0  0  0  0  0  0  0  0  0
   58.4350   28.1810   45.2690 C   0  0  0  0  0  0  0  0  0  0  0  0
   59.8120   27.9900   45.2950 O   0  0  0  0  0  0  0  0  0  0  0  0
   57.6130   27.1710   45.6600 N   0  0  0  0  0  0  0  0  0  0  0  0
   56.2650   27.3200   45.6510 C   0  0  0  0  0  0  0  0  0  0  0  0
   55.5260   26.3700   46.0180 O   0  0  0  0  0  0  0  0  0  0  0  0
   55.7140   28.4910   45.2470 N   0  0  0  0  0  0  0  0  0  0  0  0
   56.4880   29.5320   44.8470 C   0  0  0  0  0  0  0  0  0  0  0  0
   55.9350   30.6040   44.4820 O   0  0  0  0  0  0  0  0  0  0  0  0
   58.8420   31.9240   46.6510 C   0  0  0  0  0  0  0  0  0  0  0  0
   59.5570   30.8330   47.4360 C   0  0  0  0  0  0  0  0  0  0  0  0
   60.9400   31.2780   47.8440 C   0  0  0  0  0  0  0  0  0  0  0  0
   61.5100   30.8220   49.0470 C   0  0  0  0  0  0  0  0  0  0  0  0
   62.8010   31.2200   49.4120 C   0  0  0  0  0  0  0  0  0  0  0  0
   63.5290   32.0790   48.5840 C   0  0  0  0  0  0  0  0  0  0  0  0
   62.9680   32.5440   47.3900 C   0  0  0  0  0  0  0  0  0  0  0  0
   61.6780   32.1480   47.0210 C   0  0  0  0  0  0  0  0  0  0  0  0
   57.6601   35.1143   47.1610 H   0  0  0  0  0  0  0  0  0  0  0  0
   57.1025   34.8776   44.7528 H   0  0  0  0  0  0  0  0  0  0  0  0
   57.6604   32.7914   43.5363 H   0  0  0  0  0  0  0  0  0  0  0  0
   58.6057   30.7911   43.3699 H   0  0  0  0  0  0  0  0  0  0  0  0
   59.8358   30.2558   44.5827 H   0  0  0  0  0  0  0  0  0  0  0  0
   60.3610   28.0380   44.4460 H   0  0  0  0  0  0  0  0  0  0  0  0
   58.9738   30.5983   48.3386 H   0  0  0  0  0  0  0  0  0  0  0  0
   59.6499   29.9438   46.7951 H   0  0  0  0  0  0  0  0  0  0  0  0
   60.9382   30.1496   49.7035 H   0  0  0  0  0  0  0  0  0  0  0  0
   63.2432   30.8565   50.3513 H   0  0  0  0  0  0  0  0  0  0  0  0
   64.5442   32.3897   48.8716 H   0  0  0  0  0  0  0  0  0  0  0  0
   63.5417   33.2216   46.7406 H   0  0  0  0  0  0  0  0  0  0  0  0
   61.2388   32.5186   46.0831 H   0  0  0  0  0  0  0  0  0  0  0  0
  1  2  2  0
  2  3  1  0
  2  4  1  0
  4  5  2  0
  4  6  1  0
  6  7  1  0
  7  8  2  0
  8  9  1  0
  9 10  2  0
 10 11  1  0
 11 12  1  0
 12 13  1  0
 13 14  2  0
 14 15  1  0
 14 16  1  0
 16 17  1  0
 17 18  2  0
 17 19  1  0
 19 20  1  0
 20 21  2  0
 11 22  2  0
 22 23  1  0
 23 24  1  0
 24 25  2  0
 25 26  1  0
 26 27  2  0
 27 28  1  0
 28 29  2  0
 22  7  1  0
 29 24  1  0
 20 13  1  0
  8 30  1  0
  9 31  1  0
 10 32  1  0
 12 33  1  0
 12 34  1  0
 15 35  1  0
 23 36  1  0
 23 37  1  0
 25 38  1  0
 26 39  1  0
 27 40  1  0
 28 41  1  0
 29 42  1  0
M  CHG  4   3  -1   6  -1  16  -1  19  -1
M  END
>  <UniqueID>  (3) 
3

>  <SMILES>  (3) 
O=C([O-])C(=O)[N-]c1cccc(Cc2c(O)[n-]c(=O)[n-]c2=O)c1Cc1ccccc1

>  <Energy>  (3) 
52.991961140551325

>  <Genealogy>  (3) 
O=C([O-])C(=O)[N-]c1cccc(Cc2c(O)[n-]c(=O)[n-]c2=O)c1Cc1ccccc1 (protonated)
O=C([O-])C(=O)[N-]c1cccc(Cc2c(O)[n-]c(=O)[n-]c2=O)c1Cc1ccccc1 (3D coordinates assigned)
O=C([O-])C(=O)[N-]c1cccc(Cc2c(O)[n-]c(=O)[n-]c2=O)c1Cc1ccccc1 (optimized conformer: 52.991961140551325 kcal/mol)

>  <smiles>  (3) 
O=C(O)C(=O)Nc1cccc(Cc2c(O)[nH]c(=O)[nH]c2=O)c1Cc1ccccc1

>  <score_type>  (3) 
oracle

>  <origin>  (3) 
adg

>  <m_score__min__energy>  (3) 
-13.710000000000001

>  <m_primary>  (3) 
energy

$$$$
3:0
     RDKit          3D

 41 42  0  0  0  0  0  0  0  0999 V2000
   50.1200   25.2570   43.8150 C   0  0  0  0  0  0  0  0  0  0  0  0
   50.9060   24.4140   44.4940 C   0  0  0  0  0  0  0  0  0  0  0  0
   52.0030   23.6310   43.8200 C   0  0  0  0  0  0  0  0  0  0  0  0
   52.8630   23.0020   44.8240 N   0  0  0  0  0  0  0  0  0  0  0  0
   53.9280   23.5480   45.3370 C   0  0  0  0  0  0  0  0  0  0  0  0
   54.0320   24.8950   45.4660 N   0  0  0  0  0  0  0  0  0  0  0  0
   55.1500   25.4560   45.9920 C   0  0  0  0  0  0  0  0  0  0  0  0
   55.2160   26.7130   46.0880 O   0  0  0  0  0  0  0  0  0  0  0  0
   56.1930   24.6640   46.4030 N   0  0  0  0  0  0  0  0  0  0  0  0
   57.4460   25.2760   46.8860 C   0  0  0  0  0  0  0  0  0  0  0  0
   58.1770   25.8850   45.7300 C   0  0  0  0  0  0  0  0  0  0  0  0
   59.4270   25.7260   45.6270 O   0  0  0  0  0  0  0  0  0  0  0  0
   57.4770   26.7240   44.8000 N   0  0  0  0  0  0  0  0  0  0  0  0
   58.1690   27.7230   43.9880 C   0  0  0  0  0  0  0  0  0  0  0  0
   58.0250   29.1030   44.6110 C   0  0  0  0  0  0  0  0  0  0  0  0
   58.9480   29.5090   45.5940 C   0  0  0  0  0  0  0  0  0  0  0  0
   58.8500   30.7690   46.1950 C   0  0  0  0  0  0  0  0  0  0  0  0
   57.7990   31.6190   45.8340 C   0  0  0  0  0  0  0  0  0  0  0  0
   57.6550   32.7790   46.4040 N   0  0  0  0  0  0  0  0  0  0  0  0
   56.9030   31.2140   44.8940 N   0  0  0  0  0  0  0  0  0  0  0  0
   56.9800   29.9980   44.2720 C   0  0  0  0  0  0  0  0  0  0  0  0
   55.9420   29.6600   43.2380 C   0  0  0  0  0  0  0  0  0  0  0  0
   56.0800   23.3020   46.2670 C   0  0  0  0  0  0  0  0  0  0  0  0
   57.0200   22.5360   46.6170 O   0  0  0  0  0  0  0  0  0  0  0  0
   54.9520   22.7590   45.7430 N   0  0  0  0  0  0  0  0  0  0  0  0
   49.3283   25.8131   44.3384 H   0  0  0  0  0  0  0  0  0  0  0  0
   50.2654   25.3941   42.7333 H   0  0  0  0  0  0  0  0  0  0  0  0
   50.7470   24.2888   45.5752 H   0  0  0  0  0  0  0  0  0  0  0  0
   51.5562   22.8522   43.1845 H   0  0  0  0  0  0  0  0  0  0  0  0
   52.6076   24.3145   43.2058 H   0  0  0  0  0  0  0  0  0  0  0  0
   57.2126   26.0563   47.6254 H   0  0  0  0  0  0  0  0  0  0  0  0
   58.0754   24.5055   47.3553 H   0  0  0  0  0  0  0  0  0  0  0  0
   56.4320   26.6840   44.7670 H   0  0  0  0  0  0  0  0  0  0  0  0
   59.2360   27.4631   43.9248 H   0  0  0  0  0  0  0  0  0  0  0  0
   57.7237   27.7367   42.9822 H   0  0  0  0  0  0  0  0  0  0  0  0
   59.7570   28.8265   45.8935 H   0  0  0  0  0  0  0  0  0  0  0  0
   59.5910   31.0876   46.9429 H   0  0  0  0  0  0  0  0  0  0  0  0
   56.7750   33.0590   46.9010 H   0  0  0  0  0  0  0  0  0  0  0  0
   55.0107   29.3568   43.7388 H   0  0  0  0  0  0  0  0  0  0  0  0
   55.7499   30.5420   42.6094 H   0  0  0  0  0  0  0  0  0  0  0  0
   56.3060   28.8340   42.6094 H   0  0  0  0  0  0  0  0  0  0  0  0
  1  2  2  0
  2  3  1  0
  3  4  1  0
  4  5  2  3
  5  6  1  0
  6  7  1  0
  7  8  2  0
  7  9  1  0
  9 10  1  0
 10 11  1  0
 11 12  2  0
 11 13  1  0
 13 14  1  0
 14 15  1  0
 15 16  1  0
 16 17  2  0
 17 18  1  0
 18 19  2  3
 18 20  1  0
 20 21  1  0
 21 22  1  0
  9 23  1  0
 23 24  2  0
 23 25  1  0
 25  5  1  0
 21 15  2  0
  1 26  1  0
  1 27  1  0
  2 28  1  0
  3 29  1  0
  3 30  1  0
 10 31  1  0
 10 32  1  0
 13 33  1  0
 14 34  1  0
 14 35  1  0
 16 36  1  0
 17 37  1  0
 19 38  1  0
 22 39  1  0
 22 40  1  0
 22 41  1  0
M  CHG  3   6  -1  20  -1  25  -1
M  END
>  <UniqueID>  (4) 
4

>  <SMILES>  (4) 
C=CCN=c1[n-]c(=O)n(CC(=O)NCc2ccc(=N)[n-]c2C)c(=O)[n-]1

>  <Energy>  (4) 
38.364258688568846

>  <Genealogy>  (4) 
C=CCN=c1[n-]c(=O)n(CC(=O)NCc2ccc(=N)[n-]c2C)c(=O)[n-]1 (protonated)
C=CCN=c1[n-]c(=O)n(CC(=O)NCc2ccc(=N)[n-]c2C)c(=O)[n-]1 (3D coordinates assigned)
C=CCN=c1[n-]c(=O)n(CC(=O)NCc2ccc(=N)[n-]c2C)c(=O)[n-]1 (optimized conformer: 38.364258688568846 kcal/mol)

>  <smiles>  (4) 
C=CCN=c1[nH]c(=O)n(CC(=O)NCc2ccc(=N)[nH]c2C)c(=O)[nH]1

>  <score_type>  (4) 
oracle

>  <origin>  (4) 
adg

>  <m_score__min__energy>  (4) 
-11.76

>  <m_primary>  (4) 
energy

$$$$
4:0
     RDKit          3D

 54 57  0  0  0  0  0  0  0  0999 V2000
   56.2190   29.3850   42.9950 C   0  0  0  0  0  0  0  0  0  0  0  0
   57.0840   30.1260   43.9080 N   0  0  0  0  0  0  0  0  0  0  0  0
   57.0420   31.4570   44.1160 C   0  0  0  0  0  0  0  0  0  0  0  0
   57.9220   31.7930   45.1250 C   0  0  0  0  0  0  0  0  0  0  0  0
   58.0860   33.1120   45.7470 C   0  0  0  0  0  0  0  0  0  0  0  0
   58.6860   33.3020   46.9370 C   0  0  0  0  0  0  0  0  0  0  0  0
   59.6100   34.4860   47.1010 C   0  0  0  0  0  0  0  0  0  0  0  0
   60.1190   34.6090   48.5410 C   0  0  0  0  0  0  0  0  0  0  0  0
   60.6110   33.3110   49.0170 N   0  0  0  0  0  0  0  0  0  0  0  0
   61.9470   33.2050   49.5250 C   0  0  0  0  0  0  0  0  0  0  0  0
   62.1490   33.3240   50.8660 N   0  0  0  0  0  0  0  0  0  0  0  0
   63.3900   33.2960   51.4160 C   0  0  0  0  0  0  0  0  0  0  0  0
   64.5120   33.1540   50.6010 C   0  0  0  0  0  0  0  0  0  0  0  0
   64.3420   33.0250   49.2220 C   0  0  0  0  0  0  0  0  0  0  0  0
   63.0550   33.0300   48.6610 C   0  0  0  0  0  0  0  0  0  0  0  0
   62.8920   32.8270   47.2450 N   0  0  0  0  0  0  0  0  0  0  0  0
   62.4560   31.7440   46.8030 O   0  0  0  0  0  0  0  0  0  0  0  0
   63.3610   33.7650   46.3540 O   0  0  0  0  0  0  0  0  0  0  0  0
   59.8360   32.0810   48.7940 C   0  0  0  0  0  0  0  0  0  0  0  0
   58.4910   32.3650   48.1130 C   0  0  0  0  0  0  0  0  0  0  0  0
   58.5260   30.6310   45.5520 C   0  0  0  0  0  0  0  0  0  0  0  0
   57.9670   29.6130   44.7970 C   0  0  0  0  0  0  0  0  0  0  0  0
   58.1850   28.1710   45.0390 C   0  0  0  0  0  0  0  0  0  0  0  0
   59.2080   27.6080   44.5710 O   0  0  0  0  0  0  0  0  0  0  0  0
   57.2700   27.4020   45.8340 N   0  0  0  0  0  0  0  0  0  0  0  0
   57.0010   26.0020   45.6660 C   0  0  0  0  0  0  0  0  0  0  0  0
   58.0760   25.1320   45.4400 C   0  0  0  0  0  0  0  0  0  0  0  0
   57.8600   23.7560   45.3150 C   0  0  0  0  0  0  0  0  0  0  0  0
   59.2170   22.6740   45.0630 Cl  0  0  0  0  0  0  0  0  0  0  0  0
   56.5620   23.2420   45.3980 C   0  0  0  0  0  0  0  0  0  0  0  0
   55.4800   24.1030   45.5860 C   0  0  0  0  0  0  0  0  0  0  0  0
   55.6870   25.4850   45.7050 C   0  0  0  0  0  0  0  0  0  0  0  0
   54.5940   26.3390   45.8410 O   0  0  0  0  0  0  0  0  0  0  0  0
   55.5091   28.7769   43.5749 H   0  0  0  0  0  0  0  0  0  0  0  0
   55.6637   30.0920   42.3611 H   0  0  0  0  0  0  0  0  0  0  0  0
   56.8323   28.7278   42.3611 H   0  0  0  0  0  0  0  0  0  0  0  0
   56.4050   32.1659   43.5667 H   0  0  0  0  0  0  0  0  0  0  0  0
   57.6982   33.9918   45.2127 H   0  0  0  0  0  0  0  0  0  0  0  0
   60.4709   34.3630   46.4274 H   0  0  0  0  0  0  0  0  0  0  0  0
   59.0467   35.3985   46.8560 H   0  0  0  0  0  0  0  0  0  0  0  0
   60.9377   35.3428   48.5756 H   0  0  0  0  0  0  0  0  0  0  0  0
   59.2920   34.9384   49.1872 H   0  0  0  0  0  0  0  0  0  0  0  0
   63.5102   33.3855   52.5057 H   0  0  0  0  0  0  0  0  0  0  0  0
   65.5205   33.1437   51.0402 H   0  0  0  0  0  0  0  0  0  0  0  0
   65.2219   32.9187   48.5704 H   0  0  0  0  0  0  0  0  0  0  0  0
   60.4214   31.4032   48.1553 H   0  0  0  0  0  0  0  0  0  0  0  0
   59.6312   31.6259   49.7743 H   0  0  0  0  0  0  0  0  0  0  0  0
   58.0579   31.4191   47.7557 H   0  0  0  0  0  0  0  0  0  0  0  0
   57.8140   32.8378   48.8397 H   0  0  0  0  0  0  0  0  0  0  0  0
   59.2947   30.5318   46.3326 H   0  0  0  0  0  0  0  0  0  0  0  0
   59.0968   25.5341   45.3604 H   0  0  0  0  0  0  0  0  0  0  0  0
   56.3938   22.1581   45.3150 H   0  0  0  0  0  0  0  0  0  0  0  0
   54.4597   23.6957   45.6411 H   0  0  0  0  0  0  0  0  0  0  0  0
   54.3220   26.7160   46.7410 H   0  0  0  0  0  0  0  0  0  0  0  0
  1  2  1  0
  2  3  1  0
  3  4  2  0
  4  5  1  0
  5  6  2  3
  6  7  1  0
  7  8  1  0
  8  9  1  0
  9 10  1  0
 10 11  2  0
 11 12  1  0
 12 13  2  0
 13 14  1  0
 14 15  2  0
 15 16  1  0
 16 17  2  0
 16 18  1  0
  9 19  1  0
 19 20  1  0
  4 21  1  0
 21 22  2  0
 22 23  1  0
 23 24  2  0
 23 25  1  0
 25 26  1  0
 26 27  2  0
 27 28  1  0
 28 29  1  0
 28 30  2  0
 30 31  1  0
 31 32  2  0
 32 33  1  0
 22  2  1  0
 32 26  1  0
 20  6  1  0
 15 10  1  0
  1 34  1  0
  1 35  1  0
  1 36  1  0
  3 37  1  0
  5 38  1  0
  7 39  1  0
  7 40  1  0
  8 41  1  0
  8 42  1  0
 12 43  1  0
 13 44  1  0
 14 45  1  0
 19 46  1  0
 19 47  1  0
 20 48  1  0
 20 49  1  0
 21 50  1  0
 27 51  1  0
 30 52  1  0
 31 53  1  0
 33 54  1  0
M  CHG  3  16   1  18  -1  25  -1
M  END
>  <UniqueID>  (5) 
5

>  <SMILES>  (5) 
Cn1cc(C=C2CCN(c3ncccc3[N+](=O)[O-])CC2)cc1C(=O)[N-]c1cc(Cl)ccc1O

>  <Energy>  (5) 
105.2642371849163

>  <Genealogy>  (5) 
Cn1cc(C=C2CCN(c3ncccc3[N+](=O)[O-])CC2)cc1C(=O)[N-]c1cc(Cl)ccc1O (protonated)
Cn1cc(C=C2CCN(c3ncccc3[N+](=O)[O-])CC2)cc1C(=O)[N-]c1cc(Cl)ccc1O (3D coordinates assigned)
Cn1cc(C=C2CCN(c3ncccc3[N+](=O)[O-])CC2)cc1C(=O)[N-]c1cc(Cl)ccc1O (nonaromatic ring conformer: 105.2642371849163 kcal/mol)

>  <smiles>  (5) 
Cn1cc(C=C2CCN(c3ncccc3[N+](=O)[O-])CC2)cc1C(=O)Nc1cc(Cl)ccc1O

>  <score_type>  (5) 
oracle

>  <origin>  (5) 
adg

>  <m_score__min__energy>  (5) 
-13.6

>  <m_primary>  (5) 
energy

$$$$
5:0
     RDKit          3D

 50 52  0  0  0  0  0  0  0  0999 V2000
   53.2550   24.8800   45.6130 O   0  0  0  0  0  0  0  0  0  0  0  0
   53.9220   23.8270   45.4280 C   0  0  0  0  0  0  0  0  0  0  0  0
   55.4130   23.9350   45.2840 C   0  0  0  0  0  0  0  0  0  0  0  0
   56.2100   24.0830   46.9190 S   0  0  0  0  0  0  0  0  0  0  0  0
   57.1640   25.5440   46.4920 C   0  0  0  0  0  0  0  0  0  0  0  0
   58.5590   25.5070   46.5860 C   0  0  0  0  0  0  0  0  0  0  0  0
   59.3110   26.6550   46.3270 C   0  0  0  0  0  0  0  0  0  0  0  0
   58.6720   27.8410   45.9520 C   0  0  0  0  0  0  0  0  0  0  0  0
   57.2750   27.8830   45.8170 C   0  0  0  0  0  0  0  0  0  0  0  0
   56.6050   29.1090   45.4730 N   0  0  0  0  0  0  0  0  0  0  0  0
   57.2640   30.2280   44.8580 C   0  0  0  0  0  0  0  0  0  0  0  0
   58.3640   30.0680   44.2700 O   0  0  0  0  0  0  0  0  0  0  0  0
   56.6740   31.5320   44.8690 N   0  0  0  0  0  0  0  0  0  0  0  0
   57.5760   33.0070   44.7400 S   0  0  0  0  0  0  0  0  0  0  0  0
   56.6360   34.1700   44.8920 O   0  0  0  0  0  0  0  0  0  0  0  0
   58.2190   33.0690   43.3850 O   0  0  0  0  0  0  0  0  0  0  0  0
   58.8380   33.0660   45.9660 C   0  0  0  0  0  0  0  0  0  0  0  0
   59.1980   34.2860   46.5570 C   0  0  0  0  0  0  0  0  0  0  0  0
   60.2110   34.3290   47.5180 C   0  0  0  0  0  0  0  0  0  0  0  0
   60.8690   33.1530   47.8970 C   0  0  0  0  0  0  0  0  0  0  0  0
   62.1410   33.2050   49.1080 Cl  0  0  0  0  0  0  0  0  0  0  0  0
   60.5170   31.9320   47.3050 C   0  0  0  0  0  0  0  0  0  0  0  0
   59.5060   31.8890   46.3410 C   0  0  0  0  0  0  0  0  0  0  0  0
   56.5200   26.7280   46.0980 C   0  0  0  0  0  0  0  0  0  0  0  0
   55.1340   26.7600   45.9940 O   0  0  0  0  0  0  0  0  0  0  0  0
   53.2190   22.5830   45.3040 N   0  0  0  0  0  0  0  0  0  0  0  0
   53.3980   21.4000   46.1450 C   0  0  0  0  0  0  0  0  0  0  0  0
   53.3680   21.7760   47.6000 C   0  0  0  0  0  0  0  0  0  0  0  0
   54.5260   21.6710   48.3920 C   0  0  0  0  0  0  0  0  0  0  0  0
   54.4820   21.9990   49.7510 C   0  0  0  0  0  0  0  0  0  0  0  0
   53.2840   22.4270   50.3310 C   0  0  0  0  0  0  0  0  0  0  0  0
   52.1280   22.5320   49.5500 C   0  0  0  0  0  0  0  0  0  0  0  0
   52.1690   22.2030   48.1910 C   0  0  0  0  0  0  0  0  0  0  0  0
   55.7929   23.0356   44.7772 H   0  0  0  0  0  0  0  0  0  0  0  0
   55.6471   24.8333   44.6939 H   0  0  0  0  0  0  0  0  0  0  0  0
   59.0653   24.5710   46.8647 H   0  0  0  0  0  0  0  0  0  0  0  0
   60.4068   26.6263   46.4181 H   0  0  0  0  0  0  0  0  0  0  0  0
   59.2672   28.7463   45.7617 H   0  0  0  0  0  0  0  0  0  0  0  0
   55.5740   29.1610   45.6240 H   0  0  0  0  0  0  0  0  0  0  0  0
   58.6813   35.2115   46.2630 H   0  0  0  0  0  0  0  0  0  0  0  0
   60.4919   35.2881   47.9775 H   0  0  0  0  0  0  0  0  0  0  0  0
   61.0364   31.0080   47.5991 H   0  0  0  0  0  0  0  0  0  0  0  0
   59.2328   30.9308   45.8748 H   0  0  0  0  0  0  0  0  0  0  0  0
   52.5881   20.6846   45.9397 H   0  0  0  0  0  0  0  0  0  0  0  0
   54.3735   20.9463   45.9159 H   0  0  0  0  0  0  0  0  0  0  0  0
   55.4694   21.3297   47.9409 H   0  0  0  0  0  0  0  0  0  0  0  0
   55.3916   21.9201   50.3646 H   0  0  0  0  0  0  0  0  0  0  0  0
   53.2504   22.6810   51.4007 H   0  0  0  0  0  0  0  0  0  0  0  0
   51.1864   22.8734   50.0048 H   0  0  0  0  0  0  0  0  0  0  0  0
   51.2561   22.2794   47.5821 H   0  0  0  0  0  0  0  0  0  0  0  0
  1  2  2  0
  2  3  1  0
  3  4  1  0
  4  5  1  0
  5  6  2  0
  6  7  1  0
  7  8  2  0
  8  9  1  0
  9 10  1  0
 10 11  1  0
 11 12  2  0
 11 13  1  0
 13 14  1  0
 14 15  2  0
 14 16  2  0
 14 17  1  0
 17 18  2  0
 18 19  1  0
 19 20  2  0
 20 21  1  0
 20 22  1  0
 22 23  2  0
  9 24  2  0
 24 25  1  0
  2 26  1  0
 26 27  1  0
 27 28  1  0
 28 29  2  0
 29 30  1  0
 30 31  2  0
 31 32  1  0
 32 33  2  0
 24  5  1  0
 33 28  1  0
 23 17  1  0
  3 34  1  0
  3 35  1  0
  6 36  1  0
  7 37  1  0
  8 38  1  0
 10 39  1  0
 18 40  1  0
 19 41  1  0
 22 42  1  0
 23 43  1  0
 27 44  1  0
 27 45  1  0
 29 46  1  0
 30 47  1  0
 31 48  1  0
 32 49  1  0
 33 50  1  0
M  CHG  3  13  -1  25  -1  26  -1
M  END
>  <UniqueID>  (6) 
6

>  <SMILES>  (6) 
O=C(CSc1cccc(NC(=O)[N-]S(=O)(=O)c2ccc(Cl)cc2)c1[O-])[N-]Cc1ccccc1

>  <Energy>  (6) 
46.64218792294284

>  <Genealogy>  (6) 
O=C(CSc1cccc(NC(=O)[N-]S(=O)(=O)c2ccc(Cl)cc2)c1[O-])[N-]Cc1ccccc1 (protonated)
O=C(CSc1cccc(NC(=O)[N-]S(=O)(=O)c2ccc(Cl)cc2)c1[O-])[N-]Cc1ccccc1 (3D coordinates assigned)
O=C(CSc1cccc(NC(=O)[N-]S(=O)(=O)c2ccc(Cl)cc2)c1[O-])[N-]Cc1ccccc1 (optimized conformer: 46.64218792294284 kcal/mol)

>  <smiles>  (6) 
O=C(CSc1cccc(NC(=O)NS(=O)(=O)c2ccc(Cl)cc2)c1O)NCc1ccccc1

>  <score_type>  (6) 
oracle

>  <origin>  (6) 
adg

>  <m_score__min__energy>  (6) 
-16.23

>  <m_primary>  (6) 
energy

$$$$
6:0
     RDKit          3D

 58 61  0  0  0  0  0  0  0  0999 V2000
   63.0550   33.9150   46.4850 C   0  0  0  0  0  0  0  0  0  0  0  0
   62.6610   33.1080   47.6950 C   0  0  0  0  0  0  0  0  0  0  0  0
   63.6480   32.3320   48.3240 C   0  0  0  0  0  0  0  0  0  0  0  0
   63.3520   31.5820   49.4600 C   0  0  0  0  0  0  0  0  0  0  0  0
   62.0580   31.5930   49.9990 C   0  0  0  0  0  0  0  0  0  0  0  0
   61.7180   30.8410   51.1780 N   0  0  0  0  0  0  0  0  0  0  0  0
   61.2040   29.1840   51.1620 S   0  0  0  0  0  0  0  0  0  0  0  0
   60.2980   28.9250   52.3330 O   0  0  0  0  0  0  0  0  0  0  0  0
   62.3960   28.2730   51.2420 O   0  0  0  0  0  0  0  0  0  0  0  0
   60.3460   28.8670   49.6580 C   0  0  0  0  0  0  0  0  0  0  0  0
   59.3730   29.7690   49.2130 C   0  0  0  0  0  0  0  0  0  0  0  0
   58.6790   29.5270   48.0240 C   0  0  0  0  0  0  0  0  0  0  0  0
   58.9560   28.3810   47.2580 C   0  0  0  0  0  0  0  0  0  0  0  0
   58.2190   28.1120   46.0000 C   0  0  0  0  0  0  0  0  0  0  0  0
   58.7180   28.4790   44.9050 O   0  0  0  0  0  0  0  0  0  0  0  0
   56.9760   27.3900   45.9800 N   0  0  0  0  0  0  0  0  0  0  0  0
   56.8410   26.0950   46.0020 C   0  0  0  0  0  0  0  0  0  0  0  0
   57.9290   25.2760   46.0710 N   0  0  0  0  0  0  0  0  0  0  0  0
   57.8120   23.9220   46.1090 C   0  0  0  0  0  0  0  0  0  0  0  0
   56.5480   23.3300   46.0860 C   0  0  0  0  0  0  0  0  0  0  0  0
   55.4150   24.1420   46.0280 C   0  0  0  0  0  0  0  0  0  0  0  0
   55.5560   25.5320   45.9890 C   0  0  0  0  0  0  0  0  0  0  0  0
   54.4260   26.3410   45.9340 O   0  0  0  0  0  0  0  0  0  0  0  0
   59.9170   27.4670   47.7220 C   0  0  0  0  0  0  0  0  0  0  0  0
   60.6100   27.7100   48.9110 C   0  0  0  0  0  0  0  0  0  0  0  0
   61.0670   32.3590   49.3700 C   0  0  0  0  0  0  0  0  0  0  0  0
   61.3330   33.0940   48.1990 C   0  0  0  0  0  0  0  0  0  0  0  0
   60.0380   34.0480   47.4150 S   0  0  0  0  0  0  0  0  0  0  0  0
   60.6500   34.9110   46.3490 O   0  0  0  0  0  0  0  0  0  0  0  0
   59.4220   34.9410   48.4550 O   0  0  0  0  0  0  0  0  0  0  0  0
   58.7700   33.1250   46.6410 N   0  0  0  0  0  0  0  0  0  0  0  0
   57.9000   33.9680   45.8050 C   0  0  0  0  0  0  0  0  0  0  0  0
   56.7580   33.1270   45.1890 C   0  0  0  0  0  0  0  0  0  0  0  0
   57.0060   31.7300   45.2030 O   0  0  0  0  0  0  0  0  0  0  0  0
   58.3440   31.4660   44.8390 C   0  0  0  0  0  0  0  0  0  0  0  0
   59.2820   31.9170   45.9660 C   0  0  0  0  0  0  0  0  0  0  0  0
   63.5162   34.8597   46.8087 H   0  0  0  0  0  0  0  0  0  0  0  0
   63.7753   33.3431   45.8815 H   0  0  0  0  0  0  0  0  0  0  0  0
   62.1611   34.1312   45.8815 H   0  0  0  0  0  0  0  0  0  0  0  0
   64.6687   32.3162   47.9142 H   0  0  0  0  0  0  0  0  0  0  0  0
   64.1380   30.9778   49.9367 H   0  0  0  0  0  0  0  0  0  0  0  0
   61.7460   31.3170   52.1080 H   0  0  0  0  0  0  0  0  0  0  0  0
   59.1534   30.6722   49.8013 H   0  0  0  0  0  0  0  0  0  0  0  0
   57.9110   30.2379   47.6853 H   0  0  0  0  0  0  0  0  0  0  0  0
   58.7132   23.2931   46.1579 H   0  0  0  0  0  0  0  0  0  0  0  0
   56.4464   22.2350   46.1133 H   0  0  0  0  0  0  0  0  0  0  0  0
   54.4127   23.6891   46.0130 H   0  0  0  0  0  0  0  0  0  0  0  0
   60.1253   26.5537   47.1453 H   0  0  0  0  0  0  0  0  0  0  0  0
   61.3651   26.9913   49.2621 H   0  0  0  0  0  0  0  0  0  0  0  0
   60.0558   32.3866   49.8022 H   0  0  0  0  0  0  0  0  0  0  0  0
   57.4670   34.7671   46.4246 H   0  0  0  0  0  0  0  0  0  0  0  0
   58.5006   34.4011   44.9915 H   0  0  0  0  0  0  0  0  0  0  0  0
   55.8373   33.3218   45.7585 H   0  0  0  0  0  0  0  0  0  0  0  0
   56.6710   33.4272   44.1343 H   0  0  0  0  0  0  0  0  0  0  0  0
   58.4706   30.3869   44.6670 H   0  0  0  0  0  0  0  0  0  0  0  0
   58.5877   32.0165   43.9184 H   0  0  0  0  0  0  0  0  0  0  0  0
   59.3716   31.1057   46.7034 H   0  0  0  0  0  0  0  0  0  0  0  0
   60.2620   32.1548   45.5266 H   0  0  0  0  0  0  0  0  0  0  0  0
  1  2  1  0
  2  3  2  0
  3  4  1  0
  4  5  2  0
  5  6  1  0
  6  7  1  0
  7  8  2  0
  7  9  2  0
  7 10  1  0
 10 11  2  0
 11 12  1  0
 12 13  2  0
 13 14  1  0
 14 15  2  0
 14 16  1  0
 16 17  2  3
 17 18  1  0
 18 19  1  0
 19 20  2  0
 20 21  1  0
 21 22  2  0
 22 23  1  0
 13 24  1  0
 24 25  2  0
  5 26  1  0
 26 27  2  0
 27 28  1  0
 28 29  2  0
 28 30  2  0
 28 31  1  0
 31 32  1  0
 32 33  1  0
 33 34  1  0
 34 35  1  0
 35 36  1  0
 27  2  1  0
 36 31  1  0
 25 10  1  0
 22 17  1  0
  1 37  1  0
  1 38  1  0
  1 39  1  0
  3 40  1  0
  4 41  1  0
  6 42  1  0
 11 43  1  0
 12 44  1  0
 19 45  1  0
 20 46  1  0
 21 47  1  0
 24 48  1  0
 25 49  1  0
 26 50  1  0
 32 51  1  0
 32 52  1  0
 33 53  1  0
 33 54  1  0
 35 55  1  0
 35 56  1  0
 36 57  1  0
 36 58  1  0
M  CHG  2  18  -1  23  -1
M  END
>  <UniqueID>  (7) 
7

>  <SMILES>  (7) 
Cc1ccc(NS(=O)(=O)c2ccc(C(=O)N=c3[n-]cccc3[O-])cc2)cc1S(=O)(=O)N1CCOCC1

>  <Energy>  (7) 
89.22514123218082

>  <Genealogy>  (7) 
Cc1ccc(NS(=O)(=O)c2ccc(C(=O)N=c3[n-]cccc3[O-])cc2)cc1S(=O)(=O)N1CCOCC1 (protonated)
Cc1ccc(NS(=O)(=O)c2ccc(C(=O)N=c3[n-]cccc3[O-])cc2)cc1S(=O)(=O)N1CCOCC1 (3D coordinates assigned)
Cc1ccc(NS(=O)(=O)c2ccc(C(=O)N=c3[n-]cccc3[O-])cc2)cc1S(=O)(=O)N1CCOCC1 (nonaromatic ring conformer: 89.22514123218082 kcal/mol)

>  <smiles>  (7) 
Cc1ccc(NS(=O)(=O)c2ccc(C(=O)N=c3[nH]cccc3O)cc2)cc1S(=O)(=O)N1CCOCC1

>  <score_type>  (7) 
oracle

>  <origin>  (7) 
adg

>  <m_score__min__energy>  (7) 
-16.289999999999999

>  <m_primary>  (7) 
energy

$$$$
7:0
     RDKit          3D

 43 45  0  0  0  0  0  0  0  0999 V2000
   57.4770   31.6750   43.0270 C   0  0  0  0  0  0  0  0  0  0  0  0
   57.7330   32.3050   44.3720 C   0  0  0  0  0  0  0  0  0  0  0  0
   57.9220   33.6960   44.4500 C   0  0  0  0  0  0  0  0  0  0  0  0
   58.1990   34.3060   45.6740 C   0  0  0  0  0  0  0  0  0  0  0  0
   58.3090   33.5360   46.8300 C   0  0  0  0  0  0  0  0  0  0  0  0
   58.1360   32.1520   46.7690 C   0  0  0  0  0  0  0  0  0  0  0  0
   57.8330   31.5230   45.5500 C   0  0  0  0  0  0  0  0  0  0  0  0
   57.6830   30.0470   45.4960 C   0  0  0  0  0  0  0  0  0  0  0  0
   56.5300   29.5790   45.2920 O   0  0  0  0  0  0  0  0  0  0  0  0
   58.8010   29.1300   45.6490 N   0  0  0  0  0  0  0  0  0  0  0  0
   58.5120   28.0760   46.6640 C   0  0  0  0  0  0  0  0  0  0  0  0
   58.8630   26.6600   46.1980 C   0  0  0  0  0  0  0  0  0  0  0  0
   58.3070   26.4290   44.8610 N   0  0  0  0  0  0  0  0  0  0  0  0
   57.5500   25.2460   44.5120 C   0  0  0  0  0  0  0  0  0  0  0  0
   57.3590   24.9700   43.2960 O   0  0  0  0  0  0  0  0  0  0  0  0
   56.9180   24.3510   45.5440 C   0  0  0  0  0  0  0  0  0  0  0  0
   55.4270   24.3680   45.4050 C   0  0  0  0  0  0  0  0  0  0  0  0
   54.6810   23.2950   45.0850 N   0  0  0  0  0  0  0  0  0  0  0  0
   53.4170   23.7710   45.1280 C   0  0  0  0  0  0  0  0  0  0  0  0
   52.4150   23.0520   44.8830 O   0  0  0  0  0  0  0  0  0  0  0  0
   53.3140   25.0760   45.4590 N   0  0  0  0  0  0  0  0  0  0  0  0
   54.5940   25.4370   45.6330 C   0  0  0  0  0  0  0  0  0  0  0  0
   54.9960   26.7150   46.0000 O   0  0  0  0  0  0  0  0  0  0  0  0
   58.6250   27.3970   43.8040 C   0  0  0  0  0  0  0  0  0  0  0  0
   59.3460   28.6410   44.3540 C   0  0  0  0  0  0  0  0  0  0  0  0
   57.0663   30.6643   43.1677 H   0  0  0  0  0  0  0  0  0  0  0  0
   56.7569   32.2886   42.4658 H   0  0  0  0  0  0  0  0  0  0  0  0
   58.4210   31.6123   42.4658 H   0  0  0  0  0  0  0  0  0  0  0  0
   57.8509   34.3083   43.5389 H   0  0  0  0  0  0  0  0  0  0  0  0
   58.3308   35.3968   45.7264 H   0  0  0  0  0  0  0  0  0  0  0  0
   58.5325   34.0194   47.7925 H   0  0  0  0  0  0  0  0  0  0  0  0
   58.2378   31.5489   47.6833 H   0  0  0  0  0  0  0  0  0  0  0  0
   59.5790   29.7100   46.0510 H   0  0  0  0  0  0  0  0  0  0  0  0
   59.0945   28.2977   47.5704 H   0  0  0  0  0  0  0  0  0  0  0  0
   57.4275   28.0947   46.8471 H   0  0  0  0  0  0  0  0  0  0  0  0
   59.9566   26.5465   46.1641 H   0  0  0  0  0  0  0  0  0  0  0  0
   58.4380   25.9287   46.9012 H   0  0  0  0  0  0  0  0  0  0  0  0
   57.2835   23.3228   45.4052 H   0  0  0  0  0  0  0  0  0  0  0  0
   57.1877   24.7152   46.5463 H   0  0  0  0  0  0  0  0  0  0  0  0
   59.2744   26.9103   43.0614 H   0  0  0  0  0  0  0  0  0  0  0  0
   57.6782   27.7272   43.3518 H   0  0  0  0  0  0  0  0  0  0  0  0
   60.4076   28.3910   44.4972 H   0  0  0  0  0  0  0  0  0  0  0  0
   59.1973   29.4469   43.6202 H   0  0  0  0  0  0  0  0  0  0  0  0
  1  2  1  0
  2  3  2  0
  3  4  1  0
  4  5  2  0
  5  6  1  0
  6  7  2  0
  7  8  1  0
  8  9  2  0
  8 10  1  0
 10 11  1  0
 11 12  1  0
 12 13  1  0
 13 14  1  0
 14 15  2  0
 14 16  1  0
 16 17  1  0
 17 18  1  0
 18 19  1  0
 19 20  2  0
 19 21  1  0
 21 22  1  0
 22 23  1  0
 13 24  1  0
 24 25  1  0
  7  2  1  0
 25 10  1  0
 22 17  2  0
  1 26  1  0
  1 27  1  0
  1 28  1  0
  3 29  1  0
  4 30  1  0
  5 31  1  0
  6 32  1  0
 10 33  1  0
 11 34  1  0
 11 35  1  0
 12 36  1  0
 12 37  1  0
 16 38  1  0
 16 39  1  0
 24 40  1  0
 24 41  1  0
 25 42  1  0
 25 43  1  0
M  CHG  4  10   1  18  -1  21  -1  23  -1
M  END
>  <UniqueID>  (8) 
8

>  <SMILES>  (8) 
Cc1ccccc1C(=O)[NH+]1CCN(C(=O)Cc2[n-]c(=O)[n-]c2[O-])CC1

>  <Energy>  (8) 
89.79095293251163

>  <Genealogy>  (8) 
Cc1ccccc1C(=O)[NH+]1CCN(C(=O)Cc2[n-]c(=O)[n-]c2[O-])CC1 (protonated)
Cc1ccccc1C(=O)[NH+]1CCN(C(=O)Cc2[n-]c(=O)[n-]c2[O-])CC1 (3D coordinates assigned)
Cc1ccccc1C(=O)[NH+]1CCN(C(=O)Cc2[n-]c(=O)[n-]c2[O-])CC1 (nonaromatic ring conformer: 89.79095293251163 kcal/mol)

>  <smiles>  (8) 
Cc1ccccc1C(=O)N1CCN(C(=O)Cc2[nH]c(=O)[nH]c2O)CC1

>  <score_type>  (8) 
oracle

>  <origin>  (8) 
adg

>  <m_score__min__energy>  (8) 
-14.710000000000001

>  <m_primary>  (8) 
energy

$$$$
8:0
     RDKit          3D

 51 53  0  0  0  0  0  0  0  0999 V2000
   61.1090   29.8680   49.0400 N   0  0  0  0  0  0  0  0  0  0  0  0
   60.5420   30.2700   47.7910 C   0  0  0  0  0  0  0  0  0  0  0  0
   60.2240   29.3720   46.9070 N   0  0  0  0  0  0  0  0  0  0  0  0
   60.4110   31.6720   47.5010 N   0  0  0  0  0  0  0  0  0  0  0  0
   59.3990   32.2380   46.6510 C   0  0  0  0  0  0  0  0  0  0  0  0
   59.3250   33.6250   46.4260 C   0  0  0  0  0  0  0  0  0  0  0  0
   58.3420   34.1480   45.5840 C   0  0  0  0  0  0  0  0  0  0  0  0
   57.4380   33.2970   44.9420 C   0  0  0  0  0  0  0  0  0  0  0  0
   57.5290   31.9050   45.1220 C   0  0  0  0  0  0  0  0  0  0  0  0
   56.6100   30.9960   44.4990 N   0  0  0  0  0  0  0  0  0  0  0  0
   56.3010   29.6670   44.9320 C   0  0  0  0  0  0  0  0  0  0  0  0
   55.1450   29.1930   44.7660 O   0  0  0  0  0  0  0  0  0  0  0  0
   57.3510   28.8530   45.4640 N   0  0  0  0  0  0  0  0  0  0  0  0
   57.2170   27.5410   46.0300 C   0  0  0  0  0  0  0  0  0  0  0  0
   58.1510   27.1240   46.9870 C   0  0  0  0  0  0  0  0  0  0  0  0
   58.0440   25.8630   47.5800 C   0  0  0  0  0  0  0  0  0  0  0  0
   56.9930   25.0070   47.2300 C   0  0  0  0  0  0  0  0  0  0  0  0
   56.8480   23.4300   48.0050 S   0  0  0  0  0  0  0  0  0  0  0  0
   55.3930   23.0850   48.1500 O   0  0  0  0  0  0  0  0  0  0  0  0
   57.4670   23.4700   49.3740 O   0  0  0  0  0  0  0  0  0  0  0  0
   57.6270   22.2130   47.0410 N   0  0  0  0  0  0  0  0  0  0  0  0
   58.3830   22.8440   45.9610 C   0  0  0  0  0  0  0  0  0  0  0  0
   57.6700   22.6130   44.6610 C   0  0  0  0  0  0  0  0  0  0  0  0
   57.5750   21.3180   44.1270 C   0  0  0  0  0  0  0  0  0  0  0  0
   56.8820   21.0970   42.9320 C   0  0  0  0  0  0  0  0  0  0  0  0
   56.2720   22.1650   42.2700 C   0  0  0  0  0  0  0  0  0  0  0  0
   56.3490   23.4550   42.8030 C   0  0  0  0  0  0  0  0  0  0  0  0
   57.0400   23.6790   43.9980 C   0  0  0  0  0  0  0  0  0  0  0  0
   56.0380   25.4290   46.2960 C   0  0  0  0  0  0  0  0  0  0  0  0
   56.1440   26.6910   45.7030 C   0  0  0  0  0  0  0  0  0  0  0  0
   58.5040   31.3880   45.9850 C   0  0  0  0  0  0  0  0  0  0  0  0
   61.3850   30.5840   49.7480 H   0  0  0  0  0  0  0  0  0  0  0  0
   61.2440   28.8580   49.2680 H   0  0  0  0  0  0  0  0  0  0  0  0
   60.9500   28.7380   46.5050 H   0  0  0  0  0  0  0  0  0  0  0  0
   59.2480   29.2790   46.5500 H   0  0  0  0  0  0  0  0  0  0  0  0
   61.0950   32.3220   47.9500 H   0  0  0  0  0  0  0  0  0  0  0  0
   60.0437   34.2991   46.9149 H   0  0  0  0  0  0  0  0  0  0  0  0
   58.2786   35.2346   45.4251 H   0  0  0  0  0  0  0  0  0  0  0  0
   56.6539   33.7167   44.2947 H   0  0  0  0  0  0  0  0  0  0  0  0
   58.9748   27.7940   47.2739 H   0  0  0  0  0  0  0  0  0  0  0  0
   58.7879   25.5421   48.3241 H   0  0  0  0  0  0  0  0  0  0  0  0
   58.4629   23.9247   46.1501 H   0  0  0  0  0  0  0  0  0  0  0  0
   59.3920   22.4087   45.9121 H   0  0  0  0  0  0  0  0  0  0  0  0
   58.0474   20.4737   44.6504 H   0  0  0  0  0  0  0  0  0  0  0  0
   56.8175   20.0817   42.5136 H   0  0  0  0  0  0  0  0  0  0  0  0
   55.7306   21.9908   41.3285 H   0  0  0  0  0  0  0  0  0  0  0  0
   55.8657   24.2946   42.2820 H   0  0  0  0  0  0  0  0  0  0  0  0
   57.0903   24.6935   44.4202 H   0  0  0  0  0  0  0  0  0  0  0  0
   55.2023   24.7657   46.0283 H   0  0  0  0  0  0  0  0  0  0  0  0
   55.3855   27.0208   44.9778 H   0  0  0  0  0  0  0  0  0  0  0  0
   58.5684   30.3012   46.1423 H   0  0  0  0  0  0  0  0  0  0  0  0
  1  2  1  0
  2  3  2  0
  2  4  1  0
  4  5  1  0
  5  6  2  0
  6  7  1  0
  7  8  2  0
  8  9  1  0
  9 10  1  0
 10 11  1  0
 11 12  2  0
 11 13  1  0
 13 14  1  0
 14 15  2  0
 15 16  1  0
 16 17  2  0
 17 18  1  0
 18 19  2  0
 18 20  2  0
 18 21  1  0
 21 22  1  0
 22 23  1  0
 23 24  2  0
 24 25  1  0
 25 26  2  0
 26 27  1  0
 27 28  2  0
 17 29  1  0
 29 30  2  0
  9 31  2  0
 31  5  1  0
 30 14  1  0
 28 23  1  0
  1 32  1  0
  1 33  1  0
  3 34  1  0
  3 35  1  0
  4 36  1  0
  6 37  1  0
  7 38  1  0
  8 39  1  0
 15 40  1  0
 16 41  1  0
 22 42  1  0
 22 43  1  0
 24 44  1  0
 25 45  1  0
 26 46  1  0
 27 47  1  0
 28 48  1  0
 29 49  1  0
 30 50  1  0
 31 51  1  0
M  CHG  4   3   1  10  -1  13  -1  21  -1
M  END
>  <UniqueID>  (9) 
9

>  <SMILES>  (9) 
NC(=[NH2+])Nc1cccc([N-]C(=O)[N-]c2ccc(S(=O)(=O)[N-]Cc3ccccc3)cc2)c1

>  <Energy>  (9) 
60.377068343708764

>  <Genealogy>  (9) 
NC(=[NH2+])Nc1cccc([N-]C(=O)[N-]c2ccc(S(=O)(=O)[N-]Cc3ccccc3)cc2)c1 (protonated)
NC(=[NH2+])Nc1cccc([N-]C(=O)[N-]c2ccc(S(=O)(=O)[N-]Cc3ccccc3)cc2)c1 (3D coordinates assigned)
NC(=[NH2+])Nc1cccc([N-]C(=O)[N-]c2ccc(S(=O)(=O)[N-]Cc3ccccc3)cc2)c1 (optimized conformer: 60.377068343708764 kcal/mol)

>  <smiles>  (9) 
N=C(N)Nc1cccc(NC(=O)Nc2ccc(S(=O)(=O)NCc3ccccc3)cc2)c1

>  <score_type>  (9) 
oracle

>  <origin>  (9) 
adg

>  <m_score__min__energy>  (9) 
-11.94

>  <m_primary>  (9) 
energy

$$$$
9:0
     RDKit          3D

 47 50  0  0  0  0  0  0  0  0999 V2000
   59.7310   25.8430   47.0020 C   0  0  0  0  0  0  0  0  0  0  0  0
   59.3810   26.9130   46.2730 C   0  0  0  0  0  0  0  0  0  0  0  0
   60.3850   27.5820   45.6570 N   0  0  0  0  0  0  0  0  0  0  0  0
   60.2090   28.7930   45.0840 C   0  0  0  0  0  0  0  0  0  0  0  0
   61.1860   29.3400   44.5040 O   0  0  0  0  0  0  0  0  0  0  0  0
   58.9970   29.4220   45.1610 N   0  0  0  0  0  0  0  0  0  0  0  0
   58.8290   30.7730   44.5850 C   0  0  0  0  0  0  0  0  0  0  0  0
   58.3410   31.7540   45.6540 C   0  0  0  0  0  0  0  0  0  0  0  0
   59.5050   32.3600   46.3740 C   0  0  0  0  0  0  0  0  0  0  0  0
   59.3810   33.4990   46.9010 O   0  0  0  0  0  0  0  0  0  0  0  0
   60.7450   31.6410   46.4700 N   0  0  0  0  0  0  0  0  0  0  0  0
   61.8160   32.0040   47.3570 C   0  0  0  0  0  0  0  0  0  0  0  0
   62.6590   33.0930   47.0780 C   0  0  0  0  0  0  0  0  0  0  0  0
   63.6780   33.4450   47.9680 C   0  0  0  0  0  0  0  0  0  0  0  0
   63.8670   32.7240   49.1590 C   0  0  0  0  0  0  0  0  0  0  0  0
   64.9530   33.1120   50.0850 C   0  0  0  0  0  0  0  0  0  0  0  0
   66.2400   32.6130   50.1460 C   0  0  0  0  0  0  0  0  0  0  0  0
   66.9050   33.2430   51.1320 N   0  0  0  0  0  0  0  0  0  0  0  0
   65.9950   34.1030   51.6330 C   0  0  0  0  0  0  0  0  0  0  0  0
   64.8380   34.0280   51.0160 O   0  0  0  0  0  0  0  0  0  0  0  0
   63.0070   31.6480   49.4460 C   0  0  0  0  0  0  0  0  0  0  0  0
   61.9860   31.3000   48.5560 C   0  0  0  0  0  0  0  0  0  0  0  0
   57.9230   28.7660   45.7120 C   0  0  0  0  0  0  0  0  0  0  0  0
   56.7900   29.3300   45.7200 O   0  0  0  0  0  0  0  0  0  0  0  0
   58.0590   27.4500   46.2280 C   0  0  0  0  0  0  0  0  0  0  0  0
   56.9390   26.7820   46.6220 C   0  0  0  0  0  0  0  0  0  0  0  0
   56.3800   25.5740   45.9850 C   0  0  0  0  0  0  0  0  0  0  0  0
   57.2670   24.2970   45.3240 S   0  0  0  0  0  0  0  0  0  0  0  0
   55.8960   23.5620   44.6910 C   0  0  0  0  0  0  0  0  0  0  0  0
   55.9030   22.4790   44.0500 O   0  0  0  0  0  0  0  0  0  0  0  0
   54.7710   24.2640   44.9340 N   0  0  0  0  0  0  0  0  0  0  0  0
   55.0430   25.3930   45.6400 C   0  0  0  0  0  0  0  0  0  0  0  0
   54.0450   26.2960   45.9860 O   0  0  0  0  0  0  0  0  0  0  0  0
   58.9604   25.2586   47.5261 H   0  0  0  0  0  0  0  0  0  0  0  0
   60.7886   25.5498   47.0758 H   0  0  0  0  0  0  0  0  0  0  0  0
   59.7945   31.1203   44.1886 H   0  0  0  0  0  0  0  0  0  0  0  0
   58.0830   30.7257   43.7780 H   0  0  0  0  0  0  0  0  0  0  0  0
   57.7559   32.5522   45.1739 H   0  0  0  0  0  0  0  0  0  0  0  0
   57.7156   31.2116   46.3783 H   0  0  0  0  0  0  0  0  0  0  0  0
   60.9060   30.8540   45.8010 H   0  0  0  0  0  0  0  0  0  0  0  0
   62.5163   33.6720   46.1537 H   0  0  0  0  0  0  0  0  0  0  0  0
   64.3375   34.2937   47.7338 H   0  0  0  0  0  0  0  0  0  0  0  0
   66.6536   31.8288   49.4949 H   0  0  0  0  0  0  0  0  0  0  0  0
   66.1992   34.7913   52.4664 H   0  0  0  0  0  0  0  0  0  0  0  0
   63.1387   31.0767   50.3767 H   0  0  0  0  0  0  0  0  0  0  0  0
   61.3108   30.4665   48.7995 H   0  0  0  0  0  0  0  0  0  0  0  0
   56.4018   27.1798   47.4956 H   0  0  0  0  0  0  0  0  0  0  0  0
  1  2  2  0
  2  3  1  0
  3  4  1  0
  4  5  2  0
  4  6  1  0
  6  7  1  0
  7  8  1  0
  8  9  1  0
  9 10  2  0
  9 11  1  0
 11 12  1  0
 12 13  2  0
 13 14  1  0
 14 15  2  0
 15 16  1  0
 16 17  2  0
 17 18  1  0
 18 19  2  0
 19 20  1  0
 15 21  1  0
 21 22  2  0
  6 23  1  0
 23 24  2  0
 23 25  1  0
 25 26  2  3
 26 27  1  0
 27 28  1  0
 28 29  1  0
 29 30  2  0
 29 31  1  0
 31 32  1  0
 32 33  1  0
 25  2  1  0
 32 27  2  0
 22 12  1  0
 20 16  1  0
  1 34  1  0
  1 35  1  0
  7 36  1  0
  7 37  1  0
  8 38  1  0
  8 39  1  0
 11 40  1  0
 13 41  1  0
 14 42  1  0
 17 43  1  0
 19 44  1  0
 21 45  1  0
 22 46  1  0
 26 47  1  0
M  CHG  3   3  -1  31  -1  33  -1
M  END
>  <UniqueID>  (10) 
10

>  <SMILES>  (10) 
C=c1[n-]c(=O)n(CCC(=O)Nc2ccc(-c3cnco3)cc2)c(=O)c1=Cc1sc(=O)[n-]c1[O-]

>  <Energy>  (10) 
139.59953519874756

>  <Genealogy>  (10) 
C=c1[n-]c(=O)n(CCC(=O)Nc2ccc(-c3cnco3)cc2)c(=O)c1=Cc1sc(=O)[n-]c1[O-] (protonated)
C=c1[n-]c(=O)n(CCC(=O)Nc2ccc(-c3cnco3)cc2)c(=O)c1=Cc1sc(=O)[n-]c1[O-] (3D coordinates assigned)
C=c1[n-]c(=O)n(CCC(=O)Nc2ccc(-c3cnco3)cc2)c(=O)c1=Cc1sc(=O)[n-]c1[O-] (optimized conformer: 139.59953519874756 kcal/mol)

>  <smiles>  (10) 
C=c1[nH]c(=O)n(CCC(=O)Nc2ccc(-c3cnco3)cc2)c(=O)c1=Cc1sc(=O)[nH]c1O

>  <score_type>  (10) 
oracle

>  <origin>  (10) 
adg

>  <m_score__min__energy>  (10) 
-15.869999999999999

>  <m_primary>  (10) 
energy

$$$$
10:0
     RDKit          3D

 48 51  0  0  0  0  0  0  0  0999 V2000
   58.1780   22.2360   44.6910 C   0  0  0  0  0  0  0  0  0  0  0  0
   56.7870   22.6880   44.8690 N   0  0  0  0  0  0  0  0  0  0  0  0
   56.3760   23.2050   46.0790 C   0  0  0  0  0  0  0  0  0  0  0  0
   57.3140   23.3680   47.1690 N   0  0  0  0  0  0  0  0  0  0  0  0
   57.7290   24.6640   47.7110 C   0  0  0  0  0  0  0  0  0  0  0  0
   57.0200   25.8080   46.9820 C   0  0  0  0  0  0  0  0  0  0  0  0
   58.0230   26.8050   46.4690 C   0  0  0  0  0  0  0  0  0  0  0  0
   59.3630   26.4340   46.2780 C   0  0  0  0  0  0  0  0  0  0  0  0
   60.2800   27.3520   45.7590 C   0  0  0  0  0  0  0  0  0  0  0  0
   59.8630   28.6380   45.4080 C   0  0  0  0  0  0  0  0  0  0  0  0
   58.5230   29.0140   45.5720 C   0  0  0  0  0  0  0  0  0  0  0  0
   58.0930   30.3360   45.2080 N   0  0  0  0  0  0  0  0  0  0  0  0
   56.9750   30.7150   44.5240 C   0  0  0  0  0  0  0  0  0  0  0  0
   56.0150   29.7970   43.8780 C   0  0  0  0  0  0  0  0  0  0  0  0
   55.1490   28.9700   44.6510 N   0  0  0  0  0  0  0  0  0  0  0  0
   55.9860   29.7160   42.6210 O   0  0  0  0  0  0  0  0  0  0  0  0
   56.8340   32.0650   44.4420 N   0  0  0  0  0  0  0  0  0  0  0  0
   57.9110   32.5290   45.0990 C   0  0  0  0  0  0  0  0  0  0  0  0
   58.2530   33.8590   45.3340 C   0  0  0  0  0  0  0  0  0  0  0  0
   59.4210   34.1140   46.0800 C   0  0  0  0  0  0  0  0  0  0  0  0
   59.9010   35.7690   46.4080 Cl  0  0  0  0  0  0  0  0  0  0  0  0
   60.2030   33.0430   46.5700 C   0  0  0  0  0  0  0  0  0  0  0  0
   59.8270   31.7110   46.3170 C   0  0  0  0  0  0  0  0  0  0  0  0
   58.6720   31.4960   45.5610 C   0  0  0  0  0  0  0  0  0  0  0  0
   57.6070   28.0980   46.1090 C   0  0  0  0  0  0  0  0  0  0  0  0
   55.0370   23.5980   46.2410 C   0  0  0  0  0  0  0  0  0  0  0  0
   54.1620   23.4790   45.1690 C   0  0  0  0  0  0  0  0  0  0  0  0
   52.9580   23.8250   45.2910 O   0  0  0  0  0  0  0  0  0  0  0  0
   54.6080   22.9950   43.9880 N   0  0  0  0  0  0  0  0  0  0  0  0
   55.8970   22.6090   43.8240 C   0  0  0  0  0  0  0  0  0  0  0  0
   56.2590   22.1750   42.6960 O   0  0  0  0  0  0  0  0  0  0  0  0
   58.6433   22.0848   45.6762 H   0  0  0  0  0  0  0  0  0  0  0  0
   58.1870   21.2887   44.1320 H   0  0  0  0  0  0  0  0  0  0  0  0
   58.7422   22.9971   44.1320 H   0  0  0  0  0  0  0  0  0  0  0  0
   57.7380   22.5230   47.6100 H   0  0  0  0  0  0  0  0  0  0  0  0
   57.4758   24.7057   48.7807 H   0  0  0  0  0  0  0  0  0  0  0  0
   58.8144   24.7745   47.5708 H   0  0  0  0  0  0  0  0  0  0  0  0
   56.4494   25.3994   46.1350 H   0  0  0  0  0  0  0  0  0  0  0  0
   56.3424   26.3136   47.6857 H   0  0  0  0  0  0  0  0  0  0  0  0
   59.6926   25.4172   46.5377 H   0  0  0  0  0  0  0  0  0  0  0  0
   61.3326   27.0611   45.6266 H   0  0  0  0  0  0  0  0  0  0  0  0
   60.5887   29.3579   45.0016 H   0  0  0  0  0  0  0  0  0  0  0  0
   54.4000   29.3870   45.2470 H   0  0  0  0  0  0  0  0  0  0  0  0
   57.6323   34.6821   44.9502 H   0  0  0  0  0  0  0  0  0  0  0  0
   61.1118   33.2525   47.1532 H   0  0  0  0  0  0  0  0  0  0  0  0
   60.4214   30.8688   46.7008 H   0  0  0  0  0  0  0  0  0  0  0  0
   56.5567   28.3934   46.2492 H   0  0  0  0  0  0  0  0  0  0  0  0
   54.6859   23.9950   47.2049 H   0  0  0  0  0  0  0  0  0  0  0  0
  1  2  1  0
  2  3  1  0
  3  4  1  0
  4  5  1  0
  5  6  1  0
  6  7  1  0
  7  8  2  0
  8  9  1  0
  9 10  2  0
 10 11  1  0
 11 12  1  0
 12 13  1  0
 13 14  1  0
 14 15  1  0
 14 16  2  0
 13 17  2  0
 17 18  1  0
 18 19  2  0
 19 20  1  0
 20 21  1  0
 20 22  2  0
 22 23  1  0
 23 24  2  0
 11 25  2  0
  3 26  2  0
 26 27  1  0
 27 28  2  0
 27 29  1  0
 29 30  1  0
 30 31  2  0
 30  2  1  0
 25  7  1  0
 24 12  1  0
 24 18  1  0
  1 32  1  0
  1 33  1  0
  1 34  1  0
  4 35  1  0
  5 36  1  0
  5 37  1  0
  6 38  1  0
  6 39  1  0
  8 40  1  0
  9 41  1  0
 10 42  1  0
 15 43  1  0
 19 44  1  0
 22 45  1  0
 23 46  1  0
 25 47  1  0
 26 48  1  0
M  CHG  2  15  -1  29  -1
M  END
>  <UniqueID>  (11) 
11

>  <SMILES>  (11) 
Cn1c(NCCc2cccc(-n3c(C([NH-])=O)nc4cc(Cl)ccc43)c2)cc(=O)[n-]c1=O

>  <Energy>  (11) 
99.09788118851881

>  <Genealogy>  (11) 
Cn1c(NCCc2cccc(-n3c(C([NH-])=O)nc4cc(Cl)ccc43)c2)cc(=O)[n-]c1=O (protonated)
Cn1c(NCCc2cccc(-n3c(C([NH-])=O)nc4cc(Cl)ccc43)c2)cc(=O)[n-]c1=O (3D coordinates assigned)
Cn1c(NCCc2cccc(-n3c(C([NH-])=O)nc4cc(Cl)ccc43)c2)cc(=O)[n-]c1=O (optimized conformer: 99.09788118851881 kcal/mol)

>  <smiles>  (11) 
Cn1c(NCCc2cccc(-n3c(C(N)=O)nc4cc(Cl)ccc43)c2)cc(=O)[nH]c1=O

>  <score_type>  (11) 
oracle

>  <origin>  (11) 
adg

>  <m_score__min__energy>  (11) 
-13.4

>  <m_primary>  (11) 
energy

$$$$
11:0
     RDKit          3D

 28 29  0  0  0  0  0  0  0  0999 V2000
   54.1780   24.8510   46.7510 H   0  0  0  0  0  0  0  0  0  0  0  0
   55.0170   24.6230   46.2310 O   0  0  0  0  0  0  0  0  0  0  0  0
   55.9120   25.6180   45.8540 C   0  0  0  0  0  0  0  0  0  0  0  0
   55.6220   26.9400   45.9990 N   0  0  0  0  0  0  0  0  0  0  0  0
   56.6460   27.7200   45.5910 C   0  0  0  0  0  0  0  0  0  0  0  0
   56.5720   29.0190   45.6160 N   0  0  0  0  0  0  0  0  0  0  0  0
   56.6120   29.8990   44.4830 C   0  0  0  0  0  0  0  0  0  0  0  0
   56.9630   29.2750   43.0170 S   0  0  0  0  0  0  0  0  0  0  0  0
   56.3830   31.3130   44.5950 N   0  0  0  0  0  0  0  0  0  0  0  0
   57.2400   32.2260   44.9570 C   0  0  0  0  0  0  0  0  0  0  0  0
   57.4230   32.4500   46.2860 N   0  0  0  0  0  0  0  0  0  0  0  0
   58.2930   33.3860   46.7540 C   0  0  0  0  0  0  0  0  0  0  0  0
   58.4127   33.5301   47.8379 H   0  0  0  0  0  0  0  0  0  0  0  0
   59.0360   34.1660   45.8600 C   0  0  0  0  0  0  0  0  0  0  0  0
   60.0250   35.1720   46.3670 C   0  0  0  0  0  0  0  0  0  0  0  0
   60.0210   35.1679   47.4670 H   0  0  0  0  0  0  0  0  0  0  0  0
   61.0303   34.9135   46.0030 H   0  0  0  0  0  0  0  0  0  0  0  0
   59.7494   36.1728   46.0030 H   0  0  0  0  0  0  0  0  0  0  0  0
   58.8950   33.9320   44.4870 C   0  0  0  0  0  0  0  0  0  0  0  0
   59.4921   34.5120   43.7679 H   0  0  0  0  0  0  0  0  0  0  0  0
   58.0000   32.9660   44.0280 C   0  0  0  0  0  0  0  0  0  0  0  0
   57.8878   32.7827   42.9492 H   0  0  0  0  0  0  0  0  0  0  0  0
   57.9450   26.8020   45.0180 S   0  0  0  0  0  0  0  0  0  0  0  0
   57.1610   25.3410   45.3080 C   0  0  0  0  0  0  0  0  0  0  0  0
   57.7560   23.9880   45.1040 C   0  0  0  0  0  0  0  0  0  0  0  0
   57.9593   23.5257   46.0812 H   0  0  0  0  0  0  0  0  0  0  0  0
   57.0515   23.3588   44.5402 H   0  0  0  0  0  0  0  0  0  0  0  0
   58.6958   24.0820   44.5402 H   0  0  0  0  0  0  0  0  0  0  0  0
  1  2  1  0
  2  3  1  0
  3  4  1  0
  4  5  1  0
  5  6  2  0
  6  7  1  0
  7  8  2  0
  7  9  1  0
  9 10  2  3
 10 11  1  0
 11 12  1  0
 12 13  1  0
 12 14  2  0
 14 15  1  0
 15 16  1  0
 15 17  1  0
 15 18  1  0
 14 19  1  0
 19 20  1  0
 19 21  2  0
 21 22  1  0
  5 23  1  0
 23 24  1  0
 24 25  1  0
 25 26  1  0
 25 27  1  0
 25 28  1  0
 24  3  2  0
 21 10  1  0
M  CHG  2   4  -1  11  -1
M  END
>  <UniqueID>  (12) 
12

>  <SMILES>  (12) 
Cc1ccc(=NC(=S)/N=c2/[n-]c(O)c(C)s2)[n-]c1

>  <Energy>  (12) 
69.01041545801651

>  <Genealogy>  (12) 
Cc1ccc(=NC(=S)N=c2[n-]c(O)c(C)s2)[n-]c1 (protonated)
Cc1ccc(=NC(=S)/N=c2/[n-]c(O)c(C)s2)[n-]c1 (cis-trans isomerization)
Cc1ccc(=NC(=S)/N=c2/[n-]c(O)c(C)s2)[n-]c1 (3D coordinates assigned)
Cc1ccc(=NC(=S)/N=c2/[n-]c(O)c(C)s2)[n-]c1 (optimized conformer: 69.01041545801651 kcal/mol)

>  <smiles>  (12) 
Cc1ccc(=NC(=S)N=c2[nH]c(O)c(C)s2)[nH]c1

>  <score_type>  (12) 
oracle

>  <origin>  (12) 
adg

>  <m_score__min__energy>  (12) 
-10.57

>  <m_primary>  (12) 
energy

$$$$
12:0
     RDKit          3D

 48 50  0  0  0  0  0  0  0  0999 V2000
   58.8920   21.4990   43.8140 C   0  0  0  0  0  0  0  0  0  0  0  0
   57.8270   22.4880   43.9720 N   0  0  0  0  0  0  0  0  0  0  0  0
   58.1290   23.6750   44.5080 N   0  0  0  0  0  0  0  0  0  0  0  0
   57.1980   24.6520   44.6870 C   0  0  0  0  0  0  0  0  0  0  0  0
   57.5940   25.9440   45.2860 C   0  0  0  0  0  0  0  0  0  0  0  0
   57.9450   25.9910   46.4970 O   0  0  0  0  0  0  0  0  0  0  0  0
   57.5430   27.1510   44.5050 N   0  0  0  0  0  0  0  0  0  0  0  0
   58.1210   28.3990   44.9230 C   0  0  0  0  0  0  0  0  0  0  0  0
   59.4720   28.4880   45.3040 C   0  0  0  0  0  0  0  0  0  0  0  0
   60.0180   29.7190   45.6760 C   0  0  0  0  0  0  0  0  0  0  0  0
   59.2250   30.8690   45.6730 C   0  0  0  0  0  0  0  0  0  0  0  0
   57.8730   30.7960   45.2920 C   0  0  0  0  0  0  0  0  0  0  0  0
   57.0410   31.9240   45.2570 O   0  0  0  0  0  0  0  0  0  0  0  0
   57.4260   33.2310   45.5850 C   0  0  0  0  0  0  0  0  0  0  0  0
   57.3270   34.1660   44.7480 O   0  0  0  0  0  0  0  0  0  0  0  0
   57.9950   33.5040   46.8680 N   0  0  0  0  0  0  0  0  0  0  0  0
   59.0130   34.5240   47.0940 C   0  0  0  0  0  0  0  0  0  0  0  0
   60.2040   34.3460   46.1430 C   0  0  0  0  0  0  0  0  0  0  0  0
   61.3360   33.6050   46.8050 C   0  0  0  0  0  0  0  0  0  0  0  0
   62.6620   33.8270   46.3970 C   0  0  0  0  0  0  0  0  0  0  0  0
   63.7110   33.1240   46.9980 C   0  0  0  0  0  0  0  0  0  0  0  0
   63.4430   32.1910   48.0030 C   0  0  0  0  0  0  0  0  0  0  0  0
   62.1260   31.9540   48.4050 C   0  0  0  0  0  0  0  0  0  0  0  0
   61.0740   32.6550   47.8070 C   0  0  0  0  0  0  0  0  0  0  0  0
   57.3390   29.5630   44.8960 C   0  0  0  0  0  0  0  0  0  0  0  0
   55.8750   24.4030   44.3020 C   0  0  0  0  0  0  0  0  0  0  0  0
   55.5510   23.1730   43.7400 C   0  0  0  0  0  0  0  0  0  0  0  0
   56.5470   22.2100   43.5740 C   0  0  0  0  0  0  0  0  0  0  0  0
   56.2580   21.0960   43.0600 O   0  0  0  0  0  0  0  0  0  0  0  0
   59.2412   21.1747   44.8054 H   0  0  0  0  0  0  0  0  0  0  0  0
   58.5069   20.6310   43.2589 H   0  0  0  0  0  0  0  0  0  0  0  0
   59.7292   21.9472   43.2589 H   0  0  0  0  0  0  0  0  0  0  0  0
   56.9600   27.1530   43.6370 H   0  0  0  0  0  0  0  0  0  0  0  0
   60.1007   27.5854   45.3091 H   0  0  0  0  0  0  0  0  0  0  0  0
   61.0755   29.7828   45.9721 H   0  0  0  0  0  0  0  0  0  0  0  0
   59.6594   31.8351   45.9696 H   0  0  0  0  0  0  0  0  0  0  0  0
   58.5682   35.5164   46.9289 H   0  0  0  0  0  0  0  0  0  0  0  0
   59.3773   34.4268   48.1274 H   0  0  0  0  0  0  0  0  0  0  0  0
   59.8742   33.7790   45.2600 H   0  0  0  0  0  0  0  0  0  0  0  0
   60.5672   35.3438   45.8558 H   0  0  0  0  0  0  0  0  0  0  0  0
   62.8758   34.5565   45.6019 H   0  0  0  0  0  0  0  0  0  0  0  0
   64.7480   33.3057   46.6792 H   0  0  0  0  0  0  0  0  0  0  0  0
   64.2697   31.6425   48.4782 H   0  0  0  0  0  0  0  0  0  0  0  0
   61.9164   31.2153   49.1926 H   0  0  0  0  0  0  0  0  0  0  0  0
   60.0379   32.4622   48.1220 H   0  0  0  0  0  0  0  0  0  0  0  0
   56.2932   29.5070   44.5596 H   0  0  0  0  0  0  0  0  0  0  0  0
   55.1007   25.1716   44.4425 H   0  0  0  0  0  0  0  0  0  0  0  0
   54.5175   22.9608   43.4287 H   0  0  0  0  0  0  0  0  0  0  0  0
  1  2  1  0
  2  3  1  0
  3  4  2  0
  4  5  1  0
  5  6  2  0
  5  7  1  0
  7  8  1  0
  8  9  2  0
  9 10  1  0
 10 11  2  0
 11 12  1  0
 12 13  1  0
 13 14  1  0
 14 15  2  0
 14 16  1  0
 16 17  1  0
 17 18  1  0
 18 19  1  0
 19 20  2  0
 20 21  1  0
 21 22  2  0
 22 23  1  0
 23 24  2  0
 12 25  2  0
  4 26  1  0
 26 27  2  0
 27 28  1  0
 28 29  2  0
 28  2  1  0
 25  8  1  0
 24 19  1  0
  1 30  1  0
  1 31  1  0
  1 32  1  0
  7 33  1  0
  9 34  1  0
 10 35  1  0
 11 36  1  0
 17 37  1  0
 17 38  1  0
 18 39  1  0
 18 40  1  0
 20 41  1  0
 21 42  1  0
 22 43  1  0
 23 44  1  0
 24 45  1  0
 25 46  1  0
 26 47  1  0
 27 48  1  0
M  CHG  1  16  -1
M  END
>  <UniqueID>  (13) 
13

>  <SMILES>  (13) 
Cn1nc(C(=O)Nc2cccc(OC(=O)[N-]CCc3ccccc3)c2)ccc1=O

>  <Energy>  (13) 
54.496731543166305

>  <Genealogy>  (13) 
Cn1nc(C(=O)Nc2cccc(OC(=O)[N-]CCc3ccccc3)c2)ccc1=O (protonated)
Cn1nc(C(=O)Nc2cccc(OC(=O)[N-]CCc3ccccc3)c2)ccc1=O (3D coordinates assigned)
Cn1nc(C(=O)Nc2cccc(OC(=O)[N-]CCc3ccccc3)c2)ccc1=O (optimized conformer: 54.496731543166305 kcal/mol)

>  <smiles>  (13) 
Cn1nc(C(=O)Nc2cccc(OC(=O)NCCc3ccccc3)c2)ccc1=O

>  <score_type>  (13) 
oracle

>  <origin>  (13) 
adg

>  <m_score__min__energy>  (13) 
-10.27

>  <m_primary>  (13) 
energy

$$$$
13:0
     RDKit          3D

 15 15  0  0  0  0  0  0  0  0999 V2000
   58.2320   28.0860   43.9950 C   0  0  0  0  0  0  0  0  0  0  0  0
   57.3220   27.8920   45.1700 C   0  0  0  0  0  0  0  0  0  0  0  0
   56.6160   28.8660   45.5490 O   0  0  0  0  0  0  0  0  0  0  0  0
   57.2200   26.5900   45.8830 C   0  0  0  0  0  0  0  0  0  0  0  0
   55.9760   26.0390   46.2560 C   0  0  0  0  0  0  0  0  0  0  0  0
   54.7860   26.7080   45.9980 O   0  0  0  0  0  0  0  0  0  0  0  0
   55.9270   24.8460   46.9020 N   0  0  0  0  0  0  0  0  0  0  0  0
   57.0590   24.1640   47.2090 C   0  0  0  0  0  0  0  0  0  0  0  0
   56.9840   23.0610   47.8080 O   0  0  0  0  0  0  0  0  0  0  0  0
   58.2690   24.6730   46.8730 N   0  0  0  0  0  0  0  0  0  0  0  0
   58.3790   25.8600   46.2240 C   0  0  0  0  0  0  0  0  0  0  0  0
   59.5240   26.2880   45.9210 O   0  0  0  0  0  0  0  0  0  0  0  0
   59.2498   28.3030   44.3514 H   0  0  0  0  0  0  0  0  0  0  0  0
   58.2443   27.1703   43.3856 H   0  0  0  0  0  0  0  0  0  0  0  0
   57.8698   28.9271   43.3856 H   0  0  0  0  0  0  0  0  0  0  0  0
  1  2  1  0
  2  3  2  0
  2  4  1  0
  4  5  2  0
  5  6  1  0
  5  7  1  0
  7  8  1  0
  8  9  2  0
  8 10  1  0
 10 11  1  0
 11 12  2  0
 11  4  1  0
  1 13  1  0
  1 14  1  0
  1 15  1  0
M  CHG  3   6  -1   7  -1  10  -1
M  END
>  <UniqueID>  (14) 
14

>  <SMILES>  (14) 
CC(=O)c1c([O-])[n-]c(=O)[n-]c1=O

>  <Energy>  (14) 
19.502294674497122

>  <Genealogy>  (14) 
CC(=O)c1c([O-])[n-]c(=O)[n-]c1=O (protonated)
CC(=O)c1c([O-])[n-]c(=O)[n-]c1=O (3D coordinates assigned)
CC(=O)c1c([O-])[n-]c(=O)[n-]c1=O (optimized conformer: 19.502294674497122 kcal/mol)

>  <smiles>  (14) 
CC(=O)c1c(O)[nH]c(=O)[nH]c1=O

>  <score_type>  (14) 
oracle

>  <origin>  (14) 
adg

>  <m_score__min__energy>  (14) 
-13.59

>  <m_primary>  (14) 
energy

$$$$
14:0
     RDKit          3D

 38 39  0  0  0  0  0  0  0  0999 V2000
   60.3500   33.7010   48.1230 C   0  0  0  0  0  0  0  0  0  0  0  0
   59.4520   33.5500   46.9390 C   0  0  0  0  0  0  0  0  0  0  0  0
   59.4410   32.4710   46.0760 C   0  0  0  0  0  0  0  0  0  0  0  0
   58.4120   32.7080   45.1830 C   0  0  0  0  0  0  0  0  0  0  0  0
   58.0120   31.8080   44.0490 C   0  0  0  0  0  0  0  0  0  0  0  0
   58.0910   30.4090   44.4600 N   0  0  0  0  0  0  0  0  0  0  0  0
   56.9330   29.6610   44.8660 C   0  0  0  0  0  0  0  0  0  0  0  0
   55.7920   30.1970   44.8330 O   0  0  0  0  0  0  0  0  0  0  0  0
   57.0620   28.2710   45.3270 C   0  0  0  0  0  0  0  0  0  0  0  0
   58.2030   27.7550   45.4740 O   0  0  0  0  0  0  0  0  0  0  0  0
   55.8860   27.5080   45.6110 N   0  0  0  0  0  0  0  0  0  0  0  0
   55.9100   26.2890   46.4120 C   0  0  0  0  0  0  0  0  0  0  0  0
   56.2080   25.0820   45.5240 C   0  0  0  0  0  0  0  0  0  0  0  0
   54.6920   24.1330   45.1410 S   0  0  0  0  0  0  0  0  0  0  0  0
   55.5300   22.8790   44.1750 C   0  0  0  0  0  0  0  0  0  0  0  0
   56.2690   21.8920   44.7160 N   0  0  0  0  0  0  0  0  0  0  0  0
   56.6690   21.2180   43.6200 C   0  0  0  0  0  0  0  0  0  0  0  0
   56.1960   21.7630   42.4850 N   0  0  0  0  0  0  0  0  0  0  0  0
   55.4730   22.8120   42.8350 N   0  0  0  0  0  0  0  0  0  0  0  0
   57.8410   33.9180   45.5460 C   0  0  0  0  0  0  0  0  0  0  0  0
   56.6810   34.5860   44.8770 C   0  0  0  0  0  0  0  0  0  0  0  0
   58.4740   34.4210   46.6240 N   0  0  0  0  0  0  0  0  0  0  0  0
   59.7597   33.6017   49.0459 H   0  0  0  0  0  0  0  0  0  0  0  0
   61.1247   32.9205   48.0975 H   0  0  0  0  0  0  0  0  0  0  0  0
   60.8269   34.6919   48.0975 H   0  0  0  0  0  0  0  0  0  0  0  0
   60.1136   31.6008   46.0953 H   0  0  0  0  0  0  0  0  0  0  0  0
   56.9797   32.0401   43.7483 H   0  0  0  0  0  0  0  0  0  0  0  0
   58.6966   31.9717   43.2037 H   0  0  0  0  0  0  0  0  0  0  0  0
   59.0270   29.9460   44.4510 H   0  0  0  0  0  0  0  0  0  0  0  0
   56.6905   26.3753   47.1823 H   0  0  0  0  0  0  0  0  0  0  0  0
   54.9277   26.1518   46.8876 H   0  0  0  0  0  0  0  0  0  0  0  0
   56.6557   25.4338   44.5828 H   0  0  0  0  0  0  0  0  0  0  0  0
   56.8992   24.4199   46.0661 H   0  0  0  0  0  0  0  0  0  0  0  0
   57.3093   20.3241   43.6501 H   0  0  0  0  0  0  0  0  0  0  0  0
   55.9950   34.9810   45.6408 H   0  0  0  0  0  0  0  0  0  0  0  0
   57.0459   35.4123   44.2492 H   0  0  0  0  0  0  0  0  0  0  0  0
   56.1495   33.8557   44.2492 H   0  0  0  0  0  0  0  0  0  0  0  0
   58.2450   35.3090   47.1240 H   0  0  0  0  0  0  0  0  0  0  0  0
  1  2  1  0
  2  3  2  0
  3  4  1  0
  4  5  1  0
  5  6  1  0
  6  7  1  0
  7  8  2  0
  7  9  1  0
  9 10  2  0
  9 11  1  0
 11 12  1  0
 12 13  1  0
 13 14  1  0
 14 15  1  0
 15 16  1  0
 16 17  2  0
 17 18  1  0
 18 19  1  0
  4 20  2  0
 20 21  1  0
 20 22  1  0
 22  2  1  0
 19 15  2  0
  1 23  1  0
  1 24  1  0
  1 25  1  0
  3 26  1  0
  5 27  1  0
  5 28  1  0
  6 29  1  0
 12 30  1  0
 12 31  1  0
 13 32  1  0
 13 33  1  0
 17 34  1  0
 21 35  1  0
 21 36  1  0
 21 37  1  0
 22 38  1  0
M  CHG  2  11  -1  18  -1
M  END
>  <UniqueID>  (15) 
15

>  <SMILES>  (15) 
Cc1cc(CNC(=O)C(=O)[N-]CCSc2nc[n-]n2)c(C)[nH]1

>  <Energy>  (15) 
80.65381436452289

>  <Genealogy>  (15) 
Cc1cc(CNC(=O)C(=O)[N-]CCSc2nc[n-]n2)c(C)[nH]1 (protonated)
Cc1cc(CNC(=O)C(=O)[N-]CCSc2nc[n-]n2)c(C)[nH]1 (3D coordinates assigned)
Cc1cc(CNC(=O)C(=O)[N-]CCSc2nc[n-]n2)c(C)[nH]1 (optimized conformer: 80.65381436452289 kcal/mol)

>  <smiles>  (15) 
Cc1cc(CNC(=O)C(=O)NCCSc2nc[nH]n2)c(C)[nH]1

>  <score_type>  (15) 
oracle

>  <origin>  (15) 
adg

>  <m_score__min__energy>  (15) 
-10.44

>  <m_primary>  (15) 
energy

$$$$
15:0
     RDKit          3D

 52 55  0  0  0  0  0  0  0  0999 V2000
   55.5150   28.9240   45.2340 O   0  0  0  0  0  0  0  0  0  0  0  0
   56.7710   28.8800   45.1130 C   0  0  0  0  0  0  0  0  0  0  0  0
   57.4300   27.5680   44.7780 C   0  0  0  0  0  0  0  0  0  0  0  0
   57.2200   26.5620   45.8690 C   0  0  0  0  0  0  0  0  0  0  0  0
   58.4330   25.6380   46.5870 S   0  0  0  0  0  0  0  0  0  0  0  0
   57.3370   24.7970   47.5450 C   0  0  0  0  0  0  0  0  0  0  0  0
   57.6580   23.9010   48.3680 O   0  0  0  0  0  0  0  0  0  0  0  0
   56.0600   25.1830   47.3390 N   0  0  0  0  0  0  0  0  0  0  0  0
   55.9950   26.1620   46.3980 C   0  0  0  0  0  0  0  0  0  0  0  0
   54.7830   26.7110   45.9990 O   0  0  0  0  0  0  0  0  0  0  0  0
   57.5550   30.1280   45.2770 C   0  0  0  0  0  0  0  0  0  0  0  0
   58.3980   30.2670   46.3910 C   0  0  0  0  0  0  0  0  0  0  0  0
   59.1510   31.4300   46.5740 C   0  0  0  0  0  0  0  0  0  0  0  0
   59.0710   32.4820   45.6440 C   0  0  0  0  0  0  0  0  0  0  0  0
   59.8090   33.6690   45.7750 O   0  0  0  0  0  0  0  0  0  0  0  0
   59.6290   34.6480   46.7980 C   0  0  0  0  0  0  0  0  0  0  0  0
   60.3300   34.2300   48.0700 C   0  0  0  0  0  0  0  0  0  0  0  0
   59.6260   34.2310   49.2840 C   0  0  0  0  0  0  0  0  0  0  0  0
   60.2440   33.8350   50.4760 C   0  0  0  0  0  0  0  0  0  0  0  0
   59.2380   33.7830   51.9220 Cl  0  0  0  0  0  0  0  0  0  0  0  0
   61.6040   33.4460   50.4720 C   0  0  0  0  0  0  0  0  0  0  0  0
   62.3250   33.0400   51.7030 C   0  0  0  0  0  0  0  0  0  0  0  0
   62.4160   33.8490   52.6660 O   0  0  0  0  0  0  0  0  0  0  0  0
   62.8720   31.7230   51.8260 N   0  0  0  0  0  0  0  0  0  0  0  0
   64.2380   31.1380   50.9290 S   0  0  0  0  0  0  0  0  0  0  0  0
   64.4460   29.6880   51.2610 O   0  0  0  0  0  0  0  0  0  0  0  0
   63.9790   31.2530   49.4530 O   0  0  0  0  0  0  0  0  0  0  0  0
   65.6860   32.0310   51.3340 N   0  0  0  0  0  0  0  0  0  0  0  0
   65.4370   32.9390   52.4620 C   0  0  0  0  0  0  0  0  0  0  0  0
   65.5660   34.1790   51.5990 C   0  0  0  0  0  0  0  0  0  0  0  0
   65.8380   33.2060   50.4690 C   0  0  0  0  0  0  0  0  0  0  0  0
   62.3040   33.4490   49.2520 C   0  0  0  0  0  0  0  0  0  0  0  0
   61.6820   33.8410   48.0620 C   0  0  0  0  0  0  0  0  0  0  0  0
   62.6370   33.8430   46.5820 Cl  0  0  0  0  0  0  0  0  0  0  0  0
   58.2150   32.3540   44.5460 C   0  0  0  0  0  0  0  0  0  0  0  0
   57.4590   31.1910   44.3570 C   0  0  0  0  0  0  0  0  0  0  0  0
   56.6080   31.1350   43.3020 F   0  0  0  0  0  0  0  0  0  0  0  0
   57.0000   27.1788   43.8434 H   0  0  0  0  0  0  0  0  0  0  0  0
   58.5107   27.7396   44.6657 H   0  0  0  0  0  0  0  0  0  0  0  0
   58.4665   29.4525   47.1271 H   0  0  0  0  0  0  0  0  0  0  0  0
   59.8097   31.5231   47.4500 H   0  0  0  0  0  0  0  0  0  0  0  0
   60.0442   35.6075   46.4560 H   0  0  0  0  0  0  0  0  0  0  0  0
   58.5533   34.7483   47.0048 H   0  0  0  0  0  0  0  0  0  0  0  0
   58.5727   34.5477   49.2991 H   0  0  0  0  0  0  0  0  0  0  0  0
   64.4384   32.8187   52.9073 H   0  0  0  0  0  0  0  0  0  0  0  0
   66.0664   32.8518   53.3599 H   0  0  0  0  0  0  0  0  0  0  0  0
   64.6464   34.7733   51.4935 H   0  0  0  0  0  0  0  0  0  0  0  0
   66.2390   35.0133   51.8460 H   0  0  0  0  0  0  0  0  0  0  0  0
   65.0912   33.2538   49.6628 H   0  0  0  0  0  0  0  0  0  0  0  0
   66.7656   33.3175   49.8883 H   0  0  0  0  0  0  0  0  0  0  0  0
   63.3589   33.1377   49.2334 H   0  0  0  0  0  0  0  0  0  0  0  0
   58.1345   33.1777   43.8214 H   0  0  0  0  0  0  0  0  0  0  0  0
  1  2  2  0
  2  3  1  0
  3  4  1  0
  4  5  1  0
  5  6  1  0
  6  7  2  0
  6  8  1  0
  8  9  1  0
  9 10  1  0
  2 11  1  0
 11 12  2  0
 12 13  1  0
 13 14  2  0
 14 15  1  0
 15 16  1  0
 16 17  1  0
 17 18  2  0
 18 19  1  0
 19 20  1  0
 19 21  2  0
 21 22  1  0
 22 23  2  0
 22 24  1  0
 24 25  1  0
 25 26  2  0
 25 27  2  0
 25 28  1  0
 28 29  1  0
 29 30  1  0
 30 31  1  0
 21 32  1  0
 32 33  2  0
 33 34  1  0
 14 35  1  0
 35 36  2  0
 36 37  1  0
  9  4  2  0
 36 11  1  0
 33 17  1  0
 31 28  1  0
  3 38  1  0
  3 39  1  0
 12 40  1  0
 13 41  1  0
 16 42  1  0
 16 43  1  0
 18 44  1  0
 29 45  1  0
 29 46  1  0
 30 47  1  0
 30 48  1  0
 31 49  1  0
 31 50  1  0
 32 51  1  0
 35 52  1  0
M  CHG  3   8  -1  10  -1  24  -1
M  END
>  <UniqueID>  (16) 
16

>  <SMILES>  (16) 
O=C(Cc1sc(=O)[n-]c1[O-])c1ccc(OCc2cc(Cl)c(C(=O)[N-]S(=O)(=O)N3CCC3)cc2Cl)cc1F

>  <Energy>  (16) 
162.85038900990904

>  <Genealogy>  (16) 
O=C(Cc1sc(=O)[n-]c1[O-])c1ccc(OCc2cc(Cl)c(C(=O)[N-]S(=O)(=O)N3CCC3)cc2Cl)cc1F (protonated)
O=C(Cc1sc(=O)[n-]c1[O-])c1ccc(OCc2cc(Cl)c(C(=O)[N-]S(=O)(=O)N3CCC3)cc2Cl)cc1F (3D coordinates assigned)
O=C(Cc1sc(=O)[n-]c1[O-])c1ccc(OCc2cc(Cl)c(C(=O)[N-]S(=O)(=O)N3CCC3)cc2Cl)cc1F (nonaromatic ring conformer: 162.85038900990904 kcal/mol)

>  <smiles>  (16) 
O=C(Cc1sc(=O)[nH]c1O)c1ccc(OCc2cc(Cl)c(C(=O)NS(=O)(=O)N3CCC3)cc2Cl)cc1F

>  <score_type>  (16) 
oracle

>  <origin>  (16) 
adg

>  <m_score__min__energy>  (16) 
-19.050000000000001

>  <m_primary>  (16) 
energy

$$$$
16:0
     RDKit          3D

 26 27  0  0  0  0  0  0  0  0999 V2000
   55.1400   29.1560   44.3110 O   0  0  0  0  0  0  0  0  0  0  0  0
   56.1870   29.2390   45.0050 C   0  0  0  0  0  0  0  0  0  0  0  0
   56.7740   30.5280   45.2240 N   0  0  0  0  0  0  0  0  0  0  0  0
   57.9780   31.0270   44.5630 C   0  0  0  0  0  0  0  0  0  0  0  0
   58.4540   32.3120   45.2070 C   0  0  0  0  0  0  0  0  0  0  0  0
   58.2880   33.5210   44.5070 C   0  0  0  0  0  0  0  0  0  0  0  0
   58.7250   34.7280   45.0560 C   0  0  0  0  0  0  0  0  0  0  0  0
   59.3220   34.7460   46.3180 C   0  0  0  0  0  0  0  0  0  0  0  0
   59.4740   33.5580   47.0350 C   0  0  0  0  0  0  0  0  0  0  0  0
   59.0390   32.3420   46.4960 C   0  0  0  0  0  0  0  0  0  0  0  0
   59.2340   30.8940   47.4790 Cl  0  0  0  0  0  0  0  0  0  0  0  0
   56.7940   28.0070   45.5310 C   0  0  0  0  0  0  0  0  0  0  0  0
   58.1430   27.7410   45.6140 C   0  0  0  0  0  0  0  0  0  0  0  0
   58.2310   26.4670   46.1410 C   0  0  0  0  0  0  0  0  0  0  0  0
   59.4210   25.8000   46.4120 O   0  0  0  0  0  0  0  0  0  0  0  0
   57.0180   25.9240   46.3690 N   0  0  0  0  0  0  0  0  0  0  0  0
   56.1460   26.8750   45.9820 C   0  0  0  0  0  0  0  0  0  0  0  0
   54.7690   26.6980   46.0120 O   0  0  0  0  0  0  0  0  0  0  0  0
   58.7718   30.2695   44.6407 H   0  0  0  0  0  0  0  0  0  0  0  0
   57.7419   31.2289   43.5078 H   0  0  0  0  0  0  0  0  0  0  0  0
   57.8089   33.5153   43.5168 H   0  0  0  0  0  0  0  0  0  0  0  0
   58.5989   35.6652   44.4940 H   0  0  0  0  0  0  0  0  0  0  0  0
   59.6725   35.6962   46.7472 H   0  0  0  0  0  0  0  0  0  0  0  0
   59.9394   33.5778   48.0315 H   0  0  0  0  0  0  0  0  0  0  0  0
   58.9728   28.4018   45.3229 H   0  0  0  0  0  0  0  0  0  0  0  0
   60.3140   26.2730   46.3240 H   0  0  0  0  0  0  0  0  0  0  0  0
  1  2  2  0
  2  3  1  0
  3  4  1  0
  4  5  1  0
  5  6  2  0
  6  7  1  0
  7  8  2  0
  8  9  1  0
  9 10  2  0
 10 11  1  0
  2 12  1  0
 12 13  1  0
 13 14  2  0
 14 15  1  0
 14 16  1  0
 16 17  1  0
 17 18  1  0
 10  5  1  0
 17 12  2  0
  4 19  1  0
  4 20  1  0
  6 21  1  0
  7 22  1  0
  8 23  1  0
  9 24  1  0
 13 25  1  0
 15 26  1  0
M  CHG  3   3  -1  16  -1  18  -1
M  END
>  <UniqueID>  (17) 
17

>  <SMILES>  (17) 
O=C([N-]Cc1ccccc1Cl)c1cc(O)[n-]c1[O-]

>  <Energy>  (17) 
56.90501522719009

>  <Genealogy>  (17) 
O=C([N-]Cc1ccccc1Cl)c1cc(O)[n-]c1[O-] (protonated)
O=C([N-]Cc1ccccc1Cl)c1cc(O)[n-]c1[O-] (3D coordinates assigned)
O=C([N-]Cc1ccccc1Cl)c1cc(O)[n-]c1[O-] (optimized conformer: 56.90501522719009 kcal/mol)

>  <smiles>  (17) 
O=C(NCc1ccccc1Cl)c1cc(O)[nH]c1O

>  <score_type>  (17) 
oracle

>  <origin>  (17) 
adg

>  <m_score__min__energy>  (17) 
-13.92

>  <m_primary>  (17) 
energy

$$$$
17:0
     RDKit          3D

 36 38  0  0  0  0  0  0  0  0999 V2000
   64.6260   33.0610   49.0770 C   0  0  0  0  0  0  0  0  0  0  0  0
   63.2020   33.4670   48.9110 C   0  0  0  0  0  0  0  0  0  0  0  0
   62.4630   33.1670   47.8220 N   0  0  0  0  0  0  0  0  0  0  0  0
   61.1760   33.5930   47.9480 C   0  0  0  0  0  0  0  0  0  0  0  0
   60.1830   33.3780   46.8820 C   0  0  0  0  0  0  0  0  0  0  0  0
   59.6790   34.3630   46.0360 C   0  0  0  0  0  0  0  0  0  0  0  0
   58.7710   33.8710   45.0930 C   0  0  0  0  0  0  0  0  0  0  0  0
   58.5580   32.5050   45.2040 C   0  0  0  0  0  0  0  0  0  0  0  0
   57.5790   31.5360   44.1170 S   0  0  0  0  0  0  0  0  0  0  0  0
   57.3580   32.3030   42.8450 O   0  0  0  0  0  0  0  0  0  0  0  0
   56.2490   31.2310   44.7470 O   0  0  0  0  0  0  0  0  0  0  0  0
   58.3990   30.0500   43.7580 N   0  0  0  0  0  0  0  0  0  0  0  0
   58.5770   28.9670   44.6820 C   0  0  0  0  0  0  0  0  0  0  0  0
   59.7280   28.9480   45.4810 C   0  0  0  0  0  0  0  0  0  0  0  0
   59.9230   27.9270   46.4140 C   0  0  0  0  0  0  0  0  0  0  0  0
   58.9660   26.9190   46.5610 C   0  0  0  0  0  0  0  0  0  0  0  0
   57.8130   26.9240   45.7670 C   0  0  0  0  0  0  0  0  0  0  0  0
   56.5980   25.6630   45.9490 S   0  0  0  0  0  0  0  0  0  0  0  0
   55.0440   26.3750   46.2060 N   0  0  0  0  0  0  0  0  0  0  0  0
   56.9330   24.7970   47.1320 O   0  0  0  0  0  0  0  0  0  0  0  0
   56.5630   24.8190   44.7070 O   0  0  0  0  0  0  0  0  0  0  0  0
   57.6310   27.9360   44.8150 C   0  0  0  0  0  0  0  0  0  0  0  0
   59.4980   31.8970   46.4570 S   0  0  0  0  0  0  0  0  0  0  0  0
   60.8800   34.2230   49.1550 C   0  0  0  0  0  0  0  0  0  0  0  0
   62.2810   34.2400   50.0850 S   0  0  0  0  0  0  0  0  0  0  0  0
   64.8653   32.9928   50.1485 H   0  0  0  0  0  0  0  0  0  0  0  0
   64.7857   32.0815   48.6025 H   0  0  0  0  0  0  0  0  0  0  0  0
   65.2782   33.8090   48.6025 H   0  0  0  0  0  0  0  0  0  0  0  0
   59.9666   35.4226   46.1029 H   0  0  0  0  0  0  0  0  0  0  0  0
   58.2764   34.5026   44.3404 H   0  0  0  0  0  0  0  0  0  0  0  0
   60.4821   29.7415   45.3729 H   0  0  0  0  0  0  0  0  0  0  0  0
   60.8314   27.9162   47.0342 H   0  0  0  0  0  0  0  0  0  0  0  0
   59.1190   26.1204   47.3018 H   0  0  0  0  0  0  0  0  0  0  0  0
   55.1380   27.3970   46.0090 H   0  0  0  0  0  0  0  0  0  0  0  0
   56.7419   27.9235   44.1675 H   0  0  0  0  0  0  0  0  0  0  0  0
   59.9033   34.6359   49.4476 H   0  0  0  0  0  0  0  0  0  0  0  0
  1  2  1  0
  2  3  2  0
  3  4  1  0
  4  5  1  0
  5  6  2  0
  6  7  1  0
  7  8  2  0
  8  9  1  0
  9 10  2  0
  9 11  2  0
  9 12  1  0
 12 13  1  0
 13 14  2  0
 14 15  1  0
 15 16  2  0
 16 17  1  0
 17 18  1  0
 18 19  1  0
 18 20  2  0
 18 21  2  0
 17 22  2  0
  8 23  1  0
  4 24  2  0
 24 25  1  0
 25  2  1  0
 23  5  1  0
 22 13  1  0
  1 26  1  0
  1 27  1  0
  1 28  1  0
  6 29  1  0
  7 30  1  0
 14 31  1  0
 15 32  1  0
 16 33  1  0
 19 34  1  0
 22 35  1  0
 24 36  1  0
M  CHG  2  12  -1  19  -1
M  END
>  <UniqueID>  (18) 
18

>  <SMILES>  (18) 
Cc1nc(-c2ccc(S(=O)(=O)[N-]c3cccc(S([NH-])(=O)=O)c3)s2)cs1

>  <Energy>  (18) 
93.49099686833968

>  <Genealogy>  (18) 
Cc1nc(-c2ccc(S(=O)(=O)[N-]c3cccc(S([NH-])(=O)=O)c3)s2)cs1 (protonated)
Cc1nc(-c2ccc(S(=O)(=O)[N-]c3cccc(S([NH-])(=O)=O)c3)s2)cs1 (3D coordinates assigned)
Cc1nc(-c2ccc(S(=O)(=O)[N-]c3cccc(S([NH-])(=O)=O)c3)s2)cs1 (optimized conformer: 93.49099686833968 kcal/mol)

>  <smiles>  (18) 
Cc1nc(-c2ccc(S(=O)(=O)Nc3cccc(S(N)(=O)=O)c3)s2)cs1

>  <score_type>  (18) 
oracle

>  <origin>  (18) 
adg

>  <m_score__min__energy>  (18) 
-13.25

>  <m_primary>  (18) 
energy

$$$$
18:0
     RDKit          3D

 38 40  0  0  1  0  0  0  0  0999 V2000
   55.3170   30.4660   44.3110 O   0  0  0  0  0  0  0  0  0  0  0  0
   56.5770   30.5110   44.4830 C   0  0  0  0  0  0  0  0  0  0  0  0
   57.4000   31.4400   43.6630 C   0  0  0  0  0  0  0  0  0  0  0  0
   57.8550   32.5880   44.5090 C   0  0  0  0  0  0  0  0  0  0  0  0
   58.7800   33.5100   44.0660 C   0  0  0  0  0  0  0  0  0  0  0  0
   59.1270   34.5400   44.9460 C   0  0  0  0  0  0  0  0  0  0  0  0
   58.5440   34.6060   46.2170 C   0  0  0  0  0  0  0  0  0  0  0  0
   57.6190   33.6720   46.6410 C   0  0  0  0  0  0  0  0  0  0  0  0
   57.2780   32.6600   45.7750 C   0  0  0  0  0  0  0  0  0  0  0  0
   57.1310   29.6520   45.4670 N   0  0  0  0  0  0  0  0  0  0  0  0
   58.3740   29.6400   45.7880 C   0  0  0  0  0  0  0  0  0  0  0  0
   59.3980   29.1620   45.0640 N   0  0  0  0  0  0  0  0  0  0  0  0
   60.5360   29.3400   45.7570 C   0  0  0  0  0  0  0  0  0  0  0  0
   60.2250   29.9330   46.9250 N   0  0  0  0  0  0  0  0  0  0  0  0
   61.0930   30.3320   48.0140 C   0  0  0  0  0  0  0  0  0  0  0  0
   61.8500   31.5450   47.5840 C   0  0  0  0  0  0  0  0  0  0  0  0
   63.2240   31.6310   47.6470 C   0  0  0  0  0  0  0  0  0  0  0  0
   63.8290   32.8120   47.2190 C   0  0  0  0  0  0  0  0  0  0  0  0
   63.0580   33.8770   46.7420 C   0  0  0  0  0  0  0  0  0  0  0  0
   61.6750   33.7680   46.6880 C   0  0  0  0  0  0  0  0  0  0  0  0
   61.0740   32.6010   47.1100 C   0  0  0  0  0  0  0  0  0  0  0  0
   58.9000   30.1120   46.9340 N   0  0  0  0  0  0  0  0  0  0  0  0
   58.2770   30.9037   43.2715 H   0  0  0  0  0  0  0  0  0  0  0  0
   56.7966   31.8201   42.8255 H   0  0  0  0  0  0  0  0  0  0  0  0
   59.2259   33.4383   43.0630 H   0  0  0  0  0  0  0  0  0  0  0  0
   59.8600   35.3004   44.6386 H   0  0  0  0  0  0  0  0  0  0  0  0
   58.8300   35.4230   46.8957 H   0  0  0  0  0  0  0  0  0  0  0  0
   57.1683   33.7360   47.6424 H   0  0  0  0  0  0  0  0  0  0  0  0
   56.5439   31.9013   46.0842 H   0  0  0  0  0  0  0  0  0  0  0  0
   61.5450   29.0516   45.4274 H   0  0  0  0  0  0  0  0  0  0  0  0
   60.4908   30.5647   48.9046 H   0  0  0  0  0  0  0  0  0  0  0  0
   61.7889   29.5177   48.2643 H   0  0  0  0  0  0  0  0  0  0  0  0
   63.8264   30.7915   48.0243 H   0  0  0  0  0  0  0  0  0  0  0  0
   64.9242   32.9072   47.2569 H   0  0  0  0  0  0  0  0  0  0  0  0
   63.5487   34.8034   46.4088 H   0  0  0  0  0  0  0  0  0  0  0  0
   61.0655   34.6033   46.3128 H   0  0  0  0  0  0  0  0  0  0  0  0
   59.9790   32.5033   47.0724 H   0  0  0  0  0  0  0  0  0  0  0  0
   58.3290   30.5540   47.7120 H   0  0  0  0  0  0  0  0  0  0  0  0
  1  2  2  0
  2  3  1  0
  3  4  1  0
  4  5  2  0
  5  6  1  0
  6  7  2  0
  7  8  1  0
  8  9  2  0
  2 10  1  0
 10 11  2  0
 11 12  1  0
 12 13  2  0
 13 14  1  0
 14 15  1  0
 15 16  1  0
 16 17  2  0
 17 18  1  0
 18 19  2  0
 19 20  1  0
 20 21  2  0
 14 22  1  0
  9  4  1  0
 22 11  1  0
 21 16  1  0
  3 23  1  0
  3 24  1  0
  5 25  1  0
  6 26  1  0
  7 27  1  0
  8 28  1  0
  9 29  1  0
 13 30  1  0
 15 31  1  0
 15 32  1  0
 17 33  1  0
 18 34  1  0
 19 35  1  0
 20 36  1  0
 21 37  1  0
 22 38  1  0
M  END
>  <smiles>  (19) 
O=C(Cc1ccccc1)N=c1ncn(Cc2ccccc2)[nH]1

>  <score_type>  (19) 
oracle

>  <origin>  (19) 
adg

>  <m_score__min__energy>  (19) 
-7.8799999999999999

>  <m_primary>  (19) 
energy

$$$$
19:0
     RDKit          3D

 46 49  0  0  0  0  0  0  0  0999 V2000
   63.2630   33.5870   50.8620 O   0  0  0  0  0  0  0  0  0  0  0  0
   63.4200   33.3310   49.6360 C   0  0  0  0  0  0  0  0  0  0  0  0
   64.6470   32.7340   49.1880 N   0  0  0  0  0  0  0  0  0  0  0  0
   65.6260   32.1740   50.1180 C   0  0  0  0  0  0  0  0  0  0  0  0
   66.5270   33.2610   50.6390 C   0  0  0  0  0  0  0  0  0  0  0  0
   66.0470   34.1760   51.5870 C   0  0  0  0  0  0  0  0  0  0  0  0
   66.8850   35.1960   52.0440 C   0  0  0  0  0  0  0  0  0  0  0  0
   68.1540   35.3020   51.5670 N   0  0  0  0  0  0  0  0  0  0  0  0
   68.6420   34.4330   50.6430 C   0  0  0  0  0  0  0  0  0  0  0  0
   67.8370   33.3990   50.1590 C   0  0  0  0  0  0  0  0  0  0  0  0
   62.3390   33.6680   48.6790 C   0  0  0  0  0  0  0  0  0  0  0  0
   61.1180   34.2060   49.1240 C   0  0  0  0  0  0  0  0  0  0  0  0
   60.1090   34.5260   48.2110 C   0  0  0  0  0  0  0  0  0  0  0  0
   60.3060   34.3260   46.8380 C   0  0  0  0  0  0  0  0  0  0  0  0
   59.2100   34.6330   45.8550 C   0  0  0  0  0  0  0  0  0  0  0  0
   58.6150   33.3940   45.3640 N   0  0  0  0  0  0  0  0  0  0  0  0
   58.1290   33.1720   43.9980 C   0  0  0  0  0  0  0  0  0  0  0  0
   57.6390   31.7520   44.0340 C   0  0  0  0  0  0  0  0  0  0  0  0
   57.0720   31.0090   42.9980 C   0  0  0  0  0  0  0  0  0  0  0  0
   56.6820   29.6830   43.2580 C   0  0  0  0  0  0  0  0  0  0  0  0
   56.8610   29.1250   44.5390 C   0  0  0  0  0  0  0  0  0  0  0  0
   57.4340   29.8870   45.5720 C   0  0  0  0  0  0  0  0  0  0  0  0
   57.8120   31.1980   45.2850 C   0  0  0  0  0  0  0  0  0  0  0  0
   58.4130   32.2040   46.1220 C   0  0  0  0  0  0  0  0  0  0  0  0
   58.7150   32.0720   47.3370 O   0  0  0  0  0  0  0  0  0  0  0  0
   61.5220   33.7920   46.3890 C   0  0  0  0  0  0  0  0  0  0  0  0
   62.5330   33.4730   47.3000 C   0  0  0  0  0  0  0  0  0  0  0  0
   64.8840   32.7330   48.1710 H   0  0  0  0  0  0  0  0  0  0  0  0
   65.0989   31.7035   50.9611 H   0  0  0  0  0  0  0  0  0  0  0  0
   66.2346   31.4244   49.5910 H   0  0  0  0  0  0  0  0  0  0  0  0
   65.0185   34.0912   51.9679 H   0  0  0  0  0  0  0  0  0  0  0  0
   66.5176   35.9148   52.7912 H   0  0  0  0  0  0  0  0  0  0  0  0
   69.6728   34.5441   50.2756 H   0  0  0  0  0  0  0  0  0  0  0  0
   68.2281   32.6982   49.4068 H   0  0  0  0  0  0  0  0  0  0  0  0
   60.9559   34.3762   50.1986 H   0  0  0  0  0  0  0  0  0  0  0  0
   59.1549   34.9372   48.5723 H   0  0  0  0  0  0  0  0  0  0  0  0
   58.4356   35.2371   46.3504 H   0  0  0  0  0  0  0  0  0  0  0  0
   59.6333   35.1901   45.0062 H   0  0  0  0  0  0  0  0  0  0  0  0
   57.3110   33.8654   43.7529 H   0  0  0  0  0  0  0  0  0  0  0  0
   58.9005   33.3427   43.2327 H   0  0  0  0  0  0  0  0  0  0  0  0
   56.9331   31.4505   42.0001 H   0  0  0  0  0  0  0  0  0  0  0  0
   56.2343   29.0778   42.4559 H   0  0  0  0  0  0  0  0  0  0  0  0
   56.5507   28.0875   44.7320 H   0  0  0  0  0  0  0  0  0  0  0  0
   57.5797   29.4620   46.5761 H   0  0  0  0  0  0  0  0  0  0  0  0
   61.6814   33.6231   45.3138 H   0  0  0  0  0  0  0  0  0  0  0  0
   63.4878   33.0663   46.9353 H   0  0  0  0  0  0  0  0  0  0  0  0
  1  2  2  0
  2  3  1  0
  3  4  1  0
  4  5  1  0
  5  6  2  0
  6  7  1  0
  7  8  2  0
  8  9  1  0
  9 10  2  0
  2 11  1  0
 11 12  2  0
 12 13  1  0
 13 14  2  0
 14 15  1  0
 15 16  1  0
 16 17  1  0
 17 18  1  0
 18 19  2  0
 19 20  1  0
 20 21  2  0
 21 22  1  0
 22 23  2  0
 23 24  1  0
 24 25  2  0
 14 26  1  0
 26 27  2  0
 10  5  1  0
 27 11  1  0
 24 16  1  0
 23 18  1  0
  3 28  1  0
  4 29  1  0
  4 30  1  0
  6 31  1  0
  7 32  1  0
  9 33  1  0
 10 34  1  0
 12 35  1  0
 13 36  1  0
 15 37  1  0
 15 38  1  0
 17 39  1  0
 17 40  1  0
 19 41  1  0
 20 42  1  0
 21 43  1  0
 22 44  1  0
 26 45  1  0
 27 46  1  0
M  END
>  <UniqueID>  (20) 
19

>  <SMILES>  (20) 
O=C(NCc1ccncc1)c1ccc(CN2Cc3ccccc3C2=O)cc1

>  <Energy>  (20) 
70.28680307742535

>  <Genealogy>  (20) 
O=C(NCc1ccncc1)c1ccc(CN2Cc3ccccc3C2=O)cc1 (3D coordinates assigned)
O=C(NCc1ccncc1)c1ccc(CN2Cc3ccccc3C2=O)cc1 (nonaromatic ring conformer: 70.28680307742535 kcal/mol)

>  <smiles>  (20) 
O=C(NCc1ccncc1)c1ccc(CN2Cc3ccccc3C2=O)cc1

>  <score_type>  (20) 
oracle

>  <origin>  (20) 
adg

>  <m_score__min__energy>  (20) 
-8.3800000000000008

>  <m_primary>  (20) 
energy

$$$$
20:0
     RDKit          3D

 45 46  0  0  0  0  0  0  0  0999 V2000
   58.2490   28.1960   44.9910 C   0  0  0  0  0  0  0  0  0  0  0  0
   57.6190   29.1210   43.9510 C   0  0  0  0  0  0  0  0  0  0  0  0
   56.4960   29.9320   44.5440 C   0  0  0  0  0  0  0  0  0  0  0  0
   55.4230   29.3560   44.8640 O   0  0  0  0  0  0  0  0  0  0  0  0
   56.5620   31.3590   44.6410 N   0  0  0  0  0  0  0  0  0  0  0  0
   57.4370   32.1090   45.4940 C   0  0  0  0  0  0  0  0  0  0  0  0
   57.5140   33.5100   45.4140 C   0  0  0  0  0  0  0  0  0  0  0  0
   58.4020   34.2140   46.2330 C   0  0  0  0  0  0  0  0  0  0  0  0
   59.2330   33.5290   47.1320 C   0  0  0  0  0  0  0  0  0  0  0  0
   60.1170   34.2780   47.9850 N   0  0  0  0  0  0  0  0  0  0  0  0
   61.5300   34.0440   48.0910 C   0  0  0  0  0  0  0  0  0  0  0  0
   62.4220   33.7450   46.7430 S   0  0  0  0  0  0  0  0  0  0  0  0
   62.1910   34.3100   49.3380 N   0  0  0  0  0  0  0  0  0  0  0  0
   63.3480   33.5900   49.8040 C   0  0  0  0  0  0  0  0  0  0  0  0
   63.6720   32.3310   49.2720 C   0  0  0  0  0  0  0  0  0  0  0  0
   64.7600   31.6110   49.7650 C   0  0  0  0  0  0  0  0  0  0  0  0
   65.5440   32.1350   50.8080 C   0  0  0  0  0  0  0  0  0  0  0  0
   66.6500   31.4530   51.3350 O   0  0  0  0  0  0  0  0  0  0  0  0
   66.8250   30.0400   51.2710 C   0  0  0  0  0  0  0  0  0  0  0  0
   65.2180   33.3840   51.3460 C   0  0  0  0  0  0  0  0  0  0  0  0
   64.1180   34.1170   50.8580 C   0  0  0  0  0  0  0  0  0  0  0  0
   63.7630   35.3660   51.3920 O   0  0  0  0  0  0  0  0  0  0  0  0
   64.5170   36.0700   52.3740 C   0  0  0  0  0  0  0  0  0  0  0  0
   59.1460   32.1280   47.2130 C   0  0  0  0  0  0  0  0  0  0  0  0
   58.2730   31.4240   46.3790 C   0  0  0  0  0  0  0  0  0  0  0  0
   58.0028   28.5575   46.0003 H   0  0  0  0  0  0  0  0  0  0  0  0
   57.8566   27.1767   44.8607 H   0  0  0  0  0  0  0  0  0  0  0  0
   59.3412   28.1878   44.8607 H   0  0  0  0  0  0  0  0  0  0  0  0
   58.3900   29.8050   43.5667 H   0  0  0  0  0  0  0  0  0  0  0  0
   57.2076   28.5011   43.1407 H   0  0  0  0  0  0  0  0  0  0  0  0
   56.8735   34.0545   44.7046 H   0  0  0  0  0  0  0  0  0  0  0  0
   58.4493   35.3113   46.1721 H   0  0  0  0  0  0  0  0  0  0  0  0
   59.6990   35.0140   48.5980 H   0  0  0  0  0  0  0  0  0  0  0  0
   61.7850   35.0420   49.9610 H   0  0  0  0  0  0  0  0  0  0  0  0
   63.0623   31.9092   48.4594 H   0  0  0  0  0  0  0  0  0  0  0  0
   65.0060   30.6285   49.3358 H   0  0  0  0  0  0  0  0  0  0  0  0
   66.8757   29.6303   52.2906 H   0  0  0  0  0  0  0  0  0  0  0  0
   65.9758   29.5892   50.7365 H   0  0  0  0  0  0  0  0  0  0  0  0
   67.7585   29.8100   50.7365 H   0  0  0  0  0  0  0  0  0  0  0  0
   65.8285   33.7998   52.1611 H   0  0  0  0  0  0  0  0  0  0  0  0
   64.1884   35.7632   53.3780 H   0  0  0  0  0  0  0  0  0  0  0  0
   65.5854   35.8388   52.2512 H   0  0  0  0  0  0  0  0  0  0  0  0
   64.3595   37.1517   52.2512 H   0  0  0  0  0  0  0  0  0  0  0  0
   59.7689   31.5826   47.9373 H   0  0  0  0  0  0  0  0  0  0  0  0
   58.2441   30.3251   46.4197 H   0  0  0  0  0  0  0  0  0  0  0  0
  1  2  1  0
  2  3  1  0
  3  4  2  0
  3  5  1  0
  5  6  1  0
  6  7  2  0
  7  8  1  0
  8  9  2  0
  9 10  1  0
 10 11  1  0
 11 12  2  0
 11 13  1  0
 13 14  1  0
 14 15  2  0
 15 16  1  0
 16 17  2  0
 17 18  1  0
 18 19  1  0
 17 20  1  0
 20 21  2  0
 21 22  1  0
 22 23  1  0
  9 24  1  0
 24 25  2  0
 25  6  1  0
 21 14  1  0
  1 26  1  0
  1 27  1  0
  1 28  1  0
  2 29  1  0
  2 30  1  0
  7 31  1  0
  8 32  1  0
 10 33  1  0
 13 34  1  0
 15 35  1  0
 16 36  1  0
 19 37  1  0
 19 38  1  0
 19 39  1  0
 20 40  1  0
 23 41  1  0
 23 42  1  0
 23 43  1  0
 24 44  1  0
 25 45  1  0
M  CHG  1   5  -1
M  END
>  <UniqueID>  (21) 
20

>  <SMILES>  (21) 
CCC(=O)[N-]c1ccc(NC(=S)Nc2ccc(OC)cc2OC)cc1

>  <Energy>  (21) 
56.59445881597016

>  <Genealogy>  (21) 
CCC(=O)[N-]c1ccc(NC(=S)Nc2ccc(OC)cc2OC)cc1 (protonated)
CCC(=O)[N-]c1ccc(NC(=S)Nc2ccc(OC)cc2OC)cc1 (3D coordinates assigned)
CCC(=O)[N-]c1ccc(NC(=S)Nc2ccc(OC)cc2OC)cc1 (optimized conformer: 56.59445881597016 kcal/mol)

>  <smiles>  (21) 
CCC(=O)Nc1ccc(NC(=S)Nc2ccc(OC)cc2OC)cc1

>  <score_type>  (21) 
oracle

>  <origin>  (21) 
adg

>  <m_score__min__energy>  (21) 
-8.5399999999999991

>  <m_primary>  (21) 
energy

$$$$
21:0
     RDKit          3D

 53 56  0  0  0  0  0  0  0  0999 V2000
   53.6100   23.7160   45.3760 C   0  0  0  0  0  0  0  0  0  0  0  0
   54.6310   24.7920   45.5230 C   0  0  0  0  0  0  0  0  0  0  0  0
   55.9740   24.6840   45.2320 C   0  0  0  0  0  0  0  0  0  0  0  0
   56.4610   25.9340   45.5680 C   0  0  0  0  0  0  0  0  0  0  0  0
   57.6910   26.3410   45.4750 N   0  0  0  0  0  0  0  0  0  0  0  0
   58.8940   26.1180   46.7040 S   0  0  0  0  0  0  0  0  0  0  0  0
   60.1600   25.6170   46.0700 O   0  0  0  0  0  0  0  0  0  0  0  0
   58.4150   25.0910   47.6930 O   0  0  0  0  0  0  0  0  0  0  0  0
   59.2240   27.6530   47.5010 C   0  0  0  0  0  0  0  0  0  0  0  0
   59.8550   27.6930   48.7520 C   0  0  0  0  0  0  0  0  0  0  0  0
   60.1010   28.9190   49.3760 C   0  0  0  0  0  0  0  0  0  0  0  0
   59.7080   30.1180   48.7680 C   0  0  0  0  0  0  0  0  0  0  0  0
   59.9980   31.3540   49.4380 N   0  0  0  0  0  0  0  0  0  0  0  0
   59.0630   32.1980   50.1240 C   0  0  0  0  0  0  0  0  0  0  0  0
   57.8940   31.7950   50.3630 O   0  0  0  0  0  0  0  0  0  0  0  0
   59.4890   33.5420   50.5580 C   0  0  0  0  0  0  0  0  0  0  0  0
   59.4380   33.8320   51.7820 O   0  0  0  0  0  0  0  0  0  0  0  0
   60.0390   34.5020   49.6460 N   0  0  0  0  0  0  0  0  0  0  0  0
   61.0640   34.2650   48.6710 C   0  0  0  0  0  0  0  0  0  0  0  0
   62.4030   34.0970   49.0700 C   0  0  0  0  0  0  0  0  0  0  0  0
   63.3840   33.7640   48.1330 C   0  0  0  0  0  0  0  0  0  0  0  0
   63.0370   33.5680   46.7960 C   0  0  0  0  0  0  0  0  0  0  0  0
   61.7080   33.7100   46.3910 C   0  0  0  0  0  0  0  0  0  0  0  0
   60.7180   34.0740   47.3130 C   0  0  0  0  0  0  0  0  0  0  0  0
   59.3650   34.2030   46.8470 N   0  0  0  0  0  0  0  0  0  0  0  0
   58.9490   34.2760   45.4770 C   0  0  0  0  0  0  0  0  0  0  0  0
   59.0870   35.3670   44.8610 O   0  0  0  0  0  0  0  0  0  0  0  0
   58.3300   33.1220   44.7820 C   0  0  0  0  0  0  0  0  0  0  0  0
   58.3590   33.0440   43.3810 C   0  0  0  0  0  0  0  0  0  0  0  0
   57.7660   31.9550   42.7380 C   0  0  0  0  0  0  0  0  0  0  0  0
   57.1510   30.9840   43.4640 N   0  0  0  0  0  0  0  0  0  0  0  0
   57.0960   31.0400   44.8200 C   0  0  0  0  0  0  0  0  0  0  0  0
   57.6810   32.1080   45.5050 C   0  0  0  0  0  0  0  0  0  0  0  0
   59.0990   30.0770   47.5000 C   0  0  0  0  0  0  0  0  0  0  0  0
   58.8520   28.8500   46.8780 C   0  0  0  0  0  0  0  0  0  0  0  0
   55.4660   26.7160   46.0290 N   0  0  0  0  0  0  0  0  0  0  0  0
   54.3830   25.9950   45.9900 O   0  0  0  0  0  0  0  0  0  0  0  0
   53.2884   23.3771   46.3719 H   0  0  0  0  0  0  0  0  0  0  0  0
   52.7425   24.1066   44.8238 H   0  0  0  0  0  0  0  0  0  0  0  0
   54.0456   22.8702   44.8238 H   0  0  0  0  0  0  0  0  0  0  0  0
   56.5223   23.8184   44.8318 H   0  0  0  0  0  0  0  0  0  0  0  0
   60.1574   26.7568   49.2439 H   0  0  0  0  0  0  0  0  0  0  0  0
   60.6072   28.9425   50.3523 H   0  0  0  0  0  0  0  0  0  0  0  0
   62.6789   34.2288   50.1266 H   0  0  0  0  0  0  0  0  0  0  0  0
   64.4318   33.6561   48.4498 H   0  0  0  0  0  0  0  0  0  0  0  0
   63.8104   33.3015   46.0606 H   0  0  0  0  0  0  0  0  0  0  0  0
   61.4364   33.5346   45.3396 H   0  0  0  0  0  0  0  0  0  0  0  0
   58.8459   33.8358   42.7928 H   0  0  0  0  0  0  0  0  0  0  0  0
   57.7967   31.8828   41.6408 H   0  0  0  0  0  0  0  0  0  0  0  0
   56.5888   30.2413   45.3811 H   0  0  0  0  0  0  0  0  0  0  0  0
   57.6335   32.1543   46.6030 H   0  0  0  0  0  0  0  0  0  0  0  0
   58.8165   31.0135   46.9969 H   0  0  0  0  0  0  0  0  0  0  0  0
   58.3625   28.8248   45.8932 H   0  0  0  0  0  0  0  0  0  0  0  0
  1  2  1  0
  2  3  2  0
  3  4  1  0
  4  5  2  3
  5  6  1  0
  6  7  2  0
  6  8  2  0
  6  9  1  0
  9 10  2  0
 10 11  1  0
 11 12  2  0
 12 13  1  0
 13 14  1  0
 14 15  2  0
 14 16  1  0
 16 17  2  0
 16 18  1  0
 18 19  1  0
 19 20  2  0
 20 21  1  0
 21 22  2  0
 22 23  1  0
 23 24  2  0
 24 25  1  0
 25 26  1  0
 26 27  2  0
 26 28  1  0
 28 29  2  0
 29 30  1  0
 30 31  2  0
 31 32  1  0
 32 33  2  0
 12 34  1  0
 34 35  2  0
  4 36  1  0
 36 37  1  0
 37  2  1  0
 35  9  1  0
 24 19  1  0
 33 28  1  0
  1 38  1  0
  1 39  1  0
  1 40  1  0
  3 41  1  0
 10 42  1  0
 11 43  1  0
 20 44  1  0
 21 45  1  0
 22 46  1  0
 23 47  1  0
 29 48  1  0
 30 49  1  0
 32 50  1  0
 33 51  1  0
 34 52  1  0
 35 53  1  0
M  CHG  4  13  -1  18  -1  25  -1  36  -1
M  END
>  <UniqueID>  (22) 
21

>  <SMILES>  (22) 
Cc1cc(=NS(=O)(=O)c2ccc([N-]C(=O)C(=O)[N-]c3ccccc3[N-]C(=O)c3ccncc3)cc2)[n-]o1

>  <Energy>  (22) 
106.21430609539044

>  <Genealogy>  (22) 
Cc1cc(=NS(=O)(=O)c2ccc([N-]C(=O)C(=O)[N-]c3ccccc3[N-]C(=O)c3ccncc3)cc2)[n-]o1 (protonated)
Cc1cc(=NS(=O)(=O)c2ccc([N-]C(=O)C(=O)[N-]c3ccccc3[N-]C(=O)c3ccncc3)cc2)[n-]o1 (3D coordinates assigned)
Cc1cc(=NS(=O)(=O)c2ccc([N-]C(=O)C(=O)[N-]c3ccccc3[N-]C(=O)c3ccncc3)cc2)[n-]o1 (optimized conformer: 106.21430609539044 kcal/mol)

>  <smiles>  (22) 
Cc1cc(=NS(=O)(=O)c2ccc(NC(=O)C(=O)Nc3ccccc3NC(=O)c3ccncc3)cc2)[nH]o1

>  <score_type>  (22) 
oracle

>  <origin>  (22) 
adg

>  <m_score__min__energy>  (22) 
-15.880000000000001

>  <m_primary>  (22) 
energy

$$$$
22:0
     RDKit          3D

 59 62  0  0  0  0  0  0  0  0999 V2000
   56.1300   26.3550   46.7570 O   0  0  0  0  0  0  0  0  0  0  0  0
   57.4400   26.5580   46.0470 S   0  0  0  0  0  0  0  0  0  0  0  0
   57.9670   25.2230   45.6040 O   0  0  0  0  0  0  0  0  0  0  0  0
   57.1820   27.5620   44.6550 N   0  0  0  0  0  0  0  0  0  0  0  0
   57.3160   28.9910   44.6610 C   0  0  0  0  0  0  0  0  0  0  0  0
   58.5510   29.6290   44.4720 C   0  0  0  0  0  0  0  0  0  0  0  0
   58.6090   31.0210   44.4820 C   0  0  0  0  0  0  0  0  0  0  0  0
   57.4410   31.7520   44.6810 C   0  0  0  0  0  0  0  0  0  0  0  0
   57.4920   33.1500   44.6860 O   0  0  0  0  0  0  0  0  0  0  0  0
   57.1800   33.9480   45.8270 C   0  0  0  0  0  0  0  0  0  0  0  0
   58.2370   33.7880   46.9260 C   0  0  0  0  0  0  0  0  0  0  0  0
   59.5400   34.5250   46.5780 C   0  0  0  0  0  0  0  0  0  0  0  0
   60.7010   33.9080   47.2550 N   0  0  0  0  0  0  0  0  0  0  0  0
   61.8790   33.9100   46.3650 C   0  0  0  0  0  0  0  0  0  0  0  0
   63.1260   33.5450   47.1770 C   0  0  0  0  0  0  0  0  0  0  0  0
   62.8280   32.4730   48.1350 N   0  0  0  0  0  0  0  0  0  0  0  0
   63.7170   32.2210   49.2410 C   0  0  0  0  0  0  0  0  0  0  0  0
   64.9090   32.9560   49.3780 C   0  0  0  0  0  0  0  0  0  0  0  0
   65.7780   32.7010   50.4430 C   0  0  0  0  0  0  0  0  0  0  0  0
   65.4690   31.7090   51.3780 C   0  0  0  0  0  0  0  0  0  0  0  0
   64.2930   30.9680   51.2460 C   0  0  0  0  0  0  0  0  0  0  0  0
   63.4210   31.2180   50.1810 C   0  0  0  0  0  0  0  0  0  0  0  0
   61.6340   31.6490   47.9190 C   0  0  0  0  0  0  0  0  0  0  0  0
   60.3860   32.5390   47.7460 C   0  0  0  0  0  0  0  0  0  0  0  0
   56.2670   31.0890   44.8710 N   0  0  0  0  0  0  0  0  0  0  0  0
   56.2100   29.7570   44.8620 N   0  0  0  0  0  0  0  0  0  0  0  0
   58.6190   27.3050   47.1190 C   0  0  0  0  0  0  0  0  0  0  0  0
   59.7730   26.6080   47.5060 C   0  0  0  0  0  0  0  0  0  0  0  0
   60.7000   27.2050   48.3650 C   0  0  0  0  0  0  0  0  0  0  0  0
   60.4800   28.5010   48.8410 C   0  0  0  0  0  0  0  0  0  0  0  0
   59.3340   29.2020   48.4550 C   0  0  0  0  0  0  0  0  0  0  0  0
   58.4070   28.6080   47.5940 C   0  0  0  0  0  0  0  0  0  0  0  0
   57.0030   27.0820   43.7450 H   0  0  0  0  0  0  0  0  0  0  0  0
   59.4646   29.0361   44.3174 H   0  0  0  0  0  0  0  0  0  0  0  0
   59.5688   31.5377   44.3340 H   0  0  0  0  0  0  0  0  0  0  0  0
   57.1357   35.0045   45.5238 H   0  0  0  0  0  0  0  0  0  0  0  0
   56.2106   33.6164   46.2274 H   0  0  0  0  0  0  0  0  0  0  0  0
   57.8375   34.1962   47.8661 H   0  0  0  0  0  0  0  0  0  0  0  0
   58.4667   32.7169   47.0254 H   0  0  0  0  0  0  0  0  0  0  0  0
   59.6957   34.4839   45.4899 H   0  0  0  0  0  0  0  0  0  0  0  0
   59.4520   35.5673   46.9183 H   0  0  0  0  0  0  0  0  0  0  0  0
   61.7343   33.1724   45.5619 H   0  0  0  0  0  0  0  0  0  0  0  0
   62.0059   34.9092   45.9229 H   0  0  0  0  0  0  0  0  0  0  0  0
   63.9167   33.2066   46.4913 H   0  0  0  0  0  0  0  0  0  0  0  0
   63.4573   34.4339   47.7338 H   0  0  0  0  0  0  0  0  0  0  0  0
   65.1585   33.7355   48.6431 H   0  0  0  0  0  0  0  0  0  0  0  0
   66.7064   33.2820   50.5453 H   0  0  0  0  0  0  0  0  0  0  0  0
   66.1520   31.5122   52.2175 H   0  0  0  0  0  0  0  0  0  0  0  0
   64.0516   30.1860   51.9810 H   0  0  0  0  0  0  0  0  0  0  0  0
   62.4990   30.6269   50.0784 H   0  0  0  0  0  0  0  0  0  0  0  0
   61.7731   31.0409   47.0130 H   0  0  0  0  0  0  0  0  0  0  0  0
   61.4881   30.9987   48.7941 H   0  0  0  0  0  0  0  0  0  0  0  0
   59.7106   32.0563   47.0243 H   0  0  0  0  0  0  0  0  0  0  0  0
   59.9241   32.6478   48.7384 H   0  0  0  0  0  0  0  0  0  0  0  0
   59.9490   25.5885   47.1324 H   0  0  0  0  0  0  0  0  0  0  0  0
   61.6034   26.6547   48.6668 H   0  0  0  0  0  0  0  0  0  0  0  0
   61.2087   28.9690   49.5192 H   0  0  0  0  0  0  0  0  0  0  0  0
   59.1616   30.2219   48.8291 H   0  0  0  0  0  0  0  0  0  0  0  0
   57.5085   29.1638   47.2879 H   0  0  0  0  0  0  0  0  0  0  0  0
  1  2  2  0
  2  3  2  0
  2  4  1  0
  4  5  1  0
  5  6  2  0
  6  7  1  0
  7  8  2  0
  8  9  1  0
  9 10  1  0
 10 11  1  0
 11 12  1  0
 12 13  1  0
 13 14  1  0
 14 15  1  0
 15 16  1  0
 16 17  1  0
 17 18  2  0
 18 19  1  0
 19 20  2  0
 20 21  1  0
 21 22  2  0
 16 23  1  0
 23 24  1  0
  8 25  1  0
 25 26  2  0
  2 27  1  0
 27 28  2  0
 28 29  1  0
 29 30  2  0
 30 31  1  0
 31 32  2  0
 26  5  1  0
 32 27  1  0
 24 13  1  0
 22 17  1  0
  4 33  1  0
  6 34  1  0
  7 35  1  0
 10 36  1  0
 10 37  1  0
 11 38  1  0
 11 39  1  0
 12 40  1  0
 12 41  1  0
 14 42  1  0
 14 43  1  0
 15 44  1  0
 15 45  1  0
 18 46  1  0
 19 47  1  0
 20 48  1  0
 21 49  1  0
 22 50  1  0
 23 51  1  0
 23 52  1  0
 24 53  1  0
 24 54  1  0
 28 55  1  0
 29 56  1  0
 30 57  1  0
 31 58  1  0
 32 59  1  0
M  END
>  <UniqueID>  (23) 
22

>  <SMILES>  (23) 
O=S(=O)(Nc1ccc(OCCCN2CCN(c3ccccc3)CC2)nn1)c1ccccc1

>  <Energy>  (23) 
71.53373349818621

>  <Genealogy>  (23) 
O=S(=O)(Nc1ccc(OCCCN2CCN(c3ccccc3)CC2)nn1)c1ccccc1 (3D coordinates assigned)
O=S(=O)(Nc1ccc(OCCCN2CCN(c3ccccc3)CC2)nn1)c1ccccc1 (nonaromatic ring conformer: 71.53373349818621 kcal/mol)

>  <smiles>  (23) 
O=S(=O)(Nc1ccc(OCCCN2CCN(c3ccccc3)CC2)nn1)c1ccccc1

>  <score_type>  (23) 
oracle

>  <origin>  (23) 
adg

>  <m_score__min__energy>  (23) 
-10.470000000000001

>  <m_primary>  (23) 
energy

$$$$
23:0
     RDKit          3D

 45 46  0  0  0  0  0  0  0  0999 V2000
   56.5111   34.0714   46.3905 H   0  0  0  0  0  0  0  0  0  0  0  0
   57.4000   33.4600   46.1760 C   0  0  0  0  0  0  0  0  0  0  0  0
   58.4110   33.5560   46.9910 N   0  0  0  0  0  0  0  0  0  0  0  0
   59.6160   34.3200   46.8220 C   0  0  0  0  0  0  0  0  0  0  0  0
   59.6220   35.3530   46.0970 O   0  0  0  0  0  0  0  0  0  0  0  0
   60.8770   33.8850   47.4670 C   0  0  0  0  0  0  0  0  0  0  0  0
   61.8260   33.2680   46.8180 N   0  0  0  0  0  0  0  0  0  0  0  0
   62.5400   32.0910   47.2230 C   0  0  0  0  0  0  0  0  0  0  0  0
   63.6950   31.8890   46.7650 O   0  0  0  0  0  0  0  0  0  0  0  0
   61.8770   31.0220   48.0440 C   0  0  0  0  0  0  0  0  0  0  0  0
   62.6240   30.2665   48.3289 H   0  0  0  0  0  0  0  0  0  0  0  0
   61.4429   31.4785   48.9457 H   0  0  0  0  0  0  0  0  0  0  0  0
   60.7790   30.3620   47.2480 C   0  0  0  0  0  0  0  0  0  0  0  0
   61.0960   29.7450   46.0240 C   0  0  0  0  0  0  0  0  0  0  0  0
   62.1390   29.7287   45.6748 H   0  0  0  0  0  0  0  0  0  0  0  0
   60.0960   29.1530   45.2490 C   0  0  0  0  0  0  0  0  0  0  0  0
   60.3547   28.6678   44.2963 H   0  0  0  0  0  0  0  0  0  0  0  0
   58.7700   29.1760   45.6810 C   0  0  0  0  0  0  0  0  0  0  0  0
   57.9851   28.7046   45.0713 H   0  0  0  0  0  0  0  0  0  0  0  0
   58.4380   29.7970   46.8870 C   0  0  0  0  0  0  0  0  0  0  0  0
   57.3903   29.8174   47.2215 H   0  0  0  0  0  0  0  0  0  0  0  0
   59.4320   30.3940   47.6730 C   0  0  0  0  0  0  0  0  0  0  0  0
   58.9470   31.1710   49.1770 Cl  0  0  0  0  0  0  0  0  0  0  0  0
   61.0620   34.1910   48.9370 C   0  0  0  0  0  0  0  0  0  0  0  0
   60.7393   33.3129   49.5156 H   0  0  0  0  0  0  0  0  0  0  0  0
   60.4609   35.0869   49.1517 H   0  0  0  0  0  0  0  0  0  0  0  0
   62.5080   34.5240   49.3330 C   0  0  0  0  0  0  0  0  0  0  0  0
   62.5267   35.5021   49.8360 H   0  0  0  0  0  0  0  0  0  0  0  0
   63.1238   34.5465   48.4218 H   0  0  0  0  0  0  0  0  0  0  0  0
   63.1880   33.2580   50.4630 S   0  0  0  0  0  0  0  0  0  0  0  0
   64.7640   33.0910   49.5680 C   0  0  0  0  0  0  0  0  0  0  0  0
   65.5886   33.0036   50.2907 H   0  0  0  0  0  0  0  0  0  0  0  0
   64.7333   32.1911   48.9362 H   0  0  0  0  0  0  0  0  0  0  0  0
   64.9226   33.9774   48.9362 H   0  0  0  0  0  0  0  0  0  0  0  0
   57.3620   32.5900   44.9860 C   0  0  0  0  0  0  0  0  0  0  0  0
   56.6460   31.4950   44.8660 O   0  0  0  0  0  0  0  0  0  0  0  0
   56.8950   30.9640   43.6920 C   0  0  0  0  0  0  0  0  0  0  0  0
   56.2660   29.7080   43.1910 C   0  0  0  0  0  0  0  0  0  0  0  0
   55.9554   29.0877   44.0446 H   0  0  0  0  0  0  0  0  0  0  0  0
   55.3863   29.9571   42.5794 H   0  0  0  0  0  0  0  0  0  0  0  0
   56.9924   29.1528   42.5794 H   0  0  0  0  0  0  0  0  0  0  0  0
   57.8200   31.7280   43.0100 C   0  0  0  0  0  0  0  0  0  0  0  0
   58.2280   31.5389   42.0061 H   0  0  0  0  0  0  0  0  0  0  0  0
   58.1260   32.7780   43.8500 C   0  0  0  0  0  0  0  0  0  0  0  0
   58.8335   33.5975   43.6555 H   0  0  0  0  0  0  0  0  0  0  0  0
  1  2  1  0
  2  3  2  0
  3  4  1  0
  4  5  2  0
  4  6  1  0
  6  7  2  3
  7  8  1  0
  8  9  2  0
  8 10  1  0
 10 11  1  0
 10 12  1  0
 10 13  1  0
 13 14  2  0
 14 15  1  0
 14 16  1  0
 16 17  1  0
 16 18  2  0
 18 19  1  0
 18 20  1  0
 20 21  1  0
 20 22  2  0
 22 23  1  0
  6 24  1  0
 24 25  1  0
 24 26  1  0
 24 27  1  0
 27 28  1  0
 27 29  1  0
 27 30  1  0
 30 31  1  0
 31 32  1  0
 31 33  1  0
 31 34  1  0
  2 35  1  0
 35 36  1  0
 36 37  1  0
 37 38  1  0
 38 39  1  0
 38 40  1  0
 38 41  1  0
 37 42  2  0
 42 43  1  0
 42 44  1  0
 44 45  1  0
 22 13  1  0
 44 35  2  0
M  END
>  <UniqueID>  (24) 
23

>  <SMILES>  (24) 
CSCCC(=NC(=O)Cc1ccccc1Cl)C(=O)/N=C\c1ccc(C)o1

>  <Energy>  (24) 
80.08754968489433

>  <Genealogy>  (24) 
CSCCC(=NC(=O)Cc1ccccc1Cl)C(=O)/N=C\c1ccc(C)o1 (cis-trans isomerization)
CSCCC(=NC(=O)Cc1ccccc1Cl)C(=O)/N=C\c1ccc(C)o1 (3D coordinates assigned)
CSCCC(=NC(=O)Cc1ccccc1Cl)C(=O)/N=C\c1ccc(C)o1 (optimized conformer: 80.08754968489433 kcal/mol)

>  <smiles>  (24) 
CSCCC(=NC(=O)Cc1ccccc1Cl)C(=O)N=Cc1ccc(C)o1

>  <score_type>  (24) 
oracle

>  <origin>  (24) 
adg

>  <m_score__min__energy>  (24) 
-7.9900000000000002

>  <m_primary>  (24) 
energy

$$$$
24:0
     RDKit          3D

 38 39  0  0  0  0  0  0  0  0999 V2000
   60.7360   34.2210   46.4430 C   0  0  0  0  0  0  0  0  0  0  0  0
   59.6500   35.0310   45.7420 C   0  0  0  0  0  0  0  0  0  0  0  0
   58.3080   34.5660   46.1660 N   0  0  0  0  0  0  0  0  0  0  0  0
   57.5160   34.0940   45.0060 C   0  0  0  0  0  0  0  0  0  0  0  0
   58.4340   33.4670   43.9600 C   0  0  0  0  0  0  0  0  0  0  0  0
   58.4120   33.5170   47.2060 C   0  0  0  0  0  0  0  0  0  0  0  0
   57.7710   32.2170   46.7090 C   0  0  0  0  0  0  0  0  0  0  0  0
   58.8170   31.1690   46.4510 C   0  0  0  0  0  0  0  0  0  0  0  0
   60.0000   31.0410   47.1710 C   0  0  0  0  0  0  0  0  0  0  0  0
   60.6430   29.9040   46.8310 N   0  0  0  0  0  0  0  0  0  0  0  0
   59.8720   29.3010   45.9130 C   0  0  0  0  0  0  0  0  0  0  0  0
   60.0980   28.0550   45.3290 C   0  0  0  0  0  0  0  0  0  0  0  0
   59.1330   27.5560   44.4410 C   0  0  0  0  0  0  0  0  0  0  0  0
   57.9760   28.3050   44.1500 C   0  0  0  0  0  0  0  0  0  0  0  0
   57.7690   29.5700   44.7390 C   0  0  0  0  0  0  0  0  0  0  0  0
   56.6250   30.3480   44.3750 N   0  0  0  0  0  0  0  0  0  0  0  0
   55.5120   30.0730   44.8680 O   0  0  0  0  0  0  0  0  0  0  0  0
   56.6780   31.1240   43.2420 O   0  0  0  0  0  0  0  0  0  0  0  0
   58.7440   30.0420   45.6370 C   0  0  0  0  0  0  0  0  0  0  0  0
   60.6150   34.3112   47.5326 H   0  0  0  0  0  0  0  0  0  0  0  0
   60.6511   33.1639   46.1510 H   0  0  0  0  0  0  0  0  0  0  0  0
   61.7250   34.6038   46.1510 H   0  0  0  0  0  0  0  0  0  0  0  0
   59.7649   36.0936   46.0020 H   0  0  0  0  0  0  0  0  0  0  0  0
   59.7486   34.8967   44.6547 H   0  0  0  0  0  0  0  0  0  0  0  0
   56.7864   33.3439   45.3454 H   0  0  0  0  0  0  0  0  0  0  0  0
   56.9928   34.9509   44.5565 H   0  0  0  0  0  0  0  0  0  0  0  0
   59.2414   32.9156   44.4640 H   0  0  0  0  0  0  0  0  0  0  0  0
   57.8545   32.7751   43.3311 H   0  0  0  0  0  0  0  0  0  0  0  0
   58.8676   34.2585   43.3311 H   0  0  0  0  0  0  0  0  0  0  0  0
   59.4725   33.3354   47.4347 H   0  0  0  0  0  0  0  0  0  0  0  0
   57.8861   33.8544   48.1113 H   0  0  0  0  0  0  0  0  0  0  0  0
   57.0700   31.8464   47.4714 H   0  0  0  0  0  0  0  0  0  0  0  0
   57.2403   32.4237   45.7679 H   0  0  0  0  0  0  0  0  0  0  0  0
   60.3617   31.7662   47.9148 H   0  0  0  0  0  0  0  0  0  0  0  0
   61.5370   29.5490   47.2360 H   0  0  0  0  0  0  0  0  0  0  0  0
   61.0071   27.4796   45.5580 H   0  0  0  0  0  0  0  0  0  0  0  0
   59.2809   26.5735   43.9690 H   0  0  0  0  0  0  0  0  0  0  0  0
   57.2256   27.8989   43.4557 H   0  0  0  0  0  0  0  0  0  0  0  0
  1  2  1  0
  2  3  1  0
  3  4  1  0
  4  5  1  0
  3  6  1  0
  6  7  1  0
  7  8  1  0
  8  9  2  0
  9 10  1  0
 10 11  1  0
 11 12  2  0
 12 13  1  0
 13 14  2  0
 14 15  1  0
 15 16  1  0
 16 17  2  0
 16 18  1  0
 15 19  2  0
 19  8  1  0
 19 11  1  0
  1 20  1  0
  1 21  1  0
  1 22  1  0
  2 23  1  0
  2 24  1  0
  4 25  1  0
  4 26  1  0
  5 27  1  0
  5 28  1  0
  5 29  1  0
  6 30  1  0
  6 31  1  0
  7 32  1  0
  7 33  1  0
  9 34  1  0
 10 35  1  0
 12 36  1  0
 13 37  1  0
 14 38  1  0
M  CHG  2  16   1  18  -1
M  END
>  <UniqueID>  (25) 
24

>  <SMILES>  (25) 
CCN(CC)CCc1c[nH]c2cccc([N+](=O)[O-])c12

>  <Energy>  (25) 
73.93042117516342

>  <Genealogy>  (25) 
CCN(CC)CCc1c[nH]c2cccc([N+](=O)[O-])c12 (3D coordinates assigned)
CCN(CC)CCc1c[nH]c2cccc([N+](=O)[O-])c12 (optimized conformer: 73.93042117516342 kcal/mol)

>  <smiles>  (25) 
CCN(CC)CCc1c[nH]c2cccc([N+](=O)[O-])c12

>  <score_type>  (25) 
oracle

>  <origin>  (25) 
adg

>  <m_score__min__energy>  (25) 
-6.7000000000000002

>  <m_primary>  (25) 
energy

$$$$
25:0
     RDKit          3D

 84 87  0  0  1  0  0  0  0  0999 V2000
   58.5820   29.4300   45.1340 C   0  0  0  0  0  0  0  0  0  0  0  0
   59.7170   29.6400   46.1270 C   0  0  0  0  0  0  0  0  0  0  0  0
   60.3120   28.3090   46.5760 C   0  0  0  0  0  0  0  0  0  0  0  0
   59.6380   27.8700   48.1820 S   0  0  0  0  0  0  0  0  0  0  0  0
   60.0180   26.4480   48.4760 O   0  0  0  0  0  0  0  0  0  0  0  0
   58.1630   28.0140   48.1220 O   0  0  0  0  0  0  0  0  0  0  0  0
   60.2600   28.9320   49.4230 C   0  0  0  0  0  0  0  0  0  0  0  0
   60.0050   28.5550   50.7150 N   0  0  0  0  0  0  0  0  0  0  0  0
   60.4720   29.3040   51.7270 C   0  0  0  0  0  0  0  0  0  0  0  0
   60.2680   28.9180   52.8880 N   0  0  0  0  0  0  0  0  0  0  0  0
   58.8540   28.5420   53.6580 S   0  0  0  0  0  0  0  0  0  0  0  0
   58.8550   28.2360   55.1230 O   0  0  0  0  0  0  0  0  0  0  0  0
   58.6350   27.0630   53.1840 O   0  0  0  0  0  0  0  0  0  0  0  0
   57.4140   29.3150   53.0570 C   0  0  0  0  0  0  0  0  0  0  0  0
   57.4270   30.2970   52.1670 N   0  0  0  0  0  0  0  0  0  0  0  0
   56.3640   30.8740   51.6210 C   0  0  0  0  0  0  0  0  0  0  0  0
   55.0930   30.4320   52.0000 C   0  0  0  0  0  0  0  0  0  0  0  0
   53.8760   31.0230   51.3680 C   0  0  0  0  0  0  0  0  0  0  0  0
   54.9780   29.4520   52.8860 C   0  0  0  0  0  0  0  0  0  0  0  0
   56.1230   28.8730   53.4360 C   0  0  0  0  0  0  0  0  0  0  0  0
   56.0270   27.7920   54.4290 C   0  0  0  0  0  0  0  0  0  0  0  0
   61.1930   30.4500   51.5200 C   0  0  0  0  0  0  0  0  0  0  0  0
   61.6930   31.2780   52.5030 O   0  0  0  0  0  0  0  0  0  0  0  0
   60.7560   32.1060   53.1090 C   0  0  0  0  0  0  0  0  0  0  0  0
   60.1550   31.7330   54.3040 C   0  0  0  0  0  0  0  0  0  0  0  0
   59.1980   32.6110   54.8470 C   0  0  0  0  0  0  0  0  0  0  0  0
   58.8620   33.7930   54.2350 C   0  0  0  0  0  0  0  0  0  0  0  0
   59.4710   34.1600   53.0350 C   0  0  0  0  0  0  0  0  0  0  0  0
   60.4270   33.2980   52.4800 C   0  0  0  0  0  0  0  0  0  0  0  0
   60.9830   33.7460   51.2860 O   0  0  0  0  0  0  0  0  0  0  0  0
   61.4360   30.8100   50.1940 C   0  0  0  0  0  0  0  0  0  0  0  0
   62.1550   31.9610   49.9640 O   0  0  0  0  0  0  0  0  0  0  0  0
   63.5320   31.9590   50.4200 C   0  0  0  0  0  0  0  0  0  0  0  0
   64.2400   33.2060   50.1160 C   0  0  0  0  0  0  0  0  0  0  0  0
   64.5080   33.4350   48.6680 C   0  0  0  0  0  0  0  0  0  0  0  0
   63.9050   32.4480   47.7970 N   0  0  0  0  0  0  0  0  0  0  0  0
   62.3930   33.0840   47.2460 S   0  0  0  0  0  0  0  0  0  0  0  0
   61.5070   31.8450   46.9930 O   0  0  0  0  0  0  0  0  0  0  0  0
   62.4340   33.8380   45.9820 O   0  0  0  0  0  0  0  0  0  0  0  0
   61.5210   34.0050   48.4230 N   0  0  0  0  0  0  0  0  0  0  0  0
   60.1420   33.3810   48.4340 C   0  0  0  0  0  0  0  0  0  0  0  0
   59.3850   33.7060   47.2140 C   0  0  0  0  0  0  0  0  0  0  0  0
   59.7170   34.7780   46.3700 C   0  0  0  0  0  0  0  0  0  0  0  0
   58.9890   34.9690   45.2030 C   0  0  0  0  0  0  0  0  0  0  0  0
   57.9480   34.0850   44.9110 C   0  0  0  0  0  0  0  0  0  0  0  0
   57.6070   33.0220   45.7340 C   0  0  0  0  0  0  0  0  0  0  0  0
   58.3460   32.8510   46.8890 C   0  0  0  0  0  0  0  0  0  0  0  0
   60.9670   30.0440   49.1690 N   0  0  0  0  0  0  0  0  0  0  0  0
   57.6436   29.2564   45.6811 H   0  0  0  0  0  0  0  0  0  0  0  0
   58.4778   30.3241   44.5018 H   0  0  0  0  0  0  0  0  0  0  0  0
   58.8046   28.5578   44.5018 H   0  0  0  0  0  0  0  0  0  0  0  0
   60.5043   30.2419   45.6497 H   0  0  0  0  0  0  0  0  0  0  0  0
   59.3148   30.1570   47.0107 H   0  0  0  0  0  0  0  0  0  0  0  0
   60.0581   27.5275   45.8447 H   0  0  0  0  0  0  0  0  0  0  0  0
   61.4059   28.3995   46.6474 H   0  0  0  0  0  0  0  0  0  0  0  0
   56.4805   31.6834   50.8853 H   0  0  0  0  0  0  0  0  0  0  0  0
   53.1823   31.3599   52.1524 H   0  0  0  0  0  0  0  0  0  0  0  0
   54.1669   31.8802   50.7430 H   0  0  0  0  0  0  0  0  0  0  0  0
   53.3822   30.2643   50.7430 H   0  0  0  0  0  0  0  0  0  0  0  0
   53.9818   29.0958   53.1871 H   0  0  0  0  0  0  0  0  0  0  0  0
   56.0650   28.2199   55.4417 H   0  0  0  0  0  0  0  0  0  0  0  0
   55.0775   27.2533   54.2940 H   0  0  0  0  0  0  0  0  0  0  0  0
   56.8667   27.0944   54.2940 H   0  0  0  0  0  0  0  0  0  0  0  0
   60.4162   30.7897   54.8059 H   0  0  0  0  0  0  0  0  0  0  0  0
   58.7036   32.3414   55.7919 H   0  0  0  0  0  0  0  0  0  0  0  0
   58.1101   34.4528   54.6924 H   0  0  0  0  0  0  0  0  0  0  0  0
   59.2072   35.1040   52.5357 H   0  0  0  0  0  0  0  0  0  0  0  0
   61.2490   33.2000   50.5280 H   0  0  0  0  0  0  0  0  0  0  0  0
   63.5398   31.8087   51.5096 H   0  0  0  0  0  0  0  0  0  0  0  0
   64.0523   31.1484   49.8888 H   0  0  0  0  0  0  0  0  0  0  0  0
   63.6325   34.0440   50.4884 H   0  0  0  0  0  0  0  0  0  0  0  0
   65.2225   33.1316   50.6050 H   0  0  0  0  0  0  0  0  0  0  0  0
   64.1138   34.4250   48.3950 H   0  0  0  0  0  0  0  0  0  0  0  0
   65.5967   33.3613   48.5290 H   0  0  0  0  0  0  0  0  0  0  0  0
   64.4800   32.2160   46.9680 H   0  0  0  0  0  0  0  0  0  0  0  0
   61.9020   33.6760   49.4140 H   0  0  0  0  0  0  0  0  0  0  0  0
   60.2462   32.2884   48.5079 H   0  0  0  0  0  0  0  0  0  0  0  0
   59.5909   33.7849   49.2961 H   0  0  0  0  0  0  0  0  0  0  0  0
   60.5424   35.4571   46.6297 H   0  0  0  0  0  0  0  0  0  0  0  0
   59.2274   35.7997   44.5224 H   0  0  0  0  0  0  0  0  0  0  0  0
   57.3724   34.2388   43.9863 H   0  0  0  0  0  0  0  0  0  0  0  0
   56.7812   32.3421   45.4775 H   0  0  0  0  0  0  0  0  0  0  0  0
   58.1034   32.0176   47.5647 H   0  0  0  0  0  0  0  0  0  0  0  0
   61.1290   30.2790   48.1670 H   0  0  0  0  0  0  0  0  0  0  0  0
  1  2  1  0
  2  3  1  0
  3  4  1  0
  4  5  2  0
  4  6  2  0
  4  7  1  0
  7  8  2  0
  8  9  1  0
  9 10  2  0
 10 11  1  0
 11 12  2  0
 11 13  2  0
 11 14  1  0
 14 15  2  0
 15 16  1  0
 16 17  2  0
 17 18  1  0
 17 19  1  0
 19 20  2  0
 20 21  1  0
  9 22  1  0
 22 23  1  0
 23 24  1  0
 24 25  2  0
 25 26  1  0
 26 27  2  0
 27 28  1  0
 28 29  2  0
 29 30  1  0
 22 31  2  0
 31 32  1  0
 32 33  1  0
 33 34  1  0
 34 35  1  0
 35 36  1  0
 36 37  1  0
 37 38  2  0
 37 39  2  0
 37 40  1  0
 40 41  1  0
 41 42  1  0
 42 43  2  0
 43 44  1  0
 44 45  2  0
 45 46  1  0
 46 47  2  0
 31 48  1  0
 48  7  1  0
 20 14  1  0
 29 24  1  0
 47 42  1  0
  1 49  1  0
  1 50  1  0
  1 51  1  0
  2 52  1  0
  2 53  1  0
  3 54  1  0
  3 55  1  0
 16 56  1  0
 18 57  1  0
 18 58  1  0
 18 59  1  0
 19 60  1  0
 21 61  1  0
 21 62  1  0
 21 63  1  0
 25 64  1  0
 26 65  1  0
 27 66  1  0
 28 67  1  0
 30 68  1  0
 33 69  1  0
 33 70  1  0
 34 71  1  0
 34 72  1  0
 35 73  1  0
 35 74  1  0
 36 75  1  0
 40 76  1  0
 41 77  1  0
 41 78  1  0
 43 79  1  0
 44 80  1  0
 45 81  1  0
 46 82  1  0
 47 83  1  0
 48 84  1  0
M  END
>  <smiles>  (26) 
CCCS(=O)(=O)c1nc(=NS(=O)(=O)c2ncc(C)cc2C)c(Oc2ccccc2O)c(OCCCNS(=O)(=O)NCc2ccccc2)[nH]1

>  <score_type>  (26) 
oracle

>  <origin>  (26) 
adg

>  <m_score__min__energy>  (26) 
-10.050000000000001

>  <m_primary>  (26) 
energy

$$$$
26:0
     RDKit          3D

 49 51  0  0  0  0  0  0  0  0999 V2000
   56.3120   29.3310   52.8890 C   0  0  0  0  0  0  0  0  0  0  0  0
   56.9500   29.7440   51.6840 O   0  0  0  0  0  0  0  0  0  0  0  0
   57.7710   30.8760   51.5660 C   0  0  0  0  0  0  0  0  0  0  0  0
   57.3440   32.1550   51.9790 C   0  0  0  0  0  0  0  0  0  0  0  0
   58.1930   33.2540   51.8600 C   0  0  0  0  0  0  0  0  0  0  0  0
   59.4770   33.0910   51.3410 C   0  0  0  0  0  0  0  0  0  0  0  0
   59.9110   31.8290   50.9200 C   0  0  0  0  0  0  0  0  0  0  0  0
   59.0550   30.7200   51.0120 C   0  0  0  0  0  0  0  0  0  0  0  0
   59.4490   29.4220   50.5340 N   0  0  0  0  0  0  0  0  0  0  0  0
   59.5970   28.9840   48.8530 S   0  0  0  0  0  0  0  0  0  0  0  0
   58.3500   28.2590   48.4040 O   0  0  0  0  0  0  0  0  0  0  0  0
   60.7880   28.0680   48.6920 O   0  0  0  0  0  0  0  0  0  0  0  0
   59.7780   30.4370   47.8710 C   0  0  0  0  0  0  0  0  0  0  0  0
   61.0240   31.0690   47.7580 C   0  0  0  0  0  0  0  0  0  0  0  0
   61.1420   32.2690   47.0520 C   0  0  0  0  0  0  0  0  0  0  0  0
   60.0160   32.8470   46.4570 C   0  0  0  0  0  0  0  0  0  0  0  0
   58.7700   32.2100   46.5410 C   0  0  0  0  0  0  0  0  0  0  0  0
   57.5910   32.8180   45.9030 C   0  0  0  0  0  0  0  0  0  0  0  0
   57.2610   33.9910   46.2160 O   0  0  0  0  0  0  0  0  0  0  0  0
   56.8260   32.1230   44.9090 N   0  0  0  0  0  0  0  0  0  0  0  0
   57.2060   30.8610   44.2750 C   0  0  0  0  0  0  0  0  0  0  0  0
   56.0530   29.8880   44.2480 C   0  0  0  0  0  0  0  0  0  0  0  0
   55.1440   30.0590   43.3920 O   0  0  0  0  0  0  0  0  0  0  0  0
   55.9110   28.8070   45.1880 N   0  0  0  0  0  0  0  0  0  0  0  0
   56.7790   27.8800   45.4850 C   0  0  0  0  0  0  0  0  0  0  0  0
   58.1150   28.0840   45.3050 N   0  0  0  0  0  0  0  0  0  0  0  0
   59.0420   27.1320   45.5970 C   0  0  0  0  0  0  0  0  0  0  0  0
   58.6400   25.8920   46.0910 C   0  0  0  0  0  0  0  0  0  0  0  0
   57.2800   25.6450   46.2770 C   0  0  0  0  0  0  0  0  0  0  0  0
   56.3360   26.6330   45.9730 C   0  0  0  0  0  0  0  0  0  0  0  0
   54.9820   26.3600   46.1640 O   0  0  0  0  0  0  0  0  0  0  0  0
   58.6550   31.0040   47.2510 C   0  0  0  0  0  0  0  0  0  0  0  0
   56.8842   29.7014   53.7524 H   0  0  0  0  0  0  0  0  0  0  0  0
   55.2915   29.7403   52.9225 H   0  0  0  0  0  0  0  0  0  0  0  0
   56.2677   28.2324   52.9225 H   0  0  0  0  0  0  0  0  0  0  0  0
   56.3352   32.2861   52.3974 H   0  0  0  0  0  0  0  0  0  0  0  0
   57.8500   34.2504   52.1756 H   0  0  0  0  0  0  0  0  0  0  0  0
   60.1507   33.9570   51.2623 H   0  0  0  0  0  0  0  0  0  0  0  0
   60.9265   31.7054   50.5155 H   0  0  0  0  0  0  0  0  0  0  0  0
   61.9116   30.6189   48.2265 H   0  0  0  0  0  0  0  0  0  0  0  0
   62.1224   32.7600   46.9640 H   0  0  0  0  0  0  0  0  0  0  0  0
   60.1083   33.8036   45.9219 H   0  0  0  0  0  0  0  0  0  0  0  0
   57.5285   31.0622   43.2428 H   0  0  0  0  0  0  0  0  0  0  0  0
   58.0230   30.4128   44.8595 H   0  0  0  0  0  0  0  0  0  0  0  0
   60.1109   27.3412   45.4430 H   0  0  0  0  0  0  0  0  0  0  0  0
   59.3850   25.1191   46.3308 H   0  0  0  0  0  0  0  0  0  0  0  0
   56.9479   24.6703   46.6640 H   0  0  0  0  0  0  0  0  0  0  0  0
   54.3020   27.0860   46.3700 H   0  0  0  0  0  0  0  0  0  0  0  0
   57.6791   30.5014   47.3213 H   0  0  0  0  0  0  0  0  0  0  0  0
  1  2  1  0
  2  3  1  0
  3  4  2  0
  4  5  1  0
  5  6  2  0
  6  7  1  0
  7  8  2  0
  8  9  1  0
  9 10  1  0
 10 11  2  0
 10 12  2  0
 10 13  1  0
 13 14  2  0
 14 15  1  0
 15 16  2  0
 16 17  1  0
 17 18  1  0
 18 19  2  0
 18 20  1  0
 20 21  1  0
 21 22  1  0
 22 23  2  0
 22 24  1  0
 24 25  2  3
 25 26  1  0
 26 27  1  0
 27 28  2  0
 28 29  1  0
 29 30  2  0
 30 31  1  0
 17 32  2  0
  8  3  1  0
 32 13  1  0
 30 25  1  0
  1 33  1  0
  1 34  1  0
  1 35  1  0
  4 36  1  0
  5 37  1  0
  6 38  1  0
  7 39  1  0
 14 40  1  0
 15 41  1  0
 16 42  1  0
 21 43  1  0
 21 44  1  0
 27 45  1  0
 28 46  1  0
 29 47  1  0
 31 48  1  0
 32 49  1  0
M  CHG  3   9  -1  20  -1  26  -1
M  END
>  <UniqueID>  (27) 
25

>  <SMILES>  (27) 
COc1ccccc1[N-]S(=O)(=O)c1cccc(C(=O)[N-]CC(=O)N=c2[n-]cccc2O)c1

>  <Energy>  (27) 
63.71304062253396

>  <Genealogy>  (27) 
COc1ccccc1[N-]S(=O)(=O)c1cccc(C(=O)[N-]CC(=O)N=c2[n-]cccc2O)c1 (protonated)
COc1ccccc1[N-]S(=O)(=O)c1cccc(C(=O)[N-]CC(=O)N=c2[n-]cccc2O)c1 (3D coordinates assigned)
COc1ccccc1[N-]S(=O)(=O)c1cccc(C(=O)[N-]CC(=O)N=c2[n-]cccc2O)c1 (optimized conformer: 63.71304062253396 kcal/mol)

>  <smiles>  (27) 
COc1ccccc1NS(=O)(=O)c1cccc(C(=O)NCC(=O)N=c2[nH]cccc2O)c1

>  <score_type>  (27) 
oracle

>  <origin>  (27) 
adg

>  <m_score__min__energy>  (27) 
-14.15

>  <m_primary>  (27) 
energy

$$$$
27:0
     RDKit          3D

 42 44  0  0  0  0  0  0  0  0999 V2000
   57.9545   28.4196   48.4543 H   0  0  0  0  0  0  0  0  0  0  0  0
   58.5950   28.7690   47.6310 C   0  0  0  0  0  0  0  0  0  0  0  0
   59.3640   29.8780   47.7930 N   0  0  0  0  0  0  0  0  0  0  0  0
   60.1690   30.3480   46.8010 C   0  0  0  0  0  0  0  0  0  0  0  0
   61.0030   31.5380   47.0520 C   0  0  0  0  0  0  0  0  0  0  0  0
   62.3810   31.3470   47.2420 C   0  0  0  0  0  0  0  0  0  0  0  0
   62.8018   30.3318   47.1950 H   0  0  0  0  0  0  0  0  0  0  0  0
   63.2220   32.4330   47.4900 C   0  0  0  0  0  0  0  0  0  0  0  0
   64.2992   32.2700   47.6422 H   0  0  0  0  0  0  0  0  0  0  0  0
   62.6990   33.7230   47.5450 C   0  0  0  0  0  0  0  0  0  0  0  0
   63.3616   34.5762   47.7525 H   0  0  0  0  0  0  0  0  0  0  0  0
   61.3350   33.9340   47.3370 C   0  0  0  0  0  0  0  0  0  0  0  0
   60.9302   34.9559   47.3795 H   0  0  0  0  0  0  0  0  0  0  0  0
   60.4730   32.8560   47.0740 C   0  0  0  0  0  0  0  0  0  0  0  0
   58.7650   33.2180   46.7520 S   0  0  0  0  0  0  0  0  0  0  0  0
   57.9110   32.3820   47.6640 O   0  0  0  0  0  0  0  0  0  0  0  0
   58.4850   34.6700   47.0230 O   0  0  0  0  0  0  0  0  0  0  0  0
   58.3370   32.8770   45.1080 N   0  0  0  0  0  0  0  0  0  0  0  0
   57.7000   31.8050   44.7560 C   0  0  0  0  0  0  0  0  0  0  0  0
   57.0960   30.9850   45.5850 O   0  0  0  0  0  0  0  0  0  0  0  0
   56.5270   30.0120   44.9320 N   0  0  0  0  0  0  0  0  0  0  0  0
   56.7820   30.2110   43.6220 C   0  0  0  0  0  0  0  0  0  0  0  0
   56.2600   29.3380   42.5280 C   0  0  0  0  0  0  0  0  0  0  0  0
   55.7421   28.4718   42.9656 H   0  0  0  0  0  0  0  0  0  0  0  0
   55.5559   29.9106   41.9064 H   0  0  0  0  0  0  0  0  0  0  0  0
   57.0976   28.9887   41.9064 H   0  0  0  0  0  0  0  0  0  0  0  0
   57.5240   31.3670   43.4650 C   0  0  0  0  0  0  0  0  0  0  0  0
   58.0310   31.9770   42.1960 C   0  0  0  0  0  0  0  0  0  0  0  0
   58.7173   32.8028   42.4348 H   0  0  0  0  0  0  0  0  0  0  0  0
   58.5649   31.2142   41.6102 H   0  0  0  0  0  0  0  0  0  0  0  0
   57.1834   32.3624   41.6102 H   0  0  0  0  0  0  0  0  0  0  0  0
   60.1830   29.7030   45.5560 C   0  0  0  0  0  0  0  0  0  0  0  0
   60.7982   30.0965   44.7334 H   0  0  0  0  0  0  0  0  0  0  0  0
   59.4080   28.5560   45.3710 C   0  0  0  0  0  0  0  0  0  0  0  0
   59.4195   28.0343   44.4027 H   0  0  0  0  0  0  0  0  0  0  0  0
   58.6170   28.0710   46.4180 C   0  0  0  0  0  0  0  0  0  0  0  0
   57.6520   26.6160   46.2000 S   0  0  0  0  0  0  0  0  0  0  0  0
   57.5120   25.8930   47.5100 O   0  0  0  0  0  0  0  0  0  0  0  0
   58.3320   25.7060   45.2160 O   0  0  0  0  0  0  0  0  0  0  0  0
   56.0850   27.0470   45.6120 N   0  0  0  0  0  0  0  0  0  0  0  0
   55.7440   26.2460   45.0350 H   0  0  0  0  0  0  0  0  0  0  0  0
   56.2150   27.8530   44.9600 H   0  0  0  0  0  0  0  0  0  0  0  0
  1  2  1  0
  2  3  2  0
  3  4  1  0
  4  5  1  0
  5  6  2  0
  6  7  1  0
  6  8  1  0
  8  9  1  0
  8 10  2  0
 10 11  1  0
 10 12  1  0
 12 13  1  0
 12 14  2  0
 14 15  1  0
 15 16  2  0
 15 17  2  0
 15 18  1  0
 18 19  2  0
 19 20  1  0
 20 21  1  0
 21 22  1  0
 22 23  1  0
 23 24  1  0
 23 25  1  0
 23 26  1  0
 22 27  2  0
 27 28  1  0
 28 29  1  0
 28 30  1  0
 28 31  1  0
  4 32  2  0
 32 33  1  0
 32 34  1  0
 34 35  1  0
 34 36  2  0
 36 37  1  0
 37 38  2  0
 37 39  2  0
 37 40  1  0
 40 41  1  0
 40 42  1  0
 36  2  1  0
 14  5  1  0
 27 19  1  0
M  CHG  1  21  -1
M  END
>  <UniqueID>  (28) 
26

>  <SMILES>  (28) 
Cc1[n-]o/c(=N\S(=O)(=O)c2ccccc2-c2ccc(S(N)(=O)=O)cn2)c1C

>  <Energy>  (28) 
80.88065483591319

>  <Genealogy>  (28) 
Cc1[n-]oc(=NS(=O)(=O)c2ccccc2-c2ccc(S(N)(=O)=O)cn2)c1C (protonated)
Cc1[n-]o/c(=N\S(=O)(=O)c2ccccc2-c2ccc(S(N)(=O)=O)cn2)c1C (cis-trans isomerization)
Cc1[n-]o/c(=N\S(=O)(=O)c2ccccc2-c2ccc(S(N)(=O)=O)cn2)c1C (3D coordinates assigned)
Cc1[n-]o/c(=N\S(=O)(=O)c2ccccc2-c2ccc(S(N)(=O)=O)cn2)c1C (optimized conformer: 80.88065483591319 kcal/mol)

>  <smiles>  (28) 
Cc1[nH]oc(=NS(=O)(=O)c2ccccc2-c2ccc(S(N)(=O)=O)cn2)c1C

>  <score_type>  (28) 
oracle

>  <origin>  (28) 
adg

>  <m_score__min__energy>  (28) 
-10.82

>  <m_primary>  (28) 
energy

$$$$
28:0
     RDKit          3D

 38 39  0  0  0  0  0  0  0  0999 V2000
   63.5910   32.4350   47.5320 C   0  0  0  0  0  0  0  0  0  0  0  0
   62.1400   32.6190   47.2030 C   0  0  0  0  0  0  0  0  0  0  0  0
   61.2290   31.5720   47.4160 C   0  0  0  0  0  0  0  0  0  0  0  0
   59.8690   31.7550   47.1440 C   0  0  0  0  0  0  0  0  0  0  0  0
   59.4080   32.9860   46.6630 C   0  0  0  0  0  0  0  0  0  0  0  0
   57.6610   33.2260   46.3260 S   0  0  0  0  0  0  0  0  0  0  0  0
   57.8460   33.3090   44.5090 C   0  0  0  0  0  0  0  0  0  0  0  0
   57.3890   32.0070   43.8520 C   0  0  0  0  0  0  0  0  0  0  0  0
   57.0830   31.0040   44.8660 N   0  0  0  0  0  0  0  0  0  0  0  0
   56.3670   29.7940   44.5950 C   0  0  0  0  0  0  0  0  0  0  0  0
   55.1420   29.6970   44.8790 O   0  0  0  0  0  0  0  0  0  0  0  0
   57.0930   28.6200   44.0210 C   0  0  0  0  0  0  0  0  0  0  0  0
   57.6420   27.7590   45.1280 C   0  0  0  0  0  0  0  0  0  0  0  0
   59.0290   27.7110   45.3530 C   0  0  0  0  0  0  0  0  0  0  0  0
   59.5490   26.9400   46.3960 C   0  0  0  0  0  0  0  0  0  0  0  0
   58.6920   26.2190   47.2310 C   0  0  0  0  0  0  0  0  0  0  0  0
   57.3110   26.2710   47.0250 C   0  0  0  0  0  0  0  0  0  0  0  0
   56.7810   27.0400   45.9830 C   0  0  0  0  0  0  0  0  0  0  0  0
   55.4020   27.0870   45.8050 O   0  0  0  0  0  0  0  0  0  0  0  0
   60.3090   34.0420   46.4770 C   0  0  0  0  0  0  0  0  0  0  0  0
   61.6680   33.8610   46.7480 C   0  0  0  0  0  0  0  0  0  0  0  0
   63.7201   32.4186   48.6243 H   0  0  0  0  0  0  0  0  0  0  0  0
   63.9458   31.4847   47.1066 H   0  0  0  0  0  0  0  0  0  0  0  0
   64.1718   33.2667   47.1066 H   0  0  0  0  0  0  0  0  0  0  0  0
   61.5860   30.6043   47.7982 H   0  0  0  0  0  0  0  0  0  0  0  0
   59.1605   30.9298   47.3085 H   0  0  0  0  0  0  0  0  0  0  0  0
   57.2371   34.1398   44.1230 H   0  0  0  0  0  0  0  0  0  0  0  0
   58.9084   33.4672   44.2717 H   0  0  0  0  0  0  0  0  0  0  0  0
   56.4882   32.2012   43.2513 H   0  0  0  0  0  0  0  0  0  0  0  0
   58.1982   31.6289   43.2099 H   0  0  0  0  0  0  0  0  0  0  0  0
   56.3981   28.0263   43.4089 H   0  0  0  0  0  0  0  0  0  0  0  0
   57.9255   28.9806   43.3989 H   0  0  0  0  0  0  0  0  0  0  0  0
   59.7085   28.2835   44.7045 H   0  0  0  0  0  0  0  0  0  0  0  0
   60.6360   26.9007   46.5600 H   0  0  0  0  0  0  0  0  0  0  0  0
   59.1040   25.6109   48.0499 H   0  0  0  0  0  0  0  0  0  0  0  0
   56.6373   25.7048   47.6850 H   0  0  0  0  0  0  0  0  0  0  0  0
   59.9462   35.0160   46.1168 H   0  0  0  0  0  0  0  0  0  0  0  0
   62.3709   34.6948   46.6043 H   0  0  0  0  0  0  0  0  0  0  0  0
  1  2  1  0
  2  3  2  0
  3  4  1  0
  4  5  2  0
  5  6  1  0
  6  7  1  0
  7  8  1  0
  8  9  1  0
  9 10  1  0
 10 11  2  0
 10 12  1  0
 12 13  1  0
 13 14  2  0
 14 15  1  0
 15 16  2  0
 16 17  1  0
 17 18  2  0
 18 19  1  0
  5 20  1  0
 20 21  2  0
 21  2  1  0
 18 13  1  0
  1 22  1  0
  1 23  1  0
  1 24  1  0
  3 25  1  0
  4 26  1  0
  7 27  1  0
  7 28  1  0
  8 29  1  0
  8 30  1  0
 12 31  1  0
 12 32  1  0
 14 33  1  0
 15 34  1  0
 16 35  1  0
 17 36  1  0
 20 37  1  0
 21 38  1  0
M  CHG  2   9  -1  19  -1
M  END
>  <UniqueID>  (29) 
27

>  <SMILES>  (29) 
Cc1ccc(SCC[N-]C(=O)Cc2ccccc2[O-])cc1

>  <Energy>  (29) 
28.870580549317935

>  <Genealogy>  (29) 
Cc1ccc(SCC[N-]C(=O)Cc2ccccc2[O-])cc1 (protonated)
Cc1ccc(SCC[N-]C(=O)Cc2ccccc2[O-])cc1 (3D coordinates assigned)
Cc1ccc(SCC[N-]C(=O)Cc2ccccc2[O-])cc1 (optimized conformer: 28.870580549317935 kcal/mol)

>  <smiles>  (29) 
Cc1ccc(SCCNC(=O)Cc2ccccc2O)cc1

>  <score_type>  (29) 
oracle

>  <origin>  (29) 
adg

>  <m_score__min__energy>  (29) 
-13.119999999999999

>  <m_primary>  (29) 
energy

$$$$
29:0
     RDKit          3D

 50 52  0  0  0  0  0  0  0  0999 V2000
   57.5030   33.7530   52.3640 C   0  0  0  0  0  0  0  0  0  0  0  0
   57.5180   32.2630   52.4900 C   0  0  0  0  0  0  0  0  0  0  0  0
   56.3290   31.5520   52.6440 C   0  0  0  0  0  0  0  0  0  0  0  0
   56.3690   30.1570   52.7340 C   0  0  0  0  0  0  0  0  0  0  0  0
   55.0870   29.3840   52.9350 C   0  0  0  0  0  0  0  0  0  0  0  0
   53.9000   30.2430   52.5910 C   0  0  0  0  0  0  0  0  0  0  0  0
   53.7160   30.7030   51.2760 C   0  0  0  0  0  0  0  0  0  0  0  0
   52.6310   31.5280   50.9620 C   0  0  0  0  0  0  0  0  0  0  0  0
   51.7260   31.9050   51.9600 C   0  0  0  0  0  0  0  0  0  0  0  0
   50.6490   32.7250   51.6460 O   0  0  0  0  0  0  0  0  0  0  0  0
   51.9060   31.4580   53.2720 C   0  0  0  0  0  0  0  0  0  0  0  0
   52.9910   30.6330   53.5890 C   0  0  0  0  0  0  0  0  0  0  0  0
   57.6180   29.5130   52.6860 C   0  0  0  0  0  0  0  0  0  0  0  0
   57.6840   28.2560   52.7730 O   0  0  0  0  0  0  0  0  0  0  0  0
   58.7600   30.2580   52.5390 N   0  0  0  0  0  0  0  0  0  0  0  0
   60.0770   29.6210   52.4450 C   0  0  0  0  0  0  0  0  0  0  0  0
   60.4920   29.5080   51.0100 C   0  0  0  0  0  0  0  0  0  0  0  0
   61.2880   28.5930   50.6650 O   0  0  0  0  0  0  0  0  0  0  0  0
   59.9490   30.4080   50.0350 N   0  0  0  0  0  0  0  0  0  0  0  0
   60.3980   30.4380   48.6460 C   0  0  0  0  0  0  0  0  0  0  0  0
   61.3750   31.5760   48.4480 C   0  0  0  0  0  0  0  0  0  0  0  0
   62.4790   31.3470   47.6060 C   0  0  0  0  0  0  0  0  0  0  0  0
   63.3560   32.3810   47.2780 C   0  0  0  0  0  0  0  0  0  0  0  0
   63.1340   33.6660   47.7690 C   0  0  0  0  0  0  0  0  0  0  0  0
   62.0400   33.9180   48.5980 C   0  0  0  0  0  0  0  0  0  0  0  0
   61.1570   32.8840   48.9570 C   0  0  0  0  0  0  0  0  0  0  0  0
   60.0400   33.2210   49.8630 C   0  0  0  0  0  0  0  0  0  0  0  0
   60.2910   33.7790   51.1500 N   0  0  0  0  0  0  0  0  0  0  0  0
   58.8510   33.0800   49.4690 O   0  0  0  0  0  0  0  0  0  0  0  0
   58.6940   31.5890   52.4350 N   0  0  0  0  0  0  0  0  0  0  0  0
   57.4984   34.2057   53.3665 H   0  0  0  0  0  0  0  0  0  0  0  0
   58.3979   34.0837   51.8164 H   0  0  0  0  0  0  0  0  0  0  0  0
   56.6017   34.0656   51.8164 H   0  0  0  0  0  0  0  0  0  0  0  0
   55.3673   32.0837   52.6943 H   0  0  0  0  0  0  0  0  0  0  0  0
   55.0929   28.4962   52.2856 H   0  0  0  0  0  0  0  0  0  0  0  0
   55.0145   29.0790   53.9894 H   0  0  0  0  0  0  0  0  0  0  0  0
   54.4286   30.4129   50.4899 H   0  0  0  0  0  0  0  0  0  0  0  0
   52.4892   31.8806   49.9297 H   0  0  0  0  0  0  0  0  0  0  0  0
   51.1941   31.7550   54.0562 H   0  0  0  0  0  0  0  0  0  0  0  0
   53.1329   30.2883   54.6239 H   0  0  0  0  0  0  0  0  0  0  0  0
   60.8146   30.2279   52.9905 H   0  0  0  0  0  0  0  0  0  0  0  0
   60.0226   28.6142   52.8848 H   0  0  0  0  0  0  0  0  0  0  0  0
   59.2800   31.1480   50.3510 H   0  0  0  0  0  0  0  0  0  0  0  0
   60.8917   29.4860   48.4011 H   0  0  0  0  0  0  0  0  0  0  0  0
   59.5299   30.5855   47.9867 H   0  0  0  0  0  0  0  0  0  0  0  0
   62.6527   30.3391   47.2010 H   0  0  0  0  0  0  0  0  0  0  0  0
   64.2233   32.1818   46.6314 H   0  0  0  0  0  0  0  0  0  0  0  0
   63.8216   34.4824   47.5030 H   0  0  0  0  0  0  0  0  0  0  0  0
   61.8664   34.9368   48.9748 H   0  0  0  0  0  0  0  0  0  0  0  0
   60.0040   33.2750   52.0180 H   0  0  0  0  0  0  0  0  0  0  0  0
  1  2  1  0
  2  3  1  0
  3  4  2  0
  4  5  1  0
  5  6  1  0
  6  7  2  0
  7  8  1  0
  8  9  2  0
  9 10  1  0
  9 11  1  0
 11 12  2  0
  4 13  1  0
 13 14  2  0
 13 15  1  0
 15 16  1  0
 16 17  1  0
 17 18  2  0
 17 19  1  0
 19 20  1  0
 20 21  1  0
 21 22  2  0
 22 23  1  0
 23 24  2  0
 24 25  1  0
 25 26  2  0
 26 27  1  0
 27 28  1  0
 27 29  2  0
 15 30  1  0
 30  2  2  0
 12  6  1  0
 26 21  1  0
  1 31  1  0
  1 32  1  0
  1 33  1  0
  3 34  1  0
  5 35  1  0
  5 36  1  0
  7 37  1  0
  8 38  1  0
 11 39  1  0
 12 40  1  0
 16 41  1  0
 16 42  1  0
 19 43  1  0
 20 44  1  0
 20 45  1  0
 22 46  1  0
 23 47  1  0
 24 48  1  0
 25 49  1  0
 28 50  1  0
M  CHG  2  10  -1  28  -1
M  END
>  <UniqueID>  (30) 
28

>  <SMILES>  (30) 
Cc1cc(Cc2ccc([O-])cc2)c(=O)n(CC(=O)NCc2ccccc2C([NH-])=O)n1

>  <Energy>  (30) 
55.78928038781103

>  <Genealogy>  (30) 
Cc1cc(Cc2ccc([O-])cc2)c(=O)n(CC(=O)NCc2ccccc2C([NH-])=O)n1 (protonated)
Cc1cc(Cc2ccc([O-])cc2)c(=O)n(CC(=O)NCc2ccccc2C([NH-])=O)n1 (3D coordinates assigned)
Cc1cc(Cc2ccc([O-])cc2)c(=O)n(CC(=O)NCc2ccccc2C([NH-])=O)n1 (optimized conformer: 55.78928038781103 kcal/mol)

>  <smiles>  (30) 
Cc1cc(Cc2ccc(O)cc2)c(=O)n(CC(=O)NCc2ccccc2C(N)=O)n1

>  <score_type>  (30) 
oracle

>  <origin>  (30) 
adg

>  <m_score__min__energy>  (30) 
-15.029999999999999

>  <m_primary>  (30) 
energy

$$$$
30:0
     RDKit          3D

 47 50  0  0  0  0  0  0  0  0999 V2000
   59.5400   35.2850   46.7760 C   0  0  0  0  0  0  0  0  0  0  0  0
   58.9950   34.0290   46.1620 C   0  0  0  0  0  0  0  0  0  0  0  0
   58.7600   32.8990   46.9590 C   0  0  0  0  0  0  0  0  0  0  0  0
   58.2180   31.7380   46.4000 C   0  0  0  0  0  0  0  0  0  0  0  0
   57.8870   31.6930   45.0310 C   0  0  0  0  0  0  0  0  0  0  0  0
   57.3340   30.5470   44.4110 C   0  0  0  0  0  0  0  0  0  0  0  0
   57.0380   29.2740   45.1740 C   0  0  0  0  0  0  0  0  0  0  0  0
   58.2900   28.6670   45.6760 N   0  0  0  0  0  0  0  0  0  0  0  0
   58.9640   27.8540   44.6400 C   0  0  0  0  0  0  0  0  0  0  0  0
   58.1320   26.6170   44.2640 C   0  0  0  0  0  0  0  0  0  0  0  0
   57.4900   26.0460   45.4520 N   0  0  0  0  0  0  0  0  0  0  0  0
   56.4320   25.0820   45.3050 C   0  0  0  0  0  0  0  0  0  0  0  0
   56.7170   23.7930   44.8260 C   0  0  0  0  0  0  0  0  0  0  0  0
   55.6930   22.8530   44.6790 C   0  0  0  0  0  0  0  0  0  0  0  0
   54.3780   23.1930   45.0020 C   0  0  0  0  0  0  0  0  0  0  0  0
   54.0820   24.4760   45.4700 C   0  0  0  0  0  0  0  0  0  0  0  0
   55.1020   25.4240   45.6160 C   0  0  0  0  0  0  0  0  0  0  0  0
   54.7830   26.7050   46.0530 O   0  0  0  0  0  0  0  0  0  0  0  0
   58.0120   26.3910   46.7770 C   0  0  0  0  0  0  0  0  0  0  0  0
   58.0950   27.9210   46.9490 C   0  0  0  0  0  0  0  0  0  0  0  0
   57.0380   30.6030   43.0420 C   0  0  0  0  0  0  0  0  0  0  0  0
   57.2900   31.7780   42.3300 C   0  0  0  0  0  0  0  0  0  0  0  0
   57.0250   31.8350   41.1010 O   0  0  0  0  0  0  0  0  0  0  0  0
   57.8080   32.8360   42.9390 O   0  0  0  0  0  0  0  0  0  0  0  0
   58.1110   32.8420   44.2340 C   0  0  0  0  0  0  0  0  0  0  0  0
   58.6540   33.9980   44.8030 C   0  0  0  0  0  0  0  0  0  0  0  0
   59.5043   35.2026   47.8723 H   0  0  0  0  0  0  0  0  0  0  0  0
   60.5816   35.4291   46.4529 H   0  0  0  0  0  0  0  0  0  0  0  0
   58.9337   36.1441   46.4529 H   0  0  0  0  0  0  0  0  0  0  0  0
   59.0039   32.9266   48.0313 H   0  0  0  0  0  0  0  0  0  0  0  0
   58.0489   30.8542   47.0326 H   0  0  0  0  0  0  0  0  0  0  0  0
   56.3819   29.5068   46.0257 H   0  0  0  0  0  0  0  0  0  0  0  0
   56.5436   28.5611   44.4977 H   0  0  0  0  0  0  0  0  0  0  0  0
   59.1123   28.4714   43.7418 H   0  0  0  0  0  0  0  0  0  0  0  0
   59.9282   27.5114   45.0437 H   0  0  0  0  0  0  0  0  0  0  0  0
   57.3574   26.9089   43.5396 H   0  0  0  0  0  0  0  0  0  0  0  0
   58.7993   25.8613   43.8239 H   0  0  0  0  0  0  0  0  0  0  0  0
   57.7507   23.5219   44.5653 H   0  0  0  0  0  0  0  0  0  0  0  0
   55.9237   21.8434   44.3081 H   0  0  0  0  0  0  0  0  0  0  0  0
   53.5744   22.4505   44.8880 H   0  0  0  0  0  0  0  0  0  0  0  0
   53.0453   24.7418   45.7243 H   0  0  0  0  0  0  0  0  0  0  0  0
   57.3446   25.9768   47.5471 H   0  0  0  0  0  0  0  0  0  0  0  0
   59.0223   25.9684   46.8800 H   0  0  0  0  0  0  0  0  0  0  0  0
   57.1595   28.2676   47.4124 H   0  0  0  0  0  0  0  0  0  0  0  0
   58.9786   28.1221   47.5725 H   0  0  0  0  0  0  0  0  0  0  0  0
   56.6101   29.7274   42.5318 H   0  0  0  0  0  0  0  0  0  0  0  0
   58.8147   34.8898   44.1794 H   0  0  0  0  0  0  0  0  0  0  0  0
  1  2  1  0
  2  3  2  0
  3  4  1  0
  4  5  2  0
  5  6  1  0
  6  7  1  0
  7  8  1  0
  8  9  1  0
  9 10  1  0
 10 11  1  0
 11 12  1  0
 12 13  2  0
 13 14  1  0
 14 15  2  0
 15 16  1  0
 16 17  2  0
 17 18  1  0
 11 19  1  0
 19 20  1  0
  6 21  2  0
 21 22  1  0
 22 23  2  0
 22 24  1  0
 24 25  1  0
 25 26  2  0
 26  2  1  0
 25  5  1  0
 20  8  1  0
 17 12  1  0
  1 27  1  0
  1 28  1  0
  1 29  1  0
  3 30  1  0
  4 31  1  0
  7 32  1  0
  7 33  1  0
  9 34  1  0
  9 35  1  0
 10 36  1  0
 10 37  1  0
 13 38  1  0
 14 39  1  0
 15 40  1  0
 16 41  1  0
 19 42  1  0
 19 43  1  0
 20 44  1  0
 20 45  1  0
 21 46  1  0
 26 47  1  0
M  CHG  1  18  -1
M  END
>  <UniqueID>  (31) 
29

>  <SMILES>  (31) 
Cc1ccc2c(CN3CCN(c4ccccc4[O-])CC3)cc(=O)oc2c1

>  <Energy>  (31) 
68.06342532477933

>  <Genealogy>  (31) 
Cc1ccc2c(CN3CCN(c4ccccc4[O-])CC3)cc(=O)oc2c1 (protonated)
Cc1ccc2c(CN3CCN(c4ccccc4[O-])CC3)cc(=O)oc2c1 (3D coordinates assigned)
Cc1ccc2c(CN3CCN(c4ccccc4[O-])CC3)cc(=O)oc2c1 (nonaromatic ring conformer: 68.06342532477933 kcal/mol)

>  <smiles>  (31) 
Cc1ccc2c(CN3CCN(c4ccccc4O)CC3)cc(=O)oc2c1

>  <score_type>  (31) 
oracle

>  <origin>  (31) 
adg

>  <m_score__min__energy>  (31) 
-12.720000000000001

>  <m_primary>  (31) 
energy

$$$$
31:0
     RDKit          3D

 48 50  0  0  0  0  0  0  0  0999 V2000
   60.3320   29.7620   46.0180 C   0  0  0  0  0  0  0  0  0  0  0  0
   58.9530   30.0490   46.6050 C   0  0  0  0  0  0  0  0  0  0  0  0
   57.9310   30.0810   45.5480 N   0  0  0  0  0  0  0  0  0  0  0  0
   57.3050   29.0010   45.0130 C   0  0  0  0  0  0  0  0  0  0  0  0
   57.5260   27.5730   45.4210 C   0  0  0  0  0  0  0  0  0  0  0  0
   56.3360   27.0720   46.1000 N   0  0  0  0  0  0  0  0  0  0  0  0
   55.6900   25.8280   45.8100 C   0  0  0  0  0  0  0  0  0  0  0  0
   54.4320   25.7720   45.8550 O   0  0  0  0  0  0  0  0  0  0  0  0
   56.4510   24.6170   45.4310 C   0  0  0  0  0  0  0  0  0  0  0  0
   56.4700   24.1830   44.0960 C   0  0  0  0  0  0  0  0  0  0  0  0
   57.2050   23.0540   43.7380 C   0  0  0  0  0  0  0  0  0  0  0  0
   57.9270   22.3670   44.7140 C   0  0  0  0  0  0  0  0  0  0  0  0
   57.9150   22.8000   46.0040 N   0  0  0  0  0  0  0  0  0  0  0  0
   57.2040   23.9010   46.3830 C   0  0  0  0  0  0  0  0  0  0  0  0
   57.2190   24.2650   47.5910 O   0  0  0  0  0  0  0  0  0  0  0  0
   56.4700   29.3840   43.9820 C   0  0  0  0  0  0  0  0  0  0  0  0
   56.5790   30.7530   43.8800 C   0  0  0  0  0  0  0  0  0  0  0  0
   57.4830   31.1610   44.8470 C   0  0  0  0  0  0  0  0  0  0  0  0
   57.8810   32.5780   45.0310 C   0  0  0  0  0  0  0  0  0  0  0  0
   57.0070   33.4790   44.9190 O   0  0  0  0  0  0  0  0  0  0  0  0
   59.2250   32.9430   45.3460 N   0  0  0  0  0  0  0  0  0  0  0  0
   59.6150   34.2490   46.4110 S   0  0  0  0  0  0  0  0  0  0  0  0
   59.6450   35.5380   45.6380 O   0  0  0  0  0  0  0  0  0  0  0  0
   58.5580   34.3550   47.4740 O   0  0  0  0  0  0  0  0  0  0  0  0
   61.1720   33.9430   47.1670 C   0  0  0  0  0  0  0  0  0  0  0  0
   62.3240   33.7620   46.3860 C   0  0  0  0  0  0  0  0  0  0  0  0
   63.5530   33.5020   46.9970 C   0  0  0  0  0  0  0  0  0  0  0  0
   63.6370   33.4140   48.3910 C   0  0  0  0  0  0  0  0  0  0  0  0
   62.4920   33.5890   49.1750 C   0  0  0  0  0  0  0  0  0  0  0  0
   61.2610   33.8480   48.5640 C   0  0  0  0  0  0  0  0  0  0  0  0
   61.0539   29.6118   46.8342 H   0  0  0  0  0  0  0  0  0  0  0  0
   60.2851   28.8544   45.3983 H   0  0  0  0  0  0  0  0  0  0  0  0
   60.6511   30.6130   45.3983 H   0  0  0  0  0  0  0  0  0  0  0  0
   58.6983   29.2610   47.3290 H   0  0  0  0  0  0  0  0  0  0  0  0
   58.9784   31.0309   47.1003 H   0  0  0  0  0  0  0  0  0  0  0  0
   57.7227   26.9625   44.5274 H   0  0  0  0  0  0  0  0  0  0  0  0
   58.3883   27.5151   46.1014 H   0  0  0  0  0  0  0  0  0  0  0  0
   55.9039   24.7348   43.3312 H   0  0  0  0  0  0  0  0  0  0  0  0
   57.2156   22.7075   42.6940 H   0  0  0  0  0  0  0  0  0  0  0  0
   58.5072   21.4734   44.4403 H   0  0  0  0  0  0  0  0  0  0  0  0
   58.4680   22.2720   46.7180 H   0  0  0  0  0  0  0  0  0  0  0  0
   55.8418   28.7255   43.3641 H   0  0  0  0  0  0  0  0  0  0  0  0
   56.0486   31.4000   43.1658 H   0  0  0  0  0  0  0  0  0  0  0  0
   62.2589   33.8251   45.2897 H   0  0  0  0  0  0  0  0  0  0  0  0
   64.4550   33.3664   46.3821 H   0  0  0  0  0  0  0  0  0  0  0  0
   64.6049   33.2069   48.8709 H   0  0  0  0  0  0  0  0  0  0  0  0
   62.5597   33.5230   50.2709 H   0  0  0  0  0  0  0  0  0  0  0  0
   60.3595   33.9777   49.1808 H   0  0  0  0  0  0  0  0  0  0  0  0
  1  2  1  0
  2  3  1  0
  3  4  1  0
  4  5  1  0
  5  6  1  0
  6  7  1  0
  7  8  2  0
  7  9  1  0
  9 10  2  0
 10 11  1  0
 11 12  2  0
 12 13  1  0
 13 14  1  0
 14 15  2  0
  4 16  2  0
 16 17  1  0
 17 18  2  0
 18 19  1  0
 19 20  2  0
 19 21  1  0
 21 22  1  0
 22 23  2  0
 22 24  2  0
 22 25  1  0
 25 26  2  0
 26 27  1  0
 27 28  2  0
 28 29  1  0
 29 30  2  0
 18  3  1  0
 30 25  1  0
 14  9  1  0
  1 31  1  0
  1 32  1  0
  1 33  1  0
  2 34  1  0
  2 35  1  0
  5 36  1  0
  5 37  1  0
 10 38  1  0
 11 39  1  0
 12 40  1  0
 13 41  1  0
 16 42  1  0
 17 43  1  0
 26 44  1  0
 27 45  1  0
 28 46  1  0
 29 47  1  0
 30 48  1  0
M  CHG  2   6  -1  21  -1
M  END
>  <UniqueID>  (32) 
30

>  <SMILES>  (32) 
CCn1c(C[N-]C(=O)c2ccc[nH]c2=O)ccc1C(=O)[N-]S(=O)(=O)c1ccccc1

>  <Energy>  (32) 
81.58818950430006

>  <Genealogy>  (32) 
CCn1c(C[N-]C(=O)c2ccc[nH]c2=O)ccc1C(=O)[N-]S(=O)(=O)c1ccccc1 (protonated)
CCn1c(C[N-]C(=O)c2ccc[nH]c2=O)ccc1C(=O)[N-]S(=O)(=O)c1ccccc1 (3D coordinates assigned)
CCn1c(C[N-]C(=O)c2ccc[nH]c2=O)ccc1C(=O)[N-]S(=O)(=O)c1ccccc1 (optimized conformer: 81.58818950430006 kcal/mol)

>  <smiles>  (32) 
CCn1c(CNC(=O)c2ccc[nH]c2=O)ccc1C(=O)NS(=O)(=O)c1ccccc1

>  <score_type>  (32) 
oracle

>  <origin>  (32) 
adg

>  <m_score__min__energy>  (32) 
-11.93

>  <m_primary>  (32) 
energy

$$$$
32:0
     RDKit          3D

 42 44  0  0  0  0  0  0  0  0999 V2000
   55.6440   23.9250   46.8650 C   0  0  0  0  0  0  0  0  0  0  0  0
   56.4460   25.1340   46.4720 C   0  0  0  0  0  0  0  0  0  0  0  0
   57.8480   25.0760   46.4800 C   0  0  0  0  0  0  0  0  0  0  0  0
   58.5990   26.1790   46.0780 C   0  0  0  0  0  0  0  0  0  0  0  0
   57.9610   27.3500   45.6700 C   0  0  0  0  0  0  0  0  0  0  0  0
   56.5640   27.4390   45.6620 C   0  0  0  0  0  0  0  0  0  0  0  0
   55.9810   28.6810   45.2350 N   0  0  0  0  0  0  0  0  0  0  0  0
   56.3850   29.5920   43.8150 S   0  0  0  0  0  0  0  0  0  0  0  0
   57.1920   28.7420   42.8720 O   0  0  0  0  0  0  0  0  0  0  0  0
   55.1340   30.0570   43.1230 O   0  0  0  0  0  0  0  0  0  0  0  0
   57.3190   31.0010   44.3010 C   0  0  0  0  0  0  0  0  0  0  0  0
   57.6560   31.9900   43.3670 C   0  0  0  0  0  0  0  0  0  0  0  0
   58.4070   33.0990   43.7610 C   0  0  0  0  0  0  0  0  0  0  0  0
   58.8330   33.2250   45.0860 C   0  0  0  0  0  0  0  0  0  0  0  0
   58.5210   32.2310   46.0300 C   0  0  0  0  0  0  0  0  0  0  0  0
   58.9700   32.3530   47.4370 C   0  0  0  0  0  0  0  0  0  0  0  0
   59.7740   33.2680   47.7530 O   0  0  0  0  0  0  0  0  0  0  0  0
   58.5550   31.4250   48.4500 N   0  0  0  0  0  0  0  0  0  0  0  0
   59.2070   30.1890   48.7770 C   0  0  0  0  0  0  0  0  0  0  0  0
   59.6170   29.2840   47.7820 C   0  0  0  0  0  0  0  0  0  0  0  0
   60.2360   28.0810   48.1370 C   0  0  0  0  0  0  0  0  0  0  0  0
   60.4340   27.7660   49.4850 C   0  0  0  0  0  0  0  0  0  0  0  0
   61.0500   26.5700   49.8360 O   0  0  0  0  0  0  0  0  0  0  0  0
   60.0070   28.6520   50.4780 C   0  0  0  0  0  0  0  0  0  0  0  0
   59.3880   29.8550   50.1260 C   0  0  0  0  0  0  0  0  0  0  0  0
   57.7520   31.1250   45.6280 C   0  0  0  0  0  0  0  0  0  0  0  0
   55.7990   26.3100   46.0400 C   0  0  0  0  0  0  0  0  0  0  0  0
   54.4120   26.3280   45.9670 O   0  0  0  0  0  0  0  0  0  0  0  0
   55.5983   23.8560   47.9619 H   0  0  0  0  0  0  0  0  0  0  0  0
   54.6250   24.0136   46.4604 H   0  0  0  0  0  0  0  0  0  0  0  0
   56.1219   23.0206   46.4604 H   0  0  0  0  0  0  0  0  0  0  0  0
   58.3563   24.1562   46.8049 H   0  0  0  0  0  0  0  0  0  0  0  0
   59.6977   26.1258   46.0825 H   0  0  0  0  0  0  0  0  0  0  0  0
   58.5625   28.2138   45.3507 H   0  0  0  0  0  0  0  0  0  0  0  0
   57.3282   31.8923   42.3215 H   0  0  0  0  0  0  0  0  0  0  0  0
   58.6642   33.8761   43.0262 H   0  0  0  0  0  0  0  0  0  0  0  0
   59.4155   34.1065   45.3919 H   0  0  0  0  0  0  0  0  0  0  0  0
   59.4504   29.5228   46.7212 H   0  0  0  0  0  0  0  0  0  0  0  0
   60.5674   27.3820   47.3550 H   0  0  0  0  0  0  0  0  0  0  0  0
   60.1583   28.4022   51.5385 H   0  0  0  0  0  0  0  0  0  0  0  0
   59.0414   30.5426   50.9115 H   0  0  0  0  0  0  0  0  0  0  0  0
   57.4876   30.3496   46.3620 H   0  0  0  0  0  0  0  0  0  0  0  0
  1  2  1  0
  2  3  2  0
  3  4  1  0
  4  5  2  0
  5  6  1  0
  6  7  1  0
  7  8  1  0
  8  9  2  0
  8 10  2  0
  8 11  1  0
 11 12  2  0
 12 13  1  0
 13 14  2  0
 14 15  1  0
 15 16  1  0
 16 17  2  0
 16 18  1  0
 18 19  1  0
 19 20  2  0
 20 21  1  0
 21 22  2  0
 22 23  1  0
 22 24  1  0
 24 25  2  0
 15 26  2  0
  6 27  2  0
 27 28  1  0
 27  2  1  0
 26 11  1  0
 25 19  1  0
  1 29  1  0
  1 30  1  0
  1 31  1  0
  3 32  1  0
  4 33  1  0
  5 34  1  0
 12 35  1  0
 13 36  1  0
 14 37  1  0
 20 38  1  0
 21 39  1  0
 24 40  1  0
 25 41  1  0
 26 42  1  0
M  CHG  4   7  -1  18  -1  23  -1  28  -1
M  END
>  <UniqueID>  (33) 
31

>  <SMILES>  (33) 
Cc1cccc([N-]S(=O)(=O)c2cccc(C(=O)[N-]c3ccc([O-])cc3)c2)c1[O-]

>  <Energy>  (33) 
59.5446204260081

>  <Genealogy>  (33) 
Cc1cccc([N-]S(=O)(=O)c2cccc(C(=O)[N-]c3ccc([O-])cc3)c2)c1[O-] (protonated)
Cc1cccc([N-]S(=O)(=O)c2cccc(C(=O)[N-]c3ccc([O-])cc3)c2)c1[O-] (3D coordinates assigned)
Cc1cccc([N-]S(=O)(=O)c2cccc(C(=O)[N-]c3ccc([O-])cc3)c2)c1[O-] (optimized conformer: 59.5446204260081 kcal/mol)

>  <smiles>  (33) 
Cc1cccc(NS(=O)(=O)c2cccc(C(=O)Nc3ccc(O)cc3)c2)c1O

>  <score_type>  (33) 
oracle

>  <origin>  (33) 
adg

>  <m_score__min__energy>  (33) 
-15.99

>  <m_primary>  (33) 
energy

$$$$
33:0
     RDKit          3D

 46 49  0  0  0  0  0  0  0  0999 V2000
   58.9050   34.9370   47.1490 C   0  0  0  0  0  0  0  0  0  0  0  0
   58.6440   33.7020   46.4080 N   0  0  0  0  0  0  0  0  0  0  0  0
   58.0580   33.6210   45.1910 C   0  0  0  0  0  0  0  0  0  0  0  0
   57.7020   34.6080   44.4950 O   0  0  0  0  0  0  0  0  0  0  0  0
   57.9010   32.2970   44.8560 C   0  0  0  0  0  0  0  0  0  0  0  0
   57.3520   31.6710   43.7430 C   0  0  0  0  0  0  0  0  0  0  0  0
   57.3230   30.2660   43.7300 C   0  0  0  0  0  0  0  0  0  0  0  0
   56.8230   29.6380   42.6360 F   0  0  0  0  0  0  0  0  0  0  0  0
   57.8320   29.5170   44.8290 C   0  0  0  0  0  0  0  0  0  0  0  0
   57.7890   28.0740   44.8240 N   0  0  0  0  0  0  0  0  0  0  0  0
   57.2180   27.3380   45.9590 C   0  0  0  0  0  0  0  0  0  0  0  0
   57.9150   25.9800   46.1040 C   0  0  0  0  0  0  0  0  0  0  0  0
   57.8240   25.1620   44.8800 N   0  0  0  0  0  0  0  0  0  0  0  0
   57.7560   25.9290   43.6190 C   0  0  0  0  0  0  0  0  0  0  0  0
   58.3980   27.3180   43.7230 C   0  0  0  0  0  0  0  0  0  0  0  0
   58.3860   30.2000   45.9410 C   0  0  0  0  0  0  0  0  0  0  0  0
   58.4040   31.5970   45.9210 C   0  0  0  0  0  0  0  0  0  0  0  0
   58.8540   32.4630   46.8630 N   0  0  0  0  0  0  0  0  0  0  0  0
   59.3960   32.1240   48.1850 C   0  0  0  0  0  0  0  0  0  0  0  0
   60.8550   32.4910   48.2660 C   0  0  0  0  0  0  0  0  0  0  0  0
   61.7990   31.8110   47.4780 C   0  0  0  0  0  0  0  0  0  0  0  0
   63.1560   32.1410   47.5620 C   0  0  0  0  0  0  0  0  0  0  0  0
   63.5790   33.1500   48.4310 C   0  0  0  0  0  0  0  0  0  0  0  0
   64.8940   33.4680   48.5100 F   0  0  0  0  0  0  0  0  0  0  0  0
   62.6450   33.8320   49.2170 C   0  0  0  0  0  0  0  0  0  0  0  0
   61.2890   33.5060   49.1350 C   0  0  0  0  0  0  0  0  0  0  0  0
   58.8618   34.7327   48.2290 H   0  0  0  0  0  0  0  0  0  0  0  0
   59.9034   35.3175   46.8874 H   0  0  0  0  0  0  0  0  0  0  0  0
   58.1459   35.6889   46.8874 H   0  0  0  0  0  0  0  0  0  0  0  0
   56.9536   32.2557   42.9007 H   0  0  0  0  0  0  0  0  0  0  0  0
   57.3603   27.9213   46.8807 H   0  0  0  0  0  0  0  0  0  0  0  0
   56.1442   27.1770   45.7830 H   0  0  0  0  0  0  0  0  0  0  0  0
   58.9767   26.1518   46.3347 H   0  0  0  0  0  0  0  0  0  0  0  0
   57.4083   25.4300   46.9107 H   0  0  0  0  0  0  0  0  0  0  0  0
   58.6630   24.5370   44.8450 H   0  0  0  0  0  0  0  0  0  0  0  0
   58.2775   25.3603   42.8350 H   0  0  0  0  0  0  0  0  0  0  0  0
   56.6919   26.0769   43.3826 H   0  0  0  0  0  0  0  0  0  0  0  0
   59.4763   27.2073   43.9104 H   0  0  0  0  0  0  0  0  0  0  0  0
   58.2357   27.8611   42.7803 H   0  0  0  0  0  0  0  0  0  0  0  0
   58.7918   29.6436   46.7988 H   0  0  0  0  0  0  0  0  0  0  0  0
   58.8402   32.6765   48.9569 H   0  0  0  0  0  0  0  0  0  0  0  0
   59.2918   31.0408   48.3456 H   0  0  0  0  0  0  0  0  0  0  0  0
   61.4698   31.0162   46.7925 H   0  0  0  0  0  0  0  0  0  0  0  0
   63.8909   31.6054   46.9431 H   0  0  0  0  0  0  0  0  0  0  0  0
   62.9784   34.6264   49.9009 H   0  0  0  0  0  0  0  0  0  0  0  0
   60.5577   34.0466   49.7538 H   0  0  0  0  0  0  0  0  0  0  0  0
  1  2  1  0
  2  3  1  0
  3  4  2  0
  3  5  1  0
  5  6  2  0
  6  7  1  0
  7  8  1  0
  7  9  2  0
  9 10  1  0
 10 11  1  0
 11 12  1  0
 12 13  1  0
 13 14  1  0
 14 15  1  0
  9 16  1  0
 16 17  2  0
 17 18  1  0
 18 19  1  0
 19 20  1  0
 20 21  2  0
 21 22  1  0
 22 23  2  0
 23 24  1  0
 23 25  1  0
 25 26  2  0
 18  2  1  0
 26 20  1  0
 17  5  1  0
 15 10  1  0
  1 27  1  0
  1 28  1  0
  1 29  1  0
  6 30  1  0
 11 31  1  0
 11 32  1  0
 12 33  1  0
 12 34  1  0
 13 35  1  0
 14 36  1  0
 14 37  1  0
 15 38  1  0
 15 39  1  0
 16 40  1  0
 19 41  1  0
 19 42  1  0
 21 43  1  0
 22 44  1  0
 25 45  1  0
 26 46  1  0
M  END
>  <UniqueID>  (34) 
32

>  <SMILES>  (34) 
Cn1c(=O)c2cc(F)c(N3CCNCC3)cc2n1Cc1ccc(F)cc1

>  <Energy>  (34) 
99.29861998519056

>  <Genealogy>  (34) 
Cn1c(=O)c2cc(F)c(N3CCNCC3)cc2n1Cc1ccc(F)cc1 (3D coordinates assigned)
Cn1c(=O)c2cc(F)c(N3CCNCC3)cc2n1Cc1ccc(F)cc1 (nonaromatic ring conformer: 99.29861998519056 kcal/mol)

>  <smiles>  (34) 
Cn1c(=O)c2cc(F)c(N3CCNCC3)cc2n1Cc1ccc(F)cc1

>  <score_type>  (34) 
oracle

>  <origin>  (34) 
adg

>  <m_score__min__energy>  (34) 
-7.2000000000000002

>  <m_primary>  (34) 
energy

$$$$
34:0
     RDKit          3D

 48 50  0  0  0  0  0  0  0  0999 V2000
   57.1064   33.7817   45.9524 H   0  0  0  0  0  0  0  0  0  0  0  0
   58.1670   33.7160   45.6680 C   0  0  0  0  0  0  0  0  0  0  0  0
   59.1490   34.5390   46.3930 C   0  0  0  0  0  0  0  0  0  0  0  0
   59.8420   35.4000   45.7860 O   0  0  0  0  0  0  0  0  0  0  0  0
   59.3070   34.3520   47.8030 N   0  0  0  0  0  0  0  0  0  0  0  0
   60.2070   33.3670   48.3920 C   0  0  0  0  0  0  0  0  0  0  0  0
   60.0605   33.3473   49.4820 H   0  0  0  0  0  0  0  0  0  0  0  0
   61.2451   33.6444   48.1568 H   0  0  0  0  0  0  0  0  0  0  0  0
   59.9250   32.0000   47.8280 C   0  0  0  0  0  0  0  0  0  0  0  0
   58.8440   31.2510   48.3120 C   0  0  0  0  0  0  0  0  0  0  0  0
   58.2149   31.6564   49.1182 H   0  0  0  0  0  0  0  0  0  0  0  0
   58.5610   29.9920   47.7760 C   0  0  0  0  0  0  0  0  0  0  0  0
   57.7083   29.4142   48.1621 H   0  0  0  0  0  0  0  0  0  0  0  0
   59.3570   29.4570   46.7470 C   0  0  0  0  0  0  0  0  0  0  0  0
   59.0420   28.1240   46.1790 C   0  0  0  0  0  0  0  0  0  0  0  0
   59.8550   27.5800   45.3820 O   0  0  0  0  0  0  0  0  0  0  0  0
   57.8140   27.4510   46.5070 N   0  0  0  0  0  0  0  0  0  0  0  0
   56.9970   28.0290   46.8070 H   0  0  0  0  0  0  0  0  0  0  0  0
   57.5590   26.0920   46.1220 C   0  0  0  0  0  0  0  0  0  0  0  0
   58.6460   25.2200   45.9620 C   0  0  0  0  0  0  0  0  0  0  0  0
   59.6709   25.5936   46.1038 H   0  0  0  0  0  0  0  0  0  0  0  0
   58.4370   23.8810   45.6240 C   0  0  0  0  0  0  0  0  0  0  0  0
   59.2953   23.2029   45.5083 H   0  0  0  0  0  0  0  0  0  0  0  0
   57.1400   23.4030   45.4330 C   0  0  0  0  0  0  0  0  0  0  0  0
   56.9761   22.3452   45.1797 H   0  0  0  0  0  0  0  0  0  0  0  0
   56.0500   24.2660   45.5630 C   0  0  0  0  0  0  0  0  0  0  0  0
   55.0301   23.8847   45.4065 H   0  0  0  0  0  0  0  0  0  0  0  0
   56.2460   25.6170   45.8920 C   0  0  0  0  0  0  0  0  0  0  0  0
   55.1150   26.4960   45.9340 N   0  0  0  0  0  0  0  0  0  0  0  0
   55.1660   27.4470   45.5020 H   0  0  0  0  0  0  0  0  0  0  0  0
   54.2480   26.2540   46.4610 H   0  0  0  0  0  0  0  0  0  0  0  0
   60.4300   30.2190   46.2540 C   0  0  0  0  0  0  0  0  0  0  0  0
   61.0523   29.8213   45.4388 H   0  0  0  0  0  0  0  0  0  0  0  0
   60.7130   31.4780   46.7910 C   0  0  0  0  0  0  0  0  0  0  0  0
   61.5580   32.0628   46.3986 H   0  0  0  0  0  0  0  0  0  0  0  0
   58.5200   32.8890   44.6730 C   0  0  0  0  0  0  0  0  0  0  0  0
   59.5190   33.0100   44.2287 H   0  0  0  0  0  0  0  0  0  0  0  0
   57.6420   31.8210   44.1370 C   0  0  0  0  0  0  0  0  0  0  0  0
   57.4890   31.7100   42.7440 C   0  0  0  0  0  0  0  0  0  0  0  0
   58.0122   32.4141   42.0803 H   0  0  0  0  0  0  0  0  0  0  0  0
   56.6780   30.7130   42.1950 C   0  0  0  0  0  0  0  0  0  0  0  0
   56.5596   30.6405   41.1038 H   0  0  0  0  0  0  0  0  0  0  0  0
   56.0180   29.8090   43.0290 C   0  0  0  0  0  0  0  0  0  0  0  0
   55.3747   29.0293   42.5950 H   0  0  0  0  0  0  0  0  0  0  0  0
   56.1740   29.8940   44.4140 C   0  0  0  0  0  0  0  0  0  0  0  0
   55.5270   28.9840   45.2420 O   0  0  0  0  0  0  0  0  0  0  0  0
   56.9830   30.8910   44.9700 C   0  0  0  0  0  0  0  0  0  0  0  0
   57.1062   30.9505   46.0615 H   0  0  0  0  0  0  0  0  0  0  0  0
  1  2  1  0
  2  3  1  0
  3  4  2  0
  3  5  1  0
  5  6  1  0
  6  7  1  0
  6  8  1  0
  6  9  1  0
  9 10  2  0
 10 11  1  0
 10 12  1  0
 12 13  1  0
 12 14  2  0
 14 15  1  0
 15 16  2  0
 15 17  1  0
 17 18  1  0
 17 19  1  0
 19 20  2  0
 20 21  1  0
 20 22  1  0
 22 23  1  0
 22 24  2  0
 24 25  1  0
 24 26  1  0
 26 27  1  0
 26 28  2  0
 28 29  1  0
 29 30  1  0
 29 31  1  0
 14 32  1  0
 32 33  1  0
 32 34  2  0
 34 35  1  0
  2 36  2  0
 36 37  1  0
 36 38  1  0
 38 39  2  0
 39 40  1  0
 39 41  1  0
 41 42  1  0
 41 43  2  0
 43 44  1  0
 43 45  1  0
 45 46  1  0
 45 47  2  0
 47 48  1  0
 34  9  1  0
 47 38  1  0
 28 19  1  0
M  CHG  2   5  -1  46  -1
M  END
>  <UniqueID>  (35) 
33

>  <SMILES>  (35) 
Nc1ccccc1NC(=O)c1ccc(C[N-]C(=O)/C=C/c2cccc([O-])c2)cc1

>  <Energy>  (35) 
57.42629477772884

>  <Genealogy>  (35) 
Nc1ccccc1NC(=O)c1ccc(C[N-]C(=O)C=Cc2cccc([O-])c2)cc1 (protonated)
Nc1ccccc1NC(=O)c1ccc(C[N-]C(=O)/C=C/c2cccc([O-])c2)cc1 (cis-trans isomerization)
Nc1ccccc1NC(=O)c1ccc(C[N-]C(=O)/C=C/c2cccc([O-])c2)cc1 (3D coordinates assigned)
Nc1ccccc1NC(=O)c1ccc(C[N-]C(=O)/C=C/c2cccc([O-])c2)cc1 (optimized conformer: 57.42629477772884 kcal/mol)

>  <smiles>  (35) 
Nc1ccccc1NC(=O)c1ccc(CNC(=O)C=Cc2cccc(O)c2)cc1

>  <score_type>  (35) 
oracle

>  <origin>  (35) 
adg

>  <m_score__min__energy>  (35) 
-13.49

>  <m_primary>  (35) 
energy

$$$$
35:0
     RDKit          3D

 59 62  0  0  1  0  0  0  0  0999 V2000
   59.1680   31.0010   46.4850 N   0  0  0  0  0  0  0  0  0  0  0  0
   60.2820   31.3970   47.3220 C   0  0  1  0  0  0  0  0  0  0  0  0
   61.0820   32.5150   46.7700 C   0  0  0  0  0  0  0  0  0  0  0  0
   61.1500   33.7530   47.6340 C   0  0  0  0  0  0  0  0  0  0  0  0
   61.5610   33.4420   49.0430 C   0  0  0  0  0  0  0  0  0  0  0  0
   60.9760   32.1010   49.4300 C   0  0  0  0  0  0  0  0  0  0  0  0
   59.7030   31.8980   48.7060 C   0  0  2  0  0  0  0  0  0  0  0  0
   58.9820   30.7140   49.0140 N   0  0  0  0  0  0  0  0  0  0  0  0
   59.5390   29.5820   49.1960 C   0  0  0  0  0  0  0  0  0  0  0  0
   59.6550   28.7340   48.1580 N   0  0  0  0  0  0  0  0  0  0  0  0
   60.2430   27.5410   48.3480 C   0  0  0  0  0  0  0  0  0  0  0  0
   60.3680   26.7170   47.3860 N   0  0  0  0  0  0  0  0  0  0  0  0
   59.4990   26.5650   46.2860 C   0  0  0  0  0  0  0  0  0  0  0  0
   59.0090   25.3160   45.9740 C   0  0  0  0  0  0  0  0  0  0  0  0
   58.1340   25.2500   44.8970 C   0  0  0  0  0  0  0  0  0  0  0  0
   57.7740   26.3870   44.1740 C   0  0  0  0  0  0  0  0  0  0  0  0
   58.2640   27.6320   44.4860 C   0  0  0  0  0  0  0  0  0  0  0  0
   57.9350   28.8280   43.8330 N   0  0  0  0  0  0  0  0  0  0  0  0
   57.3560   29.9770   44.4050 C   0  0  0  0  0  0  0  0  0  0  0  0
   57.0710   30.0360   45.6160 O   0  0  0  0  0  0  0  0  0  0  0  0
   57.0440   31.2080   43.5940 C   0  0  0  0  0  0  0  0  0  0  0  0
   57.5950   32.3790   44.2990 C   0  0  0  0  0  0  0  0  0  0  0  0
   57.0070   32.7160   45.5110 C   0  0  0  0  0  0  0  0  0  0  0  0
   57.4400   33.7970   46.2660 C   0  0  0  0  0  0  0  0  0  0  0  0
   58.4980   34.5720   45.7980 C   0  0  0  0  0  0  0  0  0  0  0  0
   59.0880   34.2350   44.5850 C   0  0  0  0  0  0  0  0  0  0  0  0
   58.6440   33.1470   43.8360 C   0  0  0  0  0  0  0  0  0  0  0  0
   59.1400   27.6790   45.5700 C   0  0  0  0  0  0  0  0  0  0  0  0
   60.7300   27.1440   49.5520 N   0  0  0  0  0  0  0  0  0  0  0  0
   60.6400   27.9510   50.6200 C   0  0  0  0  0  0  0  0  0  0  0  0
   60.0340   29.1800   50.4160 C   0  0  0  0  0  0  0  0  0  0  0  0
   59.9230   30.2310   51.8100 Cl  0  0  0  0  0  0  0  0  0  0  0  0
   59.2840   29.9620   46.3480 H   0  0  0  0  0  0  0  0  0  0  0  0
   58.3030   31.2140   47.0360 H   0  0  0  0  0  0  0  0  0  0  0  0
   60.9377   30.5177   47.4051 H   0  0  0  0  0  0  0  0  0  0  0  0
   62.1090   32.1529   46.6147 H   0  0  0  0  0  0  0  0  0  0  0  0
   60.5755   32.8206   45.8426 H   0  0  0  0  0  0  0  0  0  0  0  0
   61.8814   34.4492   47.1976 H   0  0  0  0  0  0  0  0  0  0  0  0
   60.1437   34.1961   47.6670 H   0  0  0  0  0  0  0  0  0  0  0  0
   62.6583   33.4009   49.1088 H   0  0  0  0  0  0  0  0  0  0  0  0
   61.1931   34.2238   49.7238 H   0  0  0  0  0  0  0  0  0  0  0  0
   61.6823   31.3009   49.1635 H   0  0  0  0  0  0  0  0  0  0  0  0
   60.7920   32.0774   50.5142 H   0  0  0  0  0  0  0  0  0  0  0  0
   59.0720   32.7868   48.8538 H   0  0  0  0  0  0  0  0  0  0  0  0
   59.3180   28.9340   47.1930 H   0  0  0  0  0  0  0  0  0  0  0  0
   59.2946   24.4207   46.5458 H   0  0  0  0  0  0  0  0  0  0  0  0
   57.7141   24.2755   44.6069 H   0  0  0  0  0  0  0  0  0  0  0  0
   57.0772   26.2839   43.3291 H   0  0  0  0  0  0  0  0  0  0  0  0
   58.1370   28.8950   42.7950 H   0  0  0  0  0  0  0  0  0  0  0  0
   57.5033   31.1235   42.5981 H   0  0  0  0  0  0  0  0  0  0  0  0
   55.9561   31.3161   43.4728 H   0  0  0  0  0  0  0  0  0  0  0  0
   56.1710   32.1065   45.8847 H   0  0  0  0  0  0  0  0  0  0  0  0
   56.9534   34.0386   47.2224 H   0  0  0  0  0  0  0  0  0  0  0  0
   58.8601   35.4344   46.3770 H   0  0  0  0  0  0  0  0  0  0  0  0
   59.9247   34.8413   44.2078 H   0  0  0  0  0  0  0  0  0  0  0  0
   59.1279   32.9012   42.8792 H   0  0  0  0  0  0  0  0  0  0  0  0
   59.5616   28.6516   45.8639 H   0  0  0  0  0  0  0  0  0  0  0  0
   61.1840   26.1990   49.6690 H   0  0  0  0  0  0  0  0  0  0  0  0
   61.0269   27.6526   51.6055 H   0  0  0  0  0  0  0  0  0  0  0  0
  1  2  1  0
  2  3  1  0
  3  4  1  0
  4  5  1  0
  5  6  1  0
  6  7  1  0
  7  8  1  0
  8  9  2  0
  9 10  1  0
 10 11  1  0
 11 12  2  0
 12 13  1  0
 13 14  2  0
 14 15  1  0
 15 16  2  0
 16 17  1  0
 17 18  1  0
 18 19  1  0
 19 20  2  0
 19 21  1  0
 21 22  1  0
 22 23  2  0
 23 24  1  0
 24 25  2  0
 25 26  1  0
 26 27  2  0
 17 28  2  0
 11 29  1  0
 29 30  1  0
 30 31  2  0
 31 32  1  0
  7  2  1  0
 31  9  1  0
 28 13  1  0
 27 22  1  0
  1 33  1  0
  1 34  1  0
  2 35  1  1
  3 36  1  0
  3 37  1  0
  4 38  1  0
  4 39  1  0
  5 40  1  0
  5 41  1  0
  6 42  1  0
  6 43  1  0
  7 44  1  6
 10 45  1  0
 14 46  1  0
 15 47  1  0
 16 48  1  0
 18 49  1  0
 21 50  1  0
 21 51  1  0
 23 52  1  0
 24 53  1  0
 25 54  1  0
 26 55  1  0
 27 56  1  0
 28 57  1  0
 29 58  1  0
 30 59  1  0
M  END
>  <smiles>  (36) 
NC1CCCCC1N=c1[nH]c(=Nc2cccc(NC(=O)Cc3ccccc3)c2)[nH]cc1Cl

>  <score_type>  (36) 
oracle

>  <origin>  (36) 
adg

>  <m_score__min__energy>  (36) 
-11

>  <m_primary>  (36) 
energy

$$$$
36:0
     RDKit          3D

 56 59  0  0  0  0  0  0  0  0999 V2000
   60.0030   34.9660   46.4880 C   0  0  0  0  0  0  0  0  0  0  0  0
   59.2410   33.8560   45.8140 C   0  0  0  0  0  0  0  0  0  0  0  0
   58.1550   34.1760   44.9840 C   0  0  0  0  0  0  0  0  0  0  0  0
   57.4160   33.1660   44.3630 C   0  0  0  0  0  0  0  0  0  0  0  0
   57.7570   31.8230   44.5540 C   0  0  0  0  0  0  0  0  0  0  0  0
   56.7430   30.5640   43.8540 S   0  0  0  0  0  0  0  0  0  0  0  0
   56.2630   30.9570   42.4850 O   0  0  0  0  0  0  0  0  0  0  0  0
   55.5490   30.3540   44.7440 O   0  0  0  0  0  0  0  0  0  0  0  0
   57.6530   29.0910   43.7510 N   0  0  0  0  0  0  0  0  0  0  0  0
   57.9180   28.2650   44.8970 C   0  0  0  0  0  0  0  0  0  0  0  0
   59.2380   27.9920   45.3070 C   0  0  0  0  0  0  0  0  0  0  0  0
   59.4820   27.2100   46.4380 C   0  0  0  0  0  0  0  0  0  0  0  0
   58.4150   26.6800   47.1660 C   0  0  0  0  0  0  0  0  0  0  0  0
   57.1010   26.9250   46.7590 C   0  0  0  0  0  0  0  0  0  0  0  0
   56.8490   27.7110   45.6290 C   0  0  0  0  0  0  0  0  0  0  0  0
   55.5340   27.9520   45.2470 O   0  0  0  0  0  0  0  0  0  0  0  0
   58.8410   31.4930   45.3750 C   0  0  0  0  0  0  0  0  0  0  0  0
   59.5690   32.4970   46.0280 C   0  0  0  0  0  0  0  0  0  0  0  0
   60.6260   32.1010   46.9750 C   0  0  0  0  0  0  0  0  0  0  0  0
   61.7990   32.5200   46.7850 O   0  0  0  0  0  0  0  0  0  0  0  0
   60.3350   31.2540   48.1050 N   0  0  0  0  0  0  0  0  0  0  0  0
   59.2840   30.2250   48.0230 C   0  0  0  0  0  0  0  0  0  0  0  0
   58.5070   30.1360   49.3420 C   0  0  0  0  0  0  0  0  0  0  0  0
   59.3980   30.2310   50.5080 N   0  0  0  0  0  0  0  0  0  0  0  0
   58.8330   30.3730   51.8240 C   0  0  0  0  0  0  0  0  0  0  0  0
   57.4390   30.4160   51.9980 C   0  0  0  0  0  0  0  0  0  0  0  0
   56.8920   30.5700   53.2760 C   0  0  0  0  0  0  0  0  0  0  0  0
   57.7310   30.6870   54.3890 C   0  0  0  0  0  0  0  0  0  0  0  0
   57.1990   30.8390   55.6260 F   0  0  0  0  0  0  0  0  0  0  0  0
   59.1180   30.6530   54.2220 C   0  0  0  0  0  0  0  0  0  0  0  0
   59.6690   30.4970   52.9470 C   0  0  0  0  0  0  0  0  0  0  0  0
   60.8530   30.2430   50.3140 C   0  0  0  0  0  0  0  0  0  0  0  0
   61.2260   31.3030   49.2760 C   0  0  0  0  0  0  0  0  0  0  0  0
   59.9258   34.8536   47.5795 H   0  0  0  0  0  0  0  0  0  0  0  0
   61.0604   34.9194   46.1884 H   0  0  0  0  0  0  0  0  0  0  0  0
   59.5795   35.9360   46.1884 H   0  0  0  0  0  0  0  0  0  0  0  0
   57.8839   35.2296   44.8214 H   0  0  0  0  0  0  0  0  0  0  0  0
   56.5621   33.4281   43.7210 H   0  0  0  0  0  0  0  0  0  0  0  0
   57.8420   28.7180   42.7940 H   0  0  0  0  0  0  0  0  0  0  0  0
   60.0831   28.3980   44.7317 H   0  0  0  0  0  0  0  0  0  0  0  0
   60.5162   27.0113   46.7557 H   0  0  0  0  0  0  0  0  0  0  0  0
   58.6089   26.0694   48.0602 H   0  0  0  0  0  0  0  0  0  0  0  0
   56.2620   26.4987   47.3286 H   0  0  0  0  0  0  0  0  0  0  0  0
   59.1237   30.4384   45.5088 H   0  0  0  0  0  0  0  0  0  0  0  0
   58.5883   30.4836   47.2111 H   0  0  0  0  0  0  0  0  0  0  0  0
   59.7572   29.2518   47.8255 H   0  0  0  0  0  0  0  0  0  0  0  0
   57.7786   30.9593   49.3824 H   0  0  0  0  0  0  0  0  0  0  0  0
   58.0020   29.1594   49.3762 H   0  0  0  0  0  0  0  0  0  0  0  0
   56.7753   30.3282   51.1252 H   0  0  0  0  0  0  0  0  0  0  0  0
   55.8001   30.5992   53.4060 H   0  0  0  0  0  0  0  0  0  0  0  0
   59.7781   30.7493   55.0966 H   0  0  0  0  0  0  0  0  0  0  0  0
   60.7616   30.4712   52.8219 H   0  0  0  0  0  0  0  0  0  0  0  0
   61.3473   30.4762   51.2686 H   0  0  0  0  0  0  0  0  0  0  0  0
   61.1814   29.2548   49.9597 H   0  0  0  0  0  0  0  0  0  0  0  0
   61.1516   32.2978   49.7395 H   0  0  0  0  0  0  0  0  0  0  0  0
   62.2526   31.1035   48.9350 H   0  0  0  0  0  0  0  0  0  0  0  0
  1  2  1  0
  2  3  2  0
  3  4  1  0
  4  5  2  0
  5  6  1  0
  6  7  2  0
  6  8  2  0
  6  9  1  0
  9 10  1  0
 10 11  2  0
 11 12  1  0
 12 13  2  0
 13 14  1  0
 14 15  2  0
 15 16  1  0
  5 17  1  0
 17 18  2  0
 18 19  1  0
 19 20  2  0
 19 21  1  0
 21 22  1  0
 22 23  1  0
 23 24  1  0
 24 25  1  0
 25 26  2  0
 26 27  1  0
 27 28  2  0
 28 29  1  0
 28 30  1  0
 30 31  2  0
 24 32  1  0
 32 33  1  0
 18  2  1  0
 33 21  1  0
 15 10  1  0
 31 25  1  0
  1 34  1  0
  1 35  1  0
  1 36  1  0
  3 37  1  0
  4 38  1  0
  9 39  1  0
 11 40  1  0
 12 41  1  0
 13 42  1  0
 14 43  1  0
 17 44  1  0
 22 45  1  0
 22 46  1  0
 23 47  1  0
 23 48  1  0
 26 49  1  0
 27 50  1  0
 30 51  1  0
 31 52  1  0
 32 53  1  0
 32 54  1  0
 33 55  1  0
 33 56  1  0
M  CHG  1  16  -1
M  END
>  <UniqueID>  (37) 
34

>  <SMILES>  (37) 
Cc1ccc(S(=O)(=O)Nc2ccccc2[O-])cc1C(=O)N1CCN(c2ccc(F)cc2)CC1

>  <Energy>  (37) 
73.865399030016

>  <Genealogy>  (37) 
Cc1ccc(S(=O)(=O)Nc2ccccc2[O-])cc1C(=O)N1CCN(c2ccc(F)cc2)CC1 (protonated)
Cc1ccc(S(=O)(=O)Nc2ccccc2[O-])cc1C(=O)N1CCN(c2ccc(F)cc2)CC1 (3D coordinates assigned)
Cc1ccc(S(=O)(=O)Nc2ccccc2[O-])cc1C(=O)N1CCN(c2ccc(F)cc2)CC1 (nonaromatic ring conformer: 73.865399030016 kcal/mol)

>  <smiles>  (37) 
Cc1ccc(S(=O)(=O)Nc2ccccc2O)cc1C(=O)N1CCN(c2ccc(F)cc2)CC1

>  <score_type>  (37) 
oracle

>  <origin>  (37) 
adg

>  <m_score__min__energy>  (37) 
-14.41

>  <m_primary>  (37) 
energy

$$$$
37:0
     RDKit          3D

 58 62  0  0  1  0  0  0  0  0999 V2000
   59.6090   27.1910   47.6180 C   0  0  0  0  0  0  0  0  0  0  0  0
   58.9580   27.1900   46.4430 C   0  0  0  0  0  0  0  0  0  0  0  0
   58.4630   26.0680   45.7640 C   0  0  0  0  0  0  0  0  0  0  0  0
   58.5780   24.7940   46.1770 C   0  0  0  0  0  0  0  0  0  0  0  0
   57.8760   23.7660   45.4280 C   0  0  0  0  0  0  0  0  0  0  0  0
   58.6660   22.6840   45.0120 C   0  0  0  0  0  0  0  0  0  0  0  0
   60.0150   22.6000   45.2910 O   0  0  0  0  0  0  0  0  0  0  0  0
   58.1230   21.6670   44.3110 N   0  0  0  0  0  0  0  0  0  0  0  0
   56.8090   21.7430   44.0380 C   0  0  0  0  0  0  0  0  0  0  0  0
   56.3290   20.7580   43.3760 O   0  0  0  0  0  0  0  0  0  0  0  0
   56.0390   22.7690   44.4260 N   0  0  0  0  0  0  0  0  0  0  0  0
   56.5320   23.8110   45.1280 C   0  0  0  0  0  0  0  0  0  0  0  0
   55.8360   24.7690   45.4970 O   0  0  0  0  0  0  0  0  0  0  0  0
   57.8580   26.5290   44.6230 C   0  0  0  0  0  0  0  0  0  0  0  0
   57.9750   27.8970   44.5960 C   0  0  0  0  0  0  0  0  0  0  0  0
   57.4390   28.7710   43.5230 C   0  0  0  0  0  0  0  0  0  0  0  0
   58.6320   28.2720   45.6810 N   0  0  0  0  0  0  0  0  0  0  0  0
   59.0020   29.5950   46.0450 C   0  0  0  0  0  0  0  0  0  0  0  0
   57.9620   30.5280   46.0490 C   0  0  0  0  0  0  0  0  0  0  0  0
   58.1640   31.8530   46.3550 C   0  0  0  0  0  0  0  0  0  0  0  0
   59.4490   32.2510   46.6660 C   0  0  0  0  0  0  0  0  0  0  0  0
   59.6620   33.6530   46.9530 C   0  0  0  0  0  0  0  0  0  0  0  0
   58.6290   34.4060   46.7680 O   0  0  0  0  0  0  0  0  0  0  0  0
   60.8120   34.3010   47.3950 N   0  0  0  0  0  0  0  0  0  0  0  0
   61.9520   33.8170   47.6730 C   0  0  0  0  0  0  0  0  0  0  0  0
   62.4850   33.3910   48.8110 N   0  0  0  0  0  0  0  0  0  0  0  0
   63.7430   32.9530   48.6410 C   0  0  0  0  0  0  0  0  0  0  0  0
   64.6520   32.4410   49.6580 C   0  0  0  0  0  0  0  0  0  0  0  0
   65.9010   33.0230   49.7470 C   0  0  0  0  0  0  0  0  0  0  0  0
   66.8150   32.5520   50.6900 C   0  0  0  0  0  0  0  0  0  0  0  0
   66.4680   31.4940   51.5380 C   0  0  0  0  0  0  0  0  0  0  0  0
   65.2200   30.9440   51.4210 C   0  0  0  0  0  0  0  0  0  0  0  0
   64.2810   31.3970   50.4840 C   0  0  0  0  0  0  0  0  0  0  0  0
   64.0040   33.1190   47.3110 N   0  0  0  0  0  0  0  0  0  0  0  0
   62.9160   33.6470   46.7190 N   0  0  0  0  0  0  0  0  0  0  0  0
   60.4900   31.3320   46.6670 C   0  0  0  0  0  0  0  0  0  0  0  0
   60.2800   29.9880   46.3550 C   0  0  0  0  0  0  0  0  0  0  0  0
   59.9521   28.1400   48.0559 H   0  0  0  0  0  0  0  0  0  0  0  0
   59.7990   26.2428   48.1423 H   0  0  0  0  0  0  0  0  0  0  0  0
   59.1862   24.5372   47.0569 H   0  0  0  0  0  0  0  0  0  0  0  0
   60.7130   22.2430   44.6230 H   0  0  0  0  0  0  0  0  0  0  0  0
   58.6960   20.8500   44.0000 H   0  0  0  0  0  0  0  0  0  0  0  0
   55.0370   22.7250   44.1630 H   0  0  0  0  0  0  0  0  0  0  0  0
   57.3638   25.9093   43.8603 H   0  0  0  0  0  0  0  0  0  0  0  0
   56.9146   29.6261   43.9744 H   0  0  0  0  0  0  0  0  0  0  0  0
   58.2682   29.1369   42.8997 H   0  0  0  0  0  0  0  0  0  0  0  0
   56.7369   28.1978   42.8997 H   0  0  0  0  0  0  0  0  0  0  0  0
   56.9455   30.1904   45.7984 H   0  0  0  0  0  0  0  0  0  0  0  0
   57.3308   32.5712   46.3522 H   0  0  0  0  0  0  0  0  0  0  0  0
   66.1737   33.8529   49.0785 H   0  0  0  0  0  0  0  0  0  0  0  0
   67.8106   33.0132   50.7672 H   0  0  0  0  0  0  0  0  0  0  0  0
   67.1826   31.1128   52.2823 H   0  0  0  0  0  0  0  0  0  0  0  0
   64.9432   30.1144   52.0882 H   0  0  0  0  0  0  0  0  0  0  0  0
   63.2843   30.9378   50.4088 H   0  0  0  0  0  0  0  0  0  0  0  0
   64.8920   32.8800   46.8100 H   0  0  0  0  0  0  0  0  0  0  0  0
   62.8320   33.8770   45.6860 H   0  0  0  0  0  0  0  0  0  0  0  0
   61.5052   31.6717   46.9199 H   0  0  0  0  0  0  0  0  0  0  0  0
   61.1112   29.2675   46.3575 H   0  0  0  0  0  0  0  0  0  0  0  0
  1  2  2  0
  2  3  1  0
  3  4  2  0
  4  5  1  0
  5  6  2  0
  6  7  1  0
  6  8  1  0
  8  9  1  0
  9 10  2  0
  9 11  1  0
 11 12  1  0
 12 13  2  0
  3 14  1  0
 14 15  2  0
 15 16  1  0
 15 17  1  0
 17 18  1  0
 18 19  2  0
 19 20  1  0
 20 21  2  0
 21 22  1  0
 22 23  2  0
 22 24  1  0
 24 25  2  0
 25 26  1  0
 26 27  2  0
 27 28  1  0
 28 29  2  0
 29 30  1  0
 30 31  2  0
 31 32  1  0
 32 33  2  0
 27 34  1  0
 34 35  1  0
 21 36  1  0
 36 37  2  0
 17  2  1  0
 37 18  1  0
 12  5  1  0
 35 25  1  0
 33 28  1  0
  1 38  1  0
  1 39  1  0
  4 40  1  0
  7 41  1  0
  8 42  1  0
 11 43  1  0
 14 44  1  0
 16 45  1  0
 16 46  1  0
 16 47  1  0
 19 48  1  0
 20 49  1  0
 29 50  1  0
 30 51  1  0
 31 52  1  0
 32 53  1  0
 33 54  1  0
 34 55  1  0
 35 56  1  0
 36 57  1  0
 37 58  1  0
M  END
>  <smiles>  (38) 
C=c1c(=Cc2c(O)[nH]c(=O)[nH]c2=O)cc(C)n1-c1ccc(C(=O)N=c2nc(-c3ccccc3)[nH][nH]2)cc1

>  <score_type>  (38) 
oracle

>  <origin>  (38) 
adg

>  <m_score__min__energy>  (38) 
-11

>  <m_primary>  (38) 
energy

$$$$
38:0
     RDKit          3D

 40 42  0  0  0  0  0  0  0  0999 V2000
   55.9670   30.4750   44.4860 O   0  0  0  0  0  0  0  0  0  0  0  0
   57.0650   30.0440   44.0390 C   0  0  0  0  0  0  0  0  0  0  0  0
   57.3620   28.5730   44.1030 C   0  0  0  0  0  0  0  0  0  0  0  0
   58.1690   28.2640   45.2950 N   0  0  0  0  0  0  0  0  0  0  0  0
   57.5890   27.5900   46.3350 C   0  0  0  0  0  0  0  0  0  0  0  0
   58.3200   27.2890   47.4840 C   0  0  0  0  0  0  0  0  0  0  0  0
   59.6560   27.6750   47.5780 C   0  0  0  0  0  0  0  0  0  0  0  0
   60.3870   27.3670   48.7720 N   0  0  0  0  0  0  0  0  0  0  0  0
   60.7430   28.2890   49.8120 C   0  0  0  0  0  0  0  0  0  0  0  0
   61.0920   27.8330   50.9330 O   0  0  0  0  0  0  0  0  0  0  0  0
   60.7780   29.7490   49.5920 C   0  0  0  0  0  0  0  0  0  0  0  0
   61.5430   30.4180   48.6500 C   0  0  0  0  0  0  0  0  0  0  0  0
   61.2940   31.7620   48.8410 C   0  0  0  0  0  0  0  0  0  0  0  0
   62.0570   33.1970   47.8420 Br  0  0  0  0  0  0  0  0  0  0  0  0
   60.4050   31.8590   49.8920 C   0  0  0  0  0  0  0  0  0  0  0  0
   59.6980   33.4750   50.6250 Br  0  0  0  0  0  0  0  0  0  0  0  0
   60.0940   30.6320   50.3480 N   0  0  0  0  0  0  0  0  0  0  0  0
   60.2290   28.4030   46.5270 C   0  0  0  0  0  0  0  0  0  0  0  0
   59.4720   28.6880   45.3860 C   0  0  0  0  0  0  0  0  0  0  0  0
   60.0030   29.3410   44.4460 O   0  0  0  0  0  0  0  0  0  0  0  0
   58.0080   30.9480   43.4460 N   0  0  0  0  0  0  0  0  0  0  0  0
   57.7570   32.3860   43.3990 C   0  0  0  0  0  0  0  0  0  0  0  0
   58.1040   33.0250   44.7080 C   0  0  0  0  0  0  0  0  0  0  0  0
   58.7760   34.2300   44.8680 C   0  0  0  0  0  0  0  0  0  0  0  0
   59.0440   34.5350   46.2080 C   0  0  0  0  0  0  0  0  0  0  0  0
   58.5990   33.5660   47.1010 C   0  0  0  0  0  0  0  0  0  0  0  0
   57.8750   32.3260   46.2200 S   0  0  0  0  0  0  0  0  0  0  0  0
   56.4159   28.0139   44.1509 H   0  0  0  0  0  0  0  0  0  0  0  0
   57.9269   28.2835   43.2046 H   0  0  0  0  0  0  0  0  0  0  0  0
   56.5353   27.2824   46.2641 H   0  0  0  0  0  0  0  0  0  0  0  0
   57.8430   26.7480   48.3145 H   0  0  0  0  0  0  0  0  0  0  0  0
   62.2128   29.9690   47.9018 H   0  0  0  0  0  0  0  0  0  0  0  0
   59.4550   30.4130   51.1430 H   0  0  0  0  0  0  0  0  0  0  0  0
   61.2706   28.7492   46.5990 H   0  0  0  0  0  0  0  0  0  0  0  0
   58.8960   30.5610   43.0480 H   0  0  0  0  0  0  0  0  0  0  0  0
   58.3710   32.8343   42.6040 H   0  0  0  0  0  0  0  0  0  0  0  0
   56.6890   32.5529   43.1951 H   0  0  0  0  0  0  0  0  0  0  0  0
   59.0676   34.8780   44.0284 H   0  0  0  0  0  0  0  0  0  0  0  0
   59.5581   35.4545   46.5247 H   0  0  0  0  0  0  0  0  0  0  0  0
   58.7022   33.6030   48.1955 H   0  0  0  0  0  0  0  0  0  0  0  0
  1  2  2  0
  2  3  1  0
  3  4  1  0
  4  5  1  0
  5  6  2  0
  6  7  1  0
  7  8  1  0
  8  9  1  0
  9 10  2  0
  9 11  1  0
 11 12  2  0
 12 13  1  0
 13 14  1  0
 13 15  2  0
 15 16  1  0
 15 17  1  0
  7 18  2  0
 18 19  1  0
 19 20  2  0
  2 21  1  0
 21 22  1  0
 22 23  1  0
 23 24  2  0
 24 25  1  0
 25 26  2  0
 26 27  1  0
 19  4  1  0
 27 23  1  0
 17 11  1  0
  3 28  1  0
  3 29  1  0
  5 30  1  0
  6 31  1  0
 12 32  1  0
 17 33  1  0
 18 34  1  0
 21 35  1  0
 22 36  1  0
 22 37  1  0
 24 38  1  0
 25 39  1  0
 26 40  1  0
M  CHG  1   8  -1
M  END
>  <UniqueID>  (39) 
35

>  <SMILES>  (39) 
O=C(Cn1ccc([N-]C(=O)c2cc(Br)c(Br)[nH]2)cc1=O)NCc1cccs1

>  <Energy>  (39) 
97.25500385096659

>  <Genealogy>  (39) 
O=C(Cn1ccc([N-]C(=O)c2cc(Br)c(Br)[nH]2)cc1=O)NCc1cccs1 (protonated)
O=C(Cn1ccc([N-]C(=O)c2cc(Br)c(Br)[nH]2)cc1=O)NCc1cccs1 (3D coordinates assigned)
O=C(Cn1ccc([N-]C(=O)c2cc(Br)c(Br)[nH]2)cc1=O)NCc1cccs1 (optimized conformer: 97.25500385096659 kcal/mol)

>  <smiles>  (39) 
O=C(Cn1ccc(NC(=O)c2cc(Br)c(Br)[nH]2)cc1=O)NCc1cccs1

>  <score_type>  (39) 
oracle

>  <origin>  (39) 
adg

>  <m_score__min__energy>  (39) 
-9.6699999999999999

>  <m_primary>  (39) 
energy

$$$$
39:0
     RDKit          3D

 33 34  0  0  0  0  0  0  0  0999 V2000
   58.5960   22.2110   44.2950 C   0  0  0  0  0  0  0  0  0  0  0  0
   57.2640   22.7990   44.3460 N   0  0  0  0  0  0  0  0  0  0  0  0
   56.9060   23.7520   45.1930 N   0  0  0  0  0  0  0  0  0  0  0  0
   55.6320   24.0930   44.8990 C   0  0  0  0  0  0  0  0  0  0  0  0
   54.8740   25.1630   45.6170 C   0  0  0  0  0  0  0  0  0  0  0  0
   55.6680   25.6880   46.7270 N   0  0  0  0  0  0  0  0  0  0  0  0
   56.8300   26.8760   46.1990 S   0  0  0  0  0  0  0  0  0  0  0  0
   57.4290   27.5280   47.4130 O   0  0  0  0  0  0  0  0  0  0  0  0
   56.1760   27.9450   45.3650 O   0  0  0  0  0  0  0  0  0  0  0  0
   58.1040   26.1260   45.2570 N   0  0  0  0  0  0  0  0  0  0  0  0
   58.4920   26.9670   44.1060 C   0  0  0  0  0  0  0  0  0  0  0  0
   59.3710   28.1720   44.5200 C   0  0  0  0  0  0  0  0  0  0  0  0
   59.9460   28.0440   45.8080 O   0  0  0  0  0  0  0  0  0  0  0  0
   60.4330   26.7350   45.9940 C   0  0  0  0  0  0  0  0  0  0  0  0
   59.2630   25.7420   46.0990 C   0  0  0  0  0  0  0  0  0  0  0  0
   55.1670   23.3440   43.8290 C   0  0  0  0  0  0  0  0  0  0  0  0
   56.2410   22.5470   43.5100 C   0  0  0  0  0  0  0  0  0  0  0  0
   56.2780   21.7090   42.5710 O   0  0  0  0  0  0  0  0  0  0  0  0
   58.9644   22.0484   45.3186 H   0  0  0  0  0  0  0  0  0  0  0  0
   58.5519   21.2487   43.7639 H   0  0  0  0  0  0  0  0  0  0  0  0
   59.2773   22.8920   43.7639 H   0  0  0  0  0  0  0  0  0  0  0  0
   54.6459   25.9792   44.9158 H   0  0  0  0  0  0  0  0  0  0  0  0
   53.9411   24.7364   46.0141 H   0  0  0  0  0  0  0  0  0  0  0  0
   57.6860   25.2480   44.8700 H   0  0  0  0  0  0  0  0  0  0  0  0
   59.0554   26.3487   43.3917 H   0  0  0  0  0  0  0  0  0  0  0  0
   57.5697   27.3652   43.6579 H   0  0  0  0  0  0  0  0  0  0  0  0
   60.1837   28.2768   43.7862 H   0  0  0  0  0  0  0  0  0  0  0  0
   58.7135   29.0534   44.5487 H   0  0  0  0  0  0  0  0  0  0  0  0
   61.0681   26.4589   45.1394 H   0  0  0  0  0  0  0  0  0  0  0  0
   61.0184   26.6991   46.9246 H   0  0  0  0  0  0  0  0  0  0  0  0
   59.6150   24.7497   45.7805 H   0  0  0  0  0  0  0  0  0  0  0  0
   58.9247   25.7393   47.1457 H   0  0  0  0  0  0  0  0  0  0  0  0
   54.1772   23.3789   43.3505 H   0  0  0  0  0  0  0  0  0  0  0  0
  1  2  1  0
  2  3  1  0
  3  4  1  0
  4  5  1  0
  5  6  1  0
  6  7  1  0
  7  8  2  0
  7  9  2  0
  7 10  1  0
 10 11  1  0
 11 12  1  0
 12 13  1  0
 13 14  1  0
 14 15  1  0
  4 16  2  0
 16 17  1  0
 17 18  2  0
 17  2  1  0
 15 10  1  0
  1 19  1  0
  1 20  1  0
  1 21  1  0
  5 22  1  0
  5 23  1  0
 10 24  1  0
 11 25  1  0
 11 26  1  0
 12 27  1  0
 12 28  1  0
 14 29  1  0
 14 30  1  0
 15 31  1  0
 15 32  1  0
 16 33  1  0
M  CHG  3   3  -1   6  -1  10   1
M  END
>  <UniqueID>  (40) 
36

>  <SMILES>  (40) 
Cn1[n-]c(C[N-]S(=O)(=O)[NH+]2CCOCC2)cc1=O

>  <Energy>  (40) 
69.23349565276901

>  <Genealogy>  (40) 
Cn1[n-]c(C[N-]S(=O)(=O)[NH+]2CCOCC2)cc1=O (protonated)
Cn1[n-]c(C[N-]S(=O)(=O)[NH+]2CCOCC2)cc1=O (3D coordinates assigned)
Cn1[n-]c(C[N-]S(=O)(=O)[NH+]2CCOCC2)cc1=O (nonaromatic ring conformer: 69.23349565276901 kcal/mol)

>  <smiles>  (40) 
Cn1[nH]c(CNS(=O)(=O)N2CCOCC2)cc1=O

>  <score_type>  (40) 
oracle

>  <origin>  (40) 
adg

>  <m_score__min__energy>  (40) 
-8.7599999999999998

>  <m_primary>  (40) 
energy

$$$$
40:0
     RDKit          3D

 58 61  0  0  0  0  0  0  0  0999 V2000
   59.6380   35.6740   45.8260 C   0  0  0  0  0  0  0  0  0  0  0  0
   59.8390   34.4590   46.3010 C   0  0  0  0  0  0  0  0  0  0  0  0
   58.9930   33.3670   45.8320 C   0  0  0  0  0  0  0  0  0  0  0  0
   58.6400   33.1910   44.5110 C   0  0  0  0  0  0  0  0  0  0  0  0
   57.8480   32.1190   44.1190 C   0  0  0  0  0  0  0  0  0  0  0  0
   57.4020   31.9030   42.4310 Cl  0  0  0  0  0  0  0  0  0  0  0  0
   57.4040   31.2150   45.0640 C   0  0  0  0  0  0  0  0  0  0  0  0
   56.6890   30.2460   44.7140 O   0  0  0  0  0  0  0  0  0  0  0  0
   57.7720   31.4230   46.3480 N   0  0  0  0  0  0  0  0  0  0  0  0
   58.5250   32.4440   46.7020 N   0  0  0  0  0  0  0  0  0  0  0  0
   60.9160   34.1640   47.3150 C   0  0  0  0  0  0  0  0  0  0  0  0
   60.4210   33.7810   48.6470 C   0  0  0  0  0  0  0  0  0  0  0  0
   60.2300   32.3430   48.9340 C   0  0  0  0  0  0  0  0  0  0  0  0
   60.8330   31.4300   48.0620 N   0  0  0  0  0  0  0  0  0  0  0  0
   61.1260   30.1980   48.7530 C   0  0  0  0  0  0  0  0  0  0  0  0
   60.4080   29.0480   48.1570 C   0  0  0  0  0  0  0  0  0  0  0  0
   60.5200   27.8620   48.5300 O   0  0  0  0  0  0  0  0  0  0  0  0
   59.5260   29.3180   47.0790 N   0  0  0  0  0  0  0  0  0  0  0  0
   58.7860   28.2950   46.4290 C   0  0  0  0  0  0  0  0  0  0  0  0
   58.9610   28.0700   45.0650 C   0  0  0  0  0  0  0  0  0  0  0  0
   58.2460   27.0790   44.4160 C   0  0  0  0  0  0  0  0  0  0  0  0
   57.3490   26.3040   45.1390 C   0  0  0  0  0  0  0  0  0  0  0  0
   56.6250   25.3000   44.4860 O   0  0  0  0  0  0  0  0  0  0  0  0
   57.2190   24.0610   44.3590 C   0  0  0  0  0  0  0  0  0  0  0  0
   58.3480   23.7910   45.1160 C   0  0  0  0  0  0  0  0  0  0  0  0
   58.9890   22.5520   45.0240 C   0  0  0  0  0  0  0  0  0  0  0  0
   58.4870   21.5900   44.1680 C   0  0  0  0  0  0  0  0  0  0  0  0
   57.3750   21.8560   43.4230 C   0  0  0  0  0  0  0  0  0  0  0  0
   56.7400   23.0850   43.5130 C   0  0  0  0  0  0  0  0  0  0  0  0
   57.1640   26.5150   46.4920 C   0  0  0  0  0  0  0  0  0  0  0  0
   57.8740   27.5000   47.1350 C   0  0  0  0  0  0  0  0  0  0  0  0
   61.8900   31.8220   47.2490 C   0  0  0  0  0  0  0  0  0  0  0  0
   61.9070   33.2240   46.7380 C   0  0  0  0  0  0  0  0  0  0  0  0
   60.2664   36.5093   46.1684 H   0  0  0  0  0  0  0  0  0  0  0  0
   58.8420   35.8512   45.0877 H   0  0  0  0  0  0  0  0  0  0  0  0
   58.9907   33.9101   43.7561 H   0  0  0  0  0  0  0  0  0  0  0  0
   57.4630   30.7690   47.0870 H   0  0  0  0  0  0  0  0  0  0  0  0
   61.4339   35.1111   47.5269 H   0  0  0  0  0  0  0  0  0  0  0  0
   61.1382   34.1686   49.3855 H   0  0  0  0  0  0  0  0  0  0  0  0
   59.4073   34.2055   48.6938 H   0  0  0  0  0  0  0  0  0  0  0  0
   60.6286   32.1511   49.9411 H   0  0  0  0  0  0  0  0  0  0  0  0
   59.1494   32.1727   48.8189 H   0  0  0  0  0  0  0  0  0  0  0  0
   62.2082   30.0085   48.6993 H   0  0  0  0  0  0  0  0  0  0  0  0
   60.7941   30.3043   49.7963 H   0  0  0  0  0  0  0  0  0  0  0  0
   59.3950   30.3010   46.7270 H   0  0  0  0  0  0  0  0  0  0  0  0
   59.6746   28.6863   44.4986 H   0  0  0  0  0  0  0  0  0  0  0  0
   58.3867   26.9070   43.3387 H   0  0  0  0  0  0  0  0  0  0  0  0
   58.7438   24.5595   45.7963 H   0  0  0  0  0  0  0  0  0  0  0  0
   59.8849   22.3446   45.6275 H   0  0  0  0  0  0  0  0  0  0  0  0
   58.9830   20.6115   44.0874 H   0  0  0  0  0  0  0  0  0  0  0  0
   56.9783   21.0870   42.7438 H   0  0  0  0  0  0  0  0  0  0  0  0
   55.8458   23.2826   42.9036 H   0  0  0  0  0  0  0  0  0  0  0  0
   56.4494   25.8953   47.0535 H   0  0  0  0  0  0  0  0  0  0  0  0
   57.7251   27.6655   48.2122 H   0  0  0  0  0  0  0  0  0  0  0  0
   62.8158   31.6738   47.8243 H   0  0  0  0  0  0  0  0  0  0  0  0
   61.7807   31.2048   46.3451 H   0  0  0  0  0  0  0  0  0  0  0  0
   62.9080   33.6361   46.9336 H   0  0  0  0  0  0  0  0  0  0  0  0
   61.6378   33.1432   45.6745 H   0  0  0  0  0  0  0  0  0  0  0  0
  1  2  2  0
  2  3  1  0
  3  4  1  0
  4  5  2  0
  5  6  1  0
  5  7  1  0
  7  8  2  0
  7  9  1  0
  9 10  1  0
  2 11  1  0
 11 12  1  0
 12 13  1  0
 13 14  1  0
 14 15  1  0
 15 16  1  0
 16 17  2  0
 16 18  1  0
 18 19  1  0
 19 20  2  0
 20 21  1  0
 21 22  2  0
 22 23  1  0
 23 24  1  0
 24 25  2  0
 25 26  1  0
 26 27  2  0
 27 28  1  0
 28 29  2  0
 22 30  1  0
 30 31  2  0
 14 32  1  0
 32 33  1  0
 10  3  2  0
 33 11  1  0
 31 19  1  0
 29 24  1  0
  1 34  1  0
  1 35  1  0
  4 36  1  0
  9 37  1  0
 11 38  1  0
 12 39  1  0
 12 40  1  0
 13 41  1  0
 13 42  1  0
 15 43  1  0
 15 44  1  0
 18 45  1  0
 20 46  1  0
 21 47  1  0
 25 48  1  0
 26 49  1  0
 27 50  1  0
 28 51  1  0
 29 52  1  0
 30 53  1  0
 31 54  1  0
 32 55  1  0
 32 56  1  0
 33 57  1  0
 33 58  1  0
M  END
>  <smiles>  (41) 
C=C(c1cc(Cl)c(=O)[nH]n1)C1CCN(CC(=O)Nc2ccc(Oc3ccccc3)cc2)CC1

>  <score_type>  (41) 
oracle

>  <origin>  (41) 
adg

>  <m_score__min__energy>  (41) 
-10.32

>  <m_primary>  (41) 
energy

$$$$
41:0
     RDKit          3D

 38 40  0  0  0  0  0  0  0  0999 V2000
   61.5460   34.5240   47.9690 H   0  0  0  0  0  0  0  0  0  0  0  0
   62.5040   34.1060   47.9690 N   0  0  0  0  0  0  0  0  0  0  0  0
   62.6980   32.8420   47.7650 C   0  0  0  0  0  0  0  0  0  0  0  0
   61.6070   31.8920   48.0400 C   0  0  0  0  0  0  0  0  0  0  0  0
   60.7650   32.0160   49.0920 N   0  0  0  0  0  0  0  0  0  0  0  0
   59.8500   31.0100   49.1380 C   0  0  0  0  0  0  0  0  0  0  0  0
   59.0779   30.9461   49.9188 H   0  0  0  0  0  0  0  0  0  0  0  0
   59.9670   30.0700   48.1220 C   0  0  0  0  0  0  0  0  0  0  0  0
   59.0810   28.8740   47.9310 C   0  0  0  0  0  0  0  0  0  0  0  0
   59.5588   27.9967   48.3915 H   0  0  0  0  0  0  0  0  0  0  0  0
   58.1102   29.0816   48.4048 H   0  0  0  0  0  0  0  0  0  0  0  0
   58.8590   28.6090   46.5440 O   0  0  0  0  0  0  0  0  0  0  0  0
   58.0290   29.3620   45.6960 C   0  0  0  0  0  0  0  0  0  0  0  0
   58.3480   30.6770   45.3040 C   0  0  0  0  0  0  0  0  0  0  0  0
   59.3063   31.1198   45.6133 H   0  0  0  0  0  0  0  0  0  0  0  0
   57.4570   31.4270   44.5240 C   0  0  0  0  0  0  0  0  0  0  0  0
   57.7540   32.8700   44.2250 C   0  0  0  0  0  0  0  0  0  0  0  0
   58.3140   32.9398   43.2808 H   0  0  0  0  0  0  0  0  0  0  0  0
   56.8085   33.4251   44.1364 H   0  0  0  0  0  0  0  0  0  0  0  0
   58.5710   33.4580   45.3320 C   0  0  0  0  0  0  0  0  0  0  0  0
   58.2560   33.2700   46.9770 S   0  0  0  0  0  0  0  0  0  0  0  0
   59.4900   34.3230   47.4110 C   0  0  0  0  0  0  0  0  0  0  0  0
   59.7900   34.6240   48.6310 N   0  0  0  0  0  0  0  0  0  0  0  0
   60.6210   34.2040   49.1030 H   0  0  0  0  0  0  0  0  0  0  0  0
   60.1370   34.8360   46.3420 N   0  0  0  0  0  0  0  0  0  0  0  0
   59.6210   34.3600   45.1780 C   0  0  0  0  0  0  0  0  0  0  0  0
   60.0027   34.6633   44.1920 H   0  0  0  0  0  0  0  0  0  0  0  0
   56.2510   30.8460   44.1050 C   0  0  0  0  0  0  0  0  0  0  0  0
   55.5418   31.4304   43.5004 H   0  0  0  0  0  0  0  0  0  0  0  0
   55.9480   29.5280   44.4530 C   0  0  0  0  0  0  0  0  0  0  0  0
   55.0129   29.0694   44.0992 H   0  0  0  0  0  0  0  0  0  0  0  0
   56.8300   28.7870   45.2510 C   0  0  0  0  0  0  0  0  0  0  0  0
   56.5160   27.4800   45.6170 O   0  0  0  0  0  0  0  0  0  0  0  0
   57.1510   26.9170   46.1720 H   0  0  0  0  0  0  0  0  0  0  0  0
   61.2390   30.5280   47.1200 S   0  0  0  0  0  0  0  0  0  0  0  0
   63.9660   32.3840   47.2830 N   0  0  0  0  0  0  0  0  0  0  0  0
   64.1510   31.3700   47.1210 H   0  0  0  0  0  0  0  0  0  0  0  0
   64.7380   33.0600   47.0910 H   0  0  0  0  0  0  0  0  0  0  0  0
  1  2  1  0
  2  3  2  0
  3  4  1  0
  4  5  2  0
  5  6  1  0
  6  7  1  0
  6  8  2  0
  8  9  1  0
  9 10  1  0
  9 11  1  0
  9 12  1  0
 12 13  1  0
 13 14  2  0
 14 15  1  0
 14 16  1  0
 16 17  1  0
 17 18  1  0
 17 19  1  0
 17 20  1  0
 20 21  1  0
 21 22  1  0
 22 23  2  0
 23 24  1  0
 22 25  1  0
 25 26  1  0
 26 27  1  0
 16 28  2  0
 28 29  1  0
 28 30  1  0
 30 31  1  0
 30 32  2  0
 32 33  1  0
 33 34  1  0
  8 35  1  0
  3 36  1  0
 36 37  1  0
 36 38  1  0
 35  4  1  0
 32 13  1  0
 26 20  2  0
M  CHG  1  25  -1
M  END
>  <UniqueID>  (42) 
37

>  <SMILES>  (42) 
[H]/N=C(\N)c1ncc(COc2cc(Cc3c[n-]/c(=N\[H])s3)ccc2O)s1

>  <Energy>  (42) 
92.38156287095129

>  <Genealogy>  (42) 
N=C(N)c1ncc(COc2cc(Cc3c[n-]c(=N)s3)ccc2O)s1 (protonated)
[H]/N=C(\N)c1ncc(COc2cc(Cc3c[n-]/c(=N\[H])s3)ccc2O)s1 (cis-trans isomerization)
[H]/N=C(\N)c1ncc(COc2cc(Cc3c[n-]/c(=N\[H])s3)ccc2O)s1 (3D coordinates assigned)
[H]/N=C(\N)c1ncc(COc2cc(Cc3c[n-]/c(=N\[H])s3)ccc2O)s1 (optimized conformer: 92.38156287095129 kcal/mol)

>  <smiles>  (42) 
N=C(N)c1ncc(COc2cc(Cc3c[nH]c(=N)s3)ccc2O)s1

>  <score_type>  (42) 
oracle

>  <origin>  (42) 
adg

>  <m_score__min__energy>  (42) 
-8.2599999999999998

>  <m_primary>  (42) 
energy

$$$$
42:0
     RDKit          3D

 45 47  0  0  0  0  0  0  0  0999 V2000
   61.7620   34.2120   49.6780 C   0  0  0  0  0  0  0  0  0  0  0  0
   63.1100   34.1140   49.1270 N   0  0  0  0  0  0  0  0  0  0  0  0
   63.1500   32.9010   47.8850 S   0  0  0  0  0  0  0  0  0  0  0  0
   64.1440   33.2910   46.8250 O   0  0  0  0  0  0  0  0  0  0  0  0
   63.5850   31.5950   48.4860 O   0  0  0  0  0  0  0  0  0  0  0  0
   61.5510   32.7020   47.1730 C   0  0  0  0  0  0  0  0  0  0  0  0
   61.0140   33.6900   46.3360 C   0  0  0  0  0  0  0  0  0  0  0  0
   59.7390   33.5300   45.7870 C   0  0  0  0  0  0  0  0  0  0  0  0
   58.9840   32.3820   46.0720 C   0  0  0  0  0  0  0  0  0  0  0  0
   57.6210   32.2080   45.4600 C   0  0  0  0  0  0  0  0  0  0  0  0
   57.3150   30.7880   45.3020 N   0  0  0  0  0  0  0  0  0  0  0  0
   58.2130   29.8770   44.6470 C   0  0  0  0  0  0  0  0  0  0  0  0
   59.2700   30.3180   44.1170 O   0  0  0  0  0  0  0  0  0  0  0  0
   57.9140   28.4270   44.5660 C   0  0  0  0  0  0  0  0  0  0  0  0
   57.4230   27.7210   45.6790 C   0  0  0  0  0  0  0  0  0  0  0  0
   57.1490   26.3540   45.5870 C   0  0  0  0  0  0  0  0  0  0  0  0
   57.3640   25.6590   44.3850 C   0  0  0  0  0  0  0  0  0  0  0  0
   57.0710   24.2050   44.2890 C   0  0  0  0  0  0  0  0  0  0  0  0
   57.6510   23.2860   45.1770 C   0  0  0  0  0  0  0  0  0  0  0  0
   57.3680   21.9620   45.0720 N   0  0  0  0  0  0  0  0  0  0  0  0
   56.5270   21.4990   44.1100 C   0  0  0  0  0  0  0  0  0  0  0  0
   56.2690   20.2350   44.0210 N   0  0  0  0  0  0  0  0  0  0  0  0
   55.9550   22.3670   43.2370 N   0  0  0  0  0  0  0  0  0  0  0  0
   56.2060   23.7000   43.3060 C   0  0  0  0  0  0  0  0  0  0  0  0
   57.8670   26.3620   43.2760 C   0  0  0  0  0  0  0  0  0  0  0  0
   58.1410   27.7290   43.3680 C   0  0  0  0  0  0  0  0  0  0  0  0
   59.5230   31.3950   46.9120 C   0  0  0  0  0  0  0  0  0  0  0  0
   60.7990   31.5560   47.4610 C   0  0  0  0  0  0  0  0  0  0  0  0
   61.8138   34.2082   50.7768 H   0  0  0  0  0  0  0  0  0  0  0  0
   61.2932   35.1466   49.3362 H   0  0  0  0  0  0  0  0  0  0  0  0
   61.1630   33.3550   49.3362 H   0  0  0  0  0  0  0  0  0  0  0  0
   61.5983   34.5943   46.1106 H   0  0  0  0  0  0  0  0  0  0  0  0
   59.3252   34.3077   45.1283 H   0  0  0  0  0  0  0  0  0  0  0  0
   56.8675   32.6713   46.1139 H   0  0  0  0  0  0  0  0  0  0  0  0
   57.6080   32.6896   44.4711 H   0  0  0  0  0  0  0  0  0  0  0  0
   56.3780   30.4560   45.6230 H   0  0  0  0  0  0  0  0  0  0  0  0
   57.2534   28.2490   46.6290 H   0  0  0  0  0  0  0  0  0  0  0  0
   56.7609   25.8164   46.4647 H   0  0  0  0  0  0  0  0  0  0  0  0
   58.3372   23.6394   45.9608 H   0  0  0  0  0  0  0  0  0  0  0  0
   57.0080   19.5450   43.7610 H   0  0  0  0  0  0  0  0  0  0  0  0
   55.7300   24.3856   42.5895 H   0  0  0  0  0  0  0  0  0  0  0  0
   58.0461   25.8318   42.3290 H   0  0  0  0  0  0  0  0  0  0  0  0
   58.5386   28.2644   42.4932 H   0  0  0  0  0  0  0  0  0  0  0  0
   58.9391   30.4909   47.1394 H   0  0  0  0  0  0  0  0  0  0  0  0
   61.2135   30.7800   48.1213 H   0  0  0  0  0  0  0  0  0  0  0  0
  1  2  1  0
  2  3  1  0
  3  4  2  0
  3  5  2  0
  3  6  1  0
  6  7  2  0
  7  8  1  0
  8  9  2  0
  9 10  1  0
 10 11  1  0
 11 12  1  0
 12 13  2  0
 12 14  1  0
 14 15  2  0
 15 16  1  0
 16 17  2  0
 17 18  1  0
 18 19  1  0
 19 20  2  0
 20 21  1  0
 21 22  2  3
 21 23  1  0
 23 24  1  0
 17 25  1  0
 25 26  2  0
  9 27  1  0
 27 28  2  0
 28  6  1  0
 26 14  1  0
 24 18  2  0
  1 29  1  0
  1 30  1  0
  1 31  1  0
  7 32  1  0
  8 33  1  0
 10 34  1  0
 10 35  1  0
 11 36  1  0
 15 37  1  0
 16 38  1  0
 19 39  1  0
 22 40  1  0
 24 41  1  0
 25 42  1  0
 26 43  1  0
 27 44  1  0
 28 45  1  0
M  CHG  2   2  -1  23  -1
M  END
>  <UniqueID>  (43) 
38

>  <SMILES>  (43) 
C[N-]S(=O)(=O)c1ccc(CNC(=O)c2ccc(-c3cnc(=N)[n-]c3)cc2)cc1

>  <Energy>  (43) 
51.69793181901693

>  <Genealogy>  (43) 
C[N-]S(=O)(=O)c1ccc(CNC(=O)c2ccc(-c3cnc(=N)[n-]c3)cc2)cc1 (protonated)
C[N-]S(=O)(=O)c1ccc(CNC(=O)c2ccc(-c3cnc(=N)[n-]c3)cc2)cc1 (3D coordinates assigned)
C[N-]S(=O)(=O)c1ccc(CNC(=O)c2ccc(-c3cnc(=N)[n-]c3)cc2)cc1 (optimized conformer: 51.69793181901693 kcal/mol)

>  <smiles>  (43) 
CNS(=O)(=O)c1ccc(CNC(=O)c2ccc(-c3cnc(=N)[nH]c3)cc2)cc1

>  <score_type>  (43) 
oracle

>  <origin>  (43) 
adg

>  <m_score__min__energy>  (43) 
-10.44

>  <m_primary>  (43) 
energy

$$$$
43:0
     RDKit          3D

 35 36  0  0  0  0  0  0  0  0999 V2000
   59.2490   35.5770   44.8390 C   0  0  0  0  0  0  0  0  0  0  0  0
   58.7940   34.3070   45.5060 C   0  0  0  0  0  0  0  0  0  0  0  0
   58.1600   33.3150   44.7390 C   0  0  0  0  0  0  0  0  0  0  0  0
   57.7240   32.1210   45.3290 C   0  0  0  0  0  0  0  0  0  0  0  0
   57.0820   31.0480   44.4890 C   0  0  0  0  0  0  0  0  0  0  0  0
   57.4960   29.6750   44.9730 C   0  0  0  0  0  0  0  0  0  0  0  0
   56.5310   28.6840   45.2350 C   0  0  0  0  0  0  0  0  0  0  0  0
   55.1750   28.9690   45.0890 O   0  0  0  0  0  0  0  0  0  0  0  0
   56.9300   27.4020   45.6460 C   0  0  0  0  0  0  0  0  0  0  0  0
   55.9310   26.3910   45.9140 C   0  0  0  0  0  0  0  0  0  0  0  0
   55.1330   25.5820   46.1290 N   0  0  0  0  0  0  0  0  0  0  0  0
   58.3010   27.1230   45.7910 C   0  0  0  0  0  0  0  0  0  0  0  0
   58.7890   25.7720   46.2270 C   0  0  0  0  0  0  0  0  0  0  0  0
   59.2140   28.0960   45.5290 N   0  0  0  0  0  0  0  0  0  0  0  0
   58.8560   29.3440   45.1280 C   0  0  0  0  0  0  0  0  0  0  0  0
   59.7570   30.1940   44.9010 O   0  0  0  0  0  0  0  0  0  0  0  0
   57.9290   31.9160   46.7000 C   0  0  0  0  0  0  0  0  0  0  0  0
   58.5570   32.8960   47.4830 C   0  0  0  0  0  0  0  0  0  0  0  0
   58.7720   32.6600   48.9530 C   0  0  0  0  0  0  0  0  0  0  0  0
   58.9940   34.0950   46.8900 C   0  0  0  0  0  0  0  0  0  0  0  0
   59.6210   35.0550   47.6900 O   0  0  0  0  0  0  0  0  0  0  0  0
   59.5149   36.3191   45.6062 H   0  0  0  0  0  0  0  0  0  0  0  0
   60.1279   35.3671   44.2117 H   0  0  0  0  0  0  0  0  0  0  0  0
   58.4368   35.9730   44.2117 H   0  0  0  0  0  0  0  0  0  0  0  0
   58.0040   33.4776   43.6623 H   0  0  0  0  0  0  0  0  0  0  0  0
   55.9881   31.1410   44.5576 H   0  0  0  0  0  0  0  0  0  0  0  0
   57.4091   31.1704   43.4459 H   0  0  0  0  0  0  0  0  0  0  0  0
   58.8059   25.7253   47.3259 H   0  0  0  0  0  0  0  0  0  0  0  0
   58.1146   24.9952   45.8373 H   0  0  0  0  0  0  0  0  0  0  0  0
   59.8041   25.6055   45.8373 H   0  0  0  0  0  0  0  0  0  0  0  0
   57.5943   30.9778   47.1666 H   0  0  0  0  0  0  0  0  0  0  0  0
   58.1419   33.3517   49.5314 H   0  0  0  0  0  0  0  0  0  0  0  0
   58.5017   31.6230   49.2013 H   0  0  0  0  0  0  0  0  0  0  0  0
   59.8296   32.8327   49.2013 H   0  0  0  0  0  0  0  0  0  0  0  0
   59.1400   35.8550   48.0780 H   0  0  0  0  0  0  0  0  0  0  0  0
  1  2  1  0
  2  3  2  0
  3  4  1  0
  4  5  1  0
  5  6  1  0
  6  7  2  0
  7  8  1  0
  7  9  1  0
  9 10  1  0
 10 11  3  0
  9 12  2  0
 12 13  1  0
 12 14  1  0
 14 15  1  0
 15 16  2  0
  4 17  2  0
 17 18  1  0
 18 19  1  0
 18 20  2  0
 20 21  1  0
 20  2  1  0
 15  6  1  0
  1 22  1  0
  1 23  1  0
  1 24  1  0
  3 25  1  0
  5 26  1  0
  5 27  1  0
 13 28  1  0
 13 29  1  0
 13 30  1  0
 17 31  1  0
 19 32  1  0
 19 33  1  0
 19 34  1  0
 21 35  1  0
M  CHG  2   8  -1  14  -1
M  END
>  <UniqueID>  (44) 
39

>  <SMILES>  (44) 
Cc1cc(Cc2c([O-])c(C#N)c(C)[n-]c2=O)cc(C)c1O

>  <Energy>  (44) 
36.81708302766435

>  <Genealogy>  (44) 
Cc1cc(Cc2c([O-])c(C#N)c(C)[n-]c2=O)cc(C)c1O (protonated)
Cc1cc(Cc2c([O-])c(C#N)c(C)[n-]c2=O)cc(C)c1O (3D coordinates assigned)
Cc1cc(Cc2c([O-])c(C#N)c(C)[n-]c2=O)cc(C)c1O (optimized conformer: 36.81708302766435 kcal/mol)

>  <smiles>  (44) 
Cc1cc(Cc2c(O)c(C#N)c(C)[nH]c2=O)cc(C)c1O

>  <score_type>  (44) 
oracle

>  <origin>  (44) 
adg

>  <m_score__min__energy>  (44) 
-11.529999999999999

>  <m_primary>  (44) 
energy

$$$$
44:0
     RDKit          3D

 63 66  0  0  0  0  0  0  0  0999 V2000
   59.3390   33.0020   52.2060 C   0  0  0  0  0  0  0  0  0  0  0  0
   59.4990   31.9090   51.1920 C   0  0  0  0  0  0  0  0  0  0  0  0
   58.3920   31.1490   50.7890 C   0  0  0  0  0  0  0  0  0  0  0  0
   58.5360   30.1530   49.8200 C   0  0  0  0  0  0  0  0  0  0  0  0
   59.7860   29.9110   49.2350 C   0  0  0  0  0  0  0  0  0  0  0  0
   59.9780   28.6240   48.0470 S   0  0  0  0  0  0  0  0  0  0  0  0
   60.7900   27.5050   48.6400 O   0  0  0  0  0  0  0  0  0  0  0  0
   60.6980   29.1370   46.8310 O   0  0  0  0  0  0  0  0  0  0  0  0
   58.4260   28.0160   47.5800 N   0  0  0  0  0  0  0  0  0  0  0  0
   58.2920   26.9220   46.6690 C   0  0  0  0  0  0  0  0  0  0  0  0
   58.8030   25.6720   47.0390 C   0  0  0  0  0  0  0  0  0  0  0  0
   58.7160   24.5890   46.1660 C   0  0  0  0  0  0  0  0  0  0  0  0
   58.1080   24.7440   44.9180 C   0  0  0  0  0  0  0  0  0  0  0  0
   57.5840   25.9840   44.5440 C   0  0  0  0  0  0  0  0  0  0  0  0
   57.6440   27.0760   45.4220 C   0  0  0  0  0  0  0  0  0  0  0  0
   57.0160   28.3500   45.0130 C   0  0  0  0  0  0  0  0  0  0  0  0
   57.6980   29.4160   44.5650 C   0  0  0  0  0  0  0  0  0  0  0  0
   57.7440   30.7220   45.2520 C   0  0  0  0  0  0  0  0  0  0  0  0
   56.9800   31.6460   44.8630 O   0  0  0  0  0  0  0  0  0  0  0  0
   58.5640   30.9090   46.4130 N   0  0  0  0  0  0  0  0  0  0  0  0
   59.2620   32.1240   46.7410 C   0  0  0  0  0  0  0  0  0  0  0  0
   58.5870   33.3440   46.9270 C   0  0  0  0  0  0  0  0  0  0  0  0
   59.3050   34.5150   47.1890 C   0  0  0  0  0  0  0  0  0  0  0  0
   60.6990   34.4870   47.2480 C   0  0  0  0  0  0  0  0  0  0  0  0
   61.3860   33.2840   47.0430 C   0  0  0  0  0  0  0  0  0  0  0  0
   63.1480   33.2490   47.0910 S   0  0  0  0  0  0  0  0  0  0  0  0
   63.6250   31.8670   46.7410 O   0  0  0  0  0  0  0  0  0  0  0  0
   63.6900   34.2030   46.0620 O   0  0  0  0  0  0  0  0  0  0  0  0
   63.7640   33.6840   48.6660 N   0  0  0  0  0  0  0  0  0  0  0  0
   64.5670   32.5890   49.2310 C   0  0  0  0  0  0  0  0  0  0  0  0
   65.1500   33.0250   50.5920 C   0  0  0  0  0  0  0  0  0  0  0  0
   64.6040   34.2540   51.0450 O   0  0  0  0  0  0  0  0  0  0  0  0
   63.1910   34.1910   51.0230 C   0  0  0  0  0  0  0  0  0  0  0  0
   62.6640   34.0300   49.5820 C   0  0  0  0  0  0  0  0  0  0  0  0
   60.6640   32.1070   46.7940 C   0  0  0  0  0  0  0  0  0  0  0  0
   60.8920   30.6790   49.6260 C   0  0  0  0  0  0  0  0  0  0  0  0
   62.1140   30.4550   49.0810 F   0  0  0  0  0  0  0  0  0  0  0  0
   60.7460   31.6800   50.5930 C   0  0  0  0  0  0  0  0  0  0  0  0
   59.4015   32.5753   53.2180 H   0  0  0  0  0  0  0  0  0  0  0  0
   60.1378   33.7463   52.0719 H   0  0  0  0  0  0  0  0  0  0  0  0
   58.3604   33.4861   52.0719 H   0  0  0  0  0  0  0  0  0  0  0  0
   57.4056   31.3378   51.2378 H   0  0  0  0  0  0  0  0  0  0  0  0
   57.6640   29.5560   49.5149 H   0  0  0  0  0  0  0  0  0  0  0  0
   59.2757   25.5440   48.0240 H   0  0  0  0  0  0  0  0  0  0  0  0
   59.1264   23.6117   46.4600 H   0  0  0  0  0  0  0  0  0  0  0  0
   58.0417   23.8890   44.2291 H   0  0  0  0  0  0  0  0  0  0  0  0
   57.1209   26.1047   43.5535 H   0  0  0  0  0  0  0  0  0  0  0  0
   55.9209   28.4297   45.0799 H   0  0  0  0  0  0  0  0  0  0  0  0
   58.2591   29.3095   43.6249 H   0  0  0  0  0  0  0  0  0  0  0  0
   58.7170   30.0780   47.0290 H   0  0  0  0  0  0  0  0  0  0  0  0
   57.4892   33.3771   46.8661 H   0  0  0  0  0  0  0  0  0  0  0  0
   58.7689   35.4620   47.3492 H   0  0  0  0  0  0  0  0  0  0  0  0
   61.2588   35.4108   47.4558 H   0  0  0  0  0  0  0  0  0  0  0  0
   63.9305   31.7030   49.3721 H   0  0  0  0  0  0  0  0  0  0  0  0
   65.3891   32.3451   48.5421 H   0  0  0  0  0  0  0  0  0  0  0  0
   64.9310   32.2453   51.3364 H   0  0  0  0  0  0  0  0  0  0  0  0
   66.2333   33.1661   50.4634 H   0  0  0  0  0  0  0  0  0  0  0  0
   62.8604   33.3314   51.6245 H   0  0  0  0  0  0  0  0  0  0  0  0
   62.7932   35.1291   51.4375 H   0  0  0  0  0  0  0  0  0  0  0  0
   61.9093   33.2300   49.5599 H   0  0  0  0  0  0  0  0  0  0  0  0
   62.2175   34.9817   49.2582 H   0  0  0  0  0  0  0  0  0  0  0  0
   61.2029   31.1607   46.6387 H   0  0  0  0  0  0  0  0  0  0  0  0
   61.6136   32.2901   50.8846 H   0  0  0  0  0  0  0  0  0  0  0  0
  1  2  1  0
  2  3  2  0
  3  4  1  0
  4  5  2  0
  5  6  1  0
  6  7  2  0
  6  8  2  0
  6  9  1  0
  9 10  1  0
 10 11  2  0
 11 12  1  0
 12 13  2  0
 13 14  1  0
 14 15  2  0
 15 16  1  0
 16 17  2  3
 17 18  1  0
 18 19  2  0
 18 20  1  0
 20 21  1  0
 21 22  2  0
 22 23  1  0
 23 24  2  0
 24 25  1  0
 25 26  1  0
 26 27  2  0
 26 28  2  0
 26 29  1  0
 29 30  1  0
 30 31  1  0
 31 32  1  0
 32 33  1  0
 33 34  1  0
 25 35  2  0
  5 36  1  0
 36 37  1  0
 36 38  2  0
 38  2  1  0
 15 10  1  0
 35 21  1  0
 34 29  1  0
  1 39  1  0
  1 40  1  0
  1 41  1  0
  3 42  1  0
  4 43  1  0
 11 44  1  0
 12 45  1  0
 13 46  1  0
 14 47  1  0
 16 48  1  0
 17 49  1  0
 20 50  1  0
 22 51  1  0
 23 52  1  0
 24 53  1  0
 30 54  1  0
 30 55  1  0
 31 56  1  0
 31 57  1  0
 33 58  1  0
 33 59  1  0
 34 60  1  0
 34 61  1  0
 35 62  1  0
 38 63  1  0
M  CHG  1   9  -1
M  END
>  <UniqueID>  (45) 
40

>  <SMILES>  (45) 
Cc1ccc(S(=O)(=O)[N-]c2ccccc2C=CC(=O)Nc2cccc(S(=O)(=O)N3CCOCC3)c2)c(F)c1

>  <Energy>  (45) 
89.77949670758102

>  <Genealogy>  (45) 
Cc1ccc(S(=O)(=O)[N-]c2ccccc2C=CC(=O)Nc2cccc(S(=O)(=O)N3CCOCC3)c2)c(F)c1 (protonated)
Cc1ccc(S(=O)(=O)[N-]c2ccccc2C=CC(=O)Nc2cccc(S(=O)(=O)N3CCOCC3)c2)c(F)c1 (3D coordinates assigned)
Cc1ccc(S(=O)(=O)[N-]c2ccccc2C=CC(=O)Nc2cccc(S(=O)(=O)N3CCOCC3)c2)c(F)c1 (nonaromatic ring conformer: 89.77949670758102 kcal/mol)

>  <smiles>  (45) 
Cc1ccc(S(=O)(=O)Nc2ccccc2C=CC(=O)Nc2cccc(S(=O)(=O)N3CCOCC3)c2)c(F)c1

>  <score_type>  (45) 
oracle

>  <origin>  (45) 
adg

>  <m_score__min__energy>  (45) 
-13.49

>  <m_primary>  (45) 
energy

$$$$
45:0
     RDKit          3D

 42 44  0  0  0  0  0  0  0  0999 V2000
   59.4570   34.7670   46.0590 C   0  0  0  0  0  0  0  0  0  0  0  0
   60.0720   33.5040   46.4600 N   0  0  0  0  0  0  0  0  0  0  0  0
   61.3270   33.3040   46.9340 C   0  0  0  0  0  0  0  0  0  0  0  0
   62.1480   34.2390   47.1490 O   0  0  0  0  0  0  0  0  0  0  0  0
   61.6160   31.9950   47.1360 N   0  0  0  0  0  0  0  0  0  0  0  0
   62.8880   31.4110   47.5560 C   0  0  0  0  0  0  0  0  0  0  0  0
   60.5040   31.3480   46.7310 C   0  0  0  0  0  0  0  0  0  0  0  0
   60.2690   29.9760   46.6640 C   0  0  0  0  0  0  0  0  0  0  0  0
   59.0230   29.5430   46.1680 C   0  0  0  0  0  0  0  0  0  0  0  0
   58.7580   28.1370   46.0920 N   0  0  0  0  0  0  0  0  0  0  0  0
   58.9790   27.4350   44.8280 C   0  0  0  0  0  0  0  0  0  0  0  0
   58.1280   26.1620   44.7920 C   0  0  0  0  0  0  0  0  0  0  0  0
   58.3360   25.3840   45.9560 O   0  0  0  0  0  0  0  0  0  0  0  0
   57.8710   26.0880   47.0930 C   0  0  0  0  0  0  0  0  0  0  0  0
   58.6990   27.3540   47.3260 C   0  0  0  0  0  0  0  0  0  0  0  0
   58.0480   30.4860   45.7420 C   0  0  0  0  0  0  0  0  0  0  0  0
   56.7960   30.0050   45.2330 N   0  0  0  0  0  0  0  0  0  0  0  0
   56.4050   29.8070   43.5560 S   0  0  0  0  0  0  0  0  0  0  0  0
   57.0070   31.2160   42.6560 C   0  0  0  0  0  0  0  0  0  0  0  0
   57.0610   28.5650   43.0220 O   0  0  0  0  0  0  0  0  0  0  0  0
   54.9140   29.7150   43.3870 O   0  0  0  0  0  0  0  0  0  0  0  0
   58.3300   31.8720   45.8170 C   0  0  0  0  0  0  0  0  0  0  0  0
   59.5700   32.2600   46.3230 C   0  0  0  0  0  0  0  0  0  0  0  0
   59.1780   35.3399   46.9556 H   0  0  0  0  0  0  0  0  0  0  0  0
   60.1725   35.3492   45.4597 H   0  0  0  0  0  0  0  0  0  0  0  0
   58.5575   34.5628   45.4597 H   0  0  0  0  0  0  0  0  0  0  0  0
   62.9363   31.3888   48.6547 H   0  0  0  0  0  0  0  0  0  0  0  0
   62.9679   30.3861   47.1647 H   0  0  0  0  0  0  0  0  0  0  0  0
   63.7174   32.0185   47.1647 H   0  0  0  0  0  0  0  0  0  0  0  0
   61.0324   29.2534   46.9882 H   0  0  0  0  0  0  0  0  0  0  0  0
   58.6943   28.0895   43.9910 H   0  0  0  0  0  0  0  0  0  0  0  0
   60.0421   27.1665   44.7401 H   0  0  0  0  0  0  0  0  0  0  0  0
   57.0656   26.4403   44.7296 H   0  0  0  0  0  0  0  0  0  0  0  0
   58.4209   25.5674   43.9141 H   0  0  0  0  0  0  0  0  0  0  0  0
   56.8189   26.3690   46.9376 H   0  0  0  0  0  0  0  0  0  0  0  0
   57.9678   25.4368   47.9742 H   0  0  0  0  0  0  0  0  0  0  0  0
   58.2317   27.9560   48.1193 H   0  0  0  0  0  0  0  0  0  0  0  0
   59.7184   27.0726   47.6286 H   0  0  0  0  0  0  0  0  0  0  0  0
   57.3376   31.9898   43.3645 H   0  0  0  0  0  0  0  0  0  0  0  0
   57.8540   30.9123   42.0232 H   0  0  0  0  0  0  0  0  0  0  0  0
   56.2021   31.6181   42.0232 H   0  0  0  0  0  0  0  0  0  0  0  0
   57.5936   32.6192   45.4863 H   0  0  0  0  0  0  0  0  0  0  0  0
  1  2  1  0
  2  3  1  0
  3  4  2  0
  3  5  1  0
  5  6  1  0
  5  7  1  0
  7  8  2  0
  8  9  1  0
  9 10  1  0
 10 11  1  0
 11 12  1  0
 12 13  1  0
 13 14  1  0
 14 15  1  0
  9 16  2  0
 16 17  1  0
 17 18  1  0
 18 19  1  0
 18 20  2  0
 18 21  2  0
 16 22  1  0
 22 23  2  0
 23  2  1  0
 23  7  1  0
 15 10  1  0
  1 24  1  0
  1 25  1  0
  1 26  1  0
  6 27  1  0
  6 28  1  0
  6 29  1  0
  8 30  1  0
 11 31  1  0
 11 32  1  0
 12 33  1  0
 12 34  1  0
 14 35  1  0
 14 36  1  0
 15 37  1  0
 15 38  1  0
 19 39  1  0
 19 40  1  0
 19 41  1  0
 22 42  1  0
M  CHG  1  17  -1
M  END
>  <UniqueID>  (46) 
41

>  <SMILES>  (46) 
Cn1c(=O)n(C)c2cc(N3CCOCC3)c([N-]S(C)(=O)=O)cc21

>  <Energy>  (46) 
88.40983027350808

>  <Genealogy>  (46) 
Cn1c(=O)n(C)c2cc(N3CCOCC3)c([N-]S(C)(=O)=O)cc21 (protonated)
Cn1c(=O)n(C)c2cc(N3CCOCC3)c([N-]S(C)(=O)=O)cc21 (3D coordinates assigned)
Cn1c(=O)n(C)c2cc(N3CCOCC3)c([N-]S(C)(=O)=O)cc21 (nonaromatic ring conformer: 88.40983027350808 kcal/mol)

>  <smiles>  (46) 
Cn1c(=O)n(C)c2cc(N3CCOCC3)c(NS(C)(=O)=O)cc21

>  <score_type>  (46) 
oracle

>  <origin>  (46) 
adg

>  <m_score__min__energy>  (46) 
-8.1500000000000004

>  <m_primary>  (46) 
energy

$$$$
46:0
     RDKit          3D

 61 64  0  0  0  0  0  0  0  0999 V2000
   63.3970   33.8070   46.1420 C   0  0  0  0  0  0  0  0  0  0  0  0
   62.9080   33.6670   47.5520 C   0  0  0  0  0  0  0  0  0  0  0  0
   63.8110   33.4320   48.6020 C   0  0  0  0  0  0  0  0  0  0  0  0
   63.3530   33.3250   49.9180 C   0  0  0  0  0  0  0  0  0  0  0  0
   61.9860   33.4750   50.2040 C   0  0  0  0  0  0  0  0  0  0  0  0
   61.4790   33.3310   51.6160 C   0  0  0  0  0  0  0  0  0  0  0  0
   60.8530   32.0090   51.8180 N   0  0  0  0  0  0  0  0  0  0  0  0
   61.7590   30.8940   51.4380 C   0  0  0  0  0  0  0  0  0  0  0  0
   61.5460   30.3990   49.9980 C   0  0  0  0  0  0  0  0  0  0  0  0
   60.1290   30.1150   49.7440 N   0  0  0  0  0  0  0  0  0  0  0  0
   59.7310   29.5190   48.4990 C   0  0  0  0  0  0  0  0  0  0  0  0
   58.6280   28.6550   48.4460 C   0  0  0  0  0  0  0  0  0  0  0  0
   58.2270   28.0920   47.2310 C   0  0  0  0  0  0  0  0  0  0  0  0
   58.9350   28.3740   46.0460 C   0  0  0  0  0  0  0  0  0  0  0  0
   58.5010   27.7940   44.7550 C   0  0  0  0  0  0  0  0  0  0  0  0
   58.6620   26.5630   44.5310 O   0  0  0  0  0  0  0  0  0  0  0  0
   57.9010   28.6280   43.7600 N   0  0  0  0  0  0  0  0  0  0  0  0
   56.7070   29.8310   44.1200 S   0  0  0  0  0  0  0  0  0  0  0  0
   55.8240   29.3340   45.2320 O   0  0  0  0  0  0  0  0  0  0  0  0
   55.8590   30.0640   42.8970 O   0  0  0  0  0  0  0  0  0  0  0  0
   57.4740   31.3330   44.6330 C   0  0  0  0  0  0  0  0  0  0  0  0
   57.7830   31.5320   45.9830 C   0  0  0  0  0  0  0  0  0  0  0  0
   58.4020   32.7150   46.3960 C   0  0  0  0  0  0  0  0  0  0  0  0
   58.7090   33.7180   45.4620 C   0  0  0  0  0  0  0  0  0  0  0  0
   59.4160   34.9650   45.8990 C   0  0  0  0  0  0  0  0  0  0  0  0
   58.4160   33.5070   44.1070 C   0  0  0  0  0  0  0  0  0  0  0  0
   57.7970   32.3230   43.6960 C   0  0  0  0  0  0  0  0  0  0  0  0
   60.0510   29.2270   46.1080 C   0  0  0  0  0  0  0  0  0  0  0  0
   60.4430   29.7960   47.3220 C   0  0  0  0  0  0  0  0  0  0  0  0
   59.1260   30.5580   50.7150 C   0  0  0  0  0  0  0  0  0  0  0  0
   59.5020   31.9600   51.1980 C   0  0  0  0  0  0  0  0  0  0  0  0
   61.0880   33.7220   49.1550 C   0  0  0  0  0  0  0  0  0  0  0  0
   61.5470   33.8280   47.8400 C   0  0  0  0  0  0  0  0  0  0  0  0
   64.4545   34.1098   46.1490 H   0  0  0  0  0  0  0  0  0  0  0  0
   63.2949   32.8435   45.6211 H   0  0  0  0  0  0  0  0  0  0  0  0
   62.8005   34.5704   45.6211 H   0  0  0  0  0  0  0  0  0  0  0  0
   64.8851   33.3316   48.3871 H   0  0  0  0  0  0  0  0  0  0  0  0
   64.0648   33.1228   50.7319 H   0  0  0  0  0  0  0  0  0  0  0  0
   62.3217   33.4411   52.3144 H   0  0  0  0  0  0  0  0  0  0  0  0
   60.7240   34.1095   51.7998 H   0  0  0  0  0  0  0  0  0  0  0  0
   62.7985   31.2397   51.5379 H   0  0  0  0  0  0  0  0  0  0  0  0
   61.5355   30.0507   52.1080 H   0  0  0  0  0  0  0  0  0  0  0  0
   61.8889   31.1740   49.2967 H   0  0  0  0  0  0  0  0  0  0  0  0
   62.1201   29.4712   49.8577 H   0  0  0  0  0  0  0  0  0  0  0  0
   58.0745   28.4186   49.3667 H   0  0  0  0  0  0  0  0  0  0  0  0
   57.3532   27.4246   47.1999 H   0  0  0  0  0  0  0  0  0  0  0  0
   57.5379   30.7547   46.7218 H   0  0  0  0  0  0  0  0  0  0  0  0
   58.6499   32.8613   47.4577 H   0  0  0  0  0  0  0  0  0  0  0  0
   59.4398   35.0070   46.9979 H   0  0  0  0  0  0  0  0  0  0  0  0
   60.4449   34.9587   45.5099 H   0  0  0  0  0  0  0  0  0  0  0  0
   58.8823   35.8446   45.5099 H   0  0  0  0  0  0  0  0  0  0  0  0
   58.6743   34.2764   43.3645 H   0  0  0  0  0  0  0  0  0  0  0  0
   57.5626   32.1680   42.6325 H   0  0  0  0  0  0  0  0  0  0  0  0
   60.6201   29.4481   45.1930 H   0  0  0  0  0  0  0  0  0  0  0  0
   61.3152   30.4654   47.3555 H   0  0  0  0  0  0  0  0  0  0  0  0
   58.1347   30.5833   50.2388 H   0  0  0  0  0  0  0  0  0  0  0  0
   59.0938   29.8626   51.5667 H   0  0  0  0  0  0  0  0  0  0  0  0
   59.4842   32.6454   50.3378 H   0  0  0  0  0  0  0  0  0  0  0  0
   58.7722   32.2541   51.9667 H   0  0  0  0  0  0  0  0  0  0  0  0
   60.0148   33.8330   49.3695 H   0  0  0  0  0  0  0  0  0  0  0  0
   60.8364   34.0388   47.0272 H   0  0  0  0  0  0  0  0  0  0  0  0
  1  2  1  0
  2  3  2  0
  3  4  1  0
  4  5  2  0
  5  6  1  0
  6  7  1  0
  7  8  1  0
  8  9  1  0
  9 10  1  0
 10 11  1  0
 11 12  2  0
 12 13  1  0
 13 14  2  0
 14 15  1  0
 15 16  2  0
 15 17  1  0
 17 18  1  0
 18 19  2  0
 18 20  2  0
 18 21  1  0
 21 22  2  0
 22 23  1  0
 23 24  2  0
 24 25  1  0
 24 26  1  0
 26 27  2  0
 14 28  1  0
 28 29  2  0
 10 30  1  0
 30 31  1  0
  5 32  1  0
 32 33  2  0
 33  2  1  0
 31  7  1  0
 29 11  1  0
 27 21  1  0
  1 34  1  0
  1 35  1  0
  1 36  1  0
  3 37  1  0
  4 38  1  0
  6 39  1  0
  6 40  1  0
  8 41  1  0
  8 42  1  0
  9 43  1  0
  9 44  1  0
 12 45  1  0
 13 46  1  0
 22 47  1  0
 23 48  1  0
 25 49  1  0
 25 50  1  0
 25 51  1  0
 26 52  1  0
 27 53  1  0
 28 54  1  0
 29 55  1  0
 30 56  1  0
 30 57  1  0
 31 58  1  0
 31 59  1  0
 32 60  1  0
 33 61  1  0
M  CHG  1  17  -1
M  END
>  <UniqueID>  (47) 
42

>  <SMILES>  (47) 
Cc1ccc(CN2CCN(c3ccc(C(=O)[N-]S(=O)(=O)c4ccc(C)cc4)cc3)CC2)cc1

>  <Energy>  (47) 
78.82140468305401

>  <Genealogy>  (47) 
Cc1ccc(CN2CCN(c3ccc(C(=O)[N-]S(=O)(=O)c4ccc(C)cc4)cc3)CC2)cc1 (protonated)
Cc1ccc(CN2CCN(c3ccc(C(=O)[N-]S(=O)(=O)c4ccc(C)cc4)cc3)CC2)cc1 (3D coordinates assigned)
Cc1ccc(CN2CCN(c3ccc(C(=O)[N-]S(=O)(=O)c4ccc(C)cc4)cc3)CC2)cc1 (nonaromatic ring conformer: 78.82140468305401 kcal/mol)

>  <smiles>  (47) 
Cc1ccc(CN2CCN(c3ccc(C(=O)NS(=O)(=O)c4ccc(C)cc4)cc3)CC2)cc1

>  <score_type>  (47) 
oracle

>  <origin>  (47) 
adg

>  <m_score__min__energy>  (47) 
-10.550000000000001

>  <m_primary>  (47) 
energy

$$$$
47:0
     RDKit          3D

 32 34  0  0  0  0  0  0  0  0999 V2000
   55.5190   29.0870   44.8820 N   0  0  0  0  0  0  0  0  0  0  0  0
   56.7500   29.4020   45.1560 C   0  0  0  0  0  0  0  0  0  0  0  0
   57.1630   30.7000   45.1730 N   0  0  0  0  0  0  0  0  0  0  0  0
   58.4460   30.9710   45.4600 C   0  0  0  0  0  0  0  0  0  0  0  0
   58.9350   32.3080   45.4940 N   0  0  0  0  0  0  0  0  0  0  0  0
   59.8340   32.7330   46.5340 C   0  0  0  0  0  0  0  0  0  0  0  0
   60.4030   34.0860   46.2680 C   0  0  0  0  0  0  0  0  0  0  0  0
   59.3980   35.1110   45.8230 C   0  0  0  0  0  0  0  0  0  0  0  0
   58.1530   34.5270   45.2110 C   0  0  0  0  0  0  0  0  0  0  0  0
   58.5350   33.2540   44.4910 C   0  0  0  0  0  0  0  0  0  0  0  0
   59.2700   29.9500   45.7180 N   0  0  0  0  0  0  0  0  0  0  0  0
   58.9140   28.6520   45.7140 C   0  0  0  0  0  0  0  0  0  0  0  0
   59.8650   27.6910   45.9990 C   0  0  0  0  0  0  0  0  0  0  0  0
   59.4660   26.3700   45.9850 C   0  0  0  0  0  0  0  0  0  0  0  0
   58.1450   26.0810   45.6900 C   0  0  0  0  0  0  0  0  0  0  0  0
   57.2430   27.0680   45.4160 N   0  0  0  0  0  0  0  0  0  0  0  0
   57.6000   28.3530   45.4210 C   0  0  0  0  0  0  0  0  0  0  0  0
   55.1520   28.1100   44.8790 H   0  0  0  0  0  0  0  0  0  0  0  0
   56.4720   31.4670   44.9620 H   0  0  0  0  0  0  0  0  0  0  0  0
   59.2856   32.7603   47.4872 H   0  0  0  0  0  0  0  0  0  0  0  0
   60.6683   32.0172   46.5729 H   0  0  0  0  0  0  0  0  0  0  0  0
   60.8751   34.4476   47.1934 H   0  0  0  0  0  0  0  0  0  0  0  0
   61.1152   33.9670   45.4382 H   0  0  0  0  0  0  0  0  0  0  0  0
   59.1046   35.7094   46.6981 H   0  0  0  0  0  0  0  0  0  0  0  0
   59.8839   35.7120   45.0402 H   0  0  0  0  0  0  0  0  0  0  0  0
   57.4197   34.3033   45.9998 H   0  0  0  0  0  0  0  0  0  0  0  0
   57.7035   35.2424   44.5067 H   0  0  0  0  0  0  0  0  0  0  0  0
   57.6737   32.8657   43.9276 H   0  0  0  0  0  0  0  0  0  0  0  0
   59.3511   33.4370   43.7765 H   0  0  0  0  0  0  0  0  0  0  0  0
   60.9041   27.9692   46.2291 H   0  0  0  0  0  0  0  0  0  0  0  0
   60.1823   25.5643   46.2035 H   0  0  0  0  0  0  0  0  0  0  0  0
   57.8145   25.0319   45.6760 H   0  0  0  0  0  0  0  0  0  0  0  0
  1  2  2  3
  2  3  1  0
  3  4  1  0
  4  5  1  0
  5  6  1  0
  6  7  1  0
  7  8  1  0
  8  9  1  0
  9 10  1  0
  4 11  2  0
 11 12  1  0
 12 13  2  0
 13 14  1  0
 14 15  2  0
 15 16  1  0
 16 17  2  0
 17  2  1  0
 10  5  1  0
 17 12  1  0
  1 18  1  0
  3 19  1  0
  6 20  1  0
  6 21  1  0
  7 22  1  0
  7 23  1  0
  8 24  1  0
  8 25  1  0
  9 26  1  0
  9 27  1  0
 10 28  1  0
 10 29  1  0
 13 30  1  0
 14 31  1  0
 15 32  1  0
M  END
>  <smiles>  (48) 
N=c1[nH]c(N2CCCCC2)nc2cccnc12

>  <score_type>  (48) 
oracle

>  <origin>  (48) 
adg

>  <m_score__min__energy>  (48) 
-6.29

>  <m_primary>  (48) 
energy

$$$$
48:0
     RDKit          3D

 40 42  0  0  0  0  0  0  0  0999 V2000
   55.2610   30.0280   44.7030 O   0  0  0  0  0  0  0  0  0  0  0  0
   56.4780   29.7390   44.8520 C   0  0  0  0  0  0  0  0  0  0  0  0
   56.9020   28.3940   44.5800 N   0  0  0  0  0  0  0  0  0  0  0  0
   57.3830   27.5510   45.4490 C   0  0  0  0  0  0  0  0  0  0  0  0
   58.7200   27.5110   45.7250 N   0  0  0  0  0  0  0  0  0  0  0  0
   59.2420   26.6500   46.6380 C   0  0  0  0  0  0  0  0  0  0  0  0
   58.4050   25.7740   47.3320 C   0  0  0  0  0  0  0  0  0  0  0  0
   57.0330   25.8000   47.0800 C   0  0  0  0  0  0  0  0  0  0  0  0
   56.5130   26.6930   46.1380 C   0  0  0  0  0  0  0  0  0  0  0  0
   55.1440   26.7190   45.8910 O   0  0  0  0  0  0  0  0  0  0  0  0
   57.4310   30.8050   45.2440 C   0  0  0  0  0  0  0  0  0  0  0  0
   58.5780   30.5010   45.9980 C   0  0  0  0  0  0  0  0  0  0  0  0
   59.4710   31.5120   46.3650 C   0  0  0  0  0  0  0  0  0  0  0  0
   59.2350   32.8370   45.9780 C   0  0  0  0  0  0  0  0  0  0  0  0
   60.3570   34.1040   46.4620 S   0  0  0  0  0  0  0  0  0  0  0  0
   61.7000   33.8210   45.8470 O   0  0  0  0  0  0  0  0  0  0  0  0
   59.8620   35.4390   45.9770 O   0  0  0  0  0  0  0  0  0  0  0  0
   60.4960   34.1330   48.2040 N   0  0  0  0  0  0  0  0  0  0  0  0
   61.7570   33.4970   48.6520 C   0  0  0  0  0  0  0  0  0  0  0  0
   61.5190   32.1160   49.2870 C   0  0  0  0  0  0  0  0  0  0  0  0
   60.6390   32.1610   50.4010 O   0  0  0  0  0  0  0  0  0  0  0  0
   59.5840   33.1050   50.2620 C   0  0  0  0  0  0  0  0  0  0  0  0
   59.2970   33.5280   48.8120 C   0  0  0  0  0  0  0  0  0  0  0  0
   58.1080   33.1410   45.2030 C   0  0  0  0  0  0  0  0  0  0  0  0
   57.2140   32.1320   44.8340 C   0  0  0  0  0  0  0  0  0  0  0  0
   60.3250   26.6433   46.8304 H   0  0  0  0  0  0  0  0  0  0  0  0
   58.8223   25.0717   48.0687 H   0  0  0  0  0  0  0  0  0  0  0  0
   56.3608   25.1185   47.6220 H   0  0  0  0  0  0  0  0  0  0  0  0
   58.7739   29.4618   46.3009 H   0  0  0  0  0  0  0  0  0  0  0  0
   60.3627   31.2657   46.9602 H   0  0  0  0  0  0  0  0  0  0  0  0
   62.4213   33.3776   47.7834 H   0  0  0  0  0  0  0  0  0  0  0  0
   62.2091   34.1462   49.4163 H   0  0  0  0  0  0  0  0  0  0  0  0
   61.0867   31.4500   48.5257 H   0  0  0  0  0  0  0  0  0  0  0  0
   62.4904   31.7492   49.6500 H   0  0  0  0  0  0  0  0  0  0  0  0
   58.6679   32.6609   50.6785 H   0  0  0  0  0  0  0  0  0  0  0  0
   59.9022   34.0122   50.7965 H   0  0  0  0  0  0  0  0  0  0  0  0
   59.0023   32.6434   48.2284 H   0  0  0  0  0  0  0  0  0  0  0  0
   58.4850   34.2700   48.8119 H   0  0  0  0  0  0  0  0  0  0  0  0
   57.9261   34.1778   44.8837 H   0  0  0  0  0  0  0  0  0  0  0  0
   56.3355   32.3777   44.2192 H   0  0  0  0  0  0  0  0  0  0  0  0
  1  2  2  0
  2  3  1  0
  3  4  2  3
  4  5  1  0
  5  6  1  0
  6  7  2  0
  7  8  1  0
  8  9  2  0
  9 10  1  0
  2 11  1  0
 11 12  2  0
 12 13  1  0
 13 14  2  0
 14 15  1  0
 15 16  2  0
 15 17  2  0
 15 18  1  0
 18 19  1  0
 19 20  1  0
 20 21  1  0
 21 22  1  0
 22 23  1  0
 14 24  1  0
 24 25  2  0
  9  4  1  0
 25 11  1  0
 23 18  1  0
  6 26  1  0
  7 27  1  0
  8 28  1  0
 12 29  1  0
 13 30  1  0
 19 31  1  0
 19 32  1  0
 20 33  1  0
 20 34  1  0
 22 35  1  0
 22 36  1  0
 23 37  1  0
 23 38  1  0
 24 39  1  0
 25 40  1  0
M  CHG  2   5  -1  10  -1
M  END
>  <UniqueID>  (49) 
43

>  <SMILES>  (49) 
O=C(N=c1[n-]cccc1[O-])c1ccc(S(=O)(=O)N2CCOCC2)cc1

>  <Energy>  (49) 
62.78110470067429

>  <Genealogy>  (49) 
O=C(N=c1[n-]cccc1[O-])c1ccc(S(=O)(=O)N2CCOCC2)cc1 (protonated)
O=C(N=c1[n-]cccc1[O-])c1ccc(S(=O)(=O)N2CCOCC2)cc1 (3D coordinates assigned)
O=C(N=c1[n-]cccc1[O-])c1ccc(S(=O)(=O)N2CCOCC2)cc1 (nonaromatic ring conformer: 62.78110470067429 kcal/mol)

>  <smiles>  (49) 
O=C(N=c1[nH]cccc1O)c1ccc(S(=O)(=O)N2CCOCC2)cc1

>  <score_type>  (49) 
oracle

>  <origin>  (49) 
adg

>  <m_score__min__energy>  (49) 
-14.02

>  <m_primary>  (49) 
energy

$$$$
49:0
     RDKit          3D

 47 50  0  0  0  0  0  0  0  0999 V2000
   60.6381   27.8556   47.1735 H   0  0  0  0  0  0  0  0  0  0  0  0
   59.9420   27.3640   46.4780 C   0  0  0  0  0  0  0  0  0  0  0  0
   59.9311   26.2673   46.3942 H   0  0  0  0  0  0  0  0  0  0  0  0
   59.1040   28.1040   45.7300 C   0  0  0  0  0  0  0  0  0  0  0  0
   58.1680   27.6090   44.8060 C   0  0  0  0  0  0  0  0  0  0  0  0
   57.7090   26.3610   44.5810 C   0  0  0  0  0  0  0  0  0  0  0  0
   57.7960   25.9762   43.5542 H   0  0  0  0  0  0  0  0  0  0  0  0
   57.1020   25.4640   45.5800 C   0  0  0  0  0  0  0  0  0  0  0  0
   55.9140   25.6740   46.2420 C   0  0  0  0  0  0  0  0  0  0  0  0
   55.0180   26.7060   45.9910 O   0  0  0  0  0  0  0  0  0  0  0  0
   55.7280   24.7370   47.1920 N   0  0  0  0  0  0  0  0  0  0  0  0
   56.8450   23.9840   47.0900 C   0  0  0  0  0  0  0  0  0  0  0  0
   57.0700   22.9900   47.8290 O   0  0  0  0  0  0  0  0  0  0  0  0
   57.7040   24.4000   46.1390 N   0  0  0  0  0  0  0  0  0  0  0  0
   58.6400   24.0030   45.9130 H   0  0  0  0  0  0  0  0  0  0  0  0
   57.7510   28.6950   44.0620 C   0  0  0  0  0  0  0  0  0  0  0  0
   57.0427   28.6777   43.2206 H   0  0  0  0  0  0  0  0  0  0  0  0
   58.3890   29.8040   44.5720 C   0  0  0  0  0  0  0  0  0  0  0  0
   58.2300   31.1840   44.0060 C   0  0  0  0  0  0  0  0  0  0  0  0
   58.1463   31.9101   44.8281 H   0  0  0  0  0  0  0  0  0  0  0  0
   59.1058   31.4298   43.3874 H   0  0  0  0  0  0  0  0  0  0  0  0
   57.3213   31.2242   43.3874 H   0  0  0  0  0  0  0  0  0  0  0  0
   59.1750   29.4630   45.6260 N   0  0  0  0  0  0  0  0  0  0  0  0
   60.0650   30.3760   46.3740 C   0  0  0  0  0  0  0  0  0  0  0  0
   61.0474   29.8949   46.4900 H   0  0  0  0  0  0  0  0  0  0  0  0
   60.1393   31.3133   45.8031 H   0  0  0  0  0  0  0  0  0  0  0  0
   59.5240   30.7150   47.7490 C   0  0  0  0  0  0  0  0  0  0  0  0
   59.6150   29.7500   48.7690 C   0  0  0  0  0  0  0  0  0  0  0  0
   60.0455   28.7625   48.5466 H   0  0  0  0  0  0  0  0  0  0  0  0
   59.1650   30.0320   50.0600 C   0  0  0  0  0  0  0  0  0  0  0  0
   59.2460   29.2695   50.8487 H   0  0  0  0  0  0  0  0  0  0  0  0
   58.6130   31.2790   50.3510 C   0  0  0  0  0  0  0  0  0  0  0  0
   58.2677   31.5022   51.3713 H   0  0  0  0  0  0  0  0  0  0  0  0
   58.4980   32.2440   49.3500 C   0  0  0  0  0  0  0  0  0  0  0  0
   58.0630   33.2262   49.5868 H   0  0  0  0  0  0  0  0  0  0  0  0
   58.9330   31.9720   48.0420 C   0  0  0  0  0  0  0  0  0  0  0  0
   58.7700   33.0230   47.0180 C   0  0  0  0  0  0  0  0  0  0  0  0
   57.5330   33.1930   46.3770 C   0  0  0  0  0  0  0  0  0  0  0  0
   56.6773   32.5627   46.6607 H   0  0  0  0  0  0  0  0  0  0  0  0
   57.3850   34.1610   45.3790 C   0  0  0  0  0  0  0  0  0  0  0  0
   56.4105   34.2993   44.8878 H   0  0  0  0  0  0  0  0  0  0  0  0
   58.4740   34.9530   45.0050 C   0  0  0  0  0  0  0  0  0  0  0  0
   58.3599   35.7043   44.2097 H   0  0  0  0  0  0  0  0  0  0  0  0
   59.7080   34.7910   45.6410 C   0  0  0  0  0  0  0  0  0  0  0  0
   60.5617   35.4221   45.3532 H   0  0  0  0  0  0  0  0  0  0  0  0
   59.8580   33.8270   46.6430 C   0  0  0  0  0  0  0  0  0  0  0  0
   60.8315   33.6984   47.1388 H   0  0  0  0  0  0  0  0  0  0  0  0
  1  2  1  0
  2  3  1  0
  2  4  2  0
  4  5  1  0
  5  6  2  0
  6  7  1  0
  6  8  1  0
  8  9  2  0
  9 10  1  0
  9 11  1  0
 11 12  1  0
 12 13  2  0
 12 14  1  0
 14 15  1  0
  5 16  1  0
 16 17  1  0
 16 18  2  0
 18 19  1  0
 19 20  1  0
 19 21  1  0
 19 22  1  0
 18 23  1  0
 23 24  1  0
 24 25  1  0
 24 26  1  0
 24 27  1  0
 27 28  2  0
 28 29  1  0
 28 30  1  0
 30 31  1  0
 30 32  2  0
 32 33  1  0
 32 34  1  0
 34 35  1  0
 34 36  2  0
 36 37  1  0
 37 38  2  0
 38 39  1  0
 38 40  1  0
 40 41  1  0
 40 42  2  0
 42 43  1  0
 42 44  1  0
 44 45  1  0
 44 46  2  0
 46 47  1  0
 23  4  1  0
 36 27  1  0
 46 37  1  0
 14  8  1  0
M  CHG  2  10  -1  11  -1
M  END
>  <UniqueID>  (50) 
44

>  <SMILES>  (50) 
C=c1/c(=C\c2[nH]c(=O)[n-]c2[O-])cc(C)n1Cc1ccccc1-c1ccccc1

>  <Energy>  (50) 
127.46554909901576

>  <Genealogy>  (50) 
C=c1c(=Cc2[nH]c(=O)[n-]c2[O-])cc(C)n1Cc1ccccc1-c1ccccc1 (protonated)
C=c1/c(=C\c2[nH]c(=O)[n-]c2[O-])cc(C)n1Cc1ccccc1-c1ccccc1 (cis-trans isomerization)
C=c1/c(=C\c2[nH]c(=O)[n-]c2[O-])cc(C)n1Cc1ccccc1-c1ccccc1 (3D coordinates assigned)
C=c1/c(=C\c2[nH]c(=O)[n-]c2[O-])cc(C)n1Cc1ccccc1-c1ccccc1 (optimized conformer: 127.46554909901576 kcal/mol)

>  <smiles>  (50) 
C=c1c(=Cc2[nH]c(=O)[nH]c2O)cc(C)n1Cc1ccccc1-c1ccccc1

>  <score_type>  (50) 
oracle

>  <origin>  (50) 
adg

>  <m_score__min__energy>  (50) 
-14.92

>  <m_primary>  (50) 
energy

$$$$
50:0
     RDKit          3D

 54 57  0  0  0  0  0  0  0  0999 V2000
   55.9750   29.4790   44.9780 N   0  0  0  0  0  0  0  0  0  0  0  0
   56.6170   30.4410   44.1320 C   0  0  0  0  0  0  0  0  0  0  0  0
   56.5600   30.2660   42.7400 C   0  0  0  0  0  0  0  0  0  0  0  0
   57.0750   31.2380   41.8800 C   0  0  0  0  0  0  0  0  0  0  0  0
   57.6490   32.3970   42.4020 C   0  0  0  0  0  0  0  0  0  0  0  0
   57.7310   32.5770   43.7850 C   0  0  0  0  0  0  0  0  0  0  0  0
   57.2490   31.5940   44.6590 C   0  0  0  0  0  0  0  0  0  0  0  0
   57.4090   31.8080   46.0690 N   0  0  0  0  0  0  0  0  0  0  0  0
   58.5320   31.3990   46.8630 C   0  0  0  0  0  0  0  0  0  0  0  0
   58.9800   32.1980   47.7280 O   0  0  0  0  0  0  0  0  0  0  0  0
   59.1820   30.0770   46.6920 C   0  0  0  0  0  0  0  0  0  0  0  0
   59.2800   29.2000   47.7850 C   0  0  0  0  0  0  0  0  0  0  0  0
   59.8960   27.9550   47.6400 C   0  0  0  0  0  0  0  0  0  0  0  0
   60.4410   27.5730   46.4060 C   0  0  0  0  0  0  0  0  0  0  0  0
   61.0800   26.2240   46.2520 C   0  0  0  0  0  0  0  0  0  0  0  0
   60.0600   25.1890   46.3680 N   0  0  0  0  0  0  0  0  0  0  0  0
   58.6870   25.3380   45.9900 C   0  0  0  0  0  0  0  0  0  0  0  0
   58.3880   25.2980   44.7670 O   0  0  0  0  0  0  0  0  0  0  0  0
   57.5900   25.5610   46.9960 C   0  0  0  0  0  0  0  0  0  0  0  0
   56.3810   24.8430   46.5910 N   0  0  0  0  0  0  0  0  0  0  0  0
   56.1020   23.5370   46.7920 C   0  0  0  0  0  0  0  0  0  0  0  0
   56.9810   22.6260   47.3670 O   0  0  0  0  0  0  0  0  0  0  0  0
   54.8310   23.2410   46.3420 C   0  0  0  0  0  0  0  0  0  0  0  0
   54.3210   24.4050   45.8130 C   0  0  0  0  0  0  0  0  0  0  0  0
   55.2840   25.3760   46.0050 C   0  0  0  0  0  0  0  0  0  0  0  0
   55.1530   26.7160   45.6610 O   0  0  0  0  0  0  0  0  0  0  0  0
   52.9260   24.5460   45.2890 C   0  0  0  0  0  0  0  0  0  0  0  0
   52.3380   23.1590   44.9540 C   0  0  0  0  0  0  0  0  0  0  0  0
   52.6110   22.1350   46.0780 C   0  0  0  0  0  0  0  0  0  0  0  0
   54.1220   21.9230   46.3060 C   0  0  0  0  0  0  0  0  0  0  0  0
   60.3470   28.4460   45.3130 C   0  0  0  0  0  0  0  0  0  0  0  0
   59.7340   29.6940   45.4580 C   0  0  0  0  0  0  0  0  0  0  0  0
   55.8130   28.4960   44.6690 H   0  0  0  0  0  0  0  0  0  0  0  0
   55.7570   29.7090   45.9740 H   0  0  0  0  0  0  0  0  0  0  0  0
   56.1056   29.3550   42.3233 H   0  0  0  0  0  0  0  0  0  0  0  0
   57.0280   31.0897   40.7911 H   0  0  0  0  0  0  0  0  0  0  0  0
   58.0378   33.1707   41.7236 H   0  0  0  0  0  0  0  0  0  0  0  0
   58.1772   33.4971   44.1905 H   0  0  0  0  0  0  0  0  0  0  0  0
   58.8689   29.4958   48.7615 H   0  0  0  0  0  0  0  0  0  0  0  0
   59.9539   27.2702   48.4989 H   0  0  0  0  0  0  0  0  0  0  0  0
   61.5610   26.1563   45.2651 H   0  0  0  0  0  0  0  0  0  0  0  0
   61.8366   26.0839   47.0381 H   0  0  0  0  0  0  0  0  0  0  0  0
   57.9185   25.1940   47.9795 H   0  0  0  0  0  0  0  0  0  0  0  0
   57.3673   26.6367   47.0525 H   0  0  0  0  0  0  0  0  0  0  0  0
   52.2991   25.0316   46.0514 H   0  0  0  0  0  0  0  0  0  0  0  0
   52.9469   25.1567   44.3743 H   0  0  0  0  0  0  0  0  0  0  0  0
   51.2509   23.2565   44.8171 H   0  0  0  0  0  0  0  0  0  0  0  0
   52.8205   22.7954   44.0348 H   0  0  0  0  0  0  0  0  0  0  0  0
   52.1582   22.5015   47.0111 H   0  0  0  0  0  0  0  0  0  0  0  0
   52.1725   21.1722   45.7769 H   0  0  0  0  0  0  0  0  0  0  0  0
   54.2752   21.4021   47.2626 H   0  0  0  0  0  0  0  0  0  0  0  0
   54.5278   21.3204   45.4801 H   0  0  0  0  0  0  0  0  0  0  0  0
   60.7574   28.1476   44.3370 H   0  0  0  0  0  0  0  0  0  0  0  0
   59.6835   30.3808   44.6002 H   0  0  0  0  0  0  0  0  0  0  0  0
  1  2  1  0
  2  3  2  0
  3  4  1  0
  4  5  2  0
  5  6  1  0
  6  7  2  0
  7  8  1  0
  8  9  1  0
  9 10  2  0
  9 11  1  0
 11 12  2  0
 12 13  1  0
 13 14  2  0
 14 15  1  0
 15 16  1  0
 16 17  1  0
 17 18  2  0
 17 19  1  0
 19 20  1  0
 20 21  1  0
 21 22  1  0
 21 23  2  0
 23 24  1  0
 24 25  2  0
 25 26  1  0
 24 27  1  0
 27 28  1  0
 28 29  1  0
 29 30  1  0
 14 31  1  0
 31 32  2  0
  7  2  1  0
 32 11  1  0
 25 20  1  0
 30 23  1  0
  1 33  1  0
  1 34  1  0
  3 35  1  0
  4 36  1  0
  5 37  1  0
  6 38  1  0
 12 39  1  0
 13 40  1  0
 15 41  1  0
 15 42  1  0
 19 43  1  0
 19 44  1  0
 27 45  1  0
 27 46  1  0
 28 47  1  0
 28 48  1  0
 29 49  1  0
 29 50  1  0
 30 51  1  0
 30 52  1  0
 31 53  1  0
 32 54  1  0
M  CHG  4   8  -1  16  -1  22  -1  26  -1
M  END
>  <UniqueID>  (51) 
45

>  <SMILES>  (51) 
Nc1ccccc1[N-]C(=O)c1ccc(C[N-]C(=O)Cn2c([O-])c3c(c2[O-])CCCC3)cc1

>  <Energy>  (51) 
92.40028506767679

>  <Genealogy>  (51) 
Nc1ccccc1[N-]C(=O)c1ccc(C[N-]C(=O)Cn2c([O-])c3c(c2[O-])CCCC3)cc1 (protonated)
Nc1ccccc1[N-]C(=O)c1ccc(C[N-]C(=O)Cn2c([O-])c3c(c2[O-])CCCC3)cc1 (3D coordinates assigned)
Nc1ccccc1[N-]C(=O)c1ccc(C[N-]C(=O)Cn2c([O-])c3c(c2[O-])CCCC3)cc1 (nonaromatic ring conformer: 92.40028506767679 kcal/mol)

>  <smiles>  (51) 
Nc1ccccc1NC(=O)c1ccc(CNC(=O)Cn2c(O)c3c(c2O)CCCC3)cc1

>  <score_type>  (51) 
oracle

>  <origin>  (51) 
adg

>  <m_score__min__energy>  (51) 
-16.559999999999999

>  <m_primary>  (51) 
energy

$$$$
51:0
     RDKit          3D

 36 38  0  0  0  0  0  0  0  0999 V2000
   54.3570   26.7200   46.7450 H   0  0  0  0  0  0  0  0  0  0  0  0
   55.0780   26.3080   46.1100 N   0  0  0  0  0  0  0  0  0  0  0  0
   56.2400   26.8550   45.9620 C   0  0  0  0  0  0  0  0  0  0  0  0
   56.3320   28.1220   45.4800 N   0  0  0  0  0  0  0  0  0  0  0  0
   57.5380   28.7340   45.3100 C   0  0  0  0  0  0  0  0  0  0  0  0
   57.5990   30.1180   44.7820 C   0  0  0  0  0  0  0  0  0  0  0  0
   57.8450   31.1580   45.6290 N   0  0  0  0  0  0  0  0  0  0  0  0
   57.9130   32.4500   45.2060 C   0  0  0  0  0  0  0  0  0  0  0  0
   58.1750   33.5180   46.1870 C   0  0  0  0  0  0  0  0  0  0  0  0
   58.5460   34.6600   45.8030 O   0  0  0  0  0  0  0  0  0  0  0  0
   58.0040   33.2490   47.5840 N   0  0  0  0  0  0  0  0  0  0  0  0
   59.1060   33.1390   48.5350 C   0  0  0  0  0  0  0  0  0  0  0  0
   59.6725   34.0819   48.5398 H   0  0  0  0  0  0  0  0  0  0  0  0
   58.6893   32.9349   49.5323 H   0  0  0  0  0  0  0  0  0  0  0  0
   60.0460   31.9920   48.1550 C   0  0  0  0  0  0  0  0  0  0  0  0
   60.2399   31.3811   49.0490 H   0  0  0  0  0  0  0  0  0  0  0  0
   59.5579   31.4007   47.3663 H   0  0  0  0  0  0  0  0  0  0  0  0
   61.3530   32.4900   47.6170 C   0  0  0  0  0  0  0  0  0  0  0  0
   62.8630   31.8380   47.9680 S   0  0  0  0  0  0  0  0  0  0  0  0
   63.7540   32.9540   47.0790 C   0  0  0  0  0  0  0  0  0  0  0  0
   64.8489   32.9667   46.9740 H   0  0  0  0  0  0  0  0  0  0  0  0
   62.8710   33.8570   46.5000 C   0  0  0  0  0  0  0  0  0  0  0  0
   63.1967   34.6938   45.8647 H   0  0  0  0  0  0  0  0  0  0  0  0
   61.5280   33.6020   46.8010 C   0  0  0  0  0  0  0  0  0  0  0  0
   60.6960   34.2185   46.4298 H   0  0  0  0  0  0  0  0  0  0  0  0
   57.7210   32.7400   43.8460 C   0  0  0  0  0  0  0  0  0  0  0  0
   57.7690   33.7789   43.4877 H   0  0  0  0  0  0  0  0  0  0  0  0
   57.4690   31.6990   42.9540 C   0  0  0  0  0  0  0  0  0  0  0  0
   57.3197   31.9144   41.8857 H   0  0  0  0  0  0  0  0  0  0  0  0
   57.4060   30.3830   43.4160 C   0  0  0  0  0  0  0  0  0  0  0  0
   57.2065   29.5591   42.7150 H   0  0  0  0  0  0  0  0  0  0  0  0
   58.7070   28.0320   45.6410 C   0  0  0  0  0  0  0  0  0  0  0  0
   59.6951   28.4982   45.5130 H   0  0  0  0  0  0  0  0  0  0  0  0
   58.5940   26.7330   46.1350 C   0  0  0  0  0  0  0  0  0  0  0  0
   59.4974   26.1650   46.4021 H   0  0  0  0  0  0  0  0  0  0  0  0
   57.3680   26.1700   46.2860 N   0  0  0  0  0  0  0  0  0  0  0  0
  1  2  1  0
  2  3  2  0
  3  4  1  0
  4  5  2  0
  5  6  1  0
  6  7  2  0
  7  8  1  0
  8  9  1  0
  9 10  2  0
  9 11  1  0
 11 12  1  0
 12 13  1  0
 12 14  1  0
 12 15  1  0
 15 16  1  0
 15 17  1  0
 15 18  1  0
 18 19  1  0
 19 20  1  0
 20 21  1  0
 20 22  2  0
 22 23  1  0
 22 24  1  0
 24 25  1  0
  8 26  2  0
 26 27  1  0
 26 28  1  0
 28 29  1  0
 28 30  2  0
 30 31  1  0
  5 32  1  0
 32 33  1  0
 32 34  2  0
 34 35  1  0
 34 36  1  0
 36  3  1  0
 30  6  1  0
 24 18  2  0
M  CHG  2  11  -1  36  -1
M  END
>  <UniqueID>  (52) 
46

>  <SMILES>  (52) 
[H]/N=c1/nc(-c2cccc(C(=O)[N-]CCc3cccs3)n2)cc[n-]1

>  <Energy>  (52) 
61.73451438812584

>  <Genealogy>  (52) 
N=c1nc(-c2cccc(C(=O)[N-]CCc3cccs3)n2)cc[n-]1 (protonated)
[H]/N=c1/nc(-c2cccc(C(=O)[N-]CCc3cccs3)n2)cc[n-]1 (cis-trans isomerization)
[H]/N=c1/nc(-c2cccc(C(=O)[N-]CCc3cccs3)n2)cc[n-]1 (3D coordinates assigned)
[H]/N=c1/nc(-c2cccc(C(=O)[N-]CCc3cccs3)n2)cc[n-]1 (optimized conformer: 61.73451438812584 kcal/mol)

>  <smiles>  (52) 
N=c1nc(-c2cccc(C(=O)NCCc3cccs3)n2)cc[nH]1

>  <score_type>  (52) 
oracle

>  <origin>  (52) 
adg

>  <m_score__min__energy>  (52) 
-11.42

>  <m_primary>  (52) 
energy

$$$$
52:0
     RDKit          3D

 49 51  0  0  0  0  0  0  0  0999 V2000
   55.5310   25.1950   45.6740 C   0  0  0  0  0  0  0  0  0  0  0  0
   56.0940   26.4870   45.8870 O   0  0  0  0  0  0  0  0  0  0  0  0
   57.4440   26.7310   46.1870 C   0  0  0  0  0  0  0  0  0  0  0  0
   58.0030   26.3630   47.4280 C   0  0  0  0  0  0  0  0  0  0  0  0
   59.3440   26.6300   47.7070 C   0  0  0  0  0  0  0  0  0  0  0  0
   60.1440   27.2680   46.7580 C   0  0  0  0  0  0  0  0  0  0  0  0
   59.6050   27.6390   45.5240 C   0  0  0  0  0  0  0  0  0  0  0  0
   58.2610   27.3630   45.2220 C   0  0  0  0  0  0  0  0  0  0  0  0
   57.6930   27.8430   43.9090 C   0  0  0  0  0  0  0  0  0  0  0  0
   57.9600   29.2710   43.7580 N   0  0  0  0  0  0  0  0  0  0  0  0
   57.1950   30.2620   44.4570 C   0  0  0  0  0  0  0  0  0  0  0  0
   56.0350   29.9930   44.8780 O   0  0  0  0  0  0  0  0  0  0  0  0
   57.7940   31.5710   44.7780 C   0  0  0  0  0  0  0  0  0  0  0  0
   58.1150   31.8360   46.1180 C   0  0  0  0  0  0  0  0  0  0  0  0
   58.8210   32.9900   46.4690 C   0  0  0  0  0  0  0  0  0  0  0  0
   59.3130   33.2420   48.1460 S   0  0  0  0  0  0  0  0  0  0  0  0
   58.2340   32.7190   49.0520 O   0  0  0  0  0  0  0  0  0  0  0  0
   59.4560   34.7180   48.4030 O   0  0  0  0  0  0  0  0  0  0  0  0
   60.8320   32.4550   48.5240 N   0  0  0  0  0  0  0  0  0  0  0  0
   61.6580   33.2690   49.4190 C   0  0  0  0  0  0  0  0  0  0  0  0
   62.5680   34.1830   48.6110 C   0  0  0  0  0  0  0  0  0  0  0  0
   62.8320   33.4410   46.9830 S   0  0  0  0  0  0  0  0  0  0  0  0
   61.6090   32.1400   47.3200 C   0  0  0  0  0  0  0  0  0  0  0  0
   59.1680   33.9170   45.4780 C   0  0  0  0  0  0  0  0  0  0  0  0
   58.8090   33.6900   44.1480 C   0  0  0  0  0  0  0  0  0  0  0  0
   58.1130   32.5270   43.7810 C   0  0  0  0  0  0  0  0  0  0  0  0
   57.7470   32.3270   42.3320 C   0  0  0  0  0  0  0  0  0  0  0  0
   55.3243   24.7206   46.6447 H   0  0  0  0  0  0  0  0  0  0  0  0
   54.5938   25.2925   45.1065 H   0  0  0  0  0  0  0  0  0  0  0  0
   56.2405   24.5749   45.1065 H   0  0  0  0  0  0  0  0  0  0  0  0
   57.3777   25.8619   48.1816 H   0  0  0  0  0  0  0  0  0  0  0  0
   59.7715   26.3369   48.6772 H   0  0  0  0  0  0  0  0  0  0  0  0
   61.2001   27.4789   46.9820 H   0  0  0  0  0  0  0  0  0  0  0  0
   60.2372   28.1508   44.7835 H   0  0  0  0  0  0  0  0  0  0  0  0
   58.1645   27.2920   43.0819 H   0  0  0  0  0  0  0  0  0  0  0  0
   56.6070   27.6685   43.8927 H   0  0  0  0  0  0  0  0  0  0  0  0
   58.8930   29.5390   43.3730 H   0  0  0  0  0  0  0  0  0  0  0  0
   57.8075   31.1274   46.9012 H   0  0  0  0  0  0  0  0  0  0  0  0
   61.0053   33.8805   50.0594 H   0  0  0  0  0  0  0  0  0  0  0  0
   62.2773   32.6038   50.0387 H   0  0  0  0  0  0  0  0  0  0  0  0
   62.0952   35.1696   48.4964 H   0  0  0  0  0  0  0  0  0  0  0  0
   63.5309   34.3074   49.1281 H   0  0  0  0  0  0  0  0  0  0  0  0
   60.9261   32.0559   46.4618 H   0  0  0  0  0  0  0  0  0  0  0  0
   62.1398   31.1901   47.4813 H   0  0  0  0  0  0  0  0  0  0  0  0
   59.7249   34.8263   45.7483 H   0  0  0  0  0  0  0  0  0  0  0  0
   59.0743   34.4305   43.3791 H   0  0  0  0  0  0  0  0  0  0  0  0
   56.7834   31.8005   42.2665 H   0  0  0  0  0  0  0  0  0  0  0  0
   57.6646   33.3055   41.8362 H   0  0  0  0  0  0  0  0  0  0  0  0
   58.5260   31.7292   41.8362 H   0  0  0  0  0  0  0  0  0  0  0  0
  1  2  1  0
  2  3  1  0
  3  4  2  0
  4  5  1  0
  5  6  2  0
  6  7  1  0
  7  8  2  0
  8  9  1  0
  9 10  1  0
 10 11  1  0
 11 12  2  0
 11 13  1  0
 13 14  2  0
 14 15  1  0
 15 16  1  0
 16 17  2  0
 16 18  2  0
 16 19  1  0
 19 20  1  0
 20 21  1  0
 21 22  1  0
 22 23  1  0
 15 24  2  0
 24 25  1  0
 25 26  2  0
 26 27  1  0
  8  3  1  0
 26 13  1  0
 23 19  1  0
  1 28  1  0
  1 29  1  0
  1 30  1  0
  4 31  1  0
  5 32  1  0
  6 33  1  0
  7 34  1  0
  9 35  1  0
  9 36  1  0
 10 37  1  0
 14 38  1  0
 20 39  1  0
 20 40  1  0
 21 41  1  0
 21 42  1  0
 23 43  1  0
 23 44  1  0
 24 45  1  0
 25 46  1  0
 27 47  1  0
 27 48  1  0
 27 49  1  0
M  END
>  <UniqueID>  (53) 
47

>  <SMILES>  (53) 
COc1ccccc1CNC(=O)c1cc(S(=O)(=O)N2CCSC2)ccc1C

>  <Energy>  (53) 
49.74141451527587

>  <Genealogy>  (53) 
COc1ccccc1CNC(=O)c1cc(S(=O)(=O)N2CCSC2)ccc1C (3D coordinates assigned)
COc1ccccc1CNC(=O)c1cc(S(=O)(=O)N2CCSC2)ccc1C (nonaromatic ring conformer: 49.74141451527587 kcal/mol)

>  <smiles>  (53) 
COc1ccccc1CNC(=O)c1cc(S(=O)(=O)N2CCSC2)ccc1C

>  <score_type>  (53) 
oracle

>  <origin>  (53) 
adg

>  <m_score__min__energy>  (53) 
-9.4499999999999993

>  <m_primary>  (53) 
energy

$$$$
53:0
     RDKit          3D

 48 50  0  0  0  0  0  0  0  0999 V2000
   58.5510   32.3490   49.9080 C   0  0  0  0  0  0  0  0  0  0  0  0
   59.7410   32.5460   49.0280 C   0  0  0  0  0  0  0  0  0  0  0  0
   60.9940   32.1810   49.3680 N   0  0  0  0  0  0  0  0  0  0  0  0
   61.8130   32.6180   48.4210 N   0  0  0  0  0  0  0  0  0  0  0  0
   63.2640   32.5070   48.5030 C   0  0  0  0  0  0  0  0  0  0  0  0
   61.1120   33.2870   47.4800 C   0  0  0  0  0  0  0  0  0  0  0  0
   61.7110   34.0880   46.3650 C   0  0  0  0  0  0  0  0  0  0  0  0
   59.7820   33.2490   47.8390 C   0  0  0  0  0  0  0  0  0  0  0  0
   58.7310   34.0350   47.2760 N   0  0  0  0  0  0  0  0  0  0  0  0
   58.2410   33.7990   45.6350 S   0  0  0  0  0  0  0  0  0  0  0  0
   56.9360   34.5080   45.4010 O   0  0  0  0  0  0  0  0  0  0  0  0
   59.2740   34.3660   44.7020 O   0  0  0  0  0  0  0  0  0  0  0  0
   58.0340   32.0750   45.3370 C   0  0  0  0  0  0  0  0  0  0  0  0
   57.2510   31.6410   44.2600 C   0  0  0  0  0  0  0  0  0  0  0  0
   57.1530   30.2790   43.9650 C   0  0  0  0  0  0  0  0  0  0  0  0
   57.8340   29.3300   44.7450 C   0  0  0  0  0  0  0  0  0  0  0  0
   57.7340   27.8860   44.4210 C   0  0  0  0  0  0  0  0  0  0  0  0
   57.7670   27.4980   43.1780 N   0  0  0  0  0  0  0  0  0  0  0  0
   57.6560   26.9190   45.4860 N   0  0  0  0  0  0  0  0  0  0  0  0
   56.9760   25.6560   45.3760 C   0  0  0  0  0  0  0  0  0  0  0  0
   57.6620   24.4970   44.9650 C   0  0  0  0  0  0  0  0  0  0  0  0
   56.9820   23.2840   44.8310 C   0  0  0  0  0  0  0  0  0  0  0  0
   55.6110   23.2160   45.0910 C   0  0  0  0  0  0  0  0  0  0  0  0
   54.9170   24.3640   45.4800 C   0  0  0  0  0  0  0  0  0  0  0  0
   55.5910   25.5820   45.6180 C   0  0  0  0  0  0  0  0  0  0  0  0
   54.8830   26.7150   46.0050 O   0  0  0  0  0  0  0  0  0  0  0  0
   58.6160   29.7710   45.8270 C   0  0  0  0  0  0  0  0  0  0  0  0
   58.7180   31.1340   46.1170 C   0  0  0  0  0  0  0  0  0  0  0  0
   58.8618   32.4005   50.9619 H   0  0  0  0  0  0  0  0  0  0  0  0
   57.8106   33.1368   49.7052 H   0  0  0  0  0  0  0  0  0  0  0  0
   58.1039   31.3646   49.7052 H   0  0  0  0  0  0  0  0  0  0  0  0
   63.5708   32.4835   49.5591 H   0  0  0  0  0  0  0  0  0  0  0  0
   63.5896   31.5813   48.0059 H   0  0  0  0  0  0  0  0  0  0  0  0
   63.7266   33.3724   48.0059 H   0  0  0  0  0  0  0  0  0  0  0  0
   62.3200   34.9023   46.7846 H   0  0  0  0  0  0  0  0  0  0  0  0
   62.3457   33.4371   45.7458 H   0  0  0  0  0  0  0  0  0  0  0  0
   60.9072   34.5128   45.7458 H   0  0  0  0  0  0  0  0  0  0  0  0
   56.7111   32.3753   43.6441 H   0  0  0  0  0  0  0  0  0  0  0  0
   56.5379   29.9473   43.1155 H   0  0  0  0  0  0  0  0  0  0  0  0
   58.5060   27.8340   42.5230 H   0  0  0  0  0  0  0  0  0  0  0  0
   57.0240   26.8790   42.7820 H   0  0  0  0  0  0  0  0  0  0  0  0
   58.0670   27.1610   46.4140 H   0  0  0  0  0  0  0  0  0  0  0  0
   58.7393   24.5470   44.7482 H   0  0  0  0  0  0  0  0  0  0  0  0
   57.5272   22.3806   44.5201 H   0  0  0  0  0  0  0  0  0  0  0  0
   55.0784   22.2589   44.9894 H   0  0  0  0  0  0  0  0  0  0  0  0
   53.8364   24.3101   45.6786 H   0  0  0  0  0  0  0  0  0  0  0  0
   59.1509   29.0383   46.4492 H   0  0  0  0  0  0  0  0  0  0  0  0
   59.3381   31.4694   46.9614 H   0  0  0  0  0  0  0  0  0  0  0  0
  1  2  1  0
  2  3  2  0
  3  4  1  0
  4  5  1  0
  4  6  1  0
  6  7  1  0
  6  8  2  0
  8  9  1  0
  9 10  1  0
 10 11  2  0
 10 12  2  0
 10 13  1  0
 13 14  2  0
 14 15  1  0
 15 16  2  0
 16 17  1  0
 17 18  2  0
 17 19  1  0
 19 20  1  0
 20 21  2  0
 21 22  1  0
 22 23  2  0
 23 24  1  0
 24 25  2  0
 25 26  1  0
 16 27  1  0
 27 28  2  0
  8  2  1  0
 28 13  1  0
 25 20  1  0
  1 29  1  0
  1 30  1  0
  1 31  1  0
  5 32  1  0
  5 33  1  0
  5 34  1  0
  7 35  1  0
  7 36  1  0
  7 37  1  0
 14 38  1  0
 15 39  1  0
 18 40  1  0
 18 41  1  0
 19 42  1  0
 21 43  1  0
 22 44  1  0
 23 45  1  0
 24 46  1  0
 27 47  1  0
 28 48  1  0
M  CHG  3   9  -1  18   1  26  -1
M  END
>  <UniqueID>  (54) 
48

>  <SMILES>  (54) 
Cc1nn(C)c(C)c1[N-]S(=O)(=O)c1ccc(C(=[NH2+])Nc2ccccc2[O-])cc1

>  <Energy>  (54) 
95.96147000570966

>  <Genealogy>  (54) 
Cc1nn(C)c(C)c1[N-]S(=O)(=O)c1ccc(C(=[NH2+])Nc2ccccc2[O-])cc1 (protonated)
Cc1nn(C)c(C)c1[N-]S(=O)(=O)c1ccc(C(=[NH2+])Nc2ccccc2[O-])cc1 (3D coordinates assigned)
Cc1nn(C)c(C)c1[N-]S(=O)(=O)c1ccc(C(=[NH2+])Nc2ccccc2[O-])cc1 (optimized conformer: 95.96147000570966 kcal/mol)

>  <smiles>  (54) 
Cc1nn(C)c(C)c1NS(=O)(=O)c1ccc(C(=N)Nc2ccccc2O)cc1

>  <score_type>  (54) 
oracle

>  <origin>  (54) 
adg

>  <m_score__min__energy>  (54) 
-12.19

>  <m_primary>  (54) 
energy

$$$$
54:0
     RDKit          3D

 39 40  0  0  0  0  0  0  0  0999 V2000
   56.2700   22.4120   42.7770 C   0  0  0  0  0  0  0  0  0  0  0  0
   56.6670   23.3530   43.8640 C   0  0  0  0  0  0  0  0  0  0  0  0
   57.8890   23.3700   44.5090 C   0  0  0  0  0  0  0  0  0  0  0  0
   57.8200   24.4120   45.4100 C   0  0  0  0  0  0  0  0  0  0  0  0
   56.5620   24.9640   45.2510 C   0  0  0  0  0  0  0  0  0  0  0  0
   56.0220   26.1090   45.9920 C   0  0  0  0  0  0  0  0  0  0  0  0
   54.7830   26.3410   45.9810 O   0  0  0  0  0  0  0  0  0  0  0  0
   56.9130   26.9610   46.7190 N   0  0  0  0  0  0  0  0  0  0  0  0
   57.5660   28.1310   46.1420 C   0  0  0  0  0  0  0  0  0  0  0  0
   57.5060   28.0750   44.6160 C   0  0  0  0  0  0  0  0  0  0  0  0
   56.8570   29.5980   43.9500 S   0  0  0  0  0  0  0  0  0  0  0  0
   56.2720   29.3410   42.5890 O   0  0  0  0  0  0  0  0  0  0  0  0
   55.7830   30.1120   44.8670 O   0  0  0  0  0  0  0  0  0  0  0  0
   58.1390   30.7640   43.8340 N   0  0  0  0  0  0  0  0  0  0  0  0
   57.5780   32.1120   43.7790 C   0  0  0  0  0  0  0  0  0  0  0  0
   58.1820   32.9490   44.8760 C   0  0  0  0  0  0  0  0  0  0  0  0
   58.7040   34.2180   44.5640 C   0  0  0  0  0  0  0  0  0  0  0  0
   59.2780   35.0130   45.5590 C   0  0  0  0  0  0  0  0  0  0  0  0
   59.3440   34.5500   46.8730 C   0  0  0  0  0  0  0  0  0  0  0  0
   58.8420   33.2880   47.1960 C   0  0  0  0  0  0  0  0  0  0  0  0
   58.2670   32.4780   46.2090 C   0  0  0  0  0  0  0  0  0  0  0  0
   57.7970   31.2170   46.5840 O   0  0  0  0  0  0  0  0  0  0  0  0
   55.8990   24.3150   44.3220 O   0  0  0  0  0  0  0  0  0  0  0  0
   55.8786   21.4843   43.2199 H   0  0  0  0  0  0  0  0  0  0  0  0
   55.4918   22.8780   42.1547 H   0  0  0  0  0  0  0  0  0  0  0  0
   57.1468   22.1797   42.1547 H   0  0  0  0  0  0  0  0  0  0  0  0
   58.7396   22.6934   44.3392 H   0  0  0  0  0  0  0  0  0  0  0  0
   58.6036   24.7368   46.1103 H   0  0  0  0  0  0  0  0  0  0  0  0
   57.0557   29.0405   46.4918 H   0  0  0  0  0  0  0  0  0  0  0  0
   58.6196   28.1441   46.4578 H   0  0  0  0  0  0  0  0  0  0  0  0
   58.5197   27.9119   44.2211 H   0  0  0  0  0  0  0  0  0  0  0  0
   56.8418   27.2497   44.3197 H   0  0  0  0  0  0  0  0  0  0  0  0
   57.8064   32.5653   42.8031 H   0  0  0  0  0  0  0  0  0  0  0  0
   56.4872   32.0623   43.9122 H   0  0  0  0  0  0  0  0  0  0  0  0
   58.6597   34.5868   43.5286 H   0  0  0  0  0  0  0  0  0  0  0  0
   59.6785   36.0057   45.3058 H   0  0  0  0  0  0  0  0  0  0  0  0
   59.7921   35.1799   47.6556 H   0  0  0  0  0  0  0  0  0  0  0  0
   58.8986   32.9272   48.2336 H   0  0  0  0  0  0  0  0  0  0  0  0
   57.6240   30.4700   45.9230 H   0  0  0  0  0  0  0  0  0  0  0  0
  1  2  1  0
  2  3  2  0
  3  4  1  0
  4  5  2  0
  5  6  1  0
  6  7  2  0
  6  8  1  0
  8  9  1  0
  9 10  1  0
 10 11  1  0
 11 12  2  0
 11 13  2  0
 11 14  1  0
 14 15  1  0
 15 16  1  0
 16 17  2  0
 17 18  1  0
 18 19  2  0
 19 20  1  0
 20 21  2  0
 21 22  1  0
  5 23  1  0
 23  2  1  0
 21 16  1  0
  1 24  1  0
  1 25  1  0
  1 26  1  0
  3 27  1  0
  4 28  1  0
  9 29  1  0
  9 30  1  0
 10 31  1  0
 10 32  1  0
 15 33  1  0
 15 34  1  0
 17 35  1  0
 18 36  1  0
 19 37  1  0
 20 38  1  0
 22 39  1  0
M  CHG  2   8  -1  14  -1
M  END
>  <UniqueID>  (55) 
49

>  <SMILES>  (55) 
Cc1ccc(C(=O)[N-]CCS(=O)(=O)[N-]Cc2ccccc2O)o1

>  <Energy>  (55) 
53.2129771175852

>  <Genealogy>  (55) 
Cc1ccc(C(=O)[N-]CCS(=O)(=O)[N-]Cc2ccccc2O)o1 (protonated)
Cc1ccc(C(=O)[N-]CCS(=O)(=O)[N-]Cc2ccccc2O)o1 (3D coordinates assigned)
Cc1ccc(C(=O)[N-]CCS(=O)(=O)[N-]Cc2ccccc2O)o1 (optimized conformer: 53.2129771175852 kcal/mol)

>  <smiles>  (55) 
Cc1ccc(C(=O)NCCS(=O)(=O)NCc2ccccc2O)o1

>  <score_type>  (55) 
oracle

>  <origin>  (55) 
adg

>  <m_score__min__energy>  (55) 
-11.07

>  <m_primary>  (55) 
energy

$$$$
55:0
     RDKit          3D

 54 57  0  0  0  0  0  0  0  0999 V2000
   50.9100   33.0670   52.1480 O   0  0  0  0  0  0  0  0  0  0  0  0
   51.1040   32.1150   51.3460 C   0  0  0  0  0  0  0  0  0  0  0  0
   51.0390   32.3400   49.9780 O   0  0  0  0  0  0  0  0  0  0  0  0
   51.3860   30.7430   51.8690 C   0  0  0  0  0  0  0  0  0  0  0  0
   52.8670   30.5170   51.9810 C   0  0  0  0  0  0  0  0  0  0  0  0
   53.3680   29.2360   52.2650 C   0  0  0  0  0  0  0  0  0  0  0  0
   54.7450   29.0330   52.3920 C   0  0  0  0  0  0  0  0  0  0  0  0
   55.6370   30.1050   52.2300 C   0  0  0  0  0  0  0  0  0  0  0  0
   57.0490   29.9240   52.3840 N   0  0  0  0  0  0  0  0  0  0  0  0
   58.0200   29.9680   51.3310 C   0  0  0  0  0  0  0  0  0  0  0  0
   58.7950   28.9860   51.1880 O   0  0  0  0  0  0  0  0  0  0  0  0
   58.2440   31.2220   50.5140 C   0  0  1  0  0  0  0  0  0  0  0  0
   58.7240   32.3930   51.4190 C   0  0  0  0  0  0  0  0  0  0  0  0
   60.0250   32.7880   50.8120 C   0  0  0  0  0  0  0  0  0  0  0  0
   60.8600   33.8380   51.1930 C   0  0  0  0  0  0  0  0  0  0  0  0
   62.0200   34.0800   50.4400 C   0  0  0  0  0  0  0  0  0  0  0  0
   62.3130   33.2860   49.3140 C   0  0  0  0  0  0  0  0  0  0  0  0
   61.4540   32.2400   48.9460 C   0  0  0  0  0  0  0  0  0  0  0  0
   60.3200   31.9980   49.7330 C   0  0  0  0  0  0  0  0  0  0  0  0
   59.3080   31.0230   49.5200 N   0  0  0  0  0  0  0  0  0  0  0  0
   59.2330   30.0830   48.4380 C   0  0  0  0  0  0  0  0  0  0  0  0
   58.5680   30.3740   47.4090 O   0  0  0  0  0  0  0  0  0  0  0  0
   59.9060   28.7440   48.5340 C   0  0  0  0  0  0  0  0  0  0  0  0
   59.9140   28.0260   47.1800 C   0  0  0  0  0  0  0  0  0  0  0  0
   58.5210   27.5970   46.8010 C   0  0  0  0  0  0  0  0  0  0  0  0
   57.7950   28.3220   45.8410 C   0  0  0  0  0  0  0  0  0  0  0  0
   56.5180   27.8990   45.4570 C   0  0  0  0  0  0  0  0  0  0  0  0
   55.9600   26.7480   46.0220 C   0  0  0  0  0  0  0  0  0  0  0  0
   54.6940   26.3280   45.6380 O   0  0  0  0  0  0  0  0  0  0  0  0
   56.6850   26.0150   46.9680 C   0  0  0  0  0  0  0  0  0  0  0  0
   57.9620   26.4310   47.3530 C   0  0  0  0  0  0  0  0  0  0  0  0
   55.1350   31.3890   51.9950 C   0  0  0  0  0  0  0  0  0  0  0  0
   53.7590   31.5950   51.8640 C   0  0  0  0  0  0  0  0  0  0  0  0
   50.9268   30.6328   52.8625 H   0  0  0  0  0  0  0  0  0  0  0  0
   50.9648   30.0031   51.1725 H   0  0  0  0  0  0  0  0  0  0  0  0
   52.6751   28.3906   52.3878 H   0  0  0  0  0  0  0  0  0  0  0  0
   55.1316   28.0287   52.6199 H   0  0  0  0  0  0  0  0  0  0  0  0
   57.2831   31.4517   50.0304 H   0  0  0  0  0  0  0  0  0  0  0  0
   58.0085   33.2282   51.3943 H   0  0  0  0  0  0  0  0  0  0  0  0
   58.8131   32.1085   52.4778 H   0  0  0  0  0  0  0  0  0  0  0  0
   60.6151   34.4630   52.0645 H   0  0  0  0  0  0  0  0  0  0  0  0
   62.7024   34.8924   50.7303 H   0  0  0  0  0  0  0  0  0  0  0  0
   63.2179   33.4868   48.7217 H   0  0  0  0  0  0  0  0  0  0  0  0
   61.6656   31.6237   48.0598 H   0  0  0  0  0  0  0  0  0  0  0  0
   60.9437   28.8878   48.8694 H   0  0  0  0  0  0  0  0  0  0  0  0
   59.3471   28.1253   49.2516 H   0  0  0  0  0  0  0  0  0  0  0  0
   60.3042   28.7087   46.4108 H   0  0  0  0  0  0  0  0  0  0  0  0
   60.5526   27.1335   47.2549 H   0  0  0  0  0  0  0  0  0  0  0  0
   58.2321   29.2250   45.3900 H   0  0  0  0  0  0  0  0  0  0  0  0
   55.9516   28.4731   44.7089 H   0  0  0  0  0  0  0  0  0  0  0  0
   56.2478   25.1077   47.4103 H   0  0  0  0  0  0  0  0  0  0  0  0
   58.5313   25.8450   48.0896 H   0  0  0  0  0  0  0  0  0  0  0  0
   55.8264   32.2406   51.9129 H   0  0  0  0  0  0  0  0  0  0  0  0
   53.3730   32.6063   51.6683 H   0  0  0  0  0  0  0  0  0  0  0  0
  1  2  2  0
  2  3  1  0
  2  4  1  0
  4  5  1  0
  5  6  2  0
  6  7  1  0
  7  8  2  0
  8  9  1  0
  9 10  1  0
 10 11  2  0
 10 12  1  0
 12 13  1  0
 13 14  1  0
 14 15  2  0
 15 16  1  0
 16 17  2  0
 17 18  1  0
 18 19  2  0
 19 20  1  0
 20 21  1  0
 21 22  2  0
 21 23  1  0
 23 24  1  0
 24 25  1  0
 25 26  2  0
 26 27  1  0
 27 28  2  0
 28 29  1  0
 28 30  1  0
 30 31  2  0
  8 32  1  0
 32 33  2  0
 33  5  1  0
 20 12  1  0
 31 25  1  0
 19 14  1  0
  4 34  1  0
  4 35  1  0
  6 36  1  0
  7 37  1  0
 12 38  1  6
 13 39  1  0
 13 40  1  0
 15 41  1  0
 16 42  1  0
 17 43  1  0
 18 44  1  0
 23 45  1  0
 23 46  1  0
 24 47  1  0
 24 48  1  0
 26 49  1  0
 27 50  1  0
 30 51  1  0
 31 52  1  0
 32 53  1  0
 33 54  1  0
M  CHG  3   3  -1   9  -1  29  -1
M  END
>  <UniqueID>  (56) 
50

>  <SMILES>  (56) 
O=C([O-])Cc1ccc([N-]C(=O)[C@H]2Cc3ccccc3N2C(=O)CCc2ccc([O-])cc2)cc1

>  <Energy>  (56) 
77.89241292248703

>  <Genealogy>  (56) 
O=C([O-])Cc1ccc([N-]C(=O)C2Cc3ccccc3N2C(=O)CCc2ccc([O-])cc2)cc1 (protonated)
O=C([O-])Cc1ccc([N-]C(=O)[C@H]2Cc3ccccc3N2C(=O)CCc2ccc([O-])cc2)cc1 (chirality)
O=C([O-])Cc1ccc([N-]C(=O)[C@H]2Cc3ccccc3N2C(=O)CCc2ccc([O-])cc2)cc1 (3D coordinates assigned)
O=C([O-])Cc1ccc([N-]C(=O)[C@H]2Cc3ccccc3N2C(=O)CCc2ccc([O-])cc2)cc1 (nonaromatic ring conformer: 77.89241292248703 kcal/mol)

>  <smiles>  (56) 
O=C(O)Cc1ccc(NC(=O)C2Cc3ccccc3N2C(=O)CCc2ccc(O)cc2)cc1

>  <score_type>  (56) 
oracle

>  <origin>  (56) 
adg

>  <m_score__min__energy>  (56) 
-16.559999999999999

>  <m_primary>  (56) 
energy

$$$$
56:0
     RDKit          3D

 42 44  0  0  0  0  0  0  0  0999 V2000
   63.7060   33.4820   48.8750 C   0  0  0  0  0  0  0  0  0  0  0  0
   62.7510   32.9910   47.4540 S   0  0  0  0  0  0  0  0  0  0  0  0
   63.1620   33.8390   46.2840 O   0  0  0  0  0  0  0  0  0  0  0  0
   63.0170   31.5520   47.1160 O   0  0  0  0  0  0  0  0  0  0  0  0
   61.0550   33.2260   47.7490 N   0  0  0  0  0  0  0  0  0  0  0  0
   60.0700   33.4030   46.7150 C   0  0  0  0  0  0  0  0  0  0  0  0
   59.8650   34.6820   46.1770 C   0  0  0  0  0  0  0  0  0  0  0  0
   58.9120   34.8870   45.1760 C   0  0  0  0  0  0  0  0  0  0  0  0
   58.1420   33.8190   44.7110 C   0  0  0  0  0  0  0  0  0  0  0  0
   58.3170   32.5310   45.2460 C   0  0  0  0  0  0  0  0  0  0  0  0
   57.4810   31.3910   44.8000 C   0  0  0  0  0  0  0  0  0  0  0  0
   57.0310   31.1230   43.5220 C   0  0  0  0  0  0  0  0  0  0  0  0
   56.2960   29.9970   43.5400 N   0  0  0  0  0  0  0  0  0  0  0  0
   56.3140   29.6200   44.8350 C   0  0  0  0  0  0  0  0  0  0  0  0
   55.7150   28.5410   45.2470 N   0  0  0  0  0  0  0  0  0  0  0  0
   56.3050   27.2800   45.6160 C   0  0  0  0  0  0  0  0  0  0  0  0
   55.6460   26.5110   46.3610 O   0  0  0  0  0  0  0  0  0  0  0  0
   57.7070   26.8730   45.2340 C   0  0  0  0  0  0  0  0  0  0  0  0
   58.7460   27.8000   45.8230 C   0  0  0  0  0  0  0  0  0  0  0  0
   59.7550   28.3390   45.0010 C   0  0  0  0  0  0  0  0  0  0  0  0
   60.7350   29.1780   45.5410 C   0  0  0  0  0  0  0  0  0  0  0  0
   60.7230   29.4810   46.9050 C   0  0  0  0  0  0  0  0  0  0  0  0
   59.7340   28.9410   47.7340 C   0  0  0  0  0  0  0  0  0  0  0  0
   58.7540   28.0990   47.1990 C   0  0  0  0  0  0  0  0  0  0  0  0
   57.0310   30.4360   45.6320 N   0  0  0  0  0  0  0  0  0  0  0  0
   59.2870   32.3330   46.2450 C   0  0  0  0  0  0  0  0  0  0  0  0
   63.1667   33.2048   49.7928 H   0  0  0  0  0  0  0  0  0  0  0  0
   64.6812   32.9735   48.8549 H   0  0  0  0  0  0  0  0  0  0  0  0
   63.8599   34.5710   48.8549 H   0  0  0  0  0  0  0  0  0  0  0  0
   60.7700   33.3560   48.7460 H   0  0  0  0  0  0  0  0  0  0  0  0
   60.4594   35.5307   46.5462 H   0  0  0  0  0  0  0  0  0  0  0  0
   58.7680   35.8922   44.7532 H   0  0  0  0  0  0  0  0  0  0  0  0
   57.3944   33.9865   43.9217 H   0  0  0  0  0  0  0  0  0  0  0  0
   57.2405   31.7334   42.6312 H   0  0  0  0  0  0  0  0  0  0  0  0
   57.8929   25.8526   45.6004 H   0  0  0  0  0  0  0  0  0  0  0  0
   57.7888   26.9233   44.1382 H   0  0  0  0  0  0  0  0  0  0  0  0
   59.7722   28.0985   43.9277 H   0  0  0  0  0  0  0  0  0  0  0  0
   61.5160   29.5998   44.8913 H   0  0  0  0  0  0  0  0  0  0  0  0
   61.4919   30.1447   47.3273 H   0  0  0  0  0  0  0  0  0  0  0  0
   59.7272   29.1790   48.8079 H   0  0  0  0  0  0  0  0  0  0  0  0
   57.9850   27.6678   47.8568 H   0  0  0  0  0  0  0  0  0  0  0  0
   59.4355   31.3271   46.6648 H   0  0  0  0  0  0  0  0  0  0  0  0
  1  2  1  0
  2  3  2  0
  2  4  2  0
  2  5  1  0
  5  6  1  0
  6  7  2  0
  7  8  1  0
  8  9  2  0
  9 10  1  0
 10 11  1  0
 11 12  2  0
 12 13  1  0
 13 14  1  0
 14 15  2  3
 15 16  1  0
 16 17  2  0
 16 18  1  0
 18 19  1  0
 19 20  2  0
 20 21  1  0
 21 22  2  0
 22 23  1  0
 23 24  2  0
 14 25  1  0
 10 26  2  0
 26  6  1  0
 25 11  1  0
 24 19  1  0
  1 27  1  0
  1 28  1  0
  1 29  1  0
  5 30  1  0
  7 31  1  0
  8 32  1  0
  9 33  1  0
 12 34  1  0
 18 35  1  0
 18 36  1  0
 20 37  1  0
 21 38  1  0
 22 39  1  0
 23 40  1  0
 24 41  1  0
 26 42  1  0
M  CHG  2  13  -1  25  -1
M  END
>  <UniqueID>  (57) 
51

>  <SMILES>  (57) 
CS(=O)(=O)Nc1cccc(-c2c[n-]c(=NC(=O)Cc3ccccc3)[n-]2)c1

>  <Energy>  (57) 
74.1535999270588

>  <Genealogy>  (57) 
CS(=O)(=O)Nc1cccc(-c2c[n-]c(=NC(=O)Cc3ccccc3)[n-]2)c1 (protonated)
CS(=O)(=O)Nc1cccc(-c2c[n-]c(=NC(=O)Cc3ccccc3)[n-]2)c1 (3D coordinates assigned)
CS(=O)(=O)Nc1cccc(-c2c[n-]c(=NC(=O)Cc3ccccc3)[n-]2)c1 (optimized conformer: 74.1535999270588 kcal/mol)

>  <smiles>  (57) 
CS(=O)(=O)Nc1cccc(-c2c[nH]c(=NC(=O)Cc3ccccc3)[nH]2)c1

>  <score_type>  (57) 
oracle

>  <origin>  (57) 
adg

>  <m_score__min__energy>  (57) 
-12.109999999999999

>  <m_primary>  (57) 
energy

$$$$
57:0
     RDKit          3D

 32 34  0  0  0  0  0  0  0  0999 V2000
   59.9560   33.6070   49.6880 C   0  0  0  0  0  0  0  0  0  0  0  0
   60.8120   34.2660   48.6860 N   0  0  0  0  0  0  0  0  0  0  0  0
   61.9370   33.4010   48.2700 C   0  0  0  0  0  0  0  0  0  0  0  0
   61.4530   32.1770   47.4730 C   0  0  0  0  0  0  0  0  0  0  0  0
   60.3370   32.5400   46.5920 N   0  0  0  0  0  0  0  0  0  0  0  0
   59.4520   31.5210   46.0870 C   0  0  0  0  0  0  0  0  0  0  0  0
   59.8140   30.1490   46.1780 C   0  0  0  0  0  0  0  0  0  0  0  0
   58.9510   29.1440   45.7030 C   0  0  0  0  0  0  0  0  0  0  0  0
   57.7390   29.5440   45.1510 C   0  0  0  0  0  0  0  0  0  0  0  0
   56.7630   28.7790   44.6440 N   0  0  0  0  0  0  0  0  0  0  0  0
   55.8260   29.6790   44.2640 C   0  0  0  0  0  0  0  0  0  0  0  0
   54.7350   29.3440   43.7330 O   0  0  0  0  0  0  0  0  0  0  0  0
   56.1580   30.9730   44.5050 N   0  0  0  0  0  0  0  0  0  0  0  0
   57.3750   30.8560   45.0650 C   0  0  0  0  0  0  0  0  0  0  0  0
   58.2020   31.8770   45.5230 C   0  0  0  0  0  0  0  0  0  0  0  0
   60.1410   33.9540   46.2590 C   0  0  0  0  0  0  0  0  0  0  0  0
   60.0200   34.7950   47.5440 C   0  0  0  0  0  0  0  0  0  0  0  0
   60.3018   33.8732   50.6977 H   0  0  0  0  0  0  0  0  0  0  0  0
   58.9157   33.9396   49.5572 H   0  0  0  0  0  0  0  0  0  0  0  0
   60.0115   32.5162   49.5572 H   0  0  0  0  0  0  0  0  0  0  0  0
   62.6228   33.9871   47.6406 H   0  0  0  0  0  0  0  0  0  0  0  0
   62.4437   33.0396   49.1770 H   0  0  0  0  0  0  0  0  0  0  0  0
   62.2836   31.7915   46.8635 H   0  0  0  0  0  0  0  0  0  0  0  0
   61.1095   31.4077   48.1802 H   0  0  0  0  0  0  0  0  0  0  0  0
   60.7797   29.8700   46.6248 H   0  0  0  0  0  0  0  0  0  0  0  0
   59.2252   28.0806   45.7661 H   0  0  0  0  0  0  0  0  0  0  0  0
   56.7320   27.7380   44.5660 H   0  0  0  0  0  0  0  0  0  0  0  0
   57.8941   32.9304   45.4493 H   0  0  0  0  0  0  0  0  0  0  0  0
   60.9999   34.3107   45.6716 H   0  0  0  0  0  0  0  0  0  0  0  0
   59.2148   34.0586   45.6748 H   0  0  0  0  0  0  0  0  0  0  0  0
   60.3675   35.8153   47.3244 H   0  0  0  0  0  0  0  0  0  0  0  0
   58.9630   34.7655   47.8471 H   0  0  0  0  0  0  0  0  0  0  0  0
  1  2  1  0
  2  3  1  0
  3  4  1  0
  4  5  1  0
  5  6  1  0
  6  7  2  0
  7  8  1  0
  8  9  2  0
  9 10  1  0
 10 11  1  0
 11 12  2  0
 11 13  1  0
 13 14  1  0
 14 15  2  0
  5 16  1  0
 16 17  1  0
 17  2  1  0
 15  6  1  0
 14  9  1  0
  1 18  1  0
  1 19  1  0
  1 20  1  0
  3 21  1  0
  3 22  1  0
  4 23  1  0
  4 24  1  0
  7 25  1  0
  8 26  1  0
 10 27  1  0
 15 28  1  0
 16 29  1  0
 16 30  1  0
 17 31  1  0
 17 32  1  0
M  CHG  1  13  -1
M  END
>  <UniqueID>  (58) 
52

>  <SMILES>  (58) 
CN1CCN(c2ccc3[nH]c(=O)[n-]c3c2)CC1

>  <Energy>  (58) 
81.5649827562906

>  <Genealogy>  (58) 
CN1CCN(c2ccc3[nH]c(=O)[n-]c3c2)CC1 (protonated)
CN1CCN(c2ccc3[nH]c(=O)[n-]c3c2)CC1 (3D coordinates assigned)
CN1CCN(c2ccc3[nH]c(=O)[n-]c3c2)CC1 (nonaromatic ring conformer: 81.5649827562906 kcal/mol)

>  <smiles>  (58) 
CN1CCN(c2ccc3[nH]c(=O)[nH]c3c2)CC1

>  <score_type>  (58) 
oracle

>  <origin>  (58) 
adg

>  <m_score__min__energy>  (58) 
-7.96

>  <m_primary>  (58) 
energy

$$$$
58:0
     RDKit          3D

 48 51  0  0  1  0  0  0  0  0999 V2000
   55.1420   26.6210   46.0870 O   0  0  0  0  0  0  0  0  0  0  0  0
   56.1500   25.9400   45.8450 C   0  0  0  0  0  0  0  0  0  0  0  0
   56.0370   24.5380   45.7570 N   0  0  0  0  0  0  0  0  0  0  0  0
   54.8750   23.7640   45.9160 C   0  0  0  0  0  0  0  0  0  0  0  0
   54.7410   22.6630   46.7260 C   0  0  0  0  0  0  0  0  0  0  0  0
   53.5430   21.9510   46.8220 C   0  0  0  0  0  0  0  0  0  0  0  0
   52.4500   22.3260   46.1060 C   0  0  0  0  0  0  0  0  0  0  0  0
   52.5540   23.4240   45.2850 C   0  0  0  0  0  0  0  0  0  0  0  0
   53.7370   24.1210   45.1970 C   0  0  0  0  0  0  0  0  0  0  0  0
   57.3880   26.5790   45.6620 N   0  0  0  0  0  0  0  0  0  0  0  0
   57.6680   27.9540   45.7150 C   0  0  0  0  0  0  0  0  0  0  0  0
   57.0940   28.7910   44.7680 C   0  0  0  0  0  0  0  0  0  0  0  0
   57.3090   30.1520   44.7390 C   0  0  0  0  0  0  0  0  0  0  0  0
   58.1160   30.7600   45.6610 C   0  0  0  0  0  0  0  0  0  0  0  0
   58.4030   32.1720   45.7160 C   0  0  0  0  0  0  0  0  0  0  0  0
   59.2200   32.7260   46.6810 C   0  0  0  0  0  0  0  0  0  0  0  0
   59.4770   34.0910   46.7080 C   0  0  0  0  0  0  0  0  0  0  0  0
   60.2310   34.5850   47.6030 N   0  0  0  0  0  0  0  0  0  0  0  0
   61.5310   34.0850   47.9020 C   0  0  0  0  0  0  0  0  0  0  0  0
   62.3540   33.5140   46.9540 C   0  0  0  0  0  0  0  0  0  0  0  0
   63.5960   33.0680   47.3760 C   0  0  0  0  0  0  0  0  0  0  0  0
   64.0390   33.1660   48.6690 C   0  0  0  0  0  0  0  0  0  0  0  0
   65.2750   32.7140   49.0540 F   0  0  0  0  0  0  0  0  0  0  0  0
   63.1910   33.7440   49.6030 C   0  0  0  0  0  0  0  0  0  0  0  0
   63.6840   33.9050   51.2760 Cl  0  0  0  0  0  0  0  0  0  0  0  0
   61.9530   34.1960   49.2130 C   0  0  0  0  0  0  0  0  0  0  0  0
   58.9410   34.9250   45.8000 N   0  0  0  0  0  0  0  0  0  0  0  0
   58.1470   34.3710   44.8650 C   0  0  0  0  0  0  0  0  0  0  0  0
   57.8820   33.0530   44.8160 N   0  0  0  0  0  0  0  0  0  0  0  0
   58.7000   29.9380   46.6170 C   0  0  0  0  0  0  0  0  0  0  0  0
   58.4790   28.5740   46.6400 C   0  0  0  0  0  0  0  0  0  0  0  0
   56.9290   24.0140   45.5490 H   0  0  0  0  0  0  0  0  0  0  0  0
   55.6059   22.3308   47.3189 H   0  0  0  0  0  0  0  0  0  0  0  0
   53.4833   21.0757   47.4855 H   0  0  0  0  0  0  0  0  0  0  0  0
   51.5066   21.7654   46.1815 H   0  0  0  0  0  0  0  0  0  0  0  0
   51.6846   23.7477   44.6939 H   0  0  0  0  0  0  0  0  0  0  0  0
   53.7859   24.9957   44.5318 H   0  0  0  0  0  0  0  0  0  0  0  0
   58.2130   25.9410   45.4570 H   0  0  0  0  0  0  0  0  0  0  0  0
   56.4371   28.3474   44.0053 H   0  0  0  0  0  0  0  0  0  0  0  0
   56.8234   30.7596   43.9612 H   0  0  0  0  0  0  0  0  0  0  0  0
   59.6755   32.0752   47.4419 H   0  0  0  0  0  0  0  0  0  0  0  0
   62.0371   33.4166   45.9051 H   0  0  0  0  0  0  0  0  0  0  0  0
   64.2637   32.6097   46.6316 H   0  0  0  0  0  0  0  0  0  0  0  0
   61.2861   34.6544   49.9580 H   0  0  0  0  0  0  0  0  0  0  0  0
   59.1150   35.9580   45.7920 H   0  0  0  0  0  0  0  0  0  0  0  0
   57.6940   35.0259   44.1062 H   0  0  0  0  0  0  0  0  0  0  0  0
   59.3570   30.3857   47.3772 H   0  0  0  0  0  0  0  0  0  0  0  0
   58.9640   27.9666   47.4184 H   0  0  0  0  0  0  0  0  0  0  0  0
  1  2  2  0
  2  3  1  0
  3  4  1  0
  4  5  2  0
  5  6  1  0
  6  7  2  0
  7  8  1  0
  8  9  2  0
  2 10  1  0
 10 11  1  0
 11 12  2  0
 12 13  1  0
 13 14  2  0
 14 15  1  0
 15 16  2  0
 16 17  1  0
 17 18  2  0
 18 19  1  0
 19 20  2  0
 20 21  1  0
 21 22  2  0
 22 23  1  0
 22 24  1  0
 24 25  1  0
 24 26  2  0
 17 27  1  0
 27 28  1  0
 28 29  2  0
 14 30  1  0
 30 31  2  0
  9  4  1  0
 31 11  1  0
 29 15  1  0
 26 19  1  0
  3 32  1  0
  5 33  1  0
  6 34  1  0
  7 35  1  0
  8 36  1  0
  9 37  1  0
 10 38  1  0
 12 39  1  0
 13 40  1  0
 16 41  1  0
 20 42  1  0
 21 43  1  0
 26 44  1  0
 27 45  1  0
 28 46  1  0
 30 47  1  0
 31 48  1  0
M  END
>  <smiles>  (59) 
O=C(Nc1ccccc1)Nc1ccc(-c2cc(=Nc3ccc(F)c(Cl)c3)[nH]cn2)cc1

>  <score_type>  (59) 
oracle

>  <origin>  (59) 
adg

>  <m_score__min__energy>  (59) 
-9.3300000000000001

>  <m_primary>  (59) 
energy

$$$$
59:0
     RDKit          3D

 30 31  0  0  0  0  0  0  0  0999 V2000
   57.5860   28.4030   43.7680 N   0  0  0  0  0  0  0  0  0  0  0  0
   56.5000   29.7330   43.9590 S   0  0  0  0  0  0  0  0  0  0  0  0
   55.9240   30.1060   42.6210 O   0  0  0  0  0  0  0  0  0  0  0  0
   55.3740   29.3360   44.8720 O   0  0  0  0  0  0  0  0  0  0  0  0
   57.3660   31.1050   44.6410 C   0  0  0  0  0  0  0  0  0  0  0  0
   57.4680   32.3010   43.9180 C   0  0  0  0  0  0  0  0  0  0  0  0
   58.1120   33.4080   44.4780 C   0  0  0  0  0  0  0  0  0  0  0  0
   58.6420   33.3350   45.7740 C   0  0  0  0  0  0  0  0  0  0  0  0
   59.2490   34.5300   46.3850 C   0  0  0  0  0  0  0  0  0  0  0  0
   59.7120   35.4310   45.6370 O   0  0  0  0  0  0  0  0  0  0  0  0
   59.2780   34.7240   47.8060 N   0  0  0  0  0  0  0  0  0  0  0  0
   59.9770   33.8760   48.7690 C   0  0  0  0  0  0  0  0  0  0  0  0
   61.3840   33.6130   48.3280 C   0  0  0  0  0  0  0  0  0  0  0  0
   61.7670   32.8140   47.2570 C   0  0  0  0  0  0  0  0  0  0  0  0
   63.1550   32.7140   47.1130 C   0  0  0  0  0  0  0  0  0  0  0  0
   63.8670   33.4370   48.0620 C   0  0  0  0  0  0  0  0  0  0  0  0
   62.7690   34.1960   49.0840 S   0  0  0  0  0  0  0  0  0  0  0  0
   58.5610   32.1300   46.4870 C   0  0  0  0  0  0  0  0  0  0  0  0
   57.9200   31.0210   45.9250 C   0  0  0  0  0  0  0  0  0  0  0  0
   57.0160   27.5870   43.4460 H   0  0  0  0  0  0  0  0  0  0  0  0
   58.2300   28.6460   42.9820 H   0  0  0  0  0  0  0  0  0  0  0  0
   57.0401   32.3689   42.9069 H   0  0  0  0  0  0  0  0  0  0  0  0
   58.2033   34.3395   43.9000 H   0  0  0  0  0  0  0  0  0  0  0  0
   59.9944   34.3801   49.7466 H   0  0  0  0  0  0  0  0  0  0  0  0
   59.4462   32.9153   48.8411 H   0  0  0  0  0  0  0  0  0  0  0  0
   61.0512   32.3112   46.5901 H   0  0  0  0  0  0  0  0  0  0  0  0
   63.6370   32.1192   46.3231 H   0  0  0  0  0  0  0  0  0  0  0  0
   64.9628   33.5018   48.1326 H   0  0  0  0  0  0  0  0  0  0  0  0
   59.0031   32.0568   47.4916 H   0  0  0  0  0  0  0  0  0  0  0  0
   57.8508   30.0811   46.4923 H   0  0  0  0  0  0  0  0  0  0  0  0
  1  2  1  0
  2  3  2  0
  2  4  2  0
  2  5  1  0
  5  6  2  0
  6  7  1  0
  7  8  2  0
  8  9  1  0
  9 10  2  0
  9 11  1  0
 11 12  1  0
 12 13  1  0
 13 14  2  0
 14 15  1  0
 15 16  2  0
 16 17  1  0
  8 18  1  0
 18 19  2  0
 19  5  1  0
 17 13  1  0
  1 20  1  0
  1 21  1  0
  6 22  1  0
  7 23  1  0
 12 24  1  0
 12 25  1  0
 14 26  1  0
 15 27  1  0
 16 28  1  0
 18 29  1  0
 19 30  1  0
M  CHG  1  11  -1
M  END
>  <UniqueID>  (60) 
53

>  <SMILES>  (60) 
NS(=O)(=O)c1ccc(C(=O)[N-]Cc2cccs2)cc1

>  <Energy>  (60) 
55.90151814395404

>  <Genealogy>  (60) 
NS(=O)(=O)c1ccc(C(=O)[N-]Cc2cccs2)cc1 (protonated)
NS(=O)(=O)c1ccc(C(=O)[N-]Cc2cccs2)cc1 (3D coordinates assigned)
NS(=O)(=O)c1ccc(C(=O)[N-]Cc2cccs2)cc1 (optimized conformer: 55.90151814395404 kcal/mol)

>  <smiles>  (60) 
NS(=O)(=O)c1ccc(C(=O)NCc2cccs2)cc1

>  <score_type>  (60) 
oracle

>  <origin>  (60) 
adg

>  <m_score__min__energy>  (60) 
-8.9199999999999999

>  <m_primary>  (60) 
energy

$$$$
60:0
     RDKit          3D

 18 18  0  0  0  0  0  0  0  0999 V2000
   55.1940   29.3420   44.8800 O   0  0  0  0  0  0  0  0  0  0  0  0
   56.2260   29.4240   44.1640 C   0  0  0  0  0  0  0  0  0  0  0  0
   56.5540   30.6880   43.4950 C   0  0  0  0  0  0  0  0  0  0  0  0
   57.7720   31.2320   43.6040 C   0  0  0  0  0  0  0  0  0  0  0  0
   58.0770   32.2340   44.5940 N   0  0  0  0  0  0  0  0  0  0  0  0
   58.4620   33.4680   44.1540 C   0  0  0  0  0  0  0  0  0  0  0  0
   58.7720   34.4790   45.0610 C   0  0  0  0  0  0  0  0  0  0  0  0
   58.6970   34.1990   46.4210 C   0  0  0  0  0  0  0  0  0  0  0  0
   58.9680   35.0950   47.2640 O   0  0  0  0  0  0  0  0  0  0  0  0
   58.3370   32.9570   46.8380 N   0  0  0  0  0  0  0  0  0  0  0  0
   58.0410   31.9740   45.9430 C   0  0  0  0  0  0  0  0  0  0  0  0
   57.7580   30.8200   46.3690 O   0  0  0  0  0  0  0  0  0  0  0  0
   56.8812   28.5491   44.0400 H   0  0  0  0  0  0  0  0  0  0  0  0
   55.7861   31.1970   42.8939 H   0  0  0  0  0  0  0  0  0  0  0  0
   58.5653   30.9040   42.9162 H   0  0  0  0  0  0  0  0  0  0  0  0
   58.5280   33.6655   43.0739 H   0  0  0  0  0  0  0  0  0  0  0  0
   59.0698   35.4776   44.7088 H   0  0  0  0  0  0  0  0  0  0  0  0
   58.2980   32.7500   47.8620 H   0  0  0  0  0  0  0  0  0  0  0  0
  1  2  2  0
  2  3  1  0
  3  4  2  3
  4  5  1  0
  5  6  1  0
  6  7  2  0
  7  8  1  0
  8  9  2  0
  8 10  1  0
 10 11  1  0
 11 12  2  0
 11  5  1  0
  2 13  1  0
  3 14  1  0
  4 15  1  0
  6 16  1  0
  7 17  1  0
 10 18  1  0
M  END
>  <UniqueID>  (61) 
54

>  <SMILES>  (61) 
O=CC=Cn1ccc(=O)[nH]c1=O

>  <Energy>  (61) 
21.56860125612809

>  <Genealogy>  (61) 
O=CC=Cn1ccc(=O)[nH]c1=O (3D coordinates assigned)
O=CC=Cn1ccc(=O)[nH]c1=O (optimized conformer: 21.56860125612809 kcal/mol)

>  <smiles>  (61) 
O=CC=Cn1ccc(=O)[nH]c1=O

>  <score_type>  (61) 
oracle

>  <origin>  (61) 
adg

>  <m_score__min__energy>  (61) 
-4.8200000000000003

>  <m_primary>  (61) 
energy

$$$$
61:0
     RDKit          3D

 48 50  0  0  1  0  0  0  0  0999 V2000
   57.2030   31.9390   51.7000 C   0  0  0  0  0  0  0  0  0  0  0  0
   58.3950   31.3590   51.0270 C   0  0  0  0  0  0  0  0  0  0  0  0
   58.2900   30.1540   50.3960 N   0  0  0  0  0  0  0  0  0  0  0  0
   59.3160   29.5810   49.7790 C   0  0  0  0  0  0  0  0  0  0  0  0
   59.3320   28.3860   49.1170 O   0  0  0  0  0  0  0  0  0  0  0  0
   60.5010   27.6280   48.9890 C   0  0  0  0  0  0  0  0  0  0  0  0
   60.3820   26.7160   47.8120 C   0  0  0  0  0  0  0  0  0  0  0  0
   60.5500   27.3410   46.5570 O   0  0  0  0  0  0  0  0  0  0  0  0
   59.4630   28.0610   46.0430 C   0  0  0  0  0  0  0  0  0  0  0  0
   59.3750   29.4340   46.2540 C   0  0  0  0  0  0  0  0  0  0  0  0
   58.2950   30.1390   45.7440 C   0  0  0  0  0  0  0  0  0  0  0  0
   57.3090   29.4980   45.0330 C   0  0  0  0  0  0  0  0  0  0  0  0
   56.1600   30.2070   44.4890 C   0  0  0  0  0  0  0  0  0  0  0  0
   55.0440   29.5100   43.9520 N   0  0  0  0  0  0  0  0  0  0  0  0
   56.1080   31.4690   44.4720 O   0  0  0  0  0  0  0  0  0  0  0  0
   57.4230   28.1550   44.8430 C   0  0  0  0  0  0  0  0  0  0  0  0
   58.4760   27.5000   45.3460 N   0  0  0  0  0  0  0  0  0  0  0  0
   60.5250   30.2880   49.8080 C   0  0  0  0  0  0  0  0  0  0  0  0
   60.6710   31.4930   50.4260 C   0  0  0  0  0  0  0  0  0  0  0  0
   61.8070   32.0950   50.4180 N   0  0  0  0  0  0  0  0  0  0  0  0
   61.9250   33.3390   49.7380 C   0  0  0  0  0  0  0  0  0  0  0  0
   62.7570   34.2080   50.1290 O   0  0  0  0  0  0  0  0  0  0  0  0
   61.1200   33.6930   48.5780 C   0  0  0  0  0  0  0  0  0  0  0  0
   59.8590   34.2080   48.6330 C   0  0  0  0  0  0  0  0  0  0  0  0
   59.2780   34.4150   49.8260 F   0  0  0  0  0  0  0  0  0  0  0  0
   59.1190   34.5360   47.5070 C   0  0  0  0  0  0  0  0  0  0  0  0
   59.6650   34.3420   46.2620 C   0  0  0  0  0  0  0  0  0  0  0  0
   60.9390   33.8230   46.1670 C   0  0  0  0  0  0  0  0  0  0  0  0
   61.6690   33.4990   47.3110 C   0  0  0  0  0  0  0  0  0  0  0  0
   63.2880   32.8400   47.1240 Cl  0  0  0  0  0  0  0  0  0  0  0  0
   59.5860   32.0170   51.0340 N   0  0  0  0  0  0  0  0  0  0  0  0
   57.3312   31.8766   52.7907 H   0  0  0  0  0  0  0  0  0  0  0  0
   57.0909   32.9924   51.4036 H   0  0  0  0  0  0  0  0  0  0  0  0
   56.3050   31.3771   51.4036 H   0  0  0  0  0  0  0  0  0  0  0  0
   61.3593   28.3007   48.8452 H   0  0  0  0  0  0  0  0  0  0  0  0
   60.6496   27.0300   49.9002 H   0  0  0  0  0  0  0  0  0  0  0  0
   61.1473   25.9318   47.9085 H   0  0  0  0  0  0  0  0  0  0  0  0
   59.3540   26.3249   47.8271 H   0  0  0  0  0  0  0  0  0  0  0  0
   60.1581   29.9572   46.8224 H   0  0  0  0  0  0  0  0  0  0  0  0
   58.2268   31.2242   45.9106 H   0  0  0  0  0  0  0  0  0  0  0  0
   54.8030   29.5440   42.9160 H   0  0  0  0  0  0  0  0  0  0  0  0
   54.3970   28.9220   44.5490 H   0  0  0  0  0  0  0  0  0  0  0  0
   56.6524   27.6101   44.2780 H   0  0  0  0  0  0  0  0  0  0  0  0
   61.3999   29.8482   49.3068 H   0  0  0  0  0  0  0  0  0  0  0  0
   58.1042   34.9477   47.6101 H   0  0  0  0  0  0  0  0  0  0  0  0
   59.0957   34.5963   45.3558 H   0  0  0  0  0  0  0  0  0  0  0  0
   61.3862   33.6621   45.1750 H   0  0  0  0  0  0  0  0  0  0  0  0
   59.6480   32.9430   51.5240 H   0  0  0  0  0  0  0  0  0  0  0  0
  1  2  1  0
  2  3  2  0
  3  4  1  0
  4  5  1  0
  5  6  1  0
  6  7  1  0
  7  8  1  0
  8  9  1  0
  9 10  2  0
 10 11  1  0
 11 12  2  0
 12 13  1  0
 13 14  1  0
 13 15  2  0
 12 16  1  0
 16 17  2  0
  4 18  2  0
 18 19  1  0
 19 20  2  0
 20 21  1  0
 21 22  2  0
 21 23  1  0
 23 24  2  0
 24 25  1  0
 24 26  1  0
 26 27  2  0
 27 28  1  0
 28 29  2  0
 29 30  1  0
 19 31  1  0
 31  2  1  0
 17  9  1  0
 29 23  1  0
  1 32  1  0
  1 33  1  0
  1 34  1  0
  6 35  1  0
  6 36  1  0
  7 37  1  0
  7 38  1  0
 10 39  1  0
 11 40  1  0
 14 41  1  0
 14 42  1  0
 16 43  1  0
 18 44  1  0
 26 45  1  0
 27 46  1  0
 28 47  1  0
 31 48  1  0
M  END
>  <smiles>  (62) 
Cc1nc(OCCOc2ccc(C(N)=O)cn2)cc(=NC(=O)c2c(F)cccc2Cl)[nH]1

>  <score_type>  (62) 
oracle

>  <origin>  (62) 
adg

>  <m_score__min__energy>  (62) 
-8.9600000000000009

>  <m_primary>  (62) 
energy

$$$$
62:0
     RDKit          3D

 67 70  0  0  0  0  0  0  0  0999 V2000
   58.0131   29.3317   43.6271 H   0  0  0  0  0  0  0  0  0  0  0  0
   57.1390   29.9650   43.8390 C   0  0  0  0  0  0  0  0  0  0  0  0
   55.9010   29.3320   44.3500 C   0  0  0  0  0  0  0  0  0  0  0  0
   54.7740   29.7720   43.9940 O   0  0  0  0  0  0  0  0  0  0  0  0
   55.9470   28.2110   45.2390 N   0  0  0  0  0  0  0  0  0  0  0  0
   57.0380   27.2470   45.3040 C   0  0  0  0  0  0  0  0  0  0  0  0
   56.7087   26.3565   45.8596 H   0  0  0  0  0  0  0  0  0  0  0  0
   57.3313   26.9538   44.2852 H   0  0  0  0  0  0  0  0  0  0  0  0
   58.2110   27.8700   46.0050 C   0  0  0  0  0  0  0  0  0  0  0  0
   59.3590   28.2260   45.2750 C   0  0  0  0  0  0  0  0  0  0  0  0
   59.4061   28.0254   44.1945 H   0  0  0  0  0  0  0  0  0  0  0  0
   60.4420   28.8350   45.9200 C   0  0  0  0  0  0  0  0  0  0  0  0
   61.3406   29.1075   45.3471 H   0  0  0  0  0  0  0  0  0  0  0  0
   60.3820   29.0970   47.2920 C   0  0  0  0  0  0  0  0  0  0  0  0
   61.2361   29.5697   47.7990 H   0  0  0  0  0  0  0  0  0  0  0  0
   59.2380   28.7590   48.0200 C   0  0  0  0  0  0  0  0  0  0  0  0
   59.1910   28.9699   49.0986 H   0  0  0  0  0  0  0  0  0  0  0  0
   58.1530   28.1530   47.3790 C   0  0  0  0  0  0  0  0  0  0  0  0
   57.2505   27.8970   47.9535 H   0  0  0  0  0  0  0  0  0  0  0  0
   57.2270   31.2850   43.6270 C   0  0  0  0  0  0  0  0  0  0  0  0
   56.7952   31.6896   42.6997 H   0  0  0  0  0  0  0  0  0  0  0  0
   57.8720   32.2340   44.5680 C   0  0  0  0  0  0  0  0  0  0  0  0
   57.8600   33.6280   44.3690 C   0  0  0  0  0  0  0  0  0  0  0  0
   57.3511   34.0514   43.4905 H   0  0  0  0  0  0  0  0  0  0  0  0
   58.4920   34.4760   45.2830 C   0  0  0  0  0  0  0  0  0  0  0  0
   58.4675   35.5647   45.1276 H   0  0  0  0  0  0  0  0  0  0  0  0
   59.1540   33.9470   46.3920 C   0  0  0  0  0  0  0  0  0  0  0  0
   59.6427   34.6220   47.1101 H   0  0  0  0  0  0  0  0  0  0  0  0
   59.2000   32.5650   46.5960 C   0  0  0  0  0  0  0  0  0  0  0  0
   59.8950   32.0750   47.7110 O   0  0  0  0  0  0  0  0  0  0  0  0
   59.5670   32.3970   49.0320 C   0  0  0  0  0  0  0  0  0  0  0  0
   60.0970   33.5470   49.6500 C   0  0  0  0  0  0  0  0  0  0  0  0
   61.0380   34.4610   48.9120 C   0  0  0  0  0  0  0  0  0  0  0  0
   60.7773   34.4723   47.8434 H   0  0  0  0  0  0  0  0  0  0  0  0
   60.9563   35.4805   49.3170 H   0  0  0  0  0  0  0  0  0  0  0  0
   62.4070   33.9760   49.0760 N   0  0  0  0  0  0  0  0  0  0  0  0
   62.9670   33.2500   47.6010 S   0  0  0  0  0  0  0  0  0  0  0  0
   62.2760   33.8700   46.4170 O   0  0  0  0  0  0  0  0  0  0  0  0
   64.4500   33.4740   47.4770 O   0  0  0  0  0  0  0  0  0  0  0  0
   62.6610   31.4960   47.6220 C   0  0  0  0  0  0  0  0  0  0  0  0
   62.6001   31.1469   48.6633 H   0  0  0  0  0  0  0  0  0  0  0  0
   61.7122   31.2831   47.1078 H   0  0  0  0  0  0  0  0  0  0  0  0
   63.4817   30.9744   47.1078 H   0  0  0  0  0  0  0  0  0  0  0  0
   59.7840   33.8140   50.9920 C   0  0  0  0  0  0  0  0  0  0  0  0
   60.2087   34.7005   51.4858 H   0  0  0  0  0  0  0  0  0  0  0  0
   58.9360   32.9610   51.7060 C   0  0  0  0  0  0  0  0  0  0  0  0
   58.6430   33.2320   53.0040 N   0  0  0  0  0  0  0  0  0  0  0  0
   57.8340   32.4330   53.7430 C   0  0  0  0  0  0  0  0  0  0  0  0
   57.6193   32.6949   54.7896 H   0  0  0  0  0  0  0  0  0  0  0  0
   57.2670   31.2740   53.1860 C   0  0  0  0  0  0  0  0  0  0  0  0
   56.4130   30.4030   54.0350 C   0  0  0  0  0  0  0  0  0  0  0  0
   56.6590   30.2660   55.2650 O   0  0  0  0  0  0  0  0  0  0  0  0
   55.3150   29.7430   53.4670 O   0  0  0  0  0  0  0  0  0  0  0  0
   54.1150   30.4060   53.0730 C   0  0  0  0  0  0  0  0  0  0  0  0
   54.1318   31.4375   53.4546 H   0  0  0  0  0  0  0  0  0  0  0  0
   53.2576   29.8560   53.4882 H   0  0  0  0  0  0  0  0  0  0  0  0
   53.9830   30.4380   51.5540 C   0  0  0  0  0  0  0  0  0  0  0  0
   52.9474   30.6891   51.2812 H   0  0  0  0  0  0  0  0  0  0  0  0
   54.6648   31.1969   51.1426 H   0  0  0  0  0  0  0  0  0  0  0  0
   54.2416   29.4511   51.1426 H   0  0  0  0  0  0  0  0  0  0  0  0
   57.5480   30.9710   51.8330 C   0  0  0  0  0  0  0  0  0  0  0  0
   57.0470   29.9460   51.2920 O   0  0  0  0  0  0  0  0  0  0  0  0
   58.3880   31.8190   51.0840 C   0  0  0  0  0  0  0  0  0  0  0  0
   58.7070   31.5510   49.7410 C   0  0  0  0  0  0  0  0  0  0  0  0
   58.2770   30.6691   49.2437 H   0  0  0  0  0  0  0  0  0  0  0  0
   58.5520   31.7120   45.6820 C   0  0  0  0  0  0  0  0  0  0  0  0
   58.5783   30.6240   45.8417 H   0  0  0  0  0  0  0  0  0  0  0  0
  1  2  1  0
  2  3  1  0
  3  4  2  0
  3  5  1  0
  5  6  1  0
  6  7  1  0
  6  8  1  0
  6  9  1  0
  9 10  2  0
 10 11  1  0
 10 12  1  0
 12 13  1  0
 12 14  2  0
 14 15  1  0
 14 16  1  0
 16 17  1  0
 16 18  2  0
 18 19  1  0
  2 20  2  0
 20 21  1  0
 20 22  1  0
 22 23  2  0
 23 24  1  0
 23 25  1  0
 25 26  1  0
 25 27  2  0
 27 28  1  0
 27 29  1  0
 29 30  1  0
 30 31  1  0
 31 32  2  0
 32 33  1  0
 33 34  1  0
 33 35  1  0
 33 36  1  0
 36 37  1  0
 37 38  2  0
 37 39  2  0
 37 40  1  0
 40 41  1  0
 40 42  1  0
 40 43  1  0
 32 44  1  0
 44 45  1  0
 44 46  2  0
 46 47  1  0
 47 48  1  0
 48 49  1  0
 48 50  2  0
 50 51  1  0
 51 52  2  0
 51 53  1  0
 53 54  1  0
 54 55  1  0
 54 56  1  0
 54 57  1  0
 57 58  1  0
 57 59  1  0
 57 60  1  0
 50 61  1  0
 61 62  2  0
 61 63  1  0
 63 64  2  0
 64 65  1  0
 29 66  2  0
 66 67  1  0
 18  9  1  0
 66 22  1  0
 64 31  1  0
 63 46  1  0
M  CHG  3   5  -1  36  -1  47  -1
M  END
>  <UniqueID>  (63) 
55

>  <SMILES>  (63) 
CCOC(=O)c1c[n-]c2cc(C[N-]S(C)(=O)=O)c(Oc3cccc(/C=C/C(=O)[N-]Cc4ccccc4)c3)cc2c1=O

>  <Energy>  (63) 
73.8879220906797

>  <Genealogy>  (63) 
CCOC(=O)c1c[n-]c2cc(C[N-]S(C)(=O)=O)c(Oc3cccc(C=CC(=O)[N-]Cc4ccccc4)c3)cc2c1=O (protonated)
CCOC(=O)c1c[n-]c2cc(C[N-]S(C)(=O)=O)c(Oc3cccc(/C=C/C(=O)[N-]Cc4ccccc4)c3)cc2c1=O (cis-trans isomerization)
CCOC(=O)c1c[n-]c2cc(C[N-]S(C)(=O)=O)c(Oc3cccc(/C=C/C(=O)[N-]Cc4ccccc4)c3)cc2c1=O (3D coordinates assigned)
CCOC(=O)c1c[n-]c2cc(C[N-]S(C)(=O)=O)c(Oc3cccc(/C=C/C(=O)[N-]Cc4ccccc4)c3)cc2c1=O (optimized conformer: 73.8879220906797 kcal/mol)

>  <smiles>  (63) 
CCOC(=O)c1c[nH]c2cc(CNS(C)(=O)=O)c(Oc3cccc(C=CC(=O)NCc4ccccc4)c3)cc2c1=O

>  <score_type>  (63) 
oracle

>  <origin>  (63) 
adg

>  <m_score__min__energy>  (63) 
-13.33

>  <m_primary>  (63) 
energy

$$$$
63:0
     RDKit          3D

 58 61  0  0  0  0  0  0  0  0999 V2000
   59.8032   22.0652   44.8942 H   0  0  0  0  0  0  0  0  0  0  0  0
   59.2230   22.9150   45.2830 C   0  0  0  0  0  0  0  0  0  0  0  0
   59.8630   24.0310   45.7190 N   0  0  0  0  0  0  0  0  0  0  0  0
   59.1880   25.1160   46.1960 C   0  0  0  0  0  0  0  0  0  0  0  0
   59.8350   26.1460   46.6560 N   0  0  0  0  0  0  0  0  0  0  0  0
   59.4570   27.5470   46.4470 C   0  0  0  0  0  0  0  0  0  0  0  0
   58.5341   27.6120   45.8521 H   0  0  0  0  0  0  0  0  0  0  0  0
   59.1780   28.2050   47.8170 C   0  0  0  0  0  0  0  0  0  0  0  0
   58.3590   28.9301   47.7006 H   0  0  0  0  0  0  0  0  0  0  0  0
   58.9112   27.4065   48.5250 H   0  0  0  0  0  0  0  0  0  0  0  0
   60.4040   28.9330   48.3740 C   0  0  0  0  0  0  0  0  0  0  0  0
   60.1366   29.4161   49.3254 H   0  0  0  0  0  0  0  0  0  0  0  0
   61.2098   28.2013   48.5328 H   0  0  0  0  0  0  0  0  0  0  0  0
   60.8720   29.9570   47.4260 N   0  0  0  0  0  0  0  0  0  0  0  0
   61.5400   31.1450   47.9090 C   0  0  0  0  0  0  0  0  0  0  0  0
   62.6580   31.6640   47.2340 C   0  0  0  0  0  0  0  0  0  0  0  0
   63.0422   31.1614   46.3341 H   0  0  0  0  0  0  0  0  0  0  0  0
   63.2800   32.8220   47.7110 C   0  0  0  0  0  0  0  0  0  0  0  0
   64.1561   33.2294   47.1852 H   0  0  0  0  0  0  0  0  0  0  0  0
   62.8060   33.4470   48.8230 N   0  0  0  0  0  0  0  0  0  0  0  0
   63.2790   34.3130   49.1640 H   0  0  0  0  0  0  0  0  0  0  0  0
   61.7280   32.9650   49.4990 C   0  0  0  0  0  0  0  0  0  0  0  0
   61.3662   33.4880   50.3965 H   0  0  0  0  0  0  0  0  0  0  0  0
   61.0790   31.8100   49.0590 C   0  0  0  0  0  0  0  0  0  0  0  0
   60.2099   31.4214   49.6101 H   0  0  0  0  0  0  0  0  0  0  0  0
   60.6370   29.7720   45.9840 C   0  0  0  0  0  0  0  0  0  0  0  0
   59.6915   30.2609   45.7063 H   0  0  0  0  0  0  0  0  0  0  0  0
   61.4746   30.2190   45.4284 H   0  0  0  0  0  0  0  0  0  0  0  0
   60.5540   28.2820   45.6370 C   0  0  0  0  0  0  0  0  0  0  0  0
   60.3289   28.1810   44.5650 H   0  0  0  0  0  0  0  0  0  0  0  0
   61.5215   27.8242   45.8907 H   0  0  0  0  0  0  0  0  0  0  0  0
   57.7750   25.0990   46.2170 C   0  0  0  0  0  0  0  0  0  0  0  0
   57.0120   26.1860   46.6670 O   0  0  0  0  0  0  0  0  0  0  0  0
   55.9030   26.7120   45.9910 C   0  0  0  0  0  0  0  0  0  0  0  0
   54.8060   26.0920   45.9710 O   0  0  0  0  0  0  0  0  0  0  0  0
   55.9910   27.9870   45.3520 N   0  0  0  0  0  0  0  0  0  0  0  0
   57.1100   28.3830   44.5040 C   0  0  0  0  0  0  0  0  0  0  0  0
   58.0528   28.1824   45.0340 H   0  0  0  0  0  0  0  0  0  0  0  0
   57.0658   27.8049   43.5692 H   0  0  0  0  0  0  0  0  0  0  0  0
   57.0330   29.8750   44.1630 C   0  0  0  0  0  0  0  0  0  0  0  0
   57.9024   30.1480   43.5469 H   0  0  0  0  0  0  0  0  0  0  0  0
   56.0973   30.0602   43.6151 H   0  0  0  0  0  0  0  0  0  0  0  0
   57.0310   30.6740   45.3470 O   0  0  0  0  0  0  0  0  0  0  0  0
   57.7500   31.8650   45.5320 C   0  0  0  0  0  0  0  0  0  0  0  0
   58.1990   32.3000   46.7960 C   0  0  0  0  0  0  0  0  0  0  0  0
   57.9906   31.6943   47.6903 H   0  0  0  0  0  0  0  0  0  0  0  0
   58.9090   33.5000   46.9160 C   0  0  0  0  0  0  0  0  0  0  0  0
   59.2599   33.8335   47.9038 H   0  0  0  0  0  0  0  0  0  0  0  0
   59.1730   34.2750   45.7850 C   0  0  0  0  0  0  0  0  0  0  0  0
   59.7313   35.2178   45.8824 H   0  0  0  0  0  0  0  0  0  0  0  0
   58.7280   33.8530   44.5290 C   0  0  0  0  0  0  0  0  0  0  0  0
   58.9351   34.4641   43.6381 H   0  0  0  0  0  0  0  0  0  0  0  0
   58.0190   32.6530   44.4050 C   0  0  0  0  0  0  0  0  0  0  0  0
   57.6699   32.3256   43.4146 H   0  0  0  0  0  0  0  0  0  0  0  0
   57.1090   23.9410   45.8040 C   0  0  0  0  0  0  0  0  0  0  0  0
   56.0112   23.8930   45.8546 H   0  0  0  0  0  0  0  0  0  0  0  0
   57.8310   22.8460   45.3280 C   0  0  0  0  0  0  0  0  0  0  0  0
   57.3080   21.9385   44.9920 H   0  0  0  0  0  0  0  0  0  0  0  0
  1  2  1  0
  2  3  1  0
  3  4  1  0
  4  5  2  0
  5  6  1  0
  6  7  1  0
  6  8  1  0
  8  9  1  0
  8 10  1  0
  8 11  1  0
 11 12  1  0
 11 13  1  0
 11 14  1  0
 14 15  1  0
 15 16  2  0
 16 17  1  0
 16 18  1  0
 18 19  1  0
 18 20  2  0
 20 21  1  0
 20 22  1  0
 22 23  1  0
 22 24  2  0
 24 25  1  0
 14 26  1  0
 26 27  1  0
 26 28  1  0
 26 29  1  0
 29 30  1  0
 29 31  1  0
  4 32  1  0
 32 33  1  0
 33 34  1  0
 34 35  2  0
 34 36  1  0
 36 37  1  0
 37 38  1  0
 37 39  1  0
 37 40  1  0
 40 41  1  0
 40 42  1  0
 40 43  1  0
 43 44  1  0
 44 45  2  0
 45 46  1  0
 45 47  1  0
 47 48  1  0
 47 49  2  0
 49 50  1  0
 49 51  1  0
 51 52  1  0
 51 53  2  0
 53 54  1  0
 32 55  2  0
 55 56  1  0
 55 57  1  0
 57 58  1  0
 57  2  2  0
 29  6  1  0
 53 44  1  0
 24 15  1  0
M  CHG  3   3  -1  20   1  36  -1
M  END
>  <UniqueID>  (64) 
56

>  <SMILES>  (64) 
O=C([N-]CCOc1ccccc1)Oc1ccc[n-]/c1=N\C1CCN(c2cc[nH+]cc2)CC1

>  <Energy>  (64) 
69.71989115733848

>  <Genealogy>  (64) 
O=C([N-]CCOc1ccccc1)Oc1ccc[n-]c1=NC1CCN(c2cc[nH+]cc2)CC1 (protonated)
O=C([N-]CCOc1ccccc1)Oc1ccc[n-]/c1=N\C1CCN(c2cc[nH+]cc2)CC1 (cis-trans isomerization)
O=C([N-]CCOc1ccccc1)Oc1ccc[n-]/c1=N\C1CCN(c2cc[nH+]cc2)CC1 (3D coordinates assigned)
O=C([N-]CCOc1ccccc1)Oc1ccc[n-]/c1=N\C1CCN(c2cc[nH+]cc2)CC1 (nonaromatic ring conformer: 69.71989115733848 kcal/mol)

>  <smiles>  (64) 
O=C(NCCOc1ccccc1)Oc1ccc[nH]c1=NC1CCN(c2ccncc2)CC1

>  <score_type>  (64) 
oracle

>  <origin>  (64) 
adg

>  <m_score__min__energy>  (64) 
-10.369999999999999

>  <m_primary>  (64) 
energy

$$$$
64:0
     RDKit          3D

 33 34  0  0  0  0  0  0  0  0999 V2000
   58.6710   30.3390   45.8170 H   0  0  0  0  0  0  0  0  0  0  0  0
   59.0810   30.6890   46.6750 O   0  0  0  0  0  0  0  0  0  0  0  0
   59.8230   31.8700   46.7320 C   0  0  0  0  0  0  0  0  0  0  0  0
   61.1640   31.7970   47.1280 C   0  0  0  0  0  0  0  0  0  0  0  0
   61.6066   30.8219   47.3796 H   0  0  0  0  0  0  0  0  0  0  0  0
   61.9440   32.9530   47.2060 C   0  0  0  0  0  0  0  0  0  0  0  0
   62.9947   32.8864   47.5248 H   0  0  0  0  0  0  0  0  0  0  0  0
   61.3920   34.1920   46.8800 C   0  0  0  0  0  0  0  0  0  0  0  0
   62.0084   35.1011   46.9395 H   0  0  0  0  0  0  0  0  0  0  0  0
   60.0570   34.2790   46.4780 C   0  0  0  0  0  0  0  0  0  0  0  0
   59.6309   35.2561   46.2065 H   0  0  0  0  0  0  0  0  0  0  0  0
   59.2540   33.1260   46.4180 C   0  0  0  0  0  0  0  0  0  0  0  0
   57.8570   33.2290   45.9480 C   0  0  0  0  0  0  0  0  0  0  0  0
   57.1528   33.8018   46.5693 H   0  0  0  0  0  0  0  0  0  0  0  0
   57.3820   32.6770   44.8210 C   0  0  0  0  0  0  0  0  0  0  0  0
   56.9392   33.3558   44.0772 H   0  0  0  0  0  0  0  0  0  0  0  0
   57.4020   31.2360   44.4920 C   0  0  0  0  0  0  0  0  0  0  0  0
   58.1870   30.8300   43.5940 O   0  0  0  0  0  0  0  0  0  0  0  0
   56.5940   30.3000   45.2140 N   0  0  0  0  0  0  0  0  0  0  0  0
   56.2390   28.9770   44.7130 C   0  0  0  0  0  0  0  0  0  0  0  0
   55.1594   28.8153   44.8481 H   0  0  0  0  0  0  0  0  0  0  0  0
   56.4980   28.9169   43.6456 H   0  0  0  0  0  0  0  0  0  0  0  0
   56.9990   27.9130   45.4630 C   0  0  0  0  0  0  0  0  0  0  0  0
   58.3990   28.0010   45.5450 C   0  0  0  0  0  0  0  0  0  0  0  0
   58.9220   28.8470   45.0752 H   0  0  0  0  0  0  0  0  0  0  0  0
   59.1310   27.0200   46.2200 C   0  0  0  0  0  0  0  0  0  0  0  0
   60.2265   27.0975   46.2817 H   0  0  0  0  0  0  0  0  0  0  0  0
   58.4740   25.9420   46.8160 C   0  0  0  0  0  0  0  0  0  0  0  0
   59.0521   25.1710   47.3464 H   0  0  0  0  0  0  0  0  0  0  0  0
   57.0820   25.8420   46.7390 C   0  0  0  0  0  0  0  0  0  0  0  0
   56.5668   24.9917   47.2097 H   0  0  0  0  0  0  0  0  0  0  0  0
   56.3410   26.8200   46.0650 C   0  0  0  0  0  0  0  0  0  0  0  0
   54.9580   26.6960   46.0010 O   0  0  0  0  0  0  0  0  0  0  0  0
  1  2  1  0
  2  3  1  0
  3  4  2  0
  4  5  1  0
  4  6  1  0
  6  7  1  0
  6  8  2  0
  8  9  1  0
  8 10  1  0
 10 11  1  0
 10 12  2  0
 12 13  1  0
 13 14  1  0
 13 15  2  0
 15 16  1  0
 15 17  1  0
 17 18  2  0
 17 19  1  0
 19 20  1  0
 20 21  1  0
 20 22  1  0
 20 23  1  0
 23 24  2  0
 24 25  1  0
 24 26  1  0
 26 27  1  0
 26 28  2  0
 28 29  1  0
 28 30  1  0
 30 31  1  0
 30 32  2  0
 32 33  1  0
 12  3  1  0
 32 23  1  0
M  CHG  2  19  -1  33  -1
M  END
>  <UniqueID>  (65) 
57

>  <SMILES>  (65) 
O=C(/C=C\c1ccccc1O)[N-]Cc1ccccc1[O-]

>  <Energy>  (65) 
40.52401367343768

>  <Genealogy>  (65) 
O=C(C=Cc1ccccc1O)[N-]Cc1ccccc1[O-] (protonated)
O=C(/C=C\c1ccccc1O)[N-]Cc1ccccc1[O-] (cis-trans isomerization)
O=C(/C=C\c1ccccc1O)[N-]Cc1ccccc1[O-] (3D coordinates assigned)
O=C(/C=C\c1ccccc1O)[N-]Cc1ccccc1[O-] (optimized conformer: 40.52401367343768 kcal/mol)

>  <smiles>  (65) 
O=C(C=Cc1ccccc1O)NCc1ccccc1O

>  <score_type>  (65) 
oracle

>  <origin>  (65) 
adg

>  <m_score__min__energy>  (65) 
-11.94

>  <m_primary>  (65) 
energy

$$$$
65:0
     RDKit          3D

 50 52  0  0  0  0  0  0  0  0999 V2000
   58.7230   31.4750   47.8930 N   0  0  0  0  0  0  0  0  0  0  0  0
   58.9730   32.7920   47.3870 C   0  0  0  0  0  0  0  0  0  0  0  0
   59.6930   33.7000   48.1790 C   0  0  0  0  0  0  0  0  0  0  0  0
   60.0120   34.9700   47.6910 C   0  0  0  0  0  0  0  0  0  0  0  0
   59.6210   35.3430   46.4040 C   0  0  0  0  0  0  0  0  0  0  0  0
   58.9030   34.4500   45.6060 C   0  0  0  0  0  0  0  0  0  0  0  0
   58.5560   33.1800   46.0910 C   0  0  0  0  0  0  0  0  0  0  0  0
   57.8260   32.2920   45.2330 N   0  0  0  0  0  0  0  0  0  0  0  0
   58.3330   31.0110   44.8290 C   0  0  0  0  0  0  0  0  0  0  0  0
   59.4610   30.6160   45.2330 O   0  0  0  0  0  0  0  0  0  0  0  0
   57.5330   30.1380   43.9100 C   0  0  0  0  0  0  0  0  0  0  0  0
   56.1380   29.9470   44.4440 C   0  0  0  0  0  0  0  0  0  0  0  0
   55.2860   30.8550   44.2610 O   0  0  0  0  0  0  0  0  0  0  0  0
   55.7730   28.8100   45.2400 N   0  0  0  0  0  0  0  0  0  0  0  0
   56.6350   27.7230   45.6000 C   0  0  0  0  0  0  0  0  0  0  0  0
   58.0310   27.8710   45.5800 C   0  0  0  0  0  0  0  0  0  0  0  0
   58.8550   26.8030   45.9410 C   0  0  0  0  0  0  0  0  0  0  0  0
   58.2950   25.5770   46.3070 C   0  0  0  0  0  0  0  0  0  0  0  0
   56.9040   25.4040   46.2920 C   0  0  0  0  0  0  0  0  0  0  0  0
   56.1950   23.8680   46.7950 S   0  0  0  0  0  0  0  0  0  0  0  0
   57.2860   22.9760   47.3190 O   0  0  0  0  0  0  0  0  0  0  0  0
   55.1890   24.0900   47.8900 O   0  0  0  0  0  0  0  0  0  0  0  0
   55.4210   23.1290   45.4150 N   0  0  0  0  0  0  0  0  0  0  0  0
   55.7490   21.6880   45.3290 C   0  0  0  0  0  0  0  0  0  0  0  0
   56.7430   21.3820   44.1940 C   0  0  0  0  0  0  0  0  0  0  0  0
   56.2730   21.7930   42.9180 O   0  0  0  0  0  0  0  0  0  0  0  0
   55.5120   22.9960   42.9470 C   0  0  0  0  0  0  0  0  0  0  0  0
   55.7590   23.8700   44.1880 C   0  0  0  0  0  0  0  0  0  0  0  0
   56.0760   26.4780   45.9220 C   0  0  0  0  0  0  0  0  0  0  0  0
   54.6930   26.3140   45.8860 O   0  0  0  0  0  0  0  0  0  0  0  0
   58.7310   30.6360   47.2750 H   0  0  0  0  0  0  0  0  0  0  0  0
   58.5690   31.3190   48.9140 H   0  0  0  0  0  0  0  0  0  0  0  0
   60.0087   33.4096   49.1919 H   0  0  0  0  0  0  0  0  0  0  0  0
   60.5717   35.6764   48.3217 H   0  0  0  0  0  0  0  0  0  0  0  0
   59.8785   36.3405   46.0184 H   0  0  0  0  0  0  0  0  0  0  0  0
   58.6069   34.7447   44.5884 H   0  0  0  0  0  0  0  0  0  0  0  0
   56.8140   32.4970   45.0720 H   0  0  0  0  0  0  0  0  0  0  0  0
   57.4792   30.6103   42.9180 H   0  0  0  0  0  0  0  0  0  0  0  0
   58.0230   29.1559   43.8368 H   0  0  0  0  0  0  0  0  0  0  0  0
   58.4767   28.8306   45.2792 H   0  0  0  0  0  0  0  0  0  0  0  0
   59.9479   26.9276   45.9371 H   0  0  0  0  0  0  0  0  0  0  0  0
   58.9477   24.7443   46.6081 H   0  0  0  0  0  0  0  0  0  0  0  0
   56.1927   21.3686   46.2835 H   0  0  0  0  0  0  0  0  0  0  0  0
   54.8175   21.1428   45.1167 H   0  0  0  0  0  0  0  0  0  0  0  0
   57.6874   21.9051   44.4048 H   0  0  0  0  0  0  0  0  0  0  0  0
   56.8766   20.2907   44.1593 H   0  0  0  0  0  0  0  0  0  0  0  0
   55.7656   23.5859   42.0539 H   0  0  0  0  0  0  0  0  0  0  0  0
   54.4533   22.6990   42.9760 H   0  0  0  0  0  0  0  0  0  0  0  0
   56.8194   24.1608   44.2210 H   0  0  0  0  0  0  0  0  0  0  0  0
   55.1226   24.7651   44.1257 H   0  0  0  0  0  0  0  0  0  0  0  0
  1  2  1  0
  2  3  2  0
  3  4  1  0
  4  5  2  0
  5  6  1  0
  6  7  2  0
  7  8  1  0
  8  9  1  0
  9 10  2  0
  9 11  1  0
 11 12  1  0
 12 13  2  0
 12 14  1  0
 14 15  1  0
 15 16  2  0
 16 17  1  0
 17 18  2  0
 18 19  1  0
 19 20  1  0
 20 21  2  0
 20 22  2  0
 20 23  1  0
 23 24  1  0
 24 25  1  0
 25 26  1  0
 26 27  1  0
 27 28  1  0
 19 29  2  0
 29 30  1  0
  7  2  1  0
 29 15  1  0
 28 23  1  0
  1 31  1  0
  1 32  1  0
  3 33  1  0
  4 34  1  0
  5 35  1  0
  6 36  1  0
  8 37  1  0
 11 38  1  0
 11 39  1  0
 16 40  1  0
 17 41  1  0
 18 42  1  0
 24 43  1  0
 24 44  1  0
 25 45  1  0
 25 46  1  0
 27 47  1  0
 27 48  1  0
 28 49  1  0
 28 50  1  0
M  CHG  2  14  -1  30  -1
M  END
>  <UniqueID>  (66) 
58

>  <SMILES>  (66) 
Nc1ccccc1NC(=O)CC(=O)[N-]c1cccc(S(=O)(=O)N2CCOCC2)c1[O-]

>  <Energy>  (66) 
67.69097744437525

>  <Genealogy>  (66) 
Nc1ccccc1NC(=O)CC(=O)[N-]c1cccc(S(=O)(=O)N2CCOCC2)c1[O-] (protonated)
Nc1ccccc1NC(=O)CC(=O)[N-]c1cccc(S(=O)(=O)N2CCOCC2)c1[O-] (3D coordinates assigned)
Nc1ccccc1NC(=O)CC(=O)[N-]c1cccc(S(=O)(=O)N2CCOCC2)c1[O-] (nonaromatic ring conformer: 67.69097744437525 kcal/mol)

>  <smiles>  (66) 
Nc1ccccc1NC(=O)CC(=O)Nc1cccc(S(=O)(=O)N2CCOCC2)c1O

>  <score_type>  (66) 
oracle

>  <origin>  (66) 
adg

>  <m_score__min__energy>  (66) 
-15.85

>  <m_primary>  (66) 
energy

$$$$
66:0
     RDKit          3D

 41 44  0  0  0  0  0  0  0  0999 V2000
   57.3340   29.3380   51.6160 O   0  0  0  0  0  0  0  0  0  0  0  0
   56.7670   30.4000   51.9920 C   0  0  0  0  0  0  0  0  0  0  0  0
   55.6640   30.3500   52.9050 N   0  0  0  0  0  0  0  0  0  0  0  0
   54.3290   30.8150   52.6580 C   0  0  0  0  0  0  0  0  0  0  0  0
   53.9750   31.1790   51.3340 C   0  0  0  0  0  0  0  0  0  0  0  0
   52.6710   31.6120   51.0280 C   0  0  0  0  0  0  0  0  0  0  0  0
   51.7460   31.6580   52.0660 C   0  0  0  0  0  0  0  0  0  0  0  0
   50.4520   32.0170   52.0040 N   0  0  0  0  0  0  0  0  0  0  0  0
   49.9500   31.8860   53.2300 N   0  0  0  0  0  0  0  0  0  0  0  0
   50.9200   31.4440   54.0670 C   0  0  0  0  0  0  0  0  0  0  0  0
   52.0740   31.2950   53.3360 C   0  0  0  0  0  0  0  0  0  0  0  0
   53.3490   30.8580   53.6820 C   0  0  0  0  0  0  0  0  0  0  0  0
   57.2780   31.6770   51.5860 N   0  0  0  0  0  0  0  0  0  0  0  0
   58.1850   31.8690   50.4870 C   0  0  0  0  0  0  0  0  0  0  0  0
   58.9820   33.0180   50.4490 C   0  0  0  0  0  0  0  0  0  0  0  0
   59.8510   33.2400   49.3820 C   0  0  0  0  0  0  0  0  0  0  0  0
   59.9270   32.3290   48.3220 C   0  0  0  0  0  0  0  0  0  0  0  0
   61.0980   32.6670   47.0480 Cl  0  0  0  0  0  0  0  0  0  0  0  0
   59.1060   31.1750   48.3260 C   0  0  0  0  0  0  0  0  0  0  0  0
   59.1090   30.1850   47.2190 C   0  0  0  0  0  0  0  0  0  0  0  0
   60.1610   29.5560   46.9200 O   0  0  0  0  0  0  0  0  0  0  0  0
   57.8830   29.8840   46.5340 N   0  0  0  0  0  0  0  0  0  0  0  0
   57.5300   30.1830   45.3130 C   0  0  0  0  0  0  0  0  0  0  0  0
   58.3340   31.0320   44.6150 N   0  0  0  0  0  0  0  0  0  0  0  0
   58.0640   31.4190   43.3410 C   0  0  0  0  0  0  0  0  0  0  0  0
   56.9250   30.9410   42.6950 C   0  0  0  0  0  0  0  0  0  0  0  0
   56.0890   30.0490   43.3620 C   0  0  0  0  0  0  0  0  0  0  0  0
   56.3850   29.6450   44.6680 C   0  0  0  0  0  0  0  0  0  0  0  0
   55.5720   28.6880   45.2620 O   0  0  0  0  0  0  0  0  0  0  0  0
   58.2410   30.9620   49.4150 C   0  0  0  0  0  0  0  0  0  0  0  0
   54.7294   31.1223   50.5355 H   0  0  0  0  0  0  0  0  0  0  0  0
   52.3933   31.9036   50.0044 H   0  0  0  0  0  0  0  0  0  0  0  0
   50.8040   31.2405   55.1418 H   0  0  0  0  0  0  0  0  0  0  0  0
   53.5880   30.5568   54.7126 H   0  0  0  0  0  0  0  0  0  0  0  0
   57.0080   32.5090   52.1580 H   0  0  0  0  0  0  0  0  0  0  0  0
   58.9225   33.7513   51.2667 H   0  0  0  0  0  0  0  0  0  0  0  0
   60.4833   34.1400   49.3729 H   0  0  0  0  0  0  0  0  0  0  0  0
   58.7437   32.1090   42.8196 H   0  0  0  0  0  0  0  0  0  0  0  0
   56.6893   31.2646   41.6704 H   0  0  0  0  0  0  0  0  0  0  0  0
   55.1913   29.6601   42.8592 H   0  0  0  0  0  0  0  0  0  0  0  0
   57.5974   30.0700   49.4275 H   0  0  0  0  0  0  0  0  0  0  0  0
  1  2  2  0
  2  3  1  0
  3  4  1  0
  4  5  2  0
  5  6  1  0
  6  7  2  0
  7  8  1  0
  8  9  1  0
  9 10  2  0
 10 11  1  0
 11 12  2  0
  2 13  1  0
 13 14  1  0
 14 15  2  0
 15 16  1  0
 16 17  2  0
 17 18  1  0
 17 19  1  0
 19 20  1  0
 20 21  2  0
 20 22  1  0
 22 23  2  3
 23 24  1  0
 24 25  1  0
 25 26  2  0
 26 27  1  0
 27 28  2  0
 28 29  1  0
 19 30  2  0
 12  4  1  0
 30 14  1  0
 11  7  1  0
 28 23  1  0
  5 31  1  0
  6 32  1  0
 10 33  1  0
 12 34  1  0
 13 35  1  0
 15 36  1  0
 16 37  1  0
 25 38  1  0
 26 39  1  0
 27 40  1  0
 30 41  1  0
M  CHG  4   3  -1   8  -1  24  -1  29  -1
M  END
>  <UniqueID>  (67) 
59

>  <SMILES>  (67) 
O=C([N-]c1ccc2[n-]ncc2c1)Nc1ccc(Cl)c(C(=O)N=c2[n-]cccc2[O-])c1

>  <Energy>  (67) 
107.52144102235664

>  <Genealogy>  (67) 
O=C([N-]c1ccc2[n-]ncc2c1)Nc1ccc(Cl)c(C(=O)N=c2[n-]cccc2[O-])c1 (protonated)
O=C([N-]c1ccc2[n-]ncc2c1)Nc1ccc(Cl)c(C(=O)N=c2[n-]cccc2[O-])c1 (3D coordinates assigned)
O=C([N-]c1ccc2[n-]ncc2c1)Nc1ccc(Cl)c(C(=O)N=c2[n-]cccc2[O-])c1 (optimized conformer: 107.52144102235664 kcal/mol)

>  <smiles>  (67) 
O=C(Nc1ccc(Cl)c(C(=O)N=c2[nH]cccc2O)c1)Nc1ccc2[nH]ncc2c1

>  <score_type>  (67) 
oracle

>  <origin>  (67) 
adg

>  <m_score__min__energy>  (67) 
-16.030000000000001

>  <m_primary>  (67) 
energy

$$$$
67:0
     RDKit          3D

 68 71  0  0  0  0  0  0  0  0999 V2000
   56.3940   18.8570   46.5660 C   0  0  0  0  0  0  0  0  0  0  0  0
   57.7060   20.0440   46.7820 S   0  0  0  0  0  0  0  0  0  0  0  0
   58.9630   19.3020   47.1350 O   0  0  0  0  0  0  0  0  0  0  0  0
   57.3780   20.9950   47.9010 O   0  0  0  0  0  0  0  0  0  0  0  0
   57.9690   20.9250   45.3100 N   0  0  0  0  0  0  0  0  0  0  0  0
   57.9400   22.3600   45.1980 C   0  0  0  0  0  0  0  0  0  0  0  0
   58.9610   23.1750   45.7260 C   0  0  0  0  0  0  0  0  0  0  0  0
   58.8920   24.5660   45.6010 C   0  0  0  0  0  0  0  0  0  0  0  0
   57.8090   25.1600   44.9440 C   0  0  0  0  0  0  0  0  0  0  0  0
   57.7320   26.5920   44.8210 C   0  0  0  0  0  0  0  0  0  0  0  0
   57.6670   27.7890   44.6980 C   0  0  0  0  0  0  0  0  0  0  0  0
   57.5830   29.2230   44.5820 C   0  0  0  0  0  0  0  0  0  0  0  0
   58.7350   30.0130   44.6170 C   0  0  0  0  0  0  0  0  0  0  0  0
   59.9940   29.4080   44.7170 O   0  0  0  0  0  0  0  0  0  0  0  0
   60.7590   29.3830   45.9200 C   0  0  0  0  0  0  0  0  0  0  0  0
   60.1390   28.3930   46.9020 C   0  0  0  0  0  0  0  0  0  0  0  0
   59.0340   29.0270   47.6140 N   0  0  0  0  0  0  0  0  0  0  0  0
   59.6070   30.4050   48.5060 S   0  0  0  0  0  0  0  0  0  0  0  0
   58.6150   30.7240   49.5890 O   0  0  0  0  0  0  0  0  0  0  0  0
   59.7170   31.5860   47.5820 O   0  0  0  0  0  0  0  0  0  0  0  0
   61.2000   30.0790   49.2560 C   0  0  0  0  0  0  0  0  0  0  0  0
   62.1720   31.1760   48.9200 C   0  0  0  0  0  0  0  0  0  0  0  0
   62.8000   31.2090   47.6620 C   0  0  0  0  0  0  0  0  0  0  0  0
   63.7160   32.2220   47.3590 C   0  0  0  0  0  0  0  0  0  0  0  0
   64.0180   33.2020   48.3110 C   0  0  0  0  0  0  0  0  0  0  0  0
   63.4080   33.1670   49.5690 C   0  0  0  0  0  0  0  0  0  0  0  0
   62.4920   32.1560   49.8770 C   0  0  0  0  0  0  0  0  0  0  0  0
   58.6160   31.3670   44.5580 N   0  0  0  0  0  0  0  0  0  0  0  0
   57.3900   31.9540   44.4700 C   0  0  0  0  0  0  0  0  0  0  0  0
   57.2710   33.2460   44.4000 N   0  0  0  0  0  0  0  0  0  0  0  0
   57.2920   34.1580   45.5440 C   0  0  0  0  0  0  0  0  0  0  0  0
   58.6550   34.2020   46.1830 C   0  0  0  0  0  0  0  0  0  0  0  0
   58.7870   34.4450   47.5610 C   0  0  0  0  0  0  0  0  0  0  0  0
   60.0530   34.4430   48.1570 C   0  0  0  0  0  0  0  0  0  0  0  0
   61.1910   34.1940   47.3850 C   0  0  0  0  0  0  0  0  0  0  0  0
   61.0680   33.9600   46.0140 C   0  0  0  0  0  0  0  0  0  0  0  0
   59.8060   33.9630   45.4120 C   0  0  0  0  0  0  0  0  0  0  0  0
   56.2950   31.2000   44.4520 O   0  0  0  0  0  0  0  0  0  0  0  0
   56.3470   29.8740   44.5070 C   0  0  0  0  0  0  0  0  0  0  0  0
   55.1650   29.1440   44.5020 O   0  0  0  0  0  0  0  0  0  0  0  0
   56.7950   24.3590   44.4090 C   0  0  0  0  0  0  0  0  0  0  0  0
   56.8610   22.9680   44.5350 C   0  0  0  0  0  0  0  0  0  0  0  0
   56.0309   18.5285   47.5510 H   0  0  0  0  0  0  0  0  0  0  0  0
   55.5681   19.3210   46.0068 H   0  0  0  0  0  0  0  0  0  0  0  0
   56.7733   17.9890   46.0068 H   0  0  0  0  0  0  0  0  0  0  0  0
   58.1040   20.3560   44.4460 H   0  0  0  0  0  0  0  0  0  0  0  0
   59.8176   22.7142   46.2397 H   0  0  0  0  0  0  0  0  0  0  0  0
   59.6912   25.1948   46.0203 H   0  0  0  0  0  0  0  0  0  0  0  0
   61.7899   29.0748   45.6916 H   0  0  0  0  0  0  0  0  0  0  0  0
   60.7651   30.3870   46.3693 H   0  0  0  0  0  0  0  0  0  0  0  0
   59.7637   27.5184   46.3504 H   0  0  0  0  0  0  0  0  0  0  0  0
   60.9027   28.0751   47.6271 H   0  0  0  0  0  0  0  0  0  0  0  0
   61.0815   30.0217   50.3481 H   0  0  0  0  0  0  0  0  0  0  0  0
   61.5890   29.1263   48.8675 H   0  0  0  0  0  0  0  0  0  0  0  0
   62.5702   30.4359   46.9140 H   0  0  0  0  0  0  0  0  0  0  0  0
   64.1994   32.2481   46.3712 H   0  0  0  0  0  0  0  0  0  0  0  0
   64.7354   34.0002   48.0699 H   0  0  0  0  0  0  0  0  0  0  0  0
   63.6491   33.9361   50.3176 H   0  0  0  0  0  0  0  0  0  0  0  0
   62.0205   32.1271   50.8704 H   0  0  0  0  0  0  0  0  0  0  0  0
   57.0238   35.1684   45.2018 H   0  0  0  0  0  0  0  0  0  0  0  0
   56.5698   33.7957   46.2905 H   0  0  0  0  0  0  0  0  0  0  0  0
   57.8930   34.6372   48.1724 H   0  0  0  0  0  0  0  0  0  0  0  0
   60.1527   34.6378   49.2350 H   0  0  0  0  0  0  0  0  0  0  0  0
   62.1842   34.1824   47.8577 H   0  0  0  0  0  0  0  0  0  0  0  0
   61.9656   33.7729   45.4063 H   0  0  0  0  0  0  0  0  0  0  0  0
   59.7135   33.7778   44.3317 H   0  0  0  0  0  0  0  0  0  0  0  0
   55.9446   24.8238   43.8885 H   0  0  0  0  0  0  0  0  0  0  0  0
   56.0605   22.3439   44.1110 H   0  0  0  0  0  0  0  0  0  0  0  0
  1  2  1  0
  2  3  2  0
  2  4  2  0
  2  5  1  0
  5  6  1  0
  6  7  2  0
  7  8  1  0
  8  9  2  0
  9 10  1  0
 10 11  3  0
 11 12  1  0
 12 13  1  0
 13 14  1  0
 14 15  1  0
 15 16  1  0
 16 17  1  0
 17 18  1  0
 18 19  2  0
 18 20  2  0
 18 21  1  0
 21 22  1  0
 22 23  2  0
 23 24  1  0
 24 25  2  0
 25 26  1  0
 26 27  2  0
 13 28  2  0
 28 29  1  0
 29 30  2  3
 30 31  1  0
 31 32  1  0
 32 33  2  0
 33 34  1  0
 34 35  2  0
 35 36  1  0
 36 37  2  0
 29 38  1  0
 38 39  1  0
 39 40  1  0
  9 41  1  0
 41 42  2  0
 42  6  1  0
 39 12  2  0
 27 22  1  0
 37 32  1  0
  1 43  1  0
  1 44  1  0
  1 45  1  0
  5 46  1  0
  7 47  1  0
  8 48  1  0
 15 49  1  0
 15 50  1  0
 16 51  1  0
 16 52  1  0
 21 53  1  0
 21 54  1  0
 23 55  1  0
 24 56  1  0
 25 57  1  0
 26 58  1  0
 27 59  1  0
 31 60  1  0
 31 61  1  0
 33 62  1  0
 34 63  1  0
 35 64  1  0
 36 65  1  0
 37 66  1  0
 41 67  1  0
 42 68  1  0
M  CHG  2  17  -1  40  -1
M  END
>  <UniqueID>  (68) 
60

>  <SMILES>  (68) 
CS(=O)(=O)Nc1ccc(C#Cc2c(OCC[N-]S(=O)(=O)Cc3ccccc3)nc(=NCc3ccccc3)oc2[O-])cc1

>  <Energy>  (68) 
55.77089242669694

>  <Genealogy>  (68) 
CS(=O)(=O)Nc1ccc(C#Cc2c(OCC[N-]S(=O)(=O)Cc3ccccc3)nc(=NCc3ccccc3)oc2[O-])cc1 (protonated)
CS(=O)(=O)Nc1ccc(C#Cc2c(OCC[N-]S(=O)(=O)Cc3ccccc3)nc(=NCc3ccccc3)oc2[O-])cc1 (3D coordinates assigned)
CS(=O)(=O)Nc1ccc(C#Cc2c(OCC[N-]S(=O)(=O)Cc3ccccc3)nc(=NCc3ccccc3)oc2[O-])cc1 (optimized conformer: 55.77089242669694 kcal/mol)

>  <smiles>  (68) 
CS(=O)(=O)Nc1ccc(C#Cc2c(OCCNS(=O)(=O)Cc3ccccc3)nc(=NCc3ccccc3)oc2O)cc1

>  <score_type>  (68) 
oracle

>  <origin>  (68) 
adg

>  <m_score__min__energy>  (68) 
-12.69

>  <m_primary>  (68) 
energy

$$$$
68:0
     RDKit          3D

 57 61  0  0  0  0  0  0  0  0999 V2000
   54.4377   23.8262   45.9791 H   0  0  0  0  0  0  0  0  0  0  0  0
   55.1960   24.6110   46.1170 C   0  0  0  0  0  0  0  0  0  0  0  0
   55.1090   25.8770   45.6290 N   0  0  0  0  0  0  0  0  0  0  0  0
   56.2580   26.4550   46.0510 C   0  0  0  0  0  0  0  0  0  0  0  0
   56.6800   27.7620   45.8380 C   0  0  0  0  0  0  0  0  0  0  0  0
   55.9500   28.6000   45.1630 N   0  0  0  0  0  0  0  0  0  0  0  0
   56.4470   29.3460   44.0120 C   0  0  0  0  0  0  0  0  0  0  0  0
   56.2206   28.5978   43.2381 H   0  0  0  0  0  0  0  0  0  0  0  0
   56.2570   30.8440   44.1550 C   0  0  0  0  0  0  0  0  0  0  0  0
   56.0368   31.4577   43.2691 H   0  0  0  0  0  0  0  0  0  0  0  0
   55.6095   31.4917   44.7643 H   0  0  0  0  0  0  0  0  0  0  0  0
   57.6410   30.2290   44.3320 C   0  0  0  0  0  0  0  0  0  0  0  0
   58.4197   30.3981   43.5737 H   0  0  0  0  0  0  0  0  0  0  0  0
   58.4068   30.2478   45.1214 H   0  0  0  0  0  0  0  0  0  0  0  0
   57.8860   28.1320   46.3670 N   0  0  0  0  0  0  0  0  0  0  0  0
   58.6510   27.2550   47.0890 C   0  0  0  0  0  0  0  0  0  0  0  0
   59.8050   27.6500   47.5480 N   0  0  0  0  0  0  0  0  0  0  0  0
   60.1570   27.8900   48.9210 C   0  0  0  0  0  0  0  0  0  0  0  0
   60.7640   26.9040   49.7230 C   0  0  0  0  0  0  0  0  0  0  0  0
   61.0200   25.9258   49.2898 H   0  0  0  0  0  0  0  0  0  0  0  0
   61.0420   27.1650   51.0680 C   0  0  0  0  0  0  0  0  0  0  0  0
   61.5410   26.4016   51.6830 H   0  0  0  0  0  0  0  0  0  0  0  0
   60.6880   28.3920   51.6330 C   0  0  0  0  0  0  0  0  0  0  0  0
   60.9221   28.5989   52.6877 H   0  0  0  0  0  0  0  0  0  0  0  0
   60.0330   29.3630   50.8560 C   0  0  0  0  0  0  0  0  0  0  0  0
   59.6600   30.6340   51.4050 N   0  0  0  0  0  0  0  0  0  0  0  0
   59.3210   31.7980   50.6420 C   0  0  0  0  0  0  0  0  0  0  0  0
   58.1660   31.8880   50.1470 O   0  0  0  0  0  0  0  0  0  0  0  0
   60.2540   32.8800   50.4950 N   0  0  0  0  0  0  0  0  0  0  0  0
   61.1300   32.8810   51.0630 H   0  0  0  0  0  0  0  0  0  0  0  0
   59.9840   34.0320   49.6400 C   0  0  0  0  0  0  0  0  0  0  0  0
   60.8068   34.7558   49.7357 H   0  0  0  0  0  0  0  0  0  0  0  0
   59.0365   34.4954   49.9523 H   0  0  0  0  0  0  0  0  0  0  0  0
   59.8680   33.6010   48.2080 C   0  0  0  0  0  0  0  0  0  0  0  0
   60.6630   32.7000   47.5110 C   0  0  0  0  0  0  0  0  0  0  0  0
   61.8710   31.9890   48.0270 C   0  0  0  0  0  0  0  0  0  0  0  0
   61.8588   31.9962   49.1269 H   0  0  0  0  0  0  0  0  0  0  0  0
   61.8663   30.9496   47.6670 H   0  0  0  0  0  0  0  0  0  0  0  0
   62.7775   32.4976   47.6670 H   0  0  0  0  0  0  0  0  0  0  0  0
   60.2140   32.5900   46.2460 N   0  0  0  0  0  0  0  0  0  0  0  0
   59.1510   33.3760   46.1350 N   0  0  0  0  0  0  0  0  0  0  0  0
   58.4180   33.5790   44.8900 C   0  0  0  0  0  0  0  0  0  0  0  0
   58.2556   32.6070   44.4012 H   0  0  0  0  0  0  0  0  0  0  0  0
   59.0040   34.2370   44.2314 H   0  0  0  0  0  0  0  0  0  0  0  0
   57.0690   34.2320   45.1740 C   0  0  0  0  0  0  0  0  0  0  0  0
   56.9185   34.3048   46.2612 H   0  0  0  0  0  0  0  0  0  0  0  0
   57.0492   35.2394   44.7328 H   0  0  0  0  0  0  0  0  0  0  0  0
   56.2665   33.6226   44.7328 H   0  0  0  0  0  0  0  0  0  0  0  0
   58.9120   34.0090   47.3000 C   0  0  0  0  0  0  0  0  0  0  0  0
   58.0990   34.7243   47.4933 H   0  0  0  0  0  0  0  0  0  0  0  0
   59.7870   29.1100   49.5020 C   0  0  0  0  0  0  0  0  0  0  0  0
   59.2970   29.8785   48.8861 H   0  0  0  0  0  0  0  0  0  0  0  0
   58.2060   25.9750   47.2760 N   0  0  0  0  0  0  0  0  0  0  0  0
   57.0310   25.6270   46.7580 N   0  0  0  0  0  0  0  0  0  0  0  0
   56.3850   24.4580   46.8150 C   0  0  0  0  0  0  0  0  0  0  0  0
   56.8460   23.2770   47.4970 C   0  0  0  0  0  0  0  0  0  0  0  0
   57.2180   22.3260   48.0430 N   0  0  0  0  0  0  0  0  0  0  0  0
  1  2  1  0
  2  3  1  0
  3  4  2  0
  4  5  1  0
  5  6  2  0
  6  7  1  0
  7  8  1  0
  7  9  1  0
  9 10  1  0
  9 11  1  0
  9 12  1  0
 12 13  1  0
 12 14  1  0
  5 15  1  0
 15 16  1  0
 16 17  2  3
 17 18  1  0
 18 19  2  0
 19 20  1  0
 19 21  1  0
 21 22  1  0
 21 23  2  0
 23 24  1  0
 23 25  1  0
 25 26  1  0
 26 27  1  0
 27 28  2  0
 27 29  1  0
 29 30  1  0
 29 31  1  0
 31 32  1  0
 31 33  1  0
 31 34  1  0
 34 35  1  0
 35 36  1  0
 36 37  1  0
 36 38  1  0
 36 39  1  0
 35 40  2  0
 40 41  1  0
 41 42  1  0
 42 43  1  0
 42 44  1  0
 42 45  1  0
 45 46  1  0
 45 47  1  0
 45 48  1  0
 41 49  1  0
 49 50  1  0
 25 51  2  0
 51 52  1  0
 16 53  1  0
 53 54  1  0
 54 55  1  0
 55 56  1  0
 56 57  3  0
 55  2  2  0
 54  4  1  0
 12  7  1  0
 51 18  1  0
 49 34  2  0
M  CHG  3  15  -1  26  -1  53  -1
M  END
>  <UniqueID>  (69) 
61

>  <SMILES>  (69) 
CCn1cc(CNC(=O)[N-]c2cccc(N=c3[n-]/c(=N\C4CC4)c4ncc(C#N)n4[n-]3)c2)c(C)n1

>  <Energy>  (69) 
395.58772470076235

>  <Genealogy>  (69) 
CCn1cc(CNC(=O)[N-]c2cccc(N=c3[n-]c(=NC4CC4)c4ncc(C#N)n4[n-]3)c2)c(C)n1 (protonated)
CCn1cc(CNC(=O)[N-]c2cccc(N=c3[n-]/c(=N\C4CC4)c4ncc(C#N)n4[n-]3)c2)c(C)n1 (cis-trans isomerization)
CCn1cc(CNC(=O)[N-]c2cccc(N=c3[n-]/c(=N\C4CC4)c4ncc(C#N)n4[n-]3)c2)c(C)n1 (3D coordinates assigned)
CCn1cc(CNC(=O)[N-]c2cccc(N=c3[n-]/c(=N\C4CC4)c4ncc(C#N)n4[n-]3)c2)c(C)n1 (nonaromatic ring conformer: 395.58772470076235 kcal/mol)

>  <smiles>  (69) 
CCn1cc(CNC(=O)Nc2cccc(N=c3[nH]c(=NC4CC4)c4ncc(C#N)n4[nH]3)c2)c(C)n1

>  <score_type>  (69) 
oracle

>  <origin>  (69) 
adg

>  <m_score__min__energy>  (69) 
-14.42

>  <m_primary>  (69) 
energy

$$$$
69:0
     RDKit          3D

 48 51  0  0  0  0  0  0  0  0999 V2000
   57.2530   26.7100   46.8250 O   0  0  0  0  0  0  0  0  0  0  0  0
   57.4150   27.8650   46.3540 C   0  0  0  0  0  0  0  0  0  0  0  0
   56.4890   28.3440   45.3690 N   0  0  0  0  0  0  0  0  0  0  0  0
   56.6900   29.4580   44.4880 C   0  0  0  0  0  0  0  0  0  0  0  0
   56.4120   29.3700   43.1130 C   0  0  0  0  0  0  0  0  0  0  0  0
   56.6320   30.4700   42.2810 C   0  0  0  0  0  0  0  0  0  0  0  0
   57.1470   31.6560   42.8070 C   0  0  0  0  0  0  0  0  0  0  0  0
   57.4660   31.7470   44.1710 C   0  0  0  0  0  0  0  0  0  0  0  0
   58.0550   33.0180   44.7400 C   0  0  0  0  0  0  0  0  0  0  0  0
   58.6180   32.8610   46.1020 N   0  0  0  0  0  0  0  0  0  0  0  0
   60.0890   32.7440   46.1630 C   0  0  0  0  0  0  0  0  0  0  0  0
   60.7950   34.1080   46.3440 C   0  0  0  0  0  0  0  0  0  0  0  0
   59.8880   35.1830   46.4870 O   0  0  0  0  0  0  0  0  0  0  0  0
   58.9810   34.8980   47.5270 C   0  0  0  0  0  0  0  0  0  0  0  0
   58.0360   33.7500   47.1310 C   0  0  0  0  0  0  0  0  0  0  0  0
   57.2270   30.6430   45.0060 C   0  0  0  0  0  0  0  0  0  0  0  0
   58.5750   28.6660   46.8010 C   0  0  0  0  0  0  0  0  0  0  0  0
   59.7350   28.7890   46.0190 C   0  0  0  0  0  0  0  0  0  0  0  0
   60.7780   29.5260   46.4810 N   0  0  0  0  0  0  0  0  0  0  0  0
   60.7290   30.1420   47.6910 C   0  0  0  0  0  0  0  0  0  0  0  0
   61.8410   30.9100   48.1470 N   0  0  0  0  0  0  0  0  0  0  0  0
   62.3680   31.3950   49.4330 C   0  0  0  0  0  0  0  0  0  0  0  0
   63.5580   32.0950   48.8640 C   0  0  0  0  0  0  0  0  0  0  0  0
   63.0100   31.5950   47.5680 C   0  0  0  0  0  0  0  0  0  0  0  0
   59.5830   30.0060   48.4810 C   0  0  0  0  0  0  0  0  0  0  0  0
   58.5390   29.2700   48.0200 N   0  0  0  0  0  0  0  0  0  0  0  0
   56.0203   28.4326   42.6912 H   0  0  0  0  0  0  0  0  0  0  0  0
   56.3988   30.4016   41.2082 H   0  0  0  0  0  0  0  0  0  0  0  0
   57.3037   32.5237   42.1493 H   0  0  0  0  0  0  0  0  0  0  0  0
   58.8585   33.3577   44.0700 H   0  0  0  0  0  0  0  0  0  0  0  0
   57.2331   33.7451   44.8158 H   0  0  0  0  0  0  0  0  0  0  0  0
   60.3545   32.0962   47.0114 H   0  0  0  0  0  0  0  0  0  0  0  0
   60.4263   32.3227   45.2045 H   0  0  0  0  0  0  0  0  0  0  0  0
   61.4264   34.0596   47.2435 H   0  0  0  0  0  0  0  0  0  0  0  0
   61.3880   34.2954   45.4367 H   0  0  0  0  0  0  0  0  0  0  0  0
   59.5438   34.6074   48.4264 H   0  0  0  0  0  0  0  0  0  0  0  0
   58.3788   35.7970   47.7249 H   0  0  0  0  0  0  0  0  0  0  0  0
   57.8133   33.1524   48.0273 H   0  0  0  0  0  0  0  0  0  0  0  0
   57.1266   34.1998   46.7058 H   0  0  0  0  0  0  0  0  0  0  0  0
   57.4642   30.7100   46.0780 H   0  0  0  0  0  0  0  0  0  0  0  0
   59.7983   28.2921   45.0397 H   0  0  0  0  0  0  0  0  0  0  0  0
   61.6761   32.0810   49.9436 H   0  0  0  0  0  0  0  0  0  0  0  0
   62.5556   30.6423   50.2129 H   0  0  0  0  0  0  0  0  0  0  0  0
   63.5688   33.1883   48.9849 H   0  0  0  0  0  0  0  0  0  0  0  0
   64.5910   31.9247   49.2014 H   0  0  0  0  0  0  0  0  0  0  0  0
   62.7292   32.4089   46.8834 H   0  0  0  0  0  0  0  0  0  0  0  0
   63.6822   30.9936   46.9384 H   0  0  0  0  0  0  0  0  0  0  0  0
   59.5278   30.4908   49.4669 H   0  0  0  0  0  0  0  0  0  0  0  0
  1  2  2  0
  2  3  1  0
  3  4  1  0
  4  5  2  0
  5  6  1  0
  6  7  2  0
  7  8  1  0
  8  9  1  0
  9 10  1  0
 10 11  1  0
 11 12  1  0
 12 13  1  0
 13 14  1  0
 14 15  1  0
  8 16  2  0
  2 17  1  0
 17 18  2  0
 18 19  1  0
 19 20  2  0
 20 21  1  0
 21 22  1  0
 22 23  1  0
 23 24  1  0
 20 25  1  0
 25 26  2  0
 16  4  1  0
 26 17  1  0
 15 10  1  0
 24 21  1  0
  5 27  1  0
  6 28  1  0
  7 29  1  0
  9 30  1  0
  9 31  1  0
 11 32  1  0
 11 33  1  0
 12 34  1  0
 12 35  1  0
 14 36  1  0
 14 37  1  0
 15 38  1  0
 15 39  1  0
 16 40  1  0
 18 41  1  0
 22 42  1  0
 22 43  1  0
 23 44  1  0
 23 45  1  0
 24 46  1  0
 24 47  1  0
 25 48  1  0
M  CHG  1   3  -1
M  END
>  <UniqueID>  (70) 
62

>  <SMILES>  (70) 
O=C([N-]c1cccc(CN2CCOCC2)c1)c1cnc(N2CCC2)cn1

>  <Energy>  (70) 
115.67564588156166

>  <Genealogy>  (70) 
O=C([N-]c1cccc(CN2CCOCC2)c1)c1cnc(N2CCC2)cn1 (protonated)
O=C([N-]c1cccc(CN2CCOCC2)c1)c1cnc(N2CCC2)cn1 (3D coordinates assigned)
O=C([N-]c1cccc(CN2CCOCC2)c1)c1cnc(N2CCC2)cn1 (nonaromatic ring conformer: 115.67564588156166 kcal/mol)

>  <smiles>  (70) 
O=C(Nc1cccc(CN2CCOCC2)c1)c1cnc(N2CCC2)cn1

>  <score_type>  (70) 
oracle

>  <origin>  (70) 
adg

>  <m_score__min__energy>  (70) 
-9.3599999999999994

>  <m_primary>  (70) 
energy

$$$$
70:0
     RDKit          3D

 37 38  0  0  0  0  0  0  0  0999 V2000
   56.1360   24.4940   45.3000 C   0  0  0  0  0  0  0  0  0  0  0  0
   55.9340   25.7830   46.0200 C   0  0  0  0  0  0  0  0  0  0  0  0
   54.8010   26.3350   46.0000 O   0  0  0  0  0  0  0  0  0  0  0  0
   57.0550   26.4300   46.6350 N   0  0  0  0  0  0  0  0  0  0  0  0
   57.8480   27.4850   46.0710 C   0  0  0  0  0  0  0  0  0  0  0  0
   59.2450   27.3810   45.9390 C   0  0  0  0  0  0  0  0  0  0  0  0
   59.9760   28.4230   45.3610 C   0  0  0  0  0  0  0  0  0  0  0  0
   59.3230   29.5680   44.8990 C   0  0  0  0  0  0  0  0  0  0  0  0
   57.9290   29.6730   45.0070 C   0  0  0  0  0  0  0  0  0  0  0  0
   57.0850   31.0970   44.4010 S   0  0  0  0  0  0  0  0  0  0  0  0
   57.7400   31.5310   43.1190 O   0  0  0  0  0  0  0  0  0  0  0  0
   55.6470   30.7610   44.1150 O   0  0  0  0  0  0  0  0  0  0  0  0
   57.1720   32.3840   45.5800 N   0  0  0  0  0  0  0  0  0  0  0  0
   57.2950   33.7100   44.9120 C   0  0  0  0  0  0  0  0  0  0  0  0
   58.7350   34.2420   44.9010 C   0  0  0  0  0  0  0  0  0  0  0  0
   59.2810   34.3920   46.3310 C   0  0  0  0  0  0  0  0  0  0  0  0
   58.6950   33.3530   47.3030 C   0  0  0  0  0  0  0  0  0  0  0  0
   58.2500   32.0900   46.5560 C   0  0  0  0  0  0  0  0  0  0  0  0
   57.1980   28.6260   45.5830 C   0  0  0  0  0  0  0  0  0  0  0  0
   56.2633   23.6818   46.0309 H   0  0  0  0  0  0  0  0  0  0  0  0
   55.2596   24.2853   44.6688 H   0  0  0  0  0  0  0  0  0  0  0  0
   57.0342   24.5634   44.6688 H   0  0  0  0  0  0  0  0  0  0  0  0
   59.7634   26.4772   46.2916 H   0  0  0  0  0  0  0  0  0  0  0  0
   61.0691   28.3409   45.2697 H   0  0  0  0  0  0  0  0  0  0  0  0
   59.9028   30.3880   44.4501 H   0  0  0  0  0  0  0  0  0  0  0  0
   56.2620   32.3720   46.0980 H   0  0  0  0  0  0  0  0  0  0  0  0
   56.9488   33.6128   43.8724 H   0  0  0  0  0  0  0  0  0  0  0  0
   56.6833   34.4248   45.4820 H   0  0  0  0  0  0  0  0  0  0  0  0
   59.3732   33.5397   44.3446 H   0  0  0  0  0  0  0  0  0  0  0  0
   58.7382   35.2314   44.4203 H   0  0  0  0  0  0  0  0  0  0  0  0
   60.3741   34.2718   46.3046 H   0  0  0  0  0  0  0  0  0  0  0  0
   58.9897   35.3884   46.6948 H   0  0  0  0  0  0  0  0  0  0  0  0
   59.4614   33.0813   48.0438 H   0  0  0  0  0  0  0  0  0  0  0  0
   57.8177   33.7936   47.7992 H   0  0  0  0  0  0  0  0  0  0  0  0
   59.1132   31.6702   46.0187 H   0  0  0  0  0  0  0  0  0  0  0  0
   57.8601   31.3733   47.2938 H   0  0  0  0  0  0  0  0  0  0  0  0
   56.1028   28.7005   45.6528 H   0  0  0  0  0  0  0  0  0  0  0  0
  1  2  1  0
  2  3  2  0
  2  4  1  0
  4  5  1  0
  5  6  2  0
  6  7  1  0
  7  8  2  0
  8  9  1  0
  9 10  1  0
 10 11  2  0
 10 12  2  0
 10 13  1  0
 13 14  1  0
 14 15  1  0
 15 16  1  0
 16 17  1  0
 17 18  1  0
  9 19  2  0
 19  5  1  0
 18 13  1  0
  1 20  1  0
  1 21  1  0
  1 22  1  0
  6 23  1  0
  7 24  1  0
  8 25  1  0
 13 26  1  0
 14 27  1  0
 14 28  1  0
 15 29  1  0
 15 30  1  0
 16 31  1  0
 16 32  1  0
 17 33  1  0
 17 34  1  0
 18 35  1  0
 18 36  1  0
 19 37  1  0
M  CHG  2   4  -1  13   1
M  END
>  <UniqueID>  (71) 
63

>  <SMILES>  (71) 
CC(=O)[N-]c1cccc(S(=O)(=O)[NH+]2CCCCC2)c1

>  <Energy>  (71) 
42.498561961622684

>  <Genealogy>  (71) 
CC(=O)[N-]c1cccc(S(=O)(=O)[NH+]2CCCCC2)c1 (protonated)
CC(=O)[N-]c1cccc(S(=O)(=O)[NH+]2CCCCC2)c1 (3D coordinates assigned)
CC(=O)[N-]c1cccc(S(=O)(=O)[NH+]2CCCCC2)c1 (nonaromatic ring conformer: 42.498561961622684 kcal/mol)

>  <smiles>  (71) 
CC(=O)Nc1cccc(S(=O)(=O)N2CCCCC2)c1

>  <score_type>  (71) 
oracle

>  <origin>  (71) 
adg

>  <m_score__min__energy>  (71) 
-8.4100000000000001

>  <m_primary>  (71) 
energy

$$$$
71:0
     RDKit          3D

 47 49  0  0  0  0  0  0  0  0999 V2000
   59.7630   34.1510   48.4230 O   0  0  0  0  0  0  0  0  0  0  0  0
   60.0860   34.0910   47.2070 C   0  0  0  0  0  0  0  0  0  0  0  0
   59.0810   34.4250   46.1490 C   0  0  0  0  0  0  0  0  0  0  0  0
   58.4960   33.1910   45.6000 N   0  0  0  0  0  0  0  0  0  0  0  0
   57.9960   32.2580   46.4610 C   0  0  0  0  0  0  0  0  0  0  0  0
   57.3940   31.1380   45.9890 N   0  0  0  0  0  0  0  0  0  0  0  0
   57.2700   30.8960   44.6580 C   0  0  0  0  0  0  0  0  0  0  0  0
   56.5230   29.6920   44.2450 C   0  0  0  0  0  0  0  0  0  0  0  0
   56.3940   29.4370   43.0180 O   0  0  0  0  0  0  0  0  0  0  0  0
   56.0180   28.7760   45.2220 N   0  0  0  0  0  0  0  0  0  0  0  0
   56.8250   27.7310   45.8420 C   0  0  0  0  0  0  0  0  0  0  0  0
   56.1370   26.4090   45.7200 C   0  0  0  0  0  0  0  0  0  0  0  0
   56.7540   25.1820   45.5820 C   0  0  0  0  0  0  0  0  0  0  0  0
   55.7340   24.2590   45.5170 C   0  0  0  0  0  0  0  0  0  0  0  0
   54.5590   24.9770   45.6300 C   0  0  0  0  0  0  0  0  0  0  0  0
   54.8320   26.2570   45.7520 O   0  0  0  0  0  0  0  0  0  0  0  0
   57.8150   31.8200   43.7440 C   0  0  0  0  0  0  0  0  0  0  0  0
   57.8250   31.6040   42.3630 O   0  0  0  0  0  0  0  0  0  0  0  0
   58.4040   32.9870   44.2470 C   0  0  0  0  0  0  0  0  0  0  0  0
   58.8630   33.8400   43.4380 O   0  0  0  0  0  0  0  0  0  0  0  0
   61.4140   33.7220   46.8260 N   0  0  0  0  0  0  0  0  0  0  0  0
   62.3990   33.2180   47.7740 C   0  0  0  0  0  0  0  0  0  0  0  0
   62.7140   31.7520   47.4770 C   0  0  0  0  0  0  0  0  0  0  0  0
   61.4850   30.8890   47.6020 C   0  0  0  0  0  0  0  0  0  0  0  0
   60.7440   30.8800   48.7960 C   0  0  0  0  0  0  0  0  0  0  0  0
   59.5860   30.1030   48.9010 C   0  0  0  0  0  0  0  0  0  0  0  0
   59.1520   29.3420   47.8110 C   0  0  0  0  0  0  0  0  0  0  0  0
   59.8750   29.3560   46.6140 C   0  0  0  0  0  0  0  0  0  0  0  0
   61.0370   30.1280   46.5080 C   0  0  0  0  0  0  0  0  0  0  0  0
   58.2830   35.0424   46.5871 H   0  0  0  0  0  0  0  0  0  0  0  0
   59.5802   34.9780   45.3397 H   0  0  0  0  0  0  0  0  0  0  0  0
   58.0818   32.4154   47.5463 H   0  0  0  0  0  0  0  0  0  0  0  0
   57.8023   27.6801   45.3397 H   0  0  0  0  0  0  0  0  0  0  0  0
   56.9631   27.9677   46.9073 H   0  0  0  0  0  0  0  0  0  0  0  0
   57.8348   24.9830   45.5340 H   0  0  0  0  0  0  0  0  0  0  0  0
   55.8345   23.1700   45.3989 H   0  0  0  0  0  0  0  0  0  0  0  0
   53.5482   24.5432   45.6195 H   0  0  0  0  0  0  0  0  0  0  0  0
   57.7840   30.6850   41.9440 H   0  0  0  0  0  0  0  0  0  0  0  0
   63.3210   33.8121   47.6906 H   0  0  0  0  0  0  0  0  0  0  0  0
   61.9916   33.2988   48.7926 H   0  0  0  0  0  0  0  0  0  0  0  0
   63.1057   31.6706   46.4523 H   0  0  0  0  0  0  0  0  0  0  0  0
   63.4579   31.4029   48.2083 H   0  0  0  0  0  0  0  0  0  0  0  0
   61.0761   31.4865   49.6514 H   0  0  0  0  0  0  0  0  0  0  0  0
   59.0161   30.0904   49.8418 H   0  0  0  0  0  0  0  0  0  0  0  0
   58.2408   28.7316   47.8952 H   0  0  0  0  0  0  0  0  0  0  0  0
   59.5302   28.7602   45.7560 H   0  0  0  0  0  0  0  0  0  0  0  0
   61.6025   30.1396   45.5646 H   0  0  0  0  0  0  0  0  0  0  0  0
  1  2  2  0
  2  3  1  0
  3  4  1  0
  4  5  1  0
  5  6  2  0
  6  7  1  0
  7  8  1  0
  8  9  2  0
  8 10  1  0
 10 11  1  0
 11 12  1  0
 12 13  2  0
 13 14  1  0
 14 15  2  0
 15 16  1  0
  7 17  2  0
 17 18  1  0
 17 19  1  0
 19 20  2  0
  2 21  1  0
 21 22  1  0
 22 23  1  0
 23 24  1  0
 24 25  2  0
 25 26  1  0
 26 27  2  0
 27 28  1  0
 28 29  2  0
 19  4  1  0
 29 24  1  0
 16 12  1  0
  3 30  1  0
  3 31  1  0
  5 32  1  0
 11 33  1  0
 11 34  1  0
 13 35  1  0
 14 36  1  0
 15 37  1  0
 18 38  1  0
 22 39  1  0
 22 40  1  0
 23 41  1  0
 23 42  1  0
 25 43  1  0
 26 44  1  0
 27 45  1  0
 28 46  1  0
 29 47  1  0
M  CHG  2  10  -1  21  -1
M  END
>  <UniqueID>  (72) 
64

>  <SMILES>  (72) 
O=C(Cn1cnc(C(=O)[N-]Cc2ccco2)c(O)c1=O)[N-]CCc1ccccc1

>  <Energy>  (72) 
73.43533844527339

>  <Genealogy>  (72) 
O=C(Cn1cnc(C(=O)[N-]Cc2ccco2)c(O)c1=O)[N-]CCc1ccccc1 (protonated)
O=C(Cn1cnc(C(=O)[N-]Cc2ccco2)c(O)c1=O)[N-]CCc1ccccc1 (3D coordinates assigned)
O=C(Cn1cnc(C(=O)[N-]Cc2ccco2)c(O)c1=O)[N-]CCc1ccccc1 (optimized conformer: 73.43533844527339 kcal/mol)

>  <smiles>  (72) 
O=C(Cn1cnc(C(=O)NCc2ccco2)c(O)c1=O)NCCc1ccccc1

>  <score_type>  (72) 
oracle

>  <origin>  (72) 
adg

>  <m_score__min__energy>  (72) 
-11.98

>  <m_primary>  (72) 
energy

$$$$
72:0
     RDKit          3D

 41 43  0  0  0  0  0  0  0  0999 V2000
   54.7720   26.2680   45.9520 N   0  0  0  0  0  0  0  0  0  0  0  0
   56.4050   25.7000   45.9110 S   0  0  0  0  0  0  0  0  0  0  0  0
   56.7030   24.9790   47.1970 O   0  0  0  0  0  0  0  0  0  0  0  0
   56.5800   24.7450   44.7640 O   0  0  0  0  0  0  0  0  0  0  0  0
   57.4970   27.0660   45.7110 C   0  0  0  0  0  0  0  0  0  0  0  0
   58.8420   26.9740   46.0920 C   0  0  0  0  0  0  0  0  0  0  0  0
   59.6900   28.0730   45.9390 C   0  0  0  0  0  0  0  0  0  0  0  0
   59.1980   29.2740   45.4200 C   0  0  0  0  0  0  0  0  0  0  0  0
   57.8470   29.3870   45.0520 C   0  0  0  0  0  0  0  0  0  0  0  0
   57.3250   30.6680   44.5190 C   0  0  0  0  0  0  0  0  0  0  0  0
   57.0480   30.7580   43.2940 O   0  0  0  0  0  0  0  0  0  0  0  0
   57.0700   31.7980   45.3650 N   0  0  0  0  0  0  0  0  0  0  0  0
   57.9240   32.9400   45.5260 C   0  0  0  0  0  0  0  0  0  0  0  0
   58.0760   33.9470   44.5560 C   0  0  0  0  0  0  0  0  0  0  0  0
   58.9500   34.9550   44.9370 C   0  0  0  0  0  0  0  0  0  0  0  0
   59.5140   34.6090   46.4810 S   0  0  0  0  0  0  0  0  0  0  0  0
   58.6580   33.1740   46.6870 C   0  0  0  0  0  0  0  0  0  0  0  0
   58.7190   32.3290   47.8910 C   0  0  0  0  0  0  0  0  0  0  0  0
   57.8610   32.4620   48.8050 O   0  0  0  0  0  0  0  0  0  0  0  0
   59.7550   31.3530   48.0170 N   0  0  0  0  0  0  0  0  0  0  0  0
   60.8700   31.2580   47.0850 C   0  0  0  0  0  0  0  0  0  0  0  0
   62.0480   31.9990   47.6440 C   0  0  0  0  0  0  0  0  0  0  0  0
   62.5740   33.1140   46.9750 C   0  0  0  0  0  0  0  0  0  0  0  0
   63.6450   33.8180   47.5290 C   0  0  0  0  0  0  0  0  0  0  0  0
   64.1740   33.4090   48.7540 C   0  0  0  0  0  0  0  0  0  0  0  0
   63.6410   32.3380   49.4010 N   0  0  0  0  0  0  0  0  0  0  0  0
   62.6000   31.6330   48.8820 C   0  0  0  0  0  0  0  0  0  0  0  0
   57.0080   28.2660   45.1790 C   0  0  0  0  0  0  0  0  0  0  0  0
   54.7490   27.0900   46.5980 H   0  0  0  0  0  0  0  0  0  0  0  0
   59.2307   26.0347   46.5123 H   0  0  0  0  0  0  0  0  0  0  0  0
   60.7484   27.9933   46.2278 H   0  0  0  0  0  0  0  0  0  0  0  0
   59.8720   30.1349   45.2991 H   0  0  0  0  0  0  0  0  0  0  0  0
   57.5525   33.9365   43.5886 H   0  0  0  0  0  0  0  0  0  0  0  0
   59.2263   35.8309   44.3316 H   0  0  0  0  0  0  0  0  0  0  0  0
   61.1369   30.2011   46.9379 H   0  0  0  0  0  0  0  0  0  0  0  0
   60.5817   31.6991   46.1194 H   0  0  0  0  0  0  0  0  0  0  0  0
   62.1431   33.4335   46.0147 H   0  0  0  0  0  0  0  0  0  0  0  0
   64.0681   34.6874   47.0045 H   0  0  0  0  0  0  0  0  0  0  0  0
   65.0219   33.9527   49.1961 H   0  0  0  0  0  0  0  0  0  0  0  0
   62.1897   30.7742   49.4334 H   0  0  0  0  0  0  0  0  0  0  0  0
   55.9580   28.3319   44.8577 H   0  0  0  0  0  0  0  0  0  0  0  0
  1  2  1  0
  2  3  2  0
  2  4  2  0
  2  5  1  0
  5  6  2  0
  6  7  1  0
  7  8  2  0
  8  9  1  0
  9 10  1  0
 10 11  2  0
 10 12  1  0
 12 13  1  0
 13 14  1  0
 14 15  2  0
 15 16  1  0
 16 17  1  0
 17 18  1  0
 18 19  2  0
 18 20  1  0
 20 21  1  0
 21 22  1  0
 22 23  2  0
 23 24  1  0
 24 25  2  0
 25 26  1  0
 26 27  2  0
  9 28  2  0
 28  5  1  0
 17 13  2  0
 27 22  1  0
  1 29  1  0
  6 30  1  0
  7 31  1  0
  8 32  1  0
 14 33  1  0
 15 34  1  0
 21 35  1  0
 21 36  1  0
 23 37  1  0
 24 38  1  0
 25 39  1  0
 27 40  1  0
 28 41  1  0
M  CHG  3   1  -1  12  -1  20  -1
M  END
>  <UniqueID>  (73) 
65

>  <SMILES>  (73) 
[NH-]S(=O)(=O)c1cccc(C(=O)[N-]c2ccsc2C(=O)[N-]Cc2cccnc2)c1

>  <Energy>  (73) 
72.77308989060184

>  <Genealogy>  (73) 
[NH-]S(=O)(=O)c1cccc(C(=O)[N-]c2ccsc2C(=O)[N-]Cc2cccnc2)c1 (protonated)
[NH-]S(=O)(=O)c1cccc(C(=O)[N-]c2ccsc2C(=O)[N-]Cc2cccnc2)c1 (3D coordinates assigned)
[NH-]S(=O)(=O)c1cccc(C(=O)[N-]c2ccsc2C(=O)[N-]Cc2cccnc2)c1 (optimized conformer: 72.77308989060184 kcal/mol)

>  <smiles>  (73) 
NS(=O)(=O)c1cccc(C(=O)Nc2ccsc2C(=O)NCc2cccnc2)c1

>  <score_type>  (73) 
oracle

>  <origin>  (73) 
adg

>  <m_score__min__energy>  (73) 
-14.18

>  <m_primary>  (73) 
energy

$$$$
73:0
     RDKit          3D

 41 43  0  0  0  0  0  0  0  0999 V2000
   56.6560   19.2970   43.5460 H   0  0  0  0  0  0  0  0  0  0  0  0
   56.2170   20.1770   43.1920 N   0  0  0  0  0  0  0  0  0  0  0  0
   56.5150   21.3470   43.6660 C   0  0  0  0  0  0  0  0  0  0  0  0
   56.8620   21.5040   45.0150 C   0  0  0  0  0  0  0  0  0  0  0  0
   56.8856   20.6301   45.6827 H   0  0  0  0  0  0  0  0  0  0  0  0
   57.1800   22.7800   45.5140 C   0  0  0  0  0  0  0  0  0  0  0  0
   57.4980   22.9880   46.8660 O   0  0  0  0  0  0  0  0  0  0  0  0
   56.5740   22.8680   47.9430 C   0  0  0  0  0  0  0  0  0  0  0  0
   57.1139   22.9381   48.8988 H   0  0  0  0  0  0  0  0  0  0  0  0
   55.8315   23.6773   47.8810 H   0  0  0  0  0  0  0  0  0  0  0  0
   56.0629   21.8959   47.8810 H   0  0  0  0  0  0  0  0  0  0  0  0
   57.1570   23.8820   44.6360 C   0  0  0  0  0  0  0  0  0  0  0  0
   57.5010   25.2460   45.1040 C   0  0  0  0  0  0  0  0  0  0  0  0
   58.3510   26.0650   44.3410 C   0  0  0  0  0  0  0  0  0  0  0  0
   58.7663   25.6894   43.3942 H   0  0  0  0  0  0  0  0  0  0  0  0
   58.6720   27.3530   44.7770 C   0  0  0  0  0  0  0  0  0  0  0  0
   59.3419   27.9843   44.1748 H   0  0  0  0  0  0  0  0  0  0  0  0
   58.1430   27.8440   45.9800 C   0  0  0  0  0  0  0  0  0  0  0  0
   58.4790   29.2070   46.4340 C   0  0  0  0  0  0  0  0  0  0  0  0
   59.4690   29.3550   47.4190 C   0  0  0  0  0  0  0  0  0  0  0  0
   59.9822   28.4661   47.8146 H   0  0  0  0  0  0  0  0  0  0  0  0
   59.8070   30.6210   47.9000 C   0  0  0  0  0  0  0  0  0  0  0  0
   60.5828   30.7267   48.6726 H   0  0  0  0  0  0  0  0  0  0  0  0
   59.1610   31.7520   47.4010 C   0  0  0  0  0  0  0  0  0  0  0  0
   59.4211   32.7485   47.7875 H   0  0  0  0  0  0  0  0  0  0  0  0
   58.1850   31.6210   46.4120 C   0  0  0  0  0  0  0  0  0  0  0  0
   57.6819   32.5181   46.0221 H   0  0  0  0  0  0  0  0  0  0  0  0
   57.8380   30.3560   45.9090 C   0  0  0  0  0  0  0  0  0  0  0  0
   56.6330   30.2520   44.6130 S   0  0  0  0  0  0  0  0  0  0  0  0
   57.3150   29.9690   43.3030 O   0  0  0  0  0  0  0  0  0  0  0  0
   55.8940   31.5560   44.5000 O   0  0  0  0  0  0  0  0  0  0  0  0
   55.5220   28.9650   44.9290 N   0  0  0  0  0  0  0  0  0  0  0  0
   54.6140   29.3960   45.2130 H   0  0  0  0  0  0  0  0  0  0  0  0
   57.3210   27.0190   46.7600 C   0  0  0  0  0  0  0  0  0  0  0  0
   56.9284   27.3869   47.7194 H   0  0  0  0  0  0  0  0  0  0  0  0
   56.9980   25.7310   46.3240 C   0  0  0  0  0  0  0  0  0  0  0  0
   56.3464   25.0930   46.9390 H   0  0  0  0  0  0  0  0  0  0  0  0
   56.7960   23.6770   43.2960 C   0  0  0  0  0  0  0  0  0  0  0  0
   56.7611   24.5317   42.6045 H   0  0  0  0  0  0  0  0  0  0  0  0
   56.4890   22.4330   42.8440 N   0  0  0  0  0  0  0  0  0  0  0  0
   56.2300   22.3160   41.8380 H   0  0  0  0  0  0  0  0  0  0  0  0
  1  2  1  0
  2  3  2  0
  3  4  1  0
  4  5  1  0
  4  6  2  0
  6  7  1  0
  7  8  1  0
  8  9  1  0
  8 10  1  0
  8 11  1  0
  6 12  1  0
 12 13  1  0
 13 14  2  0
 14 15  1  0
 14 16  1  0
 16 17  1  0
 16 18  2  0
 18 19  1  0
 19 20  2  0
 20 21  1  0
 20 22  1  0
 22 23  1  0
 22 24  2  0
 24 25  1  0
 24 26  1  0
 26 27  1  0
 26 28  2  0
 28 29  1  0
 29 30  2  0
 29 31  2  0
 29 32  1  0
 32 33  1  0
 18 34  1  0
 34 35  1  0
 34 36  2  0
 36 37  1  0
 12 38  2  0
 38 39  1  0
 38 40  1  0
 40 41  1  0
 40  3  1  0
 36 13  1  0
 28 19  1  0
M  CHG  1  32  -1
M  END
>  <UniqueID>  (74) 
66

>  <SMILES>  (74) 
[H]/N=c1\cc(OC)c(-c2ccc(-c3ccccc3S([NH-])(=O)=O)cc2)c[nH]1

>  <Energy>  (74) 
58.558993426328826

>  <Genealogy>  (74) 
COc1cc(=N)[nH]cc1-c1ccc(-c2ccccc2S([NH-])(=O)=O)cc1 (protonated)
[H]/N=c1\cc(OC)c(-c2ccc(-c3ccccc3S([NH-])(=O)=O)cc2)c[nH]1 (cis-trans isomerization)
[H]/N=c1\cc(OC)c(-c2ccc(-c3ccccc3S([NH-])(=O)=O)cc2)c[nH]1 (3D coordinates assigned)
[H]/N=c1\cc(OC)c(-c2ccc(-c3ccccc3S([NH-])(=O)=O)cc2)c[nH]1 (optimized conformer: 58.558993426328826 kcal/mol)

>  <smiles>  (74) 
COc1cc(=N)[nH]cc1-c1ccc(-c2ccccc2S(N)(=O)=O)cc1

>  <score_type>  (74) 
oracle

>  <origin>  (74) 
adg

>  <m_score__min__energy>  (74) 
-11.460000000000001

>  <m_primary>  (74) 
energy

$$$$
74:0
     RDKit          3D

 48 50  0  0  0  0  0  0  0  0999 V2000
   62.2260   33.9700   49.3680 C   0  0  0  0  0  0  0  0  0  0  0  0
   60.9070   33.6760   48.8050 N   0  0  0  0  0  0  0  0  0  0  0  0
   59.6980   34.1700   49.4860 C   0  0  0  0  0  0  0  0  0  0  0  0
   59.6580   33.6830   50.9390 C   0  0  0  0  0  0  0  0  0  0  0  0
   58.8550   32.4160   51.0490 C   0  0  0  0  0  0  0  0  0  0  0  0
   57.7390   32.3630   51.8960 C   0  0  0  0  0  0  0  0  0  0  0  0
   57.0230   31.1680   52.0130 C   0  0  0  0  0  0  0  0  0  0  0  0
   57.4140   30.0660   51.3180 N   0  0  0  0  0  0  0  0  0  0  0  0
   58.4980   30.0880   50.4980 C   0  0  0  0  0  0  0  0  0  0  0  0
   59.2430   31.2610   50.3520 C   0  0  0  0  0  0  0  0  0  0  0  0
   60.8250   32.8610   47.6130 C   0  0  0  0  0  0  0  0  0  0  0  0
   61.6290   31.9070   47.4460 O   0  0  0  0  0  0  0  0  0  0  0  0
   59.8170   33.1190   46.5670 C   0  0  0  0  0  0  0  0  0  0  0  0
   59.9790   34.2240   45.7230 C   0  0  0  0  0  0  0  0  0  0  0  0
   59.0410   34.4920   44.7250 C   0  0  0  0  0  0  0  0  0  0  0  0
   57.9360   33.6620   44.5620 C   0  0  0  0  0  0  0  0  0  0  0  0
   57.7680   32.5350   45.3840 C   0  0  0  0  0  0  0  0  0  0  0  0
   56.6450   31.6560   45.2390 N   0  0  0  0  0  0  0  0  0  0  0  0
   56.6890   30.0700   44.5430 S   0  0  0  0  0  0  0  0  0  0  0  0
   55.4310   29.3240   44.8870 O   0  0  0  0  0  0  0  0  0  0  0  0
   56.8270   30.1870   43.0500 O   0  0  0  0  0  0  0  0  0  0  0  0
   58.0760   29.2030   45.1800 C   0  0  0  0  0  0  0  0  0  0  0  0
   59.3070   29.2410   44.5110 C   0  0  0  0  0  0  0  0  0  0  0  0
   60.3890   28.5290   45.0310 C   0  0  0  0  0  0  0  0  0  0  0  0
   60.2350   27.7920   46.2080 C   0  0  0  0  0  0  0  0  0  0  0  0
   58.9940   27.7810   46.8480 C   0  0  0  0  0  0  0  0  0  0  0  0
   57.9500   28.4790   46.3250 N   0  0  0  0  0  0  0  0  0  0  0  0
   58.7110   32.2610   46.3880 C   0  0  0  0  0  0  0  0  0  0  0  0
   58.5100   31.1510   47.2130 O   0  0  0  0  0  0  0  0  0  0  0  0
   62.1671   33.9569   50.4663 H   0  0  0  0  0  0  0  0  0  0  0  0
   62.9464   33.2104   49.0303 H   0  0  0  0  0  0  0  0  0  0  0  0
   62.5556   34.9637   49.0303 H   0  0  0  0  0  0  0  0  0  0  0  0
   59.7004   35.2699   49.4737 H   0  0  0  0  0  0  0  0  0  0  0  0
   58.8126   33.7847   48.9591 H   0  0  0  0  0  0  0  0  0  0  0  0
   60.6846   33.4919   51.2849 H   0  0  0  0  0  0  0  0  0  0  0  0
   59.1859   34.4580   51.5607 H   0  0  0  0  0  0  0  0  0  0  0  0
   57.4297   33.2533   52.4631 H   0  0  0  0  0  0  0  0  0  0  0  0
   56.1412   31.1187   52.6687 H   0  0  0  0  0  0  0  0  0  0  0  0
   58.7892   29.1807   49.9484 H   0  0  0  0  0  0  0  0  0  0  0  0
   60.1261   31.2792   49.6964 H   0  0  0  0  0  0  0  0  0  0  0  0
   60.8500   34.8843   45.8470 H   0  0  0  0  0  0  0  0  0  0  0  0
   59.1755   35.3619   44.0653 H   0  0  0  0  0  0  0  0  0  0  0  0
   57.1904   33.8894   43.7858 H   0  0  0  0  0  0  0  0  0  0  0  0
   59.4192   29.8257   43.5860 H   0  0  0  0  0  0  0  0  0  0  0  0
   61.3605   28.5480   44.5155 H   0  0  0  0  0  0  0  0  0  0  0  0
   61.0815   27.2271   46.6256 H   0  0  0  0  0  0  0  0  0  0  0  0
   58.8603   27.2069   47.7767 H   0  0  0  0  0  0  0  0  0  0  0  0
   57.7540   30.4930   47.0740 H   0  0  0  0  0  0  0  0  0  0  0  0
  1  2  1  0
  2  3  1  0
  3  4  1  0
  4  5  1  0
  5  6  2  0
  6  7  1  0
  7  8  2  0
  8  9  1  0
  9 10  2  0
  2 11  1  0
 11 12  2  0
 11 13  1  0
 13 14  2  0
 14 15  1  0
 15 16  2  0
 16 17  1  0
 17 18  1  0
 18 19  1  0
 19 20  2  0
 19 21  2  0
 19 22  1  0
 22 23  2  0
 23 24  1  0
 24 25  2  0
 25 26  1  0
 26 27  2  0
 17 28  2  0
 28 29  1  0
 10  5  1  0
 28 13  1  0
 27 22  1  0
  1 30  1  0
  1 31  1  0
  1 32  1  0
  3 33  1  0
  3 34  1  0
  4 35  1  0
  4 36  1  0
  6 37  1  0
  7 38  1  0
  9 39  1  0
 10 40  1  0
 14 41  1  0
 15 42  1  0
 16 43  1  0
 23 44  1  0
 24 45  1  0
 25 46  1  0
 26 47  1  0
 29 48  1  0
M  CHG  1  18  -1
M  END
>  <UniqueID>  (75) 
67

>  <SMILES>  (75) 
CN(CCc1ccncc1)C(=O)c1cccc([N-]S(=O)(=O)c2ccccn2)c1O

>  <Energy>  (75) 
57.91947905865839

>  <Genealogy>  (75) 
CN(CCc1ccncc1)C(=O)c1cccc([N-]S(=O)(=O)c2ccccn2)c1O (protonated)
CN(CCc1ccncc1)C(=O)c1cccc([N-]S(=O)(=O)c2ccccn2)c1O (3D coordinates assigned)
CN(CCc1ccncc1)C(=O)c1cccc([N-]S(=O)(=O)c2ccccn2)c1O (optimized conformer: 57.91947905865839 kcal/mol)

>  <smiles>  (75) 
CN(CCc1ccncc1)C(=O)c1cccc(NS(=O)(=O)c2ccccn2)c1O

>  <score_type>  (75) 
oracle

>  <origin>  (75) 
adg

>  <m_score__min__energy>  (75) 
-11.49

>  <m_primary>  (75) 
energy

$$$$
75:0
     RDKit          3D

 57 59  0  0  0  0  0  0  0  0999 V2000
   60.3035   30.8770   48.3747 H   0  0  0  0  0  0  0  0  0  0  0  0
   61.1320   30.3620   48.8830 C   0  0  0  0  0  0  0  0  0  0  0  0
   61.9053   29.8487   48.2927 H   0  0  0  0  0  0  0  0  0  0  0  0
   61.1990   30.3600   50.2160 C   0  0  0  0  0  0  0  0  0  0  0  0
   60.4171   30.8783   50.7905 H   0  0  0  0  0  0  0  0  0  0  0  0
   62.3120   29.6700   50.9560 C   0  0  0  0  0  0  0  0  0  0  0  0
   61.8813   28.9501   51.6675 H   0  0  0  0  0  0  0  0  0  0  0  0
   62.9522   29.1493   50.2287 H   0  0  0  0  0  0  0  0  0  0  0  0
   63.1250   30.6440   51.6890 N   0  0  0  0  0  0  0  0  0  0  0  0
   62.9390   30.7450   52.7130 H   0  0  0  0  0  0  0  0  0  0  0  0
   64.0360   31.3960   51.1330 C   0  0  0  0  0  0  0  0  0  0  0  0
   65.3350   30.8630   50.8690 N   0  0  0  0  0  0  0  0  0  0  0  0
   66.0700   31.4670   50.4370 H   0  0  0  0  0  0  0  0  0  0  0  0
   65.5680   29.8710   51.0940 H   0  0  0  0  0  0  0  0  0  0  0  0
   63.7780   32.7740   50.8270 N   0  0  0  0  0  0  0  0  0  0  0  0
   64.2910   33.4910   51.3880 H   0  0  0  0  0  0  0  0  0  0  0  0
   63.0010   33.2030   49.6940 C   0  0  0  0  0  0  0  0  0  0  0  0
   63.4540   33.0170   48.3740 C   0  0  0  0  0  0  0  0  0  0  0  0
   64.4205   32.5244   48.1915 H   0  0  0  0  0  0  0  0  0  0  0  0
   62.6820   33.4550   47.2940 C   0  0  0  0  0  0  0  0  0  0  0  0
   63.0378   33.2918   46.2660 H   0  0  0  0  0  0  0  0  0  0  0  0
   61.4570   34.1010   47.5130 C   0  0  0  0  0  0  0  0  0  0  0  0
   60.6120   34.5480   46.3490 C   0  0  0  0  0  0  0  0  0  0  0  0
   60.1733   35.5313   46.5741 H   0  0  0  0  0  0  0  0  0  0  0  0
   61.2433   34.6170   45.4508 H   0  0  0  0  0  0  0  0  0  0  0  0
   59.5090   33.5560   46.1010 C   0  0  0  0  0  0  0  0  0  0  0  0
   58.6800   33.6880   44.9780 C   0  0  0  0  0  0  0  0  0  0  0  0
   58.7931   34.5572   44.3134 H   0  0  0  0  0  0  0  0  0  0  0  0
   57.7110   32.7210   44.6990 C   0  0  0  0  0  0  0  0  0  0  0  0
   57.0546   32.8409   43.8245 H   0  0  0  0  0  0  0  0  0  0  0  0
   57.5700   31.5950   45.5300 C   0  0  0  0  0  0  0  0  0  0  0  0
   56.6490   30.5350   45.2410 N   0  0  0  0  0  0  0  0  0  0  0  0
   56.3510   29.8250   43.6840 S   0  0  0  0  0  0  0  0  0  0  0  0
   56.5450   30.8390   42.5920 O   0  0  0  0  0  0  0  0  0  0  0  0
   54.9230   29.3620   43.6470 O   0  0  0  0  0  0  0  0  0  0  0  0
   57.4010   28.3990   43.4250 C   0  0  0  0  0  0  0  0  0  0  0  0
   56.7715   27.5001   43.3496 H   0  0  0  0  0  0  0  0  0  0  0  0
   57.9729   28.5542   42.4983 H   0  0  0  0  0  0  0  0  0  0  0  0
   58.3740   28.2210   44.5570 C   0  0  0  0  0  0  0  0  0  0  0  0
   58.0320   27.4430   45.6760 C   0  0  0  0  0  0  0  0  0  0  0  0
   57.0661   26.9174   45.7031 H   0  0  0  0  0  0  0  0  0  0  0  0
   58.9150   27.3340   46.7560 C   0  0  0  0  0  0  0  0  0  0  0  0
   58.6386   26.7317   47.6339 H   0  0  0  0  0  0  0  0  0  0  0  0
   60.1490   27.9910   46.7190 C   0  0  0  0  0  0  0  0  0  0  0  0
   60.8438   27.9035   47.5673 H   0  0  0  0  0  0  0  0  0  0  0  0
   60.5000   28.7580   45.6060 C   0  0  0  0  0  0  0  0  0  0  0  0
   61.4734   29.2696   45.5768 H   0  0  0  0  0  0  0  0  0  0  0  0
   59.6170   28.8770   44.5290 C   0  0  0  0  0  0  0  0  0  0  0  0
   59.8957   29.4861   43.6565 H   0  0  0  0  0  0  0  0  0  0  0  0
   58.3770   31.4840   46.6680 C   0  0  0  0  0  0  0  0  0  0  0  0
   58.2466   30.6291   47.3478 H   0  0  0  0  0  0  0  0  0  0  0  0
   59.3470   32.4500   46.9480 C   0  0  0  0  0  0  0  0  0  0  0  0
   59.9863   32.3425   47.8366 H   0  0  0  0  0  0  0  0  0  0  0  0
   61.0000   34.2780   48.8270 C   0  0  0  0  0  0  0  0  0  0  0  0
   60.0316   34.7671   49.0085 H   0  0  0  0  0  0  0  0  0  0  0  0
   61.7690   33.8360   49.9070 C   0  0  0  0  0  0  0  0  0  0  0  0
   61.4039   33.9863   50.9337 H   0  0  0  0  0  0  0  0  0  0  0  0
  1  2  1  0
  2  3  1  0
  2  4  2  0
  4  5  1  0
  4  6  1  0
  6  7  1  0
  6  8  1  0
  6  9  1  0
  9 10  1  0
  9 11  2  0
 11 12  1  0
 12 13  1  0
 12 14  1  0
 11 15  1  0
 15 16  1  0
 15 17  1  0
 17 18  2  0
 18 19  1  0
 18 20  1  0
 20 21  1  0
 20 22  2  0
 22 23  1  0
 23 24  1  0
 23 25  1  0
 23 26  1  0
 26 27  2  0
 27 28  1  0
 27 29  1  0
 29 30  1  0
 29 31  2  0
 31 32  1  0
 32 33  1  0
 33 34  2  0
 33 35  2  0
 33 36  1  0
 36 37  1  0
 36 38  1  0
 36 39  1  0
 39 40  2  0
 40 41  1  0
 40 42  1  0
 42 43  1  0
 42 44  2  0
 44 45  1  0
 44 46  1  0
 46 47  1  0
 46 48  2  0
 48 49  1  0
 31 50  1  0
 50 51  1  0
 50 52  2  0
 52 53  1  0
 22 54  1  0
 54 55  1  0
 54 56  2  0
 56 57  1  0
 56 17  1  0
 52 26  1  0
 48 39  1  0
M  CHG  2   9   1  32  -1
M  END
>  <UniqueID>  (76) 
68

>  <SMILES>  (76) 
C=CC/[NH+]=C(/N)Nc1ccc(Cc2ccc([N-]S(=O)(=O)Cc3ccccc3)cc2)cc1

>  <Energy>  (76) 
53.271555061213895

>  <Genealogy>  (76) 
C=CC[NH+]=C(N)Nc1ccc(Cc2ccc([N-]S(=O)(=O)Cc3ccccc3)cc2)cc1 (protonated)
C=CC/[NH+]=C(/N)Nc1ccc(Cc2ccc([N-]S(=O)(=O)Cc3ccccc3)cc2)cc1 (cis-trans isomerization)
C=CC/[NH+]=C(/N)Nc1ccc(Cc2ccc([N-]S(=O)(=O)Cc3ccccc3)cc2)cc1 (3D coordinates assigned)
C=CC/[NH+]=C(/N)Nc1ccc(Cc2ccc([N-]S(=O)(=O)Cc3ccccc3)cc2)cc1 (optimized conformer: 53.271555061213895 kcal/mol)

>  <smiles>  (76) 
C=CCN=C(N)Nc1ccc(Cc2ccc(NS(=O)(=O)Cc3ccccc3)cc2)cc1

>  <score_type>  (76) 
oracle

>  <origin>  (76) 
adg

>  <m_score__min__energy>  (76) 
-9.6300000000000008

>  <m_primary>  (76) 
energy

$$$$
76:0
     RDKit          3D

 42 44  0  0  0  0  0  0  0  0999 V2000
   64.5150   33.4450   48.4630 N   0  0  0  0  0  0  0  0  0  0  0  0
   63.0340   33.4780   49.3510 S   0  0  0  0  0  0  0  0  0  0  0  0
   63.0670   34.6050   50.3460 O   0  0  0  0  0  0  0  0  0  0  0  0
   62.8770   32.1830   50.0950 O   0  0  0  0  0  0  0  0  0  0  0  0
   61.6920   33.7120   48.2380 C   0  0  0  0  0  0  0  0  0  0  0  0
   61.9300   33.7260   46.8590 C   0  0  0  0  0  0  0  0  0  0  0  0
   60.8670   33.8580   45.9630 C   0  0  0  0  0  0  0  0  0  0  0  0
   59.5540   33.9710   46.4380 C   0  0  0  0  0  0  0  0  0  0  0  0
   58.2190   34.0010   45.2880 S   0  0  0  0  0  0  0  0  0  0  0  0
   56.9020   33.7770   45.9770 O   0  0  0  0  0  0  0  0  0  0  0  0
   58.1980   35.3390   44.6020 O   0  0  0  0  0  0  0  0  0  0  0  0
   58.4770   32.7530   44.1120 N   0  0  0  0  0  0  0  0  0  0  0  0
   57.9060   31.4440   44.2300 C   0  0  0  0  0  0  0  0  0  0  0  0
   56.8460   31.0300   43.4070 C   0  0  0  0  0  0  0  0  0  0  0  0
   56.2480   29.7840   43.6040 C   0  0  0  0  0  0  0  0  0  0  0  0
   56.6930   28.9480   44.6290 C   0  0  0  0  0  0  0  0  0  0  0  0
   57.7590   29.3440   45.4570 C   0  0  0  0  0  0  0  0  0  0  0  0
   58.1930   28.4880   46.5870 C   0  0  0  0  0  0  0  0  0  0  0  0
   59.3220   28.6740   47.1130 O   0  0  0  0  0  0  0  0  0  0  0  0
   57.3860   27.3970   47.0480 N   0  0  0  0  0  0  0  0  0  0  0  0
   57.1550   26.2590   46.4520 C   0  0  0  0  0  0  0  0  0  0  0  0
   58.1800   25.3650   46.3790 N   0  0  0  0  0  0  0  0  0  0  0  0
   58.0590   24.1600   45.7640 C   0  0  0  0  0  0  0  0  0  0  0  0
   56.8500   23.7940   45.1750 C   0  0  0  0  0  0  0  0  0  0  0  0
   55.7680   24.6690   45.2470 C   0  0  0  0  0  0  0  0  0  0  0  0
   55.8980   25.8980   45.8980 C   0  0  0  0  0  0  0  0  0  0  0  0
   54.7720   26.7060   46.0170 O   0  0  0  0  0  0  0  0  0  0  0  0
   58.3790   30.5850   45.2280 C   0  0  0  0  0  0  0  0  0  0  0  0
   59.3150   33.9670   47.8200 C   0  0  0  0  0  0  0  0  0  0  0  0
   60.3810   33.8370   48.7160 C   0  0  0  0  0  0  0  0  0  0  0  0
   64.5170   32.5610   47.9060 H   0  0  0  0  0  0  0  0  0  0  0  0
   62.9582   33.6327   46.4794 H   0  0  0  0  0  0  0  0  0  0  0  0
   61.0614   33.8733   44.8804 H   0  0  0  0  0  0  0  0  0  0  0  0
   56.4856   31.6900   42.6042 H   0  0  0  0  0  0  0  0  0  0  0  0
   55.4246   29.4606   42.9502 H   0  0  0  0  0  0  0  0  0  0  0  0
   56.2076   27.9742   44.7903 H   0  0  0  0  0  0  0  0  0  0  0  0
   58.9166   23.4719   45.7307 H   0  0  0  0  0  0  0  0  0  0  0  0
   56.7513   22.8270   44.6600 H   0  0  0  0  0  0  0  0  0  0  0  0
   54.8073   24.3907   44.7892 H   0  0  0  0  0  0  0  0  0  0  0  0
   59.2437   30.8832   45.8390 H   0  0  0  0  0  0  0  0  0  0  0  0
   58.2874   34.0663   48.1998 H   0  0  0  0  0  0  0  0  0  0  0  0
   60.1895   33.8329   49.7992 H   0  0  0  0  0  0  0  0  0  0  0  0
  1  2  1  0
  2  3  2  0
  2  4  2  0
  2  5  1  0
  5  6  2  0
  6  7  1  0
  7  8  2  0
  8  9  1  0
  9 10  2  0
  9 11  2  0
  9 12  1  0
 12 13  1  0
 13 14  2  0
 14 15  1  0
 15 16  2  0
 16 17  1  0
 17 18  1  0
 18 19  2  0
 18 20  1  0
 20 21  2  3
 21 22  1  0
 22 23  1  0
 23 24  2  0
 24 25  1  0
 25 26  2  0
 26 27  1  0
 17 28  2  0
  8 29  1  0
 29 30  2  0
 30  5  1  0
 28 13  1  0
 26 21  1  0
  1 31  1  0
  6 32  1  0
  7 33  1  0
 14 34  1  0
 15 35  1  0
 16 36  1  0
 23 37  1  0
 24 38  1  0
 25 39  1  0
 28 40  1  0
 29 41  1  0
 30 42  1  0
M  CHG  4   1  -1  12  -1  22  -1  27  -1
M  END
>  <UniqueID>  (77) 
69

>  <SMILES>  (77) 
[NH-]S(=O)(=O)c1ccc(S(=O)(=O)[N-]c2cccc(C(=O)N=c3[n-]cccc3[O-])c2)cc1

>  <Energy>  (77) 
63.09731154168246

>  <Genealogy>  (77) 
[NH-]S(=O)(=O)c1ccc(S(=O)(=O)[N-]c2cccc(C(=O)N=c3[n-]cccc3[O-])c2)cc1 (protonated)
[NH-]S(=O)(=O)c1ccc(S(=O)(=O)[N-]c2cccc(C(=O)N=c3[n-]cccc3[O-])c2)cc1 (3D coordinates assigned)
[NH-]S(=O)(=O)c1ccc(S(=O)(=O)[N-]c2cccc(C(=O)N=c3[n-]cccc3[O-])c2)cc1 (optimized conformer: 63.09731154168246 kcal/mol)

>  <smiles>  (77) 
NS(=O)(=O)c1ccc(S(=O)(=O)Nc2cccc(C(=O)N=c3[nH]cccc3O)c2)cc1

>  <score_type>  (77) 
oracle

>  <origin>  (77) 
adg

>  <m_score__min__energy>  (77) 
-17.530000000000001

>  <m_primary>  (77) 
energy

$$$$
77:0
     RDKit          3D

 53 55  0  0  0  0  0  0  0  0999 V2000
   60.0476   34.4039   50.3952 H   0  0  0  0  0  0  0  0  0  0  0  0
   60.2700   34.1920   49.3390 C   0  0  0  0  0  0  0  0  0  0  0  0
   59.2720   34.2120   48.4170 N   0  0  0  0  0  0  0  0  0  0  0  0
   59.5240   33.9500   47.1040 C   0  0  0  0  0  0  0  0  0  0  0  0
   58.5670   33.9660   46.2220 N   0  0  0  0  0  0  0  0  0  0  0  0
   57.3970   33.0880   46.2400 C   0  0  0  0  0  0  0  0  0  0  0  0
   56.4945   33.6870   46.4312 H   0  0  0  0  0  0  0  0  0  0  0  0
   57.5202   32.3370   47.0342 H   0  0  0  0  0  0  0  0  0  0  0  0
   57.2610   32.3930   44.9220 C   0  0  0  0  0  0  0  0  0  0  0  0
   57.3980   33.0450   43.8500 O   0  0  0  0  0  0  0  0  0  0  0  0
   57.0310   30.9810   44.8920 N   0  0  0  0  0  0  0  0  0  0  0  0
   58.0140   30.0080   44.4200 C   0  0  1  0  0  0  0  0  0  0  0  0
   58.4746   30.3453   43.4798 H   0  0  0  0  0  0  0  0  0  0  0  0
   59.1620   29.8700   45.4500 C   0  0  0  0  0  0  0  0  0  0  0  0
   60.0865   29.5962   44.9206 H   0  0  0  0  0  0  0  0  0  0  0  0
   59.2789   30.8331   45.9684 H   0  0  0  0  0  0  0  0  0  0  0  0
   58.8500   28.7950   46.4960 C   0  0  0  0  0  0  0  0  0  0  0  0
   59.6668   28.7660   47.2322 H   0  0  0  0  0  0  0  0  0  0  0  0
   57.8948   29.0515   46.9775 H   0  0  0  0  0  0  0  0  0  0  0  0
   58.7050   27.3900   45.8490 C   0  0  1  0  0  0  0  0  0  0  0  0
   59.7097   26.9424   45.8312 H   0  0  0  0  0  0  0  0  0  0  0  0
   57.7740   26.4880   46.6930 C   0  0  0  0  0  0  0  0  0  0  0  0
   57.8088   26.8196   47.7413 H   0  0  0  0  0  0  0  0  0  0  0  0
   58.1222   25.4487   46.5999 H   0  0  0  0  0  0  0  0  0  0  0  0
   56.3890   26.5540   46.2180 N   0  0  0  0  0  0  0  0  0  0  0  0
   55.6760   25.5910   45.7020 C   0  0  0  0  0  0  0  0  0  0  0  0
   54.3430   25.5570   45.9760 N   0  0  0  0  0  0  0  0  0  0  0  0
   53.5220   24.5910   45.4850 C   0  0  0  0  0  0  0  0  0  0  0  0
   52.4504   24.6020   45.7329 H   0  0  0  0  0  0  0  0  0  0  0  0
   54.0380   23.5860   44.6670 C   0  0  0  0  0  0  0  0  0  0  0  0
   53.3767   22.8002   44.2731 H   0  0  0  0  0  0  0  0  0  0  0  0
   55.4000   23.5820   44.3500 C   0  0  0  0  0  0  0  0  0  0  0  0
   55.8880   22.5630   43.5180 O   0  0  0  0  0  0  0  0  0  0  0  0
   57.2000   22.0130   43.6020 C   0  0  0  0  0  0  0  0  0  0  0  0
   57.4812   21.8951   44.6589 H   0  0  0  0  0  0  0  0  0  0  0  0
   57.2185   21.0314   43.1060 H   0  0  0  0  0  0  0  0  0  0  0  0
   57.9130   22.6880   43.1060 H   0  0  0  0  0  0  0  0  0  0  0  0
   56.2300   24.5950   44.8700 C   0  0  0  0  0  0  0  0  0  0  0  0
   57.3031   24.6093   44.6289 H   0  0  0  0  0  0  0  0  0  0  0  0
   58.2130   27.4620   44.3760 C   0  0  0  0  0  0  0  0  0  0  0  0
   59.0862   27.5464   43.7123 H   0  0  0  0  0  0  0  0  0  0  0  0
   57.6409   26.5475   44.1607 H   0  0  0  0  0  0  0  0  0  0  0  0
   57.2940   28.6660   44.1430 C   0  0  0  0  0  0  0  0  0  0  0  0
   56.9531   28.6553   43.0972 H   0  0  0  0  0  0  0  0  0  0  0  0
   56.4461   28.5856   44.8391 H   0  0  0  0  0  0  0  0  0  0  0  0
   60.7920   33.6650   46.7060 N   0  0  0  0  0  0  0  0  0  0  0  0
   61.8240   33.6410   47.5940 C   0  0  0  0  0  0  0  0  0  0  0  0
   63.2160   33.3350   47.1230 C   0  0  0  0  0  0  0  0  0  0  0  0
   63.3940   31.9680   46.9830 F   0  0  0  0  0  0  0  0  0  0  0  0
   64.1330   33.8150   48.0420 F   0  0  0  0  0  0  0  0  0  0  0  0
   63.4390   33.9420   45.8990 F   0  0  0  0  0  0  0  0  0  0  0  0
   61.5750   33.9030   48.9460 C   0  0  0  0  0  0  0  0  0  0  0  0
   62.3919   33.8812   49.6824 H   0  0  0  0  0  0  0  0  0  0  0  0
  1  2  1  0
  2  3  1  0
  3  4  1  0
  4  5  2  0
  5  6  1  0
  6  7  1  0
  6  8  1  0
  6  9  1  0
  9 10  2  0
  9 11  1  0
 11 12  1  0
 12 13  1  6
 12 14  1  0
 14 15  1  0
 14 16  1  0
 14 17  1  0
 17 18  1  0
 17 19  1  0
 17 20  1  0
 20 21  1  6
 20 22  1  0
 22 23  1  0
 22 24  1  0
 22 25  1  0
 25 26  2  3
 26 27  1  0
 27 28  1  0
 28 29  1  0
 28 30  2  0
 30 31  1  0
 30 32  1  0
 32 33  1  0
 33 34  1  0
 34 35  1  0
 34 36  1  0
 34 37  1  0
 32 38  2  0
 38 39  1  0
 20 40  1  0
 40 41  1  0
 40 42  1  0
 40 43  1  0
 43 44  1  0
 43 45  1  0
  4 46  1  0
 46 47  2  0
 47 48  1  0
 48 49  1  0
 48 50  1  0
 48 51  1  0
 47 52  1  0
 52 53  1  0
 52  2  2  0
 43 12  1  0
 38 26  1  0
M  CHG  3   3  -1  11  -1  27  -1
M  END
>  <UniqueID>  (78) 
70

>  <SMILES>  (78) 
COc1cc[n-]c(=NCC2CCC([N-]C(=O)C/N=c3/nc(C(F)(F)F)cc[n-]3)CC2)c1

>  <Energy>  (78) 
55.43015852191945

>  <Genealogy>  (78) 
COc1cc[n-]c(=NCC2CCC([N-]C(=O)CN=c3nc(C(F)(F)F)cc[n-]3)CC2)c1 (protonated)
COc1cc[n-]c(=NCC2CCC([N-]C(=O)C/N=c3/nc(C(F)(F)F)cc[n-]3)CC2)c1 (cis-trans isomerization)
COc1cc[n-]c(=NCC2CCC([N-]C(=O)C/N=c3/nc(C(F)(F)F)cc[n-]3)CC2)c1 (3D coordinates assigned)
COc1cc[n-]c(=NCC2CCC([N-]C(=O)C/N=c3/nc(C(F)(F)F)cc[n-]3)CC2)c1 (nonaromatic ring conformer: 55.43015852191945 kcal/mol)

>  <smiles>  (78) 
COc1cc[nH]c(=NCC2CCC(NC(=O)CN=c3nc(C(F)(F)F)cc[nH]3)CC2)c1

>  <score_type>  (78) 
oracle

>  <origin>  (78) 
adg

>  <m_score__min__energy>  (78) 
-12.890000000000001

>  <m_primary>  (78) 
energy

$$$$
78:0
     RDKit          3D

 53 56  0  0  0  0  0  0  0  0999 V2000
   57.9590   35.6980   52.2430 H   0  0  0  0  0  0  0  0  0  0  0  0
   58.2580   34.8790   52.7590 O   0  0  0  0  0  0  0  0  0  0  0  0
   58.5690   33.6850   52.1120 C   0  0  0  0  0  0  0  0  0  0  0  0
   57.6100   32.6720   52.0310 C   0  0  0  0  0  0  0  0  0  0  0  0
   56.6168   32.8206   52.4798 H   0  0  0  0  0  0  0  0  0  0  0  0
   57.9080   31.4710   51.3820 C   0  0  0  0  0  0  0  0  0  0  0  0
   57.1502   30.6753   51.3308 H   0  0  0  0  0  0  0  0  0  0  0  0
   59.1650   31.2730   50.7960 C   0  0  0  0  0  0  0  0  0  0  0  0
   59.4370   30.0170   50.1580 N   0  0  0  0  0  0  0  0  0  0  0  0
   59.7010   29.8040   48.7670 C   0  0  0  0  0  0  0  0  0  0  0  0
   58.9080   29.0870   48.1040 O   0  0  0  0  0  0  0  0  0  0  0  0
   60.8480   30.4020   48.1430 N   0  0  0  0  0  0  0  0  0  0  0  0
   61.0680   31.6670   47.9260 C   0  0  0  0  0  0  0  0  0  0  0  0
   61.9867   32.1080   48.3401 H   0  0  0  0  0  0  0  0  0  0  0  0
   60.1650   32.5460   47.1610 C   0  0  0  0  0  0  0  0  0  0  0  0
   59.9240   33.8900   47.4120 C   0  0  0  0  0  0  0  0  0  0  0  0
   60.6110   34.6530   48.3460 O   0  0  0  0  0  0  0  0  0  0  0  0
   58.9220   34.3850   46.6500 N   0  0  0  0  0  0  0  0  0  0  0  0
   58.5080   33.3280   45.9270 C   0  0  0  0  0  0  0  0  0  0  0  0
   57.4300   33.3020   45.0450 C   0  0  0  0  0  0  0  0  0  0  0  0
   56.8706   34.2193   44.8091 H   0  0  0  0  0  0  0  0  0  0  0  0
   57.0770   32.0720   44.4650 C   0  0  0  0  0  0  0  0  0  0  0  0
   56.2369   32.0241   43.7565 H   0  0  0  0  0  0  0  0  0  0  0  0
   57.7940   30.8930   44.7850 C   0  0  0  0  0  0  0  0  0  0  0  0
   57.2890   29.3350   44.1380 S   0  0  0  0  0  0  0  0  0  0  0  0
   56.5580   29.5230   42.8370 O   0  0  0  0  0  0  0  0  0  0  0  0
   58.5140   28.5020   43.8860 O   0  0  0  0  0  0  0  0  0  0  0  0
   56.2610   28.5030   45.2710 N   0  0  0  0  0  0  0  0  0  0  0  0
   57.0180   27.5610   46.1000 C   0  0  0  0  0  0  0  0  0  0  0  0
   56.6940   27.6605   47.1465 H   0  0  0  0  0  0  0  0  0  0  0  0
   58.0895   27.7919   46.0074 H   0  0  0  0  0  0  0  0  0  0  0  0
   56.7880   26.1420   45.6440 C   0  0  0  0  0  0  0  0  0  0  0  0
   57.8890   25.3530   45.2770 C   0  0  0  0  0  0  0  0  0  0  0  0
   58.8990   25.7887   45.2812 H   0  0  0  0  0  0  0  0  0  0  0  0
   57.7110   24.0200   44.9070 C   0  0  0  0  0  0  0  0  0  0  0  0
   58.5798   23.4106   44.6175 H   0  0  0  0  0  0  0  0  0  0  0  0
   56.4340   23.4570   44.9030 C   0  0  0  0  0  0  0  0  0  0  0  0
   56.3015   22.4023   44.6201 H   0  0  0  0  0  0  0  0  0  0  0  0
   55.3160   24.2320   45.2590 C   0  0  0  0  0  0  0  0  0  0  0  0
   54.0160   23.7020   45.2830 O   0  0  0  0  0  0  0  0  0  0  0  0
   53.4150   23.0970   46.4230 C   0  0  0  0  0  0  0  0  0  0  0  0
   53.8455   23.5303   47.3378 H   0  0  0  0  0  0  0  0  0  0  0  0
   52.3304   23.2796   46.4060 H   0  0  0  0  0  0  0  0  0  0  0  0
   53.6048   22.0136   46.4060 H   0  0  0  0  0  0  0  0  0  0  0  0
   55.4960   25.5770   45.6170 C   0  0  0  0  0  0  0  0  0  0  0  0
   54.3830   26.3400   45.9620 O   0  0  0  0  0  0  0  0  0  0  0  0
   58.8930   30.9550   45.6640 C   0  0  0  0  0  0  0  0  0  0  0  0
   59.4718   30.0526   45.9102 H   0  0  0  0  0  0  0  0  0  0  0  0
   59.2270   32.1940   46.2140 C   0  0  0  0  0  0  0  0  0  0  0  0
   60.1390   32.2820   50.9050 C   0  0  0  0  0  0  0  0  0  0  0  0
   61.1425   32.1230   50.4835 H   0  0  0  0  0  0  0  0  0  0  0  0
   59.8360   33.4860   51.5470 C   0  0  0  0  0  0  0  0  0  0  0  0
   60.5946   34.2801   51.6090 H   0  0  0  0  0  0  0  0  0  0  0  0
  1  2  1  0
  2  3  1  0
  3  4  2  0
  4  5  1  0
  4  6  1  0
  6  7  1  0
  6  8  2  0
  8  9  1  0
  9 10  1  0
 10 11  2  0
 10 12  1  0
 12 13  2  0
 13 14  1  0
 13 15  1  0
 15 16  2  0
 16 17  1  0
 16 18  1  0
 18 19  1  0
 19 20  2  0
 20 21  1  0
 20 22  1  0
 22 23  1  0
 22 24  2  0
 24 25  1  0
 25 26  2  0
 25 27  2  0
 25 28  1  0
 28 29  1  0
 29 30  1  0
 29 31  1  0
 29 32  1  0
 32 33  2  0
 33 34  1  0
 33 35  1  0
 35 36  1  0
 35 37  2  0
 37 38  1  0
 37 39  1  0
 39 40  1  0
 40 41  1  0
 41 42  1  0
 41 43  1  0
 41 44  1  0
 39 45  2  0
 45 46  1  0
 24 47  1  0
 47 48  1  0
 47 49  2  0
  8 50  1  0
 50 51  1  0
 50 52  2  0
 52 53  1  0
 52  3  1  0
 49 15  1  0
 49 19  1  0
 45 32  1  0
M  CHG  5   9  -1  17  -1  18  -1  28  -1  46  -1
M  END
>  <UniqueID>  (79) 
71

>  <SMILES>  (79) 
COc1cccc(C[N-]S(=O)(=O)c2ccc3[n-]c([O-])c(/C=N\C(=O)[N-]c4ccc(O)cc4)c3c2)c1[O-]

>  <Energy>  (79) 
95.92993393881801

>  <Genealogy>  (79) 
COc1cccc(C[N-]S(=O)(=O)c2ccc3[n-]c([O-])c(C=NC(=O)[N-]c4ccc(O)cc4)c3c2)c1[O-] (protonated)
COc1cccc(C[N-]S(=O)(=O)c2ccc3[n-]c([O-])c(/C=N\C(=O)[N-]c4ccc(O)cc4)c3c2)c1[O-] (cis-trans isomerization)
COc1cccc(C[N-]S(=O)(=O)c2ccc3[n-]c([O-])c(/C=N\C(=O)[N-]c4ccc(O)cc4)c3c2)c1[O-] (3D coordinates assigned)
COc1cccc(C[N-]S(=O)(=O)c2ccc3[n-]c([O-])c(/C=N\C(=O)[N-]c4ccc(O)cc4)c3c2)c1[O-] (optimized conformer: 95.92993393881801 kcal/mol)

>  <smiles>  (79) 
COc1cccc(CNS(=O)(=O)c2ccc3[nH]c(O)c(C=NC(=O)Nc4ccc(O)cc4)c3c2)c1O

>  <score_type>  (79) 
oracle

>  <origin>  (79) 
adg

>  <m_score__min__energy>  (79) 
-17.09

>  <m_primary>  (79) 
energy

$$$$
79:0
     RDKit          3D

 41 43  0  0  0  0  0  0  0  0999 V2000
   55.4580   27.6850   54.5040 C   0  0  0  0  0  0  0  0  0  0  0  0
   55.9170   28.5810   53.6180 C   0  0  0  0  0  0  0  0  0  0  0  0
   57.2470   28.5490   53.3570 N   0  0  0  0  0  0  0  0  0  0  0  0
   57.8710   29.5050   52.6350 C   0  0  0  0  0  0  0  0  0  0  0  0
   59.1070   29.3870   52.4110 O   0  0  0  0  0  0  0  0  0  0  0  0
   57.1750   30.5890   52.1760 N   0  0  0  0  0  0  0  0  0  0  0  0
   57.8670   31.6130   51.3630 C   0  0  0  0  0  0  0  0  0  0  0  0
   58.3740   31.0240   50.0370 C   0  0  0  0  0  0  0  0  0  0  0  0
   58.8950   32.0950   49.1130 C   0  0  0  0  0  0  0  0  0  0  0  0
   58.1620   32.4640   47.9700 C   0  0  0  0  0  0  0  0  0  0  0  0
   58.6060   33.5080   47.1550 C   0  0  0  0  0  0  0  0  0  0  0  0
   59.7830   34.1910   47.4720 C   0  0  0  0  0  0  0  0  0  0  0  0
   60.5170   33.8320   48.6060 C   0  0  0  0  0  0  0  0  0  0  0  0
   60.0730   32.7910   49.4280 C   0  0  0  0  0  0  0  0  0  0  0  0
   55.8210   30.6710   52.3950 C   0  0  0  0  0  0  0  0  0  0  0  0
   55.1830   31.6750   51.9650 O   0  0  0  0  0  0  0  0  0  0  0  0
   55.1240   29.6200   53.0450 C   0  0  0  0  0  0  0  0  0  0  0  0
   53.7610   29.6440   53.0490 C   0  0  0  0  0  0  0  0  0  0  0  0
   52.9010   30.3810   52.0980 C   0  0  0  0  0  0  0  0  0  0  0  0
   52.7150   29.8750   50.8030 C   0  0  0  0  0  0  0  0  0  0  0  0
   51.8690   30.5330   49.9040 C   0  0  0  0  0  0  0  0  0  0  0  0
   51.1860   31.6870   50.3000 C   0  0  0  0  0  0  0  0  0  0  0  0
   50.3480   32.3370   49.4010 O   0  0  0  0  0  0  0  0  0  0  0  0
   51.3430   32.1810   51.6000 C   0  0  0  0  0  0  0  0  0  0  0  0
   50.6550   33.3210   52.0020 O   0  0  0  0  0  0  0  0  0  0  0  0
   52.1890   31.5250   52.5000 C   0  0  0  0  0  0  0  0  0  0  0  0
   54.3879   27.6609   54.7578 H   0  0  0  0  0  0  0  0  0  0  0  0
   56.1516   26.9742   54.9770 H   0  0  0  0  0  0  0  0  0  0  0  0
   57.1659   32.4325   51.1463 H   0  0  0  0  0  0  0  0  0  0  0  0
   58.7327   31.9820   51.9326 H   0  0  0  0  0  0  0  0  0  0  0  0
   59.1850   30.3121   50.2503 H   0  0  0  0  0  0  0  0  0  0  0  0
   57.5301   30.5235   49.5397 H   0  0  0  0  0  0  0  0  0  0  0  0
   57.2353   31.9280   47.7171 H   0  0  0  0  0  0  0  0  0  0  0  0
   58.0286   33.7926   46.2630 H   0  0  0  0  0  0  0  0  0  0  0  0
   60.1323   35.0120   46.8285 H   0  0  0  0  0  0  0  0  0  0  0  0
   61.4450   34.3688   48.8523 H   0  0  0  0  0  0  0  0  0  0  0  0
   60.6487   32.5167   50.3243 H   0  0  0  0  0  0  0  0  0  0  0  0
   53.2539   29.0612   53.8321 H   0  0  0  0  0  0  0  0  0  0  0  0
   53.2364   28.9573   50.4932 H   0  0  0  0  0  0  0  0  0  0  0  0
   51.7409   30.1419   48.8839 H   0  0  0  0  0  0  0  0  0  0  0  0
   52.2978   31.9055   53.5264 H   0  0  0  0  0  0  0  0  0  0  0  0
  1  2  2  0
  2  3  1  0
  3  4  1  0
  4  5  2  0
  4  6  1  0
  6  7  1  0
  7  8  1  0
  8  9  1  0
  9 10  2  0
 10 11  1  0
 11 12  2  0
 12 13  1  0
 13 14  2  0
  6 15  1  0
 15 16  2  0
 15 17  1  0
 17 18  2  3
 18 19  1  0
 19 20  2  0
 20 21  1  0
 21 22  2  0
 22 23  1  0
 22 24  1  0
 24 25  1  0
 24 26  2  0
 17  2  1  0
 26 19  1  0
 14  9  1  0
  1 27  1  0
  1 28  1  0
  7 29  1  0
  7 30  1  0
  8 31  1  0
  8 32  1  0
 10 33  1  0
 11 34  1  0
 12 35  1  0
 13 36  1  0
 14 37  1  0
 18 38  1  0
 20 39  1  0
 21 40  1  0
 26 41  1  0
M  CHG  3   3  -1  23  -1  25  -1
M  END
>  <UniqueID>  (80) 
72

>  <SMILES>  (80) 
C=c1[n-]c(=O)n(CCc2ccccc2)c(=O)c1=Cc1ccc([O-])c([O-])c1

>  <Energy>  (80) 
66.75794745052428

>  <Genealogy>  (80) 
C=c1[n-]c(=O)n(CCc2ccccc2)c(=O)c1=Cc1ccc([O-])c([O-])c1 (protonated)
C=c1[n-]c(=O)n(CCc2ccccc2)c(=O)c1=Cc1ccc([O-])c([O-])c1 (3D coordinates assigned)
C=c1[n-]c(=O)n(CCc2ccccc2)c(=O)c1=Cc1ccc([O-])c([O-])c1 (optimized conformer: 66.75794745052428 kcal/mol)

>  <smiles>  (80) 
C=c1[nH]c(=O)n(CCc2ccccc2)c(=O)c1=Cc1ccc(O)c(O)c1

>  <score_type>  (80) 
oracle

>  <origin>  (80) 
adg

>  <m_score__min__energy>  (80) 
-17.690000000000001

>  <m_primary>  (80) 
energy

$$$$
80:0
     RDKit          3D

 44 46  0  0  0  0  0  0  0  0999 V2000
   60.2600   29.1880   49.1020 C   0  0  0  0  0  0  0  0  0  0  0  0
   59.0080   29.8430   48.9400 O   0  0  0  0  0  0  0  0  0  0  0  0
   58.7200   30.7770   47.9300 C   0  0  0  0  0  0  0  0  0  0  0  0
   58.7100   30.4120   46.5680 C   0  0  0  0  0  0  0  0  0  0  0  0
   58.4170   31.3580   45.5840 C   0  0  0  0  0  0  0  0  0  0  0  0
   58.1310   32.6750   45.9410 C   0  0  0  0  0  0  0  0  0  0  0  0
   58.1360   33.0510   47.2850 C   0  0  0  0  0  0  0  0  0  0  0  0
   58.4310   32.1120   48.2870 C   0  0  0  0  0  0  0  0  0  0  0  0
   58.4050   32.5570   49.7300 C   0  0  0  0  0  0  0  0  0  0  0  0
   57.5720   31.6540   50.5230 N   0  0  0  0  0  0  0  0  0  0  0  0
   57.0140   32.0380   51.7910 C   0  0  0  0  0  0  0  0  0  0  0  0
   57.3160   33.1550   52.2930 O   0  0  0  0  0  0  0  0  0  0  0  0
   56.1000   31.1340   52.5310 C   0  0  0  0  0  0  0  0  0  0  0  0
   56.3660   30.8170   53.8750 C   0  0  0  0  0  0  0  0  0  0  0  0
   55.5100   29.9750   54.5870 C   0  0  0  0  0  0  0  0  0  0  0  0
   54.3750   29.4440   53.9720 C   0  0  0  0  0  0  0  0  0  0  0  0
   54.0890   29.7500   52.6330 C   0  0  0  0  0  0  0  0  0  0  0  0
   52.8400   29.2190   51.9810 C   0  0  0  0  0  0  0  0  0  0  0  0
   52.2190   30.2730   51.1000 C   0  0  0  0  0  0  0  0  0  0  0  0
   52.0150   31.5710   51.5860 C   0  0  0  0  0  0  0  0  0  0  0  0
   51.4250   32.5100   50.8030 N   0  0  0  0  0  0  0  0  0  0  0  0
   51.0160   32.2120   49.5440 C   0  0  0  0  0  0  0  0  0  0  0  0
   50.4720   33.0980   48.8340 O   0  0  0  0  0  0  0  0  0  0  0  0
   51.1890   30.9590   49.0510 N   0  0  0  0  0  0  0  0  0  0  0  0
   51.7750   29.9860   49.7960 C   0  0  0  0  0  0  0  0  0  0  0  0
   51.9140   28.8340   49.3070 O   0  0  0  0  0  0  0  0  0  0  0  0
   54.9480   30.6040   51.9210 C   0  0  0  0  0  0  0  0  0  0  0  0
   60.4781   29.0739   50.1741 H   0  0  0  0  0  0  0  0  0  0  0  0
   60.2188   28.1959   48.6286 H   0  0  0  0  0  0  0  0  0  0  0  0
   61.0515   29.7876   48.6286 H   0  0  0  0  0  0  0  0  0  0  0  0
   58.9346   29.3747   46.2788 H   0  0  0  0  0  0  0  0  0  0  0  0
   58.4118   31.0635   44.5242 H   0  0  0  0  0  0  0  0  0  0  0  0
   57.9013   33.4180   45.1631 H   0  0  0  0  0  0  0  0  0  0  0  0
   57.9072   34.0907   47.5617 H   0  0  0  0  0  0  0  0  0  0  0  0
   59.4296   32.5514   50.1303 H   0  0  0  0  0  0  0  0  0  0  0  0
   57.9855   33.5724   49.7845 H   0  0  0  0  0  0  0  0  0  0  0  0
   57.4420   30.6810   50.1680 H   0  0  0  0  0  0  0  0  0  0  0  0
   57.2552   31.2357   54.3689 H   0  0  0  0  0  0  0  0  0  0  0  0
   55.7306   29.7291   55.6362 H   0  0  0  0  0  0  0  0  0  0  0  0
   53.7026   28.7835   54.5391 H   0  0  0  0  0  0  0  0  0  0  0  0
   53.0952   28.3404   51.3703 H   0  0  0  0  0  0  0  0  0  0  0  0
   52.1201   28.9385   52.7640 H   0  0  0  0  0  0  0  0  0  0  0  0
   52.3342   31.8304   52.6062 H   0  0  0  0  0  0  0  0  0  0  0  0
   54.7177   30.8608   50.8765 H   0  0  0  0  0  0  0  0  0  0  0  0
  1  2  1  0
  2  3  1  0
  3  4  2  0
  4  5  1  0
  5  6  2  0
  6  7  1  0
  7  8  2  0
  8  9  1  0
  9 10  1  0
 10 11  1  0
 11 12  2  0
 11 13  1  0
 13 14  2  0
 14 15  1  0
 15 16  2  0
 16 17  1  0
 17 18  1  0
 18 19  1  0
 19 20  2  0
 20 21  1  0
 21 22  1  0
 22 23  2  0
 22 24  1  0
 24 25  1  0
 25 26  2  0
 17 27  2  0
  8  3  1  0
 27 13  1  0
 25 19  1  0
  1 28  1  0
  1 29  1  0
  1 30  1  0
  4 31  1  0
  5 32  1  0
  6 33  1  0
  7 34  1  0
  9 35  1  0
  9 36  1  0
 10 37  1  0
 14 38  1  0
 15 39  1  0
 16 40  1  0
 18 41  1  0
 18 42  1  0
 20 43  1  0
 27 44  1  0
M  CHG  2  21  -1  24  -1
M  END
>  <UniqueID>  (81) 
73

>  <SMILES>  (81) 
COc1ccccc1CNC(=O)c1cccc(Cc2c[n-]c(=O)[n-]c2=O)c1

>  <Energy>  (81) 
47.73251630884119

>  <Genealogy>  (81) 
COc1ccccc1CNC(=O)c1cccc(Cc2c[n-]c(=O)[n-]c2=O)c1 (protonated)
COc1ccccc1CNC(=O)c1cccc(Cc2c[n-]c(=O)[n-]c2=O)c1 (3D coordinates assigned)
COc1ccccc1CNC(=O)c1cccc(Cc2c[n-]c(=O)[n-]c2=O)c1 (optimized conformer: 47.73251630884119 kcal/mol)

>  <smiles>  (81) 
COc1ccccc1CNC(=O)c1cccc(Cc2c[nH]c(=O)[nH]c2=O)c1

>  <score_type>  (81) 
oracle

>  <origin>  (81) 
adg

>  <m_score__min__energy>  (81) 
-12.609999999999999

>  <m_primary>  (81) 
energy

$$$$
81:0
     RDKit          3D

 59 62  0  0  0  0  0  0  0  0999 V2000
   58.4850   31.1060   50.4130 C   0  0  0  0  0  0  0  0  0  0  0  0
   59.2630   31.2100   49.1270 C   0  0  0  0  0  0  0  0  0  0  0  0
   59.4230   30.0710   48.3210 C   0  0  0  0  0  0  0  0  0  0  0  0
   60.1460   30.1410   47.1210 C   0  0  0  0  0  0  0  0  0  0  0  0
   60.3550   29.0230   46.3010 O   0  0  0  0  0  0  0  0  0  0  0  0
   60.1750   28.9890   44.8840 C   0  0  0  0  0  0  0  0  0  0  0  0
   59.3500   27.7530   44.4790 C   0  0  0  0  0  0  0  0  0  0  0  0
   59.0830   26.7740   45.6340 C   0  0  0  0  0  0  0  0  0  0  0  0
   57.6540   26.2800   45.8010 C   0  0  0  0  0  0  0  0  0  0  0  0
   56.5130   27.0930   45.7180 C   0  0  0  0  0  0  0  0  0  0  0  0
   56.5050   28.5620   45.5560 C   0  0  0  0  0  0  0  0  0  0  0  0
   57.4470   29.2370   46.0510 O   0  0  0  0  0  0  0  0  0  0  0  0
   55.4720   29.2520   44.8410 N   0  0  0  0  0  0  0  0  0  0  0  0
   55.5910   29.8090   43.4990 C   0  0  0  0  0  0  0  0  0  0  0  0
   56.6020   30.9180   43.5090 C   0  0  0  0  0  0  0  0  0  0  0  0
   57.2140   31.3220   42.3110 C   0  0  0  0  0  0  0  0  0  0  0  0
   58.1390   32.3720   42.3080 C   0  0  0  0  0  0  0  0  0  0  0  0
   58.4530   33.0290   43.5010 C   0  0  0  0  0  0  0  0  0  0  0  0
   57.8540   32.6300   44.6990 C   0  0  0  0  0  0  0  0  0  0  0  0
   56.9310   31.5790   44.7060 C   0  0  0  0  0  0  0  0  0  0  0  0
   55.3910   26.3650   45.9050 N   0  0  0  0  0  0  0  0  0  0  0  0
   55.7970   25.1060   46.1230 C   0  0  0  0  0  0  0  0  0  0  0  0
   54.9790   24.0040   46.3540 C   0  0  0  0  0  0  0  0  0  0  0  0
   55.5900   22.7550   46.5440 C   0  0  0  0  0  0  0  0  0  0  0  0
   56.9910   22.6340   46.5140 C   0  0  0  0  0  0  0  0  0  0  0  0
   57.5740   21.3810   46.6980 O   0  0  0  0  0  0  0  0  0  0  0  0
   57.7980   23.7700   46.2980 C   0  0  0  0  0  0  0  0  0  0  0  0
   57.1680   25.0030   46.0840 C   0  0  0  0  0  0  0  0  0  0  0  0
   60.6910   31.3640   46.7160 C   0  0  0  0  0  0  0  0  0  0  0  0
   60.5620   32.5080   47.5140 C   0  0  0  0  0  0  0  0  0  0  0  0
   61.2400   33.7810   47.0920 C   0  0  0  0  0  0  0  0  0  0  0  0
   59.8540   32.4300   48.7350 C   0  0  0  0  0  0  0  0  0  0  0  0
   59.7220   33.8550   49.7760 Cl  0  0  0  0  0  0  0  0  0  0  0  0
   59.1731   31.1980   51.2663 H   0  0  0  0  0  0  0  0  0  0  0  0
   57.7379   31.9123   50.4558 H   0  0  0  0  0  0  0  0  0  0  0  0
   57.9759   30.1318   50.4558 H   0  0  0  0  0  0  0  0  0  0  0  0
   58.9772   29.1152   48.6336 H   0  0  0  0  0  0  0  0  0  0  0  0
   59.6465   29.8989   44.5635 H   0  0  0  0  0  0  0  0  0  0  0  0
   61.1611   28.9353   44.3994 H   0  0  0  0  0  0  0  0  0  0  0  0
   58.3818   28.0969   44.0861 H   0  0  0  0  0  0  0  0  0  0  0  0
   59.9414   27.2071   43.7292 H   0  0  0  0  0  0  0  0  0  0  0  0
   59.7230   25.8931   45.4776 H   0  0  0  0  0  0  0  0  0  0  0  0
   59.2979   27.3450   46.5493 H   0  0  0  0  0  0  0  0  0  0  0  0
   55.9158   29.0222   42.8023 H   0  0  0  0  0  0  0  0  0  0  0  0
   54.6160   30.2028   43.1762 H   0  0  0  0  0  0  0  0  0  0  0  0
   56.9647   30.8101   41.3698 H   0  0  0  0  0  0  0  0  0  0  0  0
   58.6187   32.6801   41.3673 H   0  0  0  0  0  0  0  0  0  0  0  0
   59.1724   33.8611   43.4970 H   0  0  0  0  0  0  0  0  0  0  0  0
   58.1088   33.1433   45.6379 H   0  0  0  0  0  0  0  0  0  0  0  0
   56.4609   31.2685   45.6508 H   0  0  0  0  0  0  0  0  0  0  0  0
   54.4110   26.7080   45.9550 H   0  0  0  0  0  0  0  0  0  0  0  0
   53.8845   24.1090   46.3867 H   0  0  0  0  0  0  0  0  0  0  0  0
   54.9687   21.8641   46.7177 H   0  0  0  0  0  0  0  0  0  0  0  0
   57.9200   20.8360   45.9140 H   0  0  0  0  0  0  0  0  0  0  0  0
   58.8951   23.6901   46.2975 H   0  0  0  0  0  0  0  0  0  0  0  0
   61.2280   31.4282   45.7581 H   0  0  0  0  0  0  0  0  0  0  0  0
   61.5423   34.3486   47.9844 H   0  0  0  0  0  0  0  0  0  0  0  0
   62.1297   33.5409   46.4914 H   0  0  0  0  0  0  0  0  0  0  0  0
   60.5443   34.3853   46.4914 H   0  0  0  0  0  0  0  0  0  0  0  0
  1  2  1  0
  2  3  2  0
  3  4  1  0
  4  5  1  0
  5  6  1  0
  6  7  1  0
  7  8  1  0
  8  9  1  0
  9 10  2  0
 10 11  1  0
 11 12  2  0
 11 13  1  0
 13 14  1  0
 14 15  1  0
 15 16  2  0
 16 17  1  0
 17 18  2  0
 18 19  1  0
 19 20  2  0
 10 21  1  0
 21 22  1  0
 22 23  2  0
 23 24  1  0
 24 25  2  0
 25 26  1  0
 25 27  1  0
 27 28  2  0
  4 29  2  0
 29 30  1  0
 30 31  1  0
 30 32  2  0
 32 33  1  0
 32  2  1  0
 28  9  1  0
 20 15  1  0
 28 22  1  0
  1 34  1  0
  1 35  1  0
  1 36  1  0
  3 37  1  0
  6 38  1  0
  6 39  1  0
  7 40  1  0
  7 41  1  0
  8 42  1  0
  8 43  1  0
 14 44  1  0
 14 45  1  0
 16 46  1  0
 17 47  1  0
 18 48  1  0
 19 49  1  0
 20 50  1  0
 21 51  1  0
 23 52  1  0
 24 53  1  0
 26 54  1  0
 27 55  1  0
 29 56  1  0
 31 57  1  0
 31 58  1  0
 31 59  1  0
M  CHG  1  13  -1
M  END
>  <UniqueID>  (82) 
74

>  <SMILES>  (82) 
Cc1cc(OCCCc2c(C(=O)[N-]Cc3ccccc3)[nH]c3ccc(O)cc23)cc(C)c1Cl

>  <Energy>  (82) 
102.7236701590938

>  <Genealogy>  (82) 
Cc1cc(OCCCc2c(C(=O)[N-]Cc3ccccc3)[nH]c3ccc(O)cc23)cc(C)c1Cl (protonated)
Cc1cc(OCCCc2c(C(=O)[N-]Cc3ccccc3)[nH]c3ccc(O)cc23)cc(C)c1Cl (3D coordinates assigned)
Cc1cc(OCCCc2c(C(=O)[N-]Cc3ccccc3)[nH]c3ccc(O)cc23)cc(C)c1Cl (optimized conformer: 102.7236701590938 kcal/mol)

>  <smiles>  (82) 
Cc1cc(OCCCc2c(C(=O)NCc3ccccc3)[nH]c3ccc(O)cc23)cc(C)c1Cl

>  <score_type>  (82) 
oracle

>  <origin>  (82) 
adg

>  <m_score__min__energy>  (82) 
-11.51

>  <m_primary>  (82) 
energy

$$$$
82:0
     RDKit          3D

 40 42  0  0  0  0  0  0  0  0999 V2000
   59.6610   36.1710   45.7090 O   0  0  0  0  0  0  0  0  0  0  0  0
   59.4940   34.9850   46.1020 C   0  0  0  0  0  0  0  0  0  0  0  0
   58.2830   34.2850   45.7830 N   0  0  0  0  0  0  0  0  0  0  0  0
   58.1780   32.9500   45.2640 C   0  0  0  0  0  0  0  0  0  0  0  0
   57.8790   32.7810   43.9070 C   0  0  0  0  0  0  0  0  0  0  0  0
   57.7420   31.4990   43.3690 C   0  0  0  0  0  0  0  0  0  0  0  0
   57.8880   30.3760   44.1850 C   0  0  0  0  0  0  0  0  0  0  0  0
   58.1680   30.5270   45.5510 C   0  0  0  0  0  0  0  0  0  0  0  0
   58.2750   29.3130   46.4340 C   0  0  0  0  0  0  0  0  0  0  0  0
   57.2360   28.3440   46.0880 N   0  0  0  0  0  0  0  0  0  0  0  0
   57.4860   26.9300   46.0460 C   0  0  0  0  0  0  0  0  0  0  0  0
   58.6530   26.4940   46.2510 O   0  0  0  0  0  0  0  0  0  0  0  0
   56.3880   25.9810   45.7620 C   0  0  0  0  0  0  0  0  0  0  0  0
   56.6460   24.7010   45.2490 C   0  0  0  0  0  0  0  0  0  0  0  0
   55.5820   23.8390   44.9980 C   0  0  0  0  0  0  0  0  0  0  0  0
   54.2820   24.2670   45.2640 C   0  0  0  0  0  0  0  0  0  0  0  0
   53.3020   23.5080   45.0470 O   0  0  0  0  0  0  0  0  0  0  0  0
   54.0790   25.5150   45.7610 N   0  0  0  0  0  0  0  0  0  0  0  0
   55.0970   26.3420   46.0010 N   0  0  0  0  0  0  0  0  0  0  0  0
   58.3000   31.8180   46.0910 C   0  0  0  0  0  0  0  0  0  0  0  0
   60.5270   34.3330   46.9410 C   0  0  0  0  0  0  0  0  0  0  0  0
   60.3420   34.1980   48.3300 C   0  0  0  0  0  0  0  0  0  0  0  0
   61.3180   33.5840   49.1200 C   0  0  0  0  0  0  0  0  0  0  0  0
   62.4890   33.0980   48.5350 C   0  0  0  0  0  0  0  0  0  0  0  0
   62.6870   33.2250   47.1580 C   0  0  0  0  0  0  0  0  0  0  0  0
   61.7130   33.8380   46.3630 C   0  0  0  0  0  0  0  0  0  0  0  0
   57.7513   33.6621   43.2610 H   0  0  0  0  0  0  0  0  0  0  0  0
   57.5184   31.3742   42.2992 H   0  0  0  0  0  0  0  0  0  0  0  0
   57.7831   29.3689   43.7552 H   0  0  0  0  0  0  0  0  0  0  0  0
   59.2635   28.8502   46.2973 H   0  0  0  0  0  0  0  0  0  0  0  0
   58.1455   29.6192   47.4826 H   0  0  0  0  0  0  0  0  0  0  0  0
   56.2830   28.7090   45.8640 H   0  0  0  0  0  0  0  0  0  0  0  0
   57.6790   24.3815   45.0470 H   0  0  0  0  0  0  0  0  0  0  0  0
   55.7648   22.8321   44.5946 H   0  0  0  0  0  0  0  0  0  0  0  0
   58.4997   31.9441   47.1654 H   0  0  0  0  0  0  0  0  0  0  0  0
   59.4219   34.5788   48.7974 H   0  0  0  0  0  0  0  0  0  0  0  0
   61.1633   33.4835   50.2044 H   0  0  0  0  0  0  0  0  0  0  0  0
   63.2558   32.6150   49.1586 H   0  0  0  0  0  0  0  0  0  0  0  0
   63.6102   32.8424   46.6983 H   0  0  0  0  0  0  0  0  0  0  0  0
   61.8739   33.9343   45.2791 H   0  0  0  0  0  0  0  0  0  0  0  0
  1  2  2  0
  2  3  1  0
  3  4  1  0
  4  5  2  0
  5  6  1  0
  6  7  2  0
  7  8  1  0
  8  9  1  0
  9 10  1  0
 10 11  1  0
 11 12  2  0
 11 13  1  0
 13 14  1  0
 14 15  2  0
 15 16  1  0
 16 17  2  0
 16 18  1  0
 18 19  1  0
  8 20  2  0
  2 21  1  0
 21 22  2  0
 22 23  1  0
 23 24  2  0
 24 25  1  0
 25 26  2  0
 20  4  1  0
 26 21  1  0
 19 13  2  0
  5 27  1  0
  6 28  1  0
  7 29  1  0
  9 30  1  0
  9 31  1  0
 10 32  1  0
 14 33  1  0
 15 34  1  0
 20 35  1  0
 22 36  1  0
 23 37  1  0
 24 38  1  0
 25 39  1  0
 26 40  1  0
M  CHG  2   3  -1  18  -1
M  END
>  <UniqueID>  (83) 
75

>  <SMILES>  (83) 
O=C([N-]c1cccc(CNC(=O)c2ccc(=O)[n-]n2)c1)c1ccccc1

>  <Energy>  (83) 
46.27701813281684

>  <Genealogy>  (83) 
O=C([N-]c1cccc(CNC(=O)c2ccc(=O)[n-]n2)c1)c1ccccc1 (protonated)
O=C([N-]c1cccc(CNC(=O)c2ccc(=O)[n-]n2)c1)c1ccccc1 (3D coordinates assigned)
O=C([N-]c1cccc(CNC(=O)c2ccc(=O)[n-]n2)c1)c1ccccc1 (optimized conformer: 46.27701813281684 kcal/mol)

>  <smiles>  (83) 
O=C(Nc1cccc(CNC(=O)c2ccc(=O)[nH]n2)c1)c1ccccc1

>  <score_type>  (83) 
oracle

>  <origin>  (83) 
adg

>  <m_score__min__energy>  (83) 
-12.140000000000001

>  <m_primary>  (83) 
energy

$$$$
83:0
     RDKit          3D

 44 46  0  0  0  0  0  0  0  0999 V2000
   58.2450   30.8330   42.6180 H   0  0  0  0  0  0  0  0  0  0  0  0
   58.0260   31.8220   42.6620 O   0  0  0  0  0  0  0  0  0  0  0  0
   57.9480   32.5040   43.8740 C   0  0  0  0  0  0  0  0  0  0  0  0
   58.9020   33.4900   44.1610 C   0  0  0  0  0  0  0  0  0  0  0  0
   59.6507   33.7632   43.4028 H   0  0  0  0  0  0  0  0  0  0  0  0
   58.9080   34.1260   45.4000 C   0  0  0  0  0  0  0  0  0  0  0  0
   59.6550   34.9018   45.6238 H   0  0  0  0  0  0  0  0  0  0  0  0
   57.9570   33.7680   46.3520 C   0  0  0  0  0  0  0  0  0  0  0  0
   57.9616   34.2484   47.3416 H   0  0  0  0  0  0  0  0  0  0  0  0
   57.0240   32.8260   46.0590 N   0  0  0  0  0  0  0  0  0  0  0  0
   56.9630   32.1990   44.8520 C   0  0  0  0  0  0  0  0  0  0  0  0
   56.0120   31.3200   44.6800 N   0  0  0  0  0  0  0  0  0  0  0  0
   56.1080   29.9030   44.4740 C   0  0  0  0  0  0  0  0  0  0  0  0
   55.4880   29.1060   45.2280 O   0  0  0  0  0  0  0  0  0  0  0  0
   57.0620   29.3800   43.4790 C   0  0  0  0  0  0  0  0  0  0  0  0
   56.7240   29.3390   42.2670 O   0  0  0  0  0  0  0  0  0  0  0  0
   58.3890   28.9770   43.8410 N   0  0  0  0  0  0  0  0  0  0  0  0
   58.7330   28.0400   44.8710 C   0  0  0  0  0  0  0  0  0  0  0  0
   59.7770   28.2950   45.7780 C   0  0  0  0  0  0  0  0  0  0  0  0
   60.3601   29.2241   45.6954 H   0  0  0  0  0  0  0  0  0  0  0  0
   60.0760   27.3730   46.7830 C   0  0  0  0  0  0  0  0  0  0  0  0
   60.9044   27.5691   47.4796 H   0  0  0  0  0  0  0  0  0  0  0  0
   59.3240   26.2010   46.9050 C   0  0  0  0  0  0  0  0  0  0  0  0
   59.5679   25.4723   47.6921 H   0  0  0  0  0  0  0  0  0  0  0  0
   58.2610   25.9520   46.0280 C   0  0  0  0  0  0  0  0  0  0  0  0
   57.3090   24.4810   46.1980 S   0  0  0  0  0  0  0  0  0  0  0  0
   57.7700   23.7090   47.4030 O   0  0  0  0  0  0  0  0  0  0  0  0
   55.8660   24.8580   46.3740 O   0  0  0  0  0  0  0  0  0  0  0  0
   57.4950   23.4900   44.7690 N   0  0  0  0  0  0  0  0  0  0  0  0
   57.5570   22.0520   45.1180 C   0  0  0  0  0  0  0  0  0  0  0  0
   58.3948   21.5915   44.5740 H   0  0  0  0  0  0  0  0  0  0  0  0
   57.6950   21.9748   46.2066 H   0  0  0  0  0  0  0  0  0  0  0  0
   56.2610   21.3080   44.7530 C   0  0  0  0  0  0  0  0  0  0  0  0
   56.3812   20.2463   45.0144 H   0  0  0  0  0  0  0  0  0  0  0  0
   55.4419   21.7802   45.3153 H   0  0  0  0  0  0  0  0  0  0  0  0
   55.9360   21.4000   43.3730 O   0  0  0  0  0  0  0  0  0  0  0  0
   56.2640   22.6570   42.7900 C   0  0  0  0  0  0  0  0  0  0  0  0
   57.2104   22.5449   42.2407 H   0  0  0  0  0  0  0  0  0  0  0  0
   55.4202   22.9308   42.1396 H   0  0  0  0  0  0  0  0  0  0  0  0
   56.4280   23.8030   43.8010 C   0  0  0  0  0  0  0  0  0  0  0  0
   56.6876   24.7263   43.2624 H   0  0  0  0  0  0  0  0  0  0  0  0
   55.4814   23.9346   44.3457 H   0  0  0  0  0  0  0  0  0  0  0  0
   57.9670   26.8770   45.0150 C   0  0  0  0  0  0  0  0  0  0  0  0
   57.1285   26.6871   44.3288 H   0  0  0  0  0  0  0  0  0  0  0  0
  1  2  1  0
  2  3  1  0
  3  4  2  0
  4  5  1  0
  4  6  1  0
  6  7  1  0
  6  8  2  0
  8  9  1  0
  8 10  1  0
 10 11  1  0
 11 12  2  0
 12 13  1  0
 13 14  2  0
 13 15  1  0
 15 16  2  0
 15 17  1  0
 17 18  1  0
 18 19  2  0
 19 20  1  0
 19 21  1  0
 21 22  1  0
 21 23  2  0
 23 24  1  0
 23 25  1  0
 25 26  1  0
 26 27  2  0
 26 28  2  0
 26 29  1  0
 29 30  1  0
 30 31  1  0
 30 32  1  0
 30 33  1  0
 33 34  1  0
 33 35  1  0
 33 36  1  0
 36 37  1  0
 37 38  1  0
 37 39  1  0
 37 40  1  0
 40 41  1  0
 40 42  1  0
 25 43  2  0
 43 44  1  0
 11  3  1  0
 43 18  1  0
 40 29  1  0
M  CHG  2  10  -1  17  -1
M  END
>  <UniqueID>  (84) 
76

>  <SMILES>  (84) 
O=C(/N=c1/[n-]cccc1O)C(=O)[N-]c1cccc(S(=O)(=O)N2CCOCC2)c1

>  <Energy>  (84) 
74.22284380759396

>  <Genealogy>  (84) 
O=C(N=c1[n-]cccc1O)C(=O)[N-]c1cccc(S(=O)(=O)N2CCOCC2)c1 (protonated)
O=C(/N=c1/[n-]cccc1O)C(=O)[N-]c1cccc(S(=O)(=O)N2CCOCC2)c1 (cis-trans isomerization)
O=C(/N=c1/[n-]cccc1O)C(=O)[N-]c1cccc(S(=O)(=O)N2CCOCC2)c1 (3D coordinates assigned)
O=C(/N=c1/[n-]cccc1O)C(=O)[N-]c1cccc(S(=O)(=O)N2CCOCC2)c1 (nonaromatic ring conformer: 74.22284380759396 kcal/mol)

>  <smiles>  (84) 
O=C(N=c1[nH]cccc1O)C(=O)Nc1cccc(S(=O)(=O)N2CCOCC2)c1

>  <score_type>  (84) 
oracle

>  <origin>  (84) 
adg

>  <m_score__min__energy>  (84) 
-13.029999999999999

>  <m_primary>  (84) 
energy

$$$$
84:0
     RDKit          3D

 33 35  0  0  0  0  0  0  0  0999 V2000
   58.2057   32.9648   46.1749 H   0  0  0  0  0  0  0  0  0  0  0  0
   57.9210   32.4750   45.2320 C   0  0  0  0  0  0  0  0  0  0  0  0
   57.0190   31.4580   45.2400 N   0  0  0  0  0  0  0  0  0  0  0  0
   56.6310   30.8240   44.0970 C   0  0  0  0  0  0  0  0  0  0  0  0
   55.6560   29.7130   44.1650 C   0  0  0  0  0  0  0  0  0  0  0  0
   54.8350   29.5460   43.2250 O   0  0  0  0  0  0  0  0  0  0  0  0
   55.6640   28.7690   45.2440 N   0  0  0  0  0  0  0  0  0  0  0  0
   56.6340   27.7330   45.4520 C   0  0  0  0  0  0  0  0  0  0  0  0
   56.3400   26.5840   46.2040 C   0  0  0  0  0  0  0  0  0  0  0  0
   55.3493   26.4695   46.6681 H   0  0  0  0  0  0  0  0  0  0  0  0
   57.2800   25.6120   46.3590 N   0  0  0  0  0  0  0  0  0  0  0  0
   58.5180   25.7010   45.8050 C   0  0  0  0  0  0  0  0  0  0  0  0
   59.3580   24.7240   46.0050 N   0  0  0  0  0  0  0  0  0  0  0  0
   59.3290   23.4250   45.3960 C   0  0  0  0  0  0  0  0  0  0  0  0
   60.3190   22.6600   45.5420 O   0  0  0  0  0  0  0  0  0  0  0  0
   58.2080   23.0000   44.5380 C   0  0  0  0  0  0  0  0  0  0  0  0
   57.1920   24.0370   43.6880 S   0  0  0  0  0  0  0  0  0  0  0  0
   56.2160   22.8400   43.0210 C   0  0  0  0  0  0  0  0  0  0  0  0
   55.3615   23.0052   42.3483 H   0  0  0  0  0  0  0  0  0  0  0  0
   56.6750   21.6080   43.4660 C   0  0  0  0  0  0  0  0  0  0  0  0
   56.2108   20.6535   43.1771 H   0  0  0  0  0  0  0  0  0  0  0  0
   57.7840   21.6930   44.3170 C   0  0  0  0  0  0  0  0  0  0  0  0
   58.2711   20.8147   44.7658 H   0  0  0  0  0  0  0  0  0  0  0  0
   58.8310   26.8210   45.0080 C   0  0  0  0  0  0  0  0  0  0  0  0
   59.8166   26.8996   44.5259 H   0  0  0  0  0  0  0  0  0  0  0  0
   57.8820   27.8290   44.8350 C   0  0  0  0  0  0  0  0  0  0  0  0
   58.1184   28.7027   44.2099 H   0  0  0  0  0  0  0  0  0  0  0  0
   57.1900   31.2200   42.8700 C   0  0  0  0  0  0  0  0  0  0  0  0
   56.8996   30.7115   41.9388 H   0  0  0  0  0  0  0  0  0  0  0  0
   58.1160   32.2630   42.8420 C   0  0  0  0  0  0  0  0  0  0  0  0
   58.5541   32.5845   41.8856 H   0  0  0  0  0  0  0  0  0  0  0  0
   58.4860   32.8980   44.0280 C   0  0  0  0  0  0  0  0  0  0  0  0
   59.2143   33.7222   44.0142 H   0  0  0  0  0  0  0  0  0  0  0  0
  1  2  1  0
  2  3  2  0
  3  4  1  0
  4  5  1  0
  5  6  2  0
  5  7  1  0
  7  8  1  0
  8  9  2  0
  9 10  1  0
  9 11  1  0
 11 12  1  0
 12 13  2  0
 13 14  1  0
 14 15  2  0
 14 16  1  0
 16 17  1  0
 17 18  1  0
 18 19  1  0
 18 20  2  0
 20 21  1  0
 20 22  1  0
 22 23  1  0
 12 24  1  0
 24 25  1  0
 24 26  2  0
 26 27  1  0
  4 28  2  0
 28 29  1  0
 28 30  1  0
 30 31  1  0
 30 32  2  0
 32 33  1  0
 32  2  1  0
 26  8  1  0
 22 16  2  0
M  CHG  2   7  -1  11  -1
M  END
>  <UniqueID>  (85) 
77

>  <SMILES>  (85) 
O=C([N-]c1cc/c(=N\C(=O)c2cccs2)[n-]c1)c1ccccn1

>  <Energy>  (85) 
77.72069366748707

>  <Genealogy>  (85) 
O=C([N-]c1ccc(=NC(=O)c2cccs2)[n-]c1)c1ccccn1 (protonated)
O=C([N-]c1cc/c(=N\C(=O)c2cccs2)[n-]c1)c1ccccn1 (cis-trans isomerization)
O=C([N-]c1cc/c(=N\C(=O)c2cccs2)[n-]c1)c1ccccn1 (3D coordinates assigned)
O=C([N-]c1cc/c(=N\C(=O)c2cccs2)[n-]c1)c1ccccn1 (optimized conformer: 77.72069366748707 kcal/mol)

>  <smiles>  (85) 
O=C(Nc1ccc(=NC(=O)c2cccs2)[nH]c1)c1ccccn1

>  <score_type>  (85) 
oracle

>  <origin>  (85) 
adg

>  <m_score__min__energy>  (85) 
-11.06

>  <m_primary>  (85) 
energy

$$$$
85:0
     RDKit          3D

 60 63  0  0  0  0  0  0  0  0999 V2000
   55.8300   30.6720   44.4970 O   0  0  0  0  0  0  0  0  0  0  0  0
   56.8670   30.1200   44.0340 C   0  0  0  0  0  0  0  0  0  0  0  0
   57.0810   28.6490   44.2460 C   0  0  0  0  0  0  0  0  0  0  0  0
   57.1640   28.3260   45.6720 N   0  0  0  0  0  0  0  0  0  0  0  0
   58.3780   28.4820   46.4310 C   0  0  0  0  0  0  0  0  0  0  0  0
   58.9120   29.7610   46.6730 C   0  0  0  0  0  0  0  0  0  0  0  0
   60.0920   29.9170   47.4120 C   0  0  0  0  0  0  0  0  0  0  0  0
   60.7230   31.5310   47.7420 S   0  0  0  0  0  0  0  0  0  0  0  0
   60.6880   32.3360   46.4720 O   0  0  0  0  0  0  0  0  0  0  0  0
   59.8310   32.2160   48.7410 O   0  0  0  0  0  0  0  0  0  0  0  0
   62.3610   31.4940   48.3550 N   0  0  0  0  0  0  0  0  0  0  0  0
   62.5450   32.3460   49.5500 C   0  0  0  0  0  0  0  0  0  0  0  0
   63.2640   33.6680   49.2390 C   0  0  0  0  0  0  0  0  0  0  0  0
   62.9750   34.0860   47.9240 O   0  0  0  0  0  0  0  0  0  0  0  0
   63.6110   33.2230   47.0020 C   0  0  0  0  0  0  0  0  0  0  0  0
   63.3660   31.7230   47.2990 C   0  0  0  0  0  0  0  0  0  0  0  0
   60.7590   28.7870   47.8950 C   0  0  0  0  0  0  0  0  0  0  0  0
   60.2470   27.5110   47.6550 C   0  0  0  0  0  0  0  0  0  0  0  0
   59.0570   27.3490   46.9320 C   0  0  0  0  0  0  0  0  0  0  0  0
   58.5330   26.0270   46.7410 N   0  0  0  0  0  0  0  0  0  0  0  0
   57.3050   25.6590   47.4620 C   0  0  0  0  0  0  0  0  0  0  0  0
   56.7520   24.3030   47.0100 C   0  0  0  0  0  0  0  0  0  0  0  0
   57.7950   23.3760   46.7870 O   0  0  0  0  0  0  0  0  0  0  0  0
   58.5390   23.7900   45.6610 C   0  0  0  0  0  0  0  0  0  0  0  0
   59.3370   25.0540   45.9840 C   0  0  0  0  0  0  0  0  0  0  0  0
   57.8750   30.9060   43.3800 N   0  0  0  0  0  0  0  0  0  0  0  0
   57.7570   32.3530   43.2150 C   0  0  0  0  0  0  0  0  0  0  0  0
   58.0900   33.0480   44.5010 C   0  0  0  0  0  0  0  0  0  0  0  0
   58.9190   34.1540   44.6390 C   0  0  0  0  0  0  0  0  0  0  0  0
   58.9890   34.6270   45.9540 C   0  0  0  0  0  0  0  0  0  0  0  0
   58.2110   33.9010   46.8500 C   0  0  0  0  0  0  0  0  0  0  0  0
   57.4340   32.6720   46.0050 S   0  0  0  0  0  0  0  0  0  0  0  0
   56.2403   28.0964   43.8013 H   0  0  0  0  0  0  0  0  0  0  0  0
   58.0295   28.3626   43.7682 H   0  0  0  0  0  0  0  0  0  0  0  0
   56.3040   27.9850   46.1600 H   0  0  0  0  0  0  0  0  0  0  0  0
   58.3970   30.6488   46.2774 H   0  0  0  0  0  0  0  0  0  0  0  0
   61.5557   32.5758   49.9725 H   0  0  0  0  0  0  0  0  0  0  0  0
   63.1742   31.7877   50.2588 H   0  0  0  0  0  0  0  0  0  0  0  0
   62.9269   34.4394   49.9470 H   0  0  0  0  0  0  0  0  0  0  0  0
   64.3492   33.5157   49.3351 H   0  0  0  0  0  0  0  0  0  0  0  0
   63.2301   33.4464   45.9945 H   0  0  0  0  0  0  0  0  0  0  0  0
   64.6937   33.3991   47.0838 H   0  0  0  0  0  0  0  0  0  0  0  0
   63.0193   31.2362   46.3755 H   0  0  0  0  0  0  0  0  0  0  0  0
   64.3170   31.3021   47.6573 H   0  0  0  0  0  0  0  0  0  0  0  0
   61.6914   28.9042   48.4667 H   0  0  0  0  0  0  0  0  0  0  0  0
   60.7803   26.6273   48.0354 H   0  0  0  0  0  0  0  0  0  0  0  0
   57.5274   25.6099   48.5382 H   0  0  0  0  0  0  0  0  0  0  0  0
   56.5442   26.4232   47.2447 H   0  0  0  0  0  0  0  0  0  0  0  0
   56.0830   23.9101   47.7898 H   0  0  0  0  0  0  0  0  0  0  0  0
   56.2048   24.4462   46.0666 H   0  0  0  0  0  0  0  0  0  0  0  0
   59.2331   22.9877   45.3703 H   0  0  0  0  0  0  0  0  0  0  0  0
   57.8453   24.0075   44.8355 H   0  0  0  0  0  0  0  0  0  0  0  0
   60.2173   24.7766   46.5825 H   0  0  0  0  0  0  0  0  0  0  0  0
   59.6371   25.5219   45.0348 H   0  0  0  0  0  0  0  0  0  0  0  0
   58.7220   30.4300   42.9900 H   0  0  0  0  0  0  0  0  0  0  0  0
   58.4517   32.6874   42.4304 H   0  0  0  0  0  0  0  0  0  0  0  0
   56.7235   32.5994   42.9302 H   0  0  0  0  0  0  0  0  0  0  0  0
   59.4646   34.6112   43.8004 H   0  0  0  0  0  0  0  0  0  0  0  0
   59.6013   35.4912   46.2512 H   0  0  0  0  0  0  0  0  0  0  0  0
   58.1195   34.0975   47.9284 H   0  0  0  0  0  0  0  0  0  0  0  0
  1  2  2  0
  2  3  1  0
  3  4  1  0
  4  5  1  0
  5  6  2  0
  6  7  1  0
  7  8  1  0
  8  9  2  0
  8 10  2  0
  8 11  1  0
 11 12  1  0
 12 13  1  0
 13 14  1  0
 14 15  1  0
 15 16  1  0
  7 17  2  0
 17 18  1  0
 18 19  2  0
 19 20  1  0
 20 21  1  0
 21 22  1  0
 22 23  1  0
 23 24  1  0
 24 25  1  0
  2 26  1  0
 26 27  1  0
 27 28  1  0
 28 29  2  0
 29 30  1  0
 30 31  2  0
 31 32  1  0
 19  5  1  0
 25 20  1  0
 32 28  1  0
 16 11  1  0
  3 33  1  0
  3 34  1  0
  4 35  1  0
  6 36  1  0
 12 37  1  0
 12 38  1  0
 13 39  1  0
 13 40  1  0
 15 41  1  0
 15 42  1  0
 16 43  1  0
 16 44  1  0
 17 45  1  0
 18 46  1  0
 21 47  1  0
 21 48  1  0
 22 49  1  0
 22 50  1  0
 24 51  1  0
 24 52  1  0
 25 53  1  0
 25 54  1  0
 26 55  1  0
 27 56  1  0
 27 57  1  0
 29 58  1  0
 30 59  1  0
 31 60  1  0
M  END
>  <UniqueID>  (86) 
78

>  <SMILES>  (86) 
O=C(CNc1cc(S(=O)(=O)N2CCOCC2)ccc1N1CCOCC1)NCc1cccs1

>  <Energy>  (86) 
102.58652208523212

>  <Genealogy>  (86) 
O=C(CNc1cc(S(=O)(=O)N2CCOCC2)ccc1N1CCOCC1)NCc1cccs1 (3D coordinates assigned)
O=C(CNc1cc(S(=O)(=O)N2CCOCC2)ccc1N1CCOCC1)NCc1cccs1 (nonaromatic ring conformer: 102.58652208523212 kcal/mol)

>  <smiles>  (86) 
O=C(CNc1cc(S(=O)(=O)N2CCOCC2)ccc1N1CCOCC1)NCc1cccs1

>  <score_type>  (86) 
oracle

>  <origin>  (86) 
adg

>  <m_score__min__energy>  (86) 
-9.2300000000000004

>  <m_primary>  (86) 
energy

$$$$
86:0
     RDKit          3D

 44 46  0  0  1  0  0  0  0  0999 V2000
   57.9810   32.2570   41.7600 C   0  0  0  0  0  0  0  0  0  0  0  0
   57.0110   31.1940   42.2250 C   0  0  0  0  0  0  0  0  0  0  0  0
   57.6250   30.5390   43.3740 N   0  0  0  0  0  0  0  0  0  0  0  0
   56.7980   30.2950   44.4920 C   0  0  0  0  0  0  0  0  0  0  0  0
   55.5970   30.6540   44.4260 O   0  0  0  0  0  0  0  0  0  0  0  0
   57.2380   29.6720   45.6820 N   0  0  0  0  0  0  0  0  0  0  0  0
   58.4340   29.9240   46.0930 C   0  0  0  0  0  0  0  0  0  0  0  0
   58.5910   30.8250   47.1070 N   0  0  0  0  0  0  0  0  0  0  0  0
   59.8220   31.1120   47.5610 C   0  0  0  0  0  0  0  0  0  0  0  0
   59.9360   32.0540   48.6180 N   0  0  0  0  0  0  0  0  0  0  0  0
   59.2750   32.0110   49.8940 C   0  0  0  0  0  0  0  0  0  0  0  0
   58.1690   31.4290   50.1210 O   0  0  0  0  0  0  0  0  0  0  0  0
   60.0180   32.6970   50.8410 O   0  0  0  0  0  0  0  0  0  0  0  0
   60.9780   33.4610   50.1790 C   0  0  0  0  0  0  0  0  0  0  0  0
   60.7330   33.2770   48.6810 C   0  0  2  0  0  0  0  0  0  0  0  0
   59.9600   34.4670   48.2000 C   0  0  0  0  0  0  0  0  0  0  0  0
   59.1690   34.2360   46.9820 C   0  0  0  0  0  0  0  0  0  0  0  0
   59.6970   34.4210   45.7230 C   0  0  0  0  0  0  0  0  0  0  0  0
   58.9720   34.2100   44.5800 C   0  0  0  0  0  0  0  0  0  0  0  0
   57.6560   33.7920   44.6800 C   0  0  0  0  0  0  0  0  0  0  0  0
   57.0940   33.5960   45.9230 C   0  0  0  0  0  0  0  0  0  0  0  0
   57.8420   33.8160   47.0450 C   0  0  0  0  0  0  0  0  0  0  0  0
   60.9600   30.5320   47.0470 C   0  0  0  0  0  0  0  0  0  0  0  0
   60.7830   29.6220   46.0220 C   0  0  0  0  0  0  0  0  0  0  0  0
   59.5320   29.3300   45.5600 N   0  0  0  0  0  0  0  0  0  0  0  0
   58.4311   32.7503   42.6341 H   0  0  0  0  0  0  0  0  0  0  0  0
   58.7722   31.7916   41.1538 H   0  0  0  0  0  0  0  0  0  0  0  0
   57.4453   33.0024   41.1538 H   0  0  0  0  0  0  0  0  0  0  0  0
   56.0556   31.6544   42.5171 H   0  0  0  0  0  0  0  0  0  0  0  0
   56.8024   30.4710   41.4227 H   0  0  0  0  0  0  0  0  0  0  0  0
   58.6140   30.2500   43.4150 H   0  0  0  0  0  0  0  0  0  0  0  0
   60.8727   34.5212   50.4525 H   0  0  0  0  0  0  0  0  0  0  0  0
   61.9943   33.1430   50.4547 H   0  0  0  0  0  0  0  0  0  0  0  0
   61.6390   33.1990   48.0621 H   0  0  0  0  0  0  0  0  0  0  0  0
   59.2725   34.7755   49.0014 H   0  0  0  0  0  0  0  0  0  0  0  0
   60.7029   35.2374   47.9459 H   0  0  0  0  0  0  0  0  0  0  0  0
   60.7423   34.7513   45.6320 H   0  0  0  0  0  0  0  0  0  0  0  0
   59.4306   34.3710   43.5932 H   0  0  0  0  0  0  0  0  0  0  0  0
   57.0615   33.6171   43.7712 H   0  0  0  0  0  0  0  0  0  0  0  0
   56.0489   33.2643   46.0113 H   0  0  0  0  0  0  0  0  0  0  0  0
   57.3812   33.6562   48.0310 H   0  0  0  0  0  0  0  0  0  0  0  0
   61.9597   30.7804   47.4327 H   0  0  0  0  0  0  0  0  0  0  0  0
   61.6582   29.1284   45.5743 H   0  0  0  0  0  0  0  0  0  0  0  0
   59.4090   28.6370   44.7800 H   0  0  0  0  0  0  0  0  0  0  0  0
  1  2  1  0
  2  3  1  0
  3  4  1  0
  4  5  2  0
  4  6  1  0
  6  7  2  0
  7  8  1  0
  8  9  2  0
  9 10  1  0
 10 11  1  0
 11 12  2  0
 11 13  1  0
 13 14  1  0
 14 15  1  0
 15 16  1  0
 16 17  1  0
 17 18  2  0
 18 19  1  0
 19 20  2  0
 20 21  1  0
 21 22  2  0
  9 23  1  0
 23 24  2  0
 24 25  1  0
 25  7  1  0
 15 10  1  0
 22 17  1  0
  1 26  1  0
  1 27  1  0
  1 28  1  0
  2 29  1  0
  2 30  1  0
  3 31  1  0
 14 32  1  0
 14 33  1  0
 15 34  1  6
 16 35  1  0
 16 36  1  0
 18 37  1  0
 19 38  1  0
 20 39  1  0
 21 40  1  0
 22 41  1  0
 23 42  1  0
 24 43  1  0
 25 44  1  0
M  END
>  <smiles>  (87) 
CCNC(=O)N=c1nc(N2C(=O)OCC2Cc2ccccc2)cc[nH]1

>  <score_type>  (87) 
oracle

>  <origin>  (87) 
adg

>  <m_score__min__energy>  (87) 
-7.8600000000000003

>  <m_primary>  (87) 
energy

$$$$
87:0
     RDKit          3D

 40 42  0  0  0  0  0  0  0  0999 V2000
   59.7360   33.4510   50.7240 C   0  0  0  0  0  0  0  0  0  0  0  0
   60.0920   34.3130   49.6490 O   0  0  0  0  0  0  0  0  0  0  0  0
   61.1510   34.0880   48.7530 C   0  0  0  0  0  0  0  0  0  0  0  0
   62.4790   33.9700   49.2140 C   0  0  0  0  0  0  0  0  0  0  0  0
   63.5220   33.7210   48.3200 C   0  0  0  0  0  0  0  0  0  0  0  0
   63.2590   33.5870   46.9600 C   0  0  0  0  0  0  0  0  0  0  0  0
   61.9520   33.7080   46.4850 C   0  0  0  0  0  0  0  0  0  0  0  0
   60.8840   33.9660   47.3660 C   0  0  0  0  0  0  0  0  0  0  0  0
   59.5070   34.0960   46.8160 C   0  0  0  0  0  0  0  0  0  0  0  0
   59.1790   35.1470   46.1990 O   0  0  0  0  0  0  0  0  0  0  0  0
   58.5300   33.0720   47.0450 N   0  0  0  0  0  0  0  0  0  0  0  0
   58.7680   31.6600   47.1430 C   0  0  0  0  0  0  0  0  0  0  0  0
   59.3820   31.1640   48.2990 C   0  0  0  0  0  0  0  0  0  0  0  0
   59.6580   29.8020   48.4260 C   0  0  0  0  0  0  0  0  0  0  0  0
   59.3360   28.9230   47.3910 C   0  0  0  0  0  0  0  0  0  0  0  0
   58.7360   29.4030   46.2160 C   0  0  0  0  0  0  0  0  0  0  0  0
   58.4260   28.4630   45.0790 C   0  0  0  0  0  0  0  0  0  0  0  0
   57.5590   27.3180   45.5530 C   0  0  0  0  0  0  0  0  0  0  0  0
   56.1610   27.4550   45.6270 C   0  0  0  0  0  0  0  0  0  0  0  0
   55.5410   28.6350   45.2350 O   0  0  0  0  0  0  0  0  0  0  0  0
   55.4000   26.4280   46.0850 N   0  0  0  0  0  0  0  0  0  0  0  0
   55.9640   25.2570   46.4770 C   0  0  0  0  0  0  0  0  0  0  0  0
   55.2380   24.3200   46.8970 O   0  0  0  0  0  0  0  0  0  0  0  0
   57.3100   25.0970   46.4160 N   0  0  0  0  0  0  0  0  0  0  0  0
   58.1180   26.0940   45.9700 C   0  0  0  0  0  0  0  0  0  0  0  0
   59.3630   25.9060   45.9320 O   0  0  0  0  0  0  0  0  0  0  0  0
   58.4640   30.7760   46.0910 C   0  0  0  0  0  0  0  0  0  0  0  0
   59.9433   33.9530   51.6806 H   0  0  0  0  0  0  0  0  0  0  0  0
   58.6646   33.2097   50.6612 H   0  0  0  0  0  0  0  0  0  0  0  0
   60.3249   32.5240   50.6612 H   0  0  0  0  0  0  0  0  0  0  0  0
   62.6947   34.0751   50.2875 H   0  0  0  0  0  0  0  0  0  0  0  0
   64.5535   33.6306   48.6912 H   0  0  0  0  0  0  0  0  0  0  0  0
   64.0820   33.3855   46.2585 H   0  0  0  0  0  0  0  0  0  0  0  0
   61.7536   33.6004   45.4084 H   0  0  0  0  0  0  0  0  0  0  0  0
   59.6490   31.8532   49.1137 H   0  0  0  0  0  0  0  0  0  0  0  0
   60.1301   29.4206   49.3434 H   0  0  0  0  0  0  0  0  0  0  0  0
   59.5532   27.8498   47.4962 H   0  0  0  0  0  0  0  0  0  0  0  0
   57.8954   29.0146   44.2889 H   0  0  0  0  0  0  0  0  0  0  0  0
   59.3705   28.0541   44.6907 H   0  0  0  0  0  0  0  0  0  0  0  0
   58.0110   31.1619   45.1659 H   0  0  0  0  0  0  0  0  0  0  0  0
  1  2  1  0
  2  3  1  0
  3  4  2  0
  4  5  1  0
  5  6  2  0
  6  7  1  0
  7  8  2  0
  8  9  1  0
  9 10  2  0
  9 11  1  0
 11 12  1  0
 12 13  2  0
 13 14  1  0
 14 15  2  0
 15 16  1  0
 16 17  1  0
 17 18  1  0
 18 19  2  0
 19 20  1  0
 19 21  1  0
 21 22  1  0
 22 23  2  0
 22 24  1  0
 24 25  1  0
 25 26  2  0
 16 27  2  0
  8  3  1  0
 27 12  1  0
 25 18  1  0
  1 28  1  0
  1 29  1  0
  1 30  1  0
  4 31  1  0
  5 32  1  0
  6 33  1  0
  7 34  1  0
 13 35  1  0
 14 36  1  0
 15 37  1  0
 17 38  1  0
 17 39  1  0
 27 40  1  0
M  CHG  4  11  -1  20  -1  21  -1  24  -1
M  END
>  <UniqueID>  (88) 
79

>  <SMILES>  (88) 
COc1ccccc1C(=O)[N-]c1cccc(Cc2c([O-])[n-]c(=O)[n-]c2=O)c1

>  <Energy>  (88) 
50.51836348894649

>  <Genealogy>  (88) 
COc1ccccc1C(=O)[N-]c1cccc(Cc2c([O-])[n-]c(=O)[n-]c2=O)c1 (protonated)
COc1ccccc1C(=O)[N-]c1cccc(Cc2c([O-])[n-]c(=O)[n-]c2=O)c1 (3D coordinates assigned)
COc1ccccc1C(=O)[N-]c1cccc(Cc2c([O-])[n-]c(=O)[n-]c2=O)c1 (optimized conformer: 50.51836348894649 kcal/mol)

>  <smiles>  (88) 
COc1ccccc1C(=O)Nc1cccc(Cc2c(O)[nH]c(=O)[nH]c2=O)c1

>  <score_type>  (88) 
oracle

>  <origin>  (88) 
adg

>  <m_score__min__energy>  (88) 
-16.75

>  <m_primary>  (88) 
energy

$$$$
88:0
     RDKit          3D

 44 46  0  0  0  0  0  0  0  0999 V2000
   58.8769   34.5273   43.8695 H   0  0  0  0  0  0  0  0  0  0  0  0
   58.8530   34.2840   44.9420 C   0  0  0  0  0  0  0  0  0  0  0  0
   59.6620   34.8130   45.8800 N   0  0  0  0  0  0  0  0  0  0  0  0
   59.3250   34.2790   47.0450 N   0  0  0  0  0  0  0  0  0  0  0  0
   60.0130   34.5590   48.2970 C   0  0  0  0  0  0  0  0  0  0  0  0
   59.3602   34.2933   49.1415 H   0  0  0  0  0  0  0  0  0  0  0  0
   60.9379   33.9657   48.3478 H   0  0  0  0  0  0  0  0  0  0  0  0
   60.2608   35.6295   48.3478 H   0  0  0  0  0  0  0  0  0  0  0  0
   58.3250   33.3930   46.8780 C   0  0  0  0  0  0  0  0  0  0  0  0
   57.8605   32.7835   47.6672 H   0  0  0  0  0  0  0  0  0  0  0  0
   57.9870   33.3860   45.5410 C   0  0  0  0  0  0  0  0  0  0  0  0
   56.9290   32.5600   44.8680 C   0  0  0  0  0  0  0  0  0  0  0  0
   56.4014   33.1934   44.1397 H   0  0  0  0  0  0  0  0  0  0  0  0
   56.2562   32.1865   45.6540 H   0  0  0  0  0  0  0  0  0  0  0  0
   57.4740   31.3820   44.1590 N   0  0  0  0  0  0  0  0  0  0  0  0
   56.4750   30.5190   43.4920 C   0  0  0  0  0  0  0  0  0  0  0  0
   56.9289   30.1063   42.5790 H   0  0  0  0  0  0  0  0  0  0  0  0
   55.5990   31.1500   43.2812 H   0  0  0  0  0  0  0  0  0  0  0  0
   55.9800   29.3430   44.3630 C   0  0  0  0  0  0  0  0  0  0  0  0
   55.7287   28.5024   43.6994 H   0  0  0  0  0  0  0  0  0  0  0  0
   55.1107   29.7089   44.9291 H   0  0  0  0  0  0  0  0  0  0  0  0
   57.0150   28.8520   45.3990 C   0  0  0  0  0  0  0  0  0  0  0  0
   56.8179   29.3771   46.3452 H   0  0  0  0  0  0  0  0  0  0  0  0
   56.8820   27.4100   45.6400 N   0  0  0  0  0  0  0  0  0  0  0  0
   56.2910   26.8240   45.0070 H   0  0  0  0  0  0  0  0  0  0  0  0
   57.5390   26.7520   46.7300 C   0  0  0  0  0  0  0  0  0  0  0  0
   58.2390   27.4180   47.5420 O   0  0  0  0  0  0  0  0  0  0  0  0
   57.3830   25.3330   46.8850 N   0  0  0  0  0  0  0  0  0  0  0  0
   56.3360   24.6360   46.5560 C   0  0  0  0  0  0  0  0  0  0  0  0
   55.2170   25.1550   46.0030 N   0  0  0  0  0  0  0  0  0  0  0  0
   54.2890   24.1880   45.7620 C   0  0  0  0  0  0  0  0  0  0  0  0
   52.9480   24.5080   45.1920 C   0  0  0  0  0  0  0  0  0  0  0  0
   52.2330   24.6786   46.0103 H   0  0  0  0  0  0  0  0  0  0  0  0
   53.0196   25.4143   44.5727 H   0  0  0  0  0  0  0  0  0  0  0  0
   52.6027   23.6670   44.5727 H   0  0  0  0  0  0  0  0  0  0  0  0
   54.6630   22.9000   46.1400 C   0  0  0  0  0  0  0  0  0  0  0  0
   54.0498   21.9925   46.0383 H   0  0  0  0  0  0  0  0  0  0  0  0
   56.2190   22.9770   46.7800 S   0  0  0  0  0  0  0  0  0  0  0  0
   58.4360   29.1830   44.9390 C   0  0  0  0  0  0  0  0  0  0  0  0
   58.6171   28.7251   43.9554 H   0  0  0  0  0  0  0  0  0  0  0  0
   59.1555   28.7873   45.6709 H   0  0  0  0  0  0  0  0  0  0  0  0
   58.6080   30.7030   44.8320 C   0  0  0  0  0  0  0  0  0  0  0  0
   59.5255   30.9100   44.2617 H   0  0  0  0  0  0  0  0  0  0  0  0
   58.6565   31.0956   45.8584 H   0  0  0  0  0  0  0  0  0  0  0  0
  1  2  1  0
  2  3  2  0
  3  4  1  0
  4  5  1  0
  5  6  1  0
  5  7  1  0
  5  8  1  0
  4  9  1  0
  9 10  1  0
  9 11  2  0
 11 12  1  0
 12 13  1  0
 12 14  1  0
 12 15  1  0
 15 16  1  0
 16 17  1  0
 16 18  1  0
 16 19  1  0
 19 20  1  0
 19 21  1  0
 19 22  1  0
 22 23  1  0
 22 24  1  0
 24 25  1  0
 24 26  1  0
 26 27  2  0
 26 28  1  0
 28 29  2  0
 29 30  1  0
 30 31  1  0
 31 32  1  0
 32 33  1  0
 32 34  1  0
 32 35  1  0
 31 36  2  0
 36 37  1  0
 36 38  1  0
 22 39  1  0
 39 40  1  0
 39 41  1  0
 39 42  1  0
 42 43  1  0
 42 44  1  0
 11  2  1  0
 42 15  1  0
 38 29  1  0
M  CHG  1  30  -1
M  END
>  <UniqueID>  (89) 
80

>  <SMILES>  (89) 
Cc1cs/c(=N/C(=O)NC2CCN(Cc3cnn(C)c3)CC2)[n-]1

>  <Energy>  (89) 
113.4406956026366

>  <Genealogy>  (89) 
Cc1csc(=NC(=O)NC2CCN(Cc3cnn(C)c3)CC2)[n-]1 (protonated)
Cc1cs/c(=N/C(=O)NC2CCN(Cc3cnn(C)c3)CC2)[n-]1 (cis-trans isomerization)
Cc1cs/c(=N/C(=O)NC2CCN(Cc3cnn(C)c3)CC2)[n-]1 (3D coordinates assigned)
Cc1cs/c(=N/C(=O)NC2CCN(Cc3cnn(C)c3)CC2)[n-]1 (nonaromatic ring conformer: 113.4406956026366 kcal/mol)

>  <smiles>  (89) 
Cc1csc(=NC(=O)NC2CCN(Cc3cnn(C)c3)CC2)[nH]1

>  <score_type>  (89) 
oracle

>  <origin>  (89) 
adg

>  <m_score__min__energy>  (89) 
-9.5

>  <m_primary>  (89) 
energy

$$$$
89:0
     RDKit          3D

 28 28  0  0  0  0  0  0  0  0999 V2000
   60.3440   34.1520   46.5700 C   0  0  0  0  0  0  0  0  0  0  0  0
   58.8730   34.5670   46.5280 C   0  0  0  0  0  0  0  0  0  0  0  0
   57.9230   33.3700   46.6630 C   0  0  0  0  0  0  0  0  0  0  0  0
   57.6800   32.7040   45.3410 C   0  0  0  0  0  0  0  0  0  0  0  0
   58.0680   33.1860   44.1090 C   0  0  0  0  0  0  0  0  0  0  0  0
   57.7230   32.2720   43.1880 N   0  0  0  0  0  0  0  0  0  0  0  0
   58.0110   32.3290   41.7600 C   0  0  0  0  0  0  0  0  0  0  0  0
   57.1700   31.2530   43.8800 C   0  0  0  0  0  0  0  0  0  0  0  0
   56.5810   29.7290   43.1350 S   0  0  0  0  0  0  0  0  0  0  0  0
   57.6320   28.6390   44.1570 C   0  0  0  0  0  0  0  0  0  0  0  0
   58.1440   27.4550   43.3470 C   0  0  0  0  0  0  0  0  0  0  0  0
   57.1190   31.4840   45.2070 N   0  0  0  0  0  0  0  0  0  0  0  0
   60.6693   34.0602   47.6168 H   0  0  0  0  0  0  0  0  0  0  0  0
   60.4666   33.1842   46.0617 H   0  0  0  0  0  0  0  0  0  0  0  0
   60.9543   34.9130   46.0617 H   0  0  0  0  0  0  0  0  0  0  0  0
   58.6796   35.2663   47.3548 H   0  0  0  0  0  0  0  0  0  0  0  0
   58.6848   35.0357   45.5508 H   0  0  0  0  0  0  0  0  0  0  0  0
   58.3667   32.6387   47.3546 H   0  0  0  0  0  0  0  0  0  0  0  0
   56.9591   33.7380   47.0444 H   0  0  0  0  0  0  0  0  0  0  0  0
   58.5695   34.1457   43.9156 H   0  0  0  0  0  0  0  0  0  0  0  0
   59.0800   32.5406   41.6097 H   0  0  0  0  0  0  0  0  0  0  0  0
   57.7596   31.3637   41.2964 H   0  0  0  0  0  0  0  0  0  0  0  0
   57.4108   33.1258   41.2964 H   0  0  0  0  0  0  0  0  0  0  0  0
   58.4902   29.2159   44.5320 H   0  0  0  0  0  0  0  0  0  0  0  0
   57.0289   28.2558   44.9933 H   0  0  0  0  0  0  0  0  0  0  0  0
   58.4861   26.6638   44.0303 H   0  0  0  0  0  0  0  0  0  0  0  0
   57.3334   27.0666   42.7129 H   0  0  0  0  0  0  0  0  0  0  0  0
   58.9822   27.7796   42.7129 H   0  0  0  0  0  0  0  0  0  0  0  0
  1  2  1  0
  2  3  1  0
  3  4  1  0
  4  5  2  0
  5  6  1  0
  6  7  1  0
  6  8  1  0
  8  9  1  0
  9 10  1  0
 10 11  1  0
  8 12  2  0
 12  4  1  0
  1 13  1  0
  1 14  1  0
  1 15  1  0
  2 16  1  0
  2 17  1  0
  3 18  1  0
  3 19  1  0
  5 20  1  0
  7 21  1  0
  7 22  1  0
  7 23  1  0
 10 24  1  0
 10 25  1  0
 11 26  1  0
 11 27  1  0
 11 28  1  0
M  END
>  <UniqueID>  (90) 
81

>  <SMILES>  (90) 
CCCc1cn(C)c(SCC)n1

>  <Energy>  (90) 
41.867131626502484

>  <Genealogy>  (90) 
CCCc1cn(C)c(SCC)n1 (3D coordinates assigned)
CCCc1cn(C)c(SCC)n1 (optimized conformer: 41.867131626502484 kcal/mol)

>  <smiles>  (90) 
CCCc1cn(C)c(SCC)n1

>  <score_type>  (90) 
oracle

>  <origin>  (90) 
adg

>  <m_score__min__energy>  (90) 
-5.2300000000000004

>  <m_primary>  (90) 
energy

$$$$
90:0
     RDKit          3D

 48 51  0  0  1  0  0  0  0  0999 V2000
   57.0330   28.1490   44.4950 N   0  0  0  0  0  0  0  0  0  0  0  0
   56.3490   29.3900   44.4800 C   0  0  0  0  0  0  0  0  0  0  0  0
   55.1580   29.4170   44.8980 O   0  0  0  0  0  0  0  0  0  0  0  0
   56.9600   30.6270   44.0080 C   0  0  0  0  0  0  0  0  0  0  0  0
   57.0420   30.7970   42.6300 C   0  0  0  0  0  0  0  0  0  0  0  0
   57.6060   31.9380   42.1010 C   0  0  0  0  0  0  0  0  0  0  0  0
   58.0770   32.8870   42.9890 C   0  0  0  0  0  0  0  0  0  0  0  0
   57.9910   32.7090   44.3680 C   0  0  0  0  0  0  0  0  0  0  0  0
   58.5130   33.7640   45.1750 N   0  0  0  0  0  0  0  0  0  0  0  0
   59.1940   33.5830   46.2480 C   0  0  0  0  0  0  0  0  0  0  0  0
   60.5330   33.9120   46.3320 C   0  0  0  0  0  0  0  0  0  0  0  0
   61.2190   33.6980   47.5090 C   0  0  0  0  0  0  0  0  0  0  0  0
   62.5710   33.9890   47.7160 N   0  0  0  0  0  0  0  0  0  0  0  0
   63.2950   33.6680   48.7160 C   0  0  0  0  0  0  0  0  0  0  0  0
   62.8350   33.9990   49.9500 N   0  0  0  0  0  0  0  0  0  0  0  0
   63.5360   33.6960   51.0490 C   0  0  0  0  0  0  0  0  0  0  0  0
   64.7520   33.0360   50.9580 C   0  0  0  0  0  0  0  0  0  0  0  0
   65.2140   32.7030   49.7090 C   0  0  0  0  0  0  0  0  0  0  0  0
   64.4740   33.0270   48.6360 N   0  0  0  0  0  0  0  0  0  0  0  0
   60.5270   33.1610   48.5520 N   0  0  0  0  0  0  0  0  0  0  0  0
   59.2240   32.8460   48.4550 C   0  0  0  0  0  0  0  0  0  0  0  0
   58.5600   32.3370   49.4370 N   0  0  0  0  0  0  0  0  0  0  0  0
   59.0570   32.4840   50.7650 C   0  0  0  0  0  0  0  0  0  0  0  0
   59.4530   31.3400   51.4560 C   0  0  0  0  0  0  0  0  0  0  0  0
   59.9370   31.4660   52.7420 C   0  0  0  0  0  0  0  0  0  0  0  0
   60.0470   32.6940   53.3790 C   0  0  0  0  0  0  0  0  0  0  0  0
   59.6470   33.8170   52.6720 C   0  0  0  0  0  0  0  0  0  0  0  0
   59.1650   33.7060   51.3960 C   0  0  0  0  0  0  0  0  0  0  0  0
   58.5190   33.0460   47.3040 N   0  0  0  0  0  0  0  0  0  0  0  0
   57.4260   31.5670   44.9000 C   0  0  0  0  0  0  0  0  0  0  0  0
   57.0080   27.5210   43.6610 H   0  0  0  0  0  0  0  0  0  0  0  0
   57.5780   27.8190   45.3180 H   0  0  0  0  0  0  0  0  0  0  0  0
   56.6546   30.0165   41.9586 H   0  0  0  0  0  0  0  0  0  0  0  0
   57.6786   32.0877   41.0137 H   0  0  0  0  0  0  0  0  0  0  0  0
   58.5322   33.8080   42.5959 H   0  0  0  0  0  0  0  0  0  0  0  0
   61.0506   34.3434   45.4625 H   0  0  0  0  0  0  0  0  0  0  0  0
   63.1422   33.9743   52.0377 H   0  0  0  0  0  0  0  0  0  0  0  0
   65.3296   32.7865   51.8603 H   0  0  0  0  0  0  0  0  0  0  0  0
   66.1740   32.1796   49.5890 H   0  0  0  0  0  0  0  0  0  0  0  0
   64.8430   32.7660   47.7020 H   0  0  0  0  0  0  0  0  0  0  0  0
   60.9890   32.9710   49.4800 H   0  0  0  0  0  0  0  0  0  0  0  0
   59.3806   30.3498   50.9823 H   0  0  0  0  0  0  0  0  0  0  0  0
   60.2472   30.5594   53.2823 H   0  0  0  0  0  0  0  0  0  0  0  0
   60.4364   32.7730   54.4047 H   0  0  0  0  0  0  0  0  0  0  0  0
   59.7178   34.8090   53.1420 H   0  0  0  0  0  0  0  0  0  0  0  0
   58.8556   34.6150   50.8594 H   0  0  0  0  0  0  0  0  0  0  0  0
   57.5060   32.7990   47.2340 H   0  0  0  0  0  0  0  0  0  0  0  0
   57.3515   31.4150   45.9869 H   0  0  0  0  0  0  0  0  0  0  0  0
  1  2  1  0
  2  3  2  0
  2  4  1  0
  4  5  2  0
  5  6  1  0
  6  7  2  0
  7  8  1  0
  8  9  1  0
  9 10  2  0
 10 11  1  0
 11 12  2  0
 12 13  1  0
 13 14  2  3
 14 15  1  0
 15 16  2  0
 16 17  1  0
 17 18  2  0
 18 19  1  0
 12 20  1  0
 20 21  1  0
 21 22  2  0
 22 23  1  0
 23 24  2  0
 24 25  1  0
 25 26  2  0
 26 27  1  0
 27 28  2  0
 21 29  1  0
  8 30  2  0
 30  4  1  0
 29 10  1  0
 19 14  1  0
 28 23  1  0
  1 31  1  0
  1 32  1  0
  5 33  1  0
  6 34  1  0
  7 35  1  0
 11 36  1  0
 16 37  1  0
 17 38  1  0
 18 39  1  0
 19 40  1  0
 20 41  1  0
 24 42  1  0
 25 43  1  0
 26 44  1  0
 27 45  1  0
 28 46  1  0
 29 47  1  0
 30 48  1  0
M  END
>  <smiles>  (91) 
NC(=O)c1cccc(N=c2cc(N=c3nccc[nH]3)[nH]c(=Nc3ccccc3)[nH]2)c1

>  <score_type>  (91) 
oracle

>  <origin>  (91) 
adg

>  <m_score__min__energy>  (91) 
-9.3000000000000007

>  <m_primary>  (91) 
energy

$$$$
91:0
     RDKit          3D

 41 42  0  0  0  0  0  0  0  0999 V2000
   58.9110   30.5070   47.9110 C   0  0  0  0  0  0  0  0  0  0  0  0
   60.1180   29.6470   47.5370 C   0  0  0  0  0  0  0  0  0  0  0  0
   60.1720   28.3240   48.3120 C   0  0  0  0  0  0  0  0  0  0  0  0
   59.9740   27.0960   47.4110 C   0  0  0  0  0  0  0  0  0  0  0  0
   58.5950   27.0990   46.8070 C   0  0  0  0  0  0  0  0  0  0  0  0
   58.3350   27.4620   45.5440 C   0  0  0  0  0  0  0  0  0  0  0  0
   57.3880   28.5390   45.1880 C   0  0  0  0  0  0  0  0  0  0  0  0
   56.0060   28.3070   45.2440 C   0  0  0  0  0  0  0  0  0  0  0  0
   55.5120   27.0750   45.6550 O   0  0  0  0  0  0  0  0  0  0  0  0
   55.1370   29.2920   44.9010 N   0  0  0  0  0  0  0  0  0  0  0  0
   55.5610   30.5150   44.4900 C   0  0  0  0  0  0  0  0  0  0  0  0
   56.9320   30.8030   44.4050 C   0  0  0  0  0  0  0  0  0  0  0  0
   57.3710   32.1340   43.9180 C   0  0  0  0  0  0  0  0  0  0  0  0
   57.8500   32.2390   42.7580 O   0  0  0  0  0  0  0  0  0  0  0  0
   57.3130   33.3030   44.7460 N   0  0  0  0  0  0  0  0  0  0  0  0
   58.2710   33.6650   45.7530 C   0  0  0  0  0  0  0  0  0  0  0  0
   57.9540   33.5960   47.1210 C   0  0  0  0  0  0  0  0  0  0  0  0
   58.8870   33.9990   48.0810 C   0  0  0  0  0  0  0  0  0  0  0  0
   60.1440   34.4610   47.6850 C   0  0  0  0  0  0  0  0  0  0  0  0
   60.4640   34.5390   46.3290 C   0  0  0  0  0  0  0  0  0  0  0  0
   59.5270   34.1530   45.3590 C   0  0  0  0  0  0  0  0  0  0  0  0
   59.8400   34.2460   44.0030 O   0  0  0  0  0  0  0  0  0  0  0  0
   57.8520   29.7870   44.7360 C   0  0  0  0  0  0  0  0  0  0  0  0
   59.0920   29.9800   44.5990 O   0  0  0  0  0  0  0  0  0  0  0  0
   58.8281   30.5660   49.0063 H   0  0  0  0  0  0  0  0  0  0  0  0
   59.0393   31.5184   47.4979 H   0  0  0  0  0  0  0  0  0  0  0  0
   57.9969   30.0555   47.4979 H   0  0  0  0  0  0  0  0  0  0  0  0
   60.0687   29.4219   46.4614 H   0  0  0  0  0  0  0  0  0  0  0  0
   61.0223   30.2176   47.7949 H   0  0  0  0  0  0  0  0  0  0  0  0
   61.1530   28.2446   48.8032 H   0  0  0  0  0  0  0  0  0  0  0  0
   59.3490   28.3346   49.0417 H   0  0  0  0  0  0  0  0  0  0  0  0
   60.7219   27.1149   46.6046 H   0  0  0  0  0  0  0  0  0  0  0  0
   60.0929   26.1871   48.0190 H   0  0  0  0  0  0  0  0  0  0  0  0
   57.7518   26.7848   47.4396 H   0  0  0  0  0  0  0  0  0  0  0  0
   58.8525   26.9317   44.7310 H   0  0  0  0  0  0  0  0  0  0  0  0
   54.8239   31.2861   44.2216 H   0  0  0  0  0  0  0  0  0  0  0  0
   56.9684   33.2236   47.4371 H   0  0  0  0  0  0  0  0  0  0  0  0
   58.6307   33.9521   49.1497 H   0  0  0  0  0  0  0  0  0  0  0  0
   60.8822   34.7635   48.4423 H   0  0  0  0  0  0  0  0  0  0  0  0
   61.4543   34.9044   46.0196 H   0  0  0  0  0  0  0  0  0  0  0  0
   59.2620   33.8120   43.2940 H   0  0  0  0  0  0  0  0  0  0  0  0
  1  2  1  0
  2  3  1  0
  3  4  1  0
  4  5  1  0
  5  6  2  3
  6  7  1  0
  7  8  2  0
  8  9  1  0
  8 10  1  0
 10 11  1  0
 11 12  2  0
 12 13  1  0
 13 14  2  0
 13 15  1  0
 15 16  1  0
 16 17  2  0
 17 18  1  0
 18 19  2  0
 19 20  1  0
 20 21  2  0
 21 22  1  0
 12 23  1  0
 23 24  2  0
 23  7  1  0
 21 16  1  0
  1 25  1  0
  1 26  1  0
  1 27  1  0
  2 28  1  0
  2 29  1  0
  3 30  1  0
  3 31  1  0
  4 32  1  0
  4 33  1  0
  5 34  1  0
  6 35  1  0
 11 36  1  0
 17 37  1  0
 18 38  1  0
 19 39  1  0
 20 40  1  0
 22 41  1  0
M  CHG  3   9  -1  10  -1  15  -1
M  END
>  <UniqueID>  (92) 
82

>  <SMILES>  (92) 
CCCCC=Cc1c([O-])[n-]cc(C(=O)[N-]c2ccccc2O)c1=O

>  <Energy>  (92) 
49.341830426555774

>  <Genealogy>  (92) 
CCCCC=Cc1c([O-])[n-]cc(C(=O)[N-]c2ccccc2O)c1=O (protonated)
CCCCC=Cc1c([O-])[n-]cc(C(=O)[N-]c2ccccc2O)c1=O (3D coordinates assigned)
CCCCC=Cc1c([O-])[n-]cc(C(=O)[N-]c2ccccc2O)c1=O (optimized conformer: 49.341830426555774 kcal/mol)

>  <smiles>  (92) 
CCCCC=Cc1c(O)[nH]cc(C(=O)Nc2ccccc2O)c1=O

>  <score_type>  (92) 
oracle

>  <origin>  (92) 
adg

>  <m_score__min__energy>  (92) 
-14.369999999999999

>  <m_primary>  (92) 
energy

$$$$
92:0
     RDKit          3D

 36 38  0  0  0  0  0  0  0  0999 V2000
   55.1450   26.3330   46.9660 H   0  0  0  0  0  0  0  0  0  0  0  0
   55.2770   26.5790   45.9930 O   0  0  0  0  0  0  0  0  0  0  0  0
   56.2270   27.5200   45.6120 C   0  0  0  0  0  0  0  0  0  0  0  0
   55.8730   28.7810   45.2470 N   0  0  0  0  0  0  0  0  0  0  0  0
   56.9480   29.5260   44.9140 C   0  0  0  0  0  0  0  0  0  0  0  0
   56.8320   30.7670   44.5400 N   0  0  0  0  0  0  0  0  0  0  0  0
   57.5620   31.9120   45.0130 C   0  0  0  0  0  0  0  0  0  0  0  0
   57.0830   33.0560   44.8010 O   0  0  0  0  0  0  0  0  0  0  0  0
   58.7810   31.7650   45.7520 N   0  0  0  0  0  0  0  0  0  0  0  0
   58.9160   31.5690   47.1680 C   0  0  0  0  0  0  0  0  0  0  0  0
   58.9450   30.2780   47.7290 C   0  0  0  0  0  0  0  0  0  0  0  0
   58.8695   29.3965   47.0754 H   0  0  0  0  0  0  0  0  0  0  0  0
   59.0690   30.1090   49.1100 C   0  0  0  0  0  0  0  0  0  0  0  0
   59.1020   29.0962   49.5379 H   0  0  0  0  0  0  0  0  0  0  0  0
   59.1510   31.2200   49.9470 C   0  0  0  0  0  0  0  0  0  0  0  0
   59.2600   31.0828   51.0330 H   0  0  0  0  0  0  0  0  0  0  0  0
   59.0950   32.5070   49.4090 C   0  0  0  0  0  0  0  0  0  0  0  0
   59.1529   33.3806   50.0750 H   0  0  0  0  0  0  0  0  0  0  0  0
   58.9650   32.6940   48.0210 C   0  0  0  0  0  0  0  0  0  0  0  0
   58.9290   34.0950   47.4610 C   0  0  0  0  0  0  0  0  0  0  0  0
   57.9713   34.2492   46.9423 H   0  0  0  0  0  0  0  0  0  0  0  0
   59.0388   34.8051   48.2939 H   0  0  0  0  0  0  0  0  0  0  0  0
   60.2970   34.3730   46.2810 S   0  0  0  0  0  0  0  0  0  0  0  0
   61.5570   33.6570   47.3360 C   0  0  0  0  0  0  0  0  0  0  0  0
   62.3160   32.6260   46.8730 N   0  0  0  0  0  0  0  0  0  0  0  0
   63.2730   32.0430   47.6440 C   0  0  0  0  0  0  0  0  0  0  0  0
   63.8676   31.2086   47.2437 H   0  0  0  0  0  0  0  0  0  0  0  0
   63.5020   32.5020   48.9430 C   0  0  0  0  0  0  0  0  0  0  0  0
   64.2740   32.0330   49.5708 H   0  0  0  0  0  0  0  0  0  0  0  0
   62.7390   33.5640   49.4360 C   0  0  0  0  0  0  0  0  0  0  0  0
   62.9077   33.9371   50.4569 H   0  0  0  0  0  0  0  0  0  0  0  0
   61.7620   34.1500   48.6290 C   0  0  0  0  0  0  0  0  0  0  0  0
   61.1601   34.9901   49.0057 H   0  0  0  0  0  0  0  0  0  0  0  0
   58.3790   28.6400   45.0650 S   0  0  0  0  0  0  0  0  0  0  0  0
   57.5910   27.2440   45.5750 C   0  0  0  0  0  0  0  0  0  0  0  0
   58.0672   26.2865   45.8326 H   0  0  0  0  0  0  0  0  0  0  0  0
  1  2  1  0
  2  3  1  0
  3  4  1  0
  4  5  1  0
  5  6  2  0
  6  7  1  0
  7  8  2  0
  7  9  1  0
  9 10  1  0
 10 11  2  0
 11 12  1  0
 11 13  1  0
 13 14  1  0
 13 15  2  0
 15 16  1  0
 15 17  1  0
 17 18  1  0
 17 19  2  0
 19 20  1  0
 20 21  1  0
 20 22  1  0
 20 23  1  0
 23 24  1  0
 24 25  2  0
 25 26  1  0
 26 27  1  0
 26 28  2  0
 28 29  1  0
 28 30  1  0
 30 31  1  0
 30 32  2  0
 32 33  1  0
  5 34  1  0
 34 35  1  0
 35 36  1  0
 35  3  2  0
 19 10  1  0
 32 24  1  0
M  CHG  2   4  -1   9  -1
M  END
>  <UniqueID>  (93) 
83

>  <SMILES>  (93) 
O=C(/N=c1/[n-]c(O)cs1)[N-]c1ccccc1CSc1ccccn1

>  <Energy>  (93) 
71.20250625525311

>  <Genealogy>  (93) 
O=C(N=c1[n-]c(O)cs1)[N-]c1ccccc1CSc1ccccn1 (protonated)
O=C(/N=c1/[n-]c(O)cs1)[N-]c1ccccc1CSc1ccccn1 (cis-trans isomerization)
O=C(/N=c1/[n-]c(O)cs1)[N-]c1ccccc1CSc1ccccn1 (3D coordinates assigned)
O=C(/N=c1/[n-]c(O)cs1)[N-]c1ccccc1CSc1ccccn1 (optimized conformer: 71.20250625525311 kcal/mol)

>  <smiles>  (93) 
O=C(N=c1[nH]c(O)cs1)Nc1ccccc1CSc1ccccn1

>  <score_type>  (93) 
oracle

>  <origin>  (93) 
adg

>  <m_score__min__energy>  (93) 
-11.300000000000001

>  <m_primary>  (93) 
energy

$$$$
93:0
     RDKit          3D

 44 47  0  0  0  0  0  0  0  0999 V2000
   58.5480   27.3740   43.6570 O   0  0  0  0  0  0  0  0  0  0  0  0
   58.1490   27.8600   44.7480 C   0  0  0  0  0  0  0  0  0  0  0  0
   57.6700   26.9660   45.7640 N   0  0  0  0  0  0  0  0  0  0  0  0
   56.5960   26.2390   45.6850 C   0  0  0  0  0  0  0  0  0  0  0  0
   55.3540   26.6770   45.9940 N   0  0  0  0  0  0  0  0  0  0  0  0
   54.4240   25.7330   45.8620 N   0  0  0  0  0  0  0  0  0  0  0  0
   54.9220   24.5480   45.4430 C   0  0  0  0  0  0  0  0  0  0  0  0
   54.0930   23.3140   45.2790 C   0  0  0  0  0  0  0  0  0  0  0  0
   52.5920   23.5610   45.2440 C   0  0  0  0  0  0  0  0  0  0  0  0
   53.2340   22.9620   46.4840 C   0  0  0  0  0  0  0  0  0  0  0  0
   56.5960   24.6160   45.2450 S   0  0  0  0  0  0  0  0  0  0  0  0
   58.1370   29.3320   44.9230 C   0  0  0  0  0  0  0  0  0  0  0  0
   59.0930   29.9510   45.7470 C   0  0  0  0  0  0  0  0  0  0  0  0
   59.0870   31.3390   45.9170 C   0  0  0  0  0  0  0  0  0  0  0  0
   58.1330   32.1250   45.2570 C   0  0  0  0  0  0  0  0  0  0  0  0
   58.0860   33.8720   45.4930 S   0  0  0  0  0  0  0  0  0  0  0  0
   59.0010   34.5540   44.5130 O   0  0  0  0  0  0  0  0  0  0  0  0
   56.6840   34.3520   45.2460 O   0  0  0  0  0  0  0  0  0  0  0  0
   58.5540   34.3010   47.1140 N   0  0  0  0  0  0  0  0  0  0  0  0
   59.8940   34.8930   47.1540 C   0  0  0  0  0  0  0  0  0  0  0  0
   60.9380   33.8640   47.4930 C   0  0  0  0  0  0  0  0  0  0  0  0
   60.7240   32.9620   48.5500 C   0  0  0  0  0  0  0  0  0  0  0  0
   61.6990   32.0150   48.8770 C   0  0  0  0  0  0  0  0  0  0  0  0
   62.8920   31.9600   48.1510 C   0  0  0  0  0  0  0  0  0  0  0  0
   63.1120   32.8500   47.0960 C   0  0  0  0  0  0  0  0  0  0  0  0
   62.1390   33.7990   46.7660 C   0  0  0  0  0  0  0  0  0  0  0  0
   57.1960   31.5160   44.4160 C   0  0  0  0  0  0  0  0  0  0  0  0
   57.2000   30.1290   44.2460 C   0  0  0  0  0  0  0  0  0  0  0  0
   54.8102   22.7701   44.6467 H   0  0  0  0  0  0  0  0  0  0  0  0
   52.2032   24.5897   45.2684 H   0  0  0  0  0  0  0  0  0  0  0  0
   51.7708   23.2664   44.5740 H   0  0  0  0  0  0  0  0  0  0  0  0
   53.3098   23.5572   47.4060 H   0  0  0  0  0  0  0  0  0  0  0  0
   53.0698   22.0543   47.0832 H   0  0  0  0  0  0  0  0  0  0  0  0
   59.8499   29.3402   46.2609 H   0  0  0  0  0  0  0  0  0  0  0  0
   59.8330   31.8150   46.5704 H   0  0  0  0  0  0  0  0  0  0  0  0
   60.1240   35.3253   46.1690 H   0  0  0  0  0  0  0  0  0  0  0  0
   59.9068   35.6693   47.9332 H   0  0  0  0  0  0  0  0  0  0  0  0
   59.7853   33.0016   49.1222 H   0  0  0  0  0  0  0  0  0  0  0  0
   61.5271   31.3128   49.7061 H   0  0  0  0  0  0  0  0  0  0  0  0
   63.6589   31.2152   48.4103 H   0  0  0  0  0  0  0  0  0  0  0  0
   64.0510   32.8041   46.5249 H   0  0  0  0  0  0  0  0  0  0  0  0
   62.3145   34.4972   45.9343 H   0  0  0  0  0  0  0  0  0  0  0  0
   56.4534   32.1310   43.8866 H   0  0  0  0  0  0  0  0  0  0  0  0
   56.4642   29.6584   43.5773 H   0  0  0  0  0  0  0  0  0  0  0  0
  1  2  2  0
  2  3  1  0
  3  4  2  3
  4  5  1  0
  5  6  1  0
  6  7  2  0
  7  8  1  0
  8  9  1  0
  9 10  1  0
  7 11  1  0
  2 12  1  0
 12 13  2  0
 13 14  1  0
 14 15  2  0
 15 16  1  0
 16 17  2  0
 16 18  2  0
 16 19  1  0
 19 20  1  0
 20 21  1  0
 21 22  2  0
 22 23  1  0
 23 24  2  0
 24 25  1  0
 25 26  2  0
 15 27  1  0
 27 28  2  0
 11  4  1  0
 28 12  1  0
 10  8  1  0
 26 21  1  0
  8 29  1  0
  9 30  1  0
  9 31  1  0
 10 32  1  0
 10 33  1  0
 13 34  1  0
 14 35  1  0
 20 36  1  0
 20 37  1  0
 22 38  1  0
 23 39  1  0
 24 40  1  0
 25 41  1  0
 26 42  1  0
 27 43  1  0
 28 44  1  0
M  CHG  2   5  -1  19  -1
M  END
>  <UniqueID>  (94) 
84

>  <SMILES>  (94) 
O=C(N=c1[n-]nc(C2CC2)s1)c1ccc(S(=O)(=O)[N-]Cc2ccccc2)cc1

>  <Energy>  (94) 
350.2236825478427

>  <Genealogy>  (94) 
O=C(N=c1[n-]nc(C2CC2)s1)c1ccc(S(=O)(=O)[N-]Cc2ccccc2)cc1 (protonated)
O=C(N=c1[n-]nc(C2CC2)s1)c1ccc(S(=O)(=O)[N-]Cc2ccccc2)cc1 (3D coordinates assigned)
O=C(N=c1[n-]nc(C2CC2)s1)c1ccc(S(=O)(=O)[N-]Cc2ccccc2)cc1 (nonaromatic ring conformer: 350.2236825478427 kcal/mol)

>  <smiles>  (94) 
O=C(N=c1[nH]nc(C2CC2)s1)c1ccc(S(=O)(=O)NCc2ccccc2)cc1

>  <score_type>  (94) 
oracle

>  <origin>  (94) 
adg

>  <m_score__min__energy>  (94) 
-12.17

>  <m_primary>  (94) 
energy

$$$$
94:0
     RDKit          3D

 42 44  0  0  0  0  0  0  0  0999 V2000
   53.3110   23.7450   44.5780 C   0  0  0  0  0  0  0  0  0  0  0  0
   54.7240   23.7260   44.2120 N   0  0  0  0  0  0  0  0  0  0  0  0
   55.2020   22.9980   43.2150 N   0  0  0  0  0  0  0  0  0  0  0  0
   56.5310   23.2090   43.1520 C   0  0  0  0  0  0  0  0  0  0  0  0
   56.9080   24.0950   44.1430 C   0  0  0  0  0  0  0  0  0  0  0  0
   55.7330   24.4080   44.7990 C   0  0  0  0  0  0  0  0  0  0  0  0
   55.6090   25.3000   45.9740 C   0  0  0  0  0  0  0  0  0  0  0  0
   55.5230   24.8010   47.1270 O   0  0  0  0  0  0  0  0  0  0  0  0
   55.6650   26.7250   45.8470 N   0  0  0  0  0  0  0  0  0  0  0  0
   56.8440   27.5060   45.6040 C   0  0  0  0  0  0  0  0  0  0  0  0
   58.1280   26.9400   45.6700 C   0  0  0  0  0  0  0  0  0  0  0  0
   59.2550   27.7230   45.4130 C   0  0  0  0  0  0  0  0  0  0  0  0
   59.1100   29.0690   45.0700 C   0  0  0  0  0  0  0  0  0  0  0  0
   57.8320   29.6440   44.9640 C   0  0  0  0  0  0  0  0  0  0  0  0
   57.6720   31.0720   44.6010 C   0  0  0  0  0  0  0  0  0  0  0  0
   57.3750   31.3790   43.4140 O   0  0  0  0  0  0  0  0  0  0  0  0
   57.8360   32.1150   45.5790 N   0  0  0  0  0  0  0  0  0  0  0  0
   57.0080   33.3240   45.5190 C   0  0  0  0  0  0  0  0  0  0  0  0
   57.8670   34.5130   45.0750 C   0  0  0  0  0  0  0  0  0  0  0  0
   59.1080   34.6480   45.9690 C   0  0  0  0  0  0  0  0  0  0  0  0
   59.9160   33.3430   46.0010 C   0  0  0  0  0  0  0  0  0  0  0  0
   59.0340   32.1640   46.4270 C   0  0  0  0  0  0  0  0  0  0  0  0
   56.7030   28.8500   45.2370 C   0  0  0  0  0  0  0  0  0  0  0  0
   53.2161   23.7463   45.6739 H   0  0  0  0  0  0  0  0  0  0  0  0
   52.8382   24.6496   44.1679 H   0  0  0  0  0  0  0  0  0  0  0  0
   52.8140   22.8535   44.1679 H   0  0  0  0  0  0  0  0  0  0  0  0
   57.2123   22.7464   42.4227 H   0  0  0  0  0  0  0  0  0  0  0  0
   57.9194   24.4684   44.3613 H   0  0  0  0  0  0  0  0  0  0  0  0
   58.2459   25.8765   45.9250 H   0  0  0  0  0  0  0  0  0  0  0  0
   60.2591   27.2789   45.4808 H   0  0  0  0  0  0  0  0  0  0  0  0
   60.0026   29.6836   44.8814 H   0  0  0  0  0  0  0  0  0  0  0  0
   56.1910   33.1730   44.7981 H   0  0  0  0  0  0  0  0  0  0  0  0
   56.5870   33.5286   46.5144 H   0  0  0  0  0  0  0  0  0  0  0  0
   58.1867   34.3590   44.0338 H   0  0  0  0  0  0  0  0  0  0  0  0
   57.2690   35.4325   45.1578 H   0  0  0  0  0  0  0  0  0  0  0  0
   59.7454   35.4548   45.5781 H   0  0  0  0  0  0  0  0  0  0  0  0
   58.7759   34.8763   46.9925 H   0  0  0  0  0  0  0  0  0  0  0  0
   60.3212   33.1456   44.9976 H   0  0  0  0  0  0  0  0  0  0  0  0
   60.7323   33.4528   46.7302 H   0  0  0  0  0  0  0  0  0  0  0  0
   59.5985   31.2262   46.3182 H   0  0  0  0  0  0  0  0  0  0  0  0
   58.7337   32.2925   47.4774 H   0  0  0  0  0  0  0  0  0  0  0  0
   55.6978   29.2902   45.1613 H   0  0  0  0  0  0  0  0  0  0  0  0
  1  2  1  0
  2  3  1  0
  3  4  2  0
  4  5  1  0
  5  6  2  0
  6  7  1  0
  7  8  2  0
  7  9  1  0
  9 10  1  0
 10 11  2  0
 11 12  1  0
 12 13  2  0
 13 14  1  0
 14 15  1  0
 15 16  2  0
 15 17  1  0
 17 18  1  0
 18 19  1  0
 19 20  1  0
 20 21  1  0
 21 22  1  0
 14 23  2  0
  6  2  1  0
 23 10  1  0
 22 17  1  0
  1 24  1  0
  1 25  1  0
  1 26  1  0
  4 27  1  0
  5 28  1  0
 11 29  1  0
 12 30  1  0
 13 31  1  0
 18 32  1  0
 18 33  1  0
 19 34  1  0
 19 35  1  0
 20 36  1  0
 20 37  1  0
 21 38  1  0
 21 39  1  0
 22 40  1  0
 22 41  1  0
 23 42  1  0
M  CHG  1   9  -1
M  END
>  <UniqueID>  (95) 
85

>  <SMILES>  (95) 
Cn1nccc1C(=O)[N-]c1cccc(C(=O)N2CCCCC2)c1

>  <Energy>  (95) 
78.79004928593731

>  <Genealogy>  (95) 
Cn1nccc1C(=O)[N-]c1cccc(C(=O)N2CCCCC2)c1 (protonated)
Cn1nccc1C(=O)[N-]c1cccc(C(=O)N2CCCCC2)c1 (3D coordinates assigned)
Cn1nccc1C(=O)[N-]c1cccc(C(=O)N2CCCCC2)c1 (nonaromatic ring conformer: 78.79004928593731 kcal/mol)

>  <smiles>  (95) 
Cn1nccc1C(=O)Nc1cccc(C(=O)N2CCCCC2)c1

>  <score_type>  (95) 
oracle

>  <origin>  (95) 
adg

>  <m_score__min__energy>  (95) 
-10.17

>  <m_primary>  (95) 
energy

$$$$
95:0
     RDKit          3D

 48 50  0  0  1  0  0  0  0  0999 V2000
   64.5090   32.3460   49.5020 C   0  0  0  0  0  0  0  0  0  0  0  0
   64.0470   33.4260   48.5220 C   0  0  0  0  0  0  0  0  0  0  0  0
   62.9610   34.1960   49.2370 C   0  0  0  0  0  0  0  0  0  0  0  0
   63.5440   32.7210   47.3010 C   0  0  0  0  0  0  0  0  0  0  0  0
   62.0650   32.7130   47.1700 C   0  0  0  0  0  0  0  0  0  0  0  0
   61.3430   31.8030   47.8260 N   0  0  0  0  0  0  0  0  0  0  0  0
   59.9970   31.8200   47.6880 C   0  0  0  0  0  0  0  0  0  0  0  0
   59.3550   30.9550   48.3180 N   0  0  0  0  0  0  0  0  0  0  0  0
   59.5460   29.5630   48.3760 C   0  0  0  0  0  0  0  0  0  0  0  0
   59.2450   29.1590   46.9270 C   0  0  0  0  0  0  0  0  0  0  0  0
   60.1020   28.2910   46.2660 C   0  0  0  0  0  0  0  0  0  0  0  0
   59.8180   27.9210   44.9770 C   0  0  0  0  0  0  0  0  0  0  0  0
   58.6880   28.4360   44.4010 C   0  0  0  0  0  0  0  0  0  0  0  0
   57.8100   29.2970   45.0130 C   0  0  0  0  0  0  0  0  0  0  0  0
   56.3860   29.9130   44.2140 S   0  0  0  0  0  0  0  0  0  0  0  0
   56.4200   29.7310   42.5190 N   0  0  0  0  0  0  0  0  0  0  0  0
   56.3570   31.4060   44.5090 O   0  0  0  0  0  0  0  0  0  0  0  0
   55.1410   29.3310   44.8270 O   0  0  0  0  0  0  0  0  0  0  0  0
   58.0990   29.6660   46.3080 C   0  0  0  0  0  0  0  0  0  0  0  0
   59.3420   32.7310   46.9030 C   0  0  0  0  0  0  0  0  0  0  0  0
   57.9910   32.7240   46.7830 C   0  0  0  0  0  0  0  0  0  0  0  0
   57.4400   33.7240   45.9360 C   0  0  0  0  0  0  0  0  0  0  0  0
   58.2620   34.6020   45.3150 C   0  0  0  0  0  0  0  0  0  0  0  0
   59.6340   34.6170   45.4300 C   0  0  0  0  0  0  0  0  0  0  0  0
   60.1750   33.6490   46.2500 C   0  0  0  0  0  0  0  0  0  0  0  0
   61.5070   33.6410   46.3800 N   0  0  0  0  0  0  0  0  0  0  0  0
   64.3584   32.6980   50.5332 H   0  0  0  0  0  0  0  0  0  0  0  0
   63.9246   31.4285   49.3387 H   0  0  0  0  0  0  0  0  0  0  0  0
   65.5762   32.1350   49.3387 H   0  0  0  0  0  0  0  0  0  0  0  0
   64.8361   34.1257   48.2094 H   0  0  0  0  0  0  0  0  0  0  0  0
   63.0978   34.0990   50.3241 H   0  0  0  0  0  0  0  0  0  0  0  0
   63.0168   35.2574   48.9537 H   0  0  0  0  0  0  0  0  0  0  0  0
   61.9779   33.7921   48.9537 H   0  0  0  0  0  0  0  0  0  0  0  0
   63.9662   33.2195   46.4160 H   0  0  0  0  0  0  0  0  0  0  0  0
   63.8597   31.6710   47.3891 H   0  0  0  0  0  0  0  0  0  0  0  0
   60.5783   29.3094   48.6588 H   0  0  0  0  0  0  0  0  0  0  0  0
   58.9225   29.0531   49.1252 H   0  0  0  0  0  0  0  0  0  0  0  0
   60.9995   27.9040   46.7707 H   0  0  0  0  0  0  0  0  0  0  0  0
   60.4756   27.2338   44.4244 H   0  0  0  0  0  0  0  0  0  0  0  0
   58.4655   28.1366   43.3662 H   0  0  0  0  0  0  0  0  0  0  0  0
   55.6460   29.1140   42.2250 H   0  0  0  0  0  0  0  0  0  0  0  0
   57.3330   29.3080   42.2460 H   0  0  0  0  0  0  0  0  0  0  0  0
   57.4337   30.3538   46.8505 H   0  0  0  0  0  0  0  0  0  0  0  0
   57.3613   31.9907   47.3080 H   0  0  0  0  0  0  0  0  0  0  0  0
   56.3519   33.7839   45.7861 H   0  0  0  0  0  0  0  0  0  0  0  0
   57.7983   35.3619   44.6688 H   0  0  0  0  0  0  0  0  0  0  0  0
   60.2580   35.3532   44.9022 H   0  0  0  0  0  0  0  0  0  0  0  0
   62.0980   34.3430   45.8770 H   0  0  0  0  0  0  0  0  0  0  0  0
  1  2  1  0
  2  3  1  0
  2  4  1  0
  4  5  1  0
  5  6  2  0
  6  7  1  0
  7  8  2  0
  8  9  1  0
  9 10  1  0
 10 11  2  0
 11 12  1  0
 12 13  2  0
 13 14  1  0
 14 15  1  0
 15 16  1  0
 15 17  2  0
 15 18  2  0
 14 19  2  0
  7 20  1  0
 20 21  2  0
 21 22  1  0
 22 23  2  0
 23 24  1  0
 24 25  2  0
 25 26  1  0
 26  5  1  0
 19 10  1  0
 25 20  1  0
  1 27  1  0
  1 28  1  0
  1 29  1  0
  2 30  1  0
  3 31  1  0
  3 32  1  0
  3 33  1  0
  4 34  1  0
  4 35  1  0
  9 36  1  0
  9 37  1  0
 11 38  1  0
 12 39  1  0
 13 40  1  0
 16 41  1  0
 16 42  1  0
 19 43  1  0
 21 44  1  0
 22 45  1  0
 23 46  1  0
 24 47  1  0
 26 48  1  0
M  END
>  <smiles>  (96) 
CC(C)Cc1nc(=NCc2cccc(S(N)(=O)=O)c2)c2ccccc2[nH]1

>  <score_type>  (96) 
oracle

>  <origin>  (96) 
adg

>  <m_score__min__energy>  (96) 
-9.9600000000000009

>  <m_primary>  (96) 
energy

$$$$
96:0
     RDKit          3D

 56 59  0  0  0  0  0  0  0  0999 V2000
   60.8140   28.3030   48.6680 O   0  0  0  0  0  0  0  0  0  0  0  0
   60.0030   29.0530   48.0600 C   0  0  0  0  0  0  0  0  0  0  0  0
   60.1900   29.3040   46.5920 C   0  0  0  0  0  0  0  0  0  0  0  0
   58.9390   29.7770   45.9750 N   0  0  0  0  0  0  0  0  0  0  0  0
   58.0790   28.8400   45.2900 C   0  0  0  0  0  0  0  0  0  0  0  0
   58.4510   27.6530   45.0820 O   0  0  0  0  0  0  0  0  0  0  0  0
   56.7000   29.2550   44.8740 C   0  0  0  0  0  0  0  0  0  0  0  0
   56.6600   30.6430   44.5580 O   0  0  0  0  0  0  0  0  0  0  0  0
   57.4380   31.5880   45.2330 C   0  0  0  0  0  0  0  0  0  0  0  0
   57.0930   32.9390   45.1520 C   0  0  0  0  0  0  0  0  0  0  0  0
   57.8510   33.8990   45.8240 C   0  0  0  0  0  0  0  0  0  0  0  0
   58.9680   33.5160   46.5710 C   0  0  0  0  0  0  0  0  0  0  0  0
   59.9010   34.7360   47.4360 S   0  0  0  0  0  0  0  0  0  0  0  0
   59.9030   36.0250   46.6620 O   0  0  0  0  0  0  0  0  0  0  0  0
   59.2530   34.9810   48.7710 O   0  0  0  0  0  0  0  0  0  0  0  0
   61.5370   34.1730   47.6720 N   0  0  0  0  0  0  0  0  0  0  0  0
   61.5390   33.0060   48.5820 C   0  0  0  0  0  0  0  0  0  0  0  0
   62.8910   32.2580   48.5840 C   0  0  0  0  0  0  0  0  0  0  0  0
   64.0060   33.1060   47.9670 C   0  0  0  0  0  0  0  0  0  0  0  0
   63.6420   33.5390   46.5370 C   0  0  0  0  0  0  0  0  0  0  0  0
   62.1370   33.8270   46.3740 C   0  0  0  0  0  0  0  0  0  0  0  0
   59.3240   32.1610   46.6480 C   0  0  0  0  0  0  0  0  0  0  0  0
   58.5670   31.1800   45.9710 C   0  0  0  0  0  0  0  0  0  0  0  0
   58.9300   29.6840   48.7740 N   0  0  0  0  0  0  0  0  0  0  0  0
   58.7480   29.5260   50.2140 C   0  0  0  0  0  0  0  0  0  0  0  0
   58.5560   30.8720   50.8610 C   0  0  0  0  0  0  0  0  0  0  0  0
   59.5060   31.8870   50.6610 C   0  0  0  0  0  0  0  0  0  0  0  0
   59.3460   33.1340   51.2750 C   0  0  0  0  0  0  0  0  0  0  0  0
   58.2400   33.3740   52.0960 C   0  0  0  0  0  0  0  0  0  0  0  0
   58.0850   34.5840   52.6890 F   0  0  0  0  0  0  0  0  0  0  0  0
   57.2930   32.3650   52.3060 C   0  0  0  0  0  0  0  0  0  0  0  0
   57.4520   31.1160   51.6940 C   0  0  0  0  0  0  0  0  0  0  0  0
   60.9704   30.0668   46.4538 H   0  0  0  0  0  0  0  0  0  0  0  0
   60.4845   28.3604   46.1093 H   0  0  0  0  0  0  0  0  0  0  0  0
   56.4015   28.6753   43.9881 H   0  0  0  0  0  0  0  0  0  0  0  0
   56.0092   29.0648   45.7087 H   0  0  0  0  0  0  0  0  0  0  0  0
   56.2210   33.2474   44.5566 H   0  0  0  0  0  0  0  0  0  0  0  0
   57.5682   34.9604   45.7654 H   0  0  0  0  0  0  0  0  0  0  0  0
   61.3278   33.3551   49.6035 H   0  0  0  0  0  0  0  0  0  0  0  0
   60.7700   32.3044   48.2266 H   0  0  0  0  0  0  0  0  0  0  0  0
   63.1617   32.0130   49.6216 H   0  0  0  0  0  0  0  0  0  0  0  0
   62.7796   31.3451   47.9806 H   0  0  0  0  0  0  0  0  0  0  0  0
   64.1607   34.0022   48.5858 H   0  0  0  0  0  0  0  0  0  0  0  0
   64.9244   32.5019   47.9272 H   0  0  0  0  0  0  0  0  0  0  0  0
   64.2047   34.4514   46.2904 H   0  0  0  0  0  0  0  0  0  0  0  0
   63.8995   32.7106   45.8606 H   0  0  0  0  0  0  0  0  0  0  0  0
   62.0023   34.6673   45.6770 H   0  0  0  0  0  0  0  0  0  0  0  0
   61.6421   32.9266   45.9811 H   0  0  0  0  0  0  0  0  0  0  0  0
   60.2004   31.8603   47.2409 H   0  0  0  0  0  0  0  0  0  0  0  0
   58.2530   30.2870   48.2550 H   0  0  0  0  0  0  0  0  0  0  0  0
   57.8621   28.9018   50.4026 H   0  0  0  0  0  0  0  0  0  0  0  0
   59.6413   29.0456   50.6397 H   0  0  0  0  0  0  0  0  0  0  0  0
   60.3795   31.7007   50.0189 H   0  0  0  0  0  0  0  0  0  0  0  0
   60.0912   33.9265   51.1116 H   0  0  0  0  0  0  0  0  0  0  0  0
   56.4232   32.5536   52.9524 H   0  0  0  0  0  0  0  0  0  0  0  0
   56.7095   30.3229   51.8662 H   0  0  0  0  0  0  0  0  0  0  0  0
  1  2  2  0
  2  3  1  0
  3  4  1  0
  4  5  1  0
  5  6  2  0
  5  7  1  0
  7  8  1  0
  8  9  1  0
  9 10  2  0
 10 11  1  0
 11 12  2  0
 12 13  1  0
 13 14  2  0
 13 15  2  0
 13 16  1  0
 16 17  1  0
 17 18  1  0
 18 19  1  0
 19 20  1  0
 20 21  1  0
 12 22  1  0
 22 23  2  0
  2 24  1  0
 24 25  1  0
 25 26  1  0
 26 27  2  0
 27 28  1  0
 28 29  2  0
 29 30  1  0
 29 31  1  0
 31 32  2  0
 23  4  1  0
 32 26  1  0
 23  9  1  0
 21 16  1  0
  3 33  1  0
  3 34  1  0
  7 35  1  0
  7 36  1  0
 10 37  1  0
 11 38  1  0
 17 39  1  0
 17 40  1  0
 18 41  1  0
 18 42  1  0
 19 43  1  0
 19 44  1  0
 20 45  1  0
 20 46  1  0
 21 47  1  0
 21 48  1  0
 22 49  1  0
 24 50  1  0
 25 51  1  0
 25 52  1  0
 27 53  1  0
 28 54  1  0
 31 55  1  0
 32 56  1  0
M  END
>  <UniqueID>  (97) 
86

>  <SMILES>  (97) 
O=C(CN1C(=O)COc2ccc(S(=O)(=O)N3CCCCC3)cc21)NCc1ccc(F)cc1

>  <Energy>  (97) 
61.838701812191346

>  <Genealogy>  (97) 
O=C(CN1C(=O)COc2ccc(S(=O)(=O)N3CCCCC3)cc21)NCc1ccc(F)cc1 (3D coordinates assigned)
O=C(CN1C(=O)COc2ccc(S(=O)(=O)N3CCCCC3)cc21)NCc1ccc(F)cc1 (nonaromatic ring conformer: 61.838701812191346 kcal/mol)

>  <smiles>  (97) 
O=C(CN1C(=O)COc2ccc(S(=O)(=O)N3CCCCC3)cc21)NCc1ccc(F)cc1

>  <score_type>  (97) 
oracle

>  <origin>  (97) 
adg

>  <m_score__min__energy>  (97) 
-9.2300000000000004

>  <m_primary>  (97) 
energy

$$$$
97:0
     RDKit          3D

 47 49  0  0  0  0  0  0  0  0999 V2000
   57.0930   24.7030   43.6610 C   0  0  0  0  0  0  0  0  0  0  0  0
   55.9910   24.3250   44.5530 N   0  0  0  0  0  0  0  0  0  0  0  0
   56.0850   22.9010   44.8990 C   0  0  0  0  0  0  0  0  0  0  0  0
   56.0700   25.2820   46.0130 S   0  0  0  0  0  0  0  0  0  0  0  0
   55.0070   26.3440   45.9900 O   0  0  0  0  0  0  0  0  0  0  0  0
   55.8620   24.4020   47.2150 O   0  0  0  0  0  0  0  0  0  0  0  0
   57.6230   26.0390   46.1340 N   0  0  0  0  0  0  0  0  0  0  0  0
   57.9160   27.2840   45.4990 C   0  0  0  0  0  0  0  0  0  0  0  0
   59.1130   27.6450   45.3320 O   0  0  0  0  0  0  0  0  0  0  0  0
   56.8400   28.1190   45.0540 N   0  0  0  0  0  0  0  0  0  0  0  0
   57.0550   29.4160   44.4780 C   0  0  0  0  0  0  0  0  0  0  0  0
   56.5530   29.6690   43.1930 C   0  0  0  0  0  0  0  0  0  0  0  0
   56.7650   30.9020   42.5760 C   0  0  0  0  0  0  0  0  0  0  0  0
   57.4750   31.9050   43.2360 C   0  0  0  0  0  0  0  0  0  0  0  0
   57.9620   31.6900   44.5350 C   0  0  0  0  0  0  0  0  0  0  0  0
   58.6490   32.7120   45.2070 C   0  0  0  0  0  0  0  0  0  0  0  0
   59.1030   32.5190   46.5150 C   0  0  0  0  0  0  0  0  0  0  0  0
   59.9370   33.8260   47.3500 S   0  0  0  0  0  0  0  0  0  0  0  0
   61.1560   34.2630   46.5830 O   0  0  0  0  0  0  0  0  0  0  0  0
   59.0000   34.9950   47.4760 O   0  0  0  0  0  0  0  0  0  0  0  0
   60.4160   33.3040   48.9380 N   0  0  0  0  0  0  0  0  0  0  0  0
   59.6320   33.1160   49.9610 C   0  0  0  0  0  0  0  0  0  0  0  0
   59.7330   33.8710   51.1480 C   0  0  0  0  0  0  0  0  0  0  0  0
   58.8650   33.6050   52.2090 C   0  0  0  0  0  0  0  0  0  0  0  0
   57.9010   32.6020   52.0880 C   0  0  0  0  0  0  0  0  0  0  0  0
   57.0500   32.3410   53.1100 F   0  0  0  0  0  0  0  0  0  0  0  0
   57.8220   31.8760   50.8980 C   0  0  0  0  0  0  0  0  0  0  0  0
   58.6780   32.1470   49.8760 N   0  0  0  0  0  0  0  0  0  0  0  0
   58.8670   31.2990   47.1590 C   0  0  0  0  0  0  0  0  0  0  0  0
   58.1860   30.2720   46.5010 C   0  0  0  0  0  0  0  0  0  0  0  0
   57.7430   30.4420   45.1750 C   0  0  0  0  0  0  0  0  0  0  0  0
   57.9647   25.0020   44.2615 H   0  0  0  0  0  0  0  0  0  0  0  0
   57.3616   23.8456   43.0264 H   0  0  0  0  0  0  0  0  0  0  0  0
   56.7788   25.5447   43.0264 H   0  0  0  0  0  0  0  0  0  0  0  0
   56.0924   22.7893   45.9933 H   0  0  0  0  0  0  0  0  0  0  0  0
   55.2203   22.3644   44.4814 H   0  0  0  0  0  0  0  0  0  0  0  0
   57.0127   22.4827   44.4814 H   0  0  0  0  0  0  0  0  0  0  0  0
   55.8840   27.7000   44.9920 H   0  0  0  0  0  0  0  0  0  0  0  0
   55.9863   28.8871   42.6663 H   0  0  0  0  0  0  0  0  0  0  0  0
   56.3708   31.0840   41.5653 H   0  0  0  0  0  0  0  0  0  0  0  0
   57.6541   32.8685   42.7365 H   0  0  0  0  0  0  0  0  0  0  0  0
   58.8317   33.6716   44.7013 H   0  0  0  0  0  0  0  0  0  0  0  0
   60.4902   34.6638   51.2373 H   0  0  0  0  0  0  0  0  0  0  0  0
   58.9406   34.1856   53.1402 H   0  0  0  0  0  0  0  0  0  0  0  0
   57.0668   31.0840   50.7867 H   0  0  0  0  0  0  0  0  0  0  0  0
   59.2200   31.1479   48.1898 H   0  0  0  0  0  0  0  0  0  0  0  0
   57.9942   29.3228   47.0228 H   0  0  0  0  0  0  0  0  0  0  0  0
  1  2  1  0
  2  3  1  0
  2  4  1  0
  4  5  2  0
  4  6  2  0
  4  7  1  0
  7  8  1  0
  8  9  2  0
  8 10  1  0
 10 11  1  0
 11 12  2  0
 12 13  1  0
 13 14  2  0
 14 15  1  0
 15 16  2  0
 16 17  1  0
 17 18  1  0
 18 19  2  0
 18 20  2  0
 18 21  1  0
 21 22  2  3
 22 23  1  0
 23 24  2  0
 24 25  1  0
 25 26  1  0
 25 27  2  0
 27 28  1  0
 17 29  2  0
 29 30  1  0
 30 31  2  0
 31 11  1  0
 31 15  1  0
 28 22  1  0
  1 32  1  0
  1 33  1  0
  1 34  1  0
  3 35  1  0
  3 36  1  0
  3 37  1  0
 10 38  1  0
 12 39  1  0
 13 40  1  0
 14 41  1  0
 16 42  1  0
 23 43  1  0
 24 44  1  0
 27 45  1  0
 29 46  1  0
 30 47  1  0
M  CHG  2   7  -1  28  -1
M  END
>  <UniqueID>  (98) 
87

>  <SMILES>  (98) 
CN(C)S(=O)(=O)[N-]C(=O)Nc1cccc2cc(S(=O)(=O)N=c3ccc(F)c[n-]3)ccc12

>  <Energy>  (98) 
62.041748651080674

>  <Genealogy>  (98) 
CN(C)S(=O)(=O)[N-]C(=O)Nc1cccc2cc(S(=O)(=O)N=c3ccc(F)c[n-]3)ccc12 (protonated)
CN(C)S(=O)(=O)[N-]C(=O)Nc1cccc2cc(S(=O)(=O)N=c3ccc(F)c[n-]3)ccc12 (3D coordinates assigned)
CN(C)S(=O)(=O)[N-]C(=O)Nc1cccc2cc(S(=O)(=O)N=c3ccc(F)c[n-]3)ccc12 (optimized conformer: 62.041748651080674 kcal/mol)

>  <smiles>  (98) 
CN(C)S(=O)(=O)NC(=O)Nc1cccc2cc(S(=O)(=O)N=c3ccc(F)c[nH]3)ccc12

>  <score_type>  (98) 
oracle

>  <origin>  (98) 
adg

>  <m_score__min__energy>  (98) 
-12.65

>  <m_primary>  (98) 
energy

$$$$
