0:0
     RDKit          3D

 62 65  0  0  0  0  0  0  0  0999 V2000
   60.6510   34.6000   46.9570 C   0  0  0  0  0  0  0  0  0  0  0  0
   61.7480   33.5480   46.9260 C   0  0  0  0  0  0  0  0  0  0  0  0
   62.3390   33.4030   48.2140 O   0  0  0  0  0  0  0  0  0  0  0  0
   63.7110   33.2320   48.4200 C   0  0  0  0  0  0  0  0  0  0  0  0
   64.5230   33.4530   47.4790 O   0  0  0  0  0  0  0  0  0  0  0  0
   64.1880   32.8060   49.7090 N   0  0  0  0  0  0  0  0  0  0  0  0
   63.2140   32.5930   50.7890 C   0  0  0  0  0  0  0  0  0  0  0  0
   63.8890   32.0730   52.0670 C   0  0  0  0  0  0  0  0  0  0  0  0
   64.8610   30.9240   51.7510 C   0  0  0  0  0  0  0  0  0  0  0  0
   64.0940   29.7660   51.2900 N   0  0  0  0  0  0  0  0  0  0  0  0
   62.6910   29.5130   51.4580 C   0  0  0  0  0  0  0  0  0  0  0  0
   62.2760   29.2240   52.6110 O   0  0  0  0  0  0  0  0  0  0  0  0
   61.7160   29.5600   50.3440 C   0  0  0  0  0  0  0  0  0  0  0  0
   61.2880   30.7110   49.7040 C   0  0  0  0  0  0  0  0  0  0  0  0
   60.3780   30.2690   48.7630 C   0  0  0  0  0  0  0  0  0  0  0  0
   59.5820   31.1490   47.8810 C   0  0  0  0  0  0  0  0  0  0  0  0
   58.7710   32.1650   48.4170 C   0  0  0  0  0  0  0  0  0  0  0  0
   58.0230   32.9890   47.5740 C   0  0  0  0  0  0  0  0  0  0  0  0
   58.0890   32.8190   46.1880 C   0  0  0  0  0  0  0  0  0  0  0  0
   57.0770   33.9490   45.0360 Br  0  0  0  0  0  0  0  0  0  0  0  0
   58.9060   31.8240   45.6460 C   0  0  0  0  0  0  0  0  0  0  0  0
   59.6560   30.9970   46.4860 C   0  0  0  0  0  0  0  0  0  0  0  0
   60.2920   28.9200   48.8480 N   0  0  0  0  0  0  0  0  0  0  0  0
   59.5440   28.0200   48.0150 C   0  0  0  0  0  0  0  0  0  0  0  0
   60.1730   26.8900   47.4730 C   0  0  0  0  0  0  0  0  0  0  0  0
   59.4670   26.0120   46.6470 C   0  0  0  0  0  0  0  0  0  0  0  0
   58.1180   26.2590   46.3340 C   0  0  0  0  0  0  0  0  0  0  0  0
   57.3580   25.3780   45.4880 N   0  0  0  0  0  0  0  0  0  0  0  0
   55.7140   24.9190   45.7960 S   0  0  0  0  0  0  0  0  0  0  0  0
   54.7300   26.3370   45.9560 N   0  0  0  0  0  0  0  0  0  0  0  0
   55.6420   24.0920   47.0530 O   0  0  0  0  0  0  0  0  0  0  0  0
   55.2070   24.0990   44.6390 O   0  0  0  0  0  0  0  0  0  0  0  0
   57.4980   27.4030   46.8630 C   0  0  0  0  0  0  0  0  0  0  0  0
   58.2060   28.2820   47.6870 C   0  0  0  0  0  0  0  0  0  0  0  0
   61.0970   28.4910   49.8100 N   0  0  0  0  0  0  0  0  0  0  0  0
   65.9230   31.3360   50.6950 C   0  0  0  0  0  0  0  0  0  0  0  0
   65.6260   32.6690   49.9870 C   0  0  0  0  0  0  0  0  0  0  0  0
   60.4017   34.8391   48.0014 H   0  0  0  0  0  0  0  0  0  0  0  0
   61.0004   35.5093   46.4460 H   0  0  0  0  0  0  0  0  0  0  0  0
   59.7571   34.2128   46.4460 H   0  0  0  0  0  0  0  0  0  0  0  0
   61.3168   32.5849   46.6154 H   0  0  0  0  0  0  0  0  0  0  0  0
   62.5236   33.8647   46.2131 H   0  0  0  0  0  0  0  0  0  0  0  0
   62.7147   33.5474   51.0124 H   0  0  0  0  0  0  0  0  0  0  0  0
   62.4880   31.8381   50.4527 H   0  0  0  0  0  0  0  0  0  0  0  0
   64.4463   32.8955   52.5392 H   0  0  0  0  0  0  0  0  0  0  0  0
   63.1096   31.6950   52.7450 H   0  0  0  0  0  0  0  0  0  0  0  0
   65.4103   30.6669   52.6687 H   0  0  0  0  0  0  0  0  0  0  0  0
   61.6025   31.7465   49.9009 H   0  0  0  0  0  0  0  0  0  0  0  0
   58.7257   32.3113   49.5063 H   0  0  0  0  0  0  0  0  0  0  0  0
   57.3807   33.7732   48.0011 H   0  0  0  0  0  0  0  0  0  0  0  0
   58.9590   31.6913   44.5553 H   0  0  0  0  0  0  0  0  0  0  0  0
   60.3074   30.2234   46.0534 H   0  0  0  0  0  0  0  0  0  0  0  0
   61.2312   26.6933   47.7001 H   0  0  0  0  0  0  0  0  0  0  0  0
   59.9689   25.1223   46.2390 H   0  0  0  0  0  0  0  0  0  0  0  0
   57.8180   24.9580   44.6490 H   0  0  0  0  0  0  0  0  0  0  0  0
   55.1660   27.0870   45.3700 H   0  0  0  0  0  0  0  0  0  0  0  0
   56.4438   27.6092   46.6261 H   0  0  0  0  0  0  0  0  0  0  0  0
   57.7119   29.1828   48.0798 H   0  0  0  0  0  0  0  0  0  0  0  0
   66.8960   31.4235   51.2006 H   0  0  0  0  0  0  0  0  0  0  0  0
   65.9141   30.5573   49.9181 H   0  0  0  0  0  0  0  0  0  0  0  0
   65.9489   33.4994   50.6322 H   0  0  0  0  0  0  0  0  0  0  0  0
   66.1723   32.6896   49.0325 H   0  0  0  0  0  0  0  0  0  0  0  0
  1  2  1  0
  2  3  1  0
  3  4  1  0
  4  5  2  0
  4  6  1  0
  6  7  1  0
  7  8  1  0
  8  9  1  0
  9 10  1  0
 10 11  1  0
 11 12  2  0
 11 13  1  0
 13 14  1  0
 14 15  2  0
 15 16  1  0
 16 17  2  0
 17 18  1  0
 18 19  2  0
 19 20  1  0
 19 21  1  0
 21 22  2  0
 15 23  1  0
 23 24  1  0
 24 25  2  0
 25 26  1  0
 26 27  2  0
 27 28  1  0
 28 29  1  0
 29 30  1  0
 29 31  2  0
 29 32  2  0
 27 33  1  0
 33 34  2  0
 23 35  1  0
  9 36  1  0
 36 37  1  0
 37  6  1  0
 35 13  2  0
 22 16  1  0
 34 24  1  0
  1 38  1  0
  1 39  1  0
  1 40  1  0
  2 41  1  0
  2 42  1  0
  7 43  1  0
  7 44  1  0
  8 45  1  0
  8 46  1  0
  9 47  1  0
 14 48  1  0
 17 49  1  0
 18 50  1  0
 21 51  1  0
 22 52  1  0
 25 53  1  0
 26 54  1  0
 28 55  1  0
 30 56  1  0
 33 57  1  0
 34 58  1  0
 36 59  1  0
 36 60  1  0
 37 61  1  0
 37 62  1  0
M  CHG  2  10  -1  30  -1
M  END
>  <UniqueID>  (1) 
1

>  <SMILES>  (1) 
CCOC(=O)N1CCC([N-]C(=O)c2cc(-c3ccc(Br)cc3)n(-c3ccc(NS([NH-])(=O)=O)cc3)n2)CC1

>  <Energy>  (1) 
102.11689156066349

>  <Genealogy>  (1) 
CCOC(=O)N1CCC([N-]C(=O)c2cc(-c3ccc(Br)cc3)n(-c3ccc(NS([NH-])(=O)=O)cc3)n2)CC1 (protonated)
CCOC(=O)N1CCC([N-]C(=O)c2cc(-c3ccc(Br)cc3)n(-c3ccc(NS([NH-])(=O)=O)cc3)n2)CC1 (3D coordinates assigned)
CCOC(=O)N1CCC([N-]C(=O)c2cc(-c3ccc(Br)cc3)n(-c3ccc(NS([NH-])(=O)=O)cc3)n2)CC1 (nonaromatic ring conformer: 102.11689156066349 kcal/mol)

>  <smiles>  (1) 
CCOC(=O)N1CCC(NC(=O)c2cc(-c3ccc(Br)cc3)n(-c3ccc(NS(N)(=O)=O)cc3)n2)CC1

>  <score_type>  (1) 
oracle

>  <origin>  (1) 
adg

>  <m_score__min__energy>  (1) 
-13.42

>  <m_primary>  (1) 
energy

$$$$
1:0
     RDKit          3D

 40 42  0  0  0  0  0  0  0  0999 V2000
   63.7690   33.8540   47.3060 C   0  0  0  0  0  0  0  0  0  0  0  0
   62.4620   33.1290   47.1840 C   0  0  0  0  0  0  0  0  0  0  0  0
   62.3590   31.7870   47.5770 C   0  0  0  0  0  0  0  0  0  0  0  0
   61.1320   31.1210   47.4930 C   0  0  0  0  0  0  0  0  0  0  0  0
   59.9910   31.7890   47.0240 C   0  0  0  0  0  0  0  0  0  0  0  0
   58.6800   31.0550   46.8990 C   0  0  0  0  0  0  0  0  0  0  0  0
   58.4120   30.7060   45.4910 N   0  0  0  0  0  0  0  0  0  0  0  0
   57.3940   31.4170   44.7550 C   0  0  0  0  0  0  0  0  0  0  0  0
   56.9260   32.5050   45.1880 O   0  0  0  0  0  0  0  0  0  0  0  0
   56.9120   30.8880   43.4280 C   0  0  0  0  0  0  0  0  0  0  0  0
   56.8710   29.3400   43.3570 C   0  0  0  0  0  0  0  0  0  0  0  0
   57.7030   28.6210   44.4490 C   0  0  1  0  0  0  0  0  0  0  0  0
   58.1410   27.2190   44.0040 C   0  0  0  0  0  0  0  0  0  0  0  0
   58.8520   26.5090   45.1610 C   0  0  0  0  0  0  0  0  0  0  0  0
   59.9340   27.3630   45.7700 C   0  0  0  0  0  0  0  0  0  0  0  0
   59.9250   28.7050   45.6980 C   0  0  0  0  0  0  0  0  0  0  0  0
   58.9230   29.4750   44.8530 C   0  0  2  0  0  0  0  0  0  0  0  0
   60.0900   33.1420   46.6580 C   0  0  0  0  0  0  0  0  0  0  0  0
   61.3170   33.8080   46.7410 C   0  0  0  0  0  0  0  0  0  0  0  0
   64.0148   33.9903   48.3695 H   0  0  0  0  0  0  0  0  0  0  0  0
   64.5611   33.2663   46.8190 H   0  0  0  0  0  0  0  0  0  0  0  0
   63.6898   34.8371   46.8190 H   0  0  0  0  0  0  0  0  0  0  0  0
   63.2462   31.2562   47.9526 H   0  0  0  0  0  0  0  0  0  0  0  0
   61.0612   30.0662   47.7968 H   0  0  0  0  0  0  0  0  0  0  0  0
   58.7233   30.1333   47.4979 H   0  0  0  0  0  0  0  0  0  0  0  0
   57.8724   31.7076   47.2623 H   0  0  0  0  0  0  0  0  0  0  0  0
   55.8969   31.2717   43.2483 H   0  0  0  0  0  0  0  0  0  0  0  0
   57.6279   31.2279   42.6651 H   0  0  0  0  0  0  0  0  0  0  0  0
   55.8235   29.0197   43.4575 H   0  0  0  0  0  0  0  0  0  0  0  0
   57.3173   29.0607   42.3912 H   0  0  0  0  0  0  0  0  0  0  0  0
   57.0553   28.4962   45.3293 H   0  0  0  0  0  0  0  0  0  0  0  0
   57.2565   26.6369   43.7060 H   0  0  0  0  0  0  0  0  0  0  0  0
   58.8302   27.3060   43.1511 H   0  0  0  0  0  0  0  0  0  0  0  0
   58.1115   26.2672   45.9377 H   0  0  0  0  0  0  0  0  0  0  0  0
   59.3230   25.5986   44.7619 H   0  0  0  0  0  0  0  0  0  0  0  0
   60.7646   26.8681   46.2946 H   0  0  0  0  0  0  0  0  0  0  0  0
   60.6732   29.2692   46.2740 H   0  0  0  0  0  0  0  0  0  0  0  0
   59.5078   29.7530   43.9638 H   0  0  0  0  0  0  0  0  0  0  0  0
   59.1981   33.6800   46.3045 H   0  0  0  0  0  0  0  0  0  0  0  0
   61.3846   34.8687   46.4577 H   0  0  0  0  0  0  0  0  0  0  0  0
  1  2  1  0
  2  3  2  0
  3  4  1  0
  4  5  2  0
  5  6  1  0
  6  7  1  0
  7  8  1  0
  8  9  2  0
  8 10  1  0
 10 11  1  0
 11 12  1  0
 12 13  1  0
 13 14  1  0
 14 15  1  0
 15 16  2  0
 16 17  1  0
  5 18  1  0
 18 19  2  0
 19  2  1  0
 17  7  1  0
 17 12  1  0
  1 20  1  0
  1 21  1  0
  1 22  1  0
  3 23  1  0
  4 24  1  0
  6 25  1  0
  6 26  1  0
 10 27  1  0
 10 28  1  0
 11 29  1  0
 11 30  1  0
 12 31  1  1
 13 32  1  0
 13 33  1  0
 14 34  1  0
 14 35  1  0
 15 36  1  0
 16 37  1  0
 17 38  1  6
 18 39  1  0
 19 40  1  0
M  END
>  <UniqueID>  (2) 
2

>  <SMILES>  (2) 
Cc1ccc(CN2C(=O)CC[C@H]3CCC=C[C@@H]32)cc1

>  <Energy>  (2) 
44.94521803082633

>  <Genealogy>  (2) 
Cc1ccc(CN2C(=O)CC[C@H]3CCC=C[C@@H]32)cc1 (chirality)
Cc1ccc(CN2C(=O)CC[C@H]3CCC=C[C@@H]32)cc1 (3D coordinates assigned)
Cc1ccc(CN2C(=O)CC[C@H]3CCC=C[C@@H]32)cc1 (nonaromatic ring conformer: 44.94521803082633 kcal/mol)

>  <smiles>  (2) 
Cc1ccc(CN2C(=O)CCC3CCC=CC32)cc1

>  <score_type>  (2) 
oracle

>  <origin>  (2) 
adg

>  <m_score__min__energy>  (2) 
-7.29

>  <m_primary>  (2) 
energy

$$$$
2:0
     RDKit          3D

 47 49  0  0  0  0  0  0  0  0999 V2000
   51.7260   23.8290   44.6280 C   0  0  0  0  0  0  0  0  0  0  0  0
   52.8020   22.9840   45.0220 O   0  0  0  0  0  0  0  0  0  0  0  0
   53.9300   23.4170   45.7350 C   0  0  0  0  0  0  0  0  0  0  0  0
   54.3870   22.7650   46.8950 C   0  0  0  0  0  0  0  0  0  0  0  0
   55.5270   23.2250   47.5580 C   0  0  0  0  0  0  0  0  0  0  0  0
   56.2230   24.3340   47.0700 C   0  0  0  0  0  0  0  0  0  0  0  0
   55.7740   25.0010   45.9210 C   0  0  0  0  0  0  0  0  0  0  0  0
   56.5700   26.1470   45.3570 C   0  0  0  0  0  0  0  0  0  0  0  0
   55.9020   27.4120   45.6450 N   0  0  0  0  0  0  0  0  0  0  0  0
   56.3860   28.6750   45.1740 C   0  0  0  0  0  0  0  0  0  0  0  0
   55.5880   29.5020   44.6580 O   0  0  0  0  0  0  0  0  0  0  0  0
   57.8160   29.0230   45.3100 C   0  0  0  0  0  0  0  0  0  0  0  0
   58.7710   27.9960   45.3970 C   0  0  0  0  0  0  0  0  0  0  0  0
   60.1170   28.2980   45.6160 C   0  0  0  0  0  0  0  0  0  0  0  0
   60.5250   29.6260   45.7470 C   0  0  0  0  0  0  0  0  0  0  0  0
   59.5910   30.6590   45.6420 C   0  0  0  0  0  0  0  0  0  0  0  0
   58.2370   30.3690   45.4150 C   0  0  0  0  0  0  0  0  0  0  0  0
   57.3170   31.4420   45.1820 N   0  0  0  0  0  0  0  0  0  0  0  0
   57.8160   33.0980   45.2330 S   0  0  0  0  0  0  0  0  0  0  0  0
   58.7110   33.4080   44.0640 O   0  0  0  0  0  0  0  0  0  0  0  0
   56.6090   33.9920   45.1660 O   0  0  0  0  0  0  0  0  0  0  0  0
   58.6810   33.3680   46.7430 C   0  0  0  0  0  0  0  0  0  0  0  0
   58.3010   32.6960   47.9140 C   0  0  0  0  0  0  0  0  0  0  0  0
   58.9660   32.9540   49.1160 C   0  0  0  0  0  0  0  0  0  0  0  0
   60.0100   33.8850   49.1550 C   0  0  0  0  0  0  0  0  0  0  0  0
   60.3880   34.5620   47.9920 C   0  0  0  0  0  0  0  0  0  0  0  0
   59.7230   34.3070   46.7880 C   0  0  0  0  0  0  0  0  0  0  0  0
   54.6240   24.5370   45.2610 C   0  0  0  0  0  0  0  0  0  0  0  0
   51.2232   24.2239   45.5231 H   0  0  0  0  0  0  0  0  0  0  0  0
   52.1165   24.6644   44.0282 H   0  0  0  0  0  0  0  0  0  0  0  0
   51.0070   23.2516   44.0282 H   0  0  0  0  0  0  0  0  0  0  0  0
   53.8444   21.8896   47.2813 H   0  0  0  0  0  0  0  0  0  0  0  0
   55.8777   22.7131   48.4663 H   0  0  0  0  0  0  0  0  0  0  0  0
   57.1269   24.6853   47.5892 H   0  0  0  0  0  0  0  0  0  0  0  0
   57.5716   26.1528   45.8118 H   0  0  0  0  0  0  0  0  0  0  0  0
   56.6542   26.0246   44.2671 H   0  0  0  0  0  0  0  0  0  0  0  0
   58.4565   26.9472   45.2919 H   0  0  0  0  0  0  0  0  0  0  0  0
   60.8571   27.4872   45.6854 H   0  0  0  0  0  0  0  0  0  0  0  0
   61.5837   29.8595   45.9332 H   0  0  0  0  0  0  0  0  0  0  0  0
   59.9183   31.7048   45.7377 H   0  0  0  0  0  0  0  0  0  0  0  0
   56.2920   31.2480   45.2330 H   0  0  0  0  0  0  0  0  0  0  0  0
   57.4791   31.9655   47.8864 H   0  0  0  0  0  0  0  0  0  0  0  0
   58.6682   32.4243   50.0329 H   0  0  0  0  0  0  0  0  0  0  0  0
   60.5336   34.0842   50.1017 H   0  0  0  0  0  0  0  0  0  0  0  0
   61.2078   35.2948   48.0235 H   0  0  0  0  0  0  0  0  0  0  0  0
   60.0176   34.8438   45.8742 H   0  0  0  0  0  0  0  0  0  0  0  0
   54.2648   25.0592   44.3620 H   0  0  0  0  0  0  0  0  0  0  0  0
  1  2  1  0
  2  3  1  0
  3  4  2  0
  4  5  1  0
  5  6  2  0
  6  7  1  0
  7  8  1  0
  8  9  1  0
  9 10  1  0
 10 11  2  0
 10 12  1  0
 12 13  2  0
 13 14  1  0
 14 15  2  0
 15 16  1  0
 16 17  2  0
 17 18  1  0
 18 19  1  0
 19 20  2  0
 19 21  2  0
 19 22  1  0
 22 23  2  0
 23 24  1  0
 24 25  2  0
 25 26  1  0
 26 27  2  0
  7 28  2  0
 28  3  1  0
 17 12  1  0
 27 22  1  0
  1 29  1  0
  1 30  1  0
  1 31  1  0
  4 32  1  0
  5 33  1  0
  6 34  1  0
  8 35  1  0
  8 36  1  0
 13 37  1  0
 14 38  1  0
 15 39  1  0
 16 40  1  0
 18 41  1  0
 23 42  1  0
 24 43  1  0
 25 44  1  0
 26 45  1  0
 27 46  1  0
 28 47  1  0
M  CHG  1   9  -1
M  END
>  <UniqueID>  (3) 
3

>  <SMILES>  (3) 
COc1cccc(C[N-]C(=O)c2ccccc2NS(=O)(=O)c2ccccc2)c1

>  <Energy>  (3) 
54.86433408216262

>  <Genealogy>  (3) 
COc1cccc(C[N-]C(=O)c2ccccc2NS(=O)(=O)c2ccccc2)c1 (protonated)
COc1cccc(C[N-]C(=O)c2ccccc2NS(=O)(=O)c2ccccc2)c1 (3D coordinates assigned)
COc1cccc(C[N-]C(=O)c2ccccc2NS(=O)(=O)c2ccccc2)c1 (optimized conformer: 54.86433408216262 kcal/mol)

>  <smiles>  (3) 
COc1cccc(CNC(=O)c2ccccc2NS(=O)(=O)c2ccccc2)c1

>  <score_type>  (3) 
oracle

>  <origin>  (3) 
adg

>  <m_score__min__energy>  (3) 
-11.24

>  <m_primary>  (3) 
energy

$$$$
3:0
     RDKit          3D

 61 64  0  0  0  0  0  0  0  0999 V2000
   58.2783   32.3617   44.9543 H   0  0  0  0  0  0  0  0  0  0  0  0
   58.1060   31.3200   45.2630 C   0  0  0  0  0  0  0  0  0  0  0  0
   58.5150   30.8720   46.5300 C   0  0  0  0  0  0  0  0  0  0  0  0
   59.1680   31.7610   47.4650 N   0  0  0  0  0  0  0  0  0  0  0  0
   60.5360   32.1600   47.2580 C   0  0  0  0  0  0  0  0  0  0  0  0
   61.5640   31.2610   47.5860 C   0  0  0  0  0  0  0  0  0  0  0  0
   61.3123   30.2441   47.9216 H   0  0  0  0  0  0  0  0  0  0  0  0
   62.9010   31.6460   47.4900 C   0  0  0  0  0  0  0  0  0  0  0  0
   63.6983   30.9362   47.7555 H   0  0  0  0  0  0  0  0  0  0  0  0
   63.2270   32.9320   47.0570 C   0  0  0  0  0  0  0  0  0  0  0  0
   64.2814   33.2387   46.9929 H   0  0  0  0  0  0  0  0  0  0  0  0
   62.2180   33.8300   46.7050 C   0  0  0  0  0  0  0  0  0  0  0  0
   62.4845   34.8401   46.3606 H   0  0  0  0  0  0  0  0  0  0  0  0
   60.8630   33.4570   46.7860 C   0  0  0  0  0  0  0  0  0  0  0  0
   59.8420   34.3770   46.3550 N   0  0  0  0  0  0  0  0  0  0  0  0
   59.4580   35.2940   47.1130 O   0  0  0  0  0  0  0  0  0  0  0  0
   59.3870   34.3600   45.0570 O   0  0  0  0  0  0  0  0  0  0  0  0
   58.5230   32.0950   48.7440 C   0  0  0  0  0  0  0  0  0  0  0  0
   58.9447   33.0378   49.1227 H   0  0  0  0  0  0  0  0  0  0  0  0
   57.4411   32.1944   48.5721 H   0  0  0  0  0  0  0  0  0  0  0  0
   58.7490   30.9920   49.7860 C   0  0  0  0  0  0  0  0  0  0  0  0
   57.9540   30.2374   49.6930 H   0  0  0  0  0  0  0  0  0  0  0  0
   59.7316   30.5303   49.6089 H   0  0  0  0  0  0  0  0  0  0  0  0
   58.7250   31.5600   51.1540 N   0  0  0  0  0  0  0  0  0  0  0  0
   59.1770   30.5930   52.1690 C   0  0  0  0  0  0  0  0  0  0  0  0
   60.1241   30.1432   51.8363 H   0  0  0  0  0  0  0  0  0  0  0  0
   59.3089   31.1298   53.1201 H   0  0  0  0  0  0  0  0  0  0  0  0
   58.1380   29.4690   52.3890 C   0  0  0  0  0  0  0  0  0  0  0  0
   58.4996   28.5562   51.8930 H   0  0  0  0  0  0  0  0  0  0  0  0
   58.0282   29.3321   53.4749 H   0  0  0  0  0  0  0  0  0  0  0  0
   56.8580   29.7860   51.8720 O   0  0  0  0  0  0  0  0  0  0  0  0
   56.5020   31.1040   52.2330 C   0  0  0  0  0  0  0  0  0  0  0  0
   55.4539   31.2850   51.9522 H   0  0  0  0  0  0  0  0  0  0  0  0
   56.6311   31.2209   53.3191 H   0  0  0  0  0  0  0  0  0  0  0  0
   57.4030   32.1270   51.5130 C   0  0  0  0  0  0  0  0  0  0  0  0
   56.8982   32.4568   50.5930 H   0  0  0  0  0  0  0  0  0  0  0  0
   57.5738   32.9675   52.2018 H   0  0  0  0  0  0  0  0  0  0  0  0
   58.2740   29.5770   46.8790 N   0  0  0  0  0  0  0  0  0  0  0  0
   57.6700   28.7060   46.0300 C   0  0  0  0  0  0  0  0  0  0  0  0
   57.4560   27.4840   46.4250 N   0  0  0  0  0  0  0  0  0  0  0  0
   57.0490   26.3650   45.6170 C   0  0  0  0  0  0  0  0  0  0  0  0
   55.9470   25.6080   46.0310 C   0  0  0  0  0  0  0  0  0  0  0  0
   55.4006   25.8940   46.9419 H   0  0  0  0  0  0  0  0  0  0  0  0
   55.5340   24.4910   45.2970 C   0  0  0  0  0  0  0  0  0  0  0  0
   54.6573   23.9129   45.6245 H   0  0  0  0  0  0  0  0  0  0  0  0
   56.2370   24.1050   44.1410 C   0  0  0  0  0  0  0  0  0  0  0  0
   55.8610   22.9970   43.3670 O   0  0  0  0  0  0  0  0  0  0  0  0
   56.7410   21.9430   42.9890 C   0  0  0  0  0  0  0  0  0  0  0  0
   57.1440   21.4603   43.8916 H   0  0  0  0  0  0  0  0  0  0  0  0
   56.1899   21.2017   42.3917 H   0  0  0  0  0  0  0  0  0  0  0  0
   57.5688   22.3529   42.3917 H   0  0  0  0  0  0  0  0  0  0  0  0
   57.3600   24.8410   43.7460 C   0  0  0  0  0  0  0  0  0  0  0  0
   57.9217   24.5401   42.8493 H   0  0  0  0  0  0  0  0  0  0  0  0
   57.7740   25.9560   44.4820 C   0  0  0  0  0  0  0  0  0  0  0  0
   58.6693   26.5152   44.1727 H   0  0  0  0  0  0  0  0  0  0  0  0
   57.2660   29.1370   44.8060 N   0  0  0  0  0  0  0  0  0  0  0  0
   57.4760   30.4170   44.4020 C   0  0  0  0  0  0  0  0  0  0  0  0
   57.0010   30.8620   43.0560 C   0  0  0  0  0  0  0  0  0  0  0  0
   56.2031   31.6095   43.1774 H   0  0  0  0  0  0  0  0  0  0  0  0
   57.8392   31.3074   42.5002 H   0  0  0  0  0  0  0  0  0  0  0  0
   56.6111   29.9965   42.5002 H   0  0  0  0  0  0  0  0  0  0  0  0
  1  2  1  0
  2  3  1  0
  3  4  1  0
  4  5  1  0
  5  6  2  0
  6  7  1  0
  6  8  1  0
  8  9  1  0
  8 10  2  0
 10 11  1  0
 10 12  1  0
 12 13  1  0
 12 14  2  0
 14 15  1  0
 15 16  2  0
 15 17  1  0
  4 18  1  0
 18 19  1  0
 18 20  1  0
 18 21  1  0
 21 22  1  0
 21 23  1  0
 21 24  1  0
 24 25  1  0
 25 26  1  0
 25 27  1  0
 25 28  1  0
 28 29  1  0
 28 30  1  0
 28 31  1  0
 31 32  1  0
 32 33  1  0
 32 34  1  0
 32 35  1  0
 35 36  1  0
 35 37  1  0
  3 38  2  0
 38 39  1  0
 39 40  2  0
 40 41  1  0
 41 42  2  0
 42 43  1  0
 42 44  1  0
 44 45  1  0
 44 46  2  0
 46 47  1  0
 47 48  1  0
 48 49  1  0
 48 50  1  0
 48 51  1  0
 46 52  1  0
 52 53  1  0
 52 54  2  0
 54 55  1  0
 39 56  1  0
 56 57  1  0
 57 58  1  0
 58 59  1  0
 58 60  1  0
 58 61  1  0
 57  2  2  0
 14  5  1  0
 35 24  1  0
 54 41  1  0
M  CHG  3  15   1  17  -1  56  -1
M  END
>  <UniqueID>  (4) 
4

>  <SMILES>  (4) 
COc1ccc(/N=c2/nc(N(CCN3CCOCC3)c3ccccc3[N+](=O)[O-])cc(C)[n-]2)cc1

>  <Energy>  (4) 
88.95027416125322

>  <Genealogy>  (4) 
COc1ccc(N=c2nc(N(CCN3CCOCC3)c3ccccc3[N+](=O)[O-])cc(C)[n-]2)cc1 (protonated)
COc1ccc(/N=c2/nc(N(CCN3CCOCC3)c3ccccc3[N+](=O)[O-])cc(C)[n-]2)cc1 (cis-trans isomerization)
COc1ccc(/N=c2/nc(N(CCN3CCOCC3)c3ccccc3[N+](=O)[O-])cc(C)[n-]2)cc1 (3D coordinates assigned)
COc1ccc(/N=c2/nc(N(CCN3CCOCC3)c3ccccc3[N+](=O)[O-])cc(C)[n-]2)cc1 (nonaromatic ring conformer: 88.95027416125322 kcal/mol)

>  <smiles>  (4) 
COc1ccc(N=c2nc(N(CCN3CCOCC3)c3ccccc3[N+](=O)[O-])cc(C)[nH]2)cc1

>  <score_type>  (4) 
oracle

>  <origin>  (4) 
adg

>  <m_score__min__energy>  (4) 
-10.210000000000001

>  <m_primary>  (4) 
energy

$$$$
4:0
     RDKit          3D

 32 34  0  0  0  0  0  0  0  0999 V2000
   56.6940   29.6830   45.4020 H   0  0  0  0  0  0  0  0  0  0  0  0
   57.0920   30.6070   45.2880 O   0  0  0  0  0  0  0  0  0  0  0  0
   58.1610   31.0920   46.0500 C   0  0  0  0  0  0  0  0  0  0  0  0
   58.8600   30.2580   46.9590 C   0  0  0  0  0  0  0  0  0  0  0  0
   58.4840   28.8090   47.1650 C   0  0  0  0  0  0  0  0  0  0  0  0
   57.3963   28.6994   47.0432 H   0  0  0  0  0  0  0  0  0  0  0  0
   58.7922   28.5090   48.1774 H   0  0  0  0  0  0  0  0  0  0  0  0
   59.1800   27.9230   46.1730 C   0  0  0  0  0  0  0  0  0  0  0  0
   60.2782   27.9392   46.1126 H   0  0  0  0  0  0  0  0  0  0  0  0
   58.4900   27.1140   45.3610 C   0  0  0  0  0  0  0  0  0  0  0  0
   58.9423   26.8490   44.3939 H   0  0  0  0  0  0  0  0  0  0  0  0
   57.1600   26.5530   45.6780 C   0  0  0  0  0  0  0  0  0  0  0  0
   56.9960   25.2750   46.0650 N   0  0  0  0  0  0  0  0  0  0  0  0
   55.6630   25.1600   46.2420 C   0  0  0  0  0  0  0  0  0  0  0  0
   55.1180   24.0890   46.6140 O   0  0  0  0  0  0  0  0  0  0  0  0
   54.9620   26.2820   45.9850 N   0  0  0  0  0  0  0  0  0  0  0  0
   55.9160   27.1560   45.6260 C   0  0  0  0  0  0  0  0  0  0  0  0
   55.6400   28.4630   45.2470 O   0  0  0  0  0  0  0  0  0  0  0  0
   59.9120   30.7950   47.7180 C   0  0  0  0  0  0  0  0  0  0  0  0
   60.4469   30.1535   48.4338 H   0  0  0  0  0  0  0  0  0  0  0  0
   60.2880   32.1300   47.5770 C   0  0  0  0  0  0  0  0  0  0  0  0
   61.1178   32.5315   48.1772 H   0  0  0  0  0  0  0  0  0  0  0  0
   59.6150   32.9610   46.6760 C   0  0  0  0  0  0  0  0  0  0  0  0
   59.9940   34.3050   46.5340 C   0  0  0  0  0  0  0  0  0  0  0  0
   60.8259   34.7058   47.1317 H   0  0  0  0  0  0  0  0  0  0  0  0
   59.3190   35.1350   45.6370 C   0  0  0  0  0  0  0  0  0  0  0  0
   59.6203   36.1875   45.5301 H   0  0  0  0  0  0  0  0  0  0  0  0
   58.2620   34.6320   44.8750 C   0  0  0  0  0  0  0  0  0  0  0  0
   57.7338   35.2898   44.1691 H   0  0  0  0  0  0  0  0  0  0  0  0
   57.8730   33.2960   45.0060 C   0  0  0  0  0  0  0  0  0  0  0  0
   57.0385   32.9081   44.4034 H   0  0  0  0  0  0  0  0  0  0  0  0
   58.5430   32.4430   45.9050 C   0  0  0  0  0  0  0  0  0  0  0  0
  1  2  1  0
  2  3  1  0
  3  4  2  0
  4  5  1  0
  5  6  1  0
  5  7  1  0
  5  8  1  0
  8  9  1  0
  8 10  2  0
 10 11  1  0
 10 12  1  0
 12 13  1  0
 13 14  1  0
 14 15  2  0
 14 16  1  0
 16 17  1  0
 17 18  1  0
  4 19  1  0
 19 20  1  0
 19 21  2  0
 21 22  1  0
 21 23  1  0
 23 24  2  0
 24 25  1  0
 24 26  1  0
 26 27  1  0
 26 28  2  0
 28 29  1  0
 28 30  1  0
 30 31  1  0
 30 32  2  0
 32  3  1  0
 17 12  2  0
 32 23  1  0
M  CHG  3  13  -1  16  -1  18  -1
M  END
>  <UniqueID>  (5) 
5

>  <SMILES>  (5) 
O=c1[n-]c([O-])c(/C=C/Cc2ccc3ccccc3c2O)[n-]1

>  <Energy>  (5) 
68.61327663412071

>  <Genealogy>  (5) 
O=c1[n-]c([O-])c(C=CCc2ccc3ccccc3c2O)[n-]1 (protonated)
O=c1[n-]c([O-])c(/C=C/Cc2ccc3ccccc3c2O)[n-]1 (cis-trans isomerization)
O=c1[n-]c([O-])c(/C=C/Cc2ccc3ccccc3c2O)[n-]1 (3D coordinates assigned)
O=c1[n-]c([O-])c(/C=C/Cc2ccc3ccccc3c2O)[n-]1 (optimized conformer: 68.61327663412071 kcal/mol)

>  <smiles>  (5) 
O=c1[nH]c(O)c(C=CCc2ccc3ccccc3c2O)[nH]1

>  <score_type>  (5) 
oracle

>  <origin>  (5) 
adg

>  <m_score__min__energy>  (5) 
-15.57

>  <m_primary>  (5) 
energy

$$$$
5:0
     RDKit          3D

 51 54  0  0  0  0  0  0  0  0999 V2000
   56.8040   21.7940   47.8450 N   0  0  0  0  0  0  0  0  0  0  0  0
   57.0180   22.7690   47.2620 C   0  0  0  0  0  0  0  0  0  0  0  0
   57.2840   23.9820   46.5350 C   0  0  0  0  0  0  0  0  0  0  0  0
   57.5010   25.1820   47.2230 C   0  0  0  0  0  0  0  0  0  0  0  0
   57.7630   26.3600   46.5190 C   0  0  0  0  0  0  0  0  0  0  0  0
   57.8070   26.3550   45.1110 C   0  0  0  0  0  0  0  0  0  0  0  0
   58.0930   27.5970   44.3530 C   0  0  0  0  0  0  0  0  0  0  0  0
   59.2280   27.7510   43.8220 O   0  0  0  0  0  0  0  0  0  0  0  0
   57.0820   28.6020   44.1730 N   0  0  0  0  0  0  0  0  0  0  0  0
   57.3730   29.9780   43.8700 C   0  0  0  0  0  0  0  0  0  0  0  0
   57.0190   30.4960   42.6170 C   0  0  0  0  0  0  0  0  0  0  0  0
   57.2820   31.8310   42.3050 C   0  0  0  0  0  0  0  0  0  0  0  0
   57.8880   32.6670   43.2450 C   0  0  0  0  0  0  0  0  0  0  0  0
   58.2290   32.1770   44.5180 C   0  0  0  0  0  0  0  0  0  0  0  0
   58.8600   33.0680   45.5250 C   0  0  0  0  0  0  0  0  0  0  0  0
   58.3150   34.3340   45.7980 C   0  0  0  0  0  0  0  0  0  0  0  0
   58.9190   35.1740   46.7340 C   0  0  0  0  0  0  0  0  0  0  0  0
   60.0700   34.7650   47.4090 C   0  0  0  0  0  0  0  0  0  0  0  0
   60.6320   33.5000   47.1590 C   0  0  0  0  0  0  0  0  0  0  0  0
   61.8300   33.0750   47.8490 N   0  0  0  0  0  0  0  0  0  0  0  0
   63.1460   33.5440   47.3960 C   0  0  0  0  0  0  0  0  0  0  0  0
   64.1880   33.3880   48.5100 C   0  0  0  0  0  0  0  0  0  0  0  0
   64.2640   32.0000   49.0010 N   0  0  0  0  0  0  0  0  0  0  0  0
   62.9570   31.3250   49.1650 C   0  0  0  0  0  0  0  0  0  0  0  0
   61.7490   32.2690   49.0740 C   0  0  0  0  0  0  0  0  0  0  0  0
   60.0170   32.6590   46.2140 C   0  0  0  0  0  0  0  0  0  0  0  0
   57.9620   30.8300   44.8220 C   0  0  0  0  0  0  0  0  0  0  0  0
   57.5940   25.1420   44.4290 C   0  0  0  0  0  0  0  0  0  0  0  0
   57.3330   23.9660   45.1370 C   0  0  0  0  0  0  0  0  0  0  0  0
   57.4651   25.1973   48.3223 H   0  0  0  0  0  0  0  0  0  0  0  0
   57.9361   27.2975   47.0678 H   0  0  0  0  0  0  0  0  0  0  0  0
   56.0830   28.2950   44.1490 H   0  0  0  0  0  0  0  0  0  0  0  0
   56.5311   29.8469   41.8750 H   0  0  0  0  0  0  0  0  0  0  0  0
   57.0108   32.2259   41.3148 H   0  0  0  0  0  0  0  0  0  0  0  0
   58.0999   33.7154   42.9880 H   0  0  0  0  0  0  0  0  0  0  0  0
   57.4077   34.6644   45.2712 H   0  0  0  0  0  0  0  0  0  0  0  0
   58.4858   36.1637   46.9410 H   0  0  0  0  0  0  0  0  0  0  0  0
   60.5411   35.4367   48.1418 H   0  0  0  0  0  0  0  0  0  0  0  0
   63.4593   32.9531   46.5227 H   0  0  0  0  0  0  0  0  0  0  0  0
   63.0701   34.6082   47.1283 H   0  0  0  0  0  0  0  0  0  0  0  0
   65.1734   33.6814   48.1189 H   0  0  0  0  0  0  0  0  0  0  0  0
   63.8875   34.0310   49.3504 H   0  0  0  0  0  0  0  0  0  0  0  0
   64.8390   31.4440   48.3200 H   0  0  0  0  0  0  0  0  0  0  0  0
   62.8603   30.5631   48.3775 H   0  0  0  0  0  0  0  0  0  0  0  0
   62.9472   30.8933   50.1767 H   0  0  0  0  0  0  0  0  0  0  0  0
   60.8233   31.6750   49.0582 H   0  0  0  0  0  0  0  0  0  0  0  0
   61.7488   32.9388   49.9465 H   0  0  0  0  0  0  0  0  0  0  0  0
   60.4467   31.6671   46.0105 H   0  0  0  0  0  0  0  0  0  0  0  0
   58.2171   30.4375   45.8174 H   0  0  0  0  0  0  0  0  0  0  0  0
   57.6334   25.1198   43.3299 H   0  0  0  0  0  0  0  0  0  0  0  0
   57.1655   23.0245   44.5933 H   0  0  0  0  0  0  0  0  0  0  0  0
  1  2  3  0
  2  3  1  0
  3  4  2  0
  4  5  1  0
  5  6  2  0
  6  7  1  0
  7  8  2  0
  7  9  1  0
  9 10  1  0
 10 11  2  0
 11 12  1  0
 12 13  2  0
 13 14  1  0
 14 15  1  0
 15 16  2  0
 16 17  1  0
 17 18  2  0
 18 19  1  0
 19 20  1  0
 20 21  1  0
 21 22  1  0
 22 23  1  0
 23 24  1  0
 24 25  1  0
 19 26  2  0
 14 27  2  0
  6 28  1  0
 28 29  2  0
 29  3  1  0
 27 10  1  0
 26 15  1  0
 25 20  1  0
  4 30  1  0
  5 31  1  0
  9 32  1  0
 11 33  1  0
 12 34  1  0
 13 35  1  0
 16 36  1  0
 17 37  1  0
 18 38  1  0
 21 39  1  0
 21 40  1  0
 22 41  1  0
 22 42  1  0
 23 43  1  0
 24 44  1  0
 24 45  1  0
 25 46  1  0
 25 47  1  0
 26 48  1  0
 27 49  1  0
 28 50  1  0
 29 51  1  0
M  END
>  <UniqueID>  (6) 
6

>  <SMILES>  (6) 
N#Cc1ccc(C(=O)Nc2cccc(-c3cccc(N4CCNCC4)c3)c2)cc1

>  <Energy>  (6) 
72.39300149289421

>  <Genealogy>  (6) 
N#Cc1ccc(C(=O)Nc2cccc(-c3cccc(N4CCNCC4)c3)c2)cc1 (3D coordinates assigned)
N#Cc1ccc(C(=O)Nc2cccc(-c3cccc(N4CCNCC4)c3)c2)cc1 (nonaromatic ring conformer: 72.39300149289421 kcal/mol)

>  <smiles>  (6) 
N#Cc1ccc(C(=O)Nc2cccc(-c3cccc(N4CCNCC4)c3)c2)cc1

>  <score_type>  (6) 
oracle

>  <origin>  (6) 
adg

>  <m_score__min__energy>  (6) 
-9

>  <m_primary>  (6) 
energy

$$$$
6:0
     RDKit          3D

 36 38  0  0  0  0  0  0  0  0999 V2000
   59.2800   27.2720   48.0830 C   0  0  0  0  0  0  0  0  0  0  0  0
   58.7370   28.3440   47.2670 N   0  0  0  0  0  0  0  0  0  0  0  0
   58.2250   28.4270   46.0230 C   0  0  0  0  0  0  0  0  0  0  0  0
   57.8780   27.7270   44.8830 C   0  0  0  0  0  0  0  0  0  0  0  0
   58.0410   26.3360   44.8190 O   0  0  0  0  0  0  0  0  0  0  0  0
   56.9790   25.3910   44.9260 C   0  0  0  0  0  0  0  0  0  0  0  0
   56.1020   25.7150   46.0940 C   0  0  0  0  0  0  0  0  0  0  0  0
   56.2090   25.0660   47.1670 O   0  0  0  0  0  0  0  0  0  0  0  0
   55.1390   26.7110   45.9850 O   0  0  0  0  0  0  0  0  0  0  0  0
   57.3590   28.5330   43.8250 C   0  0  0  0  0  0  0  0  0  0  0  0
   57.2360   29.9530   43.9760 C   0  0  0  0  0  0  0  0  0  0  0  0
   57.6220   30.5980   45.1800 C   0  0  0  0  0  0  0  0  0  0  0  0
   58.1060   29.7520   46.1600 C   0  0  0  0  0  0  0  0  0  0  0  0
   58.6180   29.6700   47.4040 N   0  0  0  0  0  0  0  0  0  0  0  0
   58.9800   30.6330   48.4310 C   0  0  0  0  0  0  0  0  0  0  0  0
   59.8170   31.7210   47.8230 C   0  0  0  0  0  0  0  0  0  0  0  0
   61.1660   31.8590   48.1860 C   0  0  0  0  0  0  0  0  0  0  0  0
   61.9340   32.9050   47.6620 C   0  0  0  0  0  0  0  0  0  0  0  0
   63.7700   33.0820   48.1570 Br  0  0  0  0  0  0  0  0  0  0  0  0
   61.3550   33.8240   46.7810 C   0  0  0  0  0  0  0  0  0  0  0  0
   60.0070   33.7020   46.4280 C   0  0  0  0  0  0  0  0  0  0  0  0
   59.2130   34.9690   45.2410 Br  0  0  0  0  0  0  0  0  0  0  0  0
   59.2370   32.6570   46.9520 C   0  0  0  0  0  0  0  0  0  0  0  0
   59.1538   27.5211   49.1470 H   0  0  0  0  0  0  0  0  0  0  0  0
   58.7475   26.3357   47.8600 H   0  0  0  0  0  0  0  0  0  0  0  0
   60.3499   27.1474   47.8600 H   0  0  0  0  0  0  0  0  0  0  0  0
   56.3783   25.4163   44.0048 H   0  0  0  0  0  0  0  0  0  0  0  0
   57.4090   24.3891   45.0723 H   0  0  0  0  0  0  0  0  0  0  0  0
   57.0497   28.0583   42.8822 H   0  0  0  0  0  0  0  0  0  0  0  0
   56.8359   30.5527   43.1452 H   0  0  0  0  0  0  0  0  0  0  0  0
   57.5422   31.6859   45.3220 H   0  0  0  0  0  0  0  0  0  0  0  0
   58.0672   31.0700   48.8622 H   0  0  0  0  0  0  0  0  0  0  0  0
   59.5533   30.1277   49.2222 H   0  0  0  0  0  0  0  0  0  0  0  0
   61.6212   31.1421   48.8851 H   0  0  0  0  0  0  0  0  0  0  0  0
   61.9600   34.6433   46.3654 H   0  0  0  0  0  0  0  0  0  0  0  0
   58.1746   32.5689   46.6806 H   0  0  0  0  0  0  0  0  0  0  0  0
  1  2  1  0
  2  3  1  0
  3  4  2  0
  4  5  1  0
  5  6  1  0
  6  7  1  0
  7  8  2  0
  7  9  1  0
  4 10  1  0
 10 11  2  0
 11 12  1  0
 12 13  2  0
 13 14  1  0
 14 15  1  0
 15 16  1  0
 16 17  2  0
 17 18  1  0
 18 19  1  0
 18 20  2  0
 20 21  1  0
 21 22  1  0
 21 23  2  0
 14  2  1  0
 23 16  1  0
 13  3  1  0
  1 24  1  0
  1 25  1  0
  1 26  1  0
  6 27  1  0
  6 28  1  0
 10 29  1  0
 11 30  1  0
 12 31  1  0
 15 32  1  0
 15 33  1  0
 17 34  1  0
 20 35  1  0
 23 36  1  0
M  CHG  1   9  -1
M  END
>  <UniqueID>  (7) 
7

>  <SMILES>  (7) 
Cn1c2c(OCC(=O)[O-])cccc2n1Cc1cc(Br)cc(Br)c1

>  <Energy>  (7) 
44.84734003180048

>  <Genealogy>  (7) 
Cn1c2c(OCC(=O)[O-])cccc2n1Cc1cc(Br)cc(Br)c1 (protonated)
Cn1c2c(OCC(=O)[O-])cccc2n1Cc1cc(Br)cc(Br)c1 (3D coordinates assigned)
Cn1c2c(OCC(=O)[O-])cccc2n1Cc1cc(Br)cc(Br)c1 (optimized conformer: 44.84734003180048 kcal/mol)

>  <smiles>  (7) 
Cn1c2c(OCC(=O)O)cccc2n1Cc1cc(Br)cc(Br)c1

>  <score_type>  (7) 
oracle

>  <origin>  (7) 
adg

>  <m_score__min__energy>  (7) 
-11.029999999999999

>  <m_primary>  (7) 
energy

$$$$
7:0
     RDKit          3D

 53 56  0  0  0  0  0  0  0  0999 V2000
   60.1730   25.9540   48.4210 O   0  0  0  0  0  0  0  0  0  0  0  0
   60.0530   26.0720   47.1710 C   0  0  0  0  0  0  0  0  0  0  0  0
   60.2840   24.9430   46.3160 N   0  0  0  0  0  0  0  0  0  0  0  0
   59.2870   24.1330   45.6780 C   0  0  0  0  0  0  0  0  0  0  0  0
   59.6580   22.8760   45.1880 C   0  0  0  0  0  0  0  0  0  0  0  0
   58.7130   22.0430   44.5810 C   0  0  0  0  0  0  0  0  0  0  0  0
   57.3730   22.4510   44.4670 C   0  0  0  0  0  0  0  0  0  0  0  0
   56.3680   21.5740   43.8280 C   0  0  0  0  0  0  0  0  0  0  0  0
   56.2100   21.5860   42.5780 O   0  0  0  0  0  0  0  0  0  0  0  0
   55.5800   20.7250   44.5980 O   0  0  0  0  0  0  0  0  0  0  0  0
   56.9970   23.7040   44.9810 C   0  0  0  0  0  0  0  0  0  0  0  0
   57.9430   24.5360   45.5880 C   0  0  0  0  0  0  0  0  0  0  0  0
   59.6140   27.3610   46.5800 C   0  0  0  0  0  0  0  0  0  0  0  0
   58.8990   27.3700   45.4330 C   0  0  0  0  0  0  0  0  0  0  0  0
   57.8900   28.4000   45.0910 C   0  0  0  0  0  0  0  0  0  0  0  0
   56.5210   28.1690   45.2710 C   0  0  0  0  0  0  0  0  0  0  0  0
   56.0610   26.9520   45.7620 O   0  0  0  0  0  0  0  0  0  0  0  0
   55.6280   29.1310   44.9450 N   0  0  0  0  0  0  0  0  0  0  0  0
   56.0210   30.3220   44.4280 C   0  0  0  0  0  0  0  0  0  0  0  0
   55.1410   31.1810   44.1480 O   0  0  0  0  0  0  0  0  0  0  0  0
   57.3520   30.5800   44.2120 N   0  0  0  0  0  0  0  0  0  0  0  0
   57.7780   31.8600   43.6080 C   0  0  0  0  0  0  0  0  0  0  0  0
   58.2660   32.8090   44.6720 C   0  0  0  0  0  0  0  0  0  0  0  0
   58.6130   34.1290   44.3390 C   0  0  0  0  0  0  0  0  0  0  0  0
   59.0940   35.0010   45.3210 C   0  0  0  0  0  0  0  0  0  0  0  0
   59.2350   34.5610   46.6410 C   0  0  0  0  0  0  0  0  0  0  0  0
   58.8950   33.2490   46.9790 C   0  0  0  0  0  0  0  0  0  0  0  0
   58.4140   32.3740   46.0000 C   0  0  0  0  0  0  0  0  0  0  0  0
   58.2870   29.6240   44.5290 C   0  0  0  0  0  0  0  0  0  0  0  0
   59.5160   29.8430   44.3320 O   0  0  0  0  0  0  0  0  0  0  0  0
   60.0160   28.6230   47.2520 C   0  0  0  0  0  0  0  0  0  0  0  0
   60.8880   29.5260   46.6180 C   0  0  0  0  0  0  0  0  0  0  0  0
   61.2640   30.7100   47.2590 C   0  0  0  0  0  0  0  0  0  0  0  0
   60.7810   30.9990   48.5380 C   0  0  0  0  0  0  0  0  0  0  0  0
   59.9220   30.1020   49.1790 C   0  0  0  0  0  0  0  0  0  0  0  0
   59.5440   28.9170   48.5420 C   0  0  0  0  0  0  0  0  0  0  0  0
   60.7014   22.5404   45.2810 H   0  0  0  0  0  0  0  0  0  0  0  0
   59.0205   21.0618   44.1901 H   0  0  0  0  0  0  0  0  0  0  0  0
   55.9501   24.0329   44.9052 H   0  0  0  0  0  0  0  0  0  0  0  0
   57.6344   25.5095   45.9967 H   0  0  0  0  0  0  0  0  0  0  0  0
   59.0773   26.5622   44.7080 H   0  0  0  0  0  0  0  0  0  0  0  0
   58.5912   31.6696   42.8922 H   0  0  0  0  0  0  0  0  0  0  0  0
   56.9184   32.3141   43.0933 H   0  0  0  0  0  0  0  0  0  0  0  0
   58.5059   34.4782   43.3014 H   0  0  0  0  0  0  0  0  0  0  0  0
   59.3617   36.0342   45.0548 H   0  0  0  0  0  0  0  0  0  0  0  0
   59.6134   35.2477   47.4126 H   0  0  0  0  0  0  0  0  0  0  0  0
   59.0059   32.9034   48.0174 H   0  0  0  0  0  0  0  0  0  0  0  0
   58.1504   31.3409   46.2705 H   0  0  0  0  0  0  0  0  0  0  0  0
   61.2757   29.2997   45.6138 H   0  0  0  0  0  0  0  0  0  0  0  0
   61.9414   31.4155   46.7556 H   0  0  0  0  0  0  0  0  0  0  0  0
   61.0767   31.9320   49.0401 H   0  0  0  0  0  0  0  0  0  0  0  0
   59.5429   30.3291   50.1863 H   0  0  0  0  0  0  0  0  0  0  0  0
   58.8734   28.2108   49.0534 H   0  0  0  0  0  0  0  0  0  0  0  0
  1  2  2  0
  2  3  1  0
  3  4  1  0
  4  5  2  0
  5  6  1  0
  6  7  2  0
  7  8  1  0
  8  9  2  0
  8 10  1  0
  7 11  1  0
 11 12  2  0
  2 13  1  0
 13 14  2  3
 14 15  1  0
 15 16  2  0
 16 17  1  0
 16 18  1  0
 18 19  1  0
 19 20  2  0
 19 21  1  0
 21 22  1  0
 22 23  1  0
 23 24  2  0
 24 25  1  0
 25 26  2  0
 26 27  1  0
 27 28  2  0
 21 29  1  0
 29 30  2  0
 13 31  1  0
 31 32  2  0
 32 33  1  0
 33 34  2  0
 34 35  1  0
 35 36  2  0
 12  4  1  0
 29 15  1  0
 36 31  1  0
 28 23  1  0
  5 37  1  0
  6 38  1  0
 11 39  1  0
 12 40  1  0
 14 41  1  0
 22 42  1  0
 22 43  1  0
 24 44  1  0
 25 45  1  0
 26 46  1  0
 27 47  1  0
 28 48  1  0
 32 49  1  0
 33 50  1  0
 34 51  1  0
 35 52  1  0
 36 53  1  0
M  CHG  4   3  -1  10  -1  17  -1  18  -1
M  END
>  <UniqueID>  (8) 
8

>  <SMILES>  (8) 
O=C([N-]c1ccc(C(=O)[O-])cc1)C(=Cc1c([O-])[n-]c(=O)n(Cc2ccccc2)c1=O)c1ccccc1

>  <Energy>  (8) 
80.07076499541111

>  <Genealogy>  (8) 
O=C([N-]c1ccc(C(=O)[O-])cc1)C(=Cc1c([O-])[n-]c(=O)n(Cc2ccccc2)c1=O)c1ccccc1 (protonated)
O=C([N-]c1ccc(C(=O)[O-])cc1)C(=Cc1c([O-])[n-]c(=O)n(Cc2ccccc2)c1=O)c1ccccc1 (3D coordinates assigned)
O=C([N-]c1ccc(C(=O)[O-])cc1)C(=Cc1c([O-])[n-]c(=O)n(Cc2ccccc2)c1=O)c1ccccc1 (optimized conformer: 80.07076499541111 kcal/mol)

>  <smiles>  (8) 
O=C(Nc1ccc(C(=O)O)cc1)C(=Cc1c(O)[nH]c(=O)n(Cc2ccccc2)c1=O)c1ccccc1

>  <score_type>  (8) 
oracle

>  <origin>  (8) 
adg

>  <m_score__min__energy>  (8) 
-16.18

>  <m_primary>  (8) 
energy

$$$$
8:0
     RDKit          3D

 52 55  0  0  0  0  0  0  0  0999 V2000
   62.3340   33.8360   51.5010 C   0  0  0  0  0  0  0  0  0  0  0  0
   63.3280   32.6820   51.5760 C   0  0  0  0  0  0  0  0  0  0  0  0
   63.2190   31.8130   50.3550 C   0  0  0  0  0  0  0  0  0  0  0  0
   63.2160   30.5630   50.5040 O   0  0  0  0  0  0  0  0  0  0  0  0
   63.1220   32.3850   49.0380 N   0  0  0  0  0  0  0  0  0  0  0  0
   64.2280   33.0430   48.3380 C   0  0  0  0  0  0  0  0  0  0  0  0
   63.5950   33.8200   47.1600 C   0  0  0  0  0  0  0  0  0  0  0  0
   62.1560   33.4540   47.2410 C   0  0  0  0  0  0  0  0  0  0  0  0
   61.1280   33.8290   46.3750 C   0  0  0  0  0  0  0  0  0  0  0  0
   59.8330   33.3360   46.6120 C   0  0  0  0  0  0  0  0  0  0  0  0
   58.5040   33.7830   45.5460 S   0  0  0  0  0  0  0  0  0  0  0  0
   58.7890   35.1160   44.9120 O   0  0  0  0  0  0  0  0  0  0  0  0
   57.2400   33.9030   46.3480 O   0  0  0  0  0  0  0  0  0  0  0  0
   58.2750   32.5720   44.3220 N   0  0  0  0  0  0  0  0  0  0  0  0
   56.9950   31.8980   44.5150 C   0  0  0  0  0  0  0  0  0  0  0  0
   56.9720   30.5830   43.7340 C   0  0  0  0  0  0  0  0  0  0  0  0
   55.7960   29.7270   44.1030 C   0  0  0  0  0  0  0  0  0  0  0  0
   54.7810   29.6920   43.3550 O   0  0  0  0  0  0  0  0  0  0  0  0
   55.8680   28.8950   45.2580 N   0  0  0  0  0  0  0  0  0  0  0  0
   56.9750   28.0360   45.5560 C   0  0  0  0  0  0  0  0  0  0  0  0
   58.2820   28.5610   45.5520 C   0  0  0  0  0  0  0  0  0  0  0  0
   59.3870   27.7340   45.8340 C   0  0  0  0  0  0  0  0  0  0  0  0
   59.1990   26.3780   46.1510 C   0  0  0  0  0  0  0  0  0  0  0  0
   57.8980   25.8850   46.1740 C   0  0  0  0  0  0  0  0  0  0  0  0
   56.8120   26.6820   45.8880 C   0  0  0  0  0  0  0  0  0  0  0  0
   55.6190   25.8560   46.0970 C   0  0  0  0  0  0  0  0  0  0  0  0
   54.4310   26.2460   45.9810 O   0  0  0  0  0  0  0  0  0  0  0  0
   55.9690   24.5280   46.4930 N   0  0  0  0  0  0  0  0  0  0  0  0
   57.3950   24.5670   46.5320 C   0  0  0  0  0  0  0  0  0  0  0  0
   58.1090   23.5810   46.8540 O   0  0  0  0  0  0  0  0  0  0  0  0
   59.6010   32.4770   47.7080 C   0  0  0  0  0  0  0  0  0  0  0  0
   60.6510   32.1210   48.5670 C   0  0  0  0  0  0  0  0  0  0  0  0
   61.9250   32.6430   48.3180 C   0  0  0  0  0  0  0  0  0  0  0  0
   62.0617   34.1521   52.5188 H   0  0  0  0  0  0  0  0  0  0  0  0
   62.7921   34.6803   50.9650 H   0  0  0  0  0  0  0  0  0  0  0  0
   61.4311   33.5080   50.9650 H   0  0  0  0  0  0  0  0  0  0  0  0
   64.3486   33.0871   51.6420 H   0  0  0  0  0  0  0  0  0  0  0  0
   63.1023   32.0755   52.4655 H   0  0  0  0  0  0  0  0  0  0  0  0
   64.7489   33.7359   49.0152 H   0  0  0  0  0  0  0  0  0  0  0  0
   64.9681   32.3110   47.9825 H   0  0  0  0  0  0  0  0  0  0  0  0
   63.7332   34.9042   47.2838 H   0  0  0  0  0  0  0  0  0  0  0  0
   64.0477   33.5719   46.1886 H   0  0  0  0  0  0  0  0  0  0  0  0
   61.3270   34.4970   45.5240 H   0  0  0  0  0  0  0  0  0  0  0  0
   56.8516   31.6884   45.5853 H   0  0  0  0  0  0  0  0  0  0  0  0
   56.1863   32.5483   44.1501 H   0  0  0  0  0  0  0  0  0  0  0  0
   56.9218   30.8100   42.6588 H   0  0  0  0  0  0  0  0  0  0  0  0
   57.8873   30.0258   43.9824 H   0  0  0  0  0  0  0  0  0  0  0  0
   58.4412   29.6259   45.3268 H   0  0  0  0  0  0  0  0  0  0  0  0
   60.4039   28.1525   45.8059 H   0  0  0  0  0  0  0  0  0  0  0  0
   60.0556   25.7251   46.3745 H   0  0  0  0  0  0  0  0  0  0  0  0
   58.5897   32.0842   47.8896 H   0  0  0  0  0  0  0  0  0  0  0  0
   60.4767   31.4461   49.4179 H   0  0  0  0  0  0  0  0  0  0  0  0
  1  2  1  0
  2  3  1  0
  3  4  2  0
  3  5  1  0
  5  6  1  0
  6  7  1  0
  7  8  1  0
  8  9  2  0
  9 10  1  0
 10 11  1  0
 11 12  2  0
 11 13  2  0
 11 14  1  0
 14 15  1  0
 15 16  1  0
 16 17  1  0
 17 18  2  0
 17 19  1  0
 19 20  1  0
 20 21  2  0
 21 22  1  0
 22 23  2  0
 23 24  1  0
 24 25  2  0
 25 26  1  0
 26 27  2  0
 26 28  1  0
 28 29  1  0
 29 30  2  0
 10 31  2  0
 31 32  1  0
 32 33  2  0
 33  5  1  0
 33  8  1  0
 25 20  1  0
 29 24  1  0
  1 34  1  0
  1 35  1  0
  1 36  1  0
  2 37  1  0
  2 38  1  0
  6 39  1  0
  6 40  1  0
  7 41  1  0
  7 42  1  0
  9 43  1  0
 15 44  1  0
 15 45  1  0
 16 46  1  0
 16 47  1  0
 21 48  1  0
 22 49  1  0
 23 50  1  0
 31 51  1  0
 32 52  1  0
M  CHG  3  14  -1  19  -1  28  -1
M  END
>  <UniqueID>  (9) 
9

>  <SMILES>  (9) 
CCC(=O)N1CCc2cc(S(=O)(=O)[N-]CCC(=O)[N-]c3cccc4c3C(=O)[N-]C4=O)ccc21

>  <Energy>  (9) 
101.05360499030681

>  <Genealogy>  (9) 
CCC(=O)N1CCc2cc(S(=O)(=O)[N-]CCC(=O)[N-]c3cccc4c3C(=O)[N-]C4=O)ccc21 (protonated)
CCC(=O)N1CCc2cc(S(=O)(=O)[N-]CCC(=O)[N-]c3cccc4c3C(=O)[N-]C4=O)ccc21 (3D coordinates assigned)
CCC(=O)N1CCc2cc(S(=O)(=O)[N-]CCC(=O)[N-]c3cccc4c3C(=O)[N-]C4=O)ccc21 (nonaromatic ring conformer: 101.05360499030681 kcal/mol)

>  <smiles>  (9) 
CCC(=O)N1CCc2cc(S(=O)(=O)NCCC(=O)Nc3cccc4c3C(=O)NC4=O)ccc21

>  <score_type>  (9) 
oracle

>  <origin>  (9) 
adg

>  <m_score__min__energy>  (9) 
-14.81

>  <m_primary>  (9) 
energy

$$$$
9:0
     RDKit          3D

 62 66  0  0  0  0  0  0  0  0999 V2000
   61.1740   31.0260   49.2020 O   0  0  0  0  0  0  0  0  0  0  0  0
   61.5320   30.0720   49.9430 C   0  0  0  0  0  0  0  0  0  0  0  0
   62.5200   30.1870   50.9460 N   0  0  0  0  0  0  0  0  0  0  0  0
   63.2720   31.3940   51.2880 C   0  0  0  0  0  0  0  0  0  0  0  0
   63.2720   32.3550   50.1290 C   0  0  0  0  0  0  0  0  0  0  0  0
   63.9560   32.0350   48.9430 C   0  0  0  0  0  0  0  0  0  0  0  0
   63.9800   32.9370   47.8770 C   0  0  0  0  0  0  0  0  0  0  0  0
   63.3250   34.1670   47.9870 C   0  0  0  0  0  0  0  0  0  0  0  0
   62.6510   34.4960   49.1660 C   0  0  0  0  0  0  0  0  0  0  0  0
   62.6250   33.5970   50.2370 C   0  0  0  0  0  0  0  0  0  0  0  0
   62.5950   28.9160   51.6580 C   0  0  0  0  0  0  0  0  0  0  0  0
   61.5930   27.9750   50.9390 C   0  0  0  0  0  0  0  0  0  0  0  0
   60.9730   28.7720   49.8840 N   0  0  0  0  0  0  0  0  0  0  0  0
   60.1900   28.2290   48.8060 C   0  0  0  0  0  0  0  0  0  0  0  0
   58.8930   28.7140   48.5680 C   0  0  0  0  0  0  0  0  0  0  0  0
   58.1090   28.1620   47.5490 C   0  0  0  0  0  0  0  0  0  0  0  0
   58.6070   27.1050   46.7710 C   0  0  0  0  0  0  0  0  0  0  0  0
   57.6000   26.3260   45.5530 S   0  0  0  0  0  0  0  0  0  0  0  0
   58.0990   24.9440   45.2440 O   0  0  0  0  0  0  0  0  0  0  0  0
   56.1970   26.2250   46.0780 O   0  0  0  0  0  0  0  0  0  0  0  0
   57.6050   27.2890   44.1120 N   0  0  0  0  0  0  0  0  0  0  0  0
   57.6120   28.7260   44.1490 C   0  0  0  0  0  0  0  0  0  0  0  0
   56.6130   29.4420   43.4720 C   0  0  0  0  0  0  0  0  0  0  0  0
   56.5770   30.8370   43.5260 C   0  0  0  0  0  0  0  0  0  0  0  0
   57.5550   31.5410   44.2440 C   0  0  0  0  0  0  0  0  0  0  0  0
   57.4700   33.0380   44.3860 C   0  0  0  0  0  0  0  0  0  0  0  0
   58.3240   33.4920   45.5430 C   0  0  0  0  0  0  0  0  0  0  0  0
   59.5090   34.2070   45.3120 C   0  0  0  0  0  0  0  0  0  0  0  0
   60.3240   34.5530   46.3950 C   0  0  0  0  0  0  0  0  0  0  0  0
   59.9690   34.1930   47.6610 N   0  0  0  0  0  0  0  0  0  0  0  0
   58.8270   33.4970   47.9120 C   0  0  0  0  0  0  0  0  0  0  0  0
   57.9870   33.1270   46.8590 C   0  0  0  0  0  0  0  0  0  0  0  0
   58.5680   30.8290   44.9020 C   0  0  0  0  0  0  0  0  0  0  0  0
   58.6000   29.4330   44.8520 C   0  0  0  0  0  0  0  0  0  0  0  0
   59.8980   26.6170   47.0070 C   0  0  0  0  0  0  0  0  0  0  0  0
   60.6860   27.1770   48.0160 C   0  0  0  0  0  0  0  0  0  0  0  0
   62.8065   31.8768   52.1599 H   0  0  0  0  0  0  0  0  0  0  0  0
   64.3100   31.1149   51.5217 H   0  0  0  0  0  0  0  0  0  0  0  0
   64.4749   31.0692   48.8543 H   0  0  0  0  0  0  0  0  0  0  0  0
   64.5144   32.6795   46.9507 H   0  0  0  0  0  0  0  0  0  0  0  0
   63.3401   34.8756   47.1458 H   0  0  0  0  0  0  0  0  0  0  0  0
   62.1389   35.4657   49.2521 H   0  0  0  0  0  0  0  0  0  0  0  0
   62.0973   33.8628   51.1648 H   0  0  0  0  0  0  0  0  0  0  0  0
   63.6140   28.5052   51.6039 H   0  0  0  0  0  0  0  0  0  0  0  0
   62.3510   29.0319   52.7243 H   0  0  0  0  0  0  0  0  0  0  0  0
   62.1223   27.1137   50.5054 H   0  0  0  0  0  0  0  0  0  0  0  0
   60.8412   27.5798   51.6379 H   0  0  0  0  0  0  0  0  0  0  0  0
   58.4921   29.5313   49.1855 H   0  0  0  0  0  0  0  0  0  0  0  0
   57.1005   28.5571   47.3572 H   0  0  0  0  0  0  0  0  0  0  0  0
   57.3760   26.8040   43.2150 H   0  0  0  0  0  0  0  0  0  0  0  0
   55.8510   28.8993   42.8933 H   0  0  0  0  0  0  0  0  0  0  0  0
   55.7792   31.3855   43.0038 H   0  0  0  0  0  0  0  0  0  0  0  0
   57.8270   33.5132   43.4604 H   0  0  0  0  0  0  0  0  0  0  0  0
   56.4247   33.3258   44.5719 H   0  0  0  0  0  0  0  0  0  0  0  0
   59.7944   34.4928   44.2888 H   0  0  0  0  0  0  0  0  0  0  0  0
   61.2531   35.1167   46.2247 H   0  0  0  0  0  0  0  0  0  0  0  0
   58.5650   33.2254   48.9452 H   0  0  0  0  0  0  0  0  0  0  0  0
   57.0689   32.5545   47.0574 H   0  0  0  0  0  0  0  0  0  0  0  0
   59.3430   31.3733   45.4615 H   0  0  0  0  0  0  0  0  0  0  0  0
   59.4035   28.8853   45.3662 H   0  0  0  0  0  0  0  0  0  0  0  0
   60.2927   25.7912   46.3969 H   0  0  0  0  0  0  0  0  0  0  0  0
   61.7011   26.7922   48.1934 H   0  0  0  0  0  0  0  0  0  0  0  0
  1  2  2  0
  2  3  1  0
  3  4  1  0
  4  5  1  0
  5  6  2  0
  6  7  1  0
  7  8  2  0
  8  9  1  0
  9 10  2  0
  3 11  1  0
 11 12  1  0
 12 13  1  0
 13 14  1  0
 14 15  2  0
 15 16  1  0
 16 17  2  0
 17 18  1  0
 18 19  2  0
 18 20  2  0
 18 21  1  0
 21 22  1  0
 22 23  2  0
 23 24  1  0
 24 25  2  0
 25 26  1  0
 26 27  1  0
 27 28  2  0
 28 29  1  0
 29 30  2  0
 30 31  1  0
 31 32  2  0
 25 33  1  0
 33 34  2  0
 17 35  1  0
 35 36  2  0
 13  2  1  0
 36 14  1  0
 10  5  1  0
 34 22  1  0
 32 27  1  0
  4 37  1  0
  4 38  1  0
  6 39  1  0
  7 40  1  0
  8 41  1  0
  9 42  1  0
 10 43  1  0
 11 44  1  0
 11 45  1  0
 12 46  1  0
 12 47  1  0
 15 48  1  0
 16 49  1  0
 21 50  1  0
 23 51  1  0
 24 52  1  0
 26 53  1  0
 26 54  1  0
 28 55  1  0
 29 56  1  0
 31 57  1  0
 32 58  1  0
 33 59  1  0
 34 60  1  0
 35 61  1  0
 36 62  1  0
M  END
>  <UniqueID>  (10) 
10

>  <SMILES>  (10) 
O=C1N(Cc2ccccc2)CCN1c1ccc(S(=O)(=O)Nc2ccc(Cc3ccncc3)cc2)cc1

>  <Energy>  (10) 
84.51166071705642

>  <Genealogy>  (10) 
O=C1N(Cc2ccccc2)CCN1c1ccc(S(=O)(=O)Nc2ccc(Cc3ccncc3)cc2)cc1 (3D coordinates assigned)
O=C1N(Cc2ccccc2)CCN1c1ccc(S(=O)(=O)Nc2ccc(Cc3ccncc3)cc2)cc1 (nonaromatic ring conformer: 84.51166071705642 kcal/mol)

>  <smiles>  (10) 
O=C1N(Cc2ccccc2)CCN1c1ccc(S(=O)(=O)Nc2ccc(Cc3ccncc3)cc2)cc1

>  <score_type>  (10) 
oracle

>  <origin>  (10) 
adg

>  <m_score__min__energy>  (10) 
-10.300000000000001

>  <m_primary>  (10) 
energy

$$$$
10:0
     RDKit          3D

 49 52  0  0  0  0  0  0  0  0999 V2000
   59.0040   33.1090   49.2830 C   0  0  0  0  0  0  0  0  0  0  0  0
   60.4340   33.3650   48.9140 C   0  0  0  0  0  0  0  0  0  0  0  0
   61.2390   33.7660   49.8600 N   0  0  0  0  0  0  0  0  0  0  0  0
   62.6100   33.3920   50.0900 C   0  0  0  0  0  0  0  0  0  0  0  0
   63.5790   33.4860   49.0630 C   0  0  0  0  0  0  0  0  0  0  0  0
   64.8940   33.0610   49.3030 C   0  0  0  0  0  0  0  0  0  0  0  0
   65.2490   32.5270   50.5400 C   0  0  0  0  0  0  0  0  0  0  0  0
   67.0470   31.9620   50.8550 Br  0  0  0  0  0  0  0  0  0  0  0  0
   64.2930   32.4020   51.5470 C   0  0  0  0  0  0  0  0  0  0  0  0
   62.9680   32.8200   51.3340 C   0  0  0  0  0  0  0  0  0  0  0  0
   61.9810   32.6880   52.4360 C   0  0  0  0  0  0  0  0  0  0  0  0
   62.1280   31.7830   53.3020 O   0  0  0  0  0  0  0  0  0  0  0  0
   60.8570   33.5760   52.5220 N   0  0  0  0  0  0  0  0  0  0  0  0
   59.8140   33.3890   53.5290 C   0  0  0  0  0  0  0  0  0  0  0  0
   58.7800   32.4160   53.0440 C   0  0  0  0  0  0  0  0  0  0  0  0
   57.6200   32.8660   52.3970 C   0  0  0  0  0  0  0  0  0  0  0  0
   56.6570   31.9390   51.9940 C   0  0  0  0  0  0  0  0  0  0  0  0
   56.8520   30.5800   52.2470 C   0  0  0  0  0  0  0  0  0  0  0  0
   58.0120   30.1680   52.9060 C   0  0  0  0  0  0  0  0  0  0  0  0
   58.9390   31.0850   53.2920 N   0  0  0  0  0  0  0  0  0  0  0  0
   63.2070   34.0230   47.7100 C   0  0  0  0  0  0  0  0  0  0  0  0
   62.1280   33.1700   47.1220 C   0  0  0  0  0  0  0  0  0  0  0  0
   60.8390   33.2910   47.4800 C   0  0  0  0  0  0  0  0  0  0  0  0
   59.7900   33.3220   46.4280 C   0  0  0  0  0  0  0  0  0  0  0  0
   59.1600   32.1390   45.9960 C   0  0  0  0  0  0  0  0  0  0  0  0
   58.1730   32.1860   45.0070 C   0  0  0  0  0  0  0  0  0  0  0  0
   57.8050   33.4080   44.4400 C   0  0  0  0  0  0  0  0  0  0  0  0
   58.4240   34.5870   44.8600 C   0  0  0  0  0  0  0  0  0  0  0  0
   59.4110   34.5470   45.8490 C   0  0  0  0  0  0  0  0  0  0  0  0
   58.9055   33.0914   50.3784 H   0  0  0  0  0  0  0  0  0  0  0  0
   58.3702   33.9080   48.8707 H   0  0  0  0  0  0  0  0  0  0  0  0
   58.6868   32.1398   48.8707 H   0  0  0  0  0  0  0  0  0  0  0  0
   65.6502   33.1499   48.5091 H   0  0  0  0  0  0  0  0  0  0  0  0
   64.5786   31.9718   52.5183 H   0  0  0  0  0  0  0  0  0  0  0  0
   60.8080   34.3980   51.8780 H   0  0  0  0  0  0  0  0  0  0  0  0
   60.2688   33.0026   54.4530 H   0  0  0  0  0  0  0  0  0  0  0  0
   59.3279   34.3571   53.7201 H   0  0  0  0  0  0  0  0  0  0  0  0
   57.4703   33.9394   52.2088 H   0  0  0  0  0  0  0  0  0  0  0  0
   55.7467   32.2787   51.4783 H   0  0  0  0  0  0  0  0  0  0  0  0
   56.1002   29.8420   51.9307 H   0  0  0  0  0  0  0  0  0  0  0  0
   58.1762   29.1002   53.1132 H   0  0  0  0  0  0  0  0  0  0  0  0
   62.8447   35.0567   47.8113 H   0  0  0  0  0  0  0  0  0  0  0  0
   64.0884   34.0098   47.0520 H   0  0  0  0  0  0  0  0  0  0  0  0
   62.4001   32.4159   46.3688 H   0  0  0  0  0  0  0  0  0  0  0  0
   59.4458   31.1735   46.4388 H   0  0  0  0  0  0  0  0  0  0  0  0
   57.6850   31.2579   44.6746 H   0  0  0  0  0  0  0  0  0  0  0  0
   57.0275   33.4417   43.6626 H   0  0  0  0  0  0  0  0  0  0  0  0
   58.1344   35.5489   44.4118 H   0  0  0  0  0  0  0  0  0  0  0  0
   59.8944   35.4792   46.1767 H   0  0  0  0  0  0  0  0  0  0  0  0
  1  2  1  0
  2  3  2  0
  3  4  1  0
  4  5  2  0
  5  6  1  0
  6  7  2  0
  7  8  1  0
  7  9  1  0
  9 10  2  0
 10 11  1  0
 11 12  2  0
 11 13  1  0
 13 14  1  0
 14 15  1  0
 15 16  2  0
 16 17  1  0
 17 18  2  0
 18 19  1  0
 19 20  2  0
  5 21  1  0
 21 22  1  0
 22 23  2  0
 23 24  1  0
 24 25  2  0
 25 26  1  0
 26 27  2  0
 27 28  1  0
 28 29  2  0
 23  2  1  0
 29 24  1  0
 10  4  1  0
 20 15  1  0
  1 30  1  0
  1 31  1  0
  1 32  1  0
  6 33  1  0
  9 34  1  0
 13 35  1  0
 14 36  1  0
 14 37  1  0
 16 38  1  0
 17 39  1  0
 18 40  1  0
 19 41  1  0
 21 42  1  0
 21 43  1  0
 22 44  1  0
 25 45  1  0
 26 46  1  0
 27 47  1  0
 28 48  1  0
 29 49  1  0
M  END
>  <UniqueID>  (11) 
11

>  <SMILES>  (11) 
CC1=Nc2c(cc(Br)cc2C(=O)NCc2ccccn2)CC=C1c1ccccc1

>  <Energy>  (11) 
70.5909925020399

>  <Genealogy>  (11) 
CC1=Nc2c(cc(Br)cc2C(=O)NCc2ccccn2)CC=C1c1ccccc1 (3D coordinates assigned)
CC1=Nc2c(cc(Br)cc2C(=O)NCc2ccccn2)CC=C1c1ccccc1 (nonaromatic ring conformer: 70.5909925020399 kcal/mol)

>  <smiles>  (11) 
CC1=Nc2c(cc(Br)cc2C(=O)NCc2ccccn2)CC=C1c1ccccc1

>  <score_type>  (11) 
oracle

>  <origin>  (11) 
adg

>  <m_score__min__energy>  (11) 
-7.7400000000000002

>  <m_primary>  (11) 
energy

$$$$
11:0
     RDKit          3D

 56 59  0  0  0  0  0  0  0  0999 V2000
   59.8220   24.9550   46.0590 O   0  0  0  0  0  0  0  0  0  0  0  0
   58.8980   25.7650   46.3340 C   0  0  0  0  0  0  0  0  0  0  0  0
   57.8240   25.3220   47.1760 N   0  0  0  0  0  0  0  0  0  0  0  0
   56.5440   24.8490   46.7310 C   0  0  0  0  0  0  0  0  0  0  0  0
   55.7000   25.7240   46.0410 C   0  0  0  0  0  0  0  0  0  0  0  0
   54.4530   25.2920   45.5800 C   0  0  0  0  0  0  0  0  0  0  0  0
   54.0200   23.9760   45.8230 C   0  0  0  0  0  0  0  0  0  0  0  0
   52.7100   23.4910   45.3240 C   0  0  0  0  0  0  0  0  0  0  0  0
   52.4060   22.2750   45.4670 O   0  0  0  0  0  0  0  0  0  0  0  0
   51.7760   24.3850   44.6940 N   0  0  0  0  0  0  0  0  0  0  0  0
   50.5700   23.9050   44.0230 C   0  0  0  0  0  0  0  0  0  0  0  0
   50.4790   24.4860   42.6390 C   0  0  0  0  0  0  0  0  0  0  0  0
   50.2920   25.8680   42.4670 C   0  0  0  0  0  0  0  0  0  0  0  0
   50.2250   26.4150   41.1820 C   0  0  0  0  0  0  0  0  0  0  0  0
   50.3540   25.5890   40.0620 C   0  0  0  0  0  0  0  0  0  0  0  0
   50.5520   24.2150   40.2240 C   0  0  0  0  0  0  0  0  0  0  0  0
   50.6160   23.6630   41.5080 C   0  0  0  0  0  0  0  0  0  0  0  0
   54.8640   23.1040   46.5340 C   0  0  0  0  0  0  0  0  0  0  0  0
   56.1090   23.5400   46.9950 C   0  0  0  0  0  0  0  0  0  0  0  0
   58.9730   27.1550   45.8220 C   0  0  0  0  0  0  0  0  0  0  0  0
   60.1950   27.8490   45.8400 C   0  0  0  0  0  0  0  0  0  0  0  0
   60.2750   29.1530   45.3400 C   0  0  0  0  0  0  0  0  0  0  0  0
   59.1390   29.7770   44.8210 C   0  0  0  0  0  0  0  0  0  0  0  0
   57.9100   29.1040   44.8140 C   0  0  0  0  0  0  0  0  0  0  0  0
   56.4650   29.8680   44.1610 S   0  0  0  0  0  0  0  0  0  0  0  0
   55.2740   29.0140   44.4970 O   0  0  0  0  0  0  0  0  0  0  0  0
   56.5500   30.0010   42.6660 O   0  0  0  0  0  0  0  0  0  0  0  0
   56.2560   31.4350   44.8710 N   0  0  0  0  0  0  0  0  0  0  0  0
   57.3160   32.3250   45.2450 C   0  0  0  0  0  0  0  0  0  0  0  0
   57.8730   33.1530   44.2620 C   0  0  0  0  0  0  0  0  0  0  0  0
   58.9130   34.0330   44.5840 C   0  0  0  0  0  0  0  0  0  0  0  0
   59.3980   34.0970   45.8920 C   0  0  0  0  0  0  0  0  0  0  0  0
   60.4320   34.9680   46.2100 O   0  0  0  0  0  0  0  0  0  0  0  0
   58.8460   33.2770   46.8800 C   0  0  0  0  0  0  0  0  0  0  0  0
   57.8080   32.3950   46.5620 C   0  0  0  0  0  0  0  0  0  0  0  0
   57.8270   27.8030   45.3270 C   0  0  0  0  0  0  0  0  0  0  0  0
   56.0196   26.7607   45.8593 H   0  0  0  0  0  0  0  0  0  0  0  0
   53.8060   25.9860   45.0234 H   0  0  0  0  0  0  0  0  0  0  0  0
   51.9160   25.4180   44.7650 H   0  0  0  0  0  0  0  0  0  0  0  0
   50.6046   22.8077   43.9548 H   0  0  0  0  0  0  0  0  0  0  0  0
   49.6887   24.2179   44.6021 H   0  0  0  0  0  0  0  0  0  0  0  0
   50.1980   26.5219   43.3465 H   0  0  0  0  0  0  0  0  0  0  0  0
   50.0706   27.4964   41.0524 H   0  0  0  0  0  0  0  0  0  0  0  0
   50.2996   26.0208   39.0518 H   0  0  0  0  0  0  0  0  0  0  0  0
   50.6576   23.5671   39.3413 H   0  0  0  0  0  0  0  0  0  0  0  0
   50.7740   22.5816   41.6327 H   0  0  0  0  0  0  0  0  0  0  0  0
   54.5414   22.0705   46.7287 H   0  0  0  0  0  0  0  0  0  0  0  0
   56.7514   22.8547   47.5674 H   0  0  0  0  0  0  0  0  0  0  0  0
   61.0934   27.3641   46.2495 H   0  0  0  0  0  0  0  0  0  0  0  0
   61.2358   29.6884   45.3558 H   0  0  0  0  0  0  0  0  0  0  0  0
   59.2088   30.7978   44.4172 H   0  0  0  0  0  0  0  0  0  0  0  0
   57.4911   33.1115   43.2313 H   0  0  0  0  0  0  0  0  0  0  0  0
   59.3492   34.6755   43.8050 H   0  0  0  0  0  0  0  0  0  0  0  0
   59.2287   33.3253   47.9101 H   0  0  0  0  0  0  0  0  0  0  0  0
   57.3747   31.7539   47.3438 H   0  0  0  0  0  0  0  0  0  0  0  0
   56.8573   27.2839   45.3428 H   0  0  0  0  0  0  0  0  0  0  0  0
  1  2  2  0
  2  3  1  0
  3  4  1  0
  4  5  2  0
  5  6  1  0
  6  7  2  0
  7  8  1  0
  8  9  2  0
  8 10  1  0
 10 11  1  0
 11 12  1  0
 12 13  2  0
 13 14  1  0
 14 15  2  0
 15 16  1  0
 16 17  2  0
  7 18  1  0
 18 19  2  0
  2 20  1  0
 20 21  2  0
 21 22  1  0
 22 23  2  0
 23 24  1  0
 24 25  1  0
 25 26  2  0
 25 27  2  0
 25 28  1  0
 28 29  1  0
 29 30  2  0
 30 31  1  0
 31 32  2  0
 32 33  1  0
 32 34  1  0
 34 35  2  0
 24 36  2  0
 19  4  1  0
 36 20  1  0
 17 12  1  0
 35 29  1  0
  5 37  1  0
  6 38  1  0
 10 39  1  0
 11 40  1  0
 11 41  1  0
 13 42  1  0
 14 43  1  0
 15 44  1  0
 16 45  1  0
 17 46  1  0
 18 47  1  0
 19 48  1  0
 21 49  1  0
 22 50  1  0
 23 51  1  0
 30 52  1  0
 31 53  1  0
 34 54  1  0
 35 55  1  0
 36 56  1  0
M  CHG  3   3  -1  28  -1  33  -1
M  END
>  <UniqueID>  (12) 
12

>  <SMILES>  (12) 
O=C([N-]c1ccc(C(=O)NCc2ccccc2)cc1)c1cccc(S(=O)(=O)[N-]c2ccc([O-])cc2)c1

>  <Energy>  (12) 
70.34713755807797

>  <Genealogy>  (12) 
O=C([N-]c1ccc(C(=O)NCc2ccccc2)cc1)c1cccc(S(=O)(=O)[N-]c2ccc([O-])cc2)c1 (protonated)
O=C([N-]c1ccc(C(=O)NCc2ccccc2)cc1)c1cccc(S(=O)(=O)[N-]c2ccc([O-])cc2)c1 (3D coordinates assigned)
O=C([N-]c1ccc(C(=O)NCc2ccccc2)cc1)c1cccc(S(=O)(=O)[N-]c2ccc([O-])cc2)c1 (optimized conformer: 70.34713755807797 kcal/mol)

>  <smiles>  (12) 
O=C(NCc1ccccc1)c1ccc(NC(=O)c2cccc(S(=O)(=O)Nc3ccc(O)cc3)c2)cc1

>  <score_type>  (12) 
oracle

>  <origin>  (12) 
adg

>  <m_score__min__energy>  (12) 
-15.119999999999999

>  <m_primary>  (12) 
energy

$$$$
12:0
     RDKit          3D

 58 62  0  0  0  0  0  0  0  0999 V2000
   59.9800   35.0130   45.5860 C   0  0  0  0  0  0  0  0  0  0  0  0
   59.6840   33.8840   46.4670 N   0  0  0  0  0  0  0  0  0  0  0  0
   58.4960   33.2390   46.6340 C   0  0  0  0  0  0  0  0  0  0  0  0
   56.9770   33.6770   45.7850 S   0  0  0  0  0  0  0  0  0  0  0  0
   57.4290   32.7460   44.2820 C   0  0  0  0  0  0  0  0  0  0  0  0
   57.5490   31.2830   44.5980 C   0  0  0  0  0  0  0  0  0  0  0  0
   58.7830   30.7320   44.9730 C   0  0  0  0  0  0  0  0  0  0  0  0
   58.8930   29.3660   45.2470 C   0  0  0  0  0  0  0  0  0  0  0  0
   57.7640   28.5310   45.1710 C   0  0  0  0  0  0  0  0  0  0  0  0
   57.8720   27.0780   45.4470 C   0  0  0  0  0  0  0  0  0  0  0  0
   58.9110   26.4580   45.1020 O   0  0  0  0  0  0  0  0  0  0  0  0
   56.8420   26.3570   46.1390 N   0  0  0  0  0  0  0  0  0  0  0  0
   56.2630   25.1120   45.7180 C   0  0  0  0  0  0  0  0  0  0  0  0
   57.1130   24.0320   45.4460 C   0  0  0  0  0  0  0  0  0  0  0  0
   56.5840   22.8010   45.0470 C   0  0  0  0  0  0  0  0  0  0  0  0
   55.2010   22.6460   44.9050 C   0  0  0  0  0  0  0  0  0  0  0  0
   54.3470   23.7250   45.1510 C   0  0  0  0  0  0  0  0  0  0  0  0
   54.8720   24.9590   45.5500 C   0  0  0  0  0  0  0  0  0  0  0  0
   54.0280   26.0080   45.7210 F   0  0  0  0  0  0  0  0  0  0  0  0
   56.5310   29.0850   44.7840 C   0  0  0  0  0  0  0  0  0  0  0  0
   56.4240   30.4500   44.5040 C   0  0  0  0  0  0  0  0  0  0  0  0
   58.5900   32.1710   47.4640 N   0  0  0  0  0  0  0  0  0  0  0  0
   59.8870   32.1490   47.8060 C   0  0  0  0  0  0  0  0  0  0  0  0
   60.5080   31.2310   48.5780 N   0  0  0  0  0  0  0  0  0  0  0  0
   61.8570   31.3420   48.7590 C   0  0  0  0  0  0  0  0  0  0  0  0
   62.5770   32.3490   48.1480 N   0  0  0  0  0  0  0  0  0  0  0  0
   64.0310   32.4200   48.3600 C   0  0  0  0  0  0  0  0  0  0  0  0
   64.3390   33.1430   49.6450 C   0  0  0  0  0  0  0  0  0  0  0  0
   63.3110   33.7550   50.3820 C   0  0  0  0  0  0  0  0  0  0  0  0
   63.6000   34.4120   51.5830 C   0  0  0  0  0  0  0  0  0  0  0  0
   64.9130   34.4590   52.0590 C   0  0  0  0  0  0  0  0  0  0  0  0
   65.9390   33.8420   51.3360 C   0  0  0  0  0  0  0  0  0  0  0  0
   65.6550   33.1830   50.1360 C   0  0  0  0  0  0  0  0  0  0  0  0
   61.9310   33.2820   47.3650 C   0  0  0  0  0  0  0  0  0  0  0  0
   62.5680   34.2100   46.7980 O   0  0  0  0  0  0  0  0  0  0  0  0
   60.5520   33.1660   47.2070 C   0  0  0  0  0  0  0  0  0  0  0  0
   60.2127   35.9005   46.1929 H   0  0  0  0  0  0  0  0  0  0  0  0
   60.8438   34.7661   44.9512 H   0  0  0  0  0  0  0  0  0  0  0  0
   59.1062   35.2217   44.9512 H   0  0  0  0  0  0  0  0  0  0  0  0
   56.6518   32.8905   43.5170 H   0  0  0  0  0  0  0  0  0  0  0  0
   58.3956   33.1140   43.9076 H   0  0  0  0  0  0  0  0  0  0  0  0
   59.6693   31.3787   45.0519 H   0  0  0  0  0  0  0  0  0  0  0  0
   59.8691   28.9412   45.5239 H   0  0  0  0  0  0  0  0  0  0  0  0
   58.2016   24.1532   45.5469 H   0  0  0  0  0  0  0  0  0  0  0  0
   57.2557   21.9537   44.8446 H   0  0  0  0  0  0  0  0  0  0  0  0
   54.7853   21.6745   44.5996 H   0  0  0  0  0  0  0  0  0  0  0  0
   53.2604   23.6037   45.0307 H   0  0  0  0  0  0  0  0  0  0  0  0
   55.6443   28.4394   44.7010 H   0  0  0  0  0  0  0  0  0  0  0  0
   55.4528   30.8735   44.2084 H   0  0  0  0  0  0  0  0  0  0  0  0
   57.8410   31.4970   47.7350 H   0  0  0  0  0  0  0  0  0  0  0  0
   62.3782   30.6174   49.4019 H   0  0  0  0  0  0  0  0  0  0  0  0
   64.4402   31.4002   48.4107 H   0  0  0  0  0  0  0  0  0  0  0  0
   64.4875   32.9690   47.5232 H   0  0  0  0  0  0  0  0  0  0  0  0
   62.2753   33.7174   50.0134 H   0  0  0  0  0  0  0  0  0  0  0  0
   62.7918   34.8926   52.1538 H   0  0  0  0  0  0  0  0  0  0  0  0
   65.1392   34.9804   53.0008 H   0  0  0  0  0  0  0  0  0  0  0  0
   66.9721   33.8753   51.7124 H   0  0  0  0  0  0  0  0  0  0  0  0
   66.4646   32.6941   49.5743 H   0  0  0  0  0  0  0  0  0  0  0  0
  1  2  1  0
  2  3  1  0
  3  4  1  0
  4  5  1  0
  5  6  1  0
  6  7  2  0
  7  8  1  0
  8  9  2  0
  9 10  1  0
 10 11  2  0
 10 12  1  0
 12 13  1  0
 13 14  2  0
 14 15  1  0
 15 16  2  0
 16 17  1  0
 17 18  2  0
 18 19  1  0
  9 20  1  0
 20 21  2  0
  3 22  2  0
 22 23  1  0
 23 24  1  0
 24 25  2  0
 25 26  1  0
 26 27  1  0
 27 28  1  0
 28 29  2  0
 29 30  1  0
 30 31  2  0
 31 32  1  0
 32 33  2  0
 26 34  1  0
 34 35  2  0
 34 36  1  0
 36  2  1  0
 21  6  1  0
 36 23  2  0
 18 13  1  0
 33 28  1  0
  1 37  1  0
  1 38  1  0
  1 39  1  0
  5 40  1  0
  5 41  1  0
  7 42  1  0
  8 43  1  0
 14 44  1  0
 15 45  1  0
 16 46  1  0
 17 47  1  0
 20 48  1  0
 21 49  1  0
 22 50  1  0
 25 51  1  0
 27 52  1  0
 27 53  1  0
 29 54  1  0
 30 55  1  0
 31 56  1  0
 32 57  1  0
 33 58  1  0
M  CHG  2  12  -1  22   1
M  END
>  <UniqueID>  (13) 
13

>  <SMILES>  (13) 
Cn1c(SCc2ccc(C(=O)[N-]c3ccccc3F)cc2)[nH+]c2ncn(Cc3ccccc3)c(=O)c21

>  <Energy>  (13) 
112.14489117522426

>  <Genealogy>  (13) 
Cn1c(SCc2ccc(C(=O)[N-]c3ccccc3F)cc2)[nH+]c2ncn(Cc3ccccc3)c(=O)c21 (protonated)
Cn1c(SCc2ccc(C(=O)[N-]c3ccccc3F)cc2)[nH+]c2ncn(Cc3ccccc3)c(=O)c21 (3D coordinates assigned)
Cn1c(SCc2ccc(C(=O)[N-]c3ccccc3F)cc2)[nH+]c2ncn(Cc3ccccc3)c(=O)c21 (optimized conformer: 112.14489117522426 kcal/mol)

>  <smiles>  (13) 
Cn1c(SCc2ccc(C(=O)Nc3ccccc3F)cc2)nc2ncn(Cc3ccccc3)c(=O)c21

>  <score_type>  (13) 
oracle

>  <origin>  (13) 
adg

>  <m_score__min__energy>  (13) 
-9.9199999999999999

>  <m_primary>  (13) 
energy

$$$$
13:0
     RDKit          3D

 47 49  0  0  0  0  0  0  0  0999 V2000
   56.5870   29.2670   42.7160 O   0  0  0  0  0  0  0  0  0  0  0  0
   56.4160   30.1910   43.5530 C   0  0  0  0  0  0  0  0  0  0  0  0
   55.5030   29.9590   44.7250 C   0  0  0  0  0  0  0  0  0  0  0  0
   55.6280   28.5840   45.2010 N   0  0  0  0  0  0  0  0  0  0  0  0
   56.8830   27.9760   45.5300 C   0  0  0  0  0  0  0  0  0  0  0  0
   57.9110   28.6930   45.6720 O   0  0  0  0  0  0  0  0  0  0  0  0
   56.9950   26.5040   45.6300 C   0  0  0  0  0  0  0  0  0  0  0  0
   58.2720   25.9200   45.5360 C   0  0  0  0  0  0  0  0  0  0  0  0
   58.4230   24.5330   45.5530 C   0  0  0  0  0  0  0  0  0  0  0  0
   57.3040   23.7080   45.6660 C   0  0  0  0  0  0  0  0  0  0  0  0
   56.0310   24.2710   45.7770 C   0  0  0  0  0  0  0  0  0  0  0  0
   55.8640   25.6610   45.7830 C   0  0  0  0  0  0  0  0  0  0  0  0
   54.5740   26.1610   45.9770 O   0  0  0  0  0  0  0  0  0  0  0  0
   57.1400   31.4160   43.3860 N   0  0  0  0  0  0  0  0  0  0  0  0
   58.0390   32.0170   44.3290 C   0  0  0  0  0  0  0  0  0  0  0  0
   58.4730   31.3300   45.4750 C   0  0  0  0  0  0  0  0  0  0  0  0
   59.3170   31.9590   46.3960 C   0  0  0  0  0  0  0  0  0  0  0  0
   59.7370   33.2820   46.1890 C   0  0  0  0  0  0  0  0  0  0  0  0
   60.6220   33.9440   47.1730 C   0  0  0  0  0  0  0  0  0  0  0  0
   60.2670   35.0490   47.6670 O   0  0  0  0  0  0  0  0  0  0  0  0
   61.8730   33.3560   47.5830 N   0  0  0  0  0  0  0  0  0  0  0  0
   63.0570   34.1970   47.7870 C   0  0  0  0  0  0  0  0  0  0  0  0
   63.8600   33.6750   48.9820 C   0  0  0  0  0  0  0  0  0  0  0  0
   64.1300   32.2930   48.8420 O   0  0  0  0  0  0  0  0  0  0  0  0
   62.9180   31.5610   48.8820 C   0  0  0  0  0  0  0  0  0  0  0  0
   62.0380   31.9010   47.6760 C   0  0  0  0  0  0  0  0  0  0  0  0
   59.2650   33.9800   45.0650 C   0  0  0  0  0  0  0  0  0  0  0  0
   58.4200   33.3510   44.1460 C   0  0  0  0  0  0  0  0  0  0  0  0
   55.7726   30.6500   45.5373 H   0  0  0  0  0  0  0  0  0  0  0  0
   54.4641   30.1351   44.4094 H   0  0  0  0  0  0  0  0  0  0  0  0
   59.1599   26.5634   45.4483 H   0  0  0  0  0  0  0  0  0  0  0  0
   59.4266   24.0892   45.4771 H   0  0  0  0  0  0  0  0  0  0  0  0
   57.4243   22.6146   45.6677 H   0  0  0  0  0  0  0  0  0  0  0  0
   55.1511   23.6162   45.8605 H   0  0  0  0  0  0  0  0  0  0  0  0
   54.3840   27.1050   46.2880 H   0  0  0  0  0  0  0  0  0  0  0  0
   58.1478   30.2936   45.6486 H   0  0  0  0  0  0  0  0  0  0  0  0
   59.6541   31.4127   47.2892 H   0  0  0  0  0  0  0  0  0  0  0  0
   63.6850   34.1698   46.8843 H   0  0  0  0  0  0  0  0  0  0  0  0
   62.7398   35.2316   47.9847 H   0  0  0  0  0  0  0  0  0  0  0  0
   64.8114   34.2236   49.0443 H   0  0  0  0  0  0  0  0  0  0  0  0
   63.2689   33.8274   49.8971 H   0  0  0  0  0  0  0  0  0  0  0  0
   63.1459   30.4849   48.8703 H   0  0  0  0  0  0  0  0  0  0  0  0
   62.3752   31.8272   49.8010 H   0  0  0  0  0  0  0  0  0  0  0  0
   62.5145   31.5270   46.7578 H   0  0  0  0  0  0  0  0  0  0  0  0
   61.0523   31.4281   47.7976 H   0  0  0  0  0  0  0  0  0  0  0  0
   59.5620   35.0273   44.9071 H   0  0  0  0  0  0  0  0  0  0  0  0
   58.0518   33.9089   43.2724 H   0  0  0  0  0  0  0  0  0  0  0  0
  1  2  2  0
  2  3  1  0
  3  4  1  0
  4  5  1  0
  5  6  2  0
  5  7  1  0
  7  8  2  0
  8  9  1  0
  9 10  2  0
 10 11  1  0
 11 12  2  0
 12 13  1  0
  2 14  1  0
 14 15  1  0
 15 16  2  0
 16 17  1  0
 17 18  2  0
 18 19  1  0
 19 20  2  0
 19 21  1  0
 21 22  1  0
 22 23  1  0
 23 24  1  0
 24 25  1  0
 25 26  1  0
 18 27  1  0
 27 28  2  0
 12  7  1  0
 28 15  1  0
 26 21  1  0
  3 29  1  0
  3 30  1  0
  8 31  1  0
  9 32  1  0
 10 33  1  0
 11 34  1  0
 13 35  1  0
 16 36  1  0
 17 37  1  0
 22 38  1  0
 22 39  1  0
 23 40  1  0
 23 41  1  0
 25 42  1  0
 25 43  1  0
 26 44  1  0
 26 45  1  0
 27 46  1  0
 28 47  1  0
M  CHG  2   4  -1  14  -1
M  END
>  <UniqueID>  (14) 
14

>  <SMILES>  (14) 
O=C(C[N-]C(=O)c1ccccc1O)[N-]c1ccc(C(=O)N2CCOCC2)cc1

>  <Energy>  (14) 
63.319289331842924

>  <Genealogy>  (14) 
O=C(C[N-]C(=O)c1ccccc1O)[N-]c1ccc(C(=O)N2CCOCC2)cc1 (protonated)
O=C(C[N-]C(=O)c1ccccc1O)[N-]c1ccc(C(=O)N2CCOCC2)cc1 (3D coordinates assigned)
O=C(C[N-]C(=O)c1ccccc1O)[N-]c1ccc(C(=O)N2CCOCC2)cc1 (nonaromatic ring conformer: 63.319289331842924 kcal/mol)

>  <smiles>  (14) 
O=C(CNC(=O)c1ccccc1O)Nc1ccc(C(=O)N2CCOCC2)cc1

>  <score_type>  (14) 
oracle

>  <origin>  (14) 
adg

>  <m_score__min__energy>  (14) 
-12.59

>  <m_primary>  (14) 
energy

$$$$
14:0
     RDKit          3D

 45 48  0  0  0  0  0  0  0  0999 V2000
   57.1600   34.2360   44.8690 C   0  0  0  0  0  0  0  0  0  0  0  0
   58.1920   34.1330   45.9530 C   0  0  0  0  0  0  0  0  0  0  0  0
   59.4490   34.7380   45.7910 C   0  0  0  0  0  0  0  0  0  0  0  0
   60.4240   34.6120   46.7860 C   0  0  0  0  0  0  0  0  0  0  0  0
   60.1570   33.8730   47.9450 C   0  0  0  0  0  0  0  0  0  0  0  0
   61.3760   33.7210   49.2070 S   0  0  0  0  0  0  0  0  0  0  0  0
   62.1920   34.9800   49.3130 O   0  0  0  0  0  0  0  0  0  0  0  0
   62.2850   32.5760   48.8650 O   0  0  0  0  0  0  0  0  0  0  0  0
   60.6130   33.4100   50.7350 N   0  0  0  0  0  0  0  0  0  0  0  0
   59.7450   32.2910   50.9870 C   0  0  0  0  0  0  0  0  0  0  0  0
   59.9910   31.0080   50.4230 C   0  0  0  0  0  0  0  0  0  0  0  0
   59.1290   29.9280   50.6910 C   0  0  0  0  0  0  0  0  0  0  0  0
   58.0360   30.1610   51.5180 C   0  0  0  0  0  0  0  0  0  0  0  0
   57.0910   29.2880   51.8930 N   0  0  0  0  0  0  0  0  0  0  0  0
   56.2880   30.0480   52.6830 C   0  0  0  0  0  0  0  0  0  0  0  0
   55.0350   29.5200   53.3050 C   0  0  0  0  0  0  0  0  0  0  0  0
   53.8550   30.3340   52.8510 C   0  0  0  0  0  0  0  0  0  0  0  0
   52.8030   30.6150   53.7390 C   0  0  0  0  0  0  0  0  0  0  0  0
   51.7240   31.4030   53.3260 C   0  0  0  0  0  0  0  0  0  0  0  0
   51.6920   31.9240   52.0290 C   0  0  0  0  0  0  0  0  0  0  0  0
   50.6200   32.7080   51.6210 O   0  0  0  0  0  0  0  0  0  0  0  0
   52.7430   31.6610   51.1440 C   0  0  0  0  0  0  0  0  0  0  0  0
   53.8230   30.8730   51.5530 C   0  0  0  0  0  0  0  0  0  0  0  0
   56.6750   31.3450   52.8020 N   0  0  0  0  0  0  0  0  0  0  0  0
   57.7890   31.3830   52.0580 C   0  0  0  0  0  0  0  0  0  0  0  0
   58.6160   32.4770   51.8170 C   0  0  0  0  0  0  0  0  0  0  0  0
   58.9120   33.2490   48.0980 C   0  0  0  0  0  0  0  0  0  0  0  0
   57.9360   33.3740   47.1050 C   0  0  0  0  0  0  0  0  0  0  0  0
   56.1621   34.3356   45.3210 H   0  0  0  0  0  0  0  0  0  0  0  0
   57.3698   35.1177   44.2456 H   0  0  0  0  0  0  0  0  0  0  0  0
   57.1914   33.3303   44.2456 H   0  0  0  0  0  0  0  0  0  0  0  0
   59.6675   35.3127   44.8789 H   0  0  0  0  0  0  0  0  0  0  0  0
   61.4039   35.0951   46.6576 H   0  0  0  0  0  0  0  0  0  0  0  0
   60.8660   34.0430   51.5270 H   0  0  0  0  0  0  0  0  0  0  0  0
   60.8640   30.8586   49.7707 H   0  0  0  0  0  0  0  0  0  0  0  0
   59.3140   28.9328   50.2605 H   0  0  0  0  0  0  0  0  0  0  0  0
   54.8923   28.4717   53.0040 H   0  0  0  0  0  0  0  0  0  0  0  0
   55.1195   29.5847   54.3998 H   0  0  0  0  0  0  0  0  0  0  0  0
   52.8282   30.2137   54.7629 H   0  0  0  0  0  0  0  0  0  0  0  0
   50.8991   31.6132   54.0227 H   0  0  0  0  0  0  0  0  0  0  0  0
   52.7197   32.0747   50.1250 H   0  0  0  0  0  0  0  0  0  0  0  0
   54.6508   30.6740   50.8565 H   0  0  0  0  0  0  0  0  0  0  0  0
   58.3967   33.4594   52.2605 H   0  0  0  0  0  0  0  0  0  0  0  0
   58.7018   32.6589   49.0022 H   0  0  0  0  0  0  0  0  0  0  0  0
   56.9632   32.8752   47.2273 H   0  0  0  0  0  0  0  0  0  0  0  0
  1  2  1  0
  2  3  2  0
  3  4  1  0
  4  5  2  0
  5  6  1  0
  6  7  2  0
  6  8  2  0
  6  9  1  0
  9 10  1  0
 10 11  2  0
 11 12  1  0
 12 13  2  0
 13 14  1  0
 14 15  1  0
 15 16  1  0
 16 17  1  0
 17 18  2  0
 18 19  1  0
 19 20  2  0
 20 21  1  0
 20 22  1  0
 22 23  2  0
 15 24  2  0
 24 25  1  0
 25 26  2  0
  5 27  1  0
 27 28  2  0
 28  2  1  0
 26 10  1  0
 25 13  1  0
 23 17  1  0
  1 29  1  0
  1 30  1  0
  1 31  1  0
  3 32  1  0
  4 33  1  0
  9 34  1  0
 11 35  1  0
 12 36  1  0
 16 37  1  0
 16 38  1  0
 18 39  1  0
 19 40  1  0
 22 41  1  0
 23 42  1  0
 26 43  1  0
 27 44  1  0
 28 45  1  0
M  CHG  2  14  -1  21  -1
M  END
>  <UniqueID>  (15) 
15

>  <SMILES>  (15) 
Cc1ccc(S(=O)(=O)Nc2ccc3[n-]c(Cc4ccc([O-])cc4)nc3c2)cc1

>  <Energy>  (15) 
84.0269940396204

>  <Genealogy>  (15) 
Cc1ccc(S(=O)(=O)Nc2ccc3[n-]c(Cc4ccc([O-])cc4)nc3c2)cc1 (protonated)
Cc1ccc(S(=O)(=O)Nc2ccc3[n-]c(Cc4ccc([O-])cc4)nc3c2)cc1 (3D coordinates assigned)
Cc1ccc(S(=O)(=O)Nc2ccc3[n-]c(Cc4ccc([O-])cc4)nc3c2)cc1 (optimized conformer: 84.0269940396204 kcal/mol)

>  <smiles>  (15) 
Cc1ccc(S(=O)(=O)Nc2ccc3[nH]c(Cc4ccc(O)cc4)nc3c2)cc1

>  <score_type>  (15) 
oracle

>  <origin>  (15) 
adg

>  <m_score__min__energy>  (15) 
-14.67

>  <m_primary>  (15) 
energy

$$$$
15:0
     RDKit          3D

 46 48  0  0  0  0  0  0  0  0999 V2000
   59.8410   33.4470   49.8820 H   0  0  0  0  0  0  0  0  0  0  0  0
   60.8290   33.5040   50.1020 O   0  0  0  0  0  0  0  0  0  0  0  0
   61.8030   33.5600   49.1060 C   0  0  0  0  0  0  0  0  0  0  0  0
   63.1430   33.3390   49.4500 C   0  0  0  0  0  0  0  0  0  0  0  0
   63.4201   33.1962   50.5049 H   0  0  0  0  0  0  0  0  0  0  0  0
   64.1260   33.2990   48.4650 C   0  0  0  0  0  0  0  0  0  0  0  0
   65.1790   33.1320   48.7359 H   0  0  0  0  0  0  0  0  0  0  0  0
   63.7600   33.4730   47.1320 C   0  0  0  0  0  0  0  0  0  0  0  0
   64.5229   33.4224   46.3412 H   0  0  0  0  0  0  0  0  0  0  0  0
   62.4620   33.7050   46.8090 N   0  0  0  0  0  0  0  0  0  0  0  0
   61.4720   33.7820   47.7420 C   0  0  0  0  0  0  0  0  0  0  0  0
   60.2620   34.0230   47.3180 N   0  0  0  0  0  0  0  0  0  0  0  0
   59.1320   33.1400   47.2560 C   0  0  0  0  0  0  0  0  0  0  0  0
   58.4550   32.9220   48.2970 O   0  0  0  0  0  0  0  0  0  0  0  0
   58.6840   32.6040   45.9440 C   0  0  0  0  0  0  0  0  0  0  0  0
   58.4440   31.2220   45.8290 C   0  0  0  0  0  0  0  0  0  0  0  0
   58.5871   30.5747   46.7068 H   0  0  0  0  0  0  0  0  0  0  0  0
   58.0270   30.6560   44.6200 C   0  0  0  0  0  0  0  0  0  0  0  0
   57.8210   29.2370   44.5600 N   0  0  0  0  0  0  0  0  0  0  0  0
   56.6940   28.5160   45.0790 C   0  0  0  0  0  0  0  0  0  0  0  0
   55.5260   28.9610   44.9080 O   0  0  0  0  0  0  0  0  0  0  0  0
   56.9030   27.2770   45.8630 C   0  0  0  0  0  0  0  0  0  0  0  0
   55.8690   26.3420   46.0220 C   0  0  0  0  0  0  0  0  0  0  0  0
   54.8873   26.5283   45.5620 H   0  0  0  0  0  0  0  0  0  0  0  0
   56.0740   25.2080   46.7410 N   0  0  0  0  0  0  0  0  0  0  0  0
   57.2610   24.9200   47.3390 C   0  0  0  0  0  0  0  0  0  0  0  0
   57.3570   23.8020   48.0050 N   0  0  0  0  0  0  0  0  0  0  0  0
   56.6280   22.5750   47.8400 C   0  0  0  0  0  0  0  0  0  0  0  0
   57.2220   21.4730   47.6950 O   0  0  0  0  0  0  0  0  0  0  0  0
   55.1390   22.5900   47.9340 C   0  0  0  0  0  0  0  0  0  0  0  0
   54.8384   22.5930   48.9921 H   0  0  0  0  0  0  0  0  0  0  0  0
   54.7495   23.4921   47.4396 H   0  0  0  0  0  0  0  0  0  0  0  0
   54.7314   21.6959   47.4396 H   0  0  0  0  0  0  0  0  0  0  0  0
   58.3320   25.8230   47.1840 C   0  0  0  0  0  0  0  0  0  0  0  0
   59.3090   25.6051   47.6401 H   0  0  0  0  0  0  0  0  0  0  0  0
   58.1470   26.9950   46.4490 C   0  0  0  0  0  0  0  0  0  0  0  0
   58.9810   27.7020   46.3282 H   0  0  0  0  0  0  0  0  0  0  0  0
   57.8900   31.4740   43.4900 C   0  0  0  0  0  0  0  0  0  0  0  0
   57.6073   31.0311   42.5236 H   0  0  0  0  0  0  0  0  0  0  0  0
   58.1110   32.8480   43.5870 C   0  0  0  0  0  0  0  0  0  0  0  0
   57.9918   33.4812   42.6954 H   0  0  0  0  0  0  0  0  0  0  0  0
   58.4840   33.4340   44.8090 C   0  0  0  0  0  0  0  0  0  0  0  0
   58.6640   34.9290   44.8620 C   0  0  0  0  0  0  0  0  0  0  0  0
   58.7034   35.2566   45.9113 H   0  0  0  0  0  0  0  0  0  0  0  0
   59.6017   35.2036   44.3567 H   0  0  0  0  0  0  0  0  0  0  0  0
   57.8183   35.4183   44.3567 H   0  0  0  0  0  0  0  0  0  0  0  0
  1  2  1  0
  2  3  1  0
  3  4  2  0
  4  5  1  0
  4  6  1  0
  6  7  1  0
  6  8  2  0
  8  9  1  0
  8 10  1  0
 10 11  1  0
 11 12  2  0
 12 13  1  0
 13 14  2  0
 13 15  1  0
 15 16  2  0
 16 17  1  0
 16 18  1  0
 18 19  1  0
 19 20  1  0
 20 21  2  0
 20 22  1  0
 22 23  2  0
 23 24  1  0
 23 25  1  0
 25 26  1  0
 26 27  2  3
 27 28  1  0
 28 29  2  0
 28 30  1  0
 30 31  1  0
 30 32  1  0
 30 33  1  0
 26 34  1  0
 34 35  1  0
 34 36  2  0
 36 37  1  0
 18 38  2  0
 38 39  1  0
 38 40  1  0
 40 41  1  0
 40 42  2  0
 42 43  1  0
 43 44  1  0
 43 45  1  0
 43 46  1  0
 11  3  1  0
 42 15  1  0
 36 22  1  0
M  CHG  3  10  -1  19  -1  25  -1
M  END
>  <UniqueID>  (16) 
16

>  <SMILES>  (16) 
CC(=O)N=c1ccc(C(=O)[N-]c2ccc(C)c(C(=O)/N=c3/[n-]cccc3O)c2)c[n-]1

>  <Energy>  (16) 
76.10593348246348

>  <Genealogy>  (16) 
CC(=O)N=c1ccc(C(=O)[N-]c2ccc(C)c(C(=O)N=c3[n-]cccc3O)c2)c[n-]1 (protonated)
CC(=O)N=c1ccc(C(=O)[N-]c2ccc(C)c(C(=O)/N=c3/[n-]cccc3O)c2)c[n-]1 (cis-trans isomerization)
CC(=O)N=c1ccc(C(=O)[N-]c2ccc(C)c(C(=O)/N=c3/[n-]cccc3O)c2)c[n-]1 (3D coordinates assigned)
CC(=O)N=c1ccc(C(=O)[N-]c2ccc(C)c(C(=O)/N=c3/[n-]cccc3O)c2)c[n-]1 (optimized conformer: 76.10593348246348 kcal/mol)

>  <smiles>  (16) 
CC(=O)N=c1ccc(C(=O)Nc2ccc(C)c(C(=O)N=c3[nH]cccc3O)c2)c[nH]1

>  <score_type>  (16) 
oracle

>  <origin>  (16) 
adg

>  <m_score__min__energy>  (16) 
-13.25

>  <m_primary>  (16) 
energy

$$$$
16:0
     RDKit          3D

 29 30  0  0  0  0  0  0  0  0999 V2000
   59.2613   28.1745   44.8059 H   0  0  0  0  0  0  0  0  0  0  0  0
   58.3510   28.6810   45.1590 C   0  0  0  0  0  0  0  0  0  0  0  0
   57.2290   27.9630   45.2940 C   0  0  0  0  0  0  0  0  0  0  0  0
   56.2856   28.3873   44.9199 H   0  0  0  0  0  0  0  0  0  0  0  0
   57.2010   26.6220   45.9250 C   0  0  0  0  0  0  0  0  0  0  0  0
   55.9660   26.0350   46.2490 C   0  0  0  0  0  0  0  0  0  0  0  0
   54.7770   26.7150   46.0010 O   0  0  0  0  0  0  0  0  0  0  0  0
   55.9230   24.8020   46.8210 N   0  0  0  0  0  0  0  0  0  0  0  0
   54.9980   24.3840   47.0660 H   0  0  0  0  0  0  0  0  0  0  0  0
   57.0640   24.1120   47.0790 C   0  0  0  0  0  0  0  0  0  0  0  0
   57.0090   22.9740   47.6150 O   0  0  0  0  0  0  0  0  0  0  0  0
   58.2690   24.6450   46.7540 N   0  0  0  0  0  0  0  0  0  0  0  0
   58.3660   25.8700   46.1780 C   0  0  0  0  0  0  0  0  0  0  0  0
   59.5040   26.3050   45.8540 O   0  0  0  0  0  0  0  0  0  0  0  0
   58.4180   30.1280   45.4650 C   0  0  0  0  0  0  0  0  0  0  0  0
   59.5170   30.5970   46.2040 C   0  0  0  0  0  0  0  0  0  0  0  0
   60.2911   29.8904   46.5379 H   0  0  0  0  0  0  0  0  0  0  0  0
   59.6350   31.9510   46.5180 C   0  0  0  0  0  0  0  0  0  0  0  0
   60.5049   32.3089   47.0883 H   0  0  0  0  0  0  0  0  0  0  0  0
   58.6520   32.8510   46.1100 C   0  0  0  0  0  0  0  0  0  0  0  0
   58.7535   33.9199   46.3488 H   0  0  0  0  0  0  0  0  0  0  0  0
   57.5390   32.3990   45.3990 C   0  0  0  0  0  0  0  0  0  0  0  0
   56.7655   33.1145   45.0829 H   0  0  0  0  0  0  0  0  0  0  0  0
   57.3990   31.0320   45.0830 C   0  0  0  0  0  0  0  0  0  0  0  0
   56.2580   30.5450   44.4220 O   0  0  0  0  0  0  0  0  0  0  0  0
   56.2280   30.1120   43.0670 C   0  0  0  0  0  0  0  0  0  0  0  0
   56.1520   29.0151   43.0342 H   0  0  0  0  0  0  0  0  0  0  0  0
   55.3584   30.5551   42.5596 H   0  0  0  0  0  0  0  0  0  0  0  0
   57.1504   30.4310   42.5596 H   0  0  0  0  0  0  0  0  0  0  0  0
  1  2  1  0
  2  3  2  0
  3  4  1  0
  3  5  1  0
  5  6  2  0
  6  7  1  0
  6  8  1  0
  8  9  1  0
  8 10  1  0
 10 11  2  0
 10 12  1  0
 12 13  1  0
 13 14  2  0
  2 15  1  0
 15 16  2  0
 16 17  1  0
 16 18  1  0
 18 19  1  0
 18 20  2  0
 20 21  1  0
 20 22  1  0
 22 23  1  0
 22 24  2  0
 24 25  1  0
 25 26  1  0
 26 27  1  0
 26 28  1  0
 26 29  1  0
 13  5  1  0
 24 15  1  0
M  CHG  2   7  -1  12  -1
M  END
>  <UniqueID>  (17) 
17

>  <SMILES>  (17) 
COc1ccccc1/C=C/c1c([O-])[nH]c(=O)[n-]c1=O

>  <Energy>  (17) 
40.2445494346625

>  <Genealogy>  (17) 
COc1ccccc1C=Cc1c([O-])[nH]c(=O)[n-]c1=O (protonated)
COc1ccccc1/C=C/c1c([O-])[nH]c(=O)[n-]c1=O (cis-trans isomerization)
COc1ccccc1/C=C/c1c([O-])[nH]c(=O)[n-]c1=O (3D coordinates assigned)
COc1ccccc1/C=C/c1c([O-])[nH]c(=O)[n-]c1=O (optimized conformer: 40.2445494346625 kcal/mol)

>  <smiles>  (17) 
COc1ccccc1C=Cc1c(O)[nH]c(=O)[nH]c1=O

>  <score_type>  (17) 
oracle

>  <origin>  (17) 
adg

>  <m_score__min__energy>  (17) 
-12.210000000000001

>  <m_primary>  (17) 
energy

$$$$
17:0
     RDKit          3D

 41 44  0  0  0  0  0  0  0  0999 V2000
   56.4050   26.8950   45.6080 O   0  0  0  0  0  0  0  0  0  0  0  0
   56.6430   28.1200   45.4420 C   0  0  0  0  0  0  0  0  0  0  0  0
   55.6140   28.9540   44.8890 N   0  0  0  0  0  0  0  0  0  0  0  0
   55.7400   29.7800   43.6910 C   0  0  0  0  0  0  0  0  0  0  0  0
   56.6690   30.9270   43.9380 C   0  0  0  0  0  0  0  0  0  0  0  0
   57.4510   31.5550   42.9890 C   0  0  0  0  0  0  0  0  0  0  0  0
   58.1510   32.5270   43.6700 C   0  0  0  0  0  0  0  0  0  0  0  0
   57.7510   32.4340   44.9880 C   0  0  0  0  0  0  0  0  0  0  0  0
   56.8660   31.4720   45.1160 O   0  0  0  0  0  0  0  0  0  0  0  0
   57.9490   28.6590   45.8610 C   0  0  0  0  0  0  0  0  0  0  0  0
   58.9960   28.8110   44.9450 C   0  0  0  0  0  0  0  0  0  0  0  0
   60.2160   29.3430   45.3610 C   0  0  0  0  0  0  0  0  0  0  0  0
   60.3930   29.7000   46.7090 C   0  0  0  0  0  0  0  0  0  0  0  0
   61.5930   30.2620   47.1700 O   0  0  0  0  0  0  0  0  0  0  0  0
   61.7560   31.5830   47.6150 C   0  0  0  0  0  0  0  0  0  0  0  0
   62.7710   32.4120   47.1040 C   0  0  0  0  0  0  0  0  0  0  0  0
   62.9230   33.7200   47.5760 C   0  0  0  0  0  0  0  0  0  0  0  0
   62.0770   34.2120   48.5720 C   0  0  0  0  0  0  0  0  0  0  0  0
   61.0740   33.3920   49.1070 C   0  0  0  0  0  0  0  0  0  0  0  0
   60.2170   33.8560   50.1130 C   0  0  0  0  0  0  0  0  0  0  0  0
   59.2290   33.0140   50.6270 C   0  0  0  0  0  0  0  0  0  0  0  0
   59.1060   31.7140   50.1290 C   0  0  0  0  0  0  0  0  0  0  0  0
   58.2180   30.9450   50.5840 O   0  0  0  0  0  0  0  0  0  0  0  0
   59.9430   31.2750   49.1520 N   0  0  0  0  0  0  0  0  0  0  0  0
   60.9170   32.0700   48.6300 C   0  0  0  0  0  0  0  0  0  0  0  0
   59.3620   29.5400   47.5840 N   0  0  0  0  0  0  0  0  0  0  0  0
   58.1640   29.0220   47.1970 C   0  0  0  0  0  0  0  0  0  0  0  0
   56.1346   29.1658   42.8682 H   0  0  0  0  0  0  0  0  0  0  0  0
   54.7484   30.1768   43.4277 H   0  0  0  0  0  0  0  0  0  0  0  0
   57.5041   31.3270   41.9142 H   0  0  0  0  0  0  0  0  0  0  0  0
   58.8808   33.2340   43.2487 H   0  0  0  0  0  0  0  0  0  0  0  0
   58.1181   33.0696   45.8073 H   0  0  0  0  0  0  0  0  0  0  0  0
   58.8565   28.5106   43.8961 H   0  0  0  0  0  0  0  0  0  0  0  0
   61.0343   29.4823   44.6392 H   0  0  0  0  0  0  0  0  0  0  0  0
   63.4499   32.0291   46.3278 H   0  0  0  0  0  0  0  0  0  0  0  0
   63.7124   34.3638   47.1608 H   0  0  0  0  0  0  0  0  0  0  0  0
   62.1976   35.2428   48.9366 H   0  0  0  0  0  0  0  0  0  0  0  0
   60.3221   34.8814   50.4972 H   0  0  0  0  0  0  0  0  0  0  0  0
   58.5527   33.3710   51.4177 H   0  0  0  0  0  0  0  0  0  0  0  0
   59.4920   29.8180   48.5830 H   0  0  0  0  0  0  0  0  0  0  0  0
   57.3610   28.8878   47.9367 H   0  0  0  0  0  0  0  0  0  0  0  0
  1  2  2  0
  2  3  1  0
  3  4  1  0
  4  5  1  0
  5  6  2  0
  6  7  1  0
  7  8  2  0
  8  9  1  0
  2 10  1  0
 10 11  2  0
 11 12  1  0
 12 13  2  0
 13 14  1  0
 14 15  1  0
 15 16  2  0
 16 17  1  0
 17 18  2  0
 18 19  1  0
 19 20  1  0
 20 21  2  0
 21 22  1  0
 22 23  2  0
 22 24  1  0
 24 25  1  0
 13 26  1  0
 26 27  2  0
  9  5  1  0
 27 10  1  0
 25 15  1  0
 25 19  2  0
  4 28  1  0
  4 29  1  0
  6 30  1  0
  7 31  1  0
  8 32  1  0
 11 33  1  0
 12 34  1  0
 16 35  1  0
 17 36  1  0
 18 37  1  0
 20 38  1  0
 21 39  1  0
 26 40  1  0
 27 41  1  0
M  CHG  3   3  -1  24  -1  26   1
M  END
>  <UniqueID>  (18) 
18

>  <SMILES>  (18) 
O=C([N-]Cc1ccco1)c1ccc(Oc2cccc3ccc(=O)[n-]c23)[nH+]c1

>  <Energy>  (18) 
83.56734505401829

>  <Genealogy>  (18) 
O=C([N-]Cc1ccco1)c1ccc(Oc2cccc3ccc(=O)[n-]c23)[nH+]c1 (protonated)
O=C([N-]Cc1ccco1)c1ccc(Oc2cccc3ccc(=O)[n-]c23)[nH+]c1 (3D coordinates assigned)
O=C([N-]Cc1ccco1)c1ccc(Oc2cccc3ccc(=O)[n-]c23)[nH+]c1 (optimized conformer: 83.56734505401829 kcal/mol)

>  <smiles>  (18) 
O=C(NCc1ccco1)c1ccc(Oc2cccc3ccc(=O)[nH]c23)nc1

>  <score_type>  (18) 
oracle

>  <origin>  (18) 
adg

>  <m_score__min__energy>  (18) 
-9.5999999999999996

>  <m_primary>  (18) 
energy

$$$$
18:0
     RDKit          3D

 43 44  0  0  0  0  0  0  0  0999 V2000
   60.0320   35.0680   45.9910 C   0  0  0  0  0  0  0  0  0  0  0  0
   58.9460   34.8330   45.1000 O   0  0  0  0  0  0  0  0  0  0  0  0
   58.4040   33.5670   44.8190 C   0  0  0  0  0  0  0  0  0  0  0  0
   58.2980   33.0800   43.5010 C   0  0  0  0  0  0  0  0  0  0  0  0
   57.7520   31.8170   43.2550 C   0  0  0  0  0  0  0  0  0  0  0  0
   57.3000   31.0250   44.3170 C   0  0  0  0  0  0  0  0  0  0  0  0
   56.5790   29.4430   44.0210 S   0  0  0  0  0  0  0  0  0  0  0  0
   55.1440   29.4730   44.4700 O   0  0  0  0  0  0  0  0  0  0  0  0
   56.6110   29.1160   42.5520 O   0  0  0  0  0  0  0  0  0  0  0  0
   57.4290   28.2240   44.9150 N   0  0  0  0  0  0  0  0  0  0  0  0
   58.8700   28.4370   44.8040 C   0  0  0  0  0  0  0  0  0  0  0  0
   59.4570   28.6480   46.1970 C   0  0  0  0  0  0  0  0  0  0  0  0
   60.9040   29.7620   46.1190 S   0  0  0  0  0  0  0  0  0  0  0  0
   60.5030   30.7700   47.5900 C   0  0  0  0  0  0  0  0  0  0  0  0
   61.5030   31.8780   47.7770 C   0  0  0  0  0  0  0  0  0  0  0  0
   61.1860   33.0000   48.5590 C   0  0  0  0  0  0  0  0  0  0  0  0
   62.1180   34.0270   48.7250 C   0  0  0  0  0  0  0  0  0  0  0  0
   63.3710   33.9420   48.1150 C   0  0  0  0  0  0  0  0  0  0  0  0
   63.6900   32.8340   47.3280 C   0  0  0  0  0  0  0  0  0  0  0  0
   62.7640   31.8020   47.1620 C   0  0  0  0  0  0  0  0  0  0  0  0
   57.4140   31.4970   45.6300 C   0  0  0  0  0  0  0  0  0  0  0  0
   57.9580   32.7650   45.8870 C   0  0  0  0  0  0  0  0  0  0  0  0
   58.0840   33.2560   47.3010 C   0  0  0  0  0  0  0  0  0  0  0  0
   59.6775   34.9913   47.0295 H   0  0  0  0  0  0  0  0  0  0  0  0
   60.8186   34.3193   45.8158 H   0  0  0  0  0  0  0  0  0  0  0  0
   60.4387   36.0749   45.8158 H   0  0  0  0  0  0  0  0  0  0  0  0
   58.6471   33.6977   42.6604 H   0  0  0  0  0  0  0  0  0  0  0  0
   57.6772   31.4440   42.2229 H   0  0  0  0  0  0  0  0  0  0  0  0
   59.3368   27.5567   44.3379 H   0  0  0  0  0  0  0  0  0  0  0  0
   59.0648   29.3242   44.1835 H   0  0  0  0  0  0  0  0  0  0  0  0
   58.6914   29.0940   46.8488 H   0  0  0  0  0  0  0  0  0  0  0  0
   59.7775   27.6757   46.5993 H   0  0  0  0  0  0  0  0  0  0  0  0
   59.5017   31.2075   47.4635 H   0  0  0  0  0  0  0  0  0  0  0  0
   60.5321   30.1201   48.4770 H   0  0  0  0  0  0  0  0  0  0  0  0
   60.2005   33.0705   49.0425 H   0  0  0  0  0  0  0  0  0  0  0  0
   61.8643   34.9047   49.3376 H   0  0  0  0  0  0  0  0  0  0  0  0
   64.1066   34.7479   48.2545 H   0  0  0  0  0  0  0  0  0  0  0  0
   64.6728   32.7737   46.8376 H   0  0  0  0  0  0  0  0  0  0  0  0
   63.0226   30.9268   46.5478 H   0  0  0  0  0  0  0  0  0  0  0  0
   57.0745   30.8691   46.4669 H   0  0  0  0  0  0  0  0  0  0  0  0
   57.8721   32.4302   47.9961 H   0  0  0  0  0  0  0  0  0  0  0  0
   59.1060   33.6254   47.4712 H   0  0  0  0  0  0  0  0  0  0  0  0
   57.3661   34.0719   47.4712 H   0  0  0  0  0  0  0  0  0  0  0  0
  1  2  1  0
  2  3  1  0
  3  4  2  0
  4  5  1  0
  5  6  2  0
  6  7  1  0
  7  8  2  0
  7  9  2  0
  7 10  1  0
 10 11  1  0
 11 12  1  0
 12 13  1  0
 13 14  1  0
 14 15  1  0
 15 16  2  0
 16 17  1  0
 17 18  2  0
 18 19  1  0
 19 20  2  0
  6 21  1  0
 21 22  2  0
 22 23  1  0
 22  3  1  0
 20 15  1  0
  1 24  1  0
  1 25  1  0
  1 26  1  0
  4 27  1  0
  5 28  1  0
 11 29  1  0
 11 30  1  0
 12 31  1  0
 12 32  1  0
 14 33  1  0
 14 34  1  0
 16 35  1  0
 17 36  1  0
 18 37  1  0
 19 38  1  0
 20 39  1  0
 21 40  1  0
 23 41  1  0
 23 42  1  0
 23 43  1  0
M  CHG  1  10  -1
M  END
>  <UniqueID>  (19) 
19

>  <SMILES>  (19) 
COc1ccc(S(=O)(=O)[N-]CCSCc2ccccc2)cc1C

>  <Energy>  (19) 
30.33495552478874

>  <Genealogy>  (19) 
COc1ccc(S(=O)(=O)[N-]CCSCc2ccccc2)cc1C (protonated)
COc1ccc(S(=O)(=O)[N-]CCSCc2ccccc2)cc1C (3D coordinates assigned)
COc1ccc(S(=O)(=O)[N-]CCSCc2ccccc2)cc1C (optimized conformer: 30.33495552478874 kcal/mol)

>  <smiles>  (19) 
COc1ccc(S(=O)(=O)NCCSCc2ccccc2)cc1C

>  <score_type>  (19) 
oracle

>  <origin>  (19) 
adg

>  <m_score__min__energy>  (19) 
-8.9399999999999995

>  <m_primary>  (19) 
energy

$$$$
19:0
     RDKit          3D

 54 57  0  0  0  0  0  0  0  0999 V2000
   60.3480   29.2170   47.5520 C   0  0  0  0  0  0  0  0  0  0  0  0
   59.9070   30.1710   46.7290 C   0  0  0  0  0  0  0  0  0  0  0  0
   59.5800   29.8660   45.2950 C   0  0  0  0  0  0  0  0  0  0  0  0
   58.1310   29.8990   45.0810 N   0  0  0  0  0  0  0  0  0  0  0  0
   57.3910   30.8200   44.4270 C   0  0  0  0  0  0  0  0  0  0  0  0
   57.9170   32.0610   43.7690 C   0  0  0  0  0  0  0  0  0  0  0  0
   58.4660   33.0000   44.7960 C   0  0  0  0  0  0  0  0  0  0  0  0
   59.1270   34.1830   44.4710 C   0  0  0  0  0  0  0  0  0  0  0  0
   59.5390   34.9600   45.9080 S   0  0  0  0  0  0  0  0  0  0  0  0
   58.8640   33.7590   46.8660 C   0  0  0  0  0  0  0  0  0  0  0  0
   58.8310   33.8090   48.1660 N   0  0  0  0  0  0  0  0  0  0  0  0
   59.8300   33.2910   49.0590 C   0  0  0  0  0  0  0  0  0  0  0  0
   59.4630   32.8770   50.1910 O   0  0  0  0  0  0  0  0  0  0  0  0
   61.2730   33.2660   48.7200 C   0  0  0  0  0  0  0  0  0  0  0  0
   61.7170   32.7370   47.4950 C   0  0  0  0  0  0  0  0  0  0  0  0
   63.0800   32.7280   47.1820 C   0  0  0  0  0  0  0  0  0  0  0  0
   64.0080   33.2640   48.0780 C   0  0  0  0  0  0  0  0  0  0  0  0
   63.5760   33.8060   49.2920 C   0  0  0  0  0  0  0  0  0  0  0  0
   62.2120   33.8180   49.6080 C   0  0  0  0  0  0  0  0  0  0  0  0
   58.3140   32.7710   46.1280 N   0  0  0  0  0  0  0  0  0  0  0  0
   56.0760   30.5360   44.5010 N   0  0  0  0  0  0  0  0  0  0  0  0
   55.9590   29.4200   45.2050 N   0  0  0  0  0  0  0  0  0  0  0  0
   57.2010   29.0470   45.5600 C   0  0  0  0  0  0  0  0  0  0  0  0
   57.5410   27.5780   46.5380 S   0  0  0  0  0  0  0  0  0  0  0  0
   57.0070   26.3810   45.2640 C   0  0  0  0  0  0  0  0  0  0  0  0
   55.7300   25.7040   45.6490 C   0  0  0  0  0  0  0  0  0  0  0  0
   54.8460   26.3510   46.2730 O   0  0  0  0  0  0  0  0  0  0  0  0
   55.5420   24.3180   45.3380 N   0  0  0  0  0  0  0  0  0  0  0  0
   56.5540   23.4100   44.8820 C   0  0  0  0  0  0  0  0  0  0  0  0
   56.3480   22.5560   43.7810 C   0  0  0  0  0  0  0  0  0  0  0  0
   57.3690   21.7000   43.3550 C   0  0  0  0  0  0  0  0  0  0  0  0
   58.6010   21.6970   44.0130 C   0  0  0  0  0  0  0  0  0  0  0  0
   58.8190   22.5580   45.0930 C   0  0  0  0  0  0  0  0  0  0  0  0
   57.8020   23.4170   45.5190 C   0  0  0  0  0  0  0  0  0  0  0  0
   60.5824   29.4591   48.5991 H   0  0  0  0  0  0  0  0  0  0  0  0
   60.4770   28.1888   47.1831 H   0  0  0  0  0  0  0  0  0  0  0  0
   59.7811   31.1964   47.1068 H   0  0  0  0  0  0  0  0  0  0  0  0
   60.0587   30.6152   44.6473 H   0  0  0  0  0  0  0  0  0  0  0  0
   59.9528   28.8602   45.0512 H   0  0  0  0  0  0  0  0  0  0  0  0
   58.7156   31.7872   43.0638 H   0  0  0  0  0  0  0  0  0  0  0  0
   57.0949   32.5578   43.2329 H   0  0  0  0  0  0  0  0  0  0  0  0
   59.3419   34.5457   43.4550 H   0  0  0  0  0  0  0  0  0  0  0  0
   60.9885   32.3282   46.7793 H   0  0  0  0  0  0  0  0  0  0  0  0
   63.4218   32.2982   46.2289 H   0  0  0  0  0  0  0  0  0  0  0  0
   65.0792   33.2596   47.8282 H   0  0  0  0  0  0  0  0  0  0  0  0
   64.3079   34.2232   49.9993 H   0  0  0  0  0  0  0  0  0  0  0  0
   61.8737   34.2617   50.5560 H   0  0  0  0  0  0  0  0  0  0  0  0
   56.8566   26.9139   44.3135 H   0  0  0  0  0  0  0  0  0  0  0  0
   57.7880   25.6130   45.1630 H   0  0  0  0  0  0  0  0  0  0  0  0
   55.3820   22.5622   43.2549 H   0  0  0  0  0  0  0  0  0  0  0  0
   57.2013   21.0281   42.5003 H   0  0  0  0  0  0  0  0  0  0  0  0
   59.3998   21.0173   43.6816 H   0  0  0  0  0  0  0  0  0  0  0  0
   59.7912   22.5593   45.6075 H   0  0  0  0  0  0  0  0  0  0  0  0
   57.9825   24.1029   46.3598 H   0  0  0  0  0  0  0  0  0  0  0  0
  1  2  2  0
  2  3  1  0
  3  4  1  0
  4  5  1  0
  5  6  1  0
  6  7  1  0
  7  8  2  0
  8  9  1  0
  9 10  1  0
 10 11  2  3
 11 12  1  0
 12 13  2  0
 12 14  1  0
 14 15  2  0
 15 16  1  0
 16 17  2  0
 17 18  1  0
 18 19  2  0
 10 20  1  0
  5 21  2  0
 21 22  1  0
 22 23  2  0
 23 24  1  0
 24 25  1  0
 25 26  1  0
 26 27  2  0
 26 28  1  0
 28 29  1  0
 29 30  2  0
 30 31  1  0
 31 32  2  0
 32 33  1  0
 33 34  2  0
 23  4  1  0
 34 29  1  0
 20  7  1  0
 19 14  1  0
  1 35  1  0
  1 36  1  0
  2 37  1  0
  3 38  1  0
  3 39  1  0
  6 40  1  0
  6 41  1  0
  8 42  1  0
 15 43  1  0
 16 44  1  0
 17 45  1  0
 18 46  1  0
 19 47  1  0
 25 48  1  0
 25 49  1  0
 30 50  1  0
 31 51  1  0
 32 52  1  0
 33 53  1  0
 34 54  1  0
M  CHG  2  20  -1  28  -1
M  END
>  <UniqueID>  (20) 
20

>  <SMILES>  (20) 
C=CCn1c(Cc2csc(=NC(=O)c3ccccc3)[n-]2)nnc1SCC(=O)[N-]c1ccccc1

>  <Energy>  (20) 
119.08671537962731

>  <Genealogy>  (20) 
C=CCn1c(Cc2csc(=NC(=O)c3ccccc3)[n-]2)nnc1SCC(=O)[N-]c1ccccc1 (protonated)
C=CCn1c(Cc2csc(=NC(=O)c3ccccc3)[n-]2)nnc1SCC(=O)[N-]c1ccccc1 (3D coordinates assigned)
C=CCn1c(Cc2csc(=NC(=O)c3ccccc3)[n-]2)nnc1SCC(=O)[N-]c1ccccc1 (optimized conformer: 119.08671537962731 kcal/mol)

>  <smiles>  (20) 
C=CCn1c(Cc2csc(=NC(=O)c3ccccc3)[nH]2)nnc1SCC(=O)Nc1ccccc1

>  <score_type>  (20) 
oracle

>  <origin>  (20) 
adg

>  <m_score__min__energy>  (20) 
-12.51

>  <m_primary>  (20) 
energy

$$$$
20:0
     RDKit          3D

 61 64  0  0  0  0  0  0  0  0999 V2000
   63.3400   31.8100   46.9820 N   0  0  0  0  0  0  0  0  0  0  0  0
   62.3730   32.5490   48.2100 S   0  0  0  0  0  0  0  0  0  0  0  0
   62.0480   31.5080   49.2450 O   0  0  0  0  0  0  0  0  0  0  0  0
   63.1440   33.6630   48.8620 O   0  0  0  0  0  0  0  0  0  0  0  0
   60.8760   33.1910   47.5120 C   0  0  0  0  0  0  0  0  0  0  0  0
   60.8010   34.5660   47.2330 C   0  0  0  0  0  0  0  0  0  0  0  0
   59.6250   35.1250   46.7250 C   0  0  0  0  0  0  0  0  0  0  0  0
   58.5120   34.3200   46.4910 C   0  0  0  0  0  0  0  0  0  0  0  0
   58.5730   32.9520   46.7520 C   0  0  0  0  0  0  0  0  0  0  0  0
   59.7510   32.3710   47.2500 C   0  0  0  0  0  0  0  0  0  0  0  0
   59.7690   30.9110   47.4760 C   0  0  0  0  0  0  0  0  0  0  0  0
   59.0440   30.3580   48.5430 C   0  0  0  0  0  0  0  0  0  0  0  0
   59.0320   28.9750   48.7440 C   0  0  0  0  0  0  0  0  0  0  0  0
   59.7420   28.1290   47.8780 C   0  0  0  0  0  0  0  0  0  0  0  0
   59.6660   26.6360   48.0390 C   0  0  0  0  0  0  0  0  0  0  0  0
   58.4350   26.1410   47.4370 N   0  0  0  0  0  0  0  0  0  0  0  0
   58.1370   26.2500   46.0410 C   0  0  0  0  0  0  0  0  0  0  0  0
   58.8830   25.6800   45.2010 O   0  0  0  0  0  0  0  0  0  0  0  0
   56.9750   27.0790   45.5480 C   0  0  2  0  0  0  0  0  0  0  0  0
   57.0590   28.5750   45.9450 C   0  0  0  0  0  0  0  0  0  0  0  0
   57.1120   29.5260   44.7660 C   0  0  0  0  0  0  0  0  0  0  0  0
   58.0310   30.5910   44.7560 C   0  0  0  0  0  0  0  0  0  0  0  0
   58.0940   31.4620   43.6640 C   0  0  0  0  0  0  0  0  0  0  0  0
   57.2330   31.2860   42.5790 C   0  0  0  0  0  0  0  0  0  0  0  0
   56.2970   30.2480   42.5910 C   0  0  0  0  0  0  0  0  0  0  0  0
   56.2270   29.3770   43.6820 C   0  0  0  0  0  0  0  0  0  0  0  0
   55.7120   26.5100   46.0230 N   0  0  0  0  0  0  0  0  0  0  0  0
   55.1340   25.2550   45.6360 C   0  0  0  0  0  0  0  0  0  0  0  0
   53.8960   25.0880   45.7980 O   0  0  0  0  0  0  0  0  0  0  0  0
   55.9350   24.1560   45.0610 C   0  0  0  0  0  0  0  0  0  0  0  0
   56.6990   23.3340   45.9060 C   0  0  0  0  0  0  0  0  0  0  0  0
   57.4450   22.2760   45.3760 C   0  0  0  0  0  0  0  0  0  0  0  0
   57.4230   22.0260   44.0020 C   0  0  0  0  0  0  0  0  0  0  0  0
   56.6460   22.8240   43.1570 C   0  0  0  0  0  0  0  0  0  0  0  0
   55.8960   23.8800   43.6850 C   0  0  0  0  0  0  0  0  0  0  0  0
   60.4540   28.6830   46.8040 C   0  0  0  0  0  0  0  0  0  0  0  0
   60.4620   30.0650   46.6010 C   0  0  0  0  0  0  0  0  0  0  0  0
   64.3360   32.0370   47.2010 H   0  0  0  0  0  0  0  0  0  0  0  0
   61.6753   35.2080   47.4159 H   0  0  0  0  0  0  0  0  0  0  0  0
   59.5780   36.2027   46.5095 H   0  0  0  0  0  0  0  0  0  0  0  0
   57.5847   34.7642   46.1001 H   0  0  0  0  0  0  0  0  0  0  0  0
   57.6907   32.3218   46.5663 H   0  0  0  0  0  0  0  0  0  0  0  0
   58.4832   31.0155   49.2235 H   0  0  0  0  0  0  0  0  0  0  0  0
   58.4641   28.5481   49.5838 H   0  0  0  0  0  0  0  0  0  0  0  0
   60.5296   26.1699   47.5421 H   0  0  0  0  0  0  0  0  0  0  0  0
   59.6762   26.3833   49.1095 H   0  0  0  0  0  0  0  0  0  0  0  0
   57.0220   27.0455   44.4495 H   0  0  0  0  0  0  0  0  0  0  0  0
   56.1735   28.8224   46.5489 H   0  0  0  0  0  0  0  0  0  0  0  0
   58.0005   28.7038   46.4990 H   0  0  0  0  0  0  0  0  0  0  0  0
   58.7045   30.7395   45.6129 H   0  0  0  0  0  0  0  0  0  0  0  0
   58.8223   32.2864   43.6597 H   0  0  0  0  0  0  0  0  0  0  0  0
   57.2913   31.9641   41.7149 H   0  0  0  0  0  0  0  0  0  0  0  0
   55.6134   30.1162   41.7393 H   0  0  0  0  0  0  0  0  0  0  0  0
   55.4774   28.5721   43.6933 H   0  0  0  0  0  0  0  0  0  0  0  0
   56.7107   23.5232   46.9895 H   0  0  0  0  0  0  0  0  0  0  0  0
   58.0488   21.6411   46.0411 H   0  0  0  0  0  0  0  0  0  0  0  0
   58.0177   21.2003   43.5843 H   0  0  0  0  0  0  0  0  0  0  0  0
   56.6245   22.6212   42.0761 H   0  0  0  0  0  0  0  0  0  0  0  0
   55.2734   24.4964   43.0198 H   0  0  0  0  0  0  0  0  0  0  0  0
   61.0088   28.0259   46.1182 H   0  0  0  0  0  0  0  0  0  0  0  0
   61.0148   30.4906   45.7505 H   0  0  0  0  0  0  0  0  0  0  0  0
  1  2  1  0
  2  3  2  0
  2  4  2  0
  2  5  1  0
  5  6  2  0
  6  7  1  0
  7  8  2  0
  8  9  1  0
  9 10  2  0
 10 11  1  0
 11 12  2  0
 12 13  1  0
 13 14  2  0
 14 15  1  0
 15 16  1  0
 16 17  1  0
 17 18  2  0
 17 19  1  0
 19 20  1  0
 20 21  1  0
 21 22  2  0
 22 23  1  0
 23 24  2  0
 24 25  1  0
 25 26  2  0
 19 27  1  0
 27 28  1  0
 28 29  2  0
 28 30  1  0
 30 31  2  0
 31 32  1  0
 32 33  2  0
 33 34  1  0
 34 35  2  0
 14 36  1  0
 36 37  2  0
 10  5  1  0
 37 11  1  0
 26 21  1  0
 35 30  1  0
  1 38  1  0
  6 39  1  0
  7 40  1  0
  8 41  1  0
  9 42  1  0
 12 43  1  0
 13 44  1  0
 15 45  1  0
 15 46  1  0
 19 47  1  6
 20 48  1  0
 20 49  1  0
 22 50  1  0
 23 51  1  0
 24 52  1  0
 25 53  1  0
 26 54  1  0
 31 55  1  0
 32 56  1  0
 33 57  1  0
 34 58  1  0
 35 59  1  0
 36 60  1  0
 37 61  1  0
M  CHG  3   1  -1  16  -1  27  -1
M  END
>  <UniqueID>  (21) 
21

>  <SMILES>  (21) 
[NH-]S(=O)(=O)c1ccccc1-c1ccc(C[N-]C(=O)[C@H](Cc2ccccc2)[N-]C(=O)c2ccccc2)cc1

>  <Energy>  (21) 
75.28939624201948

>  <Genealogy>  (21) 
[NH-]S(=O)(=O)c1ccccc1-c1ccc(C[N-]C(=O)C(Cc2ccccc2)[N-]C(=O)c2ccccc2)cc1 (protonated)
[NH-]S(=O)(=O)c1ccccc1-c1ccc(C[N-]C(=O)[C@H](Cc2ccccc2)[N-]C(=O)c2ccccc2)cc1 (chirality)
[NH-]S(=O)(=O)c1ccccc1-c1ccc(C[N-]C(=O)[C@H](Cc2ccccc2)[N-]C(=O)c2ccccc2)cc1 (3D coordinates assigned)
[NH-]S(=O)(=O)c1ccccc1-c1ccc(C[N-]C(=O)[C@H](Cc2ccccc2)[N-]C(=O)c2ccccc2)cc1 (optimized conformer: 75.28939624201948 kcal/mol)

>  <smiles>  (21) 
NS(=O)(=O)c1ccccc1-c1ccc(CNC(=O)C(Cc2ccccc2)NC(=O)c2ccccc2)cc1

>  <score_type>  (21) 
oracle

>  <origin>  (21) 
adg

>  <m_score__min__energy>  (21) 
-14.66

>  <m_primary>  (21) 
energy

$$$$
21:0
     RDKit          3D

 35 37  0  0  0  0  0  0  0  0999 V2000
   58.1250   21.8630   44.5680 O   0  0  0  0  0  0  0  0  0  0  0  0
   57.9120   23.0180   45.0260 C   0  0  0  0  0  0  0  0  0  0  0  0
   58.9700   23.7490   45.4520 N   0  0  0  0  0  0  0  0  0  0  0  0
   58.8350   24.9910   45.9740 C   0  0  0  0  0  0  0  0  0  0  0  0
   59.9710   25.6790   46.4000 O   0  0  0  0  0  0  0  0  0  0  0  0
   57.5650   25.5760   46.0920 C   0  0  0  0  0  0  0  0  0  0  0  0
   57.4820   26.9120   46.7220 C   0  0  0  0  0  0  0  0  0  0  0  0
   57.6310   28.0520   46.0250 C   0  0  0  0  0  0  0  0  0  0  0  0
   57.3590   28.0750   44.5430 C   0  0  0  0  0  0  0  0  0  0  0  0
   56.6150   29.3640   44.1340 C   0  0  0  0  0  0  0  0  0  0  0  0
   57.0310   30.5830   44.8730 N   0  0  0  0  0  0  0  0  0  0  0  0
   57.2070   31.5950   43.9840 O   0  0  0  0  0  0  0  0  0  0  0  0
   58.2800   30.4340   45.6380 C   0  0  0  0  0  0  0  0  0  0  0  0
   58.1310   29.3200   46.6760 C   0  0  0  0  0  0  0  0  0  0  0  0
   56.4240   24.8680   45.6230 C   0  0  0  0  0  0  0  0  0  0  0  0
   55.1120   25.4180   45.6500 C   0  0  0  0  0  0  0  0  0  0  0  0
   54.8640   26.7120   46.0940 O   0  0  0  0  0  0  0  0  0  0  0  0
   54.0210   24.6670   45.2140 C   0  0  0  0  0  0  0  0  0  0  0  0
   54.2000   23.3790   44.7270 C   0  0  0  0  0  0  0  0  0  0  0  0
   55.4750   22.8200   44.6530 C   0  0  0  0  0  0  0  0  0  0  0  0
   55.5990   21.5340   44.1360 O   0  0  0  0  0  0  0  0  0  0  0  0
   56.6030   23.5530   45.0950 C   0  0  0  0  0  0  0  0  0  0  0  0
   60.0980   26.6590   46.1790 H   0  0  0  0  0  0  0  0  0  0  0  0
   57.2908   26.9752   47.8034 H   0  0  0  0  0  0  0  0  0  0  0  0
   58.3152   28.0250   44.0015 H   0  0  0  0  0  0  0  0  0  0  0  0
   56.7260   27.2115   44.2908 H   0  0  0  0  0  0  0  0  0  0  0  0
   56.7923   29.5362   43.0621 H   0  0  0  0  0  0  0  0  0  0  0  0
   55.5547   29.2006   44.3772 H   0  0  0  0  0  0  0  0  0  0  0  0
   57.8670   31.2410   43.3320 H   0  0  0  0  0  0  0  0  0  0  0  0
   59.1004   30.1826   44.9497 H   0  0  0  0  0  0  0  0  0  0  0  0
   58.5011   31.3799   46.1542 H   0  0  0  0  0  0  0  0  0  0  0  0
   59.1086   29.1264   47.1417 H   0  0  0  0  0  0  0  0  0  0  0  0
   57.4040   29.6389   47.4374 H   0  0  0  0  0  0  0  0  0  0  0  0
   53.0101   25.0985   45.2562 H   0  0  0  0  0  0  0  0  0  0  0  0
   53.3284   22.7948   44.3968 H   0  0  0  0  0  0  0  0  0  0  0  0
  1  2  2  0
  2  3  1  0
  3  4  1  0
  4  5  1  0
  4  6  2  0
  6  7  1  0
  7  8  2  3
  8  9  1  0
  9 10  1  0
 10 11  1  0
 11 12  1  0
 11 13  1  0
 13 14  1  0
  6 15  1  0
 15 16  2  0
 16 17  1  0
 16 18  1  0
 18 19  2  0
 19 20  1  0
 20 21  1  0
 20 22  2  0
 22  2  1  0
 14  8  1  0
 22 15  1  0
  5 23  1  0
  7 24  1  0
  9 25  1  0
  9 26  1  0
 10 27  1  0
 10 28  1  0
 12 29  1  0
 13 30  1  0
 13 31  1  0
 14 32  1  0
 14 33  1  0
 18 34  1  0
 19 35  1  0
M  CHG  3   3  -1  17  -1  21  -1
M  END
>  <UniqueID>  (22) 
22

>  <SMILES>  (22) 
O=c1[n-]c(O)c(C=C2CCN(O)CC2)c2c([O-])ccc([O-])c12

>  <Energy>  (22) 
59.49953758813693

>  <Genealogy>  (22) 
O=c1[n-]c(O)c(C=C2CCN(O)CC2)c2c([O-])ccc([O-])c12 (protonated)
O=c1[n-]c(O)c(C=C2CCN(O)CC2)c2c([O-])ccc([O-])c12 (3D coordinates assigned)
O=c1[n-]c(O)c(C=C2CCN(O)CC2)c2c([O-])ccc([O-])c12 (nonaromatic ring conformer: 59.49953758813693 kcal/mol)

>  <smiles>  (22) 
O=c1[nH]c(O)c(C=C2CCN(O)CC2)c2c(O)ccc(O)c12

>  <score_type>  (22) 
oracle

>  <origin>  (22) 
adg

>  <m_score__min__energy>  (22) 
-12.960000000000001

>  <m_primary>  (22) 
energy

$$$$
22:0
     RDKit          3D

 41 45  0  0  0  0  0  0  0  0999 V2000
   53.1974   32.2028   52.8914 H   0  0  0  0  0  0  0  0  0  0  0  0
   53.2500   31.3440   52.2060 C   0  0  0  0  0  0  0  0  0  0  0  0
   52.3190   31.3330   51.0590 C   0  0  0  0  0  0  0  0  0  0  0  0
   52.3020   30.4260   50.0670 N   0  0  0  0  0  0  0  0  0  0  0  0
   51.2920   30.8450   49.2720 C   0  0  0  0  0  0  0  0  0  0  0  0
   50.9650   30.2430   48.2170 O   0  0  0  0  0  0  0  0  0  0  0  0
   50.6610   31.9580   49.7000 N   0  0  0  0  0  0  0  0  0  0  0  0
   51.3240   32.2540   50.8290 C   0  0  0  0  0  0  0  0  0  0  0  0
   51.0250   33.3470   51.6350 O   0  0  0  0  0  0  0  0  0  0  0  0
   54.1560   30.3900   52.4800 C   0  0  0  0  0  0  0  0  0  0  0  0
   53.9730   29.0720   52.8960 C   0  0  0  0  0  0  0  0  0  0  0  0
   53.0011   28.5844   53.0625 H   0  0  0  0  0  0  0  0  0  0  0  0
   55.1820   28.4890   53.0620 N   0  0  0  0  0  0  0  0  0  0  0  0
   55.3050   27.5030   53.3630 H   0  0  0  0  0  0  0  0  0  0  0  0
   56.1260   29.3750   52.7730 N   0  0  0  0  0  0  0  0  0  0  0  0
   57.4960   29.2770   52.7840 C   0  0  0  0  0  0  0  0  0  0  0  0
   58.1590   28.2070   53.1270 N   0  0  0  0  0  0  0  0  0  0  0  0
   58.5380   27.7380   54.4530 C   0  0  0  0  0  0  0  0  0  0  0  0
   59.2772   26.9845   54.1436 H   0  0  0  0  0  0  0  0  0  0  0  0
   57.3740   27.8020   55.4250 C   0  0  0  0  0  0  0  0  0  0  0  0
   56.3821   28.1237   55.0746 H   0  0  0  0  0  0  0  0  0  0  0  0
   56.8992   27.0911   56.1172 H   0  0  0  0  0  0  0  0  0  0  0  0
   58.5050   28.8090   55.5300 C   0  0  0  0  0  0  0  0  0  0  0  0
   58.3329   29.8602   55.2554 H   0  0  0  0  0  0  0  0  0  0  0  0
   59.1892   29.1300   56.3293 H   0  0  0  0  0  0  0  0  0  0  0  0
   58.2120   30.3760   52.4160 N   0  0  0  0  0  0  0  0  0  0  0  0
   57.5920   31.5360   52.0580 C   0  0  0  0  0  0  0  0  0  0  0  0
   58.5690   32.9580   51.5770 S   0  0  0  0  0  0  0  0  0  0  0  0
   59.6710   32.0240   50.4600 C   0  0  0  0  0  0  0  0  0  0  0  0
   60.4034   32.7136   50.0149 H   0  0  0  0  0  0  0  0  0  0  0  0
   60.1862   31.2445   51.0404 H   0  0  0  0  0  0  0  0  0  0  0  0
   58.8640   31.3550   49.3410 C   0  0  0  0  0  0  0  0  0  0  0  0
   58.0620   32.1077   49.3263 H   0  0  0  0  0  0  0  0  0  0  0  0
   59.6910   30.6370   48.2840 C   0  0  0  0  0  0  0  0  0  0  0  0
   59.3651   30.6419   47.2334 H   0  0  0  0  0  0  0  0  0  0  0  0
   60.7409   30.6761   47.9582 H   0  0  0  0  0  0  0  0  0  0  0  0
   58.9140   29.8360   49.3180 C   0  0  0  0  0  0  0  0  0  0  0  0
   58.0265   29.2612   49.0148 H   0  0  0  0  0  0  0  0  0  0  0  0
   59.1700   29.0554   50.0495 H   0  0  0  0  0  0  0  0  0  0  0  0
   56.2350   31.6170   52.0530 N   0  0  0  0  0  0  0  0  0  0  0  0
   55.5270   30.5240   52.4180 C   0  0  0  0  0  0  0  0  0  0  0  0
  1  2  1  0
  2  3  1  0
  3  4  1  0
  4  5  1  0
  5  6  2  0
  5  7  1  0
  7  8  1  0
  8  9  1  0
  2 10  2  0
 10 11  1  0
 11 12  1  0
 11 13  2  0
 13 14  1  0
 13 15  1  0
 15 16  1  0
 16 17  2  3
 17 18  1  0
 18 19  1  0
 18 20  1  0
 20 21  1  0
 20 22  1  0
 20 23  1  0
 23 24  1  0
 23 25  1  0
 16 26  1  0
 26 27  2  0
 27 28  1  0
 28 29  1  0
 29 30  1  0
 29 31  1  0
 29 32  1  0
 32 33  1  0
 32 34  1  0
 34 35  1  0
 34 36  1  0
 34 37  1  0
 37 38  1  0
 37 39  1  0
 27 40  1  0
 40 41  2  0
  8  3  2  0
 41 10  1  0
 41 15  1  0
 23 18  1  0
 37 32  1  0
M  CHG  4   4  -1   7  -1   9  -1  13   1
M  END
>  <UniqueID>  (23) 
23

>  <SMILES>  (23) 
O=c1[n-]c([O-])c(/C=c2\c[nH+]n3c(=NC4CC4)nc(SCC4CC4)nc23)[n-]1

>  <Energy>  (23) 
646.8216449744906

>  <Genealogy>  (23) 
O=c1[n-]c([O-])c(C=c2c[nH+]n3c(=NC4CC4)nc(SCC4CC4)nc23)[n-]1 (protonated)
O=c1[n-]c([O-])c(/C=c2\c[nH+]n3c(=NC4CC4)nc(SCC4CC4)nc23)[n-]1 (cis-trans isomerization)
O=c1[n-]c([O-])c(/C=c2\c[nH+]n3c(=NC4CC4)nc(SCC4CC4)nc23)[n-]1 (3D coordinates assigned)
O=c1[n-]c([O-])c(/C=c2\c[nH+]n3c(=NC4CC4)nc(SCC4CC4)nc23)[n-]1 (nonaromatic ring conformer: 646.8216449744906 kcal/mol)

>  <smiles>  (23) 
O=c1[nH]c(O)c(C=c2cnn3c(=NC4CC4)nc(SCC4CC4)nc23)[nH]1

>  <score_type>  (23) 
oracle

>  <origin>  (23) 
adg

>  <m_score__min__energy>  (23) 
-14.609999999999999

>  <m_primary>  (23) 
energy

$$$$
23:0
     RDKit          3D

 43 44  0  0  0  0  0  0  0  0999 V2000
   57.0280   28.4220   45.0990 C   0  0  0  0  0  0  0  0  0  0  0  0
   56.2880   29.5050   44.5460 O   0  0  0  0  0  0  0  0  0  0  0  0
   56.8880   30.5260   43.7990 C   0  0  0  0  0  0  0  0  0  0  0  0
   56.8620   30.4840   42.5380 O   0  0  0  0  0  0  0  0  0  0  0  0
   57.5540   31.6520   44.4930 C   0  0  0  0  0  0  0  0  0  0  0  0
   58.0240   32.7590   43.7690 C   0  0  0  0  0  0  0  0  0  0  0  0
   58.6510   33.8180   44.4260 C   0  0  0  0  0  0  0  0  0  0  0  0
   58.8380   33.7900   45.8130 C   0  0  0  0  0  0  0  0  0  0  0  0
   59.6260   35.2210   46.5840 S   0  0  0  0  0  0  0  0  0  0  0  0
   61.0110   34.2950   47.2730 C   0  0  0  0  0  0  0  0  0  0  0  0
   62.0240   33.8500   46.4110 C   0  0  0  0  0  0  0  0  0  0  0  0
   63.0950   33.1010   46.9010 C   0  0  0  0  0  0  0  0  0  0  0  0
   63.1800   32.8030   48.2660 C   0  0  0  0  0  0  0  0  0  0  0  0
   64.2760   32.0330   48.7670 N   0  0  0  0  0  0  0  0  0  0  0  0
   62.1940   33.2780   49.1390 C   0  0  0  0  0  0  0  0  0  0  0  0
   61.1170   34.0400   48.6590 C   0  0  0  0  0  0  0  0  0  0  0  0
   60.1820   34.5890   49.5950 N   0  0  0  0  0  0  0  0  0  0  0  0
   58.3560   32.6890   46.5590 C   0  0  0  0  0  0  0  0  0  0  0  0
   58.4960   32.6230   48.0610 C   0  0  0  0  0  0  0  0  0  0  0  0
   59.0530   31.3380   48.4810 N   0  0  0  0  0  0  0  0  0  0  0  0
   59.4830   31.1130   49.8300 C   0  0  0  0  0  0  0  0  0  0  0  0
   59.4120   32.0420   50.6810 O   0  0  0  0  0  0  0  0  0  0  0  0
   60.0100   29.7700   50.2320 C   0  0  0  0  0  0  0  0  0  0  0  0
   61.3680   29.8640   50.4740 F   0  0  0  0  0  0  0  0  0  0  0  0
   59.7950   28.8420   49.2280 F   0  0  0  0  0  0  0  0  0  0  0  0
   59.3690   29.3490   51.3810 F   0  0  0  0  0  0  0  0  0  0  0  0
   57.7200   31.6290   45.8870 C   0  0  0  0  0  0  0  0  0  0  0  0
   56.9913   28.4757   46.1971 H   0  0  0  0  0  0  0  0  0  0  0  0
   56.5907   27.4700   44.7636 H   0  0  0  0  0  0  0  0  0  0  0  0
   58.0738   28.4834   44.7636 H   0  0  0  0  0  0  0  0  0  0  0  0
   57.8971   32.7917   42.6768 H   0  0  0  0  0  0  0  0  0  0  0  0
   59.0025   34.6850   43.8474 H   0  0  0  0  0  0  0  0  0  0  0  0
   61.9740   34.0934   45.3394 H   0  0  0  0  0  0  0  0  0  0  0  0
   63.8748   32.7438   46.2123 H   0  0  0  0  0  0  0  0  0  0  0  0
   64.1880   31.4950   49.6570 H   0  0  0  0  0  0  0  0  0  0  0  0
   65.1840   31.9990   48.2530 H   0  0  0  0  0  0  0  0  0  0  0  0
   62.2639   33.0516   50.2132 H   0  0  0  0  0  0  0  0  0  0  0  0
   59.6420   35.4530   49.3620 H   0  0  0  0  0  0  0  0  0  0  0  0
   59.9760   34.1270   50.5090 H   0  0  0  0  0  0  0  0  0  0  0  0
   59.1636   33.4307   48.3956 H   0  0  0  0  0  0  0  0  0  0  0  0
   57.4984   32.7354   48.5105 H   0  0  0  0  0  0  0  0  0  0  0  0
   59.1510   30.5590   47.7890 H   0  0  0  0  0  0  0  0  0  0  0  0
   57.3471   30.7690   46.4626 H   0  0  0  0  0  0  0  0  0  0  0  0
  1  2  1  0
  2  3  1  0
  3  4  2  0
  3  5  1  0
  5  6  2  0
  6  7  1  0
  7  8  2  0
  8  9  1  0
  9 10  1  0
 10 11  2  0
 11 12  1  0
 12 13  2  0
 13 14  1  0
 13 15  1  0
 15 16  2  0
 16 17  1  0
  8 18  1  0
 18 19  1  0
 19 20  1  0
 20 21  1  0
 21 22  2  0
 21 23  1  0
 23 24  1  0
 23 25  1  0
 23 26  1  0
 18 27  2  0
 27  5  1  0
 16 10  1  0
  1 28  1  0
  1 29  1  0
  1 30  1  0
  6 31  1  0
  7 32  1  0
 11 33  1  0
 12 34  1  0
 14 35  1  0
 14 36  1  0
 15 37  1  0
 17 38  1  0
 17 39  1  0
 19 40  1  0
 19 41  1  0
 20 42  1  0
 27 43  1  0
M  END
>  <UniqueID>  (24) 
24

>  <SMILES>  (24) 
COC(=O)c1ccc(Sc2ccc(N)cc2N)c(CNC(=O)C(F)(F)F)c1

>  <Energy>  (24) 
35.56098675458182

>  <Genealogy>  (24) 
COC(=O)c1ccc(Sc2ccc(N)cc2N)c(CNC(=O)C(F)(F)F)c1 (3D coordinates assigned)
COC(=O)c1ccc(Sc2ccc(N)cc2N)c(CNC(=O)C(F)(F)F)c1 (optimized conformer: 35.56098675458182 kcal/mol)

>  <smiles>  (24) 
COC(=O)c1ccc(Sc2ccc(N)cc2N)c(CNC(=O)C(F)(F)F)c1

>  <score_type>  (24) 
oracle

>  <origin>  (24) 
adg

>  <m_score__min__energy>  (24) 
-6.1500000000000004

>  <m_primary>  (24) 
energy

$$$$
24:0
     RDKit          3D

 68 72  0  0  0  0  0  0  0  0999 V2000
   55.4627   28.5832   43.7636 H   0  0  0  0  0  0  0  0  0  0  0  0
   55.9780   29.5550   43.7540 C   0  0  0  0  0  0  0  0  0  0  0  0
   55.8650   30.4480   44.7720 N   0  0  0  0  0  0  0  0  0  0  0  0
   56.5900   31.5640   44.5290 C   0  0  0  0  0  0  0  0  0  0  0  0
   56.6600   32.5790   45.3380 N   0  0  0  0  0  0  0  0  0  0  0  0
   57.8230   33.4050   45.5310 C   0  0  0  0  0  0  0  0  0  0  0  0
   57.7340   34.6380   45.2790 O   0  0  0  0  0  0  0  0  0  0  0  0
   59.0950   32.8630   46.0780 C   0  0  0  0  0  0  0  0  0  0  0  0
   60.0810   33.7270   46.5830 C   0  0  0  0  0  0  0  0  0  0  0  0
   59.9159   34.8143   46.5619 H   0  0  0  0  0  0  0  0  0  0  0  0
   61.2700   33.2170   47.1120 C   0  0  0  0  0  0  0  0  0  0  0  0
   62.0300   33.9058   47.5095 H   0  0  0  0  0  0  0  0  0  0  0  0
   61.5020   31.8330   47.1400 C   0  0  0  0  0  0  0  0  0  0  0  0
   62.8120   31.3020   47.6500 C   0  0  0  0  0  0  0  0  0  0  0  0
   62.8054   31.3047   48.7500 H   0  0  0  0  0  0  0  0  0  0  0  0
   62.9573   30.2740   47.2867 H   0  0  0  0  0  0  0  0  0  0  0  0
   63.6321   31.9387   47.2867 H   0  0  0  0  0  0  0  0  0  0  0  0
   60.5360   30.9610   46.6120 C   0  0  0  0  0  0  0  0  0  0  0  0
   60.7800   29.5830   46.5590 O   0  0  0  0  0  0  0  0  0  0  0  0
   59.7310   28.6610   46.4800 C   0  0  0  0  0  0  0  0  0  0  0  0
   59.1320   28.4190   45.2400 C   0  0  0  0  0  0  0  0  0  0  0  0
   59.5314   28.9025   44.3363 H   0  0  0  0  0  0  0  0  0  0  0  0
   58.0320   27.5690   45.1420 C   0  0  0  0  0  0  0  0  0  0  0  0
   57.5803   27.3711   44.1587 H   0  0  0  0  0  0  0  0  0  0  0  0
   57.4960   26.9630   46.2910 C   0  0  0  0  0  0  0  0  0  0  0  0
   56.2760   26.1320   46.1930 C   0  0  0  0  0  0  0  0  0  0  0  0
   55.1590   26.6790   46.0040 O   0  0  0  0  0  0  0  0  0  0  0  0
   56.3670   24.7030   46.2930 N   0  0  0  0  0  0  0  0  0  0  0  0
   57.4030   23.8810   45.7430 C   0  0  0  0  0  0  0  0  0  0  0  0
   59.0390   24.1790   45.9640 S   0  0  0  0  0  0  0  0  0  0  0  0
   59.5790   22.8080   45.1530 C   0  0  0  0  0  0  0  0  0  0  0  0
   60.6307   22.5272   44.9945 H   0  0  0  0  0  0  0  0  0  0  0  0
   58.4720   22.0900   44.7170 C   0  0  0  0  0  0  0  0  0  0  0  0
   58.5495   21.1435   44.1618 H   0  0  0  0  0  0  0  0  0  0  0  0
   57.2470   22.6850   45.0510 C   0  0  0  0  0  0  0  0  0  0  0  0
   56.2689   22.2526   44.7936 H   0  0  0  0  0  0  0  0  0  0  0  0
   58.1140   27.1940   47.5350 C   0  0  0  0  0  0  0  0  0  0  0  0
   57.7014   26.7260   48.4410 H   0  0  0  0  0  0  0  0  0  0  0  0
   59.2530   28.0160   47.6350 C   0  0  0  0  0  0  0  0  0  0  0  0
   59.8590   28.2900   48.9130 N   0  0  0  0  0  0  0  0  0  0  0  0
   60.6140   27.6580   49.2510 H   0  0  0  0  0  0  0  0  0  0  0  0
   59.4250   29.3370   49.7960 C   0  0  0  0  0  0  0  0  0  0  0  0
   58.2770   29.8490   49.6670 O   0  0  0  0  0  0  0  0  0  0  0  0
   60.3370   29.8270   50.8860 C   0  0  0  0  0  0  0  0  0  0  0  0
   61.3176   29.3406   50.7770 H   0  0  0  0  0  0  0  0  0  0  0  0
   60.4288   30.9193   50.7937 H   0  0  0  0  0  0  0  0  0  0  0  0
   59.7750   29.5080   52.2750 C   0  0  0  0  0  0  0  0  0  0  0  0
   59.4512   30.4403   52.7607 H   0  0  0  0  0  0  0  0  0  0  0  0
   58.9179   28.8263   52.1718 H   0  0  0  0  0  0  0  0  0  0  0  0
   60.8190   28.8590   53.1030 N   0  0  0  0  0  0  0  0  0  0  0  0
   60.4220   27.5070   53.5420 C   0  0  0  0  0  0  0  0  0  0  0  0
   61.1359   27.1549   54.3012 H   0  0  0  0  0  0  0  0  0  0  0  0
   59.4041   27.5660   53.9548 H   0  0  0  0  0  0  0  0  0  0  0  0
   60.4070   26.5040   52.3650 C   0  0  0  0  0  0  0  0  0  0  0  0
   60.8499   25.5569   52.7070 H   0  0  0  0  0  0  0  0  0  0  0  0
   59.3593   26.3812   52.0533 H   0  0  0  0  0  0  0  0  0  0  0  0
   61.1330   26.9590   51.2340 O   0  0  0  0  0  0  0  0  0  0  0  0
   62.3660   27.5150   51.6370 C   0  0  0  0  0  0  0  0  0  0  0  0
   62.8954   26.7944   52.2777 H   0  0  0  0  0  0  0  0  0  0  0  0
   62.9640   27.7385   50.7412 H   0  0  0  0  0  0  0  0  0  0  0  0
   62.1400   28.8250   52.4250 C   0  0  0  0  0  0  0  0  0  0  0  0
   62.9294   28.9203   53.1851 H   0  0  0  0  0  0  0  0  0  0  0  0
   62.1688   29.6572   51.7062 H   0  0  0  0  0  0  0  0  0  0  0  0
   59.3240   31.4790   46.1270 C   0  0  0  0  0  0  0  0  0  0  0  0
   58.5412   30.7886   45.7798 H   0  0  0  0  0  0  0  0  0  0  0  0
   57.4030   31.4830   43.0630 S   0  0  0  0  0  0  0  0  0  0  0  0
   56.7910   29.9560   42.6990 C   0  0  0  0  0  0  0  0  0  0  0  0
   56.9981   29.3774   41.7867 H   0  0  0  0  0  0  0  0  0  0  0  0
  1  2  1  0
  2  3  1  0
  3  4  1  0
  4  5  2  0
  5  6  1  0
  6  7  2  0
  6  8  1  0
  8  9  2  0
  9 10  1  0
  9 11  1  0
 11 12  1  0
 11 13  2  0
 13 14  1  0
 14 15  1  0
 14 16  1  0
 14 17  1  0
 13 18  1  0
 18 19  1  0
 19 20  1  0
 20 21  2  0
 21 22  1  0
 21 23  1  0
 23 24  1  0
 23 25  2  0
 25 26  1  0
 26 27  2  0
 26 28  1  0
 28 29  1  0
 29 30  1  0
 30 31  1  0
 31 32  1  0
 31 33  2  0
 33 34  1  0
 33 35  1  0
 35 36  1  0
 25 37  1  0
 37 38  1  0
 37 39  2  0
 39 40  1  0
 40 41  1  0
 40 42  1  0
 42 43  2  0
 42 44  1  0
 44 45  1  0
 44 46  1  0
 44 47  1  0
 47 48  1  0
 47 49  1  0
 47 50  1  0
 50 51  1  0
 51 52  1  0
 51 53  1  0
 51 54  1  0
 54 55  1  0
 54 56  1  0
 54 57  1  0
 57 58  1  0
 58 59  1  0
 58 60  1  0
 58 61  1  0
 61 62  1  0
 61 63  1  0
 18 64  2  0
 64 65  1  0
  4 66  1  0
 66 67  1  0
 67 68  1  0
 67  2  2  0
 64  8  1  0
 39 20  1  0
 61 50  1  0
 35 29  2  0
M  CHG  2   3  -1  28  -1
M  END
>  <UniqueID>  (25) 
25

>  <SMILES>  (25) 
Cc1ccc(C(=O)/N=c2\[n-]ccs2)cc1Oc1ccc(C(=O)[N-]c2cccs2)cc1NC(=O)CCN1CCOCC1

>  <Energy>  (25) 
161.04669229234514

>  <Genealogy>  (25) 
Cc1ccc(C(=O)N=c2[n-]ccs2)cc1Oc1ccc(C(=O)[N-]c2cccs2)cc1NC(=O)CCN1CCOCC1 (protonated)
Cc1ccc(C(=O)/N=c2\[n-]ccs2)cc1Oc1ccc(C(=O)[N-]c2cccs2)cc1NC(=O)CCN1CCOCC1 (cis-trans isomerization)
Cc1ccc(C(=O)/N=c2\[n-]ccs2)cc1Oc1ccc(C(=O)[N-]c2cccs2)cc1NC(=O)CCN1CCOCC1 (3D coordinates assigned)
Cc1ccc(C(=O)/N=c2\[n-]ccs2)cc1Oc1ccc(C(=O)[N-]c2cccs2)cc1NC(=O)CCN1CCOCC1 (nonaromatic ring conformer: 161.04669229234514 kcal/mol)

>  <smiles>  (25) 
Cc1ccc(C(=O)N=c2[nH]ccs2)cc1Oc1ccc(C(=O)Nc2cccs2)cc1NC(=O)CCN1CCOCC1

>  <score_type>  (25) 
oracle

>  <origin>  (25) 
adg

>  <m_score__min__energy>  (25) 
-13.32

>  <m_primary>  (25) 
energy

$$$$
25:0
     RDKit          3D

 27 28  0  0  0  0  0  0  0  0999 V2000
   58.2162   25.9635   47.1236 H   0  0  0  0  0  0  0  0  0  0  0  0
   57.4050   26.0080   46.3820 C   0  0  0  0  0  0  0  0  0  0  0  0
   56.8360   27.1620   46.1710 N   0  0  0  0  0  0  0  0  0  0  0  0
   57.3820   28.2910   45.4690 C   0  0  0  0  0  0  0  0  0  0  0  0
   58.7650   28.5570   45.4760 C   0  0  0  0  0  0  0  0  0  0  0  0
   59.4511   27.8769   46.0020 H   0  0  0  0  0  0  0  0  0  0  0  0
   59.2690   29.6820   44.8170 C   0  0  0  0  0  0  0  0  0  0  0  0
   60.3519   29.8750   44.8098 H   0  0  0  0  0  0  0  0  0  0  0  0
   58.4000   30.5610   44.1680 C   0  0  0  0  0  0  0  0  0  0  0  0
   58.7990   31.4416   43.6433 H   0  0  0  0  0  0  0  0  0  0  0  0
   57.0230   30.3220   44.1850 C   0  0  0  0  0  0  0  0  0  0  0  0
   56.3386   31.0210   43.6821 H   0  0  0  0  0  0  0  0  0  0  0  0
   56.5130   29.1960   44.8400 C   0  0  0  0  0  0  0  0  0  0  0  0
   55.1410   28.9750   44.8590 O   0  0  0  0  0  0  0  0  0  0  0  0
   57.0320   24.7540   45.6900 C   0  0  0  0  0  0  0  0  0  0  0  0
   57.9440   24.0740   44.8700 C   0  0  0  0  0  0  0  0  0  0  0  0
   58.9664   24.4613   44.7484 H   0  0  0  0  0  0  0  0  0  0  0  0
   57.5590   22.9080   44.2080 C   0  0  0  0  0  0  0  0  0  0  0  0
   58.2860   22.3703   43.5816 H   0  0  0  0  0  0  0  0  0  0  0  0
   56.2560   22.4180   44.3350 C   0  0  0  0  0  0  0  0  0  0  0  0
   55.9190   21.2490   43.6600 O   0  0  0  0  0  0  0  0  0  0  0  0
   55.3110   23.1060   45.1290 C   0  0  0  0  0  0  0  0  0  0  0  0
   53.9540   22.6310   45.2690 N   0  0  0  0  0  0  0  0  0  0  0  0
   53.0070   23.2660   44.7600 O   0  0  0  0  0  0  0  0  0  0  0  0
   53.6710   21.4720   45.9550 O   0  0  0  0  0  0  0  0  0  0  0  0
   55.7160   24.2820   45.7940 C   0  0  0  0  0  0  0  0  0  0  0  0
   54.9881   24.8374   46.4036 H   0  0  0  0  0  0  0  0  0  0  0  0
  1  2  1  0
  2  3  2  0
  3  4  1  0
  4  5  2  0
  5  6  1  0
  5  7  1  0
  7  8  1  0
  7  9  2  0
  9 10  1  0
  9 11  1  0
 11 12  1  0
 11 13  2  0
 13 14  1  0
  2 15  1  0
 15 16  2  0
 16 17  1  0
 16 18  1  0
 18 19  1  0
 18 20  2  0
 20 21  1  0
 20 22  1  0
 22 23  1  0
 23 24  2  0
 23 25  1  0
 22 26  2  0
 26 27  1  0
 13  4  1  0
 26 15  1  0
M  CHG  4  14  -1  21  -1  23   1  25  -1
M  END
>  <UniqueID>  (26) 
26

>  <SMILES>  (26) 
O=[N+]([O-])c1cc(/C=N\c2ccccc2[O-])ccc1[O-]

>  <Energy>  (26) 
42.53613866573428

>  <Genealogy>  (26) 
O=[N+]([O-])c1cc(C=Nc2ccccc2[O-])ccc1[O-] (protonated)
O=[N+]([O-])c1cc(/C=N\c2ccccc2[O-])ccc1[O-] (cis-trans isomerization)
O=[N+]([O-])c1cc(/C=N\c2ccccc2[O-])ccc1[O-] (3D coordinates assigned)
O=[N+]([O-])c1cc(/C=N\c2ccccc2[O-])ccc1[O-] (optimized conformer: 42.53613866573428 kcal/mol)

>  <smiles>  (26) 
O=[N+]([O-])c1cc(C=Nc2ccccc2O)ccc1O

>  <score_type>  (26) 
oracle

>  <origin>  (26) 
adg

>  <m_score__min__energy>  (26) 
-11.84

>  <m_primary>  (26) 
energy

$$$$
26:0
     RDKit          3D

 40 41  0  0  0  0  0  0  0  0999 V2000
   56.9890   30.9280   42.6700 O   0  0  0  0  0  0  0  0  0  0  0  0
   56.7960   30.6520   43.8840 C   0  0  0  0  0  0  0  0  0  0  0  0
   55.9110   29.5020   44.2580 C   0  0  0  0  0  0  0  0  0  0  0  0
   56.5740   28.6080   45.3050 C   0  0  0  0  0  0  0  0  0  0  0  0
   55.7130   27.4720   45.6170 N   0  0  0  0  0  0  0  0  0  0  0  0
   56.1830   26.3300   46.3350 C   0  0  0  0  0  0  0  0  0  0  0  0
   55.5400   25.2510   46.2670 O   0  0  0  0  0  0  0  0  0  0  0  0
   57.3680   26.3890   47.1360 N   0  0  0  0  0  0  0  0  0  0  0  0
   58.7140   26.2350   46.5940 C   0  0  0  0  0  0  0  0  0  0  0  0
   59.3950   27.5750   46.5370 C   0  0  0  0  0  0  0  0  0  0  0  0
   59.8460   28.0830   45.3060 C   0  0  0  0  0  0  0  0  0  0  0  0
   60.4880   29.3220   45.2470 C   0  0  0  0  0  0  0  0  0  0  0  0
   60.6970   30.0600   46.4150 C   0  0  0  0  0  0  0  0  0  0  0  0
   60.2670   29.5560   47.6460 C   0  0  0  0  0  0  0  0  0  0  0  0
   59.6220   28.3170   47.7110 C   0  0  0  0  0  0  0  0  0  0  0  0
   59.2090   27.8510   48.9160 F   0  0  0  0  0  0  0  0  0  0  0  0
   57.4060   31.4370   44.9130 N   0  0  0  0  0  0  0  0  0  0  0  0
   56.9600   32.7740   45.2850 C   0  0  0  0  0  0  0  0  0  0  0  0
   58.0270   33.4950   46.0640 C   0  0  0  0  0  0  0  0  0  0  0  0
   58.7710   34.5260   45.4720 C   0  0  0  0  0  0  0  0  0  0  0  0
   59.7830   35.1510   46.2050 C   0  0  0  0  0  0  0  0  0  0  0  0
   60.0340   34.7690   47.4860 N   0  0  0  0  0  0  0  0  0  0  0  0
   59.3190   33.7800   48.0870 C   0  0  0  0  0  0  0  0  0  0  0  0
   58.3030   33.1270   47.3870 C   0  0  0  0  0  0  0  0  0  0  0  0
   54.9680   29.8939   44.6670 H   0  0  0  0  0  0  0  0  0  0  0  0
   55.7242   28.9004   43.3562 H   0  0  0  0  0  0  0  0  0  0  0  0
   57.5335   28.2396   44.9129 H   0  0  0  0  0  0  0  0  0  0  0  0
   56.7419   29.1929   46.2213 H   0  0  0  0  0  0  0  0  0  0  0  0
   59.2927   25.5581   47.2396 H   0  0  0  0  0  0  0  0  0  0  0  0
   58.6518   25.8150   45.5793 H   0  0  0  0  0  0  0  0  0  0  0  0
   59.6925   27.5018   44.3848 H   0  0  0  0  0  0  0  0  0  0  0  0
   60.8298   29.7176   44.2792 H   0  0  0  0  0  0  0  0  0  0  0  0
   61.1997   31.0372   46.3659 H   0  0  0  0  0  0  0  0  0  0  0  0
   60.4364   30.1354   48.5656 H   0  0  0  0  0  0  0  0  0  0  0  0
   56.7313   33.3448   44.3729 H   0  0  0  0  0  0  0  0  0  0  0  0
   56.0628   32.6842   45.9151 H   0  0  0  0  0  0  0  0  0  0  0  0
   58.5595   34.8400   44.4392 H   0  0  0  0  0  0  0  0  0  0  0  0
   60.3780   35.9537   45.7451 H   0  0  0  0  0  0  0  0  0  0  0  0
   59.5417   33.4945   49.1257 H   0  0  0  0  0  0  0  0  0  0  0  0
   57.7225   32.3281   47.8716 H   0  0  0  0  0  0  0  0  0  0  0  0
  1  2  2  0
  2  3  1  0
  3  4  1  0
  4  5  1  0
  5  6  1  0
  6  7  2  0
  6  8  1  0
  8  9  1  0
  9 10  1  0
 10 11  2  0
 11 12  1  0
 12 13  2  0
 13 14  1  0
 14 15  2  0
 15 16  1  0
  2 17  1  0
 17 18  1  0
 18 19  1  0
 19 20  2  0
 20 21  1  0
 21 22  2  0
 22 23  1  0
 23 24  2  0
 15 10  1  0
 24 19  1  0
  3 25  1  0
  3 26  1  0
  4 27  1  0
  4 28  1  0
  9 29  1  0
  9 30  1  0
 11 31  1  0
 12 32  1  0
 13 33  1  0
 14 34  1  0
 18 35  1  0
 18 36  1  0
 20 37  1  0
 21 38  1  0
 23 39  1  0
 24 40  1  0
M  CHG  3   5  -1   8  -1  17  -1
M  END
>  <UniqueID>  (27) 
27

>  <SMILES>  (27) 
O=C(CC[N-]C(=O)[N-]Cc1ccccc1F)[N-]Cc1ccncc1

>  <Energy>  (27) 
35.386497614322245

>  <Genealogy>  (27) 
O=C(CC[N-]C(=O)[N-]Cc1ccccc1F)[N-]Cc1ccncc1 (protonated)
O=C(CC[N-]C(=O)[N-]Cc1ccccc1F)[N-]Cc1ccncc1 (3D coordinates assigned)
O=C(CC[N-]C(=O)[N-]Cc1ccccc1F)[N-]Cc1ccncc1 (optimized conformer: 35.386497614322245 kcal/mol)

>  <smiles>  (27) 
O=C(CCNC(=O)NCc1ccccc1F)NCc1ccncc1

>  <score_type>  (27) 
oracle

>  <origin>  (27) 
adg

>  <m_score__min__energy>  (27) 
-13.59

>  <m_primary>  (27) 
energy

$$$$
27:0
     RDKit          3D

 32 33  0  0  0  0  0  0  0  0999 V2000
   57.5350   31.3950   43.0920 C   0  0  0  0  0  0  0  0  0  0  0  0
   57.4620   30.7860   44.7650 S   0  0  0  0  0  0  0  0  0  0  0  0
   56.2610   29.8910   44.8840 O   0  0  0  0  0  0  0  0  0  0  0  0
   57.2930   31.9480   45.7030 O   0  0  0  0  0  0  0  0  0  0  0  0
   58.8950   29.8630   45.1720 N   0  0  0  0  0  0  0  0  0  0  0  0
   58.8430   29.2600   46.5170 C   0  0  0  0  0  0  0  0  0  0  0  0
   57.7820   28.1570   46.6300 C   0  0  0  0  0  0  0  0  0  0  0  0
   57.8920   27.1990   45.5270 N   0  0  0  0  0  0  0  0  0  0  0  0
   57.3870   25.8680   45.7120 C   0  0  0  0  0  0  0  0  0  0  0  0
   58.2850   24.7900   45.7070 C   0  0  0  0  0  0  0  0  0  0  0  0
   57.8200   23.4830   45.8770 C   0  0  0  0  0  0  0  0  0  0  0  0
   56.4550   23.2440   46.0520 C   0  0  0  0  0  0  0  0  0  0  0  0
   55.5530   24.3120   46.0650 C   0  0  0  0  0  0  0  0  0  0  0  0
   56.0100   25.6250   45.9010 C   0  0  0  0  0  0  0  0  0  0  0  0
   55.0820   26.6650   45.9380 O   0  0  0  0  0  0  0  0  0  0  0  0
   58.4140   27.6090   44.2510 C   0  0  0  0  0  0  0  0  0  0  0  0
   58.2780   26.8670   43.2410 O   0  0  0  0  0  0  0  0  0  0  0  0
   59.2200   28.8730   44.1290 C   0  0  0  0  0  0  0  0  0  0  0  0
   57.6659   32.4871   43.1047 H   0  0  0  0  0  0  0  0  0  0  0  0
   58.3838   30.9300   42.5692 H   0  0  0  0  0  0  0  0  0  0  0  0
   56.6003   31.1438   42.5692 H   0  0  0  0  0  0  0  0  0  0  0  0
   59.8275   28.8264   46.7467 H   0  0  0  0  0  0  0  0  0  0  0  0
   58.5733   30.0550   47.2277 H   0  0  0  0  0  0  0  0  0  0  0  0
   57.9188   27.6242   47.5826 H   0  0  0  0  0  0  0  0  0  0  0  0
   56.7876   28.6253   46.5859 H   0  0  0  0  0  0  0  0  0  0  0  0
   59.3606   24.9745   45.5686 H   0  0  0  0  0  0  0  0  0  0  0  0
   58.5293   22.6422   45.8730 H   0  0  0  0  0  0  0  0  0  0  0  0
   56.0894   22.2144   46.1797 H   0  0  0  0  0  0  0  0  0  0  0  0
   54.4790   24.1197   46.2048 H   0  0  0  0  0  0  0  0  0  0  0  0
   55.1470   27.4720   45.3330 H   0  0  0  0  0  0  0  0  0  0  0  0
   60.2871   28.6179   44.2074 H   0  0  0  0  0  0  0  0  0  0  0  0
   58.9782   29.3264   43.1564 H   0  0  0  0  0  0  0  0  0  0  0  0
  1  2  1  0
  2  3  2  0
  2  4  2  0
  2  5  1  0
  5  6  1  0
  6  7  1  0
  7  8  1  0
  8  9  1  0
  9 10  2  0
 10 11  1  0
 11 12  2  0
 12 13  1  0
 13 14  2  0
 14 15  1  0
  8 16  1  0
 16 17  2  0
 16 18  1  0
 18  5  1  0
 14  9  1  0
  1 19  1  0
  1 20  1  0
  1 21  1  0
  6 22  1  0
  6 23  1  0
  7 24  1  0
  7 25  1  0
 10 26  1  0
 11 27  1  0
 12 28  1  0
 13 29  1  0
 15 30  1  0
 18 31  1  0
 18 32  1  0
M  END
>  <UniqueID>  (28) 
28

>  <SMILES>  (28) 
CS(=O)(=O)N1CCN(c2ccccc2O)C(=O)C1

>  <Energy>  (28) 
37.67612692864855

>  <Genealogy>  (28) 
CS(=O)(=O)N1CCN(c2ccccc2O)C(=O)C1 (3D coordinates assigned)
CS(=O)(=O)N1CCN(c2ccccc2O)C(=O)C1 (nonaromatic ring conformer: 37.67612692864855 kcal/mol)

>  <smiles>  (28) 
CS(=O)(=O)N1CCN(c2ccccc2O)C(=O)C1

>  <score_type>  (28) 
oracle

>  <origin>  (28) 
adg

>  <m_score__min__energy>  (28) 
-7.9500000000000002

>  <m_primary>  (28) 
energy

$$$$
28:0
     RDKit          3D

 36 38  0  0  0  0  0  0  0  0999 V2000
   56.4990   19.2160   43.5010 H   0  0  0  0  0  0  0  0  0  0  0  0
   55.9030   20.0660   43.3820 N   0  0  0  0  0  0  0  0  0  0  0  0
   56.2910   21.2450   43.7510 C   0  0  0  0  0  0  0  0  0  0  0  0
   55.8500   22.3370   43.0730 N   0  0  0  0  0  0  0  0  0  0  0  0
   56.2270   23.5980   43.4140 C   0  0  0  0  0  0  0  0  0  0  0  0
   55.8477   24.4563   42.8400 H   0  0  0  0  0  0  0  0  0  0  0  0
   57.0980   23.8110   44.4950 C   0  0  0  0  0  0  0  0  0  0  0  0
   57.5100   25.1820   44.8840 C   0  0  0  0  0  0  0  0  0  0  0  0
   58.1310   26.0220   43.9440 C   0  0  0  0  0  0  0  0  0  0  0  0
   58.3028   25.6607   42.9193 H   0  0  0  0  0  0  0  0  0  0  0  0
   58.5320   27.3120   44.3000 C   0  0  0  0  0  0  0  0  0  0  0  0
   59.0121   27.9620   43.5537 H   0  0  0  0  0  0  0  0  0  0  0  0
   58.3250   27.7810   45.6040 C   0  0  0  0  0  0  0  0  0  0  0  0
   58.7450   29.1470   45.9750 C   0  0  0  0  0  0  0  0  0  0  0  0
   59.8650   29.2990   46.8100 C   0  0  0  0  0  0  0  0  0  0  0  0
   60.3899   28.4082   47.1854 H   0  0  0  0  0  0  0  0  0  0  0  0
   60.3170   30.5690   47.1670 C   0  0  0  0  0  0  0  0  0  0  0  0
   61.1974   30.6761   47.8176 H   0  0  0  0  0  0  0  0  0  0  0  0
   59.6540   31.7030   46.7000 C   0  0  0  0  0  0  0  0  0  0  0  0
   60.0161   32.7038   46.9779 H   0  0  0  0  0  0  0  0  0  0  0  0
   58.5310   31.5710   45.8800 C   0  0  0  0  0  0  0  0  0  0  0  0
   58.0135   32.4707   45.5157 H   0  0  0  0  0  0  0  0  0  0  0  0
   58.0560   30.2990   45.5160 C   0  0  0  0  0  0  0  0  0  0  0  0
   56.5910   30.1820   44.5260 S   0  0  0  0  0  0  0  0  0  0  0  0
   55.8650   31.4980   44.5370 O   0  0  0  0  0  0  0  0  0  0  0  0
   56.9560   29.8230   43.1130 O   0  0  0  0  0  0  0  0  0  0  0  0
   55.5410   28.9510   45.1390 N   0  0  0  0  0  0  0  0  0  0  0  0
   54.5790   29.3560   45.1780 H   0  0  0  0  0  0  0  0  0  0  0  0
   57.6860   26.9570   46.5400 C   0  0  0  0  0  0  0  0  0  0  0  0
   57.5001   27.3289   47.5584 H   0  0  0  0  0  0  0  0  0  0  0  0
   57.2830   25.6650   46.1880 C   0  0  0  0  0  0  0  0  0  0  0  0
   56.6380   24.9060   47.1090 F   0  0  0  0  0  0  0  0  0  0  0  0
   57.5570   22.6940   45.2110 C   0  0  0  0  0  0  0  0  0  0  0  0
   58.2339   22.8321   46.0670 H   0  0  0  0  0  0  0  0  0  0  0  0
   57.1580   21.4100   44.8410 C   0  0  0  0  0  0  0  0  0  0  0  0
   57.5202   20.5341   45.3993 H   0  0  0  0  0  0  0  0  0  0  0  0
  1  2  1  0
  2  3  2  0
  3  4  1  0
  4  5  1  0
  5  6  1  0
  5  7  2  0
  7  8  1  0
  8  9  2  0
  9 10  1  0
  9 11  1  0
 11 12  1  0
 11 13  2  0
 13 14  1  0
 14 15  2  0
 15 16  1  0
 15 17  1  0
 17 18  1  0
 17 19  2  0
 19 20  1  0
 19 21  1  0
 21 22  1  0
 21 23  2  0
 23 24  1  0
 24 25  2  0
 24 26  2  0
 24 27  1  0
 27 28  1  0
 13 29  1  0
 29 30  1  0
 29 31  2  0
 31 32  1  0
  7 33  1  0
 33 34  1  0
 33 35  2  0
 35 36  1  0
 35  3  1  0
 31  8  1  0
 23 14  1  0
M  CHG  2   4  -1  27  -1
M  END
>  <UniqueID>  (29) 
29

>  <SMILES>  (29) 
[H]/N=c1\ccc(-c2ccc(-c3ccccc3S([NH-])(=O)=O)cc2F)c[n-]1

>  <Energy>  (29) 
54.68920766467166

>  <Genealogy>  (29) 
N=c1ccc(-c2ccc(-c3ccccc3S([NH-])(=O)=O)cc2F)c[n-]1 (protonated)
[H]/N=c1\ccc(-c2ccc(-c3ccccc3S([NH-])(=O)=O)cc2F)c[n-]1 (cis-trans isomerization)
[H]/N=c1\ccc(-c2ccc(-c3ccccc3S([NH-])(=O)=O)cc2F)c[n-]1 (3D coordinates assigned)
[H]/N=c1\ccc(-c2ccc(-c3ccccc3S([NH-])(=O)=O)cc2F)c[n-]1 (optimized conformer: 54.68920766467166 kcal/mol)

>  <smiles>  (29) 
N=c1ccc(-c2ccc(-c3ccccc3S(N)(=O)=O)cc2F)c[nH]1

>  <score_type>  (29) 
oracle

>  <origin>  (29) 
adg

>  <m_score__min__energy>  (29) 
-12.94

>  <m_primary>  (29) 
energy

$$$$
29:0
     RDKit          3D

 77 80  0  0  0  0  0  0  0  0999 V2000
   57.7170   31.3360   43.5320 C   0  0  0  0  0  0  0  0  0  0  0  0
   56.7580   30.7640   44.2640 C   0  0  0  0  0  0  0  0  0  0  0  0
   56.3100   29.3610   43.9890 C   0  0  0  0  0  0  0  0  0  0  0  0
   55.8480   28.7450   45.2250 N   0  0  0  0  0  0  0  0  0  0  0  0
   56.2710   27.4500   45.6590 C   0  0  0  0  0  0  0  0  0  0  0  0
   55.4180   26.5740   45.9590 O   0  0  0  0  0  0  0  0  0  0  0  0
   57.6630   27.1560   45.8190 N   0  0  0  0  0  0  0  0  0  0  0  0
   58.7530   27.9540   45.2590 C   0  0  0  0  0  0  0  0  0  0  0  0
   59.4740   28.7580   46.3160 C   0  0  0  0  0  0  0  0  0  0  0  0
   60.4460   29.7020   45.9380 C   0  0  0  0  0  0  0  0  0  0  0  0
   61.0710   30.4980   46.9020 C   0  0  0  0  0  0  0  0  0  0  0  0
   60.7520   30.3440   48.2550 C   0  0  0  0  0  0  0  0  0  0  0  0
   61.3280   31.2260   49.2250 N   0  0  0  0  0  0  0  0  0  0  0  0
   62.5770   31.3960   49.5840 C   0  0  0  0  0  0  0  0  0  0  0  0
   63.5250   32.1780   48.8470 C   0  0  0  0  0  0  0  0  0  0  0  0
   63.1830   33.0030   47.6650 C   0  0  0  0  0  0  0  0  0  0  0  0
   63.9520   32.9840   46.6680 O   0  0  0  0  0  0  0  0  0  0  0  0
   61.9740   33.7770   47.5820 N   0  0  0  0  0  0  0  0  0  0  0  0
   61.3050   34.2570   46.3740 C   0  0  0  0  0  0  0  0  0  0  0  0
   59.8340   33.9640   46.4160 C   0  0  0  0  0  0  0  0  0  0  0  0
   59.2840   33.2120   47.4680 C   0  0  0  0  0  0  0  0  0  0  0  0
   57.9090   32.9710   47.5170 C   0  0  0  0  0  0  0  0  0  0  0  0
   57.0730   33.4720   46.5140 C   0  0  0  0  0  0  0  0  0  0  0  0
   57.6100   34.2160   45.4610 C   0  0  0  0  0  0  0  0  0  0  0  0
   56.7950   34.7120   44.4970 F   0  0  0  0  0  0  0  0  0  0  0  0
   58.9870   34.4630   45.4110 C   0  0  0  0  0  0  0  0  0  0  0  0
   64.8210   32.3240   49.3610 C   0  0  0  0  0  0  0  0  0  0  0  0
   65.1970   31.6950   50.4990 N   0  0  0  0  0  0  0  0  0  0  0  0
   64.3420   30.9300   51.2170 C   0  0  0  0  0  0  0  0  0  0  0  0
   64.7950   30.3140   52.3950 C   0  0  0  0  0  0  0  0  0  0  0  0
   66.1380   30.4830   52.7720 O   0  0  0  0  0  0  0  0  0  0  0  0
   67.1490   29.4770   52.6800 C   0  0  0  0  0  0  0  0  0  0  0  0
   67.0820   28.5270   53.8840 C   0  0  0  0  0  0  0  0  0  0  0  0
   66.5910   27.1190   53.5270 C   0  0  0  0  0  0  0  0  0  0  0  0
   67.4540   26.5120   52.5230 N   0  0  0  0  0  0  0  0  0  0  0  0
   67.0240   26.2520   51.1830 C   0  0  0  0  0  0  0  0  0  0  0  0
   65.8180   25.9660   50.9480 O   0  0  0  0  0  0  0  0  0  0  0  0
   67.9860   26.3880   50.0400 C   0  0  0  0  0  0  0  0  0  0  0  0
   68.3170   27.8470   49.7390 C   0  0  0  0  0  0  0  0  0  0  0  0
   63.9040   29.5270   53.1470 C   0  0  0  0  0  0  0  0  0  0  0  0
   62.5790   29.3780   52.7390 C   0  0  0  0  0  0  0  0  0  0  0  0
   62.1250   30.0000   51.5770 C   0  0  0  0  0  0  0  0  0  0  0  0
   63.0000   30.7830   50.7930 C   0  0  0  0  0  0  0  0  0  0  0  0
   59.7600   29.4330   48.6310 C   0  0  0  0  0  0  0  0  0  0  0  0
   59.1550   28.6140   47.6760 C   0  0  0  0  0  0  0  0  0  0  0  0
   58.0330   32.3671   43.7485 H   0  0  0  0  0  0  0  0  0  0  0  0
   58.1911   30.7761   42.7124 H   0  0  0  0  0  0  0  0  0  0  0  0
   56.2896   31.3316   45.0816 H   0  0  0  0  0  0  0  0  0  0  0  0
   55.4883   29.3757   43.2578 H   0  0  0  0  0  0  0  0  0  0  0  0
   57.1525   28.7810   43.5843 H   0  0  0  0  0  0  0  0  0  0  0  0
   59.4737   27.2787   44.7748 H   0  0  0  0  0  0  0  0  0  0  0  0
   58.3176   28.6600   44.5365 H   0  0  0  0  0  0  0  0  0  0  0  0
   60.7158   29.8144   44.8775 H   0  0  0  0  0  0  0  0  0  0  0  0
   61.8157   31.2475   46.5958 H   0  0  0  0  0  0  0  0  0  0  0  0
   61.4522   35.3439   46.2901 H   0  0  0  0  0  0  0  0  0  0  0  0
   61.7389   33.7389   45.5061 H   0  0  0  0  0  0  0  0  0  0  0  0
   59.9388   32.8116   48.2560 H   0  0  0  0  0  0  0  0  0  0  0  0
   57.4831   32.3863   48.3457 H   0  0  0  0  0  0  0  0  0  0  0  0
   55.9907   33.2798   46.5545 H   0  0  0  0  0  0  0  0  0  0  0  0
   59.4082   35.0502   44.5816 H   0  0  0  0  0  0  0  0  0  0  0  0
   65.5446   32.9605   48.8306 H   0  0  0  0  0  0  0  0  0  0  0  0
   67.0002   28.8993   51.7558 H   0  0  0  0  0  0  0  0  0  0  0  0
   68.1342   29.9662   52.6706 H   0  0  0  0  0  0  0  0  0  0  0  0
   68.0891   28.4445   54.3186 H   0  0  0  0  0  0  0  0  0  0  0  0
   66.3553   28.9528   54.5915 H   0  0  0  0  0  0  0  0  0  0  0  0
   66.5958   26.4945   54.4325 H   0  0  0  0  0  0  0  0  0  0  0  0
   65.5719   27.1926   53.1196 H   0  0  0  0  0  0  0  0  0  0  0  0
   68.9160   25.8584   50.2942 H   0  0  0  0  0  0  0  0  0  0  0  0
   67.5127   25.9565   49.1457 H   0  0  0  0  0  0  0  0  0  0  0  0
   68.4418   28.3970   50.6834 H   0  0  0  0  0  0  0  0  0  0  0  0
   69.2498   27.8991   49.1583 H   0  0  0  0  0  0  0  0  0  0  0  0
   67.4980   28.2965   49.1583 H   0  0  0  0  0  0  0  0  0  0  0  0
   64.2544   29.0265   54.0617 H   0  0  0  0  0  0  0  0  0  0  0  0
   61.8880   28.7661   53.3375 H   0  0  0  0  0  0  0  0  0  0  0  0
   61.0761   29.8797   51.2683 H   0  0  0  0  0  0  0  0  0  0  0  0
   59.4546   29.3613   49.6853 H   0  0  0  0  0  0  0  0  0  0  0  0
   58.4255   27.8529   47.9900 H   0  0  0  0  0  0  0  0  0  0  0  0
  1  2  2  0
  2  3  1  0
  3  4  1  0
  4  5  1  0
  5  6  2  0
  5  7  1  0
  7  8  1  0
  8  9  1  0
  9 10  2  0
 10 11  1  0
 11 12  2  0
 12 13  1  0
 13 14  2  3
 14 15  1  0
 15 16  1  0
 16 17  2  0
 16 18  1  0
 18 19  1  0
 19 20  1  0
 20 21  2  0
 21 22  1  0
 22 23  2  0
 23 24  1  0
 24 25  1  0
 24 26  2  0
 15 27  2  0
 27 28  1  0
 28 29  1  0
 29 30  2  0
 30 31  1  0
 31 32  1  0
 32 33  1  0
 33 34  1  0
 34 35  1  0
 35 36  1  0
 36 37  2  0
 36 38  1  0
 38 39  1  0
 30 40  1  0
 40 41  2  0
 41 42  1  0
 42 43  2  0
 12 44  1  0
 44 45  2  0
 45  9  1  0
 43 14  1  0
 26 20  1  0
 43 29  1  0
  1 46  1  0
  1 47  1  0
  2 48  1  0
  3 49  1  0
  3 50  1  0
  8 51  1  0
  8 52  1  0
 10 53  1  0
 11 54  1  0
 19 55  1  0
 19 56  1  0
 21 57  1  0
 22 58  1  0
 23 59  1  0
 26 60  1  0
 27 61  1  0
 32 62  1  0
 32 63  1  0
 33 64  1  0
 33 65  1  0
 34 66  1  0
 34 67  1  0
 38 68  1  0
 38 69  1  0
 39 70  1  0
 39 71  1  0
 39 72  1  0
 40 73  1  0
 41 74  1  0
 42 75  1  0
 44 76  1  0
 45 77  1  0
M  CHG  5   4  -1   7  -1  18  -1  28  -1  35  -1
M  END
>  <UniqueID>  (30) 
30

>  <SMILES>  (30) 
C=CC[N-]C(=O)[N-]Cc1ccc(N=c2c(C(=O)[N-]Cc3cccc(F)c3)c[n-]c3c(OCCC[N-]C(=O)CC)cccc23)cc1

>  <Energy>  (30) 
90.42978740653243

>  <Genealogy>  (30) 
C=CC[N-]C(=O)[N-]Cc1ccc(N=c2c(C(=O)[N-]Cc3cccc(F)c3)c[n-]c3c(OCCC[N-]C(=O)CC)cccc23)cc1 (protonated)
C=CC[N-]C(=O)[N-]Cc1ccc(N=c2c(C(=O)[N-]Cc3cccc(F)c3)c[n-]c3c(OCCC[N-]C(=O)CC)cccc23)cc1 (3D coordinates assigned)
C=CC[N-]C(=O)[N-]Cc1ccc(N=c2c(C(=O)[N-]Cc3cccc(F)c3)c[n-]c3c(OCCC[N-]C(=O)CC)cccc23)cc1 (optimized conformer: 90.42978740653243 kcal/mol)

>  <smiles>  (30) 
C=CCNC(=O)NCc1ccc(N=c2c(C(=O)NCc3cccc(F)c3)c[nH]c3c(OCCCNC(=O)CC)cccc23)cc1

>  <score_type>  (30) 
oracle

>  <origin>  (30) 
adg

>  <m_score__min__energy>  (30) 
-15.85

>  <m_primary>  (30) 
energy

$$$$
30:0
     RDKit          3D

 23 23  0  0  0  0  0  0  0  0999 V2000
   55.1590   29.3160   44.8770 O   0  0  0  0  0  0  0  0  0  0  0  0
   56.3660   29.6130   44.9990 N   0  0  0  0  0  0  0  0  0  0  0  0
   57.1310   28.9150   45.9060 O   0  0  0  0  0  0  0  0  0  0  0  0
   56.9480   30.6640   44.2070 C   0  0  0  0  0  0  0  0  0  0  0  0
   56.9220   30.6010   42.8000 C   0  0  0  0  0  0  0  0  0  0  0  0
   57.4880   31.6250   42.0350 C   0  0  0  0  0  0  0  0  0  0  0  0
   58.0840   32.7210   42.6620 C   0  0  0  0  0  0  0  0  0  0  0  0
   58.1180   32.7950   44.0580 C   0  0  0  0  0  0  0  0  0  0  0  0
   58.8840   34.2050   44.8610 S   0  0  0  0  0  0  0  0  0  0  0  0
   59.2860   33.2740   46.3800 C   0  0  0  0  0  0  0  0  0  0  0  0
   59.3680   34.2180   47.5830 C   0  0  0  0  0  0  0  0  0  0  0  0
   60.6760   34.1540   48.2280 N   0  0  0  0  0  0  0  0  0  0  0  0
   61.7270   33.8260   47.5890 C   0  0  0  0  0  0  0  0  0  0  0  0
   63.0560   33.4060   46.7810 S   0  0  0  0  0  0  0  0  0  0  0  0
   57.5500   31.7730   44.8270 C   0  0  0  0  0  0  0  0  0  0  0  0
   56.4533   29.7405   42.3001 H   0  0  0  0  0  0  0  0  0  0  0  0
   57.4638   31.5672   40.9368 H   0  0  0  0  0  0  0  0  0  0  0  0
   58.5269   33.5264   42.0577 H   0  0  0  0  0  0  0  0  0  0  0  0
   58.5030   32.5231   46.5620 H   0  0  0  0  0  0  0  0  0  0  0  0
   60.2607   32.7817   46.2475 H   0  0  0  0  0  0  0  0  0  0  0  0
   59.1884   35.2481   47.2414 H   0  0  0  0  0  0  0  0  0  0  0  0
   58.6077   33.9089   48.3154 H   0  0  0  0  0  0  0  0  0  0  0  0
   57.5747   31.8379   45.9248 H   0  0  0  0  0  0  0  0  0  0  0  0
  1  2  2  0
  2  3  1  0
  2  4  1  0
  4  5  2  0
  5  6  1  0
  6  7  2  0
  7  8  1  0
  8  9  1  0
  9 10  1  0
 10 11  1  0
 11 12  1  0
 12 13  2  0
 13 14  2  0
  8 15  2  0
 15  4  1  0
  5 16  1  0
  6 17  1  0
  7 18  1  0
 10 19  1  0
 10 20  1  0
 11 21  1  0
 11 22  1  0
 15 23  1  0
M  CHG  2   2   1   3  -1
M  END
>  <UniqueID>  (31) 
31

>  <SMILES>  (31) 
O=[N+]([O-])c1cccc(SCCN=C=S)c1

>  <Energy>  (31) 
14.856687967037226

>  <Genealogy>  (31) 
O=[N+]([O-])c1cccc(SCCN=C=S)c1 (3D coordinates assigned)
O=[N+]([O-])c1cccc(SCCN=C=S)c1 (optimized conformer: 14.856687967037226 kcal/mol)

>  <smiles>  (31) 
O=[N+]([O-])c1cccc(SCCN=C=S)c1

>  <score_type>  (31) 
oracle

>  <origin>  (31) 
adg

>  <m_score__min__energy>  (31) 
-6.2000000000000002

>  <m_primary>  (31) 
energy

$$$$
31:0
     RDKit          3D

 39 41  0  0  0  0  0  0  0  0999 V2000
   60.2710   34.5870   47.9020 C   0  0  0  0  0  0  0  0  0  0  0  0
   59.2990   33.8930   46.9940 C   0  0  0  0  0  0  0  0  0  0  0  0
   58.9450   34.4580   45.7640 C   0  0  0  0  0  0  0  0  0  0  0  0
   58.0130   33.8220   44.9400 C   0  0  0  0  0  0  0  0  0  0  0  0
   57.4130   32.6190   45.3680 C   0  0  0  0  0  0  0  0  0  0  0  0
   56.5420   31.9610   44.6540 N   0  0  0  0  0  0  0  0  0  0  0  0
   56.7140   30.7480   43.9010 C   0  0  0  0  0  0  0  0  0  0  0  0
   56.5210   30.7310   42.6550 O   0  0  0  0  0  0  0  0  0  0  0  0
   57.0260   29.4850   44.5950 C   0  0  0  0  0  0  0  0  0  0  0  0
   58.3470   29.1030   44.8560 C   0  0  0  0  0  0  0  0  0  0  0  0
   58.6030   27.8990   45.5180 C   0  0  0  0  0  0  0  0  0  0  0  0
   59.8000   27.5810   45.7600 O   0  0  0  0  0  0  0  0  0  0  0  0
   57.5350   27.0660   45.9200 C   0  0  0  0  0  0  0  0  0  0  0  0
   57.7900   25.7810   46.6290 C   0  0  0  0  0  0  0  0  0  0  0  0
   57.5080   25.6730   47.8530 O   0  0  0  0  0  0  0  0  0  0  0  0
   58.3960   24.6810   45.9350 N   0  0  0  0  0  0  0  0  0  0  0  0
   57.7240   23.7080   45.1210 C   0  0  0  0  0  0  0  0  0  0  0  0
   58.3620   22.4870   44.8700 C   0  0  0  0  0  0  0  0  0  0  0  0
   57.7510   21.5200   44.0650 C   0  0  0  0  0  0  0  0  0  0  0  0
   56.5040   21.7760   43.4890 C   0  0  0  0  0  0  0  0  0  0  0  0
   55.8980   20.8160   42.6880 O   0  0  0  0  0  0  0  0  0  0  0  0
   55.8700   23.0020   43.7130 C   0  0  0  0  0  0  0  0  0  0  0  0
   56.4780   23.9700   44.5190 C   0  0  0  0  0  0  0  0  0  0  0  0
   56.2210   27.4920   45.6280 C   0  0  0  0  0  0  0  0  0  0  0  0
   55.1190   26.7160   45.9710 O   0  0  0  0  0  0  0  0  0  0  0  0
   56.0090   28.6700   44.9870 N   0  0  0  0  0  0  0  0  0  0  0  0
   57.7790   32.0960   46.5720 N   0  0  0  0  0  0  0  0  0  0  0  0
   58.6860   32.6980   47.3860 C   0  0  0  0  0  0  0  0  0  0  0  0
   59.9977   34.3919   48.9495 H   0  0  0  0  0  0  0  0  0  0  0  0
   61.2859   34.2080   47.7111 H   0  0  0  0  0  0  0  0  0  0  0  0
   60.2421   35.6699   47.7111 H   0  0  0  0  0  0  0  0  0  0  0  0
   59.4020   35.4062   45.4446 H   0  0  0  0  0  0  0  0  0  0  0  0
   57.7489   34.2562   43.9644 H   0  0  0  0  0  0  0  0  0  0  0  0
   59.1806   29.7480   44.5413 H   0  0  0  0  0  0  0  0  0  0  0  0
   59.3506   22.2869   45.3090 H   0  0  0  0  0  0  0  0  0  0  0  0
   58.2524   20.5576   43.8853 H   0  0  0  0  0  0  0  0  0  0  0  0
   54.8911   23.2056   43.2544 H   0  0  0  0  0  0  0  0  0  0  0  0
   55.9819   24.9380   44.6831 H   0  0  0  0  0  0  0  0  0  0  0  0
   58.9388   32.2443   48.3557 H   0  0  0  0  0  0  0  0  0  0  0  0
  1  2  1  0
  2  3  1  0
  3  4  2  0
  4  5  1  0
  5  6  2  3
  6  7  1  0
  7  8  2  0
  7  9  1  0
  9 10  2  0
 10 11  1  0
 11 12  2  0
 11 13  1  0
 13 14  1  0
 14 15  2  0
 14 16  1  0
 16 17  1  0
 17 18  2  0
 18 19  1  0
 19 20  2  0
 20 21  1  0
 20 22  1  0
 22 23  2  0
 13 24  2  0
 24 25  1  0
 24 26  1  0
  5 27  1  0
 27 28  1  0
 28  2  2  0
 26  9  1  0
 23 17  1  0
  1 29  1  0
  1 30  1  0
  1 31  1  0
  3 32  1  0
  4 33  1  0
 10 34  1  0
 18 35  1  0
 19 36  1  0
 22 37  1  0
 23 38  1  0
 28 39  1  0
M  CHG  5  16  -1  21  -1  25  -1  26  -1  27  -1
M  END
>  <UniqueID>  (32) 
32

>  <SMILES>  (32) 
Cc1ccc(=NC(=O)c2cc(=O)c(C(=O)[N-]c3ccc([O-])cc3)c([O-])[n-]2)[n-]c1

>  <Energy>  (32) 
58.993362631168054

>  <Genealogy>  (32) 
Cc1ccc(=NC(=O)c2cc(=O)c(C(=O)[N-]c3ccc([O-])cc3)c([O-])[n-]2)[n-]c1 (protonated)
Cc1ccc(=NC(=O)c2cc(=O)c(C(=O)[N-]c3ccc([O-])cc3)c([O-])[n-]2)[n-]c1 (3D coordinates assigned)
Cc1ccc(=NC(=O)c2cc(=O)c(C(=O)[N-]c3ccc([O-])cc3)c([O-])[n-]2)[n-]c1 (optimized conformer: 58.993362631168054 kcal/mol)

>  <smiles>  (32) 
Cc1ccc(=NC(=O)c2cc(=O)c(C(=O)Nc3ccc(O)cc3)c(O)[nH]2)[nH]c1

>  <score_type>  (32) 
oracle

>  <origin>  (32) 
adg

>  <m_score__min__energy>  (32) 
-18.449999999999999

>  <m_primary>  (32) 
energy

$$$$
32:0
     RDKit          3D

 47 48  0  0  0  0  0  0  0  0999 V2000
   57.0130   34.2460   44.8690 C   0  0  0  0  0  0  0  0  0  0  0  0
   58.3260   33.8030   45.5180 C   0  0  1  0  0  0  0  0  0  0  0  0
   58.2300   33.8320   47.0560 C   0  0  0  0  0  0  0  0  0  0  0  0
   59.5810   33.7600   47.6660 N   0  0  0  0  0  0  0  0  0  0  0  0
   60.6210   34.2070   46.7250 C   0  0  0  0  0  0  0  0  0  0  0  0
   59.6530   34.5560   48.9030 C   0  0  0  0  0  0  0  0  0  0  0  0
   58.6650   32.4610   45.0380 N   0  0  0  0  0  0  0  0  0  0  0  0
   58.0920   31.2300   45.5000 C   0  0  0  0  0  0  0  0  0  0  0  0
   56.9790   30.8690   45.0390 O   0  0  0  0  0  0  0  0  0  0  0  0
   58.7450   30.3900   46.5220 C   0  0  0  0  0  0  0  0  0  0  0  0
   58.7880   29.0000   46.3770 C   0  0  0  0  0  0  0  0  0  0  0  0
   59.4160   28.2280   47.3510 C   0  0  0  0  0  0  0  0  0  0  0  0
   59.9700   28.8330   48.4870 C   0  0  0  0  0  0  0  0  0  0  0  0
   60.7280   27.9760   49.4720 C   0  0  0  0  0  0  0  0  0  0  0  0
   60.7630   26.6480   49.0240 O   0  0  0  0  0  0  0  0  0  0  0  0
   59.8820   30.2380   48.6140 C   0  0  0  0  0  0  0  0  0  0  0  0
   60.5630   31.1030   50.0410 S   0  0  0  0  0  0  0  0  0  0  0  0
   61.8620   31.8910   49.0810 C   0  0  0  0  0  0  0  0  0  0  0  0
   62.2870   31.3250   47.8700 C   0  0  0  0  0  0  0  0  0  0  0  0
   63.3010   31.9340   47.1270 C   0  0  0  0  0  0  0  0  0  0  0  0
   63.8910   33.1160   47.5840 C   0  0  0  0  0  0  0  0  0  0  0  0
   63.4620   33.6940   48.7830 C   0  0  0  0  0  0  0  0  0  0  0  0
   62.4460   33.0860   49.5300 C   0  0  0  0  0  0  0  0  0  0  0  0
   62.0280   33.6680   50.6820 F   0  0  0  0  0  0  0  0  0  0  0  0
   59.2810   30.9690   47.6330 N   0  0  0  0  0  0  0  0  0  0  0  0
   56.2816   34.4928   45.6527 H   0  0  0  0  0  0  0  0  0  0  0  0
   57.1939   35.1329   44.2439 H   0  0  0  0  0  0  0  0  0  0  0  0
   56.6196   33.4308   44.2439 H   0  0  0  0  0  0  0  0  0  0  0  0
   59.1228   34.5059   45.2334 H   0  0  0  0  0  0  0  0  0  0  0  0
   57.7411   34.7660   47.3700 H   0  0  0  0  0  0  0  0  0  0  0  0
   57.6434   32.9637   47.3908 H   0  0  0  0  0  0  0  0  0  0  0  0
   61.4891   34.5801   47.2881 H   0  0  0  0  0  0  0  0  0  0  0  0
   60.9302   33.3623   46.0918 H   0  0  0  0  0  0  0  0  0  0  0  0
   60.2208   35.0126   46.0918 H   0  0  0  0  0  0  0  0  0  0  0  0
   59.5925   33.8866   49.7738 H   0  0  0  0  0  0  0  0  0  0  0  0
   60.6047   35.1070   48.9296 H   0  0  0  0  0  0  0  0  0  0  0  0
   58.8157   35.2689   48.9296 H   0  0  0  0  0  0  0  0  0  0  0  0
   58.3292   28.5199   45.5001 H   0  0  0  0  0  0  0  0  0  0  0  0
   59.4776   27.1366   47.2279 H   0  0  0  0  0  0  0  0  0  0  0  0
   61.7561   28.3550   49.5690 H   0  0  0  0  0  0  0  0  0  0  0  0
   60.2226   28.0147   50.4483 H   0  0  0  0  0  0  0  0  0  0  0  0
   61.4860   26.1970   49.5330 H   0  0  0  0  0  0  0  0  0  0  0  0
   61.8202   30.3985   47.5042 H   0  0  0  0  0  0  0  0  0  0  0  0
   63.6356   31.4829   46.1812 H   0  0  0  0  0  0  0  0  0  0  0  0
   64.6929   33.5916   47.0003 H   0  0  0  0  0  0  0  0  0  0  0  0
   63.9231   34.6269   49.1394 H   0  0  0  0  0  0  0  0  0  0  0  0
   59.2430   32.0090   47.7320 H   0  0  0  0  0  0  0  0  0  0  0  0
  1  2  1  0
  2  3  1  0
  3  4  1  0
  4  5  1  0
  4  6  1  0
  2  7  1  0
  7  8  1  0
  8  9  2  0
  8 10  1  0
 10 11  2  0
 11 12  1  0
 12 13  2  0
 13 14  1  0
 14 15  1  0
 13 16  1  0
 16 17  1  0
 17 18  1  0
 18 19  2  0
 19 20  1  0
 20 21  2  0
 21 22  1  0
 22 23  2  0
 23 24  1  0
 16 25  2  0
 25 10  1  0
 23 18  1  0
  1 26  1  0
  1 27  1  0
  1 28  1  0
  2 29  1  1
  3 30  1  0
  3 31  1  0
  5 32  1  0
  5 33  1  0
  5 34  1  0
  6 35  1  0
  6 36  1  0
  6 37  1  0
 11 38  1  0
 12 39  1  0
 14 40  1  0
 14 41  1  0
 15 42  1  0
 19 43  1  0
 20 44  1  0
 21 45  1  0
 22 46  1  0
 25 47  1  0
M  CHG  2   7  -1  25   1
M  END
>  <UniqueID>  (33) 
33

>  <SMILES>  (33) 
C[C@@H](CN(C)C)[N-]C(=O)c1ccc(CO)c(Sc2ccccc2F)[nH+]1

>  <Energy>  (33) 
45.59300098448561

>  <Genealogy>  (33) 
CC(CN(C)C)[N-]C(=O)c1ccc(CO)c(Sc2ccccc2F)[nH+]1 (protonated)
C[C@@H](CN(C)C)[N-]C(=O)c1ccc(CO)c(Sc2ccccc2F)[nH+]1 (chirality)
C[C@@H](CN(C)C)[N-]C(=O)c1ccc(CO)c(Sc2ccccc2F)[nH+]1 (3D coordinates assigned)
C[C@@H](CN(C)C)[N-]C(=O)c1ccc(CO)c(Sc2ccccc2F)[nH+]1 (optimized conformer: 45.59300098448561 kcal/mol)

>  <smiles>  (33) 
CC(CN(C)C)NC(=O)c1ccc(CO)c(Sc2ccccc2F)n1

>  <score_type>  (33) 
oracle

>  <origin>  (33) 
adg

>  <m_score__min__energy>  (33) 
-7.2699999999999996

>  <m_primary>  (33) 
energy

$$$$
33:0
     RDKit          3D

 40 42  0  0  0  0  0  0  0  0999 V2000
   63.2430   33.4450   47.0540 C   0  0  0  0  0  0  0  0  0  0  0  0
   62.0820   34.2150   46.7590 O   0  0  0  0  0  0  0  0  0  0  0  0
   60.8240   33.6680   46.4590 C   0  0  0  0  0  0  0  0  0  0  0  0
   59.8590   34.3620   45.7040 C   0  0  0  0  0  0  0  0  0  0  0  0
   58.6210   33.7730   45.4350 C   0  0  0  0  0  0  0  0  0  0  0  0
   58.3230   32.4910   45.9100 C   0  0  0  0  0  0  0  0  0  0  0  0
   57.0350   31.9330   45.6170 N   0  0  0  0  0  0  0  0  0  0  0  0
   56.7230   30.7140   44.4230 S   0  0  0  0  0  0  0  0  0  0  0  0
   55.2600   30.3710   44.4430 O   0  0  0  0  0  0  0  0  0  0  0  0
   57.0830   31.2530   43.0670 O   0  0  0  0  0  0  0  0  0  0  0  0
   57.6530   29.2620   44.7800 C   0  0  0  0  0  0  0  0  0  0  0  0
   59.0470   29.2680   44.6540 C   0  0  0  0  0  0  0  0  0  0  0  0
   59.7820   28.1200   44.9500 C   0  0  0  0  0  0  0  0  0  0  0  0
   59.1320   26.9570   45.3740 C   0  0  0  0  0  0  0  0  0  0  0  0
   57.7310   26.9310   45.5010 C   0  0  0  0  0  0  0  0  0  0  0  0
   57.0380   25.7010   45.9540 C   0  0  0  0  0  0  0  0  0  0  0  0
   55.8620   25.7790   46.4040 O   0  0  0  0  0  0  0  0  0  0  0  0
   57.6860   24.4260   45.8160 N   0  0  0  0  0  0  0  0  0  0  0  0
   57.4800   23.5070   44.9150 C   0  0  0  0  0  0  0  0  0  0  0  0
   58.1420   22.3260   44.8220 N   0  0  0  0  0  0  0  0  0  0  0  0
   57.7210   21.5880   43.7600 C   0  0  0  0  0  0  0  0  0  0  0  0
   56.7230   22.1820   42.9940 C   0  0  0  0  0  0  0  0  0  0  0  0
   56.3660   23.6810   43.6720 S   0  0  0  0  0  0  0  0  0  0  0  0
   56.9990   28.0950   45.1980 C   0  0  0  0  0  0  0  0  0  0  0  0
   59.2890   31.7960   46.6580 C   0  0  0  0  0  0  0  0  0  0  0  0
   60.5270   32.3840   46.9290 C   0  0  0  0  0  0  0  0  0  0  0  0
   63.3629   33.3655   48.1446 H   0  0  0  0  0  0  0  0  0  0  0  0
   63.1351   32.4389   46.6227 H   0  0  0  0  0  0  0  0  0  0  0  0
   64.1279   33.9359   46.6227 H   0  0  0  0  0  0  0  0  0  0  0  0
   60.0805   35.3706   45.3250 H   0  0  0  0  0  0  0  0  0  0  0  0
   57.8733   34.3224   44.8441 H   0  0  0  0  0  0  0  0  0  0  0  0
   59.5640   30.1800   44.3208 H   0  0  0  0  0  0  0  0  0  0  0  0
   60.8774   28.1297   44.8494 H   0  0  0  0  0  0  0  0  0  0  0  0
   59.7193   26.0572   45.6096 H   0  0  0  0  0  0  0  0  0  0  0  0
   58.9120   22.0010   45.4440 H   0  0  0  0  0  0  0  0  0  0  0  0
   58.1376   20.5975   43.5248 H   0  0  0  0  0  0  0  0  0  0  0  0
   56.2497   21.7479   42.1010 H   0  0  0  0  0  0  0  0  0  0  0  0
   55.9029   28.0884   45.2903 H   0  0  0  0  0  0  0  0  0  0  0  0
   59.0693   30.7850   47.0315 H   0  0  0  0  0  0  0  0  0  0  0  0
   61.2751   31.8325   47.5173 H   0  0  0  0  0  0  0  0  0  0  0  0
  1  2  1  0
  2  3  1  0
  3  4  2  0
  4  5  1  0
  5  6  2  0
  6  7  1  0
  7  8  1  0
  8  9  2  0
  8 10  2  0
  8 11  1  0
 11 12  2  0
 12 13  1  0
 13 14  2  0
 14 15  1  0
 15 16  1  0
 16 17  2  0
 16 18  1  0
 18 19  2  3
 19 20  1  0
 20 21  1  0
 21 22  2  0
 22 23  1  0
 15 24  2  0
  6 25  1  0
 25 26  2  0
 26  3  1  0
 24 11  1  0
 23 19  1  0
  1 27  1  0
  1 28  1  0
  1 29  1  0
  4 30  1  0
  5 31  1  0
 12 32  1  0
 13 33  1  0
 14 34  1  0
 20 35  1  0
 21 36  1  0
 22 37  1  0
 24 38  1  0
 25 39  1  0
 26 40  1  0
M  CHG  1   7  -1
M  END
>  <UniqueID>  (34) 
34

>  <SMILES>  (34) 
COc1ccc([N-]S(=O)(=O)c2cccc(C(=O)N=c3[nH]ccs3)c2)cc1

>  <Energy>  (34) 
80.42605509140887

>  <Genealogy>  (34) 
COc1ccc([N-]S(=O)(=O)c2cccc(C(=O)N=c3[nH]ccs3)c2)cc1 (protonated)
COc1ccc([N-]S(=O)(=O)c2cccc(C(=O)N=c3[nH]ccs3)c2)cc1 (3D coordinates assigned)
COc1ccc([N-]S(=O)(=O)c2cccc(C(=O)N=c3[nH]ccs3)c2)cc1 (optimized conformer: 80.42605509140887 kcal/mol)

>  <smiles>  (34) 
COc1ccc(NS(=O)(=O)c2cccc(C(=O)N=c3[nH]ccs3)c2)cc1

>  <score_type>  (34) 
oracle

>  <origin>  (34) 
adg

>  <m_score__min__energy>  (34) 
-9.6199999999999992

>  <m_primary>  (34) 
energy

$$$$
34:0
     RDKit          3D

 54 56  0  0  0  0  0  0  0  0999 V2000
   57.7800   31.6250   43.6430 C   0  0  0  0  0  0  0  0  0  0  0  0
   57.3730   32.6810   45.0710 S   0  0  0  0  0  0  0  0  0  0  0  0
   58.9390   33.6310   45.0730 C   0  0  0  0  0  0  0  0  0  0  0  0
   58.9180   34.7410   46.1270 C   0  0  0  0  0  0  0  0  0  0  0  0
   59.2180   34.2080   47.4950 C   0  0  0  0  0  0  0  0  0  0  0  0
   59.7700   34.9600   48.3440 O   0  0  0  0  0  0  0  0  0  0  0  0
   58.8180   32.8770   47.8540 N   0  0  0  0  0  0  0  0  0  0  0  0
   59.0090   32.3440   49.1710 C   0  0  0  0  0  0  0  0  0  0  0  0
   57.8800   32.0440   49.9450 C   0  0  0  0  0  0  0  0  0  0  0  0
   58.0190   31.5420   51.2440 C   0  0  0  0  0  0  0  0  0  0  0  0
   56.8350   31.1590   52.0330 C   0  0  0  0  0  0  0  0  0  0  0  0
   56.2830   32.0210   52.7670 O   0  0  0  0  0  0  0  0  0  0  0  0
   56.3270   29.8170   52.0370 N   0  0  0  0  0  0  0  0  0  0  0  0
   55.1160   29.3610   52.7210 C   0  0  0  0  0  0  0  0  0  0  0  0
   53.9530   30.2790   52.4400 C   0  0  0  0  0  0  0  0  0  0  0  0
   53.0170   30.5640   53.4470 C   0  0  0  0  0  0  0  0  0  0  0  0
   51.9170   31.3810   53.1750 C   0  0  0  0  0  0  0  0  0  0  0  0
   51.7450   31.9250   51.8980 C   0  0  0  0  0  0  0  0  0  0  0  0
   50.6450   32.7310   51.6280 O   0  0  0  0  0  0  0  0  0  0  0  0
   52.6790   31.6570   50.8940 C   0  0  0  0  0  0  0  0  0  0  0  0
   53.7830   30.8430   51.1630 C   0  0  0  0  0  0  0  0  0  0  0  0
   59.2990   31.3790   51.7870 C   0  0  0  0  0  0  0  0  0  0  0  0
   60.4310   31.6550   51.0180 C   0  0  0  0  0  0  0  0  0  0  0  0
   60.3010   32.1150   49.6960 C   0  0  0  0  0  0  0  0  0  0  0  0
   61.4740   32.2740   48.8820 N   0  0  0  0  0  0  0  0  0  0  0  0
   62.3930   33.3920   49.0240 C   0  0  0  0  0  0  0  0  0  0  0  0
   63.2630   33.3670   47.7750 C   0  0  0  0  0  0  0  0  0  0  0  0
   63.0800   31.9780   47.1710 C   0  0  0  0  0  0  0  0  0  0  0  0
   61.7440   31.4750   47.6990 C   0  0  0  0  0  0  0  0  0  0  0  0
   58.1542   30.6541   43.9998 H   0  0  0  0  0  0  0  0  0  0  0  0
   56.8777   31.4687   43.0336 H   0  0  0  0  0  0  0  0  0  0  0  0
   58.5538   32.1147   43.0336 H   0  0  0  0  0  0  0  0  0  0  0  0
   59.7723   32.9467   45.2905 H   0  0  0  0  0  0  0  0  0  0  0  0
   59.0632   34.0955   44.0837 H   0  0  0  0  0  0  0  0  0  0  0  0
   59.6731   35.4967   45.8648 H   0  0  0  0  0  0  0  0  0  0  0  0
   57.9103   35.1817   46.1427 H   0  0  0  0  0  0  0  0  0  0  0  0
   58.1900   32.3540   47.2030 H   0  0  0  0  0  0  0  0  0  0  0  0
   56.8750   32.2046   49.5276 H   0  0  0  0  0  0  0  0  0  0  0  0
   54.8663   28.3482   52.3718 H   0  0  0  0  0  0  0  0  0  0  0  0
   55.3065   29.3615   53.8044 H   0  0  0  0  0  0  0  0  0  0  0  0
   53.1504   30.1423   54.4541 H   0  0  0  0  0  0  0  0  0  0  0  0
   51.1846   31.5969   53.9668 H   0  0  0  0  0  0  0  0  0  0  0  0
   52.5453   32.0872   49.8905 H   0  0  0  0  0  0  0  0  0  0  0  0
   54.5216   30.6428   50.3728 H   0  0  0  0  0  0  0  0  0  0  0  0
   59.4134   31.0318   52.8245 H   0  0  0  0  0  0  0  0  0  0  0  0
   61.4324   31.5114   51.4499 H   0  0  0  0  0  0  0  0  0  0  0  0
   61.8381   34.3397   49.0867 H   0  0  0  0  0  0  0  0  0  0  0  0
   62.9947   33.3107   49.9412 H   0  0  0  0  0  0  0  0  0  0  0  0
   62.9358   34.1402   47.0643 H   0  0  0  0  0  0  0  0  0  0  0  0
   64.3178   33.5708   48.0113 H   0  0  0  0  0  0  0  0  0  0  0  0
   63.0615   32.0363   46.0727 H   0  0  0  0  0  0  0  0  0  0  0  0
   63.9053   31.3037   47.4434 H   0  0  0  0  0  0  0  0  0  0  0  0
   60.9537   31.6197   46.9477 H   0  0  0  0  0  0  0  0  0  0  0  0
   61.7723   30.3995   47.9282 H   0  0  0  0  0  0  0  0  0  0  0  0
  1  2  1  0
  2  3  1  0
  3  4  1  0
  4  5  1  0
  5  6  2  0
  5  7  1  0
  7  8  1  0
  8  9  2  0
  9 10  1  0
 10 11  1  0
 11 12  2  0
 11 13  1  0
 13 14  1  0
 14 15  1  0
 15 16  2  0
 16 17  1  0
 17 18  2  0
 18 19  1  0
 18 20  1  0
 20 21  2  0
 10 22  2  0
 22 23  1  0
 23 24  2  0
 24 25  1  0
 25 26  1  0
 26 27  1  0
 27 28  1  0
 28 29  1  0
 24  8  1  0
 29 25  1  0
 21 15  1  0
  1 30  1  0
  1 31  1  0
  1 32  1  0
  3 33  1  0
  3 34  1  0
  4 35  1  0
  4 36  1  0
  7 37  1  0
  9 38  1  0
 14 39  1  0
 14 40  1  0
 16 41  1  0
 17 42  1  0
 20 43  1  0
 21 44  1  0
 22 45  1  0
 23 46  1  0
 26 47  1  0
 26 48  1  0
 27 49  1  0
 27 50  1  0
 28 51  1  0
 28 52  1  0
 29 53  1  0
 29 54  1  0
M  CHG  2  13  -1  19  -1
M  END
>  <UniqueID>  (35) 
35

>  <SMILES>  (35) 
CSCCC(=O)Nc1cc(C(=O)[N-]Cc2ccc([O-])cc2)ccc1N1CCCC1

>  <Energy>  (35) 
58.18904800917324

>  <Genealogy>  (35) 
CSCCC(=O)Nc1cc(C(=O)[N-]Cc2ccc([O-])cc2)ccc1N1CCCC1 (protonated)
CSCCC(=O)Nc1cc(C(=O)[N-]Cc2ccc([O-])cc2)ccc1N1CCCC1 (3D coordinates assigned)
CSCCC(=O)Nc1cc(C(=O)[N-]Cc2ccc([O-])cc2)ccc1N1CCCC1 (nonaromatic ring conformer: 58.18904800917324 kcal/mol)

>  <smiles>  (35) 
CSCCC(=O)Nc1cc(C(=O)NCc2ccc(O)cc2)ccc1N1CCCC1

>  <score_type>  (35) 
oracle

>  <origin>  (35) 
adg

>  <m_score__min__energy>  (35) 
-13.65

>  <m_primary>  (35) 
energy

$$$$
35:0
     RDKit          3D

 32 33  0  0  0  0  0  0  0  0999 V2000
   54.9500   22.0580   48.9000 C   0  0  0  0  0  0  0  0  0  0  0  0
   56.3700   22.7360   48.0690 S   0  0  0  0  0  0  0  0  0  0  0  0
   57.3340   23.2440   49.1030 O   0  0  0  0  0  0  0  0  0  0  0  0
   57.0540   21.6790   47.2490 O   0  0  0  0  0  0  0  0  0  0  0  0
   55.8950   24.0600   47.0540 N   0  0  0  0  0  0  0  0  0  0  0  0
   56.7050   25.1980   46.7210 C   0  0  0  0  0  0  0  0  0  0  0  0
   58.0970   25.2070   46.9180 C   0  0  0  0  0  0  0  0  0  0  0  0
   58.8500   26.3310   46.5720 C   0  0  0  0  0  0  0  0  0  0  0  0
   58.2260   27.4570   46.0340 C   0  0  0  0  0  0  0  0  0  0  0  0
   56.8330   27.4770   45.8520 C   0  0  0  0  0  0  0  0  0  0  0  0
   56.1810   28.6250   45.2760 N   0  0  0  0  0  0  0  0  0  0  0  0
   56.8780   29.7800   44.7740 C   0  0  0  0  0  0  0  0  0  0  0  0
   57.7350   30.5210   45.6070 C   0  0  0  0  0  0  0  0  0  0  0  0
   58.3880   31.6550   45.1200 C   0  0  0  0  0  0  0  0  0  0  0  0
   58.1830   32.0690   43.8030 C   0  0  0  0  0  0  0  0  0  0  0  0
   57.3180   31.3550   42.9690 C   0  0  0  0  0  0  0  0  0  0  0  0
   57.1180   31.7880   41.6630 O   0  0  0  0  0  0  0  0  0  0  0  0
   56.6580   30.2110   43.4510 C   0  0  0  0  0  0  0  0  0  0  0  0
   55.7930   29.4900   42.6270 O   0  0  0  0  0  0  0  0  0  0  0  0
   56.0790   26.3360   46.1840 C   0  0  0  0  0  0  0  0  0  0  0  0
   54.7020   26.3320   45.9870 O   0  0  0  0  0  0  0  0  0  0  0  0
   55.0945   22.1270   49.9883 H   0  0  0  0  0  0  0  0  0  0  0  0
   54.0519   22.6245   48.6127 H   0  0  0  0  0  0  0  0  0  0  0  0
   54.8259   21.0035   48.6127 H   0  0  0  0  0  0  0  0  0  0  0  0
   58.5951   24.3248   47.3465 H   0  0  0  0  0  0  0  0  0  0  0  0
   59.9394   26.3286   46.7242 H   0  0  0  0  0  0  0  0  0  0  0  0
   58.8276   28.3333   45.7510 H   0  0  0  0  0  0  0  0  0  0  0  0
   55.1380   28.6180   45.2190 H   0  0  0  0  0  0  0  0  0  0  0  0
   57.8919   30.2052   46.6489 H   0  0  0  0  0  0  0  0  0  0  0  0
   59.0649   32.2229   45.7752 H   0  0  0  0  0  0  0  0  0  0  0  0
   58.7034   32.9594   43.4204 H   0  0  0  0  0  0  0  0  0  0  0  0
   55.7510   29.6410   41.6260 H   0  0  0  0  0  0  0  0  0  0  0  0
  1  2  1  0
  2  3  2  0
  2  4  2  0
  2  5  1  0
  5  6  1  0
  6  7  2  0
  7  8  1  0
  8  9  2  0
  9 10  1  0
 10 11  1  0
 11 12  1  0
 12 13  2  0
 13 14  1  0
 14 15  2  0
 15 16  1  0
 16 17  1  0
 16 18  2  0
 18 19  1  0
 10 20  2  0
 20 21  1  0
 20  6  1  0
 18 12  1  0
  1 22  1  0
  1 23  1  0
  1 24  1  0
  7 25  1  0
  8 26  1  0
  9 27  1  0
 11 28  1  0
 13 29  1  0
 14 30  1  0
 15 31  1  0
 19 32  1  0
M  CHG  3   5  -1  17  -1  21  -1
M  END
>  <UniqueID>  (36) 
36

>  <SMILES>  (36) 
CS(=O)(=O)[N-]c1cccc(Nc2cccc([O-])c2O)c1[O-]

>  <Energy>  (36) 
38.74299747884289

>  <Genealogy>  (36) 
CS(=O)(=O)[N-]c1cccc(Nc2cccc([O-])c2O)c1[O-] (protonated)
CS(=O)(=O)[N-]c1cccc(Nc2cccc([O-])c2O)c1[O-] (3D coordinates assigned)
CS(=O)(=O)[N-]c1cccc(Nc2cccc([O-])c2O)c1[O-] (optimized conformer: 38.74299747884289 kcal/mol)

>  <smiles>  (36) 
CS(=O)(=O)Nc1cccc(Nc2cccc(O)c2O)c1O

>  <score_type>  (36) 
oracle

>  <origin>  (36) 
adg

>  <m_score__min__energy>  (36) 
-13.869999999999999

>  <m_primary>  (36) 
energy

$$$$
36:0
     RDKit          3D

 37 39  0  0  0  0  0  0  0  0999 V2000
   54.9249   24.5010   46.2629 H   0  0  0  0  0  0  0  0  0  0  0  0
   55.6830   25.2270   45.9340 C   0  0  0  0  0  0  0  0  0  0  0  0
   55.5220   26.5680   46.0730 N   0  0  0  0  0  0  0  0  0  0  0  0
   56.5970   27.2480   45.6100 C   0  0  0  0  0  0  0  0  0  0  0  0
   56.6980   28.5430   45.6020 N   0  0  0  0  0  0  0  0  0  0  0  0
   56.0580   29.4340   44.6760 C   0  0  0  0  0  0  0  0  0  0  0  0
   54.8210   29.3390   44.4420 O   0  0  0  0  0  0  0  0  0  0  0  0
   56.8400   30.5090   44.0250 C   0  0  0  0  0  0  0  0  0  0  0  0
   56.8290   30.5890   42.6200 C   0  0  0  0  0  0  0  0  0  0  0  0
   56.3223   29.8076   42.0347 H   0  0  0  0  0  0  0  0  0  0  0  0
   57.4540   31.6490   41.9610 C   0  0  0  0  0  0  0  0  0  0  0  0
   57.4425   31.6964   40.8621 H   0  0  0  0  0  0  0  0  0  0  0  0
   58.0930   32.6480   42.6950 C   0  0  0  0  0  0  0  0  0  0  0  0
   58.5659   33.4944   42.1754 H   0  0  0  0  0  0  0  0  0  0  0  0
   58.1330   32.5750   44.0870 C   0  0  0  0  0  0  0  0  0  0  0  0
   58.6288   33.3725   44.6598 H   0  0  0  0  0  0  0  0  0  0  0  0
   57.5480   31.4960   44.7640 C   0  0  0  0  0  0  0  0  0  0  0  0
   57.7110   31.4340   46.1900 N   0  0  0  0  0  0  0  0  0  0  0  0
   58.8830   31.0000   46.8960 C   0  0  0  0  0  0  0  0  0  0  0  0
   59.4470   31.8060   47.6820 O   0  0  0  0  0  0  0  0  0  0  0  0
   59.4410   29.6380   46.7390 C   0  0  0  0  0  0  0  0  0  0  0  0
   60.1340   29.3080   45.5620 C   0  0  0  0  0  0  0  0  0  0  0  0
   60.2362   30.0545   44.7606 H   0  0  0  0  0  0  0  0  0  0  0  0
   60.6940   28.0380   45.4030 C   0  0  0  0  0  0  0  0  0  0  0  0
   61.2467   27.7924   44.4842 H   0  0  0  0  0  0  0  0  0  0  0  0
   60.5530   27.0800   46.4090 C   0  0  0  0  0  0  0  0  0  0  0  0
   61.0017   26.0832   46.2864 H   0  0  0  0  0  0  0  0  0  0  0  0
   59.8420   27.3880   47.5710 C   0  0  0  0  0  0  0  0  0  0  0  0
   59.7235   26.6288   48.3581 H   0  0  0  0  0  0  0  0  0  0  0  0
   59.2800   28.6580   47.7380 C   0  0  0  0  0  0  0  0  0  0  0  0
   58.5440   28.9110   48.8500 F   0  0  0  0  0  0  0  0  0  0  0  0
   57.7870   26.2240   45.0100 S   0  0  0  0  0  0  0  0  0  0  0  0
   56.8820   24.8440   45.3430 C   0  0  0  0  0  0  0  0  0  0  0  0
   57.3450   23.4410   45.1380 C   0  0  0  0  0  0  0  0  0  0  0  0
   57.5035   22.9608   46.1149 H   0  0  0  0  0  0  0  0  0  0  0  0
   56.5836   22.8823   44.5740 H   0  0  0  0  0  0  0  0  0  0  0  0
   58.2894   23.4452   44.5740 H   0  0  0  0  0  0  0  0  0  0  0  0
  1  2  1  0
  2  3  1  0
  3  4  1  0
  4  5  2  0
  5  6  1  0
  6  7  2  0
  6  8  1  0
  8  9  2  0
  9 10  1  0
  9 11  1  0
 11 12  1  0
 11 13  2  0
 13 14  1  0
 13 15  1  0
 15 16  1  0
 15 17  2  0
 17 18  1  0
 18 19  1  0
 19 20  2  0
 19 21  1  0
 21 22  2  0
 22 23  1  0
 22 24  1  0
 24 25  1  0
 24 26  2  0
 26 27  1  0
 26 28  1  0
 28 29  1  0
 28 30  2  0
 30 31  1  0
  4 32  1  0
 32 33  1  0
 33 34  1  0
 34 35  1  0
 34 36  1  0
 34 37  1  0
 33  2  2  0
 17  8  1  0
 30 21  1  0
M  CHG  2   3  -1  18  -1
M  END
>  <UniqueID>  (37) 
37

>  <SMILES>  (37) 
Cc1c[n-]/c(=N\C(=O)c2ccccc2[N-]C(=O)c2ccccc2F)s1

>  <Energy>  (37) 
83.39996669420412

>  <Genealogy>  (37) 
Cc1c[n-]c(=NC(=O)c2ccccc2[N-]C(=O)c2ccccc2F)s1 (protonated)
Cc1c[n-]/c(=N\C(=O)c2ccccc2[N-]C(=O)c2ccccc2F)s1 (cis-trans isomerization)
Cc1c[n-]/c(=N\C(=O)c2ccccc2[N-]C(=O)c2ccccc2F)s1 (3D coordinates assigned)
Cc1c[n-]/c(=N\C(=O)c2ccccc2[N-]C(=O)c2ccccc2F)s1 (optimized conformer: 83.39996669420412 kcal/mol)

>  <smiles>  (37) 
Cc1c[nH]c(=NC(=O)c2ccccc2NC(=O)c2ccccc2F)s1

>  <score_type>  (37) 
oracle

>  <origin>  (37) 
adg

>  <m_score__min__energy>  (37) 
-12.27

>  <m_primary>  (37) 
energy

$$$$
37:0
     RDKit          3D

 15 15  0  0  0  0  0  0  0  0999 V2000
   52.1840   29.0850   52.6380 C   0  0  0  0  0  0  0  0  0  0  0  0
   51.6620   30.3100   52.4740 C   0  0  0  0  0  0  0  0  0  0  0  0
   51.6190   30.8770   51.1900 C   0  0  0  0  0  0  0  0  0  0  0  0
   51.0790   32.1500   51.0120 C   0  0  0  0  0  0  0  0  0  0  0  0
   51.0330   32.7160   49.7450 O   0  0  0  0  0  0  0  0  0  0  0  0
   50.5950   32.8400   52.0760 N   0  0  0  0  0  0  0  0  0  0  0  0
   50.6130   32.3350   53.3390 C   0  0  0  0  0  0  0  0  0  0  0  0
   50.1160   33.0780   54.3340 C   0  0  0  0  0  0  0  0  0  0  0  0
   51.1520   31.0490   53.5670 C   0  0  0  0  0  0  0  0  0  0  0  0
   51.1770   30.5630   54.7350 O   0  0  0  0  0  0  0  0  0  0  0  0
   52.2218   28.6329   53.6401 H   0  0  0  0  0  0  0  0  0  0  0  0
   52.5741   28.5327   51.7704 H   0  0  0  0  0  0  0  0  0  0  0  0
   52.0103   30.3183   50.3270 H   0  0  0  0  0  0  0  0  0  0  0  0
   50.1194   32.6913   55.3638 H   0  0  0  0  0  0  0  0  0  0  0  0
   49.7038   34.0757   54.1225 H   0  0  0  0  0  0  0  0  0  0  0  0
  1  2  2  0
  2  3  1  0
  3  4  2  0
  4  5  1  0
  4  6  1  0
  6  7  1  0
  7  8  2  0
  7  9  1  0
  9 10  2  0
  9  2  1  0
  1 11  1  0
  1 12  1  0
  3 13  1  0
  8 14  1  0
  8 15  1  0
M  CHG  2   5  -1   6  -1
M  END
>  <UniqueID>  (38) 
38

>  <SMILES>  (38) 
C=c1cc([O-])[n-]c(=C)c1=O

>  <Energy>  (38) 
17.82284174123536

>  <Genealogy>  (38) 
C=c1cc([O-])[n-]c(=C)c1=O (protonated)
C=c1cc([O-])[n-]c(=C)c1=O (3D coordinates assigned)
C=c1cc([O-])[n-]c(=C)c1=O (optimized conformer: 17.82284174123536 kcal/mol)

>  <smiles>  (38) 
C=c1cc(O)[nH]c(=C)c1=O

>  <score_type>  (38) 
oracle

>  <origin>  (38) 
adg

>  <m_score__min__energy>  (38) 
-12.380000000000001

>  <m_primary>  (38) 
energy

$$$$
38:0
     RDKit          3D

 27 28  0  0  0  0  0  0  0  0999 V2000
   55.7520   30.0900   45.6210 H   0  0  0  0  0  0  0  0  0  0  0  0
   55.8780   29.1580   45.2440 O   0  0  0  0  0  0  0  0  0  0  0  0
   56.9970   28.3880   45.5610 C   0  0  0  0  0  0  0  0  0  0  0  0
   57.0950   27.0630   45.1190 C   0  0  0  0  0  0  0  0  0  0  0  0
   56.2880   26.6227   44.5149 H   0  0  0  0  0  0  0  0  0  0  0  0
   58.2180   26.3020   45.4460 C   0  0  0  0  0  0  0  0  0  0  0  0
   58.3041   25.2617   45.0989 H   0  0  0  0  0  0  0  0  0  0  0  0
   59.2300   26.8730   46.2170 C   0  0  0  0  0  0  0  0  0  0  0  0
   60.1183   26.2818   46.4844 H   0  0  0  0  0  0  0  0  0  0  0  0
   59.1180   28.1610   46.6380 N   0  0  0  0  0  0  0  0  0  0  0  0
   58.0390   28.9350   46.3260 C   0  0  0  0  0  0  0  0  0  0  0  0
   57.9460   30.1630   46.7530 N   0  0  0  0  0  0  0  0  0  0  0  0
   57.9200   31.3530   45.9470 C   0  0  0  0  0  0  0  0  0  0  0  0
   57.0820   31.4240   45.0090 O   0  0  0  0  0  0  0  0  0  0  0  0
   58.9040   32.4480   46.1240 C   0  0  0  0  0  0  0  0  0  0  0  0
   60.1860   32.1460   46.6180 C   0  0  0  0  0  0  0  0  0  0  0  0
   60.4371   31.1061   46.8742 H   0  0  0  0  0  0  0  0  0  0  0  0
   61.1510   33.1540   46.7890 C   0  0  0  0  0  0  0  0  0  0  0  0
   62.4590   32.8390   47.3030 N   0  0  0  0  0  0  0  0  0  0  0  0
   62.6860   31.7310   47.8300 O   0  0  0  0  0  0  0  0  0  0  0  0
   63.4810   33.7580   47.2250 O   0  0  0  0  0  0  0  0  0  0  0  0
   60.8220   34.4750   46.4500 C   0  0  0  0  0  0  0  0  0  0  0  0
   61.5680   35.2733   46.5773 H   0  0  0  0  0  0  0  0  0  0  0  0
   59.5540   34.7840   45.9520 C   0  0  0  0  0  0  0  0  0  0  0  0
   59.3092   35.8237   45.6893 H   0  0  0  0  0  0  0  0  0  0  0  0
   58.5940   33.7820   45.7850 C   0  0  0  0  0  0  0  0  0  0  0  0
   56.9980   34.2500   45.2040 Cl  0  0  0  0  0  0  0  0  0  0  0  0
  1  2  1  0
  2  3  1  0
  3  4  2  0
  4  5  1  0
  4  6  1  0
  6  7  1  0
  6  8  2  0
  8  9  1  0
  8 10  1  0
 10 11  1  0
 11 12  2  0
 12 13  1  0
 13 14  2  0
 13 15  1  0
 15 16  2  0
 16 17  1  0
 16 18  1  0
 18 19  1  0
 19 20  2  0
 19 21  1  0
 18 22  2  0
 22 23  1  0
 22 24  1  0
 24 25  1  0
 24 26  2  0
 26 27  1  0
 11  3  1  0
 26 15  1  0
M  CHG  3  10  -1  19   1  21  -1
M  END
>  <UniqueID>  (39) 
39

>  <SMILES>  (39) 
O=C(/N=c1\[n-]cccc1O)c1cc([N+](=O)[O-])ccc1Cl

>  <Energy>  (39) 
39.77629850083449

>  <Genealogy>  (39) 
O=C(N=c1[n-]cccc1O)c1cc([N+](=O)[O-])ccc1Cl (protonated)
O=C(/N=c1\[n-]cccc1O)c1cc([N+](=O)[O-])ccc1Cl (cis-trans isomerization)
O=C(/N=c1\[n-]cccc1O)c1cc([N+](=O)[O-])ccc1Cl (3D coordinates assigned)
O=C(/N=c1\[n-]cccc1O)c1cc([N+](=O)[O-])ccc1Cl (optimized conformer: 39.77629850083449 kcal/mol)

>  <smiles>  (39) 
O=C(N=c1[nH]cccc1O)c1cc([N+](=O)[O-])ccc1Cl

>  <score_type>  (39) 
oracle

>  <origin>  (39) 
adg

>  <m_score__min__energy>  (39) 
-9.3800000000000008

>  <m_primary>  (39) 
energy

$$$$
39:0
     RDKit          3D

 64 66  0  0  0  0  0  0  0  0999 V2000
   55.6170   29.7820   44.1580 C   0  0  0  0  0  0  0  0  0  0  0  0
   56.9310   30.5570   44.2520 C   0  0  0  0  0  0  0  0  0  0  0  0
   57.3320   31.2100   42.9200 C   0  0  0  0  0  0  0  0  0  0  0  0
   58.1150   32.5200   43.1200 C   0  0  0  0  0  0  0  0  0  0  0  0
   57.4540   33.4430   44.1550 C   0  0  0  0  0  0  0  0  0  0  0  0
   58.2250   33.4920   45.4490 C   0  0  0  0  0  0  0  0  0  0  0  0
   59.3950   34.2590   45.5480 C   0  0  0  0  0  0  0  0  0  0  0  0
   60.0860   34.3410   46.7600 C   0  0  0  0  0  0  0  0  0  0  0  0
   59.6120   33.6650   47.8960 C   0  0  0  0  0  0  0  0  0  0  0  0
   60.3390   33.7500   49.1810 C   0  0  0  0  0  0  0  0  0  0  0  0
   59.7660   34.2660   50.1800 O   0  0  0  0  0  0  0  0  0  0  0  0
   61.6820   33.2460   49.3140 N   0  0  0  0  0  0  0  0  0  0  0  0
   62.4050   33.4670   50.5800 C   0  0  0  0  0  0  0  0  0  0  0  0
   63.9090   33.1840   50.4440 C   0  0  0  0  0  0  0  0  0  0  0  0
   64.3840   33.4730   49.0220 C   0  0  0  0  0  0  0  0  0  0  0  0
   63.7010   32.5320   48.0180 C   0  0  0  0  0  0  0  0  0  0  0  0
   62.1930   32.2860   48.3190 C   0  0  1  0  0  0  0  0  0  0  0  0
   61.9240   30.8440   48.8010 C   0  0  0  0  0  0  0  0  0  0  0  0
   61.2940   30.0460   47.7510 N   0  0  0  0  0  0  0  0  0  0  0  0
   60.2810   29.0660   48.0320 C   0  0  0  0  0  0  0  0  0  0  0  0
   60.0550   28.7270   49.2260 O   0  0  0  0  0  0  0  0  0  0  0  0
   59.5080   28.4340   46.9370 C   0  0  0  0  0  0  0  0  0  0  0  0
   59.9300   28.5770   45.6060 C   0  0  0  0  0  0  0  0  0  0  0  0
   59.2130   27.9820   44.5680 C   0  0  0  0  0  0  0  0  0  0  0  0
   58.0720   27.2260   44.8440 C   0  0  0  0  0  0  0  0  0  0  0  0
   57.6350   27.0560   46.1690 C   0  0  0  0  0  0  0  0  0  0  0  0
   56.4270   26.2470   46.4610 C   0  0  0  0  0  0  0  0  0  0  0  0
   55.1380   26.6940   46.0440 N   0  0  0  0  0  0  0  0  0  0  0  0
   56.5280   25.1550   47.0790 O   0  0  0  0  0  0  0  0  0  0  0  0
   58.3640   27.6600   47.2110 C   0  0  0  0  0  0  0  0  0  0  0  0
   58.4510   32.8820   47.7900 C   0  0  0  0  0  0  0  0  0  0  0  0
   57.7580   32.8040   46.5800 C   0  0  0  0  0  0  0  0  0  0  0  0
   55.2468   29.5637   45.1706 H   0  0  0  0  0  0  0  0  0  0  0  0
   54.8730   30.3859   43.6179 H   0  0  0  0  0  0  0  0  0  0  0  0
   55.7855   28.8387   43.6179 H   0  0  0  0  0  0  0  0  0  0  0  0
   56.8208   31.3454   45.0111 H   0  0  0  0  0  0  0  0  0  0  0  0
   57.7206   29.8400   44.5211 H   0  0  0  0  0  0  0  0  0  0  0  0
   57.9610   30.5052   42.3565 H   0  0  0  0  0  0  0  0  0  0  0  0
   56.4082   31.4519   42.3740 H   0  0  0  0  0  0  0  0  0  0  0  0
   59.1315   32.2757   43.4622 H   0  0  0  0  0  0  0  0  0  0  0  0
   58.1318   33.0520   42.1573 H   0  0  0  0  0  0  0  0  0  0  0  0
   57.3969   34.4593   43.7380 H   0  0  0  0  0  0  0  0  0  0  0  0
   56.4529   33.0430   44.3735 H   0  0  0  0  0  0  0  0  0  0  0  0
   59.7710   34.7992   44.6666 H   0  0  0  0  0  0  0  0  0  0  0  0
   61.0071   34.9389   46.8245 H   0  0  0  0  0  0  0  0  0  0  0  0
   62.2676   34.5138   50.8888 H   0  0  0  0  0  0  0  0  0  0  0  0
   61.9962   32.7728   51.3290 H   0  0  0  0  0  0  0  0  0  0  0  0
   64.4623   33.8241   51.1470 H   0  0  0  0  0  0  0  0  0  0  0  0
   64.0920   32.1232   50.6702 H   0  0  0  0  0  0  0  0  0  0  0  0
   64.1396   34.5141   48.7645 H   0  0  0  0  0  0  0  0  0  0  0  0
   65.4711   33.3122   48.9734 H   0  0  0  0  0  0  0  0  0  0  0  0
   63.7876   32.9730   47.0140 H   0  0  0  0  0  0  0  0  0  0  0  0
   64.2075   31.5584   48.0930 H   0  0  0  0  0  0  0  0  0  0  0  0
   61.6579   32.4351   47.3696 H   0  0  0  0  0  0  0  0  0  0  0  0
   62.8785   30.3760   49.0838 H   0  0  0  0  0  0  0  0  0  0  0  0
   61.2427   30.8858   49.6636 H   0  0  0  0  0  0  0  0  0  0  0  0
   61.6710   30.1320   46.7810 H   0  0  0  0  0  0  0  0  0  0  0  0
   60.8331   29.1628   45.3797 H   0  0  0  0  0  0  0  0  0  0  0  0
   59.5478   28.1088   43.5279 H   0  0  0  0  0  0  0  0  0  0  0  0
   57.5118   26.7607   44.0196 H   0  0  0  0  0  0  0  0  0  0  0  0
   54.4720   27.1270   46.7220 H   0  0  0  0  0  0  0  0  0  0  0  0
   58.0358   27.5256   48.2523 H   0  0  0  0  0  0  0  0  0  0  0  0
   58.0850   32.3264   48.6660 H   0  0  0  0  0  0  0  0  0  0  0  0
   56.8411   32.2001   46.5128 H   0  0  0  0  0  0  0  0  0  0  0  0
  1  2  1  0
  2  3  1  0
  3  4  1  0
  4  5  1  0
  5  6  1  0
  6  7  2  0
  7  8  1  0
  8  9  2  0
  9 10  1  0
 10 11  2  0
 10 12  1  0
 12 13  1  0
 13 14  1  0
 14 15  1  0
 15 16  1  0
 16 17  1  0
 17 18  1  0
 18 19  1  0
 19 20  1  0
 20 21  2  0
 20 22  1  0
 22 23  2  0
 23 24  1  0
 24 25  2  0
 25 26  1  0
 26 27  1  0
 27 28  1  0
 27 29  2  0
 26 30  2  0
  9 31  1  0
 31 32  2  0
 32  6  1  0
 17 12  1  0
 30 22  1  0
  1 33  1  0
  1 34  1  0
  1 35  1  0
  2 36  1  0
  2 37  1  0
  3 38  1  0
  3 39  1  0
  4 40  1  0
  4 41  1  0
  5 42  1  0
  5 43  1  0
  7 44  1  0
  8 45  1  0
 13 46  1  0
 13 47  1  0
 14 48  1  0
 14 49  1  0
 15 50  1  0
 15 51  1  0
 16 52  1  0
 16 53  1  0
 17 54  1  6
 18 55  1  0
 18 56  1  0
 19 57  1  0
 23 58  1  0
 24 59  1  0
 25 60  1  0
 28 61  1  0
 30 62  1  0
 31 63  1  0
 32 64  1  0
M  CHG  1  28  -1
M  END
>  <UniqueID>  (40) 
40

>  <SMILES>  (40) 
CCCCCc1ccc(C(=O)N2CCCC[C@H]2CNC(=O)c2cccc(C([NH-])=O)c2)cc1

>  <Energy>  (40) 
63.66164999221755

>  <Genealogy>  (40) 
CCCCCc1ccc(C(=O)N2CCCCC2CNC(=O)c2cccc(C([NH-])=O)c2)cc1 (protonated)
CCCCCc1ccc(C(=O)N2CCCC[C@H]2CNC(=O)c2cccc(C([NH-])=O)c2)cc1 (chirality)
CCCCCc1ccc(C(=O)N2CCCC[C@H]2CNC(=O)c2cccc(C([NH-])=O)c2)cc1 (3D coordinates assigned)
CCCCCc1ccc(C(=O)N2CCCC[C@H]2CNC(=O)c2cccc(C([NH-])=O)c2)cc1 (nonaromatic ring conformer: 63.66164999221755 kcal/mol)

>  <smiles>  (40) 
CCCCCc1ccc(C(=O)N2CCCCC2CNC(=O)c2cccc(C(N)=O)c2)cc1

>  <score_type>  (40) 
oracle

>  <origin>  (40) 
adg

>  <m_score__min__energy>  (40) 
-14.16

>  <m_primary>  (40) 
energy

$$$$
40:0
     RDKit          3D

 42 44  0  0  0  0  0  0  0  0999 V2000
   52.0482   27.4973   53.3469 H   0  0  0  0  0  0  0  0  0  0  0  0
   52.5150   28.4490   53.0530 C   0  0  0  0  0  0  0  0  0  0  0  0
   51.8120   29.3510   52.3210 N   0  0  0  0  0  0  0  0  0  0  0  0
   52.3410   30.5430   51.9290 C   0  0  0  0  0  0  0  0  0  0  0  0
   51.5420   31.4990   51.1140 C   0  0  0  0  0  0  0  0  0  0  0  0
   51.2860   31.2140   49.9150 O   0  0  0  0  0  0  0  0  0  0  0  0
   51.0420   32.7450   51.6250 N   0  0  0  0  0  0  0  0  0  0  0  0
   50.2480   32.9410   52.8290 C   0  0  0  0  0  0  0  0  0  0  0  0
   50.8809   32.7848   53.7150 H   0  0  0  0  0  0  0  0  0  0  0  0
   49.8468   33.9652   52.8409 H   0  0  0  0  0  0  0  0  0  0  0  0
   49.4163   32.2212   52.8409 H   0  0  0  0  0  0  0  0  0  0  0  0
   53.6640   30.8510   52.2930 C   0  0  0  0  0  0  0  0  0  0  0  0
   54.1148   31.8018   51.9724 H   0  0  0  0  0  0  0  0  0  0  0  0
   54.4070   29.9500   53.0620 C   0  0  0  0  0  0  0  0  0  0  0  0
   55.7280   30.2790   53.4000 O   0  0  0  0  0  0  0  0  0  0  0  0
   56.6500   30.9130   52.5540 C   0  0  0  0  0  0  0  0  0  0  0  0
   57.3520   30.1370   51.6250 C   0  0  0  0  0  0  0  0  0  0  0  0
   57.1821   29.0511   51.5805 H   0  0  0  0  0  0  0  0  0  0  0  0
   58.2680   30.7330   50.7530 C   0  0  0  0  0  0  0  0  0  0  0  0
   58.8306   30.1094   50.0427 H   0  0  0  0  0  0  0  0  0  0  0  0
   58.4750   32.1200   50.7770 C   0  0  0  0  0  0  0  0  0  0  0  0
   59.4400   32.7050   49.8850 N   0  0  0  0  0  0  0  0  0  0  0  0
   60.4490   32.6620   50.1540 H   0  0  0  0  0  0  0  0  0  0  0  0
   59.1250   33.2460   48.5950 C   0  0  0  0  0  0  0  0  0  0  0  0
   57.9920   33.0400   48.0780 O   0  0  0  0  0  0  0  0  0  0  0  0
   60.1350   33.9830   47.8870 N   0  0  0  0  0  0  0  0  0  0  0  0
   61.4230   33.7900   47.9320 C   0  0  0  0  0  0  0  0  0  0  0  0
   62.0810   33.6540   49.1190 N   0  0  0  0  0  0  0  0  0  0  0  0
   63.4240   33.4510   49.1800 C   0  0  0  0  0  0  0  0  0  0  0  0
   63.9209   33.3467   50.1558 H   0  0  0  0  0  0  0  0  0  0  0  0
   64.1720   33.3750   48.0040 C   0  0  0  0  0  0  0  0  0  0  0  0
   65.2588   33.2106   48.0457 H   0  0  0  0  0  0  0  0  0  0  0  0
   63.5250   33.5100   46.7740 C   0  0  0  0  0  0  0  0  0  0  0  0
   64.1011   33.4517   45.8387 H   0  0  0  0  0  0  0  0  0  0  0  0
   62.1460   33.7190   46.7340 C   0  0  0  0  0  0  0  0  0  0  0  0
   61.6301   33.8273   45.7686 H   0  0  0  0  0  0  0  0  0  0  0  0
   57.7710   32.9010   51.7120 C   0  0  0  0  0  0  0  0  0  0  0  0
   57.9417   33.9867   51.7575 H   0  0  0  0  0  0  0  0  0  0  0  0
   56.8550   32.3030   52.5840 C   0  0  0  0  0  0  0  0  0  0  0  0
   56.2924   32.9239   53.2967 H   0  0  0  0  0  0  0  0  0  0  0  0
   53.8280   28.7270   53.4330 C   0  0  0  0  0  0  0  0  0  0  0  0
   54.4039   27.9946   54.0178 H   0  0  0  0  0  0  0  0  0  0  0  0
  1  2  1  0
  2  3  2  0
  3  4  1  0
  4  5  1  0
  5  6  2  0
  5  7  1  0
  7  8  1  0
  8  9  1  0
  8 10  1  0
  8 11  1  0
  4 12  2  0
 12 13  1  0
 12 14  1  0
 14 15  1  0
 15 16  1  0
 16 17  2  0
 17 18  1  0
 17 19  1  0
 19 20  1  0
 19 21  2  0
 21 22  1  0
 22 23  1  0
 22 24  1  0
 24 25  2  0
 24 26  1  0
 26 27  2  0
 27 28  1  0
 28 29  1  0
 29 30  1  0
 29 31  2  0
 31 32  1  0
 31 33  1  0
 33 34  1  0
 33 35  2  0
 35 36  1  0
 21 37  1  0
 37 38  1  0
 37 39  2  0
 39 40  1  0
 14 41  2  0
 41 42  1  0
 41  2  1  0
 39 16  1  0
 35 27  1  0
M  CHG  2   7  -1  28  -1
M  END
>  <UniqueID>  (41) 
41

>  <SMILES>  (41) 
C[N-]C(=O)c1cc(Oc2ccc(NC(=O)/N=c3/cccc[n-]3)cc2)ccn1

>  <Energy>  (41) 
59.200745392750314

>  <Genealogy>  (41) 
C[N-]C(=O)c1cc(Oc2ccc(NC(=O)N=c3cccc[n-]3)cc2)ccn1 (protonated)
C[N-]C(=O)c1cc(Oc2ccc(NC(=O)/N=c3/cccc[n-]3)cc2)ccn1 (cis-trans isomerization)
C[N-]C(=O)c1cc(Oc2ccc(NC(=O)/N=c3/cccc[n-]3)cc2)ccn1 (3D coordinates assigned)
C[N-]C(=O)c1cc(Oc2ccc(NC(=O)/N=c3/cccc[n-]3)cc2)ccn1 (optimized conformer: 59.200745392750314 kcal/mol)

>  <smiles>  (41) 
CNC(=O)c1cc(Oc2ccc(NC(=O)N=c3cccc[nH]3)cc2)ccn1

>  <score_type>  (41) 
oracle

>  <origin>  (41) 
adg

>  <m_score__min__energy>  (41) 
-10.85

>  <m_primary>  (41) 
energy

$$$$
41:0
     RDKit          3D

 35 37  0  0  0  0  0  0  0  0999 V2000
   61.7511   27.0892   46.9015 H   0  0  0  0  0  0  0  0  0  0  0  0
   60.7580   26.8390   46.5000 C   0  0  0  0  0  0  0  0  0  0  0  0
   60.3670   25.5430   46.4210 N   0  0  0  0  0  0  0  0  0  0  0  0
   59.1490   25.2000   45.9220 C   0  0  0  0  0  0  0  0  0  0  0  0
   58.7730   23.9530   45.8680 N   0  0  0  0  0  0  0  0  0  0  0  0
   58.0610   23.3100   44.7980 C   0  0  0  0  0  0  0  0  0  0  0  0
   56.9680   23.9220   44.1530 C   0  0  0  0  0  0  0  0  0  0  0  0
   56.6552   24.9348   44.4469 H   0  0  0  0  0  0  0  0  0  0  0  0
   56.2790   23.2460   43.1400 C   0  0  0  0  0  0  0  0  0  0  0  0
   55.4352   23.7334   42.6297 H   0  0  0  0  0  0  0  0  0  0  0  0
   56.6620   21.9520   42.7760 C   0  0  0  0  0  0  0  0  0  0  0  0
   56.1265   21.4256   41.9722 H   0  0  0  0  0  0  0  0  0  0  0  0
   57.7250   21.3270   43.4330 C   0  0  0  0  0  0  0  0  0  0  0  0
   58.0196   20.3049   43.1527 H   0  0  0  0  0  0  0  0  0  0  0  0
   58.4150   22.0000   44.4470 C   0  0  0  0  0  0  0  0  0  0  0  0
   59.2408   21.4978   44.9723 H   0  0  0  0  0  0  0  0  0  0  0  0
   58.2910   26.1750   45.5140 N   0  0  0  0  0  0  0  0  0  0  0  0
   57.3480   25.9050   45.1520 H   0  0  0  0  0  0  0  0  0  0  0  0
   58.6310   27.4940   45.5850 C   0  0  0  0  0  0  0  0  0  0  0  0
   57.6670   28.5200   45.1220 C   0  0  0  0  0  0  0  0  0  0  0  0
   58.1420   29.6930   44.5180 C   0  0  0  0  0  0  0  0  0  0  0  0
   59.2241   29.8454   44.3921 H   0  0  0  0  0  0  0  0  0  0  0  0
   57.2460   30.6680   44.0760 C   0  0  0  0  0  0  0  0  0  0  0  0
   57.6167   31.5926   43.6094 H   0  0  0  0  0  0  0  0  0  0  0  0
   55.8760   30.4580   44.2320 C   0  0  0  0  0  0  0  0  0  0  0  0
   55.1607   31.2218   43.8928 H   0  0  0  0  0  0  0  0  0  0  0  0
   55.4240   29.3100   44.8030 N   0  0  0  0  0  0  0  0  0  0  0  0
   56.2730   28.3420   45.2430 C   0  0  0  0  0  0  0  0  0  0  0  0
   55.7980   27.2860   45.7390 O   0  0  0  0  0  0  0  0  0  0  0  0
   59.8990   27.8610   46.0710 C   0  0  0  0  0  0  0  0  0  0  0  0
   60.2720   29.2150   46.0950 O   0  0  0  0  0  0  0  0  0  0  0  0
   60.2730   30.0290   47.2620 C   0  0  0  0  0  0  0  0  0  0  0  0
   60.2722   29.3882   48.1560 H   0  0  0  0  0  0  0  0  0  0  0  0
   61.1719   30.6630   47.2661 H   0  0  0  0  0  0  0  0  0  0  0  0
   59.3756   30.6652   47.2661 H   0  0  0  0  0  0  0  0  0  0  0  0
  1  2  1  0
  2  3  2  0
  3  4  1  0
  4  5  2  0
  5  6  1  0
  6  7  2  0
  7  8  1  0
  7  9  1  0
  9 10  1  0
  9 11  2  0
 11 12  1  0
 11 13  1  0
 13 14  1  0
 13 15  2  0
 15 16  1  0
  4 17  1  0
 17 18  1  0
 17 19  1  0
 19 20  1  0
 20 21  2  0
 21 22  1  0
 21 23  1  0
 23 24  1  0
 23 25  2  0
 25 26  1  0
 25 27  1  0
 27 28  1  0
 28 29  2  0
 19 30  2  0
 30 31  1  0
 31 32  1  0
 32 33  1  0
 32 34  1  0
 32 35  1  0
 30  2  1  0
 15  6  1  0
 28 20  1  0
M  CHG  1  27  -1
M  END
>  <UniqueID>  (42) 
42

>  <SMILES>  (42) 
COc1cn/c(=N\c2ccccc2)[nH]c1-c1ccc[n-]c1=O

>  <Energy>  (42) 
52.733053987875635

>  <Genealogy>  (42) 
COc1cnc(=Nc2ccccc2)[nH]c1-c1ccc[n-]c1=O (protonated)
COc1cn/c(=N\c2ccccc2)[nH]c1-c1ccc[n-]c1=O (cis-trans isomerization)
COc1cn/c(=N\c2ccccc2)[nH]c1-c1ccc[n-]c1=O (3D coordinates assigned)
COc1cn/c(=N\c2ccccc2)[nH]c1-c1ccc[n-]c1=O (optimized conformer: 52.733053987875635 kcal/mol)

>  <smiles>  (42) 
COc1cnc(=Nc2ccccc2)[nH]c1-c1ccc[nH]c1=O

>  <score_type>  (42) 
oracle

>  <origin>  (42) 
adg

>  <m_score__min__energy>  (42) 
-9.7400000000000002

>  <m_primary>  (42) 
energy

$$$$
42:0
     RDKit          3D

 58 61  0  0  0  0  0  0  0  0999 V2000
   60.9600   33.7140   49.7590 C   0  0  0  0  0  0  0  0  0  0  0  0
   59.8850   34.3580   49.0800 O   0  0  0  0  0  0  0  0  0  0  0  0
   59.5160   34.1060   47.7490 C   0  0  0  0  0  0  0  0  0  0  0  0
   59.6400   35.1470   46.8300 C   0  0  0  0  0  0  0  0  0  0  0  0
   59.2570   34.9670   45.5040 C   0  0  0  0  0  0  0  0  0  0  0  0
   58.7620   33.7320   45.0700 C   0  0  0  0  0  0  0  0  0  0  0  0
   58.3340   33.6140   43.7890 N   0  0  0  0  0  0  0  0  0  0  0  0
   57.7800   32.4700   43.3190 C   0  0  0  0  0  0  0  0  0  0  0  0
   57.6460   31.3550   44.1440 C   0  0  0  0  0  0  0  0  0  0  0  0
   56.7010   30.0130   43.5010 Cl  0  0  0  0  0  0  0  0  0  0  0  0
   58.1840   31.3760   45.4590 C   0  0  0  0  0  0  0  0  0  0  0  0
   58.1820   30.1040   46.3150 C   0  0  0  0  0  0  0  0  0  0  0  0
   59.4660   29.2500   46.1850 C   0  0  0  0  0  0  0  0  0  0  0  0
   59.1420   27.8060   46.2700 N   0  0  0  0  0  0  0  0  0  0  0  0
   59.1100   27.1750   44.9380 C   0  0  0  0  0  0  0  0  0  0  0  0
   57.6490   26.9620   44.5330 C   0  0  0  0  0  0  0  0  0  0  0  0
   56.8200   27.4400   45.7130 C   0  0  1  0  0  0  0  0  0  0  0  0
   55.7730   26.4840   46.0640 N   0  0  0  0  0  0  0  0  0  0  0  0
   56.0200   25.1500   46.5170 C   0  0  0  0  0  0  0  0  0  0  0  0
   55.8970   24.8740   47.7410 O   0  0  0  0  0  0  0  0  0  0  0  0
   56.4330   24.1040   45.5500 C   0  0  0  0  0  0  0  0  0  0  0  0
   55.5180   23.6120   44.6060 C   0  0  0  0  0  0  0  0  0  0  0  0
   55.9010   22.6330   43.6880 C   0  0  0  0  0  0  0  0  0  0  0  0
   57.2100   22.1290   43.6830 C   0  0  0  0  0  0  0  0  0  0  0  0
   57.5950   21.0940   42.6580 C   0  0  0  0  0  0  0  0  0  0  0  0
   58.1520   22.6340   44.6110 C   0  0  0  0  0  0  0  0  0  0  0  0
   59.5810   22.1520   44.6170 C   0  0  0  0  0  0  0  0  0  0  0  0
   57.7460   23.6010   45.5510 C   0  0  0  0  0  0  0  0  0  0  0  0
   57.8140   27.5710   46.8570 C   0  0  0  0  0  0  0  0  0  0  0  0
   58.6710   32.6310   45.9620 C   0  0  0  0  0  0  0  0  0  0  0  0
   59.0220   32.8560   47.3200 C   0  0  0  0  0  0  0  0  0  0  0  0
   60.8127   33.8022   50.8455 H   0  0  0  0  0  0  0  0  0  0  0  0
   60.9869   32.6509   49.4778 H   0  0  0  0  0  0  0  0  0  0  0  0
   61.9100   34.1918   49.4778 H   0  0  0  0  0  0  0  0  0  0  0  0
   60.0433   36.1174   47.1551 H   0  0  0  0  0  0  0  0  0  0  0  0
   59.3440   35.8012   44.7923 H   0  0  0  0  0  0  0  0  0  0  0  0
   57.4328   32.4211   42.2764 H   0  0  0  0  0  0  0  0  0  0  0  0
   58.0682   30.3976   47.3690 H   0  0  0  0  0  0  0  0  0  0  0  0
   57.3502   29.4813   45.9539 H   0  0  0  0  0  0  0  0  0  0  0  0
   59.9417   29.4574   45.2151 H   0  0  0  0  0  0  0  0  0  0  0  0
   60.1496   29.5094   47.0068 H   0  0  0  0  0  0  0  0  0  0  0  0
   59.6058   27.8295   44.2060 H   0  0  0  0  0  0  0  0  0  0  0  0
   59.6364   26.2095   44.9670 H   0  0  0  0  0  0  0  0  0  0  0  0
   57.4108   27.5496   43.6341 H   0  0  0  0  0  0  0  0  0  0  0  0
   57.4441   25.9080   44.2939 H   0  0  0  0  0  0  0  0  0  0  0  0
   56.3044   28.3840   45.4825 H   0  0  0  0  0  0  0  0  0  0  0  0
   54.4895   24.0017   44.5896 H   0  0  0  0  0  0  0  0  0  0  0  0
   55.1686   22.2526   42.9607 H   0  0  0  0  0  0  0  0  0  0  0  0
   57.9347   20.1809   43.1687 H   0  0  0  0  0  0  0  0  0  0  0  0
   56.7239   20.8596   42.0285 H   0  0  0  0  0  0  0  0  0  0  0  0
   58.4075   21.4859   42.0285 H   0  0  0  0  0  0  0  0  0  0  0  0
   59.9245   22.0361   45.6555 H   0  0  0  0  0  0  0  0  0  0  0  0
   59.6433   21.1831   44.0999 H   0  0  0  0  0  0  0  0  0  0  0  0
   60.2174   22.8852   44.0999 H   0  0  0  0  0  0  0  0  0  0  0  0
   58.4665   23.9681   46.2967 H   0  0  0  0  0  0  0  0  0  0  0  0
   57.5341   28.4173   47.5016 H   0  0  0  0  0  0  0  0  0  0  0  0
   57.8194   26.6573   47.4695 H   0  0  0  0  0  0  0  0  0  0  0  0
   58.9066   32.0413   48.0500 H   0  0  0  0  0  0  0  0  0  0  0  0
  1  2  1  0
  2  3  1  0
  3  4  2  0
  4  5  1  0
  5  6  2  0
  6  7  1  0
  7  8  2  0
  8  9  1  0
  9 10  1  0
  9 11  2  0
 11 12  1  0
 12 13  1  0
 13 14  1  0
 14 15  1  0
 15 16  1  0
 16 17  1  0
 17 18  1  0
 18 19  1  0
 19 20  2  0
 19 21  1  0
 21 22  2  0
 22 23  1  0
 23 24  2  0
 24 25  1  0
 24 26  1  0
 26 27  1  0
 26 28  2  0
 17 29  1  0
 11 30  1  0
 30 31  2  0
 31  3  1  0
 30  6  1  0
 29 14  1  0
 28 21  1  0
  1 32  1  0
  1 33  1  0
  1 34  1  0
  4 35  1  0
  5 36  1  0
  8 37  1  0
 12 38  1  0
 12 39  1  0
 13 40  1  0
 13 41  1  0
 15 42  1  0
 15 43  1  0
 16 44  1  0
 16 45  1  0
 17 46  1  6
 22 47  1  0
 23 48  1  0
 25 49  1  0
 25 50  1  0
 25 51  1  0
 27 52  1  0
 27 53  1  0
 27 54  1  0
 28 55  1  0
 29 56  1  0
 29 57  1  0
 31 58  1  0
M  CHG  1  18  -1
M  END
>  <UniqueID>  (43) 
43

>  <SMILES>  (43) 
COc1ccc2ncc(Cl)c(CCN3CC[C@@H]([N-]C(=O)c4ccc(C)c(C)c4)C3)c2c1

>  <Energy>  (43) 
79.74455568872631

>  <Genealogy>  (43) 
COc1ccc2ncc(Cl)c(CCN3CCC([N-]C(=O)c4ccc(C)c(C)c4)C3)c2c1 (protonated)
COc1ccc2ncc(Cl)c(CCN3CC[C@@H]([N-]C(=O)c4ccc(C)c(C)c4)C3)c2c1 (chirality)
COc1ccc2ncc(Cl)c(CCN3CC[C@@H]([N-]C(=O)c4ccc(C)c(C)c4)C3)c2c1 (3D coordinates assigned)
COc1ccc2ncc(Cl)c(CCN3CC[C@@H]([N-]C(=O)c4ccc(C)c(C)c4)C3)c2c1 (nonaromatic ring conformer: 79.74455568872631 kcal/mol)

>  <smiles>  (43) 
COc1ccc2ncc(Cl)c(CCN3CCC(NC(=O)c4ccc(C)c(C)c4)C3)c2c1

>  <score_type>  (43) 
oracle

>  <origin>  (43) 
adg

>  <m_score__min__energy>  (43) 
-12.119999999999999

>  <m_primary>  (43) 
energy

$$$$
43:0
     RDKit          3D

 25 26  0  0  0  0  0  0  0  0999 V2000
   55.3220   29.3410   45.0460 O   0  0  0  0  0  0  0  0  0  0  0  0
   56.5680   29.2450   44.8910 C   0  0  0  0  0  0  0  0  0  0  0  0
   57.2690   30.3150   44.2460 N   0  0  0  0  0  0  0  0  0  0  0  0
   57.7840   31.4910   44.8870 C   0  0  0  0  0  0  0  0  0  0  0  0
   57.6980   32.7570   44.2840 C   0  0  0  0  0  0  0  0  0  0  0  0
   58.2240   33.8820   44.9280 C   0  0  0  0  0  0  0  0  0  0  0  0
   58.8570   33.7590   46.1770 C   0  0  0  0  0  0  0  0  0  0  0  0
   59.3960   34.9180   46.8370 N   0  0  0  0  0  0  0  0  0  0  0  0
   59.6380   35.9620   46.1950 O   0  0  0  0  0  0  0  0  0  0  0  0
   59.6560   34.8960   48.1880 O   0  0  0  0  0  0  0  0  0  0  0  0
   58.9610   32.4840   46.7630 C   0  0  0  0  0  0  0  0  0  0  0  0
   58.4350   31.3620   46.1170 C   0  0  0  0  0  0  0  0  0  0  0  0
   57.2460   28.0450   45.3000 N   0  0  0  0  0  0  0  0  0  0  0  0
   56.7090   26.9140   45.7950 C   0  0  0  0  0  0  0  0  0  0  0  0
   55.3620   26.7160   46.0860 O   0  0  0  0  0  0  0  0  0  0  0  0
   57.7060   25.9880   45.9940 C   0  0  0  0  0  0  0  0  0  0  0  0
   58.8870   26.5230   45.6190 N   0  0  0  0  0  0  0  0  0  0  0  0
   58.5640   27.7650   45.2010 C   0  0  0  0  0  0  0  0  0  0  0  0
   59.4150   28.5700   44.7370 O   0  0  0  0  0  0  0  0  0  0  0  0
   57.2151   32.8641   43.3015 H   0  0  0  0  0  0  0  0  0  0  0  0
   58.1416   34.8708   44.4532 H   0  0  0  0  0  0  0  0  0  0  0  0
   59.4599   32.3696   47.7366 H   0  0  0  0  0  0  0  0  0  0  0  0
   58.5341   30.3693   46.5803 H   0  0  0  0  0  0  0  0  0  0  0  0
   54.7450   27.4870   46.3110 H   0  0  0  0  0  0  0  0  0  0  0  0
   57.5637   24.9735   46.3947 H   0  0  0  0  0  0  0  0  0  0  0  0
  1  2  2  0
  2  3  1  0
  3  4  1  0
  4  5  2  0
  5  6  1  0
  6  7  2  0
  7  8  1  0
  8  9  2  0
  8 10  1  0
  7 11  1  0
 11 12  2  0
  2 13  1  0
 13 14  1  0
 14 15  1  0
 14 16  2  0
 16 17  1  0
 17 18  1  0
 18 19  2  0
 12  4  1  0
 18 13  1  0
  5 20  1  0
  6 21  1  0
 11 22  1  0
 12 23  1  0
 15 24  1  0
 16 25  1  0
M  CHG  4   3  -1   8   1  10  -1  17  -1
M  END
>  <UniqueID>  (44) 
44

>  <SMILES>  (44) 
O=C([N-]c1ccc([N+](=O)[O-])cc1)n1c(O)c[n-]c1=O

>  <Energy>  (44) 
65.92115158446698

>  <Genealogy>  (44) 
O=C([N-]c1ccc([N+](=O)[O-])cc1)n1c(O)c[n-]c1=O (protonated)
O=C([N-]c1ccc([N+](=O)[O-])cc1)n1c(O)c[n-]c1=O (3D coordinates assigned)
O=C([N-]c1ccc([N+](=O)[O-])cc1)n1c(O)c[n-]c1=O (optimized conformer: 65.92115158446698 kcal/mol)

>  <smiles>  (44) 
O=C(Nc1ccc([N+](=O)[O-])cc1)n1c(O)c[nH]c1=O

>  <score_type>  (44) 
oracle

>  <origin>  (44) 
adg

>  <m_score__min__energy>  (44) 
-10.050000000000001

>  <m_primary>  (44) 
energy

$$$$
44:0
     RDKit          3D

 36 37  0  0  0  0  0  0  0  0999 V2000
   54.3900   26.7150   45.1810 H   0  0  0  0  0  0  0  0  0  0  0  0
   54.8740   26.7130   46.0690 O   0  0  0  0  0  0  0  0  0  0  0  0
   56.1100   26.0940   46.2670 C   0  0  0  0  0  0  0  0  0  0  0  0
   56.1330   24.8940   46.9040 N   0  0  0  0  0  0  0  0  0  0  0  0
   57.2970   24.2440   47.1480 C   0  0  0  0  0  0  0  0  0  0  0  0
   57.2860   23.1360   47.7450 O   0  0  0  0  0  0  0  0  0  0  0  0
   58.4740   24.7840   46.7470 N   0  0  0  0  0  0  0  0  0  0  0  0
   58.5160   25.9770   46.1000 C   0  0  0  0  0  0  0  0  0  0  0  0
   59.6280   26.4240   45.7120 O   0  0  0  0  0  0  0  0  0  0  0  0
   57.3210   26.6850   45.8460 C   0  0  0  0  0  0  0  0  0  0  0  0
   57.3220   27.9730   45.1110 C   0  0  0  0  0  0  0  0  0  0  0  0
   56.5366   28.1570   44.3632 H   0  0  0  0  0  0  0  0  0  0  0  0
   58.2420   28.9180   45.3240 C   0  0  0  0  0  0  0  0  0  0  0  0
   59.2319   28.8304   44.8525 H   0  0  0  0  0  0  0  0  0  0  0  0
   57.9380   30.0990   46.2010 C   0  0  0  0  0  0  0  0  0  0  0  0
   56.9004   30.0233   46.5582 H   0  0  0  0  0  0  0  0  0  0  0  0
   58.6403   30.0948   47.0476 H   0  0  0  0  0  0  0  0  0  0  0  0
   58.1090   31.4200   45.4320 C   0  0  0  0  0  0  0  0  0  0  0  0
   59.1117   31.4383   44.9801 H   0  0  0  0  0  0  0  0  0  0  0  0
   57.3206   31.4665   44.6663 H   0  0  0  0  0  0  0  0  0  0  0  0
   57.9530   32.6590   46.3450 C   0  0  0  0  0  0  0  0  0  0  0  0
   57.0211   32.5406   46.9173 H   0  0  0  0  0  0  0  0  0  0  0  0
   59.1380   32.7400   47.3360 C   0  0  0  0  0  0  0  0  0  0  0  0
   58.9483   32.0619   48.1811 H   0  0  0  0  0  0  0  0  0  0  0  0
   60.0584   32.4476   46.8094 H   0  0  0  0  0  0  0  0  0  0  0  0
   59.3080   34.1680   47.8660 C   0  0  0  0  0  0  0  0  0  0  0  0
   58.3702   34.4805   48.3485 H   0  0  0  0  0  0  0  0  0  0  0  0
   60.1448   34.1652   48.5800 H   0  0  0  0  0  0  0  0  0  0  0  0
   59.6330   35.1290   46.7910 N   0  0  0  0  0  0  0  0  0  0  0  0
   59.2270   36.0580   47.0530 H   0  0  0  0  0  0  0  0  0  0  0  0
   59.1230   34.7540   45.4570 C   0  0  0  0  0  0  0  0  0  0  0  0
   58.9595   35.6706   44.8712 H   0  0  0  0  0  0  0  0  0  0  0  0
   59.8711   34.1005   44.9844 H   0  0  0  0  0  0  0  0  0  0  0  0
   57.8030   33.9750   45.5310 C   0  0  0  0  0  0  0  0  0  0  0  0
   57.0432   34.6073   46.0136 H   0  0  0  0  0  0  0  0  0  0  0  0
   57.5047   33.7103   44.5058 H   0  0  0  0  0  0  0  0  0  0  0  0
  1  2  1  0
  2  3  1  0
  3  4  1  0
  4  5  1  0
  5  6  2  0
  5  7  1  0
  7  8  1  0
  8  9  2  0
  8 10  1  0
 10 11  1  0
 11 12  1  0
 11 13  2  0
 13 14  1  0
 13 15  1  0
 15 16  1  0
 15 17  1  0
 15 18  1  0
 18 19  1  0
 18 20  1  0
 18 21  1  0
 21 22  1  0
 21 23  1  0
 23 24  1  0
 23 25  1  0
 23 26  1  0
 26 27  1  0
 26 28  1  0
 26 29  1  0
 29 30  1  0
 29 31  1  0
 31 32  1  0
 31 33  1  0
 31 34  1  0
 34 35  1  0
 34 36  1  0
 10  3  2  0
 34 21  1  0
M  CHG  2   4  -1   7  -1
M  END
>  <UniqueID>  (45) 
45

>  <SMILES>  (45) 
O=c1[n-]c(O)c(/C=C/CCC2CCNCC2)c(=O)[n-]1

>  <Energy>  (45) 
44.01889065389084

>  <Genealogy>  (45) 
O=c1[n-]c(O)c(C=CCCC2CCNCC2)c(=O)[n-]1 (protonated)
O=c1[n-]c(O)c(/C=C/CCC2CCNCC2)c(=O)[n-]1 (cis-trans isomerization)
O=c1[n-]c(O)c(/C=C/CCC2CCNCC2)c(=O)[n-]1 (3D coordinates assigned)
O=c1[n-]c(O)c(/C=C/CCC2CCNCC2)c(=O)[n-]1 (nonaromatic ring conformer: 44.01889065389084 kcal/mol)

>  <smiles>  (45) 
O=c1[nH]c(O)c(C=CCCC2CCNCC2)c(=O)[nH]1

>  <score_type>  (45) 
oracle

>  <origin>  (45) 
adg

>  <m_score__min__energy>  (45) 
-11.57

>  <m_primary>  (45) 
energy

$$$$
45:0
     RDKit          3D

 50 52  0  0  0  0  0  0  0  0999 V2000
   55.1160   19.5851   49.1245 H   0  0  0  0  0  0  0  0  0  0  0  0
   55.5000   20.4760   48.6060 C   0  0  0  0  0  0  0  0  0  0  0  0
   54.6670   21.9160   48.3570 S   0  0  0  0  0  0  0  0  0  0  0  0
   55.9500   22.6560   47.5560 C   0  0  0  0  0  0  0  0  0  0  0  0
   55.9310   24.0260   46.9960 C   0  0  0  0  0  0  0  0  0  0  0  0
   54.9530   24.4490   46.0640 C   0  0  0  0  0  0  0  0  0  0  0  0
   53.9110   23.5300   45.4750 C   0  0  0  0  0  0  0  0  0  0  0  0
   53.1290   24.1342   44.9919 H   0  0  0  0  0  0  0  0  0  0  0  0
   53.4799   22.9215   46.2837 H   0  0  0  0  0  0  0  0  0  0  0  0
   54.4880   22.6660   44.5160 O   0  0  0  0  0  0  0  0  0  0  0  0
   55.4370   23.3630   43.7360 C   0  0  0  0  0  0  0  0  0  0  0  0
   55.7891   24.2473   44.2874 H   0  0  0  0  0  0  0  0  0  0  0  0
   54.9752   23.6857   42.7912 H   0  0  0  0  0  0  0  0  0  0  0  0
   56.6130   22.4430   43.4440 C   0  0  0  0  0  0  0  0  0  0  0  0
   57.0532   22.0986   44.3914 H   0  0  0  0  0  0  0  0  0  0  0  0
   56.2646   21.5752   42.8647 H   0  0  0  0  0  0  0  0  0  0  0  0
   57.3714   22.9900   42.8647 H   0  0  0  0  0  0  0  0  0  0  0  0
   54.9730   25.7330   45.6190 N   0  0  0  0  0  0  0  0  0  0  0  0
   55.9110   26.6250   46.0330 C   0  0  0  0  0  0  0  0  0  0  0  0
   55.9150   27.8460   45.5880 N   0  0  0  0  0  0  0  0  0  0  0  0
   56.9910   28.4410   44.7940 C   0  0  0  0  0  0  0  0  0  0  0  0
   57.4350   27.6663   44.1516 H   0  0  0  0  0  0  0  0  0  0  0  0
   56.5688   29.2522   44.1827 H   0  0  0  0  0  0  0  0  0  0  0  0
   58.0620   29.0170   45.6840 C   0  0  0  0  0  0  0  0  0  0  0  0
   58.9980   28.1750   46.3060 C   0  0  0  0  0  0  0  0  0  0  0  0
   58.9573   27.0889   46.1366 H   0  0  0  0  0  0  0  0  0  0  0  0
   59.9800   28.7140   47.1390 C   0  0  0  0  0  0  0  0  0  0  0  0
   60.7134   28.0516   47.6220 H   0  0  0  0  0  0  0  0  0  0  0  0
   60.0340   30.0920   47.3610 C   0  0  0  0  0  0  0  0  0  0  0  0
   60.8136   30.5097   48.0150 H   0  0  0  0  0  0  0  0  0  0  0  0
   59.1030   30.9450   46.7570 C   0  0  0  0  0  0  0  0  0  0  0  0
   59.1850   32.3520   47.0300 N   0  0  0  0  0  0  0  0  0  0  0  0
   58.2780   33.5910   46.2250 S   0  0  0  0  0  0  0  0  0  0  0  0
   56.8320   33.4570   46.6100 O   0  0  0  0  0  0  0  0  0  0  0  0
   58.7680   34.9480   46.6510 O   0  0  0  0  0  0  0  0  0  0  0  0
   58.4180   33.4040   44.4600 C   0  0  0  0  0  0  0  0  0  0  0  0
   59.0630   32.5425   44.2326 H   0  0  0  0  0  0  0  0  0  0  0  0
   57.4198   33.2387   44.0285 H   0  0  0  0  0  0  0  0  0  0  0  0
   58.8577   34.3153   44.0285 H   0  0  0  0  0  0  0  0  0  0  0  0
   58.1210   30.4020   45.9080 C   0  0  0  0  0  0  0  0  0  0  0  0
   57.3950   31.0666   45.4167 H   0  0  0  0  0  0  0  0  0  0  0  0
   56.8630   26.2340   46.9150 N   0  0  0  0  0  0  0  0  0  0  0  0
   56.8960   24.9680   47.4040 C   0  0  0  0  0  0  0  0  0  0  0  0
   57.7890   24.6580   48.2370 O   0  0  0  0  0  0  0  0  0  0  0  0
   57.0090   21.8220   47.4620 N   0  0  0  0  0  0  0  0  0  0  0  0
   56.7620   20.6150   48.0380 C   0  0  0  0  0  0  0  0  0  0  0  0
   57.8010   19.5430   48.0940 C   0  0  0  0  0  0  0  0  0  0  0  0
   58.0289   19.3078   49.1441 H   0  0  0  0  0  0  0  0  0  0  0  0
   57.4246   18.6409   47.5896 H   0  0  0  0  0  0  0  0  0  0  0  0
   58.7145   19.8910   47.5896 H   0  0  0  0  0  0  0  0  0  0  0  0
  1  2  1  0
  2  3  1  0
  3  4  1  0
  4  5  1  0
  5  6  2  0
  6  7  1  0
  7  8  1  0
  7  9  1  0
  7 10  1  0
 10 11  1  0
 11 12  1  0
 11 13  1  0
 11 14  1  0
 14 15  1  0
 14 16  1  0
 14 17  1  0
  6 18  1  0
 18 19  1  0
 19 20  2  0
 20 21  1  0
 21 22  1  0
 21 23  1  0
 21 24  1  0
 24 25  2  0
 25 26  1  0
 25 27  1  0
 27 28  1  0
 27 29  2  0
 29 30  1  0
 29 31  1  0
 31 32  1  0
 32 33  1  0
 33 34  2  0
 33 35  2  0
 33 36  1  0
 36 37  1  0
 36 38  1  0
 36 39  1  0
 31 40  2  0
 40 41  1  0
 19 42  1  0
 42 43  1  0
 43 44  2  0
  4 45  2  0
 45 46  1  0
 46 47  1  0
 47 48  1  0
 47 49  1  0
 47 50  1  0
 46  2  2  0
 43  5  1  0
 40 24  1  0
M  CHG  3  18  -1  32  -1  42  -1
M  END
>  <UniqueID>  (46) 
46

>  <SMILES>  (46) 
CCOCc1[n-]/c(=N\Cc2cccc([N-]S(C)(=O)=O)c2)[n-]c(=O)c1-c1nc(C)cs1

>  <Energy>  (46) 
84.10542653792703

>  <Genealogy>  (46) 
CCOCc1[n-]c(=NCc2cccc([N-]S(C)(=O)=O)c2)[n-]c(=O)c1-c1nc(C)cs1 (protonated)
CCOCc1[n-]/c(=N\Cc2cccc([N-]S(C)(=O)=O)c2)[n-]c(=O)c1-c1nc(C)cs1 (cis-trans isomerization)
CCOCc1[n-]/c(=N\Cc2cccc([N-]S(C)(=O)=O)c2)[n-]c(=O)c1-c1nc(C)cs1 (3D coordinates assigned)
CCOCc1[n-]/c(=N\Cc2cccc([N-]S(C)(=O)=O)c2)[n-]c(=O)c1-c1nc(C)cs1 (optimized conformer: 84.10542653792703 kcal/mol)

>  <smiles>  (46) 
CCOCc1[nH]c(=NCc2cccc(NS(C)(=O)=O)c2)[nH]c(=O)c1-c1nc(C)cs1

>  <score_type>  (46) 
oracle

>  <origin>  (46) 
adg

>  <m_score__min__energy>  (46) 
-12.5

>  <m_primary>  (46) 
energy

$$$$
46:0
     RDKit          3D

 19 20  0  0  0  0  0  0  0  0999 V2000
   57.3490   23.1140   47.9150 O   0  0  0  0  0  0  0  0  0  0  0  0
   57.0190   24.1740   47.3240 C   0  0  0  0  0  0  0  0  0  0  0  0
   55.7440   24.4410   46.9690 N   0  0  0  0  0  0  0  0  0  0  0  0
   55.8460   25.6460   46.3820 C   0  0  0  0  0  0  0  0  0  0  0  0
   54.7530   26.3480   45.8830 O   0  0  0  0  0  0  0  0  0  0  0  0
   57.1600   26.0730   46.3870 C   0  0  0  0  0  0  0  0  0  0  0  0
   57.7140   27.3420   45.8570 C   0  0  0  0  0  0  0  0  0  0  0  0
   59.0520   27.7140   46.0860 C   0  0  0  0  0  0  0  0  0  0  0  0
   59.5460   28.9200   45.5800 C   0  0  0  0  0  0  0  0  0  0  0  0
   58.7140   29.7700   44.8480 C   0  0  0  0  0  0  0  0  0  0  0  0
   57.3800   29.4180   44.6250 C   0  0  0  0  0  0  0  0  0  0  0  0
   56.3330   30.4880   43.7140 Cl  0  0  0  0  0  0  0  0  0  0  0  0
   56.8800   28.2130   45.1310 C   0  0  0  0  0  0  0  0  0  0  0  0
   57.9080   25.1340   46.9980 N   0  0  0  0  0  0  0  0  0  0  0  0
   54.3940   27.1590   46.3710 H   0  0  0  0  0  0  0  0  0  0  0  0
   59.7123   27.0525   46.6660 H   0  0  0  0  0  0  0  0  0  0  0  0
   60.5944   29.2006   45.7592 H   0  0  0  0  0  0  0  0  0  0  0  0
   59.1083   30.7156   44.4474 H   0  0  0  0  0  0  0  0  0  0  0  0
   55.8271   27.9444   44.9601 H   0  0  0  0  0  0  0  0  0  0  0  0
  1  2  2  0
  2  3  1  0
  3  4  1  0
  4  5  1  0
  4  6  2  0
  6  7  1  0
  7  8  2  0
  8  9  1  0
  9 10  2  0
 10 11  1  0
 11 12  1  0
 11 13  2  0
  6 14  1  0
 14  2  1  0
 13  7  1  0
  5 15  1  0
  8 16  1  0
  9 17  1  0
 10 18  1  0
 13 19  1  0
M  CHG  2   3  -1  14  -1
M  END
>  <UniqueID>  (47) 
47

>  <SMILES>  (47) 
O=c1[n-]c(O)c(-c2cccc(Cl)c2)[n-]1

>  <Energy>  (47) 
51.39803926905842

>  <Genealogy>  (47) 
O=c1[n-]c(O)c(-c2cccc(Cl)c2)[n-]1 (protonated)
O=c1[n-]c(O)c(-c2cccc(Cl)c2)[n-]1 (3D coordinates assigned)
O=c1[n-]c(O)c(-c2cccc(Cl)c2)[n-]1 (optimized conformer: 51.39803926905842 kcal/mol)

>  <smiles>  (47) 
O=c1[nH]c(O)c(-c2cccc(Cl)c2)[nH]1

>  <score_type>  (47) 
oracle

>  <origin>  (47) 
adg

>  <m_score__min__energy>  (47) 
-11.130000000000001

>  <m_primary>  (47) 
energy

$$$$
47:0
     RDKit          3D

 32 33  0  0  0  0  0  0  0  0999 V2000
   55.6410   30.0490   43.2290 O   0  0  0  0  0  0  0  0  0  0  0  0
   56.0890   29.9160   44.3980 C   0  0  0  0  0  0  0  0  0  0  0  0
   57.0980   30.8140   44.8650 N   0  0  0  0  0  0  0  0  0  0  0  0
   57.3190   32.1410   44.3020 C   0  0  0  0  0  0  0  0  0  0  0  0
   56.9040   33.2230   45.3030 C   0  0  0  0  0  0  0  0  0  0  0  0
   58.0890   33.6820   46.1090 C   0  0  0  0  0  0  0  0  0  0  0  0
   58.9930   34.6130   45.5740 C   0  0  0  0  0  0  0  0  0  0  0  0
   60.0760   35.0620   46.3360 C   0  0  0  0  0  0  0  0  0  0  0  0
   60.2580   34.5920   47.6390 C   0  0  0  0  0  0  0  0  0  0  0  0
   59.3540   33.6740   48.1860 C   0  0  0  0  0  0  0  0  0  0  0  0
   59.5770   33.0930   49.8260 Cl  0  0  0  0  0  0  0  0  0  0  0  0
   58.2700   33.2230   47.4240 C   0  0  0  0  0  0  0  0  0  0  0  0
   55.6270   28.8490   45.2370 N   0  0  0  0  0  0  0  0  0  0  0  0
   56.3970   27.7060   45.6350 C   0  0  0  0  0  0  0  0  0  0  0  0
   57.7870   27.8410   45.7440 C   0  0  0  0  0  0  0  0  0  0  0  0
   58.5750   26.7560   46.1390 C   0  0  0  0  0  0  0  0  0  0  0  0
   57.9760   25.5320   46.4440 C   0  0  0  0  0  0  0  0  0  0  0  0
   56.5880   25.3950   46.3710 C   0  0  0  0  0  0  0  0  0  0  0  0
   55.7920   26.4790   45.9830 C   0  0  0  0  0  0  0  0  0  0  0  0
   54.4090   26.3370   45.9850 O   0  0  0  0  0  0  0  0  0  0  0  0
   58.3860   32.2596   44.0621 H   0  0  0  0  0  0  0  0  0  0  0  0
   56.7119   32.2470   43.3908 H   0  0  0  0  0  0  0  0  0  0  0  0
   56.4852   34.0803   44.7556 H   0  0  0  0  0  0  0  0  0  0  0  0
   56.1513   32.8034   45.9867 H   0  0  0  0  0  0  0  0  0  0  0  0
   58.8489   34.9909   44.5511 H   0  0  0  0  0  0  0  0  0  0  0  0
   60.7855   35.7861   45.9090 H   0  0  0  0  0  0  0  0  0  0  0  0
   61.1126   34.9437   48.2356 H   0  0  0  0  0  0  0  0  0  0  0  0
   57.5568   32.5060   47.8569 H   0  0  0  0  0  0  0  0  0  0  0  0
   58.2616   28.8071   45.5173 H   0  0  0  0  0  0  0  0  0  0  0  0
   59.6672   26.8664   46.2096 H   0  0  0  0  0  0  0  0  0  0  0  0
   58.5979   24.6750   46.7420 H   0  0  0  0  0  0  0  0  0  0  0  0
   56.1186   24.4317   46.6193 H   0  0  0  0  0  0  0  0  0  0  0  0
  1  2  2  0
  2  3  1  0
  3  4  1  0
  4  5  1  0
  5  6  1  0
  6  7  2  0
  7  8  1  0
  8  9  2  0
  9 10  1  0
 10 11  1  0
 10 12  2  0
  2 13  1  0
 13 14  1  0
 14 15  2  0
 15 16  1  0
 16 17  2  0
 17 18  1  0
 18 19  2  0
 19 20  1  0
 12  6  1  0
 19 14  1  0
  4 21  1  0
  4 22  1  0
  5 23  1  0
  5 24  1  0
  7 25  1  0
  8 26  1  0
  9 27  1  0
 12 28  1  0
 15 29  1  0
 16 30  1  0
 17 31  1  0
 18 32  1  0
M  CHG  3   3  -1  13  -1  20  -1
M  END
>  <UniqueID>  (48) 
48

>  <SMILES>  (48) 
O=C([N-]CCc1cccc(Cl)c1)[N-]c1ccccc1[O-]

>  <Energy>  (48) 
33.04849592597237

>  <Genealogy>  (48) 
O=C([N-]CCc1cccc(Cl)c1)[N-]c1ccccc1[O-] (protonated)
O=C([N-]CCc1cccc(Cl)c1)[N-]c1ccccc1[O-] (3D coordinates assigned)
O=C([N-]CCc1cccc(Cl)c1)[N-]c1ccccc1[O-] (optimized conformer: 33.04849592597237 kcal/mol)

>  <smiles>  (48) 
O=C(NCCc1cccc(Cl)c1)Nc1ccccc1O

>  <score_type>  (48) 
oracle

>  <origin>  (48) 
adg

>  <m_score__min__energy>  (48) 
-15.390000000000001

>  <m_primary>  (48) 
energy

$$$$
48:0
     RDKit          3D

 52 56  0  0  0  0  0  0  0  0999 V2000
   59.2450   34.9430   45.2520 C   0  0  0  0  0  0  0  0  0  0  0  0
   59.5750   33.6520   45.9370 C   0  0  0  0  0  0  0  0  0  0  0  0
   58.7690   32.5130   46.0410 C   0  0  0  0  0  0  0  0  0  0  0  0
   57.4040   32.3570   45.4940 C   0  0  0  0  0  0  0  0  0  0  0  0
   56.6570   33.3650   45.3920 O   0  0  0  0  0  0  0  0  0  0  0  0
   56.9260   31.0940   45.0130 N   0  0  0  0  0  0  0  0  0  0  0  0
   57.6420   29.8510   45.0370 C   0  0  0  0  0  0  0  0  0  0  0  0
   58.7330   29.6820   44.1760 C   0  0  0  0  0  0  0  0  0  0  0  0
   59.4430   28.4790   44.1640 C   0  0  0  0  0  0  0  0  0  0  0  0
   59.0640   27.4310   45.0060 C   0  0  0  0  0  0  0  0  0  0  0  0
   57.9660   27.5810   45.8680 C   0  0  0  0  0  0  0  0  0  0  0  0
   57.5280   26.4410   46.7530 C   0  0  0  0  0  0  0  0  0  0  0  0
   56.4370   25.6040   46.1250 C   0  0  0  0  0  0  0  0  0  0  0  0
   55.1450   26.0340   46.1710 N   0  0  0  0  0  0  0  0  0  0  0  0
   54.1460   25.3320   45.6370 N   0  0  0  0  0  0  0  0  0  0  0  0
   54.3630   24.1520   45.0050 C   0  0  0  0  0  0  0  0  0  0  0  0
   53.3850   23.5150   44.5320 O   0  0  0  0  0  0  0  0  0  0  0  0
   55.6700   23.6590   44.8850 C   0  0  0  0  0  0  0  0  0  0  0  0
   56.7270   24.3910   45.4650 C   0  0  0  0  0  0  0  0  0  0  0  0
   58.0780   23.9090   45.3370 N   0  0  0  0  0  0  0  0  0  0  0  0
   58.3500   22.5560   44.8620 C   0  0  0  0  0  0  0  0  0  0  0  0
   57.3860   22.2020   43.7310 C   0  0  0  0  0  0  0  0  0  0  0  0
   55.9360   22.3290   44.2100 C   0  0  0  0  0  0  0  0  0  0  0  0
   57.2440   28.7840   45.8610 C   0  0  0  0  0  0  0  0  0  0  0  0
   59.4220   31.5310   46.7080 N   0  0  0  0  0  0  0  0  0  0  0  0
   60.6280   32.0340   47.0230 C   0  0  0  0  0  0  0  0  0  0  0  0
   61.6560   31.3860   47.7060 C   0  0  0  0  0  0  0  0  0  0  0  0
   62.8520   32.0950   47.9210 C   0  0  0  0  0  0  0  0  0  0  0  0
   62.9930   33.4190   47.4500 C   0  0  0  0  0  0  0  0  0  0  0  0
   64.1520   34.0900   47.6610 F   0  0  0  0  0  0  0  0  0  0  0  0
   61.9390   34.0460   46.7600 C   0  0  0  0  0  0  0  0  0  0  0  0
   60.7630   33.3190   46.5650 C   0  0  0  0  0  0  0  0  0  0  0  0
   59.0468   35.7183   46.0067 H   0  0  0  0  0  0  0  0  0  0  0  0
   60.0931   35.2517   44.6232 H   0  0  0  0  0  0  0  0  0  0  0  0
   58.3528   34.8068   44.6232 H   0  0  0  0  0  0  0  0  0  0  0  0
   59.0327   30.5008   43.5054 H   0  0  0  0  0  0  0  0  0  0  0  0
   60.3032   28.3567   43.4894 H   0  0  0  0  0  0  0  0  0  0  0  0
   59.6270   26.4861   44.9937 H   0  0  0  0  0  0  0  0  0  0  0  0
   58.3964   25.7959   46.9523 H   0  0  0  0  0  0  0  0  0  0  0  0
   57.1238   26.8747   47.6796 H   0  0  0  0  0  0  0  0  0  0  0  0
   58.8920   24.5400   45.5090 H   0  0  0  0  0  0  0  0  0  0  0  0
   59.3842   22.4999   44.4915 H   0  0  0  0  0  0  0  0  0  0  0  0
   58.2146   21.8456   45.6909 H   0  0  0  0  0  0  0  0  0  0  0  0
   57.5505   22.8869   42.8861 H   0  0  0  0  0  0  0  0  0  0  0  0
   57.5695   21.1643   43.4156 H   0  0  0  0  0  0  0  0  0  0  0  0
   55.2667   22.2320   43.3425 H   0  0  0  0  0  0  0  0  0  0  0  0
   55.7535   21.5337   44.9477 H   0  0  0  0  0  0  0  0  0  0  0  0
   56.3593   28.8931   46.5056 H   0  0  0  0  0  0  0  0  0  0  0  0
   59.0770   30.5670   46.9150 H   0  0  0  0  0  0  0  0  0  0  0  0
   61.5359   30.3533   48.0654 H   0  0  0  0  0  0  0  0  0  0  0  0
   63.6826   31.6151   48.4594 H   0  0  0  0  0  0  0  0  0  0  0  0
   62.0384   35.0758   46.3863 H   0  0  0  0  0  0  0  0  0  0  0  0
  1  2  1  0
  2  3  2  0
  3  4  1  0
  4  5  2  0
  4  6  1  0
  6  7  1  0
  7  8  2  0
  8  9  1  0
  9 10  2  0
 10 11  1  0
 11 12  1  0
 12 13  1  0
 13 14  2  0
 14 15  1  0
 15 16  1  0
 16 17  2  0
 16 18  1  0
 18 19  2  0
 19 20  1  0
 20 21  1  0
 21 22  1  0
 22 23  1  0
 11 24  2  0
  3 25  1  0
 25 26  1  0
 26 27  2  0
 27 28  1  0
 28 29  2  0
 29 30  1  0
 29 31  1  0
 31 32  2  0
 32  2  1  0
 24  7  1  0
 32 26  1  0
 19 13  1  0
 23 18  1  0
  1 33  1  0
  1 34  1  0
  1 35  1  0
  8 36  1  0
  9 37  1  0
 10 38  1  0
 12 39  1  0
 12 40  1  0
 20 41  1  0
 21 42  1  0
 21 43  1  0
 22 44  1  0
 22 45  1  0
 23 46  1  0
 23 47  1  0
 24 48  1  0
 25 49  1  0
 27 50  1  0
 28 51  1  0
 31 52  1  0
M  CHG  2   6  -1  15  -1
M  END
>  <UniqueID>  (49) 
49

>  <SMILES>  (49) 
Cc1c(C(=O)[N-]c2cccc(Cc3n[n-]c(=O)c4c3NCCC4)c2)[nH]c2ccc(F)cc12

>  <Energy>  (49) 
97.83718923592545

>  <Genealogy>  (49) 
Cc1c(C(=O)[N-]c2cccc(Cc3n[n-]c(=O)c4c3NCCC4)c2)[nH]c2ccc(F)cc12 (protonated)
Cc1c(C(=O)[N-]c2cccc(Cc3n[n-]c(=O)c4c3NCCC4)c2)[nH]c2ccc(F)cc12 (3D coordinates assigned)
Cc1c(C(=O)[N-]c2cccc(Cc3n[n-]c(=O)c4c3NCCC4)c2)[nH]c2ccc(F)cc12 (nonaromatic ring conformer: 97.83718923592545 kcal/mol)

>  <smiles>  (49) 
Cc1c(C(=O)Nc2cccc(Cc3n[nH]c(=O)c4c3NCCC4)c2)[nH]c2ccc(F)cc12

>  <score_type>  (49) 
oracle

>  <origin>  (49) 
adg

>  <m_score__min__energy>  (49) 
-13.69

>  <m_primary>  (49) 
energy

$$$$
49:0
     RDKit          3D

 37 39  0  0  1  0  0  0  0  0999 V2000
   56.1780   29.6880   44.8700 O   0  0  0  0  0  0  0  0  0  0  0  0
   57.0090   29.7800   43.9460 C   0  0  0  0  0  0  0  0  0  0  0  0
   56.6100   30.4820   42.6990 C   0  0  0  0  0  0  0  0  0  0  0  0
   57.4100   32.1070   42.6840 S   0  0  0  0  0  0  0  0  0  0  0  0
   57.3920   32.7040   44.4120 C   0  0  0  0  0  0  0  0  0  0  0  0
   56.7890   33.1020   45.2710 N   0  0  0  0  0  0  0  0  0  0  0  0
   57.0580   33.4750   46.4840 N   0  0  0  0  0  0  0  0  0  0  0  0
   58.3220   33.3640   46.7790 C   0  0  0  0  0  0  0  0  0  0  0  0
   59.0590   33.6240   47.8970 N   0  0  0  0  0  0  0  0  0  0  0  0
   60.4150   33.1620   47.8870 C   0  0  0  0  0  0  0  0  0  0  0  0
   61.4290   33.9410   47.3180 C   0  0  0  0  0  0  0  0  0  0  0  0
   62.7530   33.4850   47.3150 C   0  0  0  0  0  0  0  0  0  0  0  0
   63.0720   32.2580   47.8750 C   0  0  0  0  0  0  0  0  0  0  0  0
   62.0300   31.5300   48.4240 C   0  0  0  0  0  0  0  0  0  0  0  0
   60.7320   31.9420   48.4450 C   0  0  0  0  0  0  0  0  0  0  0  0
   59.1450   32.7000   45.2540 S   0  0  0  0  0  0  0  0  0  0  0  0
   58.2970   29.2070   44.1380 N   0  0  0  0  0  0  0  0  0  0  0  0
   58.6200   28.5430   45.3580 C   0  0  0  0  0  0  0  0  0  0  0  0
   58.5790   27.1590   45.4680 C   0  0  0  0  0  0  0  0  0  0  0  0
   58.9080   26.5890   46.6930 C   0  0  0  0  0  0  0  0  0  0  0  0
   59.2690   27.3910   47.7740 C   0  0  0  0  0  0  0  0  0  0  0  0
   59.3010   28.7770   47.6360 C   0  0  0  0  0  0  0  0  0  0  0  0
   58.9750   29.3590   46.4240 C   0  0  0  0  0  0  0  0  0  0  0  0
   56.9336   29.8995   41.8238 H   0  0  0  0  0  0  0  0  0  0  0  0
   55.5166   30.5963   42.6604 H   0  0  0  0  0  0  0  0  0  0  0  0
   56.3300   33.8340   47.1750 H   0  0  0  0  0  0  0  0  0  0  0  0
   61.1848   34.9160   46.8711 H   0  0  0  0  0  0  0  0  0  0  0  0
   63.5439   34.1038   46.8659 H   0  0  0  0  0  0  0  0  0  0  0  0
   64.1050   31.8801   47.8829 H   0  0  0  0  0  0  0  0  0  0  0  0
   62.2662   30.5540   48.8730 H   0  0  0  0  0  0  0  0  0  0  0  0
   59.9516   31.3133   48.8985 H   0  0  0  0  0  0  0  0  0  0  0  0
   59.0160   29.2740   43.3880 H   0  0  0  0  0  0  0  0  0  0  0  0
   58.2944   26.5316   44.6105 H   0  0  0  0  0  0  0  0  0  0  0  0
   58.8831   25.4955   46.8098 H   0  0  0  0  0  0  0  0  0  0  0  0
   59.5291   26.9290   48.7378 H   0  0  0  0  0  0  0  0  0  0  0  0
   59.5854   29.4085   48.4906 H   0  0  0  0  0  0  0  0  0  0  0  0
   58.9967   30.4525   46.3064 H   0  0  0  0  0  0  0  0  0  0  0  0
  1  2  2  0
  2  3  1  0
  3  4  1  0
  4  5  1  0
  5  6  2  0
  6  7  1  0
  7  8  1  0
  8  9  2  0
  9 10  1  0
 10 11  2  0
 11 12  1  0
 12 13  2  0
 13 14  1  0
 14 15  2  0
  8 16  1  0
  2 17  1  0
 17 18  1  0
 18 19  2  0
 19 20  1  0
 20 21  2  0
 21 22  1  0
 22 23  2  0
 16  5  1  0
 23 18  1  0
 15 10  1  0
  3 24  1  0
  3 25  1  0
  7 26  1  0
 11 27  1  0
 12 28  1  0
 13 29  1  0
 14 30  1  0
 15 31  1  0
 17 32  1  0
 19 33  1  0
 20 34  1  0
 21 35  1  0
 22 36  1  0
 23 37  1  0
M  END
>  <smiles>  (50) 
O=C(CSc1n[nH]c(=Nc2ccccc2)s1)Nc1ccccc1

>  <score_type>  (50) 
oracle

>  <origin>  (50) 
adg

>  <m_score__min__energy>  (50) 
-8.3200000000000003

>  <m_primary>  (50) 
energy

$$$$
50:0
     RDKit          3D

 56 58  0  0  0  0  0  0  0  0999 V2000
   57.1310   31.3260   42.8730 C   0  0  0  0  0  0  0  0  0  0  0  0
   56.5470   29.9190   42.7820 C   0  0  0  0  0  0  0  0  0  0  0  0
   55.4270   29.7190   43.8040 C   0  0  0  0  0  0  0  0  0  0  0  0
   55.9840   29.6920   45.1540 N   0  0  0  0  0  0  0  0  0  0  0  0
   57.3660   29.5100   45.4960 C   0  0  0  0  0  0  0  0  0  0  0  0
   57.8740   28.3680   45.3550 O   0  0  0  0  0  0  0  0  0  0  0  0
   58.2240   30.6080   45.9800 C   0  0  0  0  0  0  0  0  0  0  0  0
   59.6080   30.6380   46.0220 C   0  0  0  0  0  0  0  0  0  0  0  0
   59.9150   31.8690   46.5760 C   0  0  0  0  0  0  0  0  0  0  0  0
   61.2780   32.3220   46.9190 C   0  0  0  0  0  0  0  0  0  0  0  0
   61.7960   33.5110   46.3820 C   0  0  0  0  0  0  0  0  0  0  0  0
   63.0890   33.9290   46.7120 C   0  0  0  0  0  0  0  0  0  0  0  0
   63.8770   33.1560   47.5690 C   0  0  0  0  0  0  0  0  0  0  0  0
   63.3770   31.9600   48.0900 C   0  0  0  0  0  0  0  0  0  0  0  0
   62.0850   31.5390   47.7610 C   0  0  0  0  0  0  0  0  0  0  0  0
   58.7630   32.5300   46.8420 N   0  0  0  0  0  0  0  0  0  0  0  0
   58.5900   33.7340   47.6630 C   0  0  0  0  0  0  0  0  0  0  0  0
   59.3930   33.6400   48.9690 C   0  0  0  0  0  0  0  0  0  0  0  0
   58.9410   32.4800   49.8210 C   0  0  0  0  0  0  0  0  0  0  0  0
   58.0390   32.6880   50.8710 C   0  0  0  0  0  0  0  0  0  0  0  0
   57.5370   31.6050   51.5950 C   0  0  0  0  0  0  0  0  0  0  0  0
   57.9320   30.2920   51.2770 C   0  0  0  0  0  0  0  0  0  0  0  0
   57.4390   29.1770   51.9750 O   0  0  0  0  0  0  0  0  0  0  0  0
   57.9650   28.7010   53.2090 C   0  0  0  0  0  0  0  0  0  0  0  0
   58.8450   30.0750   50.2340 C   0  0  0  0  0  0  0  0  0  0  0  0
   59.2270   28.7550   49.9440 O   0  0  0  0  0  0  0  0  0  0  0  0
   59.9300   28.3580   48.7720 C   0  0  0  0  0  0  0  0  0  0  0  0
   59.3450   31.1740   49.5090 C   0  0  0  0  0  0  0  0  0  0  0  0
   57.7460   31.7680   46.4680 N   0  0  0  0  0  0  0  0  0  0  0  0
   57.2476   31.6069   43.9301 H   0  0  0  0  0  0  0  0  0  0  0  0
   58.1127   31.3483   42.3772 H   0  0  0  0  0  0  0  0  0  0  0  0
   56.4536   32.0369   42.3772 H   0  0  0  0  0  0  0  0  0  0  0  0
   56.1426   29.7629   41.7710 H   0  0  0  0  0  0  0  0  0  0  0  0
   57.3471   29.1949   42.9952 H   0  0  0  0  0  0  0  0  0  0  0  0
   54.7073   30.5470   43.7230 H   0  0  0  0  0  0  0  0  0  0  0  0
   54.9197   28.7639   43.6027 H   0  0  0  0  0  0  0  0  0  0  0  0
   60.3078   29.8573   45.6892 H   0  0  0  0  0  0  0  0  0  0  0  0
   61.1823   34.1164   45.6988 H   0  0  0  0  0  0  0  0  0  0  0  0
   63.4861   34.8670   46.2967 H   0  0  0  0  0  0  0  0  0  0  0  0
   64.8914   33.4894   47.8335 H   0  0  0  0  0  0  0  0  0  0  0  0
   64.0003   31.3491   48.7596 H   0  0  0  0  0  0  0  0  0  0  0  0
   61.6988   30.5908   48.1631 H   0  0  0  0  0  0  0  0  0  0  0  0
   58.9349   34.6091   47.0926 H   0  0  0  0  0  0  0  0  0  0  0  0
   57.5241   33.8302   47.9173 H   0  0  0  0  0  0  0  0  0  0  0  0
   60.4573   33.5088   48.7241 H   0  0  0  0  0  0  0  0  0  0  0  0
   59.2303   34.5670   49.5385 H   0  0  0  0  0  0  0  0  0  0  0  0
   57.7240   33.7103   51.1271 H   0  0  0  0  0  0  0  0  0  0  0  0
   56.8288   31.7788   52.4186 H   0  0  0  0  0  0  0  0  0  0  0  0
   57.4338   29.1817   54.0438 H   0  0  0  0  0  0  0  0  0  0  0  0
   57.8312   27.6108   53.2684 H   0  0  0  0  0  0  0  0  0  0  0  0
   59.0365   28.9427   53.2684 H   0  0  0  0  0  0  0  0  0  0  0  0
   60.8548   27.8357   49.0584 H   0  0  0  0  0  0  0  0  0  0  0  0
   59.2976   27.6836   48.1759 H   0  0  0  0  0  0  0  0  0  0  0  0
   60.1809   29.2478   48.1759 H   0  0  0  0  0  0  0  0  0  0  0  0
   60.0596   31.0062   48.6898 H   0  0  0  0  0  0  0  0  0  0  0  0
   56.7390   32.0060   46.6090 H   0  0  0  0  0  0  0  0  0  0  0  0
  1  2  1  0
  2  3  1  0
  3  4  1  0
  4  5  1  0
  5  6  2  0
  5  7  1  0
  7  8  1  0
  8  9  2  0
  9 10  1  0
 10 11  2  0
 11 12  1  0
 12 13  2  0
 13 14  1  0
 14 15  2  0
  9 16  1  0
 16 17  1  0
 17 18  1  0
 18 19  1  0
 19 20  2  0
 20 21  1  0
 21 22  2  0
 22 23  1  0
 23 24  1  0
 22 25  1  0
 25 26  1  0
 26 27  1  0
 25 28  2  0
 16 29  1  0
 29  7  2  0
 15 10  1  0
 28 19  1  0
  1 30  1  0
  1 31  1  0
  1 32  1  0
  2 33  1  0
  2 34  1  0
  3 35  1  0
  3 36  1  0
  8 37  1  0
 11 38  1  0
 12 39  1  0
 13 40  1  0
 14 41  1  0
 15 42  1  0
 17 43  1  0
 17 44  1  0
 18 45  1  0
 18 46  1  0
 20 47  1  0
 21 48  1  0
 24 49  1  0
 24 50  1  0
 24 51  1  0
 27 52  1  0
 27 53  1  0
 27 54  1  0
 28 55  1  0
 29 56  1  0
M  CHG  2   4  -1  29   1
M  END
>  <UniqueID>  (51) 
50

>  <SMILES>  (51) 
CCC[N-]C(=O)c1cc(-c2ccccc2)n(CCc2ccc(OC)c(OC)c2)[nH+]1

>  <Energy>  (51) 
83.79905932656163

>  <Genealogy>  (51) 
CCC[N-]C(=O)c1cc(-c2ccccc2)n(CCc2ccc(OC)c(OC)c2)[nH+]1 (protonated)
CCC[N-]C(=O)c1cc(-c2ccccc2)n(CCc2ccc(OC)c(OC)c2)[nH+]1 (3D coordinates assigned)
CCC[N-]C(=O)c1cc(-c2ccccc2)n(CCc2ccc(OC)c(OC)c2)[nH+]1 (optimized conformer: 83.79905932656163 kcal/mol)

>  <smiles>  (51) 
CCCNC(=O)c1cc(-c2ccccc2)n(CCc2ccc(OC)c(OC)c2)n1

>  <score_type>  (51) 
oracle

>  <origin>  (51) 
adg

>  <m_score__min__energy>  (51) 
-8.6699999999999999

>  <m_primary>  (51) 
energy

$$$$
51:0
     RDKit          3D

 38 40  0  0  0  0  0  0  0  0999 V2000
   56.0520   28.2390   45.2920 O   0  0  0  0  0  0  0  0  0  0  0  0
   57.0610   27.5990   45.6960 C   0  0  0  0  0  0  0  0  0  0  0  0
   58.3660   28.1980   45.6270 N   0  0  0  0  0  0  0  0  0  0  0  0
   58.5900   29.6120   45.5020 C   0  0  0  0  0  0  0  0  0  0  0  0
   57.7690   30.4140   44.6910 C   0  0  0  0  0  0  0  0  0  0  0  0
   57.9910   31.7920   44.6060 C   0  0  0  0  0  0  0  0  0  0  0  0
   59.0250   32.3930   45.3330 C   0  0  0  0  0  0  0  0  0  0  0  0
   59.2130   33.8100   45.2180 N   0  0  0  0  0  0  0  0  0  0  0  0
   59.6600   34.8670   46.5170 S   0  0  0  0  0  0  0  0  0  0  0  0
   59.9510   36.2330   45.9600 O   0  0  0  0  0  0  0  0  0  0  0  0
   58.5150   34.9700   47.4840 O   0  0  0  0  0  0  0  0  0  0  0  0
   61.0640   34.2240   47.3610 C   0  0  0  0  0  0  0  0  0  0  0  0
   62.2030   33.8270   46.6480 C   0  0  0  0  0  0  0  0  0  0  0  0
   63.3100   33.3070   47.3250 C   0  0  0  0  0  0  0  0  0  0  0  0
   63.2860   33.1840   48.7180 C   0  0  0  0  0  0  0  0  0  0  0  0
   64.7990   32.4740   49.6410 Br  0  0  0  0  0  0  0  0  0  0  0  0
   62.1520   33.5840   49.4340 C   0  0  0  0  0  0  0  0  0  0  0  0
   61.0440   34.1040   48.7580 C   0  0  0  0  0  0  0  0  0  0  0  0
   59.8390   31.5930   46.1560 C   0  0  0  0  0  0  0  0  0  0  0  0
   59.6140   30.2160   46.2450 C   0  0  0  0  0  0  0  0  0  0  0  0
   56.8970   26.2100   46.1880 C   0  0  0  0  0  0  0  0  0  0  0  0
   55.6220   25.6280   46.3180 C   0  0  0  0  0  0  0  0  0  0  0  0
   54.4750   26.3350   45.9740 O   0  0  0  0  0  0  0  0  0  0  0  0
   55.5000   24.3510   46.7620 N   0  0  0  0  0  0  0  0  0  0  0  0
   56.5910   23.6110   47.0810 C   0  0  0  0  0  0  0  0  0  0  0  0
   56.4510   22.4290   47.4900 O   0  0  0  0  0  0  0  0  0  0  0  0
   57.8320   24.1420   46.9590 N   0  0  0  0  0  0  0  0  0  0  0  0
   58.0120   25.4150   46.5210 C   0  0  0  0  0  0  0  0  0  0  0  0
   59.1820   25.8740   46.4340 O   0  0  0  0  0  0  0  0  0  0  0  0
   59.1910   27.5610   45.5580 H   0  0  0  0  0  0  0  0  0  0  0  0
   56.9479   29.9556   44.1204 H   0  0  0  0  0  0  0  0  0  0  0  0
   57.3472   32.4091   43.9620 H   0  0  0  0  0  0  0  0  0  0  0  0
   62.2262   33.9248   45.5526 H   0  0  0  0  0  0  0  0  0  0  0  0
   64.2013   32.9941   46.7613 H   0  0  0  0  0  0  0  0  0  0  0  0
   62.1323   33.4892   50.5297 H   0  0  0  0  0  0  0  0  0  0  0  0
   60.1547   34.4196   49.3233 H   0  0  0  0  0  0  0  0  0  0  0  0
   60.6557   32.0529   46.7317 H   0  0  0  0  0  0  0  0  0  0  0  0
   60.2456   29.6015   46.9034 H   0  0  0  0  0  0  0  0  0  0  0  0
  1  2  2  0
  2  3  1  0
  3  4  1  0
  4  5  2  0
  5  6  1  0
  6  7  2  0
  7  8  1  0
  8  9  1  0
  9 10  2  0
  9 11  2  0
  9 12  1  0
 12 13  2  0
 13 14  1  0
 14 15  2  0
 15 16  1  0
 15 17  1  0
 17 18  2  0
  7 19  1  0
 19 20  2  0
  2 21  1  0
 21 22  2  0
 22 23  1  0
 22 24  1  0
 24 25  1  0
 25 26  2  0
 25 27  1  0
 27 28  1  0
 28 29  2  0
 20  4  1  0
 28 21  1  0
 18 12  1  0
  3 30  1  0
  5 31  1  0
  6 32  1  0
 13 33  1  0
 14 34  1  0
 17 35  1  0
 18 36  1  0
 19 37  1  0
 20 38  1  0
M  CHG  4   8  -1  23  -1  24  -1  27  -1
M  END
>  <UniqueID>  (52) 
51

>  <SMILES>  (52) 
O=C(Nc1ccc([N-]S(=O)(=O)c2ccc(Br)cc2)cc1)c1c([O-])[n-]c(=O)[n-]c1=O

>  <Energy>  (52) 
54.03976814310033

>  <Genealogy>  (52) 
O=C(Nc1ccc([N-]S(=O)(=O)c2ccc(Br)cc2)cc1)c1c([O-])[n-]c(=O)[n-]c1=O (protonated)
O=C(Nc1ccc([N-]S(=O)(=O)c2ccc(Br)cc2)cc1)c1c([O-])[n-]c(=O)[n-]c1=O (3D coordinates assigned)
O=C(Nc1ccc([N-]S(=O)(=O)c2ccc(Br)cc2)cc1)c1c([O-])[n-]c(=O)[n-]c1=O (optimized conformer: 54.03976814310033 kcal/mol)

>  <smiles>  (52) 
O=C(Nc1ccc(NS(=O)(=O)c2ccc(Br)cc2)cc1)c1c(O)[nH]c(=O)[nH]c1=O

>  <score_type>  (52) 
oracle

>  <origin>  (52) 
adg

>  <m_score__min__energy>  (52) 
-17.149999999999999

>  <m_primary>  (52) 
energy

$$$$
52:0
     RDKit          3D

 49 51  0  0  0  0  0  0  0  0999 V2000
   60.6000   27.3470   48.8460 C   0  0  0  0  0  0  0  0  0  0  0  0
   60.7470   27.3400   47.4310 O   0  0  0  0  0  0  0  0  0  0  0  0
   59.8610   27.9670   46.5410 C   0  0  0  0  0  0  0  0  0  0  0  0
   58.4970   27.9740   46.8550 C   0  0  0  0  0  0  0  0  0  0  0  0
   57.5770   28.6020   46.0090 C   0  0  0  0  0  0  0  0  0  0  0  0
   58.0130   29.2280   44.8360 C   0  0  0  0  0  0  0  0  0  0  0  0
   56.8510   30.0360   43.7870 S   0  0  0  0  0  0  0  0  0  0  0  0
   56.6560   29.2320   42.5310 O   0  0  0  0  0  0  0  0  0  0  0  0
   55.5310   30.1290   44.4980 O   0  0  0  0  0  0  0  0  0  0  0  0
   57.4000   31.6830   43.3500 C   0  0  0  0  0  0  0  0  0  0  0  0
   58.5110   32.1930   44.2820 C   0  0  0  0  0  0  0  0  0  0  0  0
   57.9960   32.6650   45.6220 C   0  0  0  0  0  0  0  0  0  0  0  0
   56.8290   33.1370   45.6990 O   0  0  0  0  0  0  0  0  0  0  0  0
   58.8270   32.6360   46.8070 N   0  0  0  0  0  0  0  0  0  0  0  0
   59.1520   31.3440   47.4290 C   0  0  0  0  0  0  0  0  0  0  0  0
   58.9840   31.4090   48.9150 C   0  0  0  0  0  0  0  0  0  0  0  0
   59.7240   30.7100   49.8470 C   0  0  0  0  0  0  0  0  0  0  0  0
   59.2020   31.0620   51.0730 C   0  0  0  0  0  0  0  0  0  0  0  0
   58.1810   31.9540   50.8130 C   0  0  0  0  0  0  0  0  0  0  0  0
   58.0760   32.1410   49.5180 O   0  0  0  0  0  0  0  0  0  0  0  0
   59.2110   33.8750   47.5040 C   0  0  0  0  0  0  0  0  0  0  0  0
   60.6790   33.8740   47.8070 C   0  0  0  0  0  0  0  0  0  0  0  0
   61.2580   34.2090   49.0240 C   0  0  0  0  0  0  0  0  0  0  0  0
   62.6570   34.1660   49.0000 C   0  0  0  0  0  0  0  0  0  0  0  0
   63.1830   33.7960   47.7700 C   0  0  0  0  0  0  0  0  0  0  0  0
   61.9050   33.5260   46.7090 S   0  0  0  0  0  0  0  0  0  0  0  0
   59.3770   29.2250   44.5150 C   0  0  0  0  0  0  0  0  0  0  0  0
   60.2980   28.5950   45.3580 C   0  0  0  0  0  0  0  0  0  0  0  0
   61.5925   27.2997   49.3180 H   0  0  0  0  0  0  0  0  0  0  0  0
   60.0896   28.2705   49.1571 H   0  0  0  0  0  0  0  0  0  0  0  0
   60.0042   26.4762   49.1571 H   0  0  0  0  0  0  0  0  0  0  0  0
   58.1459   27.4819   47.7740 H   0  0  0  0  0  0  0  0  0  0  0  0
   56.5076   28.6038   46.2666 H   0  0  0  0  0  0  0  0  0  0  0  0
   57.7828   31.6665   42.3189 H   0  0  0  0  0  0  0  0  0  0  0  0
   56.5400   32.3619   43.4479 H   0  0  0  0  0  0  0  0  0  0  0  0
   59.2275   31.3757   44.4513 H   0  0  0  0  0  0  0  0  0  0  0  0
   58.9787   33.0581   43.7892 H   0  0  0  0  0  0  0  0  0  0  0  0
   58.4822   30.5709   47.0244 H   0  0  0  0  0  0  0  0  0  0  0  0
   60.2008   31.0998   47.2043 H   0  0  0  0  0  0  0  0  0  0  0  0
   60.5559   30.0172   49.6522 H   0  0  0  0  0  0  0  0  0  0  0  0
   59.5322   30.7044   52.0594 H   0  0  0  0  0  0  0  0  0  0  0  0
   57.5509   32.4352   51.5755 H   0  0  0  0  0  0  0  0  0  0  0  0
   58.9740   34.7382   46.8647 H   0  0  0  0  0  0  0  0  0  0  0  0
   58.6528   33.9386   48.4497 H   0  0  0  0  0  0  0  0  0  0  0  0
   60.6759   34.4808   49.9169 H   0  0  0  0  0  0  0  0  0  0  0  0
   63.2811   34.4033   49.8742 H   0  0  0  0  0  0  0  0  0  0  0  0
   64.2518   33.6964   47.5299 H   0  0  0  0  0  0  0  0  0  0  0  0
   59.7247   29.7201   43.5963 H   0  0  0  0  0  0  0  0  0  0  0  0
   61.3665   28.5898   45.0967 H   0  0  0  0  0  0  0  0  0  0  0  0
  1  2  1  0
  2  3  1  0
  3  4  2  0
  4  5  1  0
  5  6  2  0
  6  7  1  0
  7  8  2  0
  7  9  2  0
  7 10  1  0
 10 11  1  0
 11 12  1  0
 12 13  2  0
 12 14  1  0
 14 15  1  0
 15 16  1  0
 16 17  2  0
 17 18  1  0
 18 19  2  0
 19 20  1  0
 14 21  1  0
 21 22  1  0
 22 23  2  0
 23 24  1  0
 24 25  2  0
 25 26  1  0
  6 27  1  0
 27 28  2  0
 28  3  1  0
 20 16  1  0
 26 22  1  0
  1 29  1  0
  1 30  1  0
  1 31  1  0
  4 32  1  0
  5 33  1  0
 10 34  1  0
 10 35  1  0
 11 36  1  0
 11 37  1  0
 15 38  1  0
 15 39  1  0
 17 40  1  0
 18 41  1  0
 19 42  1  0
 21 43  1  0
 21 44  1  0
 23 45  1  0
 24 46  1  0
 25 47  1  0
 27 48  1  0
 28 49  1  0
M  END
>  <UniqueID>  (53) 
52

>  <SMILES>  (53) 
COc1ccc(S(=O)(=O)CCC(=O)N(Cc2ccco2)Cc2cccs2)cc1

>  <Energy>  (53) 
92.06353629491491

>  <Genealogy>  (53) 
COc1ccc(S(=O)(=O)CCC(=O)N(Cc2ccco2)Cc2cccs2)cc1 (3D coordinates assigned)
COc1ccc(S(=O)(=O)CCC(=O)N(Cc2ccco2)Cc2cccs2)cc1 (optimized conformer: 92.06353629491491 kcal/mol)

>  <smiles>  (53) 
COc1ccc(S(=O)(=O)CCC(=O)N(Cc2ccco2)Cc2cccs2)cc1

>  <score_type>  (53) 
oracle

>  <origin>  (53) 
adg

>  <m_score__min__energy>  (53) 
-8.0800000000000001

>  <m_primary>  (53) 
energy

$$$$
53:0
     RDKit          3D

 59 62  0  0  0  0  0  0  0  0999 V2000
   56.9990   32.6550   52.4160 C   0  0  0  0  0  0  0  0  0  0  0  0
   57.9540   31.8450   51.5920 C   0  0  0  0  0  0  0  0  0  0  0  0
   58.2020   30.5060   51.9160 C   0  0  0  0  0  0  0  0  0  0  0  0
   59.0620   29.7370   51.1290 C   0  0  0  0  0  0  0  0  0  0  0  0
   59.6740   30.2930   49.9880 C   0  0  0  0  0  0  0  0  0  0  0  0
   60.5320   29.5480   49.1620 O   0  0  0  0  0  0  0  0  0  0  0  0
   60.1320   28.4750   48.3100 C   0  0  0  0  0  0  0  0  0  0  0  0
   59.2130   28.9810   47.2370 C   0  0  0  0  0  0  0  0  0  0  0  0
   58.2050   28.1720   46.7270 C   0  0  0  0  0  0  0  0  0  0  0  0
   57.3940   28.6590   45.7010 C   0  0  0  0  0  0  0  0  0  0  0  0
   56.4820   27.9040   45.2830 O   0  0  0  0  0  0  0  0  0  0  0  0
   57.5940   29.9280   45.1790 N   0  0  0  0  0  0  0  0  0  0  0  0
   56.8240   30.4610   44.1490 C   0  0  0  0  0  0  0  0  0  0  0  0
   55.7000   29.7090   43.4740 C   0  0  0  0  0  0  0  0  0  0  0  0
   57.0830   31.7620   43.6780 C   0  0  0  0  0  0  0  0  0  0  0  0
   58.1040   32.5140   44.2270 C   0  0  0  0  0  0  0  0  0  0  0  0
   58.8750   31.9840   45.2460 C   0  0  0  0  0  0  0  0  0  0  0  0
   58.6150   30.6970   45.7160 C   0  0  0  0  0  0  0  0  0  0  0  0
   59.3950   30.2170   46.7190 N   0  0  0  0  0  0  0  0  0  0  0  0
   59.4090   31.6320   49.6490 C   0  0  0  0  0  0  0  0  0  0  0  0
   60.0110   32.1990   48.4740 N   0  0  0  0  0  0  0  0  0  0  0  0
   59.9110   33.5950   48.1490 C   0  0  0  0  0  0  0  0  0  0  0  0
   59.2590   34.3680   48.9010 O   0  0  0  0  0  0  0  0  0  0  0  0
   60.5060   34.1150   46.9430 N   0  0  0  0  0  0  0  0  0  0  0  0
   59.7470   35.0180   46.0740 C   0  0  0  0  0  0  0  0  0  0  0  0
   61.9120   33.8130   46.6410 C   0  0  0  0  0  0  0  0  0  0  0  0
   62.6110   33.3500   47.8890 C   0  0  0  0  0  0  0  0  0  0  0  0
   62.8430   34.2400   48.9500 C   0  0  0  0  0  0  0  0  0  0  0  0
   63.5480   33.8200   50.0800 C   0  0  0  0  0  0  0  0  0  0  0  0
   64.0310   32.5120   50.1560 C   0  0  0  0  0  0  0  0  0  0  0  0
   63.8120   31.6240   49.1010 C   0  0  0  0  0  0  0  0  0  0  0  0
   63.1080   32.0420   47.9680 C   0  0  0  0  0  0  0  0  0  0  0  0
   58.5520   32.4010   50.4520 C   0  0  0  0  0  0  0  0  0  0  0  0
   57.2002   32.4844   53.4839 H   0  0  0  0  0  0  0  0  0  0  0  0
   57.1290   33.7225   52.1844 H   0  0  0  0  0  0  0  0  0  0  0  0
   55.9671   32.3526   52.1844 H   0  0  0  0  0  0  0  0  0  0  0  0
   57.7169   30.0570   52.7953 H   0  0  0  0  0  0  0  0  0  0  0  0
   59.2629   28.6904   51.4016 H   0  0  0  0  0  0  0  0  0  0  0  0
   61.0232   28.0288   47.8446 H   0  0  0  0  0  0  0  0  0  0  0  0
   59.6031   27.7189   48.9088 H   0  0  0  0  0  0  0  0  0  0  0  0
   58.0481   27.1595   47.1273 H   0  0  0  0  0  0  0  0  0  0  0  0
   55.0424   29.2690   44.2382 H   0  0  0  0  0  0  0  0  0  0  0  0
   55.1204   30.4018   42.8463 H   0  0  0  0  0  0  0  0  0  0  0  0
   56.1192   28.9089   42.8463 H   0  0  0  0  0  0  0  0  0  0  0  0
   56.4689   32.1825   42.8680 H   0  0  0  0  0  0  0  0  0  0  0  0
   58.3029   33.5300   43.8553 H   0  0  0  0  0  0  0  0  0  0  0  0
   59.6914   32.5765   45.6846 H   0  0  0  0  0  0  0  0  0  0  0  0
   60.3550   31.5420   47.7410 H   0  0  0  0  0  0  0  0  0  0  0  0
   59.1613   35.7149   46.6915 H   0  0  0  0  0  0  0  0  0  0  0  0
   60.4425   35.5864   45.4390 H   0  0  0  0  0  0  0  0  0  0  0  0
   59.0674   34.4307   45.4390 H   0  0  0  0  0  0  0  0  0  0  0  0
   61.9602   33.0205   45.8796 H   0  0  0  0  0  0  0  0  0  0  0  0
   62.4059   34.7200   46.2624 H   0  0  0  0  0  0  0  0  0  0  0  0
   62.4679   35.2724   48.8909 H   0  0  0  0  0  0  0  0  0  0  0  0
   63.7229   34.5198   50.9105 H   0  0  0  0  0  0  0  0  0  0  0  0
   64.5842   32.1811   51.0473 H   0  0  0  0  0  0  0  0  0  0  0  0
   64.1939   30.5942   49.1615 H   0  0  0  0  0  0  0  0  0  0  0  0
   62.9436   31.3419   47.1356 H   0  0  0  0  0  0  0  0  0  0  0  0
   58.3479   33.4483   50.1848 H   0  0  0  0  0  0  0  0  0  0  0  0
  1  2  1  0
  2  3  2  0
  3  4  1  0
  4  5  2  0
  5  6  1  0
  6  7  1  0
  7  8  1  0
  8  9  2  0
  9 10  1  0
 10 11  2  0
 10 12  1  0
 12 13  1  0
 13 14  1  0
 13 15  2  0
 15 16  1  0
 16 17  2  0
 17 18  1  0
 18 19  2  0
  5 20  1  0
 20 21  1  0
 21 22  1  0
 22 23  2  0
 22 24  1  0
 24 25  1  0
 24 26  1  0
 26 27  1  0
 27 28  2  0
 28 29  1  0
 29 30  2  0
 30 31  1  0
 31 32  2  0
 20 33  2  0
 33  2  1  0
 19  8  1  0
 32 27  1  0
 18 12  1  0
  1 34  1  0
  1 35  1  0
  1 36  1  0
  3 37  1  0
  4 38  1  0
  7 39  1  0
  7 40  1  0
  9 41  1  0
 14 42  1  0
 14 43  1  0
 14 44  1  0
 15 45  1  0
 16 46  1  0
 17 47  1  0
 21 48  1  0
 25 49  1  0
 25 50  1  0
 25 51  1  0
 26 52  1  0
 26 53  1  0
 28 54  1  0
 29 55  1  0
 30 56  1  0
 31 57  1  0
 32 58  1  0
 33 59  1  0
M  END
>  <UniqueID>  (54) 
53

>  <SMILES>  (54) 
Cc1ccc(OCc2cc(=O)n3c(C)cccc3n2)c(NC(=O)N(C)Cc2ccccc2)c1

>  <Energy>  (54) 
74.55421337857305

>  <Genealogy>  (54) 
Cc1ccc(OCc2cc(=O)n3c(C)cccc3n2)c(NC(=O)N(C)Cc2ccccc2)c1 (3D coordinates assigned)
Cc1ccc(OCc2cc(=O)n3c(C)cccc3n2)c(NC(=O)N(C)Cc2ccccc2)c1 (optimized conformer: 74.55421337857305 kcal/mol)

>  <smiles>  (54) 
Cc1ccc(OCc2cc(=O)n3c(C)cccc3n2)c(NC(=O)N(C)Cc2ccccc2)c1

>  <score_type>  (54) 
oracle

>  <origin>  (54) 
adg

>  <m_score__min__energy>  (54) 
-9.3499999999999996

>  <m_primary>  (54) 
energy

$$$$
54:0
     RDKit          3D

 55 59  0  0  1  0  0  0  0  0999 V2000
   60.4710   26.9970   47.4140 C   0  0  0  0  0  0  0  0  0  0  0  0
   59.5320   27.7930   46.5800 C   0  0  0  0  0  0  0  0  0  0  0  0
   59.4300   27.4310   45.2510 C   0  0  0  0  0  0  0  0  0  0  0  0
   58.5720   28.1700   44.4740 C   0  0  0  0  0  0  0  0  0  0  0  0
   57.8300   29.2430   44.9920 C   0  0  0  0  0  0  0  0  0  0  0  0
   56.9400   30.0080   44.0810 C   0  0  0  0  0  0  0  0  0  0  0  0
   56.5750   29.4080   43.0580 O   0  0  0  0  0  0  0  0  0  0  0  0
   56.6210   31.3090   44.4930 N   0  0  0  0  0  0  0  0  0  0  0  0
   57.3740   32.2670   44.8000 C   0  0  0  0  0  0  0  0  0  0  0  0
   57.3660   32.7010   46.1220 C   0  0  0  0  0  0  0  0  0  0  0  0
   58.1780   33.7560   46.5070 C   0  0  0  0  0  0  0  0  0  0  0  0
   58.9620   34.3170   45.5220 C   0  0  0  0  0  0  0  0  0  0  0  0
   59.9920   35.6530   46.0000 Cl  0  0  0  0  0  0  0  0  0  0  0  0
   58.9290   33.8410   44.2130 C   0  0  0  0  0  0  0  0  0  0  0  0
   58.1420   32.8220   43.8520 N   0  0  0  0  0  0  0  0  0  0  0  0
   57.9440   29.5930   46.3320 C   0  0  0  0  0  0  0  0  0  0  0  0
   58.7990   28.8580   47.1110 C   0  0  0  0  0  0  0  0  0  0  0  0
   59.0300   29.1120   48.5030 N   0  0  0  0  0  0  0  0  0  0  0  0
   59.4680   30.3050   48.8330 C   0  0  0  0  0  0  0  0  0  0  0  0
   60.5300   30.8200   48.1500 N   0  0  0  0  0  0  0  0  0  0  0  0
   61.0680   32.0150   48.4310 C   0  0  0  0  0  0  0  0  0  0  0  0
   60.5370   32.7420   49.4330 N   0  0  0  0  0  0  0  0  0  0  0  0
   59.4900   32.2590   50.1230 C   0  0  0  0  0  0  0  0  0  0  0  0
   58.9960   33.0320   51.1390 C   0  0  0  0  0  0  0  0  0  0  0  0
   57.9580   32.5540   51.8400 N   0  0  0  0  0  0  0  0  0  0  0  0
   57.3860   31.3340   51.5740 C   0  0  0  0  0  0  0  0  0  0  0  0
   56.3140   31.0060   52.4390 N   0  0  0  0  0  0  0  0  0  0  0  0
   54.9050   31.1830   52.0390 C   0  0  0  0  0  0  0  0  0  0  0  0
   54.3630   29.7440   52.0060 C   0  0  0  0  0  0  0  0  0  0  0  0
   55.3010   28.8090   52.3730 O   0  0  0  0  0  0  0  0  0  0  0  0
   55.8670   29.0110   53.6170 C   0  0  0  0  0  0  0  0  0  0  0  0
   56.4810   30.4230   53.7650 C   0  0  0  0  0  0  0  0  0  0  0  0
   57.8530   30.5660   50.5870 N   0  0  0  0  0  0  0  0  0  0  0  0
   58.9140   31.0230   49.8500 C   0  0  0  0  0  0  0  0  0  0  0  0
   60.2588   27.1769   48.4783 H   0  0  0  0  0  0  0  0  0  0  0  0
   60.3436   25.9275   47.1904 H   0  0  0  0  0  0  0  0  0  0  0  0
   61.5052   27.2977   47.1904 H   0  0  0  0  0  0  0  0  0  0  0  0
   60.0075   26.5921   44.8354 H   0  0  0  0  0  0  0  0  0  0  0  0
   58.4626   27.9124   43.4102 H   0  0  0  0  0  0  0  0  0  0  0  0
   56.7165   32.2077   46.8601 H   0  0  0  0  0  0  0  0  0  0  0  0
   58.1958   34.1257   47.5429 H   0  0  0  0  0  0  0  0  0  0  0  0
   59.5685   34.3169   43.4550 H   0  0  0  0  0  0  0  0  0  0  0  0
   58.1240   32.4710   42.8850 H   0  0  0  0  0  0  0  0  0  0  0  0
   57.3682   30.4306   46.7526 H   0  0  0  0  0  0  0  0  0  0  0  0
   60.9780   30.2960   47.3590 H   0  0  0  0  0  0  0  0  0  0  0  0
   61.9253   32.3942   47.8554 H   0  0  0  0  0  0  0  0  0  0  0  0
   59.4361   34.0127   51.3725 H   0  0  0  0  0  0  0  0  0  0  0  0
   54.3601   31.7925   52.7749 H   0  0  0  0  0  0  0  0  0  0  0  0
   54.7929   31.7073   51.0785 H   0  0  0  0  0  0  0  0  0  0  0  0
   53.5098   29.6747   52.6969 H   0  0  0  0  0  0  0  0  0  0  0  0
   54.0695   29.5264   50.9685 H   0  0  0  0  0  0  0  0  0  0  0  0
   55.0890   28.8823   54.3839 H   0  0  0  0  0  0  0  0  0  0  0  0
   56.6788   28.2786   53.7383 H   0  0  0  0  0  0  0  0  0  0  0  0
   55.9413   31.0092   54.5233 H   0  0  0  0  0  0  0  0  0  0  0  0
   57.5300   30.4022   54.0955 H   0  0  0  0  0  0  0  0  0  0  0  0
  1  2  1  0
  2  3  2  0
  3  4  1  0
  4  5  2  0
  5  6  1  0
  6  7  2  0
  6  8  1  0
  8  9  2  0
  9 10  1  0
 10 11  2  0
 11 12  1  0
 12 13  1  0
 12 14  2  0
 14 15  1  0
  5 16  1  0
 16 17  2  0
 17 18  1  0
 18 19  2  0
 19 20  1  0
 20 21  1  0
 21 22  2  0
 22 23  1  0
 23 24  2  0
 24 25  1  0
 25 26  2  0
 26 27  1  0
 27 28  1  0
 28 29  1  0
 29 30  1  0
 30 31  1  0
 31 32  1  0
 26 33  1  0
 33 34  2  0
 17  2  1  0
 34 19  1  0
 15  9  1  0
 34 23  1  0
 32 27  1  0
  1 35  1  0
  1 36  1  0
  1 37  1  0
  3 38  1  0
  4 39  1  0
 10 40  1  0
 11 41  1  0
 14 42  1  0
 15 43  1  0
 16 44  1  0
 20 45  1  0
 21 46  1  0
 24 47  1  0
 28 48  1  0
 28 49  1  0
 29 50  1  0
 29 51  1  0
 31 52  1  0
 31 53  1  0
 32 54  1  0
 32 55  1  0
M  END
>  <smiles>  (55) 
Cc1ccc(C(=O)N=c2ccc(Cl)c[nH]2)cc1N=c1[nH]cnc2cnc(N3CCOCC3)nc12

>  <score_type>  (55) 
oracle

>  <origin>  (55) 
adg

>  <m_score__min__energy>  (55) 
-10.16

>  <m_primary>  (55) 
energy

$$$$
55:0
     RDKit          3D

 34 35  0  0  0  0  0  0  0  0999 V2000
   55.5020   28.9700   44.8770 O   0  0  0  0  0  0  0  0  0  0  0  0
   56.5280   29.6080   44.5170 C   0  0  0  0  0  0  0  0  0  0  0  0
   57.5750   28.9360   43.6850 C   0  0  0  0  0  0  0  0  0  0  0  0
   57.7930   27.4730   44.0910 C   0  0  0  0  0  0  0  0  0  0  0  0
   58.2030   27.2720   45.8270 S   0  0  0  0  0  0  0  0  0  0  0  0
   59.0420   26.0360   45.9960 O   0  0  0  0  0  0  0  0  0  0  0  0
   56.9260   27.0950   46.6010 O   0  0  0  0  0  0  0  0  0  0  0  0
   59.0970   28.6570   46.4520 C   0  0  0  0  0  0  0  0  0  0  0  0
   60.3000   29.0580   45.8530 C   0  0  0  0  0  0  0  0  0  0  0  0
   61.0180   30.1400   46.3710 C   0  0  0  0  0  0  0  0  0  0  0  0
   60.5340   30.8320   47.4860 C   0  0  0  0  0  0  0  0  0  0  0  0
   61.5240   32.3000   48.2000 Br  0  0  0  0  0  0  0  0  0  0  0  0
   59.3270   30.4460   48.0770 C   0  0  0  0  0  0  0  0  0  0  0  0
   58.6070   29.3650   47.5590 C   0  0  0  0  0  0  0  0  0  0  0  0
   56.7190   30.9640   44.9240 N   0  0  0  0  0  0  0  0  0  0  0  0
   57.5050   31.9250   44.1660 C   0  0  0  0  0  0  0  0  0  0  0  0
   58.0690   32.9430   45.1010 C   0  0  0  0  0  0  0  0  0  0  0  0
   59.0420   33.8830   44.7880 C   0  0  0  0  0  0  0  0  0  0  0  0
   59.4160   34.6740   45.8810 C   0  0  0  0  0  0  0  0  0  0  0  0
   58.7420   34.3570   47.0540 C   0  0  0  0  0  0  0  0  0  0  0  0
   57.6840   33.0900   46.7320 S   0  0  0  0  0  0  0  0  0  0  0  0
   57.2627   28.9675   42.6307 H   0  0  0  0  0  0  0  0  0  0  0  0
   58.5227   29.4724   43.8403 H   0  0  0  0  0  0  0  0  0  0  0  0
   56.8702   26.9116   43.8828 H   0  0  0  0  0  0  0  0  0  0  0  0
   58.6470   27.0969   43.5087 H   0  0  0  0  0  0  0  0  0  0  0  0
   60.6800   28.5193   44.9725 H   0  0  0  0  0  0  0  0  0  0  0  0
   61.9641   30.4473   45.9014 H   0  0  0  0  0  0  0  0  0  0  0  0
   58.9434   30.9934   48.9506 H   0  0  0  0  0  0  0  0  0  0  0  0
   57.6536   29.0691   48.0211 H   0  0  0  0  0  0  0  0  0  0  0  0
   58.3254   31.4044   43.6503 H   0  0  0  0  0  0  0  0  0  0  0  0
   56.8650   32.4210   43.4214 H   0  0  0  0  0  0  0  0  0  0  0  0
   59.4751   33.9948   43.7830 H   0  0  0  0  0  0  0  0  0  0  0  0
   60.1717   35.4708   45.8172 H   0  0  0  0  0  0  0  0  0  0  0  0
   58.8774   34.8508   48.0276 H   0  0  0  0  0  0  0  0  0  0  0  0
  1  2  2  0
  2  3  1  0
  3  4  1  0
  4  5  1  0
  5  6  2  0
  5  7  2  0
  5  8  1  0
  8  9  2  0
  9 10  1  0
 10 11  2  0
 11 12  1  0
 11 13  1  0
 13 14  2  0
  2 15  1  0
 15 16  1  0
 16 17  1  0
 17 18  2  0
 18 19  1  0
 19 20  2  0
 20 21  1  0
 14  8  1  0
 21 17  1  0
  3 22  1  0
  3 23  1  0
  4 24  1  0
  4 25  1  0
  9 26  1  0
 10 27  1  0
 13 28  1  0
 14 29  1  0
 16 30  1  0
 16 31  1  0
 18 32  1  0
 19 33  1  0
 20 34  1  0
M  CHG  1  15  -1
M  END
>  <UniqueID>  (56) 
54

>  <SMILES>  (56) 
O=C(CCS(=O)(=O)c1ccc(Br)cc1)[N-]Cc1cccs1

>  <Energy>  (56) 
47.85221445556845

>  <Genealogy>  (56) 
O=C(CCS(=O)(=O)c1ccc(Br)cc1)[N-]Cc1cccs1 (protonated)
O=C(CCS(=O)(=O)c1ccc(Br)cc1)[N-]Cc1cccs1 (3D coordinates assigned)
O=C(CCS(=O)(=O)c1ccc(Br)cc1)[N-]Cc1cccs1 (optimized conformer: 47.85221445556845 kcal/mol)

>  <smiles>  (56) 
O=C(CCS(=O)(=O)c1ccc(Br)cc1)NCc1cccs1

>  <score_type>  (56) 
oracle

>  <origin>  (56) 
adg

>  <m_score__min__energy>  (56) 
-10.48

>  <m_primary>  (56) 
energy

$$$$
56:0
     RDKit          3D

 53 55  0  0  0  0  0  0  0  0999 V2000
   63.6970   33.1920   46.7020 C   0  0  0  0  0  0  0  0  0  0  0  0
   63.0930   33.1430   48.0400 N   0  0  0  0  0  0  0  0  0  0  0  0
   63.3850   34.2220   48.9930 C   0  0  0  0  0  0  0  0  0  0  0  0
   62.1600   32.0900   48.3930 C   0  0  0  0  0  0  0  0  0  0  0  0
   61.7130   31.1780   47.4210 C   0  0  0  0  0  0  0  0  0  0  0  0
   60.8750   30.1150   47.7740 C   0  0  0  0  0  0  0  0  0  0  0  0
   60.4630   29.9420   49.1030 C   0  0  0  0  0  0  0  0  0  0  0  0
   59.6430   28.7420   49.4900 C   0  0  0  0  0  0  0  0  0  0  0  0
   58.8060   28.2680   48.3910 N   0  0  0  0  0  0  0  0  0  0  0  0
   59.2830   27.4610   47.3020 C   0  0  0  0  0  0  0  0  0  0  0  0
   60.1890   26.6090   47.5080 O   0  0  0  0  0  0  0  0  0  0  0  0
   58.6940   27.6150   45.9530 C   0  0  0  0  0  0  0  0  0  0  0  0
   58.9850   26.6820   44.9360 C   0  0  0  0  0  0  0  0  0  0  0  0
   58.5160   26.8840   43.6360 C   0  0  0  0  0  0  0  0  0  0  0  0
   57.7460   28.0070   43.3320 C   0  0  0  0  0  0  0  0  0  0  0  0
   57.4230   28.9290   44.3340 C   0  0  0  0  0  0  0  0  0  0  0  0
   56.4490   30.3470   43.9530 S   0  0  0  0  0  0  0  0  0  0  0  0
   56.6550   30.6950   42.5100 O   0  0  0  0  0  0  0  0  0  0  0  0
   54.9920   30.0500   44.1660 O   0  0  0  0  0  0  0  0  0  0  0  0
   56.9170   31.7040   44.9290 N   0  0  0  0  0  0  0  0  0  0  0  0
   58.3610   31.9280   44.8760 C   0  0  0  0  0  0  0  0  0  0  0  0
   58.7980   32.8940   45.9470 C   0  0  0  0  0  0  0  0  0  0  0  0
   58.5760   32.5990   47.3020 C   0  0  0  0  0  0  0  0  0  0  0  0
   58.9790   33.4980   48.2940 C   0  0  0  0  0  0  0  0  0  0  0  0
   59.6080   34.6970   47.9380 C   0  0  0  0  0  0  0  0  0  0  0  0
   59.8490   34.9860   46.5950 C   0  0  0  0  0  0  0  0  0  0  0  0
   59.4480   34.0910   45.6000 C   0  0  0  0  0  0  0  0  0  0  0  0
   57.8930   28.7290   45.6410 C   0  0  0  0  0  0  0  0  0  0  0  0
   60.8570   30.8830   50.0640 C   0  0  0  0  0  0  0  0  0  0  0  0
   61.7030   31.9440   49.7140 C   0  0  0  0  0  0  0  0  0  0  0  0
   64.7894   33.2806   46.7959 H   0  0  0  0  0  0  0  0  0  0  0  0
   63.4496   32.2708   46.1541 H   0  0  0  0  0  0  0  0  0  0  0  0
   63.3043   34.0612   46.1541 H   0  0  0  0  0  0  0  0  0  0  0  0
   63.2821   33.8419   50.0201 H   0  0  0  0  0  0  0  0  0  0  0  0
   64.4127   34.5815   48.8363 H   0  0  0  0  0  0  0  0  0  0  0  0
   62.6788   35.0507   48.8363 H   0  0  0  0  0  0  0  0  0  0  0  0
   62.0250   31.3014   46.3734 H   0  0  0  0  0  0  0  0  0  0  0  0
   60.5362   29.4085   47.0020 H   0  0  0  0  0  0  0  0  0  0  0  0
   60.3223   27.9316   49.7930 H   0  0  0  0  0  0  0  0  0  0  0  0
   58.9798   29.0384   50.3160 H   0  0  0  0  0  0  0  0  0  0  0  0
   59.5850   25.7898   45.1681 H   0  0  0  0  0  0  0  0  0  0  0  0
   58.7548   26.1543   42.8482 H   0  0  0  0  0  0  0  0  0  0  0  0
   57.3922   28.1680   42.3030 H   0  0  0  0  0  0  0  0  0  0  0  0
   58.8793   30.9690   45.0235 H   0  0  0  0  0  0  0  0  0  0  0  0
   58.6132   32.3558   43.8945 H   0  0  0  0  0  0  0  0  0  0  0  0
   58.0831   31.6569   47.5839 H   0  0  0  0  0  0  0  0  0  0  0  0
   58.8019   33.2633   49.3540 H   0  0  0  0  0  0  0  0  0  0  0  0
   59.9121   35.4111   48.7175 H   0  0  0  0  0  0  0  0  0  0  0  0
   60.3565   35.9218   46.3183 H   0  0  0  0  0  0  0  0  0  0  0  0
   59.6414   34.3236   44.5424 H   0  0  0  0  0  0  0  0  0  0  0  0
   57.6326   29.4504   46.4296 H   0  0  0  0  0  0  0  0  0  0  0  0
   60.4998   30.7881   51.1000 H   0  0  0  0  0  0  0  0  0  0  0  0
   62.0124   32.6696   50.4807 H   0  0  0  0  0  0  0  0  0  0  0  0
  1  2  1  0
  2  3  1  0
  2  4  1  0
  4  5  2  0
  5  6  1  0
  6  7  2  0
  7  8  1  0
  8  9  1  0
  9 10  1  0
 10 11  2  0
 10 12  1  0
 12 13  2  0
 13 14  1  0
 14 15  2  0
 15 16  1  0
 16 17  1  0
 17 18  2  0
 17 19  2  0
 17 20  1  0
 20 21  1  0
 21 22  1  0
 22 23  2  0
 23 24  1  0
 24 25  2  0
 25 26  1  0
 26 27  2  0
 16 28  2  0
  7 29  1  0
 29 30  2  0
 30  4  1  0
 28 12  1  0
 27 22  1  0
  1 31  1  0
  1 32  1  0
  1 33  1  0
  3 34  1  0
  3 35  1  0
  3 36  1  0
  5 37  1  0
  6 38  1  0
  8 39  1  0
  8 40  1  0
 13 41  1  0
 14 42  1  0
 15 43  1  0
 21 44  1  0
 21 45  1  0
 23 46  1  0
 24 47  1  0
 25 48  1  0
 26 49  1  0
 27 50  1  0
 28 51  1  0
 29 52  1  0
 30 53  1  0
M  CHG  2   9  -1  20  -1
M  END
>  <UniqueID>  (57) 
55

>  <SMILES>  (57) 
CN(C)c1ccc(C[N-]C(=O)c2cccc(S(=O)(=O)[N-]Cc3ccccc3)c2)cc1

>  <Energy>  (57) 
60.770939590428235

>  <Genealogy>  (57) 
CN(C)c1ccc(C[N-]C(=O)c2cccc(S(=O)(=O)[N-]Cc3ccccc3)c2)cc1 (protonated)
CN(C)c1ccc(C[N-]C(=O)c2cccc(S(=O)(=O)[N-]Cc3ccccc3)c2)cc1 (3D coordinates assigned)
CN(C)c1ccc(C[N-]C(=O)c2cccc(S(=O)(=O)[N-]Cc3ccccc3)c2)cc1 (optimized conformer: 60.770939590428235 kcal/mol)

>  <smiles>  (57) 
CN(C)c1ccc(CNC(=O)c2cccc(S(=O)(=O)NCc3ccccc3)c2)cc1

>  <score_type>  (57) 
oracle

>  <origin>  (57) 
adg

>  <m_score__min__energy>  (57) 
-12.199999999999999

>  <m_primary>  (57) 
energy

$$$$
57:0
     RDKit          3D

 55 58  0  0  0  0  0  0  0  0999 V2000
   63.6210   33.2320   47.4850 C   0  0  0  0  0  0  0  0  0  0  0  0
   63.9000   32.7410   48.8800 C   0  0  0  0  0  0  0  0  0  0  0  0
   65.2210   32.7630   49.3580 C   0  0  0  0  0  0  0  0  0  0  0  0
   65.5120   32.3300   50.6530 C   0  0  0  0  0  0  0  0  0  0  0  0
   64.4890   31.8770   51.4840 C   0  0  0  0  0  0  0  0  0  0  0  0
   63.1690   31.8660   51.0290 C   0  0  0  0  0  0  0  0  0  0  0  0
   62.8570   32.3090   49.7290 C   0  0  0  0  0  0  0  0  0  0  0  0
   61.4990   32.3520   49.2620 N   0  0  0  0  0  0  0  0  0  0  0  0
   60.5900   33.7950   48.9480 S   0  0  0  0  0  0  0  0  0  0  0  0
   61.5510   34.9500   48.8720 O   0  0  0  0  0  0  0  0  0  0  0  0
   59.6490   34.0490   50.0900 O   0  0  0  0  0  0  0  0  0  0  0  0
   59.6660   33.6590   47.4410 C   0  0  0  0  0  0  0  0  0  0  0  0
   59.4770   34.8180   46.6710 C   0  0  0  0  0  0  0  0  0  0  0  0
   58.8290   34.7580   45.4420 C   0  0  0  0  0  0  0  0  0  0  0  0
   58.3360   33.5460   44.9710 C   0  0  0  0  0  0  0  0  0  0  0  0
   58.4590   32.3810   45.7390 C   0  0  0  0  0  0  0  0  0  0  0  0
   57.8560   31.1390   45.2140 C   0  0  0  0  0  0  0  0  0  0  0  0
   56.6600   31.1650   44.8210 O   0  0  0  0  0  0  0  0  0  0  0  0
   58.5880   29.9090   45.1140 N   0  0  0  0  0  0  0  0  0  0  0  0
   58.0750   28.5710   45.2110 C   0  0  0  0  0  0  0  0  0  0  0  0
   58.9300   27.5040   44.9000 C   0  0  0  0  0  0  0  0  0  0  0  0
   58.4770   26.1840   44.9870 C   0  0  0  0  0  0  0  0  0  0  0  0
   57.1570   25.9200   45.3630 C   0  0  0  0  0  0  0  0  0  0  0  0
   56.2860   26.9770   45.6380 C   0  0  0  0  0  0  0  0  0  0  0  0
   54.9670   26.7150   45.9900 O   0  0  0  0  0  0  0  0  0  0  0  0
   56.7360   28.2990   45.5520 C   0  0  0  0  0  0  0  0  0  0  0  0
   59.1520   32.4210   46.9770 C   0  0  0  0  0  0  0  0  0  0  0  0
   59.4130   31.2050   47.7030 N   0  0  0  0  0  0  0  0  0  0  0  0
   58.6220   30.8850   48.8960 C   0  0  0  0  0  0  0  0  0  0  0  0
   58.8980   29.4470   49.3370 C   0  0  0  0  0  0  0  0  0  0  0  0
   58.9820   28.6140   48.2010 O   0  0  0  0  0  0  0  0  0  0  0  0
   60.1830   28.8570   47.4830 C   0  0  0  0  0  0  0  0  0  0  0  0
   60.5550   30.3540   47.3580 C   0  0  0  0  0  0  0  0  0  0  0  0
   63.0781   34.1874   47.5343 H   0  0  0  0  0  0  0  0  0  0  0  0
   64.5714   33.3775   46.9505 H   0  0  0  0  0  0  0  0  0  0  0  0
   63.0096   32.4900   46.9505 H   0  0  0  0  0  0  0  0  0  0  0  0
   66.0314   33.1238   48.7076 H   0  0  0  0  0  0  0  0  0  0  0  0
   66.5496   32.3464   51.0177 H   0  0  0  0  0  0  0  0  0  0  0  0
   64.7220   31.5274   52.5006 H   0  0  0  0  0  0  0  0  0  0  0  0
   62.3665   31.5086   51.6910 H   0  0  0  0  0  0  0  0  0  0  0  0
   59.8459   35.7847   47.0443 H   0  0  0  0  0  0  0  0  0  0  0  0
   58.7061   35.6712   44.8412 H   0  0  0  0  0  0  0  0  0  0  0  0
   57.8455   33.5018   43.9874 H   0  0  0  0  0  0  0  0  0  0  0  0
   59.9644   27.7068   44.5854 H   0  0  0  0  0  0  0  0  0  0  0  0
   59.1602   25.3525   44.7593 H   0  0  0  0  0  0  0  0  0  0  0  0
   56.8044   24.8811   45.4423 H   0  0  0  0  0  0  0  0  0  0  0  0
   56.0417   29.1285   45.7514 H   0  0  0  0  0  0  0  0  0  0  0  0
   58.8944   31.5739   49.7091 H   0  0  0  0  0  0  0  0  0  0  0  0
   57.5530   30.9910   48.6593 H   0  0  0  0  0  0  0  0  0  0  0  0
   59.8479   29.4092   49.8903 H   0  0  0  0  0  0  0  0  0  0  0  0
   58.0810   29.0997   49.9865 H   0  0  0  0  0  0  0  0  0  0  0  0
   61.0046   28.3393   47.9996 H   0  0  0  0  0  0  0  0  0  0  0  0
   60.0211   28.4849   46.4606 H   0  0  0  0  0  0  0  0  0  0  0  0
   61.3892   30.5763   48.0396 H   0  0  0  0  0  0  0  0  0  0  0  0
   60.8456   30.5592   46.3171 H   0  0  0  0  0  0  0  0  0  0  0  0
  1  2  1  0
  2  3  2  0
  3  4  1  0
  4  5  2  0
  5  6  1  0
  6  7  2  0
  7  8  1  0
  8  9  1  0
  9 10  2  0
  9 11  2  0
  9 12  1  0
 12 13  2  0
 13 14  1  0
 14 15  2  0
 15 16  1  0
 16 17  1  0
 17 18  2  0
 17 19  1  0
 19 20  1  0
 20 21  2  0
 21 22  1  0
 22 23  2  0
 23 24  1  0
 24 25  1  0
 24 26  2  0
 16 27  2  0
 27 28  1  0
 28 29  1  0
 29 30  1  0
 30 31  1  0
 31 32  1  0
 32 33  1  0
  7  2  1  0
 27 12  1  0
 33 28  1  0
 26 20  1  0
  1 34  1  0
  1 35  1  0
  1 36  1  0
  3 37  1  0
  4 38  1  0
  5 39  1  0
  6 40  1  0
 13 41  1  0
 14 42  1  0
 15 43  1  0
 21 44  1  0
 22 45  1  0
 23 46  1  0
 26 47  1  0
 29 48  1  0
 29 49  1  0
 30 50  1  0
 30 51  1  0
 32 52  1  0
 32 53  1  0
 33 54  1  0
 33 55  1  0
M  CHG  3   8  -1  19  -1  25  -1
M  END
>  <UniqueID>  (58) 
56

>  <SMILES>  (58) 
Cc1ccccc1[N-]S(=O)(=O)c1cccc(C(=O)[N-]c2cccc([O-])c2)c1N1CCOCC1

>  <Energy>  (58) 
82.0149344172219

>  <Genealogy>  (58) 
Cc1ccccc1[N-]S(=O)(=O)c1cccc(C(=O)[N-]c2cccc([O-])c2)c1N1CCOCC1 (protonated)
Cc1ccccc1[N-]S(=O)(=O)c1cccc(C(=O)[N-]c2cccc([O-])c2)c1N1CCOCC1 (3D coordinates assigned)
Cc1ccccc1[N-]S(=O)(=O)c1cccc(C(=O)[N-]c2cccc([O-])c2)c1N1CCOCC1 (nonaromatic ring conformer: 82.0149344172219 kcal/mol)

>  <smiles>  (58) 
Cc1ccccc1NS(=O)(=O)c1cccc(C(=O)Nc2cccc(O)c2)c1N1CCOCC1

>  <score_type>  (58) 
oracle

>  <origin>  (58) 
adg

>  <m_score__min__energy>  (58) 
-14.800000000000001

>  <m_primary>  (58) 
energy

$$$$
58:0
     RDKit          3D

 37 38  0  0  0  0  0  0  0  0999 V2000
   62.4540   32.1020   47.7550 N   0  0  0  0  0  0  0  0  0  0  0  0
   61.3770   33.3000   48.3840 S   0  0  0  0  0  0  0  0  0  0  0  0
   62.1290   34.5730   48.6520 O   0  0  0  0  0  0  0  0  0  0  0  0
   60.8130   32.7970   49.6840 O   0  0  0  0  0  0  0  0  0  0  0  0
   60.0660   33.6080   47.2310 C   0  0  0  0  0  0  0  0  0  0  0  0
   60.2430   34.5920   46.2440 C   0  0  0  0  0  0  0  0  0  0  0  0
   59.2210   34.8840   45.3390 C   0  0  0  0  0  0  0  0  0  0  0  0
   58.0090   34.1970   45.4060 C   0  0  0  0  0  0  0  0  0  0  0  0
   57.8170   33.2160   46.3790 C   0  0  0  0  0  0  0  0  0  0  0  0
   58.8310   32.9210   47.3100 C   0  0  0  0  0  0  0  0  0  0  0  0
   58.5980   31.8600   48.3190 C   0  0  0  0  0  0  0  0  0  0  0  0
   58.9350   30.5730   48.1480 C   0  0  0  0  0  0  0  0  0  0  0  0
   60.3170   30.1030   47.9690 C   0  0  0  0  0  0  0  0  0  0  0  0
   60.9460   29.5830   48.9300 O   0  0  0  0  0  0  0  0  0  0  0  0
   60.9420   30.2380   46.6890 N   0  0  0  0  0  0  0  0  0  0  0  0
   60.7030   29.3110   45.5890 C   0  0  0  0  0  0  0  0  0  0  0  0
   59.2340   29.2800   45.2570 C   0  0  0  0  0  0  0  0  0  0  0  0
   58.6270   30.3940   44.6560 C   0  0  0  0  0  0  0  0  0  0  0  0
   57.2490   30.4020   44.4140 C   0  0  0  0  0  0  0  0  0  0  0  0
   56.4680   29.3000   44.7760 C   0  0  0  0  0  0  0  0  0  0  0  0
   55.1320   29.3130   44.5490 F   0  0  0  0  0  0  0  0  0  0  0  0
   57.0650   28.1890   45.3780 C   0  0  0  0  0  0  0  0  0  0  0  0
   58.4420   28.1780   45.6210 C   0  0  0  0  0  0  0  0  0  0  0  0
   62.2470   31.9940   46.7360 H   0  0  0  0  0  0  0  0  0  0  0  0
   62.2100   31.1950   48.2120 H   0  0  0  0  0  0  0  0  0  0  0  0
   61.1962   35.1377   46.1837 H   0  0  0  0  0  0  0  0  0  0  0  0
   59.3718   35.6574   44.5715 H   0  0  0  0  0  0  0  0  0  0  0  0
   57.2050   34.4286   44.6919 H   0  0  0  0  0  0  0  0  0  0  0  0
   56.8642   32.6677   46.4192 H   0  0  0  0  0  0  0  0  0  0  0  0
   58.1189   32.1461   49.2670 H   0  0  0  0  0  0  0  0  0  0  0  0
   58.1293   29.8241   48.1412 H   0  0  0  0  0  0  0  0  0  0  0  0
   61.2701   29.6390   44.7054 H   0  0  0  0  0  0  0  0  0  0  0  0
   61.0293   28.3034   45.8861 H   0  0  0  0  0  0  0  0  0  0  0  0
   59.2375   31.2645   44.3741 H   0  0  0  0  0  0  0  0  0  0  0  0
   56.7796   31.2759   43.9386 H   0  0  0  0  0  0  0  0  0  0  0  0
   56.4506   27.3216   45.6612 H   0  0  0  0  0  0  0  0  0  0  0  0
   58.9070   27.3032   46.0990 H   0  0  0  0  0  0  0  0  0  0  0  0
  1  2  1  0
  2  3  2  0
  2  4  2  0
  2  5  1  0
  5  6  2  0
  6  7  1  0
  7  8  2  0
  8  9  1  0
  9 10  2  0
 10 11  1  0
 11 12  2  3
 12 13  1  0
 13 14  2  0
 13 15  1  0
 15 16  1  0
 16 17  1  0
 17 18  2  0
 18 19  1  0
 19 20  2  0
 20 21  1  0
 20 22  1  0
 22 23  2  0
 10  5  1  0
 23 17  1  0
  1 24  1  0
  1 25  1  0
  6 26  1  0
  7 27  1  0
  8 28  1  0
  9 29  1  0
 11 30  1  0
 12 31  1  0
 16 32  1  0
 16 33  1  0
 18 34  1  0
 19 35  1  0
 22 36  1  0
 23 37  1  0
M  CHG  1  15  -1
M  END
>  <UniqueID>  (59) 
57

>  <SMILES>  (59) 
NS(=O)(=O)c1ccccc1C=CC(=O)[N-]Cc1ccc(F)cc1

>  <Energy>  (59) 
42.019349217219585

>  <Genealogy>  (59) 
NS(=O)(=O)c1ccccc1C=CC(=O)[N-]Cc1ccc(F)cc1 (protonated)
NS(=O)(=O)c1ccccc1C=CC(=O)[N-]Cc1ccc(F)cc1 (3D coordinates assigned)
NS(=O)(=O)c1ccccc1C=CC(=O)[N-]Cc1ccc(F)cc1 (optimized conformer: 42.019349217219585 kcal/mol)

>  <smiles>  (59) 
NS(=O)(=O)c1ccccc1C=CC(=O)NCc1ccc(F)cc1

>  <score_type>  (59) 
oracle

>  <origin>  (59) 
adg

>  <m_score__min__energy>  (59) 
-10.51

>  <m_primary>  (59) 
energy

$$$$
59:0
     RDKit          3D

 49 51  0  0  0  0  0  0  0  0999 V2000
   60.1980   30.9730   49.4480 C   0  0  0  0  0  0  0  0  0  0  0  0
   61.1520   30.8230   48.4010 O   0  0  0  0  0  0  0  0  0  0  0  0
   61.9090   31.8740   47.8580 C   0  0  0  0  0  0  0  0  0  0  0  0
   63.2910   31.9980   48.1000 C   0  0  0  0  0  0  0  0  0  0  0  0
   64.0140   33.0550   47.5430 C   0  0  0  0  0  0  0  0  0  0  0  0
   63.3690   34.0020   46.7490 C   0  0  0  0  0  0  0  0  0  0  0  0
   62.0000   33.8920   46.5010 C   0  0  0  0  0  0  0  0  0  0  0  0
   61.2620   32.8230   47.0400 C   0  0  0  0  0  0  0  0  0  0  0  0
   59.8460   32.7170   46.8070 N   0  0  0  0  0  0  0  0  0  0  0  0
   58.9000   33.7370   47.1650 C   0  0  0  0  0  0  0  0  0  0  0  0
   59.2910   34.8740   47.5420 O   0  0  0  0  0  0  0  0  0  0  0  0
   57.4350   33.4830   47.0040 C   0  0  0  0  0  0  0  0  0  0  0  0
   57.0020   33.5570   45.2370 S   0  0  0  0  0  0  0  0  0  0  0  0
   57.3690   31.8280   44.9540 C   0  0  0  0  0  0  0  0  0  0  0  0
   57.2170   31.2740   43.6790 C   0  0  0  0  0  0  0  0  0  0  0  0
   57.5090   29.9230   43.4820 C   0  0  0  0  0  0  0  0  0  0  0  0
   57.9540   29.1410   44.5540 C   0  0  0  0  0  0  0  0  0  0  0  0
   58.3050   27.4280   44.3400 S   0  0  0  0  0  0  0  0  0  0  0  0
   58.2810   27.0830   42.8760 O   0  0  0  0  0  0  0  0  0  0  0  0
   59.6810   27.1470   44.8750 O   0  0  0  0  0  0  0  0  0  0  0  0
   57.1290   26.4740   45.2070 N   0  0  0  0  0  0  0  0  0  0  0  0
   56.8930   25.2030   44.5040 C   0  0  0  0  0  0  0  0  0  0  0  0
   55.9160   24.3190   45.3050 C   0  0  0  0  0  0  0  0  0  0  0  0
   55.5350   24.9230   46.5280 O   0  0  0  0  0  0  0  0  0  0  0  0
   56.6880   25.2090   47.2960 C   0  0  0  0  0  0  0  0  0  0  0  0
   57.6090   26.2150   46.5750 C   0  0  0  0  0  0  0  0  0  0  0  0
   58.0890   29.7350   45.8160 C   0  0  0  0  0  0  0  0  0  0  0  0
   57.7990   31.0520   45.9850 N   0  0  0  0  0  0  0  0  0  0  0  0
   60.7055   30.8932   50.4207 H   0  0  0  0  0  0  0  0  0  0  0  0
   59.7154   31.9581   49.3660 H   0  0  0  0  0  0  0  0  0  0  0  0
   59.4364   30.1836   49.3660 H   0  0  0  0  0  0  0  0  0  0  0  0
   63.8039   31.2577   48.7316 H   0  0  0  0  0  0  0  0  0  0  0  0
   65.0944   33.1405   47.7311 H   0  0  0  0  0  0  0  0  0  0  0  0
   63.9399   34.8373   46.3173 H   0  0  0  0  0  0  0  0  0  0  0  0
   61.4949   34.6464   45.8799 H   0  0  0  0  0  0  0  0  0  0  0  0
   59.4910   31.8920   46.2740 H   0  0  0  0  0  0  0  0  0  0  0  0
   57.1889   32.4872   47.4012 H   0  0  0  0  0  0  0  0  0  0  0  0
   56.8660   34.2462   47.5551 H   0  0  0  0  0  0  0  0  0  0  0  0
   56.8711   31.8960   42.8403 H   0  0  0  0  0  0  0  0  0  0  0  0
   57.3894   29.4736   42.4851 H   0  0  0  0  0  0  0  0  0  0  0  0
   56.4639   25.4113   43.5128 H   0  0  0  0  0  0  0  0  0  0  0  0
   57.8500   24.6712   44.3975 H   0  0  0  0  0  0  0  0  0  0  0  0
   55.0148   24.1459   44.6985 H   0  0  0  0  0  0  0  0  0  0  0  0
   56.4266   23.3729   45.5378 H   0  0  0  0  0  0  0  0  0  0  0  0
   56.3783   25.6356   48.2614 H   0  0  0  0  0  0  0  0  0  0  0  0
   57.2464   24.2729   47.4442 H   0  0  0  0  0  0  0  0  0  0  0  0
   57.6219   27.1600   47.1379 H   0  0  0  0  0  0  0  0  0  0  0  0
   58.6218   25.7894   46.5193 H   0  0  0  0  0  0  0  0  0  0  0  0
   58.4304   29.1340   46.6717 H   0  0  0  0  0  0  0  0  0  0  0  0
  1  2  1  0
  2  3  1  0
  3  4  2  0
  4  5  1  0
  5  6  2  0
  6  7  1  0
  7  8  2  0
  8  9  1  0
  9 10  1  0
 10 11  2  0
 10 12  1  0
 12 13  1  0
 13 14  1  0
 14 15  2  0
 15 16  1  0
 16 17  2  0
 17 18  1  0
 18 19  2  0
 18 20  2  0
 18 21  1  0
 21 22  1  0
 22 23  1  0
 23 24  1  0
 24 25  1  0
 25 26  1  0
 17 27  1  0
 27 28  2  0
  8  3  1  0
 28 14  1  0
 26 21  1  0
  1 29  1  0
  1 30  1  0
  1 31  1  0
  4 32  1  0
  5 33  1  0
  6 34  1  0
  7 35  1  0
  9 36  1  0
 12 37  1  0
 12 38  1  0
 15 39  1  0
 16 40  1  0
 22 41  1  0
 22 42  1  0
 23 43  1  0
 23 44  1  0
 25 45  1  0
 25 46  1  0
 26 47  1  0
 26 48  1  0
 27 49  1  0
M  END
>  <UniqueID>  (60) 
58

>  <SMILES>  (60) 
COc1ccccc1NC(=O)CSc1ccc(S(=O)(=O)N2CCOCC2)cn1

>  <Energy>  (60) 
55.86923319056454

>  <Genealogy>  (60) 
COc1ccccc1NC(=O)CSc1ccc(S(=O)(=O)N2CCOCC2)cn1 (3D coordinates assigned)
COc1ccccc1NC(=O)CSc1ccc(S(=O)(=O)N2CCOCC2)cn1 (nonaromatic ring conformer: 55.86923319056454 kcal/mol)

>  <smiles>  (60) 
COc1ccccc1NC(=O)CSc1ccc(S(=O)(=O)N2CCOCC2)cn1

>  <score_type>  (60) 
oracle

>  <origin>  (60) 
adg

>  <m_score__min__energy>  (60) 
-9.4900000000000002

>  <m_primary>  (60) 
energy

$$$$
60:0
     RDKit          3D

 60 63  0  0  0  0  0  0  0  0999 V2000
   58.8830   34.9600   47.2410 H   0  0  0  0  0  0  0  0  0  0  0  0
   58.8010   34.0020   47.4910 O   0  0  0  0  0  0  0  0  0  0  0  0
   58.8240   33.2720   46.2920 C   0  0  2  0  0  0  0  0  0  0  0  0
   59.8463   32.8790   46.1900 H   0  0  0  0  0  0  0  0  0  0  0  0
   58.4260   34.1580   45.1250 C   0  0  0  0  0  0  0  0  0  0  0  0
   59.3110   34.6566   44.7030 H   0  0  0  0  0  0  0  0  0  0  0  0
   57.7271   34.9485   45.4359 H   0  0  0  0  0  0  0  0  0  0  0  0
   57.8000   33.2290   44.0960 C   0  0  0  0  0  0  0  0  0  0  0  0
   58.5401   32.9604   43.3278 H   0  0  0  0  0  0  0  0  0  0  0  0
   56.9529   33.7138   43.5887 H   0  0  0  0  0  0  0  0  0  0  0  0
   57.3450   31.9740   44.8540 C   0  0  1  0  0  0  0  0  0  0  0  0
   56.2537   31.8498   44.7934 H   0  0  0  0  0  0  0  0  0  0  0  0
   57.9480   30.7730   44.2680 N   0  0  0  0  0  0  0  0  0  0  0  0
   58.2180   30.8260   43.2570 H   0  0  0  0  0  0  0  0  0  0  0  0
   57.5510   29.4850   44.7410 C   0  0  0  0  0  0  0  0  0  0  0  0
   55.9520   28.9760   44.8490 S   0  0  0  0  0  0  0  0  0  0  0  0
   56.3820   27.5430   45.6100 C   0  0  0  0  0  0  0  0  0  0  0  0
   55.5170   26.6540   45.9980 N   0  0  0  0  0  0  0  0  0  0  0  0
   55.7130   25.2320   46.0410 C   0  0  0  0  0  0  0  0  0  0  0  0
   55.8830   24.5750   47.2210 N   0  0  0  0  0  0  0  0  0  0  0  0
   56.0210   23.2260   47.2820 C   0  0  0  0  0  0  0  0  0  0  0  0
   56.1750   22.7345   48.2539 H   0  0  0  0  0  0  0  0  0  0  0  0
   55.9680   22.4560   46.1100 C   0  0  0  0  0  0  0  0  0  0  0  0
   56.1600   20.9670   46.1950 C   0  0  0  0  0  0  0  0  0  0  0  0
   56.1993   20.6621   47.2512 H   0  0  0  0  0  0  0  0  0  0  0  0
   55.3198   20.4600   45.6980 H   0  0  0  0  0  0  0  0  0  0  0  0
   57.1013   20.6897   45.6980 H   0  0  0  0  0  0  0  0  0  0  0  0
   55.8060   23.1060   44.8700 C   0  0  0  0  0  0  0  0  0  0  0  0
   55.7670   22.3420   43.6930 O   0  0  0  0  0  0  0  0  0  0  0  0
   56.9220   21.8400   43.0190 C   0  0  0  0  0  0  0  0  0  0  0  0
   57.6673   21.5161   43.7604 H   0  0  0  0  0  0  0  0  0  0  0  0
   56.6361   20.9850   42.3888 H   0  0  0  0  0  0  0  0  0  0  0  0
   57.3521   22.6324   42.3888 H   0  0  0  0  0  0  0  0  0  0  0  0
   55.6750   24.5070   44.8470 C   0  0  0  0  0  0  0  0  0  0  0  0
   55.5427   25.0314   43.8891 H   0  0  0  0  0  0  0  0  0  0  0  0
   57.7210   27.4260   45.7720 N   0  0  0  0  0  0  0  0  0  0  0  0
   58.3870   28.5050   45.2790 C   0  0  0  0  0  0  0  0  0  0  0  0
   59.8990   28.5540   45.2700 C   0  0  0  0  0  0  0  0  0  0  0  0
   60.2738   27.6135   44.8399 H   0  0  0  0  0  0  0  0  0  0  0  0
   60.1872   29.4335   44.6756 H   0  0  0  0  0  0  0  0  0  0  0  0
   60.5020   28.7260   46.6170 N   0  0  0  0  0  0  0  0  0  0  0  0
   61.5390   28.7270   46.4550 H   0  0  0  0  0  0  0  0  0  0  0  0
   60.2320   27.5540   47.4920 C   0  0  0  0  0  0  0  0  0  0  0  0
   59.1720   27.2750   47.3999 H   0  0  0  0  0  0  0  0  0  0  0  0
   60.8822   26.7261   47.1729 H   0  0  0  0  0  0  0  0  0  0  0  0
   60.5390   27.8710   48.9610 C   0  0  0  0  0  0  0  0  0  0  0  0
   60.3722   26.9674   49.5657 H   0  0  0  0  0  0  0  0  0  0  0  0
   61.5863   28.1991   49.0354 H   0  0  0  0  0  0  0  0  0  0  0  0
   59.6360   29.0000   49.4860 C   0  0  0  0  0  0  0  0  0  0  0  0
   58.7601   28.5503   49.9764 H   0  0  0  0  0  0  0  0  0  0  0  0
   60.2321   29.6018   50.1878 H   0  0  0  0  0  0  0  0  0  0  0  0
   59.1460   29.9400   48.3690 C   0  0  0  0  0  0  0  0  0  0  0  0
   58.2058   29.5468   47.9550 H   0  0  0  0  0  0  0  0  0  0  0  0
   58.9903   30.9411   48.7974 H   0  0  0  0  0  0  0  0  0  0  0  0
   60.1860   30.0470   47.2410 C   0  0  0  0  0  0  0  0  0  0  0  0
   59.7929   30.7181   46.4631 H   0  0  0  0  0  0  0  0  0  0  0  0
   61.1154   30.4351   47.6833 H   0  0  0  0  0  0  0  0  0  0  0  0
   57.7940   32.1510   46.3070 C   0  0  0  0  0  0  0  0  0  0  0  0
   58.2456   31.2215   46.6838 H   0  0  0  0  0  0  0  0  0  0  0  0
   56.9460   32.3906   46.9654 H   0  0  0  0  0  0  0  0  0  0  0  0
  1  2  1  0
  2  3  1  0
  3  4  1  6
  3  5  1  0
  5  6  1  0
  5  7  1  0
  5  8  1  0
  8  9  1  0
  8 10  1  0
  8 11  1  0
 11 12  1  1
 11 13  1  0
 13 14  1  0
 13 15  1  0
 15 16  1  0
 16 17  1  0
 17 18  2  0
 18 19  1  0
 19 20  2  0
 20 21  1  0
 21 22  1  0
 21 23  2  0
 23 24  1  0
 24 25  1  0
 24 26  1  0
 24 27  1  0
 23 28  1  0
 28 29  1  0
 29 30  1  0
 30 31  1  0
 30 32  1  0
 30 33  1  0
 28 34  2  0
 34 35  1  0
 17 36  1  0
 36 37  1  0
 37 38  1  0
 38 39  1  0
 38 40  1  0
 38 41  1  0
 41 42  1  0
 41 43  1  0
 43 44  1  0
 43 45  1  0
 43 46  1  0
 46 47  1  0
 46 48  1  0
 46 49  1  0
 49 50  1  0
 49 51  1  0
 49 52  1  0
 52 53  1  0
 52 54  1  0
 52 55  1  0
 55 56  1  0
 55 57  1  0
 11 58  1  0
 58 59  1  0
 58 60  1  0
 58  3  1  0
 37 15  2  0
 55 41  1  0
 34 19  1  0
M  CHG  2  36  -1  41   1
M  END
>  <UniqueID>  (61) 
59

>  <SMILES>  (61) 
COc1cc(/N=c2\[n-]c(C[NH+]3CCCCC3)c(N[C@@H]3CC[C@@H](O)C3)s2)ncc1C

>  <Energy>  (61) 
108.06344935048857

>  <Genealogy>  (61) 
COc1cc(N=c2[n-]c(C[NH+]3CCCCC3)c(NC3CCC(O)C3)s2)ncc1C (protonated)
COc1cc(N=c2[n-]c(C[NH+]3CCCCC3)c(N[C@@H]3CC[C@@H](O)C3)s2)ncc1C (chirality)
COc1cc(/N=c2\[n-]c(C[NH+]3CCCCC3)c(N[C@@H]3CC[C@@H](O)C3)s2)ncc1C (cis-trans isomerization)
COc1cc(/N=c2\[n-]c(C[NH+]3CCCCC3)c(N[C@@H]3CC[C@@H](O)C3)s2)ncc1C (3D coordinates assigned)
COc1cc(/N=c2\[n-]c(C[NH+]3CCCCC3)c(N[C@@H]3CC[C@@H](O)C3)s2)ncc1C (nonaromatic ring conformer: 108.06344935048857 kcal/mol)

>  <smiles>  (61) 
COc1cc(N=c2[nH]c(CN3CCCCC3)c(NC3CCC(O)C3)s2)ncc1C

>  <score_type>  (61) 
oracle

>  <origin>  (61) 
adg

>  <m_score__min__energy>  (61) 
-8.4700000000000006

>  <m_primary>  (61) 
energy

$$$$
61:0
     RDKit          3D

 32 33  0  0  0  0  0  0  0  0999 V2000
   58.7170   32.8700   48.6770 C   0  0  0  0  0  0  0  0  0  0  0  0
   58.8520   33.4780   47.3070 C   0  0  0  0  0  0  0  0  0  0  0  0
   59.4680   34.7420   47.2400 C   0  0  0  0  0  0  0  0  0  0  0  0
   59.6300   35.3960   46.0260 C   0  0  0  0  0  0  0  0  0  0  0  0
   59.1750   34.7920   44.8640 C   0  0  0  0  0  0  0  0  0  0  0  0
   58.5800   33.5740   44.9180 N   0  0  0  0  0  0  0  0  0  0  0  0
   58.3960   32.8820   46.0840 C   0  0  0  0  0  0  0  0  0  0  0  0
   57.8100   31.7150   45.9740 N   0  0  0  0  0  0  0  0  0  0  0  0
   57.2940   30.7170   44.6480 S   0  0  0  0  0  0  0  0  0  0  0  0
   55.8110   30.8250   44.4310 O   0  0  0  0  0  0  0  0  0  0  0  0
   58.0320   31.0580   43.3850 O   0  0  0  0  0  0  0  0  0  0  0  0
   57.6750   29.0500   45.0700 C   0  0  0  0  0  0  0  0  0  0  0  0
   58.9910   28.5800   44.9800 C   0  0  0  0  0  0  0  0  0  0  0  0
   59.2860   27.2530   45.3010 C   0  0  0  0  0  0  0  0  0  0  0  0
   58.2700   26.3860   45.7070 C   0  0  0  0  0  0  0  0  0  0  0  0
   56.9390   26.8370   45.7940 C   0  0  0  0  0  0  0  0  0  0  0  0
   55.8600   25.9140   46.2200 C   0  0  0  0  0  0  0  0  0  0  0  0
   54.5130   26.1330   45.8060 N   0  0  0  0  0  0  0  0  0  0  0  0
   56.1220   24.9240   46.9540 O   0  0  0  0  0  0  0  0  0  0  0  0
   56.6520   28.1760   45.4690 C   0  0  0  0  0  0  0  0  0  0  0  0
   58.8888   33.6435   49.4400 H   0  0  0  0  0  0  0  0  0  0  0  0
   57.7050   32.4557   48.7962 H   0  0  0  0  0  0  0  0  0  0  0  0
   59.4586   32.0663   48.7962 H   0  0  0  0  0  0  0  0  0  0  0  0
   59.8266   35.2191   48.1640 H   0  0  0  0  0  0  0  0  0  0  0  0
   60.1142   36.3829   45.9866 H   0  0  0  0  0  0  0  0  0  0  0  0
   59.2966   35.3012   43.8966 H   0  0  0  0  0  0  0  0  0  0  0  0
   58.2530   33.1550   44.0170 H   0  0  0  0  0  0  0  0  0  0  0  0
   59.7945   29.2576   44.6557 H   0  0  0  0  0  0  0  0  0  0  0  0
   60.3222   26.8900   45.2337 H   0  0  0  0  0  0  0  0  0  0  0  0
   58.5109   25.3431   45.9607 H   0  0  0  0  0  0  0  0  0  0  0  0
   53.8630   26.7150   46.3790 H   0  0  0  0  0  0  0  0  0  0  0  0
   55.6160   28.5409   45.5283 H   0  0  0  0  0  0  0  0  0  0  0  0
  1  2  1  0
  2  3  2  0
  3  4  1  0
  4  5  2  0
  5  6  1  0
  6  7  1  0
  7  8  2  3
  8  9  1  0
  9 10  2  0
  9 11  2  0
  9 12  1  0
 12 13  2  0
 13 14  1  0
 14 15  2  0
 15 16  1  0
 16 17  1  0
 17 18  1  0
 17 19  2  0
 16 20  2  0
  7  2  1  0
 20 12  1  0
  1 21  1  0
  1 22  1  0
  1 23  1  0
  3 24  1  0
  4 25  1  0
  5 26  1  0
  6 27  1  0
 13 28  1  0
 14 29  1  0
 15 30  1  0
 18 31  1  0
 20 32  1  0
M  CHG  1  18  -1
M  END
>  <UniqueID>  (62) 
60

>  <SMILES>  (62) 
Cc1ccc[nH]c1=NS(=O)(=O)c1cccc(C([NH-])=O)c1

>  <Energy>  (62) 
52.41077913864685

>  <Genealogy>  (62) 
Cc1ccc[nH]c1=NS(=O)(=O)c1cccc(C([NH-])=O)c1 (protonated)
Cc1ccc[nH]c1=NS(=O)(=O)c1cccc(C([NH-])=O)c1 (3D coordinates assigned)
Cc1ccc[nH]c1=NS(=O)(=O)c1cccc(C([NH-])=O)c1 (optimized conformer: 52.41077913864685 kcal/mol)

>  <smiles>  (62) 
Cc1ccc[nH]c1=NS(=O)(=O)c1cccc(C(N)=O)c1

>  <score_type>  (62) 
oracle

>  <origin>  (62) 
adg

>  <m_score__min__energy>  (62) 
-11.369999999999999

>  <m_primary>  (62) 
energy

$$$$
62:0
     RDKit          3D

 15 15  0  0  0  0  0  0  0  0999 V2000
   50.0030   31.2800   53.5040 C   0  0  0  0  0  0  0  0  0  0  0  0
   51.3860   31.0550   52.9640 C   0  0  0  0  0  0  0  0  0  0  0  0
   52.2430   30.1190   53.5590 C   0  0  0  0  0  0  0  0  0  0  0  0
   53.5260   29.9210   53.0460 C   0  0  0  0  0  0  0  0  0  0  0  0
   53.9430   30.6620   51.9380 C   0  0  0  0  0  0  0  0  0  0  0  0
   55.0990   30.4900   51.4680 O   0  0  0  0  0  0  0  0  0  0  0  0
   53.1030   31.5690   51.3670 N   0  0  0  0  0  0  0  0  0  0  0  0
   51.8460   31.7800   51.8500 C   0  0  0  0  0  0  0  0  0  0  0  0
   51.0230   32.7170   51.2340 O   0  0  0  0  0  0  0  0  0  0  0  0
   50.0334   31.2751   54.6036 H   0  0  0  0  0  0  0  0  0  0  0  0
   49.6255   32.2514   53.1520 H   0  0  0  0  0  0  0  0  0  0  0  0
   49.3370   30.4784   53.1520 H   0  0  0  0  0  0  0  0  0  0  0  0
   51.9043   29.5400   54.4308 H   0  0  0  0  0  0  0  0  0  0  0  0
   54.2024   29.1881   53.5101 H   0  0  0  0  0  0  0  0  0  0  0  0
   53.4260   32.1180   50.5380 H   0  0  0  0  0  0  0  0  0  0  0  0
  1  2  1  0
  2  3  1  0
  3  4  2  0
  4  5  1  0
  5  6  2  0
  5  7  1  0
  7  8  1  0
  8  9  1  0
  8  2  2  0
  1 10  1  0
  1 11  1  0
  1 12  1  0
  3 13  1  0
  4 14  1  0
  7 15  1  0
M  CHG  1   9  -1
M  END
>  <UniqueID>  (63) 
61

>  <SMILES>  (63) 
Cc1ccc(=O)[nH]c1[O-]

>  <Energy>  (63) 
13.822995491400835

>  <Genealogy>  (63) 
Cc1ccc(=O)[nH]c1[O-] (protonated)
Cc1ccc(=O)[nH]c1[O-] (3D coordinates assigned)
Cc1ccc(=O)[nH]c1[O-] (optimized conformer: 13.822995491400835 kcal/mol)

>  <smiles>  (63) 
Cc1ccc(=O)[nH]c1O

>  <score_type>  (63) 
oracle

>  <origin>  (63) 
adg

>  <m_score__min__energy>  (63) 
-8.9199999999999999

>  <m_primary>  (63) 
energy

$$$$
63:0
     RDKit          3D

 36 38  0  0  0  0  0  0  0  0999 V2000
   52.5130   23.7730   46.1720 O   0  0  0  0  0  0  0  0  0  0  0  0
   53.7110   23.4510   45.9580 C   0  0  0  0  0  0  0  0  0  0  0  0
   54.7060   23.5490   47.0820 C   0  0  0  0  0  0  0  0  0  0  0  0
   55.7920   24.4690   46.7380 N   0  0  0  0  0  0  0  0  0  0  0  0
   55.6670   25.7210   46.2430 C   0  0  0  0  0  0  0  0  0  0  0  0
   54.4520   26.3390   45.9710 O   0  0  0  0  0  0  0  0  0  0  0  0
   56.9100   26.2920   46.0600 C   0  0  0  0  0  0  0  0  0  0  0  0
   57.8320   25.3740   46.5080 C   0  0  0  0  0  0  0  0  0  0  0  0
   57.1180   24.2610   46.9010 C   0  0  0  0  0  0  0  0  0  0  0  0
   57.6710   23.0850   47.3970 O   0  0  0  0  0  0  0  0  0  0  0  0
   59.3160   25.5720   46.4400 C   0  0  0  0  0  0  0  0  0  0  0  0
   59.6480   27.0710   46.2910 C   0  0  0  0  0  0  0  0  0  0  0  0
   58.7540   27.7560   45.2330 C   0  0  0  0  0  0  0  0  0  0  0  0
   57.2610   27.6780   45.6090 C   0  0  0  0  0  0  0  0  0  0  0  0
   54.0860   23.0170   44.6460 N   0  0  0  0  0  0  0  0  0  0  0  0
   55.0750   23.6780   43.8070 C   0  0  0  0  0  0  0  0  0  0  0  0
   56.2470   22.7730   43.6190 C   0  0  0  0  0  0  0  0  0  0  0  0
   57.5060   22.9630   44.1510 C   0  0  0  0  0  0  0  0  0  0  0  0
   58.2470   21.8750   43.7440 C   0  0  0  0  0  0  0  0  0  0  0  0
   57.3940   21.0890   42.9950 C   0  0  0  0  0  0  0  0  0  0  0  0
   56.2080   21.6500   42.9410 O   0  0  0  0  0  0  0  0  0  0  0  0
   54.1952   23.9158   47.9845 H   0  0  0  0  0  0  0  0  0  0  0  0
   55.1333   22.5515   47.2618 H   0  0  0  0  0  0  0  0  0  0  0  0
   59.7763   25.1880   47.3623 H   0  0  0  0  0  0  0  0  0  0  0  0
   59.7106   25.0290   45.5686 H   0  0  0  0  0  0  0  0  0  0  0  0
   59.4955   27.5673   47.2608 H   0  0  0  0  0  0  0  0  0  0  0  0
   60.6940   27.1577   45.9617 H   0  0  0  0  0  0  0  0  0  0  0  0
   59.0458   28.8134   45.1508 H   0  0  0  0  0  0  0  0  0  0  0  0
   58.8937   27.2321   44.2759 H   0  0  0  0  0  0  0  0  0  0  0  0
   57.0543   28.3879   46.4234 H   0  0  0  0  0  0  0  0  0  0  0  0
   56.6558   27.9311   44.7260 H   0  0  0  0  0  0  0  0  0  0  0  0
   54.6299   23.9108   42.8284 H   0  0  0  0  0  0  0  0  0  0  0  0
   55.4033   24.6104   44.2895 H   0  0  0  0  0  0  0  0  0  0  0  0
   57.8465   23.8061   44.7701 H   0  0  0  0  0  0  0  0  0  0  0  0
   59.3045   21.6733   43.9701 H   0  0  0  0  0  0  0  0  0  0  0  0
   57.6667   20.1370   42.5161 H   0  0  0  0  0  0  0  0  0  0  0  0
  1  2  2  0
  2  3  1  0
  3  4  1  0
  4  5  1  0
  5  6  1  0
  5  7  2  0
  7  8  1  0
  8  9  2  0
  9 10  1  0
  8 11  1  0
 11 12  1  0
 12 13  1  0
 13 14  1  0
  2 15  1  0
 15 16  1  0
 16 17  1  0
 17 18  2  0
 18 19  1  0
 19 20  2  0
 20 21  1  0
  9  4  1  0
 21 17  1  0
 14  7  1  0
  3 22  1  0
  3 23  1  0
 11 24  1  0
 11 25  1  0
 12 26  1  0
 12 27  1  0
 13 28  1  0
 13 29  1  0
 14 30  1  0
 14 31  1  0
 16 32  1  0
 16 33  1  0
 18 34  1  0
 19 35  1  0
 20 36  1  0
M  CHG  3   6  -1  10  -1  15  -1
M  END
>  <UniqueID>  (64) 
62

>  <SMILES>  (64) 
O=C(Cn1c([O-])c2c(c1[O-])CCCC2)[N-]Cc1ccco1

>  <Energy>  (64) 
87.02441085504672

>  <Genealogy>  (64) 
O=C(Cn1c([O-])c2c(c1[O-])CCCC2)[N-]Cc1ccco1 (protonated)
O=C(Cn1c([O-])c2c(c1[O-])CCCC2)[N-]Cc1ccco1 (3D coordinates assigned)
O=C(Cn1c([O-])c2c(c1[O-])CCCC2)[N-]Cc1ccco1 (nonaromatic ring conformer: 87.02441085504672 kcal/mol)

>  <smiles>  (64) 
O=C(Cn1c(O)c2c(c1O)CCCC2)NCc1ccco1

>  <score_type>  (64) 
oracle

>  <origin>  (64) 
adg

>  <m_score__min__energy>  (64) 
-13.720000000000001

>  <m_primary>  (64) 
energy

$$$$
64:0
     RDKit          3D

 42 45  0  0  0  0  0  0  0  0999 V2000
   60.5196   26.4563   45.6465 H   0  0  0  0  0  0  0  0  0  0  0  0
   60.3180   27.3940   46.1850 C   0  0  0  0  0  0  0  0  0  0  0  0
   60.6520   28.6200   45.6020 C   0  0  0  0  0  0  0  0  0  0  0  0
   61.1085   28.6468   44.6016 H   0  0  0  0  0  0  0  0  0  0  0  0
   60.4060   29.8120   46.2900 C   0  0  0  0  0  0  0  0  0  0  0  0
   60.6602   30.7753   45.8237 H   0  0  0  0  0  0  0  0  0  0  0  0
   59.8370   29.7860   47.5710 C   0  0  0  0  0  0  0  0  0  0  0  0
   59.6050   31.0010   48.2330 O   0  0  0  0  0  0  0  0  0  0  0  0
   59.4440   32.2420   47.5980 C   0  0  0  0  0  0  0  0  0  0  0  0
   60.1510   33.3500   48.0830 C   0  0  0  0  0  0  0  0  0  0  0  0
   60.8003   33.2413   48.9642 H   0  0  0  0  0  0  0  0  0  0  0  0
   60.0360   34.5940   47.4530 C   0  0  0  0  0  0  0  0  0  0  0  0
   60.5959   35.4589   47.8383 H   0  0  0  0  0  0  0  0  0  0  0  0
   59.2100   34.7390   46.3340 C   0  0  0  0  0  0  0  0  0  0  0  0
   59.1388   35.7128   45.8274 H   0  0  0  0  0  0  0  0  0  0  0  0
   58.4710   33.6450   45.8550 C   0  0  0  0  0  0  0  0  0  0  0  0
   57.6190   33.7720   44.6200 C   0  0  0  0  0  0  0  0  0  0  0  0
   58.0964   34.4698   43.9164 H   0  0  0  0  0  0  0  0  0  0  0  0
   56.6255   34.1523   44.8999 H   0  0  0  0  0  0  0  0  0  0  0  0
   57.4720   32.4310   43.9690 C   0  0  0  0  0  0  0  0  0  0  0  0
   58.0510   32.2020   42.8730 O   0  0  0  0  0  0  0  0  0  0  0  0
   56.6780   31.4230   44.6080 N   0  0  0  0  0  0  0  0  0  0  0  0
   56.9340   30.1490   44.6410 C   0  0  0  0  0  0  0  0  0  0  0  0
   56.4150   29.3440   45.6040 N   0  0  0  0  0  0  0  0  0  0  0  0
   56.8620   28.1290   45.2410 C   0  0  0  0  0  0  0  0  0  0  0  0
   56.6160   26.9110   45.8700 C   0  0  0  0  0  0  0  0  0  0  0  0
   56.0098   26.8546   46.7861 H   0  0  0  0  0  0  0  0  0  0  0  0
   57.1720   25.7540   45.2900 C   0  0  0  0  0  0  0  0  0  0  0  0
   57.0045   24.7734   45.7594 H   0  0  0  0  0  0  0  0  0  0  0  0
   57.9430   25.8440   44.1100 C   0  0  0  0  0  0  0  0  0  0  0  0
   58.3715   24.9329   43.6669 H   0  0  0  0  0  0  0  0  0  0  0  0
   58.1670   27.0910   43.4970 C   0  0  0  0  0  0  0  0  0  0  0  0
   58.7612   27.1759   42.5752 H   0  0  0  0  0  0  0  0  0  0  0  0
   57.6070   28.2140   44.1030 C   0  0  0  0  0  0  0  0  0  0  0  0
   57.6650   29.4890   43.7030 N   0  0  0  0  0  0  0  0  0  0  0  0
   58.1230   29.8490   42.8370 H   0  0  0  0  0  0  0  0  0  0  0  0
   58.5760   32.4030   46.5060 C   0  0  0  0  0  0  0  0  0  0  0  0
   57.9737   31.5512   46.1572 H   0  0  0  0  0  0  0  0  0  0  0  0
   59.4810   28.5490   48.1420 C   0  0  0  0  0  0  0  0  0  0  0  0
   59.0070   28.5192   49.1342 H   0  0  0  0  0  0  0  0  0  0  0  0
   59.7280   27.3590   47.4520 C   0  0  0  0  0  0  0  0  0  0  0  0
   59.4580   26.3942   47.9061 H   0  0  0  0  0  0  0  0  0  0  0  0
  1  2  1  0
  2  3  2  0
  3  4  1  0
  3  5  1  0
  5  6  1  0
  5  7  2  0
  7  8  1  0
  8  9  1  0
  9 10  2  0
 10 11  1  0
 10 12  1  0
 12 13  1  0
 12 14  2  0
 14 15  1  0
 14 16  1  0
 16 17  1  0
 17 18  1  0
 17 19  1  0
 17 20  1  0
 20 21  2  0
 20 22  1  0
 22 23  2  0
 23 24  1  0
 24 25  1  0
 25 26  2  0
 26 27  1  0
 26 28  1  0
 28 29  1  0
 28 30  2  0
 30 31  1  0
 30 32  1  0
 32 33  1  0
 32 34  2  0
 34 35  1  0
 35 36  1  0
 16 37  2  0
 37 38  1  0
  7 39  1  0
 39 40  1  0
 39 41  2  0
 41 42  1  0
 41  2  1  0
 37  9  1  0
 35 23  1  0
 34 25  1  0
M  CHG  1  24  -1
M  END
>  <UniqueID>  (65) 
63

>  <SMILES>  (65) 
O=C(Cc1cccc(Oc2ccccc2)c1)/N=c1/[n-]c2ccccc2[nH]1

>  <Energy>  (65) 
91.40412098708215

>  <Genealogy>  (65) 
O=C(Cc1cccc(Oc2ccccc2)c1)N=c1[n-]c2ccccc2[nH]1 (protonated)
O=C(Cc1cccc(Oc2ccccc2)c1)/N=c1/[n-]c2ccccc2[nH]1 (cis-trans isomerization)
O=C(Cc1cccc(Oc2ccccc2)c1)/N=c1/[n-]c2ccccc2[nH]1 (3D coordinates assigned)
O=C(Cc1cccc(Oc2ccccc2)c1)/N=c1/[n-]c2ccccc2[nH]1 (optimized conformer: 91.40412098708215 kcal/mol)

>  <smiles>  (65) 
O=C(Cc1cccc(Oc2ccccc2)c1)N=c1[nH]c2ccccc2[nH]1

>  <score_type>  (65) 
oracle

>  <origin>  (65) 
adg

>  <m_score__min__energy>  (65) 
-10.1

>  <m_primary>  (65) 
energy

$$$$
65:0
     RDKit          3D

 44 46  0  0  0  0  0  0  0  0999 V2000
   56.2720   24.5620   44.9880 C   0  0  0  0  0  0  0  0  0  0  0  0
   56.1390   25.6600   45.9990 C   0  0  0  0  0  0  0  0  0  0  0  0
   55.0830   26.3450   46.0190 O   0  0  0  0  0  0  0  0  0  0  0  0
   57.1920   25.9820   46.9180 N   0  0  0  0  0  0  0  0  0  0  0  0
   58.2120   26.9750   46.7390 C   0  0  0  0  0  0  0  0  0  0  0  0
   59.2460   26.7240   45.8300 C   0  0  0  0  0  0  0  0  0  0  0  0
   60.2400   27.6800   45.6110 C   0  0  0  0  0  0  0  0  0  0  0  0
   60.2000   28.9020   46.2850 C   0  0  0  0  0  0  0  0  0  0  0  0
   59.1550   29.1850   47.1820 C   0  0  0  0  0  0  0  0  0  0  0  0
   59.1010   30.4910   47.8740 C   0  0  0  0  0  0  0  0  0  0  0  0
   59.8750   30.7260   48.8430 O   0  0  0  0  0  0  0  0  0  0  0  0
   58.2140   31.4810   47.4280 O   0  0  0  0  0  0  0  0  0  0  0  0
   58.6120   32.7090   46.8830 C   0  0  0  0  0  0  0  0  0  0  0  0
   59.5880   33.4500   47.5590 C   0  0  0  0  0  0  0  0  0  0  0  0
   60.0200   34.6790   47.0570 C   0  0  0  0  0  0  0  0  0  0  0  0
   59.4970   35.1650   45.8580 C   0  0  0  0  0  0  0  0  0  0  0  0
   58.5420   34.4240   45.1570 C   0  0  0  0  0  0  0  0  0  0  0  0
   58.0830   33.1930   45.6660 C   0  0  0  0  0  0  0  0  0  0  0  0
   57.1770   32.3720   44.9130 N   0  0  0  0  0  0  0  0  0  0  0  0
   57.4280   31.7640   43.6410 C   0  0  0  0  0  0  0  0  0  0  0  0
   57.9920   32.4170   42.7220 O   0  0  0  0  0  0  0  0  0  0  0  0
   56.8670   30.3980   43.3480 C   0  0  0  0  0  0  0  0  0  0  0  0
   55.5750   30.0760   44.1010 C   0  0  0  0  0  0  0  0  0  0  0  0
   56.2770   28.9320   44.8190 C   0  0  0  0  0  0  0  0  0  0  0  0
   57.5710   29.2600   44.0880 C   0  0  0  0  0  0  0  0  0  0  0  0
   58.1560   28.2170   47.3940 C   0  0  0  0  0  0  0  0  0  0  0  0
   56.3887   23.5987   45.5061 H   0  0  0  0  0  0  0  0  0  0  0  0
   55.3708   24.5326   44.3579 H   0  0  0  0  0  0  0  0  0  0  0  0
   57.1541   24.7486   44.3579 H   0  0  0  0  0  0  0  0  0  0  0  0
   59.2759   25.7688   45.2853 H   0  0  0  0  0  0  0  0  0  0  0  0
   61.0571   27.4696   44.9052 H   0  0  0  0  0  0  0  0  0  0  0  0
   60.9904   29.6475   46.1133 H   0  0  0  0  0  0  0  0  0  0  0  0
   60.0183   33.0609   48.4936 H   0  0  0  0  0  0  0  0  0  0  0  0
   60.7723   35.2640   47.6064 H   0  0  0  0  0  0  0  0  0  0  0  0
   59.8374   36.1339   45.4637 H   0  0  0  0  0  0  0  0  0  0  0  0
   58.1467   34.8035   44.2032 H   0  0  0  0  0  0  0  0  0  0  0  0
   56.8779   30.4425   42.2490 H   0  0  0  0  0  0  0  0  0  0  0  0
   55.2314   30.8808   44.7675 H   0  0  0  0  0  0  0  0  0  0  0  0
   54.6400   29.8966   43.5501 H   0  0  0  0  0  0  0  0  0  0  0  0
   56.3349   29.0561   45.9104 H   0  0  0  0  0  0  0  0  0  0  0  0
   55.8608   27.9145   44.7811 H   0  0  0  0  0  0  0  0  0  0  0  0
   58.3873   29.5906   44.7470 H   0  0  0  0  0  0  0  0  0  0  0  0
   58.1062   28.4794   43.5274 H   0  0  0  0  0  0  0  0  0  0  0  0
   57.3233   28.4346   48.0790 H   0  0  0  0  0  0  0  0  0  0  0  0
  1  2  1  0
  2  3  2  0
  2  4  1  0
  4  5  1  0
  5  6  2  0
  6  7  1  0
  7  8  2  0
  8  9  1  0
  9 10  1  0
 10 11  2  0
 10 12  1  0
 12 13  1  0
 13 14  2  0
 14 15  1  0
 15 16  2  0
 16 17  1  0
 17 18  2  0
 18 19  1  0
 19 20  1  0
 20 21  2  0
 20 22  1  0
 22 23  1  0
 23 24  1  0
 24 25  1  0
  9 26  2  0
 26  5  1  0
 18 13  1  0
 25 22  1  0
  1 27  1  0
  1 28  1  0
  1 29  1  0
  6 30  1  0
  7 31  1  0
  8 32  1  0
 14 33  1  0
 15 34  1  0
 16 35  1  0
 17 36  1  0
 22 37  1  0
 23 38  1  0
 23 39  1  0
 24 40  1  0
 24 41  1  0
 25 42  1  0
 25 43  1  0
 26 44  1  0
M  CHG  2   4  -1  19  -1
M  END
>  <UniqueID>  (66) 
64

>  <SMILES>  (66) 
CC(=O)[N-]c1cccc(C(=O)Oc2ccccc2[N-]C(=O)C2CCC2)c1

>  <Energy>  (66) 
118.13449940352055

>  <Genealogy>  (66) 
CC(=O)[N-]c1cccc(C(=O)Oc2ccccc2[N-]C(=O)C2CCC2)c1 (protonated)
CC(=O)[N-]c1cccc(C(=O)Oc2ccccc2[N-]C(=O)C2CCC2)c1 (3D coordinates assigned)
CC(=O)[N-]c1cccc(C(=O)Oc2ccccc2[N-]C(=O)C2CCC2)c1 (nonaromatic ring conformer: 118.13449940352055 kcal/mol)

>  <smiles>  (66) 
CC(=O)Nc1cccc(C(=O)Oc2ccccc2NC(=O)C2CCC2)c1

>  <score_type>  (66) 
oracle

>  <origin>  (66) 
adg

>  <m_score__min__energy>  (66) 
-11.69

>  <m_primary>  (66) 
energy

$$$$
66:0
     RDKit          3D

 48 50  0  0  1  0  0  0  0  0999 V2000
   59.6660   35.2560   46.7230 C   0  0  0  0  0  0  0  0  0  0  0  0
   59.0040   34.1150   46.0070 C   0  0  0  0  0  0  0  0  0  0  0  0
   58.5190   33.0360   46.7190 C   0  0  0  0  0  0  0  0  0  0  0  0
   57.9040   31.9750   46.0680 C   0  0  0  0  0  0  0  0  0  0  0  0
   57.7940   32.0330   44.6980 C   0  0  0  0  0  0  0  0  0  0  0  0
   57.0220   30.7000   43.8750 S   0  0  0  0  0  0  0  0  0  0  0  0
   56.6330   31.2060   42.4950 O   0  0  0  0  0  0  0  0  0  0  0  0
   55.7450   30.2960   44.5590 O   0  0  0  0  0  0  0  0  0  0  0  0
   58.0690   29.3580   43.7860 N   0  0  0  0  0  0  0  0  0  0  0  0
   58.6510   28.7440   44.9170 C   0  0  0  0  0  0  0  0  0  0  0  0
   59.8340   29.1670   45.4780 C   0  0  0  0  0  0  0  0  0  0  0  0
   60.3270   28.4950   46.5920 C   0  0  0  0  0  0  0  0  0  0  0  0
   59.6530   27.4130   47.1460 C   0  0  0  0  0  0  0  0  0  0  0  0
   58.4610   26.9860   46.5820 C   0  0  0  0  0  0  0  0  0  0  0  0
   57.6960   25.8350   47.1300 C   0  0  0  0  0  0  0  0  0  0  0  0
   56.2720   25.9160   46.6230 C   0  0  0  0  0  0  0  0  0  0  0  0
   55.7170   24.6390   46.2710 N   0  0  0  0  0  0  0  0  0  0  0  0
   56.0320   23.9490   45.2270 C   0  0  0  0  0  0  0  0  0  0  0  0
   56.4660   24.6010   44.1240 N   0  0  0  0  0  0  0  0  0  0  0  0
   56.8070   23.9130   43.0070 C   0  0  0  0  0  0  0  0  0  0  0  0
   56.6900   22.5210   43.0490 C   0  0  0  0  0  0  0  0  0  0  0  0
   56.2440   21.9060   44.1930 C   0  0  0  0  0  0  0  0  0  0  0  0
   56.1540   20.6080   44.1750 N   0  0  0  0  0  0  0  0  0  0  0  0
   55.9100   22.6190   45.2950 N   0  0  0  0  0  0  0  0  0  0  0  0
   57.9840   27.6690   45.4690 C   0  0  0  0  0  0  0  0  0  0  0  0
   58.2660   33.0930   43.9480 C   0  0  0  0  0  0  0  0  0  0  0  0
   58.8770   34.1380   44.6450 C   0  0  0  0  0  0  0  0  0  0  0  0
   59.5794   35.1068   47.8094 H   0  0  0  0  0  0  0  0  0  0  0  0
   60.7287   35.2980   46.4422 H   0  0  0  0  0  0  0  0  0  0  0  0
   59.1750   36.1994   46.4422 H   0  0  0  0  0  0  0  0  0  0  0  0
   58.6210   33.0168   47.8141 H   0  0  0  0  0  0  0  0  0  0  0  0
   57.5161   31.1134   46.6312 H   0  0  0  0  0  0  0  0  0  0  0  0
   58.3220   28.9300   42.8470 H   0  0  0  0  0  0  0  0  0  0  0  0
   60.3806   30.0218   45.0530 H   0  0  0  0  0  0  0  0  0  0  0  0
   61.2725   28.8278   47.0450 H   0  0  0  0  0  0  0  0  0  0  0  0
   60.0634   26.8983   48.0273 H   0  0  0  0  0  0  0  0  0  0  0  0
   58.1550   24.8926   46.7966 H   0  0  0  0  0  0  0  0  0  0  0  0
   57.7057   25.8667   48.2295 H   0  0  0  0  0  0  0  0  0  0  0  0
   55.6468   26.3626   47.4102 H   0  0  0  0  0  0  0  0  0  0  0  0
   56.2880   26.5259   45.7077 H   0  0  0  0  0  0  0  0  0  0  0  0
   56.5340   25.6560   44.1550 H   0  0  0  0  0  0  0  0  0  0  0  0
   57.1618   24.4299   42.1032 H   0  0  0  0  0  0  0  0  0  0  0  0
   56.9547   21.9190   42.1672 H   0  0  0  0  0  0  0  0  0  0  0  0
   57.0120   20.0670   44.0370 H   0  0  0  0  0  0  0  0  0  0  0  0
   55.5730   22.1530   46.1600 H   0  0  0  0  0  0  0  0  0  0  0  0
   57.0394   27.3403   45.0110 H   0  0  0  0  0  0  0  0  0  0  0  0
   58.1653   33.1131   42.8528 H   0  0  0  0  0  0  0  0  0  0  0  0
   59.2658   35.0011   44.0847 H   0  0  0  0  0  0  0  0  0  0  0  0
  1  2  1  0
  2  3  2  0
  3  4  1  0
  4  5  2  0
  5  6  1  0
  6  7  2  0
  6  8  2  0
  6  9  1  0
  9 10  1  0
 10 11  2  0
 11 12  1  0
 12 13  2  0
 13 14  1  0
 14 15  1  0
 15 16  1  0
 16 17  1  0
 17 18  2  0
 18 19  1  0
 19 20  1  0
 20 21  2  0
 21 22  1  0
 22 23  2  3
 22 24  1  0
 14 25  2  0
  5 26  1  0
 26 27  2  0
 27  2  1  0
 25 10  1  0
 24 18  1  0
  1 28  1  0
  1 29  1  0
  1 30  1  0
  3 31  1  0
  4 32  1  0
  9 33  1  0
 11 34  1  0
 12 35  1  0
 13 36  1  0
 15 37  1  0
 15 38  1  0
 16 39  1  0
 16 40  1  0
 19 41  1  0
 20 42  1  0
 21 43  1  0
 23 44  1  0
 24 45  1  0
 25 46  1  0
 26 47  1  0
 27 48  1  0
M  END
>  <smiles>  (67) 
Cc1ccc(S(=O)(=O)Nc2cccc(CCN=c3[nH]ccc(=N)[nH]3)c2)cc1

>  <score_type>  (67) 
oracle

>  <origin>  (67) 
adg

>  <m_score__min__energy>  (67) 
-9.4000000000000004

>  <m_primary>  (67) 
energy

$$$$
67:0
     RDKit          3D

 40 42  0  0  0  0  0  0  0  0999 V2000
   60.8110   28.3710   47.2690 H   0  0  0  0  0  0  0  0  0  0  0  0
   60.3670   27.8500   46.5210 O   0  0  0  0  0  0  0  0  0  0  0  0
   59.0750   28.1500   46.0940 C   0  0  0  0  0  0  0  0  0  0  0  0
   58.0340   27.2620   46.3740 C   0  0  0  0  0  0  0  0  0  0  0  0
   58.2373   26.3351   46.9304 H   0  0  0  0  0  0  0  0  0  0  0  0
   56.7370   27.5490   45.9490 C   0  0  0  0  0  0  0  0  0  0  0  0
   55.9210   26.8463   46.1732 H   0  0  0  0  0  0  0  0  0  0  0  0
   56.4660   28.7250   45.2390 C   0  0  0  0  0  0  0  0  0  0  0  0
   55.1600   28.9670   44.8270 O   0  0  0  0  0  0  0  0  0  0  0  0
   57.5080   29.6360   44.9470 C   0  0  0  0  0  0  0  0  0  0  0  0
   57.2580   30.9050   44.2160 C   0  0  0  0  0  0  0  0  0  0  0  0
   56.5840   30.9080   43.1480 O   0  0  0  0  0  0  0  0  0  0  0  0
   57.8300   32.1330   44.6950 N   0  0  0  0  0  0  0  0  0  0  0  0
   57.5130   32.7260   45.7830 N   0  0  0  0  0  0  0  0  0  0  0  0
   58.3150   32.7840   46.9720 C   0  0  0  0  0  0  0  0  0  0  0  0
   57.7390   32.7700   48.0900 O   0  0  0  0  0  0  0  0  0  0  0  0
   59.7870   32.9470   46.9120 C   0  0  0  0  0  0  0  0  0  0  0  0
   60.7070   31.9270   47.1800 C   0  0  0  0  0  0  0  0  0  0  0  0
   60.4240   30.5410   47.3840 N   0  0  0  0  0  0  0  0  0  0  0  0
   59.8300   29.9030   48.8830 S   0  0  0  0  0  0  0  0  0  0  0  0
   60.7960   28.8850   49.4140 O   0  0  0  0  0  0  0  0  0  0  0  0
   58.4990   29.2460   48.6500 O   0  0  0  0  0  0  0  0  0  0  0  0
   59.6170   31.1860   50.0610 C   0  0  0  0  0  0  0  0  0  0  0  0
   58.2140   31.4770   50.9370 S   0  0  0  0  0  0  0  0  0  0  0  0
   58.8260   32.7700   51.8230 C   0  0  0  0  0  0  0  0  0  0  0  0
   58.2779   33.3458   52.5833 H   0  0  0  0  0  0  0  0  0  0  0  0
   60.1420   32.9870   51.4310 C   0  0  0  0  0  0  0  0  0  0  0  0
   60.7734   33.7810   51.8563 H   0  0  0  0  0  0  0  0  0  0  0  0
   60.5880   32.1000   50.4440 C   0  0  0  0  0  0  0  0  0  0  0  0
   61.6015   32.1251   50.0171 H   0  0  0  0  0  0  0  0  0  0  0  0
   62.2640   32.5460   47.1240 S   0  0  0  0  0  0  0  0  0  0  0  0
   61.8180   34.1180   46.7400 C   0  0  0  0  0  0  0  0  0  0  0  0
   62.5089   34.9585   46.5781 H   0  0  0  0  0  0  0  0  0  0  0  0
   60.4270   34.1830   46.6600 C   0  0  0  0  0  0  0  0  0  0  0  0
   59.7060   35.4640   46.3560 C   0  0  0  0  0  0  0  0  0  0  0  0
   59.4269   35.9599   47.2973 H   0  0  0  0  0  0  0  0  0  0  0  0
   60.3641   36.1259   45.7739 H   0  0  0  0  0  0  0  0  0  0  0  0
   58.7987   35.2449   45.7739 H   0  0  0  0  0  0  0  0  0  0  0  0
   58.8120   29.3320   45.3850 C   0  0  0  0  0  0  0  0  0  0  0  0
   59.6342   30.0299   45.1685 H   0  0  0  0  0  0  0  0  0  0  0  0
  1  2  1  0
  2  3  1  0
  3  4  2  0
  4  5  1  0
  4  6  1  0
  6  7  1  0
  6  8  2  0
  8  9  1  0
  8 10  1  0
 10 11  1  0
 11 12  2  0
 11 13  1  0
 13 14  2  0
 14 15  1  0
 15 16  2  0
 15 17  1  0
 17 18  2  0
 18 19  1  0
 19 20  1  0
 20 21  2  0
 20 22  2  0
 20 23  1  0
 23 24  1  0
 24 25  1  0
 25 26  1  0
 25 27  2  0
 27 28  1  0
 27 29  1  0
 29 30  1  0
 18 31  1  0
 31 32  1  0
 32 33  1  0
 32 34  2  0
 34 35  1  0
 35 36  1  0
 35 37  1  0
 35 38  1  0
 10 39  2  0
 39 40  1  0
 39  3  1  0
 34 17  1  0
 29 23  2  0
M  CHG  2   9  -1  19  -1
M  END
>  <UniqueID>  (68) 
65

>  <SMILES>  (68) 
Cc1csc([N-]S(=O)(=O)c2cccs2)c1C(=O)/N=N\C(=O)c1cc(O)ccc1[O-]

>  <Energy>  (68) 
116.27586879916367

>  <Genealogy>  (68) 
Cc1csc([N-]S(=O)(=O)c2cccs2)c1C(=O)N=NC(=O)c1cc(O)ccc1[O-] (protonated)
Cc1csc([N-]S(=O)(=O)c2cccs2)c1C(=O)/N=N\C(=O)c1cc(O)ccc1[O-] (cis-trans isomerization)
Cc1csc([N-]S(=O)(=O)c2cccs2)c1C(=O)/N=N\C(=O)c1cc(O)ccc1[O-] (3D coordinates assigned)
Cc1csc([N-]S(=O)(=O)c2cccs2)c1C(=O)/N=N\C(=O)c1cc(O)ccc1[O-] (optimized conformer: 116.27586879916367 kcal/mol)

>  <smiles>  (68) 
Cc1csc(NS(=O)(=O)c2cccs2)c1C(=O)N=NC(=O)c1cc(O)ccc1O

>  <score_type>  (68) 
oracle

>  <origin>  (68) 
adg

>  <m_score__min__energy>  (68) 
-13.710000000000001

>  <m_primary>  (68) 
energy

$$$$
68:0
     RDKit          3D

 43 45  0  0  0  0  0  0  0  0999 V2000
   55.8920   29.6070   43.3580 O   0  0  0  0  0  0  0  0  0  0  0  0
   56.4960   29.2690   44.4110 C   0  0  0  0  0  0  0  0  0  0  0  0
   57.8230   29.8740   44.7390 C   0  0  0  0  0  0  0  0  0  0  0  0
   57.6690   30.8990   45.7230 O   0  0  0  0  0  0  0  0  0  0  0  0
   58.1430   32.2190   45.6050 C   0  0  0  0  0  0  0  0  0  0  0  0
   57.3500   33.2600   45.0770 C   0  0  0  0  0  0  0  0  0  0  0  0
   57.8710   34.5470   44.9390 C   0  0  0  0  0  0  0  0  0  0  0  0
   59.1800   34.8200   45.3440 C   0  0  0  0  0  0  0  0  0  0  0  0
   59.9660   33.8060   45.8930 C   0  0  0  0  0  0  0  0  0  0  0  0
   59.4550   32.5060   46.0220 C   0  0  0  0  0  0  0  0  0  0  0  0
   60.4890   31.2290   46.7450 S   0  0  0  0  0  0  0  0  0  0  0  0
   61.4880   32.4050   47.6560 C   0  0  0  0  0  0  0  0  0  0  0  0
   60.9730   33.0220   48.8020 C   0  0  0  0  0  0  0  0  0  0  0  0
   61.7600   33.9300   49.5200 C   0  0  0  0  0  0  0  0  0  0  0  0
   63.0670   34.2080   49.1030 C   0  0  0  0  0  0  0  0  0  0  0  0
   63.5880   33.5800   47.9690 C   0  0  0  0  0  0  0  0  0  0  0  0
   62.7990   32.6840   47.2410 C   0  0  0  0  0  0  0  0  0  0  0  0
   55.9460   28.2730   45.2670 N   0  0  0  0  0  0  0  0  0  0  0  0
   56.8010   26.8120   45.6270 S   0  0  0  0  0  0  0  0  0  0  0  0
   55.9110   25.8810   46.3960 O   0  0  0  0  0  0  0  0  0  0  0  0
   57.2130   26.1430   44.3460 O   0  0  0  0  0  0  0  0  0  0  0  0
   58.2030   27.2120   46.6140 C   0  0  0  0  0  0  0  0  0  0  0  0
   58.1430   28.3080   47.4890 C   0  0  0  0  0  0  0  0  0  0  0  0
   59.2590   28.6600   48.2510 C   0  0  0  0  0  0  0  0  0  0  0  0
   60.4420   27.9210   48.1430 C   0  0  0  0  0  0  0  0  0  0  0  0
   60.5110   26.8350   47.2650 C   0  0  0  0  0  0  0  0  0  0  0  0
   59.3950   26.4820   46.5000 C   0  0  0  0  0  0  0  0  0  0  0  0
   58.4917   29.0929   45.1297 H   0  0  0  0  0  0  0  0  0  0  0  0
   58.2519   30.3141   43.8267 H   0  0  0  0  0  0  0  0  0  0  0  0
   56.3132   33.0553   44.7719 H   0  0  0  0  0  0  0  0  0  0  0  0
   57.2503   35.3478   44.5107 H   0  0  0  0  0  0  0  0  0  0  0  0
   59.5909   35.8340   45.2301 H   0  0  0  0  0  0  0  0  0  0  0  0
   60.9908   34.0271   46.2261 H   0  0  0  0  0  0  0  0  0  0  0  0
   59.9508   32.7936   49.1380 H   0  0  0  0  0  0  0  0  0  0  0  0
   61.3510   34.4256   50.4128 H   0  0  0  0  0  0  0  0  0  0  0  0
   63.6843   34.9215   49.6686 H   0  0  0  0  0  0  0  0  0  0  0  0
   64.6191   33.7904   47.6487 H   0  0  0  0  0  0  0  0  0  0  0  0
   63.2064   32.1976   46.3424 H   0  0  0  0  0  0  0  0  0  0  0  0
   57.2143   28.8912   47.5747 H   0  0  0  0  0  0  0  0  0  0  0  0
   59.2079   29.5188   48.9365 H   0  0  0  0  0  0  0  0  0  0  0  0
   61.3183   28.1944   48.7491 H   0  0  0  0  0  0  0  0  0  0  0  0
   61.4434   26.2582   47.1760 H   0  0  0  0  0  0  0  0  0  0  0  0
   59.4522   25.6296   45.8071 H   0  0  0  0  0  0  0  0  0  0  0  0
  1  2  2  0
  2  3  1  0
  3  4  1  0
  4  5  1  0
  5  6  2  0
  6  7  1  0
  7  8  2  0
  8  9  1  0
  9 10  2  0
 10 11  1  0
 11 12  1  0
 12 13  2  0
 13 14  1  0
 14 15  2  0
 15 16  1  0
 16 17  2  0
  2 18  1  0
 18 19  1  0
 19 20  2  0
 19 21  2  0
 19 22  1  0
 22 23  2  0
 23 24  1  0
 24 25  2  0
 25 26  1  0
 26 27  2  0
 10  5  1  0
 17 12  1  0
 27 22  1  0
  3 28  1  0
  3 29  1  0
  6 30  1  0
  7 31  1  0
  8 32  1  0
  9 33  1  0
 13 34  1  0
 14 35  1  0
 15 36  1  0
 16 37  1  0
 17 38  1  0
 23 39  1  0
 24 40  1  0
 25 41  1  0
 26 42  1  0
 27 43  1  0
M  CHG  1  18  -1
M  END
>  <UniqueID>  (69) 
66

>  <SMILES>  (69) 
O=C(COc1ccccc1Sc1ccccc1)[N-]S(=O)(=O)c1ccccc1

>  <Energy>  (69) 
36.23760606030892

>  <Genealogy>  (69) 
O=C(COc1ccccc1Sc1ccccc1)[N-]S(=O)(=O)c1ccccc1 (protonated)
O=C(COc1ccccc1Sc1ccccc1)[N-]S(=O)(=O)c1ccccc1 (3D coordinates assigned)
O=C(COc1ccccc1Sc1ccccc1)[N-]S(=O)(=O)c1ccccc1 (optimized conformer: 36.23760606030892 kcal/mol)

>  <smiles>  (69) 
O=C(COc1ccccc1Sc1ccccc1)NS(=O)(=O)c1ccccc1

>  <score_type>  (69) 
oracle

>  <origin>  (69) 
adg

>  <m_score__min__energy>  (69) 
-11.41

>  <m_primary>  (69) 
energy

$$$$
69:0
     RDKit          3D

 43 46  0  0  0  0  0  0  0  0999 V2000
   55.1420   28.9680   44.8240 O   0  0  0  0  0  0  0  0  0  0  0  0
   56.4790   29.2010   45.1230 C   0  0  0  0  0  0  0  0  0  0  0  0
   57.1340   30.3100   44.5780 C   0  0  0  0  0  0  0  0  0  0  0  0
   58.4800   30.5450   44.8760 C   0  0  0  0  0  0  0  0  0  0  0  0
   59.1810   29.6740   45.7250 C   0  0  0  0  0  0  0  0  0  0  0  0
   60.6410   29.8970   46.0100 C   0  0  0  0  0  0  0  0  0  0  0  0
   60.8100   30.9870   46.9840 N   0  0  0  0  0  0  0  0  0  0  0  0
   61.9070   30.9380   47.9620 C   0  0  0  0  0  0  0  0  0  0  0  0
   62.6670   32.2350   47.9890 C   0  0  0  0  0  0  0  0  0  0  0  0
   63.7720   32.4920   47.2710 N   0  0  0  0  0  0  0  0  0  0  0  0
   64.0980   33.7510   47.5220 N   0  0  0  0  0  0  0  0  0  0  0  0
   63.2220   34.2670   48.3730 N   0  0  0  0  0  0  0  0  0  0  0  0
   62.3320   33.3380   48.6870 N   0  0  0  0  0  0  0  0  0  0  0  0
   61.1600   33.5580   49.5330 C   0  0  0  0  0  0  0  0  0  0  0  0
   60.9030   32.4340   50.5230 C   0  0  0  0  0  0  0  0  0  0  0  0
   61.4900   33.7510   51.0050 C   0  0  0  0  0  0  0  0  0  0  0  0
   60.0110   32.1820   46.8760 C   0  0  0  0  0  0  0  0  0  0  0  0
   60.4430   33.2500   46.0740 C   0  0  0  0  0  0  0  0  0  0  0  0
   59.6770   34.4170   45.9770 C   0  0  0  0  0  0  0  0  0  0  0  0
   58.4730   34.5220   46.6760 C   0  0  0  0  0  0  0  0  0  0  0  0
   58.0300   33.4610   47.4700 C   0  0  0  0  0  0  0  0  0  0  0  0
   58.7930   32.2940   47.5690 C   0  0  0  0  0  0  0  0  0  0  0  0
   58.5150   28.5610   46.2700 C   0  0  0  0  0  0  0  0  0  0  0  0
   57.1700   28.3290   45.9690 C   0  0  0  0  0  0  0  0  0  0  0  0
   56.5899   30.9981   43.9143 H   0  0  0  0  0  0  0  0  0  0  0  0
   58.9921   31.4169   44.4429 H   0  0  0  0  0  0  0  0  0  0  0  0
   61.0760   28.9735   46.4197 H   0  0  0  0  0  0  0  0  0  0  0  0
   61.1507   30.1706   45.0744 H   0  0  0  0  0  0  0  0  0  0  0  0
   61.4891   30.7457   48.9612 H   0  0  0  0  0  0  0  0  0  0  0  0
   62.5988   30.1339   47.6708 H   0  0  0  0  0  0  0  0  0  0  0  0
   64.2840   31.8570   46.6210 H   0  0  0  0  0  0  0  0  0  0  0  0
   60.5552   34.1014   48.7921 H   0  0  0  0  0  0  0  0  0  0  0  0
   59.8713   32.1614   50.7898 H   0  0  0  0  0  0  0  0  0  0  0  0
   61.2008   31.3775   50.5944 H   0  0  0  0  0  0  0  0  0  0  0  0
   60.8830   34.4314   51.6202 H   0  0  0  0  0  0  0  0  0  0  0  0
   62.3882   34.0423   51.5693 H   0  0  0  0  0  0  0  0  0  0  0  0
   61.3891   33.1691   45.5186 H   0  0  0  0  0  0  0  0  0  0  0  0
   60.0235   35.2517   45.3500 H   0  0  0  0  0  0  0  0  0  0  0  0
   57.8727   35.4407   46.6016 H   0  0  0  0  0  0  0  0  0  0  0  0
   57.0797   33.5442   48.0178 H   0  0  0  0  0  0  0  0  0  0  0  0
   58.4388   31.4595   48.1920 H   0  0  0  0  0  0  0  0  0  0  0  0
   59.0547   27.8710   46.9353 H   0  0  0  0  0  0  0  0  0  0  0  0
   56.6539   27.4579   46.3990 H   0  0  0  0  0  0  0  0  0  0  0  0
  1  2  1  0
  2  3  2  0
  3  4  1  0
  4  5  2  0
  5  6  1  0
  6  7  1  0
  7  8  1  0
  8  9  1  0
  9 10  2  0
 10 11  1  0
 11 12  2  0
 12 13  1  0
 13 14  1  0
 14 15  1  0
 15 16  1  0
  7 17  1  0
 17 18  2  0
 18 19  1  0
 19 20  2  0
 20 21  1  0
 21 22  2  0
  5 23  1  0
 23 24  2  0
 24  2  1  0
 13  9  1  0
 16 14  1  0
 22 17  1  0
  3 25  1  0
  4 26  1  0
  6 27  1  0
  6 28  1  0
  8 29  1  0
  8 30  1  0
 10 31  1  0
 14 32  1  0
 15 33  1  0
 15 34  1  0
 16 35  1  0
 16 36  1  0
 18 37  1  0
 19 38  1  0
 20 39  1  0
 21 40  1  0
 22 41  1  0
 23 42  1  0
 24 43  1  0
M  CHG  2   1  -1  10   1
M  END
>  <UniqueID>  (70) 
67

>  <SMILES>  (70) 
[O-]c1ccc(CN(Cc2[nH+]nnn2C2CC2)c2ccccc2)cc1

>  <Energy>  (70) 
352.3204469180226

>  <Genealogy>  (70) 
[O-]c1ccc(CN(Cc2[nH+]nnn2C2CC2)c2ccccc2)cc1 (protonated)
[O-]c1ccc(CN(Cc2[nH+]nnn2C2CC2)c2ccccc2)cc1 (3D coordinates assigned)
[O-]c1ccc(CN(Cc2[nH+]nnn2C2CC2)c2ccccc2)cc1 (nonaromatic ring conformer: 352.3204469180226 kcal/mol)

>  <smiles>  (70) 
Oc1ccc(CN(Cc2nnnn2C2CC2)c2ccccc2)cc1

>  <score_type>  (70) 
oracle

>  <origin>  (70) 
adg

>  <m_score__min__energy>  (70) 
-10.029999999999999

>  <m_primary>  (70) 
energy

$$$$
70:0
     RDKit          3D

 53 55  0  0  0  0  0  0  0  0999 V2000
   55.8900   29.2640   45.2360 O   0  0  0  0  0  0  0  0  0  0  0  0
   57.0250   29.4500   44.7180 C   0  0  0  0  0  0  0  0  0  0  0  0
   57.8590   28.3210   44.4080 N   0  0  0  0  0  0  0  0  0  0  0  0
   57.7330   27.0370   45.0430 C   0  0  0  0  0  0  0  0  0  0  0  0
   57.3090   26.9670   46.3780 C   0  0  0  0  0  0  0  0  0  0  0  0
   57.1570   25.7290   47.0090 C   0  0  0  0  0  0  0  0  0  0  0  0
   57.4150   24.5480   46.3090 C   0  0  0  0  0  0  0  0  0  0  0  0
   57.8230   24.5970   44.9670 C   0  0  0  0  0  0  0  0  0  0  0  0
   58.0720   23.3310   44.1940 C   0  0  0  0  0  0  0  0  0  0  0  0
   56.8610   22.9510   43.4350 N   0  0  0  0  0  0  0  0  0  0  0  0
   55.6580   23.7180   43.8520 C   0  0  0  0  0  0  0  0  0  0  0  0
   54.7830   22.9710   44.8800 C   0  0  0  0  0  0  0  0  0  0  0  0
   55.6200   22.0670   45.6830 N   0  0  0  0  0  0  0  0  0  0  0  0
   54.9620   21.5670   46.9110 C   0  0  0  0  0  0  0  0  0  0  0  0
   55.9020   21.4190   48.1240 C   0  0  0  0  0  0  0  0  0  0  0  0
   57.1840   21.8800   47.7970 O   0  0  0  0  0  0  0  0  0  0  0  0
   56.2260   20.9930   44.8680 C   0  0  0  0  0  0  0  0  0  0  0  0
   56.6210   21.4940   43.4620 C   0  0  0  0  0  0  0  0  0  0  0  0
   57.9720   25.8430   44.3370 C   0  0  0  0  0  0  0  0  0  0  0  0
   57.4600   30.8290   44.3920 C   0  0  0  0  0  0  0  0  0  0  0  0
   57.3990   31.2950   43.0680 C   0  0  0  0  0  0  0  0  0  0  0  0
   57.7890   32.5990   42.7560 C   0  0  0  0  0  0  0  0  0  0  0  0
   58.2450   33.4550   43.7600 C   0  0  0  0  0  0  0  0  0  0  0  0
   58.3310   33.0080   45.0890 C   0  0  0  0  0  0  0  0  0  0  0  0
   58.7660   33.9490   46.1850 C   0  0  0  0  0  0  0  0  0  0  0  0
   57.7360   34.1520   47.0880 F   0  0  0  0  0  0  0  0  0  0  0  0
   59.8490   33.4320   46.8750 F   0  0  0  0  0  0  0  0  0  0  0  0
   59.1230   35.1630   45.6290 F   0  0  0  0  0  0  0  0  0  0  0  0
   57.9120   31.7020   45.4010 C   0  0  0  0  0  0  0  0  0  0  0  0
   58.5190   28.4050   43.6010 H   0  0  0  0  0  0  0  0  0  0  0  0
   57.0946   27.8926   46.9323 H   0  0  0  0  0  0  0  0  0  0  0  0
   56.8334   25.6846   48.0594 H   0  0  0  0  0  0  0  0  0  0  0  0
   57.2980   23.5764   46.8112 H   0  0  0  0  0  0  0  0  0  0  0  0
   58.9050   23.4906   43.4935 H   0  0  0  0  0  0  0  0  0  0  0  0
   58.3233   22.5237   44.8977 H   0  0  0  0  0  0  0  0  0  0  0  0
   55.9872   24.6678   44.2986 H   0  0  0  0  0  0  0  0  0  0  0  0
   55.0433   23.8732   42.9531 H   0  0  0  0  0  0  0  0  0  0  0  0
   54.2941   23.7007   45.5422 H   0  0  0  0  0  0  0  0  0  0  0  0
   54.0199   22.3834   44.3486 H   0  0  0  0  0  0  0  0  0  0  0  0
   54.1598   22.2694   47.1815 H   0  0  0  0  0  0  0  0  0  0  0  0
   54.5897   20.5584   46.6784 H   0  0  0  0  0  0  0  0  0  0  0  0
   55.5068   22.0079   48.9649 H   0  0  0  0  0  0  0  0  0  0  0  0
   55.9616   20.3576   48.4067 H   0  0  0  0  0  0  0  0  0  0  0  0
   57.1730   22.0860   46.8260 H   0  0  0  0  0  0  0  0  0  0  0  0
   57.1263   20.6224   45.3799 H   0  0  0  0  0  0  0  0  0  0  0  0
   55.4812   20.1923   44.7490 H   0  0  0  0  0  0  0  0  0  0  0  0
   57.5401   20.9779   43.1475 H   0  0  0  0  0  0  0  0  0  0  0  0
   55.7859   21.2770   42.7797 H   0  0  0  0  0  0  0  0  0  0  0  0
   58.2785   25.8864   43.2815 H   0  0  0  0  0  0  0  0  0  0  0  0
   57.0411   30.6271   42.2706 H   0  0  0  0  0  0  0  0  0  0  0  0
   57.7367   32.9528   41.7158 H   0  0  0  0  0  0  0  0  0  0  0  0
   58.5385   34.4850   43.5092 H   0  0  0  0  0  0  0  0  0  0  0  0
   57.9376   31.3582   46.4456 H   0  0  0  0  0  0  0  0  0  0  0  0
  1  2  2  0
  2  3  1  0
  3  4  1  0
  4  5  2  0
  5  6  1  0
  6  7  2  0
  7  8  1  0
  8  9  1  0
  9 10  1  0
 10 11  1  0
 11 12  1  0
 12 13  1  0
 13 14  1  0
 14 15  1  0
 15 16  1  0
 13 17  1  0
 17 18  1  0
  8 19  2  0
  2 20  1  0
 20 21  2  0
 21 22  1  0
 22 23  2  0
 23 24  1  0
 24 25  1  0
 25 26  1  0
 25 27  1  0
 25 28  1  0
 24 29  2  0
 19  4  1  0
 29 20  1  0
 18 10  1  0
  3 30  1  0
  5 31  1  0
  6 32  1  0
  7 33  1  0
  9 34  1  0
  9 35  1  0
 11 36  1  0
 11 37  1  0
 12 38  1  0
 12 39  1  0
 14 40  1  0
 14 41  1  0
 15 42  1  0
 15 43  1  0
 16 44  1  0
 17 45  1  0
 17 46  1  0
 18 47  1  0
 18 48  1  0
 19 49  1  0
 21 50  1  0
 22 51  1  0
 23 52  1  0
 29 53  1  0
M  END
>  <UniqueID>  (71) 
68

>  <SMILES>  (71) 
O=C(Nc1cccc(CN2CCN(CCO)CC2)c1)c1cccc(C(F)(F)F)c1

>  <Energy>  (71) 
72.66946723238877

>  <Genealogy>  (71) 
O=C(Nc1cccc(CN2CCN(CCO)CC2)c1)c1cccc(C(F)(F)F)c1 (3D coordinates assigned)
O=C(Nc1cccc(CN2CCN(CCO)CC2)c1)c1cccc(C(F)(F)F)c1 (nonaromatic ring conformer: 72.66946723238877 kcal/mol)

>  <smiles>  (71) 
O=C(Nc1cccc(CN2CCN(CCO)CC2)c1)c1cccc(C(F)(F)F)c1

>  <score_type>  (71) 
oracle

>  <origin>  (71) 
adg

>  <m_score__min__energy>  (71) 
-8.1099999999999994

>  <m_primary>  (71) 
energy

$$$$
71:0
     RDKit          3D

 32 32  0  0  0  0  0  0  0  0999 V2000
   57.8210   33.1010   44.9310 C   0  0  0  0  0  0  0  0  0  0  0  0
   58.4290   31.9470   45.2170 C   0  0  0  0  0  0  0  0  0  0  0  0
   58.5160   30.8280   44.2170 C   0  0  0  0  0  0  0  0  0  0  0  0
   57.7780   29.6410   44.6980 N   0  0  0  0  0  0  0  0  0  0  0  0
   56.4120   29.6910   44.8210 C   0  0  0  0  0  0  0  0  0  0  0  0
   55.7790   30.7460   44.5430 O   0  0  0  0  0  0  0  0  0  0  0  0
   55.7210   28.6050   45.2450 N   0  0  0  0  0  0  0  0  0  0  0  0
   56.3370   27.4390   45.5490 C   0  0  0  0  0  0  0  0  0  0  0  0
   55.5600   26.3700   46.0000 O   0  0  0  0  0  0  0  0  0  0  0  0
   57.7300   27.3390   45.4100 C   0  0  0  0  0  0  0  0  0  0  0  0
   58.4470   26.0830   45.7130 C   0  0  0  0  0  0  0  0  0  0  0  0
   59.3750   25.9850   46.6730 C   0  0  0  0  0  0  0  0  0  0  0  0
   59.3510   26.8280   47.9230 C   0  0  0  0  0  0  0  0  0  0  0  0
   60.3060   28.0250   47.8360 C   0  0  0  0  0  0  0  0  0  0  0  0
   59.5900   29.3550   48.0780 C   0  0  0  0  0  0  0  0  0  0  0  0
   58.4410   28.4730   44.9880 C   0  0  0  0  0  0  0  0  0  0  0  0
   59.6970   28.4050   44.8700 O   0  0  0  0  0  0  0  0  0  0  0  0
   57.7748   33.9001   45.6855 H   0  0  0  0  0  0  0  0  0  0  0  0
   57.3664   33.2525   43.9409 H   0  0  0  0  0  0  0  0  0  0  0  0
   58.8786   31.8115   46.2117 H   0  0  0  0  0  0  0  0  0  0  0  0
   58.0818   31.1614   43.2629 H   0  0  0  0  0  0  0  0  0  0  0  0
   59.5731   30.5565   44.0801 H   0  0  0  0  0  0  0  0  0  0  0  0
   55.1400   26.3480   46.9210 H   0  0  0  0  0  0  0  0  0  0  0  0
   58.2071   25.1867   45.1222 H   0  0  0  0  0  0  0  0  0  0  0  0
   60.1904   25.2580   46.5443 H   0  0  0  0  0  0  0  0  0  0  0  0
   58.3282   27.2020   48.0779 H   0  0  0  0  0  0  0  0  0  0  0  0
   59.6789   26.1960   48.7615 H   0  0  0  0  0  0  0  0  0  0  0  0
   61.0947   27.9045   48.5932 H   0  0  0  0  0  0  0  0  0  0  0  0
   60.7264   28.0481   46.8198 H   0  0  0  0  0  0  0  0  0  0  0  0
   59.4962   29.5293   49.1600 H   0  0  0  0  0  0  0  0  0  0  0  0
   60.1703   30.1718   47.6240 H   0  0  0  0  0  0  0  0  0  0  0  0
   58.5887   29.3203   47.6240 H   0  0  0  0  0  0  0  0  0  0  0  0
  1  2  2  0
  2  3  1  0
  3  4  1  0
  4  5  1  0
  5  6  2  0
  5  7  1  0
  7  8  1  0
  8  9  1  0
  8 10  2  0
 10 11  1  0
 11 12  2  3
 12 13  1  0
 13 14  1  0
 14 15  1  0
 10 16  1  0
 16 17  2  0
 16  4  1  0
  1 18  1  0
  1 19  1  0
  2 20  1  0
  3 21  1  0
  3 22  1  0
  9 23  1  0
 11 24  1  0
 12 25  1  0
 13 26  1  0
 13 27  1  0
 14 28  1  0
 14 29  1  0
 15 30  1  0
 15 31  1  0
 15 32  1  0
M  CHG  1   7  -1
M  END
>  <UniqueID>  (72) 
69

>  <SMILES>  (72) 
C=CCn1c(=O)[n-]c(O)c(C=CCCC)c1=O

>  <Energy>  (72) 
34.12180930139599

>  <Genealogy>  (72) 
C=CCn1c(=O)[n-]c(O)c(C=CCCC)c1=O (protonated)
C=CCn1c(=O)[n-]c(O)c(C=CCCC)c1=O (3D coordinates assigned)
C=CCn1c(=O)[n-]c(O)c(C=CCCC)c1=O (optimized conformer: 34.12180930139599 kcal/mol)

>  <smiles>  (72) 
C=CCn1c(=O)[nH]c(O)c(C=CCCC)c1=O

>  <score_type>  (72) 
oracle

>  <origin>  (72) 
adg

>  <m_score__min__energy>  (72) 
-7.8700000000000001

>  <m_primary>  (72) 
energy

$$$$
72:0
     RDKit          3D

 37 39  0  0  0  0  0  0  0  0999 V2000
   55.1730   24.5170   46.5910 O   0  0  0  0  0  0  0  0  0  0  0  0
   55.9980   25.4190   46.2840 C   0  0  0  0  0  0  0  0  0  0  0  0
   55.5370   26.6490   45.9450 N   0  0  0  0  0  0  0  0  0  0  0  0
   56.3810   27.6490   45.5900 C   0  0  0  0  0  0  0  0  0  0  0  0
   55.8360   28.9290   45.2340 N   0  0  0  0  0  0  0  0  0  0  0  0
   56.4320   29.8910   44.5890 C   0  0  0  0  0  0  0  0  0  0  0  0
   56.4160   29.8830   43.2290 N   0  0  0  0  0  0  0  0  0  0  0  0
   57.0240   30.8650   42.5130 C   0  0  0  0  0  0  0  0  0  0  0  0
   57.6820   31.9020   43.1730 C   0  0  0  0  0  0  0  0  0  0  0  0
   57.6930   31.8980   44.5660 C   0  0  0  0  0  0  0  0  0  0  0  0
   57.0720   30.8990   45.2460 N   0  0  0  0  0  0  0  0  0  0  0  0
   57.7200   27.4210   45.5850 N   0  0  0  0  0  0  0  0  0  0  0  0
   58.2500   26.2130   45.9210 C   0  0  0  0  0  0  0  0  0  0  0  0
   59.6840   26.0640   45.9150 N   0  0  0  0  0  0  0  0  0  0  0  0
   60.2560   26.6220   47.1480 C   0  0  0  0  0  0  0  0  0  0  0  0
   59.9580   28.0960   47.2460 C   0  0  0  0  0  0  0  0  0  0  0  0
   59.2830   28.6100   48.3650 C   0  0  0  0  0  0  0  0  0  0  0  0
   59.0410   29.9830   48.4720 C   0  0  0  0  0  0  0  0  0  0  0  0
   59.4790   30.8510   47.4680 C   0  0  0  0  0  0  0  0  0  0  0  0
   60.1640   30.3480   46.3580 C   0  0  0  0  0  0  0  0  0  0  0  0
   60.4090   28.9760   46.2490 C   0  0  0  0  0  0  0  0  0  0  0  0
   57.3780   25.1540   46.2730 C   0  0  0  0  0  0  0  0  0  0  0  0
   57.8680   23.8470   46.6230 N   0  0  0  0  0  0  0  0  0  0  0  0
   57.3860   23.2270   47.5920 O   0  0  0  0  0  0  0  0  0  0  0  0
   58.9780   23.3340   45.9920 O   0  0  0  0  0  0  0  0  0  0  0  0
   56.9970   30.8418   41.4136 H   0  0  0  0  0  0  0  0  0  0  0  0
   58.1801   32.7035   42.6077 H   0  0  0  0  0  0  0  0  0  0  0  0
   58.2039   32.7028   45.1149 H   0  0  0  0  0  0  0  0  0  0  0  0
   60.1080   26.5120   45.0710 H   0  0  0  0  0  0  0  0  0  0  0  0
   59.9080   25.0420   45.8680 H   0  0  0  0  0  0  0  0  0  0  0  0
   59.8198   26.1057   48.0158 H   0  0  0  0  0  0  0  0  0  0  0  0
   61.3466   26.4791   47.1316 H   0  0  0  0  0  0  0  0  0  0  0  0
   58.9434   27.9301   49.1602 H   0  0  0  0  0  0  0  0  0  0  0  0
   58.5055   30.3802   49.3469 H   0  0  0  0  0  0  0  0  0  0  0  0
   59.2846   31.9305   47.5512 H   0  0  0  0  0  0  0  0  0  0  0  0
   60.5105   31.0324   45.5696 H   0  0  0  0  0  0  0  0  0  0  0  0
   60.9569   28.5844   45.3793 H   0  0  0  0  0  0  0  0  0  0  0  0
  1  2  2  0
  2  3  1  0
  3  4  2  0
  4  5  1  0
  5  6  2  3
  6  7  1  0
  7  8  2  0
  8  9  1  0
  9 10  2  0
 10 11  1  0
  4 12  1  0
 12 13  1  0
 13 14  1  0
 14 15  1  0
 15 16  1  0
 16 17  2  0
 17 18  1  0
 18 19  2  0
 19 20  1  0
 20 21  2  0
 13 22  2  0
 22 23  1  0
 23 24  2  0
 23 25  1  0
 22  2  1  0
 11  6  1  0
 21 16  1  0
  8 26  1  0
  9 27  1  0
 10 28  1  0
 14 29  1  0
 14 30  1  0
 15 31  1  0
 15 32  1  0
 17 33  1  0
 18 34  1  0
 19 35  1  0
 20 36  1  0
 21 37  1  0
M  CHG  5  11  -1  12  -1  14   1  23   1  25  -1
M  END
>  <UniqueID>  (73) 
70

>  <SMILES>  (73) 
O=c1nc(N=c2nccc[n-]2)[n-]c([NH2+]Cc2ccccc2)c1[N+](=O)[O-]

>  <Energy>  (73) 
51.12517491274074

>  <Genealogy>  (73) 
O=c1nc(N=c2nccc[n-]2)[n-]c([NH2+]Cc2ccccc2)c1[N+](=O)[O-] (protonated)
O=c1nc(N=c2nccc[n-]2)[n-]c([NH2+]Cc2ccccc2)c1[N+](=O)[O-] (3D coordinates assigned)
O=c1nc(N=c2nccc[n-]2)[n-]c([NH2+]Cc2ccccc2)c1[N+](=O)[O-] (optimized conformer: 51.12517491274074 kcal/mol)

>  <smiles>  (73) 
O=c1nc(N=c2nccc[nH]2)[nH]c(NCc2ccccc2)c1[N+](=O)[O-]

>  <score_type>  (73) 
oracle

>  <origin>  (73) 
adg

>  <m_score__min__energy>  (73) 
-8.3300000000000001

>  <m_primary>  (73) 
energy

$$$$
73:0
     RDKit          3D

 35 37  0  0  0  0  0  0  0  0999 V2000
   53.3893   27.5792   54.1977 H   0  0  0  0  0  0  0  0  0  0  0  0
   53.3030   28.5730   53.7340 C   0  0  0  0  0  0  0  0  0  0  0  0
   52.0880   28.9570   53.3120 C   0  0  0  0  0  0  0  0  0  0  0  0
   51.2166   28.4481   53.7498 H   0  0  0  0  0  0  0  0  0  0  0  0
   51.8260   30.0100   52.3050 C   0  0  0  0  0  0  0  0  0  0  0  0
   52.0300   29.7180   50.9470 C   0  0  0  0  0  0  0  0  0  0  0  0
   52.3939   28.7234   50.6499 H   0  0  0  0  0  0  0  0  0  0  0  0
   51.7730   30.6850   49.9700 C   0  0  0  0  0  0  0  0  0  0  0  0
   51.9491   30.4534   48.9092 H   0  0  0  0  0  0  0  0  0  0  0  0
   51.2930   31.9450   50.3380 C   0  0  0  0  0  0  0  0  0  0  0  0
   51.0430   32.9030   49.3620 O   0  0  0  0  0  0  0  0  0  0  0  0
   51.0580   32.2360   51.6860 C   0  0  0  0  0  0  0  0  0  0  0  0
   50.5650   33.4820   52.0570 O   0  0  0  0  0  0  0  0  0  0  0  0
   51.3140   31.2710   52.6650 C   0  0  0  0  0  0  0  0  0  0  0  0
   51.1142   31.4985   53.7225 H   0  0  0  0  0  0  0  0  0  0  0  0
   54.5340   29.3840   53.6230 C   0  0  0  0  0  0  0  0  0  0  0  0
   54.8730   30.3660   54.5730 C   0  0  0  0  0  0  0  0  0  0  0  0
   54.0410   30.6290   55.6550 O   0  0  0  0  0  0  0  0  0  0  0  0
   56.0210   31.0790   54.4310 N   0  0  0  0  0  0  0  0  0  0  0  0
   56.8550   30.9020   53.3730 C   0  0  0  0  0  0  0  0  0  0  0  0
   57.9260   31.5620   53.3120 O   0  0  0  0  0  0  0  0  0  0  0  0
   56.5220   29.9820   52.3640 C   0  0  0  0  0  0  0  0  0  0  0  0
   57.3880   29.7470   51.2420 N   0  0  0  0  0  0  0  0  0  0  0  0
   58.2460   30.5830   50.7300 C   0  0  0  0  0  0  0  0  0  0  0  0
   59.4740   30.1150   50.3730 N   0  0  0  0  0  0  0  0  0  0  0  0
   60.4250   30.9150   49.8220 C   0  0  0  0  0  0  0  0  0  0  0  0
   61.4068   30.4976   49.5541 H   0  0  0  0  0  0  0  0  0  0  0  0
   60.1560   32.2660   49.5960 C   0  0  0  0  0  0  0  0  0  0  0  0
   60.9231   32.9199   49.1555 H   0  0  0  0  0  0  0  0  0  0  0  0
   58.9040   32.7770   49.9350 C   0  0  0  0  0  0  0  0  0  0  0  0
   58.6765   33.8385   49.7574 H   0  0  0  0  0  0  0  0  0  0  0  0
   57.9390   31.9410   50.5000 C   0  0  0  0  0  0  0  0  0  0  0  0
   56.9475   32.3377   50.7637 H   0  0  0  0  0  0  0  0  0  0  0  0
   55.3640   29.2120   52.5080 C   0  0  0  0  0  0  0  0  0  0  0  0
   55.1034   28.4672   51.7416 H   0  0  0  0  0  0  0  0  0  0  0  0
  1  2  1  0
  2  3  2  3
  3  4  1  0
  3  5  1  0
  5  6  2  0
  6  7  1  0
  6  8  1  0
  8  9  1  0
  8 10  2  0
 10 11  1  0
 10 12  1  0
 12 13  1  0
 12 14  2  0
 14 15  1  0
  2 16  1  0
 16 17  2  0
 17 18  1  0
 17 19  1  0
 19 20  1  0
 20 21  2  0
 20 22  1  0
 22 23  1  0
 23 24  2  0
 24 25  1  0
 25 26  1  0
 26 27  1  0
 26 28  2  0
 28 29  1  0
 28 30  1  0
 30 31  1  0
 30 32  2  0
 32 33  1  0
 22 34  2  0
 34 35  1  0
 14  5  1  0
 34 16  1  0
 32 24  1  0
M  CHG  5  11  -1  13  -1  18  -1  19  -1  25  -1
M  END
>  <UniqueID>  (74) 
71

>  <SMILES>  (74) 
O=c1[n-]c([O-])c(C=Cc2ccc([O-])c([O-])c2)cc1/N=c1\cccc[n-]1

>  <Energy>  (74) 
61.701462946043385

>  <Genealogy>  (74) 
O=c1[n-]c([O-])c(C=Cc2ccc([O-])c([O-])c2)cc1N=c1cccc[n-]1 (protonated)
O=c1[n-]c([O-])c(C=Cc2ccc([O-])c([O-])c2)cc1/N=c1\cccc[n-]1 (cis-trans isomerization)
O=c1[n-]c([O-])c(C=Cc2ccc([O-])c([O-])c2)cc1/N=c1\cccc[n-]1 (3D coordinates assigned)
O=c1[n-]c([O-])c(C=Cc2ccc([O-])c([O-])c2)cc1/N=c1\cccc[n-]1 (optimized conformer: 61.701462946043385 kcal/mol)

>  <smiles>  (74) 
O=c1[nH]c(O)c(C=Cc2ccc(O)c(O)c2)cc1N=c1cccc[nH]1

>  <score_type>  (74) 
oracle

>  <origin>  (74) 
adg

>  <m_score__min__energy>  (74) 
-18.140000000000001

>  <m_primary>  (74) 
energy

$$$$
74:0
     RDKit          3D

 51 53  0  0  0  0  0  0  0  0999 V2000
   59.6508   33.8806   48.3035 H   0  0  0  0  0  0  0  0  0  0  0  0
   59.1890   33.8200   47.3070 C   0  0  0  0  0  0  0  0  0  0  0  0
   58.1990   32.9330   47.0150 N   0  0  0  0  0  0  0  0  0  0  0  0
   57.7870   33.0460   45.7350 C   0  0  0  0  0  0  0  0  0  0  0  0
   56.8700   32.2690   45.2360 N   0  0  0  0  0  0  0  0  0  0  0  0
   57.0320   30.9140   44.7900 C   0  0  0  0  0  0  0  0  0  0  0  0
   56.0390   30.2070   44.4700 O   0  0  0  0  0  0  0  0  0  0  0  0
   58.4140   30.3340   44.6940 C   0  0  0  0  0  0  0  0  0  0  0  0
   58.8199   30.2117   45.7090 H   0  0  0  0  0  0  0  0  0  0  0  0
   59.0330   31.0229   44.1005 H   0  0  0  0  0  0  0  0  0  0  0  0
   58.4130   29.0240   44.0200 N   0  0  0  0  0  0  0  0  0  0  0  0
   59.2390   28.9730   43.3820 H   0  0  0  0  0  0  0  0  0  0  0  0
   57.5640   28.9430   43.4130 H   0  0  0  0  0  0  0  0  0  0  0  0
   58.4560   27.9330   44.9720 C   0  0  0  0  0  0  0  0  0  0  0  0
   57.3520   27.0670   45.0870 C   0  0  0  0  0  0  0  0  0  0  0  0
   56.4873   27.1985   44.4199 H   0  0  0  0  0  0  0  0  0  0  0  0
   57.3400   26.0420   46.0380 C   0  0  0  0  0  0  0  0  0  0  0  0
   55.9410   24.9710   46.1660 S   0  0  0  0  0  0  0  0  0  0  0  0
   54.6890   25.7670   45.9230 O   0  0  0  0  0  0  0  0  0  0  0  0
   55.8710   24.4100   47.5580 O   0  0  0  0  0  0  0  0  0  0  0  0
   56.0220   23.6580   45.0180 N   0  0  0  0  0  0  0  0  0  0  0  0
   57.0370   22.6720   45.4320 C   0  0  0  0  0  0  0  0  0  0  0  0
   57.9786   23.1951   45.6551 H   0  0  0  0  0  0  0  0  0  0  0  0
   56.6727   22.1436   46.3254 H   0  0  0  0  0  0  0  0  0  0  0  0
   57.2840   21.6410   44.3130 C   0  0  0  0  0  0  0  0  0  0  0  0
   58.2701   21.8287   43.8630 H   0  0  0  0  0  0  0  0  0  0  0  0
   57.2444   20.6332   44.7520 H   0  0  0  0  0  0  0  0  0  0  0  0
   56.2930   21.7320   43.3080 O   0  0  0  0  0  0  0  0  0  0  0  0
   56.3700   22.9940   42.6680 C   0  0  0  0  0  0  0  0  0  0  0  0
   57.3128   23.0473   42.1038 H   0  0  0  0  0  0  0  0  0  0  0  0
   55.4979   23.0877   42.0041 H   0  0  0  0  0  0  0  0  0  0  0  0
   56.3260   24.1650   43.6720 C   0  0  0  0  0  0  0  0  0  0  0  0
   57.3024   24.6715   43.6848 H   0  0  0  0  0  0  0  0  0  0  0  0
   55.5432   24.8749   43.3667 H   0  0  0  0  0  0  0  0  0  0  0  0
   58.4380   25.8740   46.8880 C   0  0  0  0  0  0  0  0  0  0  0  0
   58.4324   25.0689   47.6375 H   0  0  0  0  0  0  0  0  0  0  0  0
   59.5410   26.7240   46.7890 C   0  0  0  0  0  0  0  0  0  0  0  0
   60.4009   26.5836   47.4604 H   0  0  0  0  0  0  0  0  0  0  0  0
   59.5600   27.7560   45.8390 C   0  0  0  0  0  0  0  0  0  0  0  0
   60.7070   28.6150   45.7550 N   0  0  0  0  0  0  0  0  0  0  0  0
   60.7950   29.7570   46.6630 C   0  0  0  0  0  0  0  0  0  0  0  0
   60.7676   29.4011   47.7035 H   0  0  0  0  0  0  0  0  0  0  0  0
   61.7373   30.2957   46.4844 H   0  0  0  0  0  0  0  0  0  0  0  0
   59.9463   30.4337   46.4844 H   0  0  0  0  0  0  0  0  0  0  0  0
   61.4740   28.6540   44.5100 C   0  0  0  0  0  0  0  0  0  0  0  0
   62.5478   28.7086   44.7424 H   0  0  0  0  0  0  0  0  0  0  0  0
   61.2711   27.7444   43.9257 H   0  0  0  0  0  0  0  0  0  0  0  0
   61.1799   29.5383   43.9257 H   0  0  0  0  0  0  0  0  0  0  0  0
   58.6420   34.2460   44.9130 S   0  0  0  0  0  0  0  0  0  0  0  0
   59.5750   34.6440   46.2560 C   0  0  0  0  0  0  0  0  0  0  0  0
   60.3536   35.4200   46.2953 H   0  0  0  0  0  0  0  0  0  0  0  0
  1  2  1  0
  2  3  1  0
  3  4  1  0
  4  5  2  0
  5  6  1  0
  6  7  2  0
  6  8  1  0
  8  9  1  0
  8 10  1  0
  8 11  1  0
 11 12  1  0
 11 13  1  0
 11 14  1  0
 14 15  2  0
 15 16  1  0
 15 17  1  0
 17 18  1  0
 18 19  2  0
 18 20  2  0
 18 21  1  0
 21 22  1  0
 22 23  1  0
 22 24  1  0
 22 25  1  0
 25 26  1  0
 25 27  1  0
 25 28  1  0
 28 29  1  0
 29 30  1  0
 29 31  1  0
 29 32  1  0
 32 33  1  0
 32 34  1  0
 17 35  2  0
 35 36  1  0
 35 37  1  0
 37 38  1  0
 37 39  2  0
 39 40  1  0
 40 41  1  0
 41 42  1  0
 41 43  1  0
 41 44  1  0
 40 45  1  0
 45 46  1  0
 45 47  1  0
 45 48  1  0
  4 49  1  0
 49 50  1  0
 50 51  1  0
 50  2  2  0
 39 14  1  0
 32 21  1  0
M  CHG  2   3  -1  11   1
M  END
>  <UniqueID>  (75) 
72

>  <SMILES>  (75) 
CN(C)c1ccc(S(=O)(=O)N2CCOCC2)cc1[NH2+]CC(=O)/N=c1/[n-]ccs1

>  <Energy>  (75) 
95.20998485293438

>  <Genealogy>  (75) 
CN(C)c1ccc(S(=O)(=O)N2CCOCC2)cc1[NH2+]CC(=O)N=c1[n-]ccs1 (protonated)
CN(C)c1ccc(S(=O)(=O)N2CCOCC2)cc1[NH2+]CC(=O)/N=c1/[n-]ccs1 (cis-trans isomerization)
CN(C)c1ccc(S(=O)(=O)N2CCOCC2)cc1[NH2+]CC(=O)/N=c1/[n-]ccs1 (3D coordinates assigned)
CN(C)c1ccc(S(=O)(=O)N2CCOCC2)cc1[NH2+]CC(=O)/N=c1/[n-]ccs1 (nonaromatic ring conformer: 95.20998485293438 kcal/mol)

>  <smiles>  (75) 
CN(C)c1ccc(S(=O)(=O)N2CCOCC2)cc1NCC(=O)N=c1[nH]ccs1

>  <score_type>  (75) 
oracle

>  <origin>  (75) 
adg

>  <m_score__min__energy>  (75) 
-9.4299999999999997

>  <m_primary>  (75) 
energy

$$$$
75:0
     RDKit          3D

 47 51  0  0  0  0  0  0  0  0999 V2000
   59.7180   35.2940   46.5040 C   0  0  0  0  0  0  0  0  0  0  0  0
   59.8450   33.8380   46.4330 N   0  0  0  0  0  0  0  0  0  0  0  0
   60.8800   33.0560   46.8500 C   0  0  0  0  0  0  0  0  0  0  0  0
   62.1220   33.5740   47.5340 C   0  0  2  0  0  0  0  0  0  0  0  0
   63.0530   32.4650   48.0140 C   0  0  0  0  0  0  0  0  0  0  0  0
   62.3100   33.3120   49.0380 C   0  0  2  0  0  0  0  0  0  0  0  0
   61.1920   32.6460   49.7160 N   0  0  0  0  0  0  0  0  0  0  0  0
   59.9680   33.1460   50.0080 C   0  0  0  0  0  0  0  0  0  0  0  0
   59.5470   34.4350   49.7080 O   0  0  0  0  0  0  0  0  0  0  0  0
   59.1890   32.1840   50.6180 C   0  0  0  0  0  0  0  0  0  0  0  0
   59.9300   31.0260   50.6270 C   0  0  0  0  0  0  0  0  0  0  0  0
   61.1480   31.3390   50.0590 C   0  0  0  0  0  0  0  0  0  0  0  0
   62.1970   30.4460   49.8660 O   0  0  0  0  0  0  0  0  0  0  0  0
   59.4940   29.7550   51.2930 C   0  0  0  0  0  0  0  0  0  0  0  0
   57.9710   29.7680   51.5390 C   0  0  0  0  0  0  0  0  0  0  0  0
   57.4820   31.1280   52.0850 C   0  0  0  0  0  0  0  0  0  0  0  0
   57.7750   32.2740   51.0970 C   0  0  0  0  0  0  0  0  0  0  0  0
   60.6620   31.7330   46.6390 N   0  0  0  0  0  0  0  0  0  0  0  0
   59.4710   31.7090   46.0180 C   0  0  0  0  0  0  0  0  0  0  0  0
   58.8010   30.5970   45.5210 C   0  0  0  0  0  0  0  0  0  0  0  0
   57.5710   30.8070   44.8620 C   0  0  0  0  0  0  0  0  0  0  0  0
   56.7130   29.4270   44.1850 S   0  0  0  0  0  0  0  0  0  0  0  0
   55.1380   29.3380   44.8880 N   0  0  0  0  0  0  0  0  0  0  0  0
   56.5930   29.5960   42.6970 O   0  0  0  0  0  0  0  0  0  0  0  0
   57.4540   28.1540   44.4790 O   0  0  0  0  0  0  0  0  0  0  0  0
   57.0530   32.1200   44.7310 C   0  0  0  0  0  0  0  0  0  0  0  0
   57.7630   33.2230   45.2440 C   0  0  0  0  0  0  0  0  0  0  0  0
   58.9770   32.9720   45.8840 C   0  0  0  0  0  0  0  0  0  0  0  0
   59.6905   35.6087   47.5577 H   0  0  0  0  0  0  0  0  0  0  0  0
   60.5787   35.7620   46.0039 H   0  0  0  0  0  0  0  0  0  0  0  0
   58.7892   35.6059   46.0039 H   0  0  0  0  0  0  0  0  0  0  0  0
   62.1882   34.4834   46.9187 H   0  0  0  0  0  0  0  0  0  0  0  0
   62.7726   31.4116   47.8666 H   0  0  0  0  0  0  0  0  0  0  0  0
   64.1089   32.2109   47.8393 H   0  0  0  0  0  0  0  0  0  0  0  0
   62.5989   33.9246   49.9047 H   0  0  0  0  0  0  0  0  0  0  0  0
   59.7489   28.9020   50.6469 H   0  0  0  0  0  0  0  0  0  0  0  0
   60.0096   29.6657   52.2606 H   0  0  0  0  0  0  0  0  0  0  0  0
   57.4565   29.5615   50.5889 H   0  0  0  0  0  0  0  0  0  0  0  0
   57.7429   28.9990   52.2918 H   0  0  0  0  0  0  0  0  0  0  0  0
   56.3970   31.0741   52.2577 H   0  0  0  0  0  0  0  0  0  0  0  0
   58.0189   31.3358   53.0223 H   0  0  0  0  0  0  0  0  0  0  0  0
   57.0931   32.1977   50.2372 H   0  0  0  0  0  0  0  0  0  0  0  0
   57.6256   33.2378   51.6056 H   0  0  0  0  0  0  0  0  0  0  0  0
   59.2166   29.5852   45.6378 H   0  0  0  0  0  0  0  0  0  0  0  0
   55.1810   28.6220   45.6440 H   0  0  0  0  0  0  0  0  0  0  0  0
   56.0893   32.2786   44.2249 H   0  0  0  0  0  0  0  0  0  0  0  0
   57.3738   34.2469   45.1435 H   0  0  0  0  0  0  0  0  0  0  0  0
  1  2  1  0
  2  3  1  0
  3  4  1  0
  4  5  1  0
  5  6  1  0
  6  7  1  0
  7  8  1  0
  8  9  1  0
  8 10  2  0
 10 11  1  0
 11 12  2  0
 12 13  1  0
 11 14  1  0
 14 15  1  0
 15 16  1  0
 16 17  1  0
  3 18  2  0
 18 19  1  0
 19 20  2  0
 20 21  1  0
 21 22  1  0
 22 23  1  0
 22 24  2  0
 22 25  2  0
 21 26  2  0
 26 27  1  0
 27 28  2  0
 28  2  1  0
  6  4  1  0
 12  7  1  0
 28 19  1  0
 17 10  1  0
  1 29  1  0
  1 30  1  0
  1 31  1  0
  4 32  1  1
  5 33  1  0
  5 34  1  0
  6 35  1  1
 14 36  1  0
 14 37  1  0
 15 38  1  0
 15 39  1  0
 16 40  1  0
 16 41  1  0
 17 42  1  0
 17 43  1  0
 20 44  1  0
 23 45  1  0
 26 46  1  0
 27 47  1  0
M  CHG  3   9  -1  13  -1  23  -1
M  END
>  <UniqueID>  (76) 
73

>  <SMILES>  (76) 
Cn1c([C@@H]2C[C@@H]2n2c([O-])c3c(c2[O-])CCCC3)nc2cc(S([NH-])(=O)=O)ccc21

>  <Energy>  (76) 
385.7379938865395

>  <Genealogy>  (76) 
Cn1c(C2CC2n2c([O-])c3c(c2[O-])CCCC3)nc2cc(S([NH-])(=O)=O)ccc21 (protonated)
Cn1c([C@@H]2C[C@@H]2n2c([O-])c3c(c2[O-])CCCC3)nc2cc(S([NH-])(=O)=O)ccc21 (chirality)
Cn1c([C@@H]2C[C@@H]2n2c([O-])c3c(c2[O-])CCCC3)nc2cc(S([NH-])(=O)=O)ccc21 (3D coordinates assigned)
Cn1c([C@@H]2C[C@@H]2n2c([O-])c3c(c2[O-])CCCC3)nc2cc(S([NH-])(=O)=O)ccc21 (nonaromatic ring conformer: 385.7379938865395 kcal/mol)

>  <smiles>  (76) 
Cn1c(C2CC2n2c(O)c3c(c2O)CCCC3)nc2cc(S(N)(=O)=O)ccc21

>  <score_type>  (76) 
oracle

>  <origin>  (76) 
adg

>  <m_score__min__energy>  (76) 
-12.67

>  <m_primary>  (76) 
energy

$$$$
76:0
     RDKit          3D

 46 49  0  0  0  0  0  0  0  0999 V2000
   63.1080   33.8360   46.2220 C   0  0  0  0  0  0  0  0  0  0  0  0
   63.2300   33.2440   47.5660 N   0  0  0  0  0  0  0  0  0  0  0  0
   62.1900   33.7530   48.4860 C   0  0  0  0  0  0  0  0  0  0  0  0
   60.7850   33.2720   48.0850 C   0  0  0  0  0  0  0  0  0  0  0  0
   60.8300   31.8910   47.5920 N   0  0  0  0  0  0  0  0  0  0  0  0
   59.7630   31.3780   46.7710 C   0  0  0  0  0  0  0  0  0  0  0  0
   58.8050   32.2440   46.2280 C   0  0  0  0  0  0  0  0  0  0  0  0
   57.7630   31.7460   45.4440 C   0  0  0  0  0  0  0  0  0  0  0  0
   57.6520   30.3700   45.1850 C   0  0  0  0  0  0  0  0  0  0  0  0
   56.6020   29.8980   44.3210 N   0  0  0  0  0  0  0  0  0  0  0  0
   56.6250   30.1450   43.0970 O   0  0  0  0  0  0  0  0  0  0  0  0
   55.4840   29.2990   44.8550 O   0  0  0  0  0  0  0  0  0  0  0  0
   58.5970   29.4860   45.7590 C   0  0  0  0  0  0  0  0  0  0  0  0
   58.4690   28.0630   45.6080 N   0  0  0  0  0  0  0  0  0  0  0  0
   58.2120   27.3700   44.3820 C   0  0  0  0  0  0  0  0  0  0  0  0
   58.3130   27.8890   43.2390 O   0  0  0  0  0  0  0  0  0  0  0  0
   57.7660   26.0100   44.6590 C   0  0  0  0  0  0  0  0  0  0  0  0
   57.4130   24.9770   43.7930 C   0  0  0  0  0  0  0  0  0  0  0  0
   56.9980   23.7570   44.3530 C   0  0  0  0  0  0  0  0  0  0  0  0
   56.9400   23.5960   45.7550 C   0  0  0  0  0  0  0  0  0  0  0  0
   57.2970   24.6570   46.6110 C   0  0  0  0  0  0  0  0  0  0  0  0
   57.2420   24.5210   47.9950 O   0  0  0  0  0  0  0  0  0  0  0  0
   57.7090   25.8570   46.0290 C   0  0  0  0  0  0  0  0  0  0  0  0
   58.1230   27.1220   46.6280 C   0  0  0  0  0  0  0  0  0  0  0  0
   58.1750   27.3650   47.8640 O   0  0  0  0  0  0  0  0  0  0  0  0
   59.6450   29.9990   46.5400 C   0  0  0  0  0  0  0  0  0  0  0  0
   61.9880   31.0620   47.9390 C   0  0  0  0  0  0  0  0  0  0  0  0
   63.2940   31.7600   47.5120 C   0  0  0  0  0  0  0  0  0  0  0  0
   62.8867   34.9097   46.3130 H   0  0  0  0  0  0  0  0  0  0  0  0
   64.0528   33.7014   45.6749 H   0  0  0  0  0  0  0  0  0  0  0  0
   62.2934   33.3388   45.6749 H   0  0  0  0  0  0  0  0  0  0  0  0
   62.4106   33.3981   49.5035 H   0  0  0  0  0  0  0  0  0  0  0  0
   62.2008   34.8519   48.4386 H   0  0  0  0  0  0  0  0  0  0  0  0
   60.1228   33.3208   48.9620 H   0  0  0  0  0  0  0  0  0  0  0  0
   60.4048   33.9214   47.2827 H   0  0  0  0  0  0  0  0  0  0  0  0
   58.8745   33.3247   46.4209 H   0  0  0  0  0  0  0  0  0  0  0  0
   57.0198   32.4396   45.0239 H   0  0  0  0  0  0  0  0  0  0  0  0
   57.4579   25.1127   42.7023 H   0  0  0  0  0  0  0  0  0  0  0  0
   56.7164   22.9216   43.6951 H   0  0  0  0  0  0  0  0  0  0  0  0
   56.6140   22.6359   46.1816 H   0  0  0  0  0  0  0  0  0  0  0  0
   57.5060   25.2810   48.6120 H   0  0  0  0  0  0  0  0  0  0  0  0
   60.3835   29.3106   46.9767 H   0  0  0  0  0  0  0  0  0  0  0  0
   62.0035   30.8975   49.0265 H   0  0  0  0  0  0  0  0  0  0  0  0
   61.9088   30.0992   47.4129 H   0  0  0  0  0  0  0  0  0  0  0  0
   64.1007   31.4237   48.1800 H   0  0  0  0  0  0  0  0  0  0  0  0
   63.4733   31.4864   46.4617 H   0  0  0  0  0  0  0  0  0  0  0  0
  1  2  1  0
  2  3  1  0
  3  4  1  0
  4  5  1  0
  5  6  1  0
  6  7  2  0
  7  8  1  0
  8  9  2  0
  9 10  1  0
 10 11  2  0
 10 12  1  0
  9 13  1  0
 13 14  1  0
 14 15  1  0
 15 16  2  0
 15 17  1  0
 17 18  2  0
 18 19  1  0
 19 20  2  0
 20 21  1  0
 21 22  1  0
 21 23  2  0
 23 24  1  0
 24 25  2  0
 13 26  2  0
  5 27  1  0
 27 28  1  0
 28  2  1  0
 26  6  1  0
 24 14  1  0
 23 17  1  0
  1 29  1  0
  1 30  1  0
  1 31  1  0
  3 32  1  0
  3 33  1  0
  4 34  1  0
  4 35  1  0
  7 36  1  0
  8 37  1  0
 18 38  1  0
 19 39  1  0
 20 40  1  0
 22 41  1  0
 26 42  1  0
 27 43  1  0
 27 44  1  0
 28 45  1  0
 28 46  1  0
M  CHG  2  10   1  12  -1
M  END
>  <UniqueID>  (77) 
74

>  <SMILES>  (77) 
CN1CCN(c2ccc([N+](=O)[O-])c(N3C(=O)c4cccc(O)c4C3=O)c2)CC1

>  <Energy>  (77) 
102.35908504242825

>  <Genealogy>  (77) 
CN1CCN(c2ccc([N+](=O)[O-])c(N3C(=O)c4cccc(O)c4C3=O)c2)CC1 (3D coordinates assigned)
CN1CCN(c2ccc([N+](=O)[O-])c(N3C(=O)c4cccc(O)c4C3=O)c2)CC1 (nonaromatic ring conformer: 102.35908504242825 kcal/mol)

>  <smiles>  (77) 
CN1CCN(c2ccc([N+](=O)[O-])c(N3C(=O)c4cccc(O)c4C3=O)c2)CC1

>  <score_type>  (77) 
oracle

>  <origin>  (77) 
adg

>  <m_score__min__energy>  (77) 
-9.4199999999999999

>  <m_primary>  (77) 
energy

$$$$
77:0
     RDKit          3D

 37 38  0  0  0  0  0  0  0  0999 V2000
   65.0530   32.7050   50.2970 C   0  0  0  0  0  0  0  0  0  0  0  0
   64.8140   33.0710   48.9050 N   0  0  0  0  0  0  0  0  0  0  0  0
   63.5250   33.4550   48.3940 C   0  0  0  0  0  0  0  0  0  0  0  0
   62.4680   33.8250   49.2500 C   0  0  0  0  0  0  0  0  0  0  0  0
   61.2260   34.1920   48.7220 C   0  0  0  0  0  0  0  0  0  0  0  0
   61.0140   34.1870   47.3360 C   0  0  0  0  0  0  0  0  0  0  0  0
   59.6790   34.5830   46.7620 C   0  0  0  0  0  0  0  0  0  0  0  0
   59.2690   33.6510   45.7100 N   0  0  0  0  0  0  0  0  0  0  0  0
   59.0160   32.2470   45.9170 C   0  0  0  0  0  0  0  0  0  0  0  0
   59.8040   31.4700   46.7890 C   0  0  0  0  0  0  0  0  0  0  0  0
   59.5350   30.1090   46.9580 C   0  0  0  0  0  0  0  0  0  0  0  0
   58.4790   29.5100   46.2690 C   0  0  0  0  0  0  0  0  0  0  0  0
   57.6780   30.2720   45.4100 C   0  0  0  0  0  0  0  0  0  0  0  0
   56.3550   29.5140   44.5310 S   0  0  0  0  0  0  0  0  0  0  0  0
   56.8790   29.1230   42.9300 N   0  0  0  0  0  0  0  0  0  0  0  0
   55.9230   28.2620   45.2410 O   0  0  0  0  0  0  0  0  0  0  0  0
   55.1860   30.4550   44.4590 O   0  0  0  0  0  0  0  0  0  0  0  0
   57.9520   31.6350   45.2350 C   0  0  0  0  0  0  0  0  0  0  0  0
   62.0690   33.8300   46.4810 C   0  0  0  0  0  0  0  0  0  0  0  0
   63.3110   33.4640   47.0080 C   0  0  0  0  0  0  0  0  0  0  0  0
   64.5721   33.4415   50.9575 H   0  0  0  0  0  0  0  0  0  0  0  0
   64.6315   31.7077   50.4915 H   0  0  0  0  0  0  0  0  0  0  0  0
   66.1356   32.6899   50.4915 H   0  0  0  0  0  0  0  0  0  0  0  0
   65.6310   33.0490   48.2530 H   0  0  0  0  0  0  0  0  0  0  0  0
   62.6208   33.8251   50.3393 H   0  0  0  0  0  0  0  0  0  0  0  0
   60.4101   34.4865   49.3985 H   0  0  0  0  0  0  0  0  0  0  0  0
   58.9255   34.5766   47.5634 H   0  0  0  0  0  0  0  0  0  0  0  0
   59.7665   35.5896   46.3272 H   0  0  0  0  0  0  0  0  0  0  0  0
   59.2060   34.0300   44.7380 H   0  0  0  0  0  0  0  0  0  0  0  0
   60.6345   31.9366   47.3391 H   0  0  0  0  0  0  0  0  0  0  0  0
   60.1578   29.5075   47.6365 H   0  0  0  0  0  0  0  0  0  0  0  0
   58.2758   28.4371   46.4013 H   0  0  0  0  0  0  0  0  0  0  0  0
   57.9190   29.2260   42.9170 H   0  0  0  0  0  0  0  0  0  0  0  0
   56.6740   28.1100   42.7800 H   0  0  0  0  0  0  0  0  0  0  0  0
   57.3264   32.2324   44.5555 H   0  0  0  0  0  0  0  0  0  0  0  0
   61.9175   33.8384   45.3915 H   0  0  0  0  0  0  0  0  0  0  0  0
   64.1285   33.1803   46.3289 H   0  0  0  0  0  0  0  0  0  0  0  0
  1  2  1  0
  2  3  1  0
  3  4  2  0
  4  5  1  0
  5  6  2  0
  6  7  1  0
  7  8  1  0
  8  9  1  0
  9 10  2  0
 10 11  1  0
 11 12  2  0
 12 13  1  0
 13 14  1  0
 14 15  1  0
 14 16  2  0
 14 17  2  0
 13 18  2  0
  6 19  1  0
 19 20  2  0
 20  3  1  0
 18  9  1  0
  1 21  1  0
  1 22  1  0
  1 23  1  0
  2 24  1  0
  4 25  1  0
  5 26  1  0
  7 27  1  0
  7 28  1  0
  8 29  1  0
 10 30  1  0
 11 31  1  0
 12 32  1  0
 15 33  1  0
 15 34  1  0
 18 35  1  0
 19 36  1  0
 20 37  1  0
M  END
>  <UniqueID>  (78) 
75

>  <SMILES>  (78) 
CNc1ccc(CNc2cccc(S(N)(=O)=O)c2)cc1

>  <Energy>  (78) 
33.559079251559055

>  <Genealogy>  (78) 
CNc1ccc(CNc2cccc(S(N)(=O)=O)c2)cc1 (3D coordinates assigned)
CNc1ccc(CNc2cccc(S(N)(=O)=O)c2)cc1 (optimized conformer: 33.559079251559055 kcal/mol)

>  <smiles>  (78) 
CNc1ccc(CNc2cccc(S(N)(=O)=O)c2)cc1

>  <score_type>  (78) 
oracle

>  <origin>  (78) 
adg

>  <m_score__min__energy>  (78) 
-8.3499999999999996

>  <m_primary>  (78) 
energy

$$$$
78:0
     RDKit          3D

 49 51  0  0  0  0  0  0  0  0999 V2000
   55.5460   25.1250   45.6590 C   0  0  0  0  0  0  0  0  0  0  0  0
   55.5930   26.5040   46.0120 O   0  0  0  0  0  0  0  0  0  0  0  0
   56.6870   27.3490   45.7720 C   0  0  0  0  0  0  0  0  0  0  0  0
   58.0080   26.9700   46.0750 C   0  0  0  0  0  0  0  0  0  0  0  0
   59.0670   27.8430   45.8200 C   0  0  0  0  0  0  0  0  0  0  0  0
   58.8230   29.0950   45.2550 C   0  0  0  0  0  0  0  0  0  0  0  0
   57.5150   29.4830   44.9340 C   0  0  0  0  0  0  0  0  0  0  0  0
   57.2700   30.7820   44.2830 C   0  0  0  0  0  0  0  0  0  0  0  0
   57.6520   30.9550   43.0950 O   0  0  0  0  0  0  0  0  0  0  0  0
   56.6570   31.8750   44.9820 N   0  0  0  0  0  0  0  0  0  0  0  0
   57.0180   33.2850   44.8390 C   0  0  0  0  0  0  0  0  0  0  0  0
   58.1440   33.6550   45.7720 C   0  0  0  0  0  0  0  0  0  0  0  0
   58.0290   33.4250   47.1520 C   0  0  0  0  0  0  0  0  0  0  0  0
   59.0970   33.7090   48.0070 C   0  0  0  0  0  0  0  0  0  0  0  0
   60.2920   34.2300   47.4990 C   0  0  0  0  0  0  0  0  0  0  0  0
   61.3750   34.4740   48.4070 N   0  0  0  0  0  0  0  0  0  0  0  0
   62.6610   33.3580   48.7370 S   0  0  0  0  0  0  0  0  0  0  0  0
   63.3130   33.7220   50.0390 O   0  0  0  0  0  0  0  0  0  0  0  0
   63.6820   33.4430   47.6370 O   0  0  0  0  0  0  0  0  0  0  0  0
   62.0030   31.7290   48.8620 C   0  0  0  0  0  0  0  0  0  0  0  0
   62.0640   31.0500   50.0840 C   0  0  0  0  0  0  0  0  0  0  0  0
   61.5190   29.7680   50.2060 C   0  0  0  0  0  0  0  0  0  0  0  0
   60.8940   29.1600   49.1080 C   0  0  0  0  0  0  0  0  0  0  0  0
   60.3330   27.7740   49.2340 C   0  0  0  0  0  0  0  0  0  0  0  0
   60.8540   29.8320   47.8760 C   0  0  0  0  0  0  0  0  0  0  0  0
   61.4020   31.1130   47.7540 C   0  0  0  0  0  0  0  0  0  0  0  0
   60.3980   34.4930   46.1220 C   0  0  0  0  0  0  0  0  0  0  0  0
   59.3290   34.2110   45.2670 C   0  0  0  0  0  0  0  0  0  0  0  0
   56.4460   28.6090   45.2050 C   0  0  0  0  0  0  0  0  0  0  0  0
   55.1420   28.9800   44.8890 O   0  0  0  0  0  0  0  0  0  0  0  0
   55.5251   24.5131   46.5729 H   0  0  0  0  0  0  0  0  0  0  0  0
   54.6407   24.9290   45.0658 H   0  0  0  0  0  0  0  0  0  0  0  0
   56.4359   24.8678   45.0658 H   0  0  0  0  0  0  0  0  0  0  0  0
   58.2069   25.9815   46.5147 H   0  0  0  0  0  0  0  0  0  0  0  0
   60.0965   27.5430   46.0652 H   0  0  0  0  0  0  0  0  0  0  0  0
   59.6609   29.7807   45.0606 H   0  0  0  0  0  0  0  0  0  0  0  0
   57.3347   33.4713   43.8022 H   0  0  0  0  0  0  0  0  0  0  0  0
   56.1399   33.8976   45.0913 H   0  0  0  0  0  0  0  0  0  0  0  0
   57.0928   33.0189   47.5626 H   0  0  0  0  0  0  0  0  0  0  0  0
   58.9976   33.5218   49.0864 H   0  0  0  0  0  0  0  0  0  0  0  0
   62.5426   31.5266   50.9522 H   0  0  0  0  0  0  0  0  0  0  0  0
   61.5808   29.2350   51.1662 H   0  0  0  0  0  0  0  0  0  0  0  0
   60.2286   27.5160   50.2982 H   0  0  0  0  0  0  0  0  0  0  0  0
   59.3470   27.7319   48.7481 H   0  0  0  0  0  0  0  0  0  0  0  0
   61.0121   27.0580   48.7481 H   0  0  0  0  0  0  0  0  0  0  0  0
   60.3899   29.3492   47.0033 H   0  0  0  0  0  0  0  0  0  0  0  0
   61.3617   31.6381   46.7883 H   0  0  0  0  0  0  0  0  0  0  0  0
   61.3258   34.9224   45.7160 H   0  0  0  0  0  0  0  0  0  0  0  0
   59.4172   34.4262   44.1919 H   0  0  0  0  0  0  0  0  0  0  0  0
  1  2  1  0
  2  3  1  0
  3  4  2  0
  4  5  1  0
  5  6  2  0
  6  7  1  0
  7  8  1  0
  8  9  2  0
  8 10  1  0
 10 11  1  0
 11 12  1  0
 12 13  2  0
 13 14  1  0
 14 15  2  0
 15 16  1  0
 16 17  1  0
 17 18  2  0
 17 19  2  0
 17 20  1  0
 20 21  2  0
 21 22  1  0
 22 23  2  0
 23 24  1  0
 23 25  1  0
 25 26  2  0
 15 27  1  0
 27 28  2  0
  7 29  2  0
 29 30  1  0
 29  3  1  0
 28 12  1  0
 26 20  1  0
  1 31  1  0
  1 32  1  0
  1 33  1  0
  4 34  1  0
  5 35  1  0
  6 36  1  0
 11 37  1  0
 11 38  1  0
 13 39  1  0
 14 40  1  0
 21 41  1  0
 22 42  1  0
 24 43  1  0
 24 44  1  0
 24 45  1  0
 25 46  1  0
 26 47  1  0
 27 48  1  0
 28 49  1  0
M  CHG  3  10  -1  16  -1  30  -1
M  END
>  <UniqueID>  (79) 
76

>  <SMILES>  (79) 
COc1cccc(C(=O)[N-]Cc2ccc([N-]S(=O)(=O)c3ccc(C)cc3)cc2)c1[O-]

>  <Energy>  (79) 
53.06057563344477

>  <Genealogy>  (79) 
COc1cccc(C(=O)[N-]Cc2ccc([N-]S(=O)(=O)c3ccc(C)cc3)cc2)c1[O-] (protonated)
COc1cccc(C(=O)[N-]Cc2ccc([N-]S(=O)(=O)c3ccc(C)cc3)cc2)c1[O-] (3D coordinates assigned)
COc1cccc(C(=O)[N-]Cc2ccc([N-]S(=O)(=O)c3ccc(C)cc3)cc2)c1[O-] (optimized conformer: 53.06057563344477 kcal/mol)

>  <smiles>  (79) 
COc1cccc(C(=O)NCc2ccc(NS(=O)(=O)c3ccc(C)cc3)cc2)c1O

>  <score_type>  (79) 
oracle

>  <origin>  (79) 
adg

>  <m_score__min__energy>  (79) 
-16.100000000000001

>  <m_primary>  (79) 
energy

$$$$
79:0
     RDKit          3D

 52 55  0  0  1  0  0  0  0  0999 V2000
   61.2230   30.5140   47.1850 C   0  0  0  0  0  0  0  0  0  0  0  0
   59.8470   30.2140   47.0680 O   0  0  0  0  0  0  0  0  0  0  0  0
   59.2860   29.5710   45.9860 C   0  0  0  0  0  0  0  0  0  0  0  0
   59.9570   28.5390   45.3540 C   0  0  0  0  0  0  0  0  0  0  0  0
   59.3970   27.8960   44.2720 C   0  0  0  0  0  0  0  0  0  0  0  0
   63.4970   33.5810   46.6230 C   0  0  0  0  0  0  0  0  0  0  0  0
   62.1350   33.9050   46.6580 C   0  0  0  0  0  0  0  0  0  0  0  0
   61.4790   33.8020   47.8790 C   0  0  0  0  0  0  0  0  0  0  0  0
   57.3930   30.9990   46.1890 N   0  0  0  0  0  0  0  0  0  0  0  0
   57.8940   32.1780   46.0480 C   0  0  0  0  0  0  0  0  0  0  0  0
   57.6570   32.9770   44.9970 N   0  0  0  0  0  0  0  0  0  0  0  0
   58.2000   34.1960   44.8410 C   0  0  0  0  0  0  0  0  0  0  0  0
   59.0610   34.6400   45.8440 C   0  0  0  0  0  0  0  0  0  0  0  0
   59.6710   35.8370   45.8110 F   0  0  0  0  0  0  0  0  0  0  0  0
   59.3050   33.8060   46.9340 C   0  0  0  0  0  0  0  0  0  0  0  0
   60.1000   34.1460   47.8850 N   0  0  0  0  0  0  0  0  0  0  0  0
   58.0260   29.9350   45.4870 C   0  0  0  0  0  0  0  0  0  0  0  0
   57.4720   29.2910   44.4070 C   0  0  0  0  0  0  0  0  0  0  0  0
   58.1520   28.2720   43.7960 C   0  0  0  0  0  0  0  0  0  0  0  0
   64.1480   33.1750   47.7710 C   0  0  0  0  0  0  0  0  0  0  0  0
   63.4670   33.0800   48.9840 C   0  0  0  0  0  0  0  0  0  0  0  0
   62.1050   33.4000   49.0360 C   0  0  0  0  0  0  0  0  0  0  0  0
   61.3790   33.2770   50.3150 C   0  0  0  0  0  0  0  0  0  0  0  0
   61.5210   34.1990   51.1620 O   0  0  0  0  0  0  0  0  0  0  0  0
   60.5650   32.1350   50.5240 N   0  0  0  0  0  0  0  0  0  0  0  0
   59.4160   32.1840   51.0900 C   0  0  0  0  0  0  0  0  0  0  0  0
   59.2990   32.9780   52.1850 N   0  0  0  0  0  0  0  0  0  0  0  0
   58.1010   33.0490   52.7960 C   0  0  0  0  0  0  0  0  0  0  0  0
   56.9900   32.3460   52.3510 C   0  0  0  0  0  0  0  0  0  0  0  0
   57.1530   31.5610   51.2450 C   0  0  0  0  0  0  0  0  0  0  0  0
   58.3700   31.4660   50.5960 C   0  0  0  0  0  0  0  0  0  0  0  0
   58.4610   30.6490   49.4780 O   0  0  0  0  0  0  0  0  0  0  0  0
   58.7300   32.5860   47.0420 N   0  0  0  0  0  0  0  0  0  0  0  0
   61.4961   30.5735   48.2489 H   0  0  0  0  0  0  0  0  0  0  0  0
   61.8133   29.7235   46.6986 H   0  0  0  0  0  0  0  0  0  0  0  0
   61.4306   31.4785   46.6986 H   0  0  0  0  0  0  0  0  0  0  0  0
   60.9472   28.2290   45.7191 H   0  0  0  0  0  0  0  0  0  0  0  0
   59.9435   27.0768   43.7818 H   0  0  0  0  0  0  0  0  0  0  0  0
   64.0514   33.6504   45.6755 H   0  0  0  0  0  0  0  0  0  0  0  0
   61.6033   34.2295   45.7514 H   0  0  0  0  0  0  0  0  0  0  0  0
   57.0030   32.6200   44.2530 H   0  0  0  0  0  0  0  0  0  0  0  0
   57.9753   34.8164   43.9609 H   0  0  0  0  0  0  0  0  0  0  0  0
   56.4827   29.5941   44.0336 H   0  0  0  0  0  0  0  0  0  0  0  0
   57.7116   27.7543   42.9311 H   0  0  0  0  0  0  0  0  0  0  0  0
   65.2179   32.9232   47.7280 H   0  0  0  0  0  0  0  0  0  0  0  0
   63.9956   32.7563   49.8927 H   0  0  0  0  0  0  0  0  0  0  0  0
   60.1180   33.5290   52.5600 H   0  0  0  0  0  0  0  0  0  0  0  0
   57.9988   33.6902   53.6839 H   0  0  0  0  0  0  0  0  0  0  0  0
   56.0208   32.4178   52.8663 H   0  0  0  0  0  0  0  0  0  0  0  0
   56.2945   30.9902   50.8612 H   0  0  0  0  0  0  0  0  0  0  0  0
   59.3900   30.6170   49.0430 H   0  0  0  0  0  0  0  0  0  0  0  0
   58.9170   31.9810   47.8470 H   0  0  0  0  0  0  0  0  0  0  0  0
  1  2  1  0
  2  3  1  0
  3  4  2  0
  4  5  1  0
  5  6  2  0
  6  7  1  0
  7  8  2  0
  8  9  1  0
  9 10  2  0
 10 11  1  0
 11 12  1  0
 12 13  2  0
 13 14  1  0
 13 15  1  0
 15 16  2  0
 16 17  1  0
 17 18  2  0
 18 19  1  0
 19 20  2  0
 20 21  1  0
 21 22  2  0
 22 23  1  0
 23 24  2  0
 23 25  1  0
 25 26  2  0
 26 27  1  0
 27 28  1  0
 28 29  2  0
 29 30  1  0
 30 31  2  0
 31 32  1  0
 15 33  1  0
  8  3  1  0
 33 10  1  0
 22 17  1  0
 31 26  1  0
  1 34  1  0
  1 35  1  0
  1 36  1  0
  4 37  1  0
  5 38  1  0
  6 39  1  0
  7 40  1  0
 11 41  1  0
 12 42  1  0
 18 43  1  0
 19 44  1  0
 20 45  1  0
 21 46  1  0
 27 47  1  0
 28 48  1  0
 29 49  1  0
 30 50  1  0
 32 51  1  0
 33 52  1  0
M  END
>  <smiles>  (80) 
COc1ccccc1N=c1[nH]cc(F)c(=Nc2ccccc2C(=O)N=c2[nH]cccc2O)[nH]1

>  <score_type>  (80) 
oracle

>  <origin>  (80) 
adg

>  <m_score__min__energy>  (80) 
-9.1799999999999997

>  <m_primary>  (80) 
energy

$$$$
80:0
     RDKit          3D

 55 58  0  0  0  0  0  0  0  0999 V2000
   56.5060   29.3610   52.3800 O   0  0  0  0  0  0  0  0  0  0  0  0
   57.0680   30.2280   51.6560 C   0  0  0  0  0  0  0  0  0  0  0  0
   56.6870   31.6670   51.7890 C   0  0  0  0  0  0  0  0  0  0  0  0
   57.6880   32.3780   52.6600 C   0  0  0  0  0  0  0  0  0  0  0  0
   58.2350   31.7400   53.7830 C   0  0  0  0  0  0  0  0  0  0  0  0
   59.1270   32.4360   54.6030 C   0  0  0  0  0  0  0  0  0  0  0  0
   59.4490   33.7270   54.3210 N   0  0  0  0  0  0  0  0  0  0  0  0
   58.9250   34.3730   53.2460 C   0  0  0  0  0  0  0  0  0  0  0  0
   58.0320   33.7130   52.3980 C   0  0  0  0  0  0  0  0  0  0  0  0
   58.1260   29.8530   50.7680 N   0  0  0  0  0  0  0  0  0  0  0  0
   59.5130   30.2660   50.9670 C   0  0  0  0  0  0  0  0  0  0  0  0
   59.8180   31.5290   50.1850 C   0  0  0  0  0  0  0  0  0  0  0  0
   59.3570   31.6360   48.8560 C   0  0  0  0  0  0  0  0  0  0  0  0
   59.5430   32.8120   48.1150 C   0  0  0  0  0  0  0  0  0  0  0  0
   59.0030   32.9230   46.7380 C   0  0  0  0  0  0  0  0  0  0  0  0
   59.6060   33.7790   45.8020 C   0  0  0  0  0  0  0  0  0  0  0  0
   59.0770   33.9040   44.5150 C   0  0  0  0  0  0  0  0  0  0  0  0
   57.9450   33.1740   44.1470 C   0  0  0  0  0  0  0  0  0  0  0  0
   57.3330   32.3050   45.0660 C   0  0  0  0  0  0  0  0  0  0  0  0
   56.1680   31.5370   44.7330 N   0  0  0  0  0  0  0  0  0  0  0  0
   56.1820   29.9490   44.0370 S   0  0  0  0  0  0  0  0  0  0  0  0
   54.7860   29.3930   44.0700 O   0  0  0  0  0  0  0  0  0  0  0  0
   56.6360   30.0450   42.6080 O   0  0  0  0  0  0  0  0  0  0  0  0
   57.3100   28.9200   44.9260 C   0  0  0  0  0  0  0  0  0  0  0  0
   58.6730   29.2510   44.9320 C   0  0  0  0  0  0  0  0  0  0  0  0
   59.5870   28.4710   45.6450 C   0  0  0  0  0  0  0  0  0  0  0  0
   59.1480   27.3470   46.3480 C   0  0  0  0  0  0  0  0  0  0  0  0
   57.7950   26.9970   46.3310 C   0  0  0  0  0  0  0  0  0  0  0  0
   56.8740   27.7770   45.6230 C   0  0  0  0  0  0  0  0  0  0  0  0
   55.5340   27.4050   45.6170 O   0  0  0  0  0  0  0  0  0  0  0  0
   57.8660   32.1860   46.3560 C   0  0  0  0  0  0  0  0  0  0  0  0
   60.2290   33.8860   48.7010 C   0  0  0  0  0  0  0  0  0  0  0  0
   60.7470   33.7700   49.9910 C   0  0  0  0  0  0  0  0  0  0  0  0
   60.5720   32.5960   50.7310 C   0  0  0  0  0  0  0  0  0  0  0  0
   61.1720   32.5300   51.9910 O   0  0  0  0  0  0  0  0  0  0  0  0
   56.6711   32.1346   50.7935 H   0  0  0  0  0  0  0  0  0  0  0  0
   55.6894   31.7391   52.2467 H   0  0  0  0  0  0  0  0  0  0  0  0
   57.9639   30.6998   54.0164 H   0  0  0  0  0  0  0  0  0  0  0  0
   59.5698   31.9387   55.4786 H   0  0  0  0  0  0  0  0  0  0  0  0
   59.2045   35.4174   53.0433 H   0  0  0  0  0  0  0  0  0  0  0  0
   57.6017   34.2361   51.5313 H   0  0  0  0  0  0  0  0  0  0  0  0
   59.6827   30.4551   52.0373 H   0  0  0  0  0  0  0  0  0  0  0  0
   60.1741   29.4627   50.6097 H   0  0  0  0  0  0  0  0  0  0  0  0
   58.8423   30.7814   48.3925 H   0  0  0  0  0  0  0  0  0  0  0  0
   60.5001   34.3544   46.0839 H   0  0  0  0  0  0  0  0  0  0  0  0
   59.5537   34.5795   43.7894 H   0  0  0  0  0  0  0  0  0  0  0  0
   57.5307   33.2797   43.1335 H   0  0  0  0  0  0  0  0  0  0  0  0
   59.0245   30.1301   44.3719 H   0  0  0  0  0  0  0  0  0  0  0  0
   60.6530   28.7424   45.6526 H   0  0  0  0  0  0  0  0  0  0  0  0
   59.8669   26.7373   46.9150 H   0  0  0  0  0  0  0  0  0  0  0  0
   57.4529   26.1050   46.8763 H   0  0  0  0  0  0  0  0  0  0  0  0
   57.3900   31.5080   47.0797 H   0  0  0  0  0  0  0  0  0  0  0  0
   60.3591   34.8238   48.1409 H   0  0  0  0  0  0  0  0  0  0  0  0
   61.3001   34.6124   50.4319 H   0  0  0  0  0  0  0  0  0  0  0  0
   60.6930   32.7450   52.8550 H   0  0  0  0  0  0  0  0  0  0  0  0
  1  2  2  0
  2  3  1  0
  3  4  1  0
  4  5  2  0
  5  6  1  0
  6  7  2  0
  7  8  1  0
  8  9  2  0
  2 10  1  0
 10 11  1  0
 11 12  1  0
 12 13  2  0
 13 14  1  0
 14 15  1  0
 15 16  2  0
 16 17  1  0
 17 18  2  0
 18 19  1  0
 19 20  1  0
 20 21  1  0
 21 22  2  0
 21 23  2  0
 21 24  1  0
 24 25  2  0
 25 26  1  0
 26 27  2  0
 27 28  1  0
 28 29  2  0
 29 30  1  0
 19 31  2  0
 14 32  2  0
 32 33  1  0
 33 34  2  0
 34 35  1  0
  9  4  1  0
 34 12  1  0
 31 15  1  0
 29 24  1  0
  3 36  1  0
  3 37  1  0
  5 38  1  0
  6 39  1  0
  8 40  1  0
  9 41  1  0
 11 42  1  0
 11 43  1  0
 13 44  1  0
 16 45  1  0
 17 46  1  0
 18 47  1  0
 25 48  1  0
 26 49  1  0
 27 50  1  0
 28 51  1  0
 31 52  1  0
 32 53  1  0
 33 54  1  0
 35 55  1  0
M  CHG  3  10  -1  20  -1  30  -1
M  END
>  <UniqueID>  (81) 
77

>  <SMILES>  (81) 
O=C(Cc1ccncc1)[N-]Cc1cc(-c2cccc([N-]S(=O)(=O)c3ccccc3[O-])c2)ccc1O

>  <Energy>  (81) 
64.48832441548937

>  <Genealogy>  (81) 
O=C(Cc1ccncc1)[N-]Cc1cc(-c2cccc([N-]S(=O)(=O)c3ccccc3[O-])c2)ccc1O (protonated)
O=C(Cc1ccncc1)[N-]Cc1cc(-c2cccc([N-]S(=O)(=O)c3ccccc3[O-])c2)ccc1O (3D coordinates assigned)
O=C(Cc1ccncc1)[N-]Cc1cc(-c2cccc([N-]S(=O)(=O)c3ccccc3[O-])c2)ccc1O (optimized conformer: 64.48832441548937 kcal/mol)

>  <smiles>  (81) 
O=C(Cc1ccncc1)NCc1cc(-c2cccc(NS(=O)(=O)c3ccccc3O)c2)ccc1O

>  <score_type>  (81) 
oracle

>  <origin>  (81) 
adg

>  <m_score__min__energy>  (81) 
-15.390000000000001

>  <m_primary>  (81) 
energy

$$$$
81:0
     RDKit          3D

 26 27  0  0  1  0  0  0  0  0999 V2000
   55.4050   29.1830   45.1870 O   0  0  0  0  0  0  0  0  0  0  0  0
   56.7930   28.9590   45.1090 C   0  0  0  0  0  0  0  0  0  0  0  0
   57.2990   27.6720   45.1300 C   0  0  0  0  0  0  0  0  0  0  0  0
   58.6900   27.5430   45.0480 C   0  0  0  0  0  0  0  0  0  0  0  0
   59.4890   28.6670   44.9520 C   0  0  0  0  0  0  0  0  0  0  0  0
   58.9450   29.8950   44.9350 N   0  0  0  0  0  0  0  0  0  0  0  0
   57.6330   30.0730   45.0100 C   0  0  0  0  0  0  0  0  0  0  0  0
   57.0970   31.2310   44.9960 N   0  0  0  0  0  0  0  0  0  0  0  0
   57.3890   32.2180   44.0130 C   0  0  0  0  0  0  0  0  0  0  0  0
   57.4290   31.8620   42.4030 S   0  0  0  0  0  0  0  0  0  0  0  0
   57.6110   33.5370   44.5000 N   0  0  0  0  0  0  0  0  0  0  0  0
   58.2150   33.8180   45.5860 C   0  0  0  0  0  0  0  0  0  0  0  0
   59.2150   34.7880   45.5180 C   0  0  0  0  0  0  0  0  0  0  0  0
   59.8700   35.0940   46.6920 C   0  0  0  0  0  0  0  0  0  0  0  0
   59.5030   34.4300   47.8560 C   0  0  0  0  0  0  0  0  0  0  0  0
   58.5300   33.5080   47.8480 N   0  0  0  0  0  0  0  0  0  0  0  0
   57.8990   33.2100   46.7290 N   0  0  0  0  0  0  0  0  0  0  0  0
   55.1860   30.0880   45.6210 H   0  0  0  0  0  0  0  0  0  0  0  0
   56.6410   26.7939   45.2073 H   0  0  0  0  0  0  0  0  0  0  0  0
   59.1493   26.5436   45.0600 H   0  0  0  0  0  0  0  0  0  0  0  0
   60.5814   28.5546   44.8889 H   0  0  0  0  0  0  0  0  0  0  0  0
   59.5780   30.7110   44.8620 H   0  0  0  0  0  0  0  0  0  0  0  0
   59.4695   35.2862   44.5709 H   0  0  0  0  0  0  0  0  0  0  0  0
   60.6687   35.8502   46.7068 H   0  0  0  0  0  0  0  0  0  0  0  0
   60.0189   34.6646   48.7988 H   0  0  0  0  0  0  0  0  0  0  0  0
   57.1540   32.4920   46.7570 H   0  0  0  0  0  0  0  0  0  0  0  0
  1  2  1  0
  2  3  2  0
  3  4  1  0
  4  5  2  0
  5  6  1  0
  6  7  1  0
  7  8  2  0
  8  9  1  0
  9 10  2  0
  9 11  1  0
 11 12  2  0
 12 13  1  0
 13 14  2  0
 14 15  1  0
 15 16  2  0
 16 17  1  0
  7  2  1  0
 17 12  1  0
  1 18  1  0
  3 19  1  0
  4 20  1  0
  5 21  1  0
  6 22  1  0
 13 23  1  0
 14 24  1  0
 15 25  1  0
 17 26  1  0
M  END
>  <smiles>  (82) 
Oc1ccc[nH]c1=NC(=S)N=c1cccn[nH]1

>  <score_type>  (82) 
oracle

>  <origin>  (82) 
adg

>  <m_score__min__energy>  (82) 
-7.1500000000000004

>  <m_primary>  (82) 
energy

$$$$
82:0
     RDKit          3D

 54 56  0  0  0  0  0  0  0  0999 V2000
   59.6210   33.7860   49.5410 C   0  0  0  0  0  0  0  0  0  0  0  0
   61.0130   33.7650   48.9780 C   0  0  0  0  0  0  0  0  0  0  0  0
   62.0520   33.6490   49.8440 N   0  0  0  0  0  0  0  0  0  0  0  0
   63.3290   33.6070   49.4090 C   0  0  0  0  0  0  0  0  0  0  0  0
   64.2640   33.5020   50.2380 O   0  0  0  0  0  0  0  0  0  0  0  0
   63.6000   33.6720   48.0820 N   0  0  0  0  0  0  0  0  0  0  0  0
   62.6100   33.7840   47.1680 C   0  0  0  0  0  0  0  0  0  0  0  0
   62.9060   33.8370   45.9420 O   0  0  0  0  0  0  0  0  0  0  0  0
   61.2690   33.8380   47.5860 C   0  0  0  0  0  0  0  0  0  0  0  0
   60.1610   34.0040   46.5640 C   0  0  0  0  0  0  0  0  0  0  0  0
   59.5180   32.6640   46.1810 C   0  0  0  0  0  0  0  0  0  0  0  0
   58.0220   32.6760   46.3770 C   0  0  0  0  0  0  0  0  0  0  0  0
   57.5140   33.5490   47.1310 O   0  0  0  0  0  0  0  0  0  0  0  0
   57.1450   31.8500   45.5920 N   0  0  0  0  0  0  0  0  0  0  0  0
   57.4770   30.7890   44.9580 N   0  0  0  0  0  0  0  0  0  0  0  0
   57.1690   29.4480   45.3600 C   0  0  0  0  0  0  0  0  0  0  0  0
   55.9590   28.7800   45.2390 C   0  0  0  0  0  0  0  0  0  0  0  0
   54.7770   29.3390   44.7640 O   0  0  0  0  0  0  0  0  0  0  0  0
   56.0660   27.4820   45.6060 N   0  0  0  0  0  0  0  0  0  0  0  0
   57.3680   27.3320   45.9390 C   0  0  0  0  0  0  0  0  0  0  0  0
   58.0020   26.1510   46.3620 C   0  0  0  0  0  0  0  0  0  0  0  0
   57.2400   24.8950   46.5590 C   0  0  0  0  0  0  0  0  0  0  0  0
   57.6470   24.0480   47.4020 O   0  0  0  0  0  0  0  0  0  0  0  0
   56.0460   24.6250   45.8060 N   0  0  0  0  0  0  0  0  0  0  0  0
   55.3890   23.3180   45.8860 C   0  0  0  0  0  0  0  0  0  0  0  0
   56.2400   22.2010   45.2350 C   0  0  0  0  0  0  0  0  0  0  0  0
   56.0240   22.0200   43.7820 N   0  0  0  0  0  0  0  0  0  0  0  0
   57.0020   21.1140   43.1580 C   0  0  0  0  0  0  0  0  0  0  0  0
   55.9190   23.2920   43.0480 C   0  0  0  0  0  0  0  0  0  0  0  0
   59.3910   26.2250   46.6270 C   0  0  0  0  0  0  0  0  0  0  0  0
   60.0980   27.4350   46.4580 C   0  0  0  0  0  0  0  0  0  0  0  0
   59.4360   28.5940   46.0250 C   0  0  0  0  0  0  0  0  0  0  0  0
   58.0690   28.5040   45.7780 C   0  0  0  0  0  0  0  0  0  0  0  0
   59.6699   33.7853   50.6399 H   0  0  0  0  0  0  0  0  0  0  0  0
   59.1003   34.6921   49.1977 H   0  0  0  0  0  0  0  0  0  0  0  0
   59.0732   32.8960   49.1977 H   0  0  0  0  0  0  0  0  0  0  0  0
   59.3859   34.6608   46.9857 H   0  0  0  0  0  0  0  0  0  0  0  0
   60.6032   34.4377   45.6549 H   0  0  0  0  0  0  0  0  0  0  0  0
   59.7355   32.4557   45.1230 H   0  0  0  0  0  0  0  0  0  0  0  0
   59.9393   31.8867   46.8355 H   0  0  0  0  0  0  0  0  0  0  0  0
   55.6290   25.3860   45.2270 H   0  0  0  0  0  0  0  0  0  0  0  0
   55.2239   23.0676   46.9443 H   0  0  0  0  0  0  0  0  0  0  0  0
   54.4366   23.3822   45.3393 H   0  0  0  0  0  0  0  0  0  0  0  0
   57.3011   22.4425   45.3953 H   0  0  0  0  0  0  0  0  0  0  0  0
   55.9309   21.2595   45.7126 H   0  0  0  0  0  0  0  0  0  0  0  0
   57.5681   20.5895   43.9419 H   0  0  0  0  0  0  0  0  0  0  0  0
   56.4740   20.3788   42.5329 H   0  0  0  0  0  0  0  0  0  0  0  0
   57.6947   21.6966   42.5329 H   0  0  0  0  0  0  0  0  0  0  0  0
   55.8503   24.1240   43.7642 H   0  0  0  0  0  0  0  0  0  0  0  0
   56.8092   23.4250   42.4157 H   0  0  0  0  0  0  0  0  0  0  0  0
   55.0190   23.2773   42.4157 H   0  0  0  0  0  0  0  0  0  0  0  0
   59.9265   25.3272   46.9693 H   0  0  0  0  0  0  0  0  0  0  0  0
   61.1773   27.4697   46.6676 H   0  0  0  0  0  0  0  0  0  0  0  0
   59.9784   29.5408   45.8856 H   0  0  0  0  0  0  0  0  0  0  0  0
  1  2  1  0
  2  3  1  0
  3  4  1  0
  4  5  2  0
  4  6  1  0
  6  7  1  0
  7  8  2  0
  7  9  1  0
  9 10  1  0
 10 11  1  0
 11 12  1  0
 12 13  2  0
 12 14  1  0
 14 15  2  3
 15 16  1  0
 16 17  2  0
 17 18  1  0
 17 19  1  0
 19 20  1  0
 20 21  2  0
 21 22  1  0
 22 23  2  0
 22 24  1  0
 24 25  1  0
 25 26  1  0
 26 27  1  0
 27 28  1  0
 27 29  1  0
 21 30  1  0
 30 31  2  0
 31 32  1  0
 32 33  2  0
  9  2  2  0
 33 16  1  0
 33 20  1  0
  1 34  1  0
  1 35  1  0
  1 36  1  0
 10 37  1  0
 10 38  1  0
 11 39  1  0
 11 40  1  0
 24 41  1  0
 25 42  1  0
 25 43  1  0
 26 44  1  0
 26 45  1  0
 28 46  1  0
 28 47  1  0
 28 48  1  0
 29 49  1  0
 29 50  1  0
 29 51  1  0
 30 52  1  0
 31 53  1  0
 32 54  1  0
M  CHG  4   3  -1   6  -1  18  -1  19  -1
M  END
>  <UniqueID>  (83) 
78

>  <SMILES>  (83) 
Cc1[n-]c(=O)[n-]c(=O)c1CCC(=O)N=Nc1c([O-])[n-]c2c(C(=O)NCCN(C)C)cccc12

>  <Energy>  (83) 
105.51974323645196

>  <Genealogy>  (83) 
Cc1[n-]c(=O)[n-]c(=O)c1CCC(=O)N=Nc1c([O-])[n-]c2c(C(=O)NCCN(C)C)cccc12 (protonated)
Cc1[n-]c(=O)[n-]c(=O)c1CCC(=O)N=Nc1c([O-])[n-]c2c(C(=O)NCCN(C)C)cccc12 (3D coordinates assigned)
Cc1[n-]c(=O)[n-]c(=O)c1CCC(=O)N=Nc1c([O-])[n-]c2c(C(=O)NCCN(C)C)cccc12 (optimized conformer: 105.51974323645196 kcal/mol)

>  <smiles>  (83) 
Cc1[nH]c(=O)[nH]c(=O)c1CCC(=O)N=Nc1c(O)[nH]c2c(C(=O)NCCN(C)C)cccc12

>  <score_type>  (83) 
oracle

>  <origin>  (83) 
adg

>  <m_score__min__energy>  (83) 
-16.969999999999999

>  <m_primary>  (83) 
energy

$$$$
83:0
     RDKit          3D

 58 61  0  0  0  0  0  0  0  0999 V2000
   62.0910   30.9010   49.7000 C   0  0  0  0  0  0  0  0  0  0  0  0
   61.4080   31.6250   50.8540 C   0  0  0  0  0  0  0  0  0  0  0  0
   60.2940   30.7970   51.3730 N   0  0  0  0  0  0  0  0  0  0  0  0
   59.0170   31.5520   51.4500 C   0  0  0  0  0  0  0  0  0  0  0  0
   59.1470   33.0530   51.1430 C   0  0  0  0  0  0  0  0  0  0  0  0
   60.2020   29.4890   50.6870 C   0  0  0  0  0  0  0  0  0  0  0  0
   58.8950   29.3490   49.8950 C   0  0  0  0  0  0  0  0  0  0  0  0
   59.0910   29.8190   48.5240 N   0  0  0  0  0  0  0  0  0  0  0  0
   58.9900   31.1050   48.1240 C   0  0  0  0  0  0  0  0  0  0  0  0
   59.0340   31.1760   46.7430 C   0  0  0  0  0  0  0  0  0  0  0  0
   58.8380   32.3780   45.9180 C   0  0  0  0  0  0  0  0  0  0  0  0
   59.5850   33.4880   45.9590 C   0  0  0  0  0  0  0  0  0  0  0  0
   60.7330   33.7270   46.8520 C   0  0  0  0  0  0  0  0  0  0  0  0
   62.0460   33.5300   46.3970 C   0  0  0  0  0  0  0  0  0  0  0  0
   63.1260   33.7250   47.2650 C   0  0  0  0  0  0  0  0  0  0  0  0
   62.9020   34.1310   48.5840 C   0  0  0  0  0  0  0  0  0  0  0  0
   61.5970   34.3500   49.0350 C   0  0  0  0  0  0  0  0  0  0  0  0
   60.5150   34.1540   48.1720 C   0  0  0  0  0  0  0  0  0  0  0  0
   58.8810   34.5200   45.1960 C   0  0  0  0  0  0  0  0  0  0  0  0
   59.2670   35.7090   45.0500 O   0  0  0  0  0  0  0  0  0  0  0  0
   57.6710   34.0140   44.6550 N   0  0  0  0  0  0  0  0  0  0  0  0
   57.6440   32.6760   45.1250 C   0  0  0  0  0  0  0  0  0  0  0  0
   56.7020   31.8730   44.8940 O   0  0  0  0  0  0  0  0  0  0  0  0
   59.1620   29.8750   46.2910 C   0  0  0  0  0  0  0  0  0  0  0  0
   59.2070   29.0680   47.4060 C   0  0  0  0  0  0  0  0  0  0  0  0
   59.1760   27.5660   47.3370 C   0  0  0  0  0  0  0  0  0  0  0  0
   59.5740   27.0760   45.9310 C   0  0  0  0  0  0  0  0  0  0  0  0
   58.8530   27.8740   44.8270 C   0  0  0  0  0  0  0  0  0  0  0  0
   59.2180   29.3690   44.8790 C   0  0  0  0  0  0  0  0  0  0  0  0
   62.7942   30.1555   50.0997 H   0  0  0  0  0  0  0  0  0  0  0  0
   61.3326   30.3961   49.0837 H   0  0  0  0  0  0  0  0  0  0  0  0
   62.6392   31.6287   49.0837 H   0  0  0  0  0  0  0  0  0  0  0  0
   62.1377   31.8018   51.6579 H   0  0  0  0  0  0  0  0  0  0  0  0
   61.0116   32.5870   50.4972 H   0  0  0  0  0  0  0  0  0  0  0  0
   58.3135   31.1127   50.7274 H   0  0  0  0  0  0  0  0  0  0  0  0
   58.6681   31.4734   52.4902 H   0  0  0  0  0  0  0  0  0  0  0  0
   59.1959   33.6172   52.0860 H   0  0  0  0  0  0  0  0  0  0  0  0
   60.0639   33.2303   50.5617 H   0  0  0  0  0  0  0  0  0  0  0  0
   58.2743   33.3853   50.5617 H   0  0  0  0  0  0  0  0  0  0  0  0
   61.0503   29.3906   49.9936 H   0  0  0  0  0  0  0  0  0  0  0  0
   60.2226   28.7000   51.4532 H   0  0  0  0  0  0  0  0  0  0  0  0
   58.5901   28.2922   49.8782 H   0  0  0  0  0  0  0  0  0  0  0  0
   58.1129   29.9540   50.3769 H   0  0  0  0  0  0  0  0  0  0  0  0
   58.8878   31.9689   48.7972 H   0  0  0  0  0  0  0  0  0  0  0  0
   62.2263   33.2219   45.3565 H   0  0  0  0  0  0  0  0  0  0  0  0
   64.1534   33.5585   46.9089 H   0  0  0  0  0  0  0  0  0  0  0  0
   63.7521   34.2780   49.2665 H   0  0  0  0  0  0  0  0  0  0  0  0
   61.4214   34.6770   50.0705 H   0  0  0  0  0  0  0  0  0  0  0  0
   59.4899   34.3347   48.5278 H   0  0  0  0  0  0  0  0  0  0  0  0
   56.9450   34.5220   44.1010 H   0  0  0  0  0  0  0  0  0  0  0  0
   59.8812   27.1562   48.0751 H   0  0  0  0  0  0  0  0  0  0  0  0
   58.1535   27.2234   47.5542 H   0  0  0  0  0  0  0  0  0  0  0  0
   60.6604   27.1948   45.8058 H   0  0  0  0  0  0  0  0  0  0  0  0
   59.2812   26.0197   45.8391 H   0  0  0  0  0  0  0  0  0  0  0  0
   59.1435   27.4694   43.8462 H   0  0  0  0  0  0  0  0  0  0  0  0
   57.7687   27.7785   44.9854 H   0  0  0  0  0  0  0  0  0  0  0  0
   60.2357   29.5071   44.4851 H   0  0  0  0  0  0  0  0  0  0  0  0
   58.4960   29.9329   44.2701 H   0  0  0  0  0  0  0  0  0  0  0  0
  1  2  1  0
  2  3  1  0
  3  4  1  0
  4  5  1  0
  3  6  1  0
  6  7  1  0
  7  8  1  0
  8  9  1  0
  9 10  2  0
 10 11  1  0
 11 12  2  0
 12 13  1  0
 13 14  2  0
 14 15  1  0
 15 16  2  0
 16 17  1  0
 17 18  2  0
 12 19  1  0
 19 20  2  0
 19 21  1  0
 21 22  1  0
 22 23  2  0
 10 24  1  0
 24 25  2  0
 25 26  1  0
 26 27  1  0
 27 28  1  0
 28 29  1  0
 25  8  1  0
 22 11  1  0
 29 24  1  0
 18 13  1  0
  1 30  1  0
  1 31  1  0
  1 32  1  0
  2 33  1  0
  2 34  1  0
  4 35  1  0
  4 36  1  0
  5 37  1  0
  5 38  1  0
  5 39  1  0
  6 40  1  0
  6 41  1  0
  7 42  1  0
  7 43  1  0
  9 44  1  0
 14 45  1  0
 15 46  1  0
 16 47  1  0
 17 48  1  0
 18 49  1  0
 21 50  1  0
 26 51  1  0
 26 52  1  0
 27 53  1  0
 27 54  1  0
 28 55  1  0
 28 56  1  0
 29 57  1  0
 29 58  1  0
M  END
>  <UniqueID>  (84) 
79

>  <SMILES>  (84) 
CCN(CC)CCn1cc(C2=C(c3ccccc3)C(=O)NC2=O)c2c1CCCC2

>  <Energy>  (84) 
123.52228615092633

>  <Genealogy>  (84) 
CCN(CC)CCn1cc(C2=C(c3ccccc3)C(=O)NC2=O)c2c1CCCC2 (3D coordinates assigned)
CCN(CC)CCn1cc(C2=C(c3ccccc3)C(=O)NC2=O)c2c1CCCC2 (nonaromatic ring conformer: 123.52228615092633 kcal/mol)

>  <smiles>  (84) 
CCN(CC)CCn1cc(C2=C(c3ccccc3)C(=O)NC2=O)c2c1CCCC2

>  <score_type>  (84) 
oracle

>  <origin>  (84) 
adg

>  <m_score__min__energy>  (84) 
-9.0299999999999994

>  <m_primary>  (84) 
energy

$$$$
84:0
     RDKit          3D

 39 40  0  0  0  0  0  0  0  0999 V2000
   62.4390   33.7940   46.3160 C   0  0  0  0  0  0  0  0  0  0  0  0
   61.4650   33.9260   47.4560 C   0  0  0  0  0  0  0  0  0  0  0  0
   61.8510   33.5270   48.7490 C   0  0  0  0  0  0  0  0  0  0  0  0
   60.9580   33.6320   49.8170 C   0  0  0  0  0  0  0  0  0  0  0  0
   59.6720   34.1340   49.6090 C   0  0  0  0  0  0  0  0  0  0  0  0
   59.2780   34.5390   48.3330 C   0  0  0  0  0  0  0  0  0  0  0  0
   60.1700   34.4540   47.2550 C   0  0  0  0  0  0  0  0  0  0  0  0
   59.6140   35.0030   45.6300 S   0  0  0  0  0  0  0  0  0  0  0  0
   57.9670   34.2180   45.7390 C   0  0  0  0  0  0  0  0  0  0  0  0
   58.0900   32.7550   46.0320 C   0  0  0  0  0  0  0  0  0  0  0  0
   57.8470   32.3380   47.1970 O   0  0  0  0  0  0  0  0  0  0  0  0
   58.5270   31.8520   45.0050 N   0  0  0  0  0  0  0  0  0  0  0  0
   58.6630   30.4350   45.1960 C   0  0  0  0  0  0  0  0  0  0  0  0
   59.9790   29.6830   45.9260 S   0  0  0  0  0  0  0  0  0  0  0  0
   59.3260   28.1360   45.9260 C   0  0  0  0  0  0  0  0  0  0  0  0
   60.0350   26.9270   46.4470 C   0  0  0  0  0  0  0  0  0  0  0  0
   58.0560   28.1760   45.3400 C   0  0  0  0  0  0  0  0  0  0  0  0
   57.1990   26.9530   45.1560 C   0  0  0  0  0  0  0  0  0  0  0  0
   57.6680   29.4810   44.9480 C   0  0  0  0  0  0  0  0  0  0  0  0
   56.3730   29.8100   44.3100 C   0  0  0  0  0  0  0  0  0  0  0  0
   55.1470   29.3440   44.8710 N   0  0  0  0  0  0  0  0  0  0  0  0
   56.3430   30.5130   43.2640 O   0  0  0  0  0  0  0  0  0  0  0  0
   63.4546   33.6564   46.7155 H   0  0  0  0  0  0  0  0  0  0  0  0
   62.1665   32.9246   45.6997 H   0  0  0  0  0  0  0  0  0  0  0  0
   62.4077   34.7046   45.6997 H   0  0  0  0  0  0  0  0  0  0  0  0
   62.8626   33.1299   48.9193 H   0  0  0  0  0  0  0  0  0  0  0  0
   61.2684   33.3185   50.8247 H   0  0  0  0  0  0  0  0  0  0  0  0
   58.9688   34.2103   50.4515 H   0  0  0  0  0  0  0  0  0  0  0  0
   58.2614   34.9272   48.1722 H   0  0  0  0  0  0  0  0  0  0  0  0
   57.3914   34.6991   46.5435 H   0  0  0  0  0  0  0  0  0  0  0  0
   57.4549   34.3408   44.7733 H   0  0  0  0  0  0  0  0  0  0  0  0
   58.7840   32.2580   44.0790 H   0  0  0  0  0  0  0  0  0  0  0  0
   60.0261   26.9422   47.5469 H   0  0  0  0  0  0  0  0  0  0  0  0
   59.5255   26.0203   46.0887 H   0  0  0  0  0  0  0  0  0  0  0  0
   61.0750   26.9290   46.0887 H   0  0  0  0  0  0  0  0  0  0  0  0
   56.9174   26.5511   46.1405 H   0  0  0  0  0  0  0  0  0  0  0  0
   56.2910   27.2223   44.5965 H   0  0  0  0  0  0  0  0  0  0  0  0
   57.7621   26.1915   44.5965 H   0  0  0  0  0  0  0  0  0  0  0  0
   55.1430   28.6630   45.6610 H   0  0  0  0  0  0  0  0  0  0  0  0
  1  2  1  0
  2  3  2  0
  3  4  1  0
  4  5  2  0
  5  6  1  0
  6  7  2  0
  7  8  1  0
  8  9  1  0
  9 10  1  0
 10 11  2  0
 10 12  1  0
 12 13  1  0
 13 14  1  0
 14 15  1  0
 15 16  1  0
 15 17  2  0
 17 18  1  0
 17 19  1  0
 19 20  1  0
 20 21  1  0
 20 22  2  0
  7  2  1  0
 19 13  2  0
  1 23  1  0
  1 24  1  0
  1 25  1  0
  3 26  1  0
  4 27  1  0
  5 28  1  0
  6 29  1  0
  9 30  1  0
  9 31  1  0
 12 32  1  0
 16 33  1  0
 16 34  1  0
 16 35  1  0
 18 36  1  0
 18 37  1  0
 18 38  1  0
 21 39  1  0
M  CHG  1  21  -1
M  END
>  <UniqueID>  (85) 
80

>  <SMILES>  (85) 
Cc1ccccc1SCC(=O)Nc1sc(C)c(C)c1C([NH-])=O

>  <Energy>  (85) 
64.02068708675871

>  <Genealogy>  (85) 
Cc1ccccc1SCC(=O)Nc1sc(C)c(C)c1C([NH-])=O (protonated)
Cc1ccccc1SCC(=O)Nc1sc(C)c(C)c1C([NH-])=O (3D coordinates assigned)
Cc1ccccc1SCC(=O)Nc1sc(C)c(C)c1C([NH-])=O (optimized conformer: 64.02068708675871 kcal/mol)

>  <smiles>  (85) 
Cc1ccccc1SCC(=O)Nc1sc(C)c(C)c1C(N)=O

>  <score_type>  (85) 
oracle

>  <origin>  (85) 
adg

>  <m_score__min__energy>  (85) 
-10.93

>  <m_primary>  (85) 
energy

$$$$
85:0
     RDKit          3D

 43 46  0  0  0  0  0  0  0  0999 V2000
   56.5940   29.2730   52.0970 O   0  0  0  0  0  0  0  0  0  0  0  0
   55.6430   30.0970   52.1820 C   0  0  0  0  0  0  0  0  0  0  0  0
   54.3010   29.6450   52.3950 N   0  0  0  0  0  0  0  0  0  0  0  0
   53.2350   30.3880   53.0070 C   0  0  0  0  0  0  0  0  0  0  0  0
   52.9910   30.3750   54.4000 C   0  0  0  0  0  0  0  0  0  0  0  0
   51.9440   31.1460   54.9510 C   0  0  0  0  0  0  0  0  0  0  0  0
   51.1370   31.9480   54.1250 C   0  0  0  0  0  0  0  0  0  0  0  0
   51.4090   31.9640   52.7600 C   0  0  0  0  0  0  0  0  0  0  0  0
   50.7580   32.6740   51.8210 N   0  0  0  0  0  0  0  0  0  0  0  0
   51.3940   32.3490   50.6720 C   0  0  0  0  0  0  0  0  0  0  0  0
   51.0350   32.8680   49.4340 O   0  0  0  0  0  0  0  0  0  0  0  0
   52.4330   31.4510   50.8680 C   0  0  0  0  0  0  0  0  0  0  0  0
   52.4270   31.2140   52.2230 C   0  0  0  0  0  0  0  0  0  0  0  0
   55.8790   31.4710   52.0620 O   0  0  0  0  0  0  0  0  0  0  0  0
   57.1500   32.0610   52.0890 C   0  0  0  0  0  0  0  0  0  0  0  0
   57.7710   32.3530   50.8680 C   0  0  0  0  0  0  0  0  0  0  0  0
   59.0350   32.9450   50.8400 C   0  0  0  0  0  0  0  0  0  0  0  0
   59.6930   33.2400   52.0330 C   0  0  0  0  0  0  0  0  0  0  0  0
   59.0990   32.9310   53.2580 C   0  0  0  0  0  0  0  0  0  0  0  0
   57.8270   32.3210   53.3010 C   0  0  0  0  0  0  0  0  0  0  0  0
   57.2250   31.9390   54.5110 O   0  0  0  0  0  0  0  0  0  0  0  0
   57.7590   31.0030   55.4470 C   0  0  0  0  0  0  0  0  0  0  0  0
   57.3030   29.6040   55.1230 C   0  0  0  0  0  0  0  0  0  0  0  0
   55.9750   29.2130   55.3610 C   0  0  0  0  0  0  0  0  0  0  0  0
   55.5560   27.9150   55.0480 C   0  0  0  0  0  0  0  0  0  0  0  0
   56.4580   27.0040   54.4880 C   0  0  0  0  0  0  0  0  0  0  0  0
   57.7760   27.3910   54.2390 C   0  0  0  0  0  0  0  0  0  0  0  0
   58.1990   28.6870   54.5500 C   0  0  0  0  0  0  0  0  0  0  0  0
   53.6213   29.7599   55.0590 H   0  0  0  0  0  0  0  0  0  0  0  0
   51.7584   31.1189   56.0349 H   0  0  0  0  0  0  0  0  0  0  0  0
   50.3146   32.5455   54.5453 H   0  0  0  0  0  0  0  0  0  0  0  0
   53.1085   31.0251   50.1115 H   0  0  0  0  0  0  0  0  0  0  0  0
   57.2590   32.1141   49.9242 H   0  0  0  0  0  0  0  0  0  0  0  0
   59.5117   33.1787   49.8766 H   0  0  0  0  0  0  0  0  0  0  0  0
   60.6835   33.7178   52.0091 H   0  0  0  0  0  0  0  0  0  0  0  0
   59.6254   33.1643   54.1952 H   0  0  0  0  0  0  0  0  0  0  0  0
   58.8577   31.0421   55.4095 H   0  0  0  0  0  0  0  0  0  0  0  0
   57.4010   31.2667   56.4531 H   0  0  0  0  0  0  0  0  0  0  0  0
   55.2620   29.9295   55.7949 H   0  0  0  0  0  0  0  0  0  0  0  0
   54.5169   27.6109   55.2424 H   0  0  0  0  0  0  0  0  0  0  0  0
   56.1288   25.9832   54.2440 H   0  0  0  0  0  0  0  0  0  0  0  0
   58.4838   26.6744   53.7969 H   0  0  0  0  0  0  0  0  0  0  0  0
   59.2367   28.9891   54.3452 H   0  0  0  0  0  0  0  0  0  0  0  0
  1  2  2  0
  2  3  1  0
  3  4  1  0
  4  5  2  0
  5  6  1  0
  6  7  2  0
  7  8  1  0
  8  9  1  0
  9 10  1  0
 10 11  1  0
 10 12  2  0
 12 13  1  0
  2 14  1  0
 14 15  1  0
 15 16  2  0
 16 17  1  0
 17 18  2  0
 18 19  1  0
 19 20  2  0
 20 21  1  0
 21 22  1  0
 22 23  1  0
 23 24  2  0
 24 25  1  0
 25 26  2  0
 26 27  1  0
 27 28  2  0
 13  4  1  0
 20 15  1  0
 28 23  1  0
 13  8  2  0
  5 29  1  0
  6 30  1  0
  7 31  1  0
 12 32  1  0
 16 33  1  0
 17 34  1  0
 18 35  1  0
 19 36  1  0
 22 37  1  0
 22 38  1  0
 24 39  1  0
 25 40  1  0
 26 41  1  0
 27 42  1  0
 28 43  1  0
M  CHG  3   3  -1   9  -1  11  -1
M  END
>  <UniqueID>  (86) 
81

>  <SMILES>  (86) 
O=C([N-]c1cccc2[n-]c([O-])cc12)Oc1ccccc1OCc1ccccc1

>  <Energy>  (86) 
89.2774641216458

>  <Genealogy>  (86) 
O=C([N-]c1cccc2[n-]c([O-])cc12)Oc1ccccc1OCc1ccccc1 (protonated)
O=C([N-]c1cccc2[n-]c([O-])cc12)Oc1ccccc1OCc1ccccc1 (3D coordinates assigned)
O=C([N-]c1cccc2[n-]c([O-])cc12)Oc1ccccc1OCc1ccccc1 (optimized conformer: 89.2774641216458 kcal/mol)

>  <smiles>  (86) 
O=C(Nc1cccc2[nH]c(O)cc12)Oc1ccccc1OCc1ccccc1

>  <score_type>  (86) 
oracle

>  <origin>  (86) 
adg

>  <m_score__min__energy>  (86) 
-16.629999999999999

>  <m_primary>  (86) 
energy

$$$$
86:0
     RDKit          3D

 71 75  0  0  0  0  0  0  0  0999 V2000
   55.0223   24.0320   44.1869 H   0  0  0  0  0  0  0  0  0  0  0  0
   55.7530   24.6450   44.7350 C   0  0  0  0  0  0  0  0  0  0  0  0
   55.2930   25.2850   45.9830 C   0  0  0  0  0  0  0  0  0  0  0  0
   54.5630   26.3120   45.9680 O   0  0  0  0  0  0  0  0  0  0  0  0
   55.7260   24.7780   47.2010 O   0  0  0  0  0  0  0  0  0  0  0  0
   56.9840   24.7450   44.2100 C   0  0  0  0  0  0  0  0  0  0  0  0
   57.1478   24.2926   43.2208 H   0  0  0  0  0  0  0  0  0  0  0  0
   58.1390   25.4120   44.8490 C   0  0  0  0  0  0  0  0  0  0  0  0
   59.0310   24.6590   45.6350 C   0  0  0  0  0  0  0  0  0  0  0  0
   58.9226   23.5656   45.6871 H   0  0  0  0  0  0  0  0  0  0  0  0
   60.0520   25.2880   46.3490 C   0  0  0  0  0  0  0  0  0  0  0  0
   60.7592   24.6877   46.9402 H   0  0  0  0  0  0  0  0  0  0  0  0
   60.1770   26.6770   46.3140 C   0  0  0  0  0  0  0  0  0  0  0  0
   60.9787   27.1713   46.8823 H   0  0  0  0  0  0  0  0  0  0  0  0
   59.2850   27.4400   45.5580 C   0  0  0  0  0  0  0  0  0  0  0  0
   59.3780   28.5360   45.5470 H   0  0  0  0  0  0  0  0  0  0  0  0
   58.2720   26.8210   44.8130 C   0  0  0  0  0  0  0  0  0  0  0  0
   57.3970   27.6380   44.0250 N   0  0  0  0  0  0  0  0  0  0  0  0
   57.0010   27.2460   43.1400 H   0  0  0  0  0  0  0  0  0  0  0  0
   56.6510   29.0590   44.6860 S   0  0  0  0  0  0  0  0  0  0  0  0
   55.1610   28.9600   44.5330 O   0  0  0  0  0  0  0  0  0  0  0  0
   57.0060   29.1410   46.1450 O   0  0  0  0  0  0  0  0  0  0  0  0
   57.2030   30.5160   43.8370 C   0  0  0  0  0  0  0  0  0  0  0  0
   56.6400   30.8310   42.5910 C   0  0  0  0  0  0  0  0  0  0  0  0
   55.8524   30.1888   42.1699 H   0  0  0  0  0  0  0  0  0  0  0  0
   57.0720   31.9540   41.8810 C   0  0  0  0  0  0  0  0  0  0  0  0
   56.6239   32.1916   40.9049 H   0  0  0  0  0  0  0  0  0  0  0  0
   58.0690   32.7740   42.4060 C   0  0  0  0  0  0  0  0  0  0  0  0
   58.4176   33.6483   41.8367 H   0  0  0  0  0  0  0  0  0  0  0  0
   58.6260   32.4870   43.6540 C   0  0  0  0  0  0  0  0  0  0  0  0
   59.4114   33.1385   44.0648 H   0  0  0  0  0  0  0  0  0  0  0  0
   58.1900   31.3720   44.3880 C   0  0  0  0  0  0  0  0  0  0  0  0
   58.7720   31.1320   45.7210 C   0  0  0  0  0  0  0  0  0  0  0  0
   59.9730   30.4180   45.8490 C   0  0  0  0  0  0  0  0  0  0  0  0
   60.4260   29.9442   44.9656 H   0  0  0  0  0  0  0  0  0  0  0  0
   60.5950   30.3070   47.0940 C   0  0  0  0  0  0  0  0  0  0  0  0
   61.5485   29.7658   47.1835 H   0  0  0  0  0  0  0  0  0  0  0  0
   60.0100   30.8820   48.2300 C   0  0  0  0  0  0  0  0  0  0  0  0
   60.7750   30.9330   49.5240 C   0  0  0  0  0  0  0  0  0  0  0  0
   60.4122   30.1419   50.1968 H   0  0  0  0  0  0  0  0  0  0  0  0
   61.8460   30.7797   49.3253 H   0  0  0  0  0  0  0  0  0  0  0  0
   60.5740   32.2460   50.1560 N   0  0  0  0  0  0  0  0  0  0  0  0
   59.4520   32.4200   51.0450 C   0  0  0  0  0  0  0  0  0  0  0  0
   59.2380   33.6500   51.6900 C   0  0  0  0  0  0  0  0  0  0  0  0
   59.9399   34.4817   51.5303 H   0  0  0  0  0  0  0  0  0  0  0  0
   58.1350   33.8210   52.5350 C   0  0  0  0  0  0  0  0  0  0  0  0
   57.9719   34.7854   53.0383 H   0  0  0  0  0  0  0  0  0  0  0  0
   57.2410   32.7660   52.7390 C   0  0  0  0  0  0  0  0  0  0  0  0
   56.3767   32.8996   53.4062 H   0  0  0  0  0  0  0  0  0  0  0  0
   57.4440   31.5410   52.0960 C   0  0  0  0  0  0  0  0  0  0  0  0
   56.7357   30.7141   52.2529 H   0  0  0  0  0  0  0  0  0  0  0  0
   58.5460   31.3660   51.2540 C   0  0  0  0  0  0  0  0  0  0  0  0
   58.7047   30.3996   50.7530 H   0  0  0  0  0  0  0  0  0  0  0  0
   61.3260   33.4140   49.6740 C   0  0  0  0  0  0  0  0  0  0  0  0
   61.2771   34.2120   50.4295 H   0  0  0  0  0  0  0  0  0  0  0  0
   62.3706   33.1158   49.5014 H   0  0  0  0  0  0  0  0  0  0  0  0
   60.7470   33.9220   48.3800 C   0  0  0  0  0  0  0  0  0  0  0  0
   61.4170   33.7070   47.1630 C   0  0  0  0  0  0  0  0  0  0  0  0
   62.3842   33.1830   47.1548 H   0  0  0  0  0  0  0  0  0  0  0  0
   60.8580   34.1570   45.9630 C   0  0  0  0  0  0  0  0  0  0  0  0
   61.3884   33.9910   45.0137 H   0  0  0  0  0  0  0  0  0  0  0  0
   59.6270   34.8170   45.9680 C   0  0  0  0  0  0  0  0  0  0  0  0
   59.1895   35.1716   45.0231 H   0  0  0  0  0  0  0  0  0  0  0  0
   58.9510   35.0270   47.1730 C   0  0  0  0  0  0  0  0  0  0  0  0
   57.9810   35.5458   47.1750 H   0  0  0  0  0  0  0  0  0  0  0  0
   59.5050   34.5790   48.3760 C   0  0  0  0  0  0  0  0  0  0  0  0
   58.9672   34.7413   49.3217 H   0  0  0  0  0  0  0  0  0  0  0  0
   58.7810   31.5540   48.1100 C   0  0  0  0  0  0  0  0  0  0  0  0
   58.3041   31.9876   49.0014 H   0  0  0  0  0  0  0  0  0  0  0  0
   58.1630   31.6730   46.8620 C   0  0  0  0  0  0  0  0  0  0  0  0
   57.1971   32.1921   46.7749 H   0  0  0  0  0  0  0  0  0  0  0  0
  1  2  1  0
  2  3  1  0
  3  4  2  0
  3  5  1  0
  2  6  2  0
  6  7  1  0
  6  8  1  0
  8  9  2  0
  9 10  1  0
  9 11  1  0
 11 12  1  0
 11 13  2  0
 13 14  1  0
 13 15  1  0
 15 16  1  0
 15 17  2  0
 17 18  1  0
 18 19  1  0
 18 20  1  0
 20 21  2  0
 20 22  2  0
 20 23  1  0
 23 24  2  0
 24 25  1  0
 24 26  1  0
 26 27  1  0
 26 28  2  0
 28 29  1  0
 28 30  1  0
 30 31  1  0
 30 32  2  0
 32 33  1  0
 33 34  2  0
 34 35  1  0
 34 36  1  0
 36 37  1  0
 36 38  2  0
 38 39  1  0
 39 40  1  0
 39 41  1  0
 39 42  1  0
 42 43  1  0
 43 44  2  0
 44 45  1  0
 44 46  1  0
 46 47  1  0
 46 48  2  0
 48 49  1  0
 48 50  1  0
 50 51  1  0
 50 52  2  0
 52 53  1  0
 42 54  1  0
 54 55  1  0
 54 56  1  0
 54 57  1  0
 57 58  2  0
 58 59  1  0
 58 60  1  0
 60 61  1  0
 60 62  2  0
 62 63  1  0
 62 64  1  0
 64 65  1  0
 64 66  2  0
 66 67  1  0
 38 68  1  0
 68 69  1  0
 68 70  2  0
 70 71  1  0
 17  8  1  0
 32 23  1  0
 70 33  1  0
 52 43  1  0
 66 57  1  0
M  CHG  1   5  -1
M  END
>  <UniqueID>  (87) 
82

>  <SMILES>  (87) 
O=C([O-])/C=C\c1ccccc1NS(=O)(=O)c1ccccc1-c1ccc(CN(Cc2ccccc2)c2ccccc2)cc1

>  <Energy>  (87) 
98.87854090270912

>  <Genealogy>  (87) 
O=C([O-])C=Cc1ccccc1NS(=O)(=O)c1ccccc1-c1ccc(CN(Cc2ccccc2)c2ccccc2)cc1 (protonated)
O=C([O-])/C=C\c1ccccc1NS(=O)(=O)c1ccccc1-c1ccc(CN(Cc2ccccc2)c2ccccc2)cc1 (cis-trans isomerization)
O=C([O-])/C=C\c1ccccc1NS(=O)(=O)c1ccccc1-c1ccc(CN(Cc2ccccc2)c2ccccc2)cc1 (3D coordinates assigned)
O=C([O-])/C=C\c1ccccc1NS(=O)(=O)c1ccccc1-c1ccc(CN(Cc2ccccc2)c2ccccc2)cc1 (optimized conformer: 98.87854090270912 kcal/mol)

>  <smiles>  (87) 
O=C(O)C=Cc1ccccc1NS(=O)(=O)c1ccccc1-c1ccc(CN(Cc2ccccc2)c2ccccc2)cc1

>  <score_type>  (87) 
oracle

>  <origin>  (87) 
adg

>  <m_score__min__energy>  (87) 
-15.4

>  <m_primary>  (87) 
energy

$$$$
87:0
     RDKit          3D

 46 48  0  0  0  0  0  0  0  0999 V2000
   55.2312   26.2226   46.4348 H   0  0  0  0  0  0  0  0  0  0  0  0
   56.0920   26.7800   46.0370 C   0  0  0  0  0  0  0  0  0  0  0  0
   55.8900   27.8830   45.2700 N   0  0  0  0  0  0  0  0  0  0  0  0
   56.9290   28.5990   44.7630 C   0  0  0  0  0  0  0  0  0  0  0  0
   56.6100   30.0320   43.7980 S   0  0  0  0  0  0  0  0  0  0  0  0
   55.6070   30.9020   44.5050 O   0  0  0  0  0  0  0  0  0  0  0  0
   56.0370   29.6130   42.4730 O   0  0  0  0  0  0  0  0  0  0  0  0
   58.0720   30.9340   43.5340 N   0  0  0  0  0  0  0  0  0  0  0  0
   58.6720   30.7940   44.3790 H   0  0  0  0  0  0  0  0  0  0  0  0
   57.7610   32.3610   43.4220 C   0  0  0  0  0  0  0  0  0  0  0  0
   56.6838   32.4876   43.2386 H   0  0  0  0  0  0  0  0  0  0  0  0
   58.3302   32.7945   42.5865 H   0  0  0  0  0  0  0  0  0  0  0  0
   58.1370   33.0610   44.6990 C   0  0  0  0  0  0  0  0  0  0  0  0
   59.2160   33.9570   44.7230 C   0  0  0  0  0  0  0  0  0  0  0  0
   59.7724   34.1695   43.7982 H   0  0  0  0  0  0  0  0  0  0  0  0
   59.5870   34.5810   45.9180 C   0  0  0  0  0  0  0  0  0  0  0  0
   60.4273   35.2908   45.9246 H   0  0  0  0  0  0  0  0  0  0  0  0
   58.8980   34.3100   47.1060 C   0  0  0  0  0  0  0  0  0  0  0  0
   59.3100   34.9620   48.2790 O   0  0  0  0  0  0  0  0  0  0  0  0
   59.9820   34.3240   49.3590 C   0  0  0  0  0  0  0  0  0  0  0  0
   59.5843   34.7015   50.3126 H   0  0  0  0  0  0  0  0  0  0  0  0
   59.8222   33.2373   49.2996 H   0  0  0  0  0  0  0  0  0  0  0  0
   61.0589   34.5400   49.2996 H   0  0  0  0  0  0  0  0  0  0  0  0
   57.8250   33.3980   47.0850 C   0  0  0  0  0  0  0  0  0  0  0  0
   57.2769   33.1752   48.0123 H   0  0  0  0  0  0  0  0  0  0  0  0
   57.4540   32.7750   45.8900 C   0  0  0  0  0  0  0  0  0  0  0  0
   56.6214   32.0562   45.8837 H   0  0  0  0  0  0  0  0  0  0  0  0
   58.2460   28.2050   45.0260 C   0  0  0  0  0  0  0  0  0  0  0  0
   59.0883   28.7858   44.6220 H   0  0  0  0  0  0  0  0  0  0  0  0
   58.4870   27.0590   45.8120 C   0  0  0  0  0  0  0  0  0  0  0  0
   59.6850   26.6270   46.0970 N   0  0  0  0  0  0  0  0  0  0  0  0
   60.6010   27.0820   47.1460 C   0  0  0  0  0  0  0  0  0  0  0  0
   60.3348   26.5936   48.0950 H   0  0  0  0  0  0  0  0  0  0  0  0
   61.6292   26.8185   46.8573 H   0  0  0  0  0  0  0  0  0  0  0  0
   60.5110   28.6060   47.3200 C   0  0  2  0  0  0  0  0  0  0  0  0
   61.3252   28.8506   48.0180 H   0  0  0  0  0  0  0  0  0  0  0  0
   59.2510   28.9660   47.7920 O   0  0  0  0  0  0  0  0  0  0  0  0
   58.9710   30.2070   47.1830 C   0  0  0  0  0  0  0  0  0  0  0  0
   58.9697   30.9910   47.9546 H   0  0  0  0  0  0  0  0  0  0  0  0
   57.9886   30.1358   46.6932 H   0  0  0  0  0  0  0  0  0  0  0  0
   59.9290   30.5320   46.2030 O   0  0  0  0  0  0  0  0  0  0  0  0
   60.6900   29.3800   46.0440 C   0  0  0  0  0  0  0  0  0  0  0  0
   61.7493   29.6358   45.8941 H   0  0  0  0  0  0  0  0  0  0  0  0
   60.3749   28.7990   45.1647 H   0  0  0  0  0  0  0  0  0  0  0  0
   57.3900   26.3530   46.3210 C   0  0  0  0  0  0  0  0  0  0  0  0
   57.5514   25.4615   46.9449 H   0  0  0  0  0  0  0  0  0  0  0  0
  1  2  1  0
  2  3  1  0
  3  4  1  0
  4  5  1  0
  5  6  2  0
  5  7  2  0
  5  8  1  0
  8  9  1  0
  8 10  1  0
 10 11  1  0
 10 12  1  0
 10 13  1  0
 13 14  2  0
 14 15  1  0
 14 16  1  0
 16 17  1  0
 16 18  2  0
 18 19  1  0
 19 20  1  0
 20 21  1  0
 20 22  1  0
 20 23  1  0
 18 24  1  0
 24 25  1  0
 24 26  2  0
 26 27  1  0
  4 28  2  0
 28 29  1  0
 28 30  1  0
 30 31  2  0
 31 32  1  0
 32 33  1  0
 32 34  1  0
 32 35  1  0
 35 36  1  1
 35 37  1  0
 37 38  1  0
 38 39  1  0
 38 40  1  0
 38 41  1  0
 41 42  1  0
 42 43  1  0
 42 44  1  0
 30 45  1  0
 45 46  1  0
 45  2  2  0
 26 13  1  0
 42 35  1  0
M  CHG  1   3  -1
M  END
>  <UniqueID>  (88) 
83

>  <SMILES>  (88) 
COc1ccc(CNS(=O)(=O)c2c/c(=N\C[C@H]3COCO3)cc[n-]2)cc1

>  <Energy>  (88) 
43.58125802735506

>  <Genealogy>  (88) 
COc1ccc(CNS(=O)(=O)c2cc(=NCC3COCO3)cc[n-]2)cc1 (protonated)
COc1ccc(CNS(=O)(=O)c2cc(=NC[C@H]3COCO3)cc[n-]2)cc1 (chirality)
COc1ccc(CNS(=O)(=O)c2c/c(=N\C[C@H]3COCO3)cc[n-]2)cc1 (cis-trans isomerization)
COc1ccc(CNS(=O)(=O)c2c/c(=N\C[C@H]3COCO3)cc[n-]2)cc1 (3D coordinates assigned)
COc1ccc(CNS(=O)(=O)c2c/c(=N\C[C@H]3COCO3)cc[n-]2)cc1 (nonaromatic ring conformer: 43.58125802735506 kcal/mol)

>  <smiles>  (88) 
COc1ccc(CNS(=O)(=O)c2cc(=NCC3COCO3)cc[nH]2)cc1

>  <score_type>  (88) 
oracle

>  <origin>  (88) 
adg

>  <m_score__min__energy>  (88) 
-9.8200000000000003

>  <m_primary>  (88) 
energy

$$$$
88:0
     RDKit          3D

 27 27  0  0  0  0  0  0  0  0999 V2000
   57.3850   31.8000   44.5980 C   0  0  0  0  0  0  0  0  0  0  0  0
   57.2670   30.4750   44.4470 C   0  0  0  0  0  0  0  0  0  0  0  0
   58.4840   29.5970   44.6050 C   0  0  0  0  0  0  0  0  0  0  0  0
   58.0840   28.2080   45.0280 C   0  0  0  0  0  0  0  0  0  0  0  0
   58.1030   27.1540   44.1000 C   0  0  0  0  0  0  0  0  0  0  0  0
   57.7610   25.8580   44.4960 C   0  0  0  0  0  0  0  0  0  0  0  0
   57.3980   25.5960   45.8310 C   0  0  0  0  0  0  0  0  0  0  0  0
   57.0460   24.3130   46.2770 O   0  0  0  0  0  0  0  0  0  0  0  0
   55.7150   23.9000   46.5720 C   0  0  0  0  0  0  0  0  0  0  0  0
   54.7610   24.6860   45.7380 C   0  0  0  0  0  0  0  0  0  0  0  0
   54.5580   25.9040   45.9880 O   0  0  0  0  0  0  0  0  0  0  0  0
   54.0530   24.0650   44.7190 O   0  0  0  0  0  0  0  0  0  0  0  0
   57.3860   26.6470   46.7540 C   0  0  0  0  0  0  0  0  0  0  0  0
   57.7290   27.9430   46.3590 C   0  0  0  0  0  0  0  0  0  0  0  0
   55.9440   29.8600   44.1800 C   0  0  0  0  0  0  0  0  0  0  0  0
   55.4930   29.7820   43.0060 O   0  0  0  0  0  0  0  0  0  0  0  0
   55.1810   29.3570   45.2280 O   0  0  0  0  0  0  0  0  0  0  0  0
   56.5028   32.4472   44.4845 H   0  0  0  0  0  0  0  0  0  0  0  0
   58.3641   32.2415   44.8356 H   0  0  0  0  0  0  0  0  0  0  0  0
   59.0179   29.5428   43.6448 H   0  0  0  0  0  0  0  0  0  0  0  0
   59.1355   30.0296   45.3786 H   0  0  0  0  0  0  0  0  0  0  0  0
   58.3886   27.3495   43.0559 H   0  0  0  0  0  0  0  0  0  0  0  0
   57.7755   25.0392   43.7616 H   0  0  0  0  0  0  0  0  0  0  0  0
   55.6039   22.8289   46.3473 H   0  0  0  0  0  0  0  0  0  0  0  0
   55.5025   24.0719   47.6375 H   0  0  0  0  0  0  0  0  0  0  0  0
   57.1043   26.4519   47.7993 H   0  0  0  0  0  0  0  0  0  0  0  0
   57.7205   28.7597   47.0958 H   0  0  0  0  0  0  0  0  0  0  0  0
  1  2  2  0
  2  3  1  0
  3  4  1  0
  4  5  2  0
  5  6  1  0
  6  7  2  0
  7  8  1  0
  8  9  1  0
  9 10  1  0
 10 11  2  0
 10 12  1  0
  7 13  1  0
 13 14  2  0
  2 15  1  0
 15 16  2  0
 15 17  1  0
 14  4  1  0
  1 18  1  0
  1 19  1  0
  3 20  1  0
  3 21  1  0
  5 22  1  0
  6 23  1  0
  9 24  1  0
  9 25  1  0
 13 26  1  0
 14 27  1  0
M  CHG  2  12  -1  17  -1
M  END
>  <UniqueID>  (89) 
84

>  <SMILES>  (89) 
C=C(Cc1ccc(OCC(=O)[O-])cc1)C(=O)[O-]

>  <Energy>  (89) 
21.603358924766415

>  <Genealogy>  (89) 
C=C(Cc1ccc(OCC(=O)[O-])cc1)C(=O)[O-] (protonated)
C=C(Cc1ccc(OCC(=O)[O-])cc1)C(=O)[O-] (3D coordinates assigned)
C=C(Cc1ccc(OCC(=O)[O-])cc1)C(=O)[O-] (optimized conformer: 21.603358924766415 kcal/mol)

>  <smiles>  (89) 
C=C(Cc1ccc(OCC(=O)O)cc1)C(=O)O

>  <score_type>  (89) 
oracle

>  <origin>  (89) 
adg

>  <m_score__min__energy>  (89) 
-9.9700000000000006

>  <m_primary>  (89) 
energy

$$$$
89:0
     RDKit          3D

 42 45  0  0  0  0  0  0  0  0999 V2000
   54.0710   25.9020   45.7480 N   0  0  0  0  0  0  0  0  0  0  0  0
   55.5510   25.0090   45.7120 S   0  0  0  0  0  0  0  0  0  0  0  0
   55.5090   23.9510   46.7800 O   0  0  0  0  0  0  0  0  0  0  0  0
   55.7080   24.3460   44.3740 O   0  0  0  0  0  0  0  0  0  0  0  0
   56.9070   26.1070   45.9850 C   0  0  0  0  0  0  0  0  0  0  0  0
   58.1280   25.6080   46.4600 C   0  0  0  0  0  0  0  0  0  0  0  0
   59.2050   26.4670   46.6810 C   0  0  0  0  0  0  0  0  0  0  0  0
   59.0780   27.8400   46.4320 C   0  0  0  0  0  0  0  0  0  0  0  0
   60.1620   28.7050   46.6540 C   0  0  0  0  0  0  0  0  0  0  0  0
   60.0340   30.0840   46.4160 C   0  0  0  0  0  0  0  0  0  0  0  0
   61.1350   30.9850   46.6150 N   0  0  0  0  0  0  0  0  0  0  0  0
   61.0370   32.2310   47.3280 C   0  0  0  0  0  0  0  0  0  0  0  0
   59.9610   32.5630   47.8930 O   0  0  0  0  0  0  0  0  0  0  0  0
   62.1670   33.1040   47.4370 N   0  0  0  0  0  0  0  0  0  0  0  0
   62.9530   33.3130   48.6180 C   0  0  0  0  0  0  0  0  0  0  0  0
   62.4730   34.1820   49.6050 C   0  0  0  0  0  0  0  0  0  0  0  0
   63.2240   34.4330   50.7580 C   0  0  0  0  0  0  0  0  0  0  0  0
   64.4780   33.8300   50.9260 C   0  0  0  0  0  0  0  0  0  0  0  0
   65.2440   34.0700   52.0740 C   0  0  0  0  0  0  0  0  0  0  0  0
   66.4930   33.4590   52.2050 C   0  0  0  0  0  0  0  0  0  0  0  0
   66.9610   32.6410   51.2250 N   0  0  0  0  0  0  0  0  0  0  0  0
   66.2430   32.3870   50.0980 C   0  0  0  0  0  0  0  0  0  0  0  0
   64.9820   32.9740   49.9210 C   0  0  0  0  0  0  0  0  0  0  0  0
   64.2230   32.7280   48.7680 C   0  0  0  0  0  0  0  0  0  0  0  0
   58.8240   30.5830   45.9140 C   0  0  0  0  0  0  0  0  0  0  0  0
   57.7400   29.7320   45.6890 C   0  0  0  0  0  0  0  0  0  0  0  0
   57.8510   28.3560   45.9480 C   0  0  0  0  0  0  0  0  0  0  0  0
   56.7670   27.4820   45.7270 C   0  0  0  0  0  0  0  0  0  0  0  0
   55.5540   27.9750   45.2530 O   0  0  0  0  0  0  0  0  0  0  0  0
   54.2330   26.7350   46.3570 H   0  0  0  0  0  0  0  0  0  0  0  0
   58.2377   24.5319   46.6598 H   0  0  0  0  0  0  0  0  0  0  0  0
   60.1588   26.0643   47.0526 H   0  0  0  0  0  0  0  0  0  0  0  0
   61.1182   28.3000   47.0168 H   0  0  0  0  0  0  0  0  0  0  0  0
   62.0370   30.7480   46.1450 H   0  0  0  0  0  0  0  0  0  0  0  0
   61.4969   34.6716   49.4727 H   0  0  0  0  0  0  0  0  0  0  0  0
   62.8296   35.1050   51.5345 H   0  0  0  0  0  0  0  0  0  0  0  0
   64.8652   34.7337   52.8652 H   0  0  0  0  0  0  0  0  0  0  0  0
   67.1002   33.6402   53.1042 H   0  0  0  0  0  0  0  0  0  0  0  0
   66.6521   31.7203   49.3246 H   0  0  0  0  0  0  0  0  0  0  0  0
   64.6224   32.0751   47.9780 H   0  0  0  0  0  0  0  0  0  0  0  0
   58.7274   31.6566   45.6949 H   0  0  0  0  0  0  0  0  0  0  0  0
   56.7935   30.1417   45.3066 H   0  0  0  0  0  0  0  0  0  0  0  0
  1  2  1  0
  2  3  2  0
  2  4  2  0
  2  5  1  0
  5  6  2  0
  6  7  1  0
  7  8  2  0
  8  9  1  0
  9 10  2  0
 10 11  1  0
 11 12  1  0
 12 13  2  0
 12 14  1  0
 14 15  1  0
 15 16  2  0
 16 17  1  0
 17 18  2  0
 18 19  1  0
 19 20  2  0
 20 21  1  0
 21 22  2  0
 22 23  1  0
 23 24  2  0
 10 25  1  0
 25 26  2  0
 26 27  1  0
 27 28  2  0
 28 29  1  0
 28  5  1  0
 27  8  1  0
 24 15  1  0
 23 18  1  0
  1 30  1  0
  6 31  1  0
  7 32  1  0
  9 33  1  0
 11 34  1  0
 16 35  1  0
 17 36  1  0
 19 37  1  0
 20 38  1  0
 22 39  1  0
 24 40  1  0
 25 41  1  0
 26 42  1  0
M  CHG  3   1  -1  14  -1  29  -1
M  END
>  <UniqueID>  (90) 
85

>  <SMILES>  (90) 
[NH-]S(=O)(=O)c1ccc2cc(NC(=O)[N-]c3ccc4ccncc4c3)ccc2c1[O-]

>  <Energy>  (90) 
63.61912853292339

>  <Genealogy>  (90) 
[NH-]S(=O)(=O)c1ccc2cc(NC(=O)[N-]c3ccc4ccncc4c3)ccc2c1[O-] (protonated)
[NH-]S(=O)(=O)c1ccc2cc(NC(=O)[N-]c3ccc4ccncc4c3)ccc2c1[O-] (3D coordinates assigned)
[NH-]S(=O)(=O)c1ccc2cc(NC(=O)[N-]c3ccc4ccncc4c3)ccc2c1[O-] (optimized conformer: 63.61912853292339 kcal/mol)

>  <smiles>  (90) 
NS(=O)(=O)c1ccc2cc(NC(=O)Nc3ccc4ccncc4c3)ccc2c1O

>  <score_type>  (90) 
oracle

>  <origin>  (90) 
adg

>  <m_score__min__energy>  (90) 
-15.550000000000001

>  <m_primary>  (90) 
energy

$$$$
90:0
     RDKit          3D

 37 38  0  0  0  0  0  0  0  0999 V2000
   60.3120   29.2320   48.2370 C   0  0  0  0  0  0  0  0  0  0  0  0
   60.1980   28.0530   48.8540 C   0  0  0  0  0  0  0  0  0  0  0  0
   60.5240   26.7700   48.1510 C   0  0  0  0  0  0  0  0  0  0  0  0
   59.3490   25.9750   48.0370 O   0  0  0  0  0  0  0  0  0  0  0  0
   58.2670   26.3320   47.2230 C   0  0  0  0  0  0  0  0  0  0  0  0
   58.2910   27.4970   46.5190 N   0  0  0  0  0  0  0  0  0  0  0  0
   57.2540   27.8680   45.7200 C   0  0  0  0  0  0  0  0  0  0  0  0
   57.3110   29.1450   44.9640 C   0  0  0  0  0  0  0  0  0  0  0  0
   56.6620   29.2690   43.7230 C   0  0  0  0  0  0  0  0  0  0  0  0
   56.7200   30.4670   43.0090 C   0  0  0  0  0  0  0  0  0  0  0  0
   57.4210   31.5650   43.5140 C   0  0  0  0  0  0  0  0  0  0  0  0
   57.4520   32.7330   42.7500 O   0  0  0  0  0  0  0  0  0  0  0  0
   58.0730   31.4640   44.7640 C   0  0  0  0  0  0  0  0  0  0  0  0
   58.8530   32.6200   45.3450 C   0  0  0  0  0  0  0  0  0  0  0  0
   58.3220   33.8550   44.9060 O   0  0  0  0  0  0  0  0  0  0  0  0
   57.1350   34.1530   45.6060 C   0  0  0  0  0  0  0  0  0  0  0  0
   58.0140   30.2500   45.4740 C   0  0  0  0  0  0  0  0  0  0  0  0
   56.1660   27.0580   45.6210 N   0  0  0  0  0  0  0  0  0  0  0  0
   56.0910   25.8860   46.3040 C   0  0  0  0  0  0  0  0  0  0  0  0
   55.0640   25.1640   46.1840 O   0  0  0  0  0  0  0  0  0  0  0  0
   57.1520   25.4910   47.1300 C   0  0  0  0  0  0  0  0  0  0  0  0
   57.1030   24.2510   47.8660 C   0  0  0  0  0  0  0  0  0  0  0  0
   57.0640   23.2570   48.4570 N   0  0  0  0  0  0  0  0  0  0  0  0
   60.0668   30.1600   48.7744 H   0  0  0  0  0  0  0  0  0  0  0  0
   60.6511   29.2751   47.1915 H   0  0  0  0  0  0  0  0  0  0  0  0
   59.8579   28.0229   49.8997 H   0  0  0  0  0  0  0  0  0  0  0  0
   60.9144   26.9920   47.1469 H   0  0  0  0  0  0  0  0  0  0  0  0
   61.2820   26.2201   48.7281 H   0  0  0  0  0  0  0  0  0  0  0  0
   56.1040   28.4150   43.3114 H   0  0  0  0  0  0  0  0  0  0  0  0
   56.2084   30.5475   42.0385 H   0  0  0  0  0  0  0  0  0  0  0  0
   57.8260   33.6100   43.0920 H   0  0  0  0  0  0  0  0  0  0  0  0
   58.8008   32.5748   46.4428 H   0  0  0  0  0  0  0  0  0  0  0  0
   59.8975   32.5455   45.0080 H   0  0  0  0  0  0  0  0  0  0  0  0
   57.3257   34.1051   46.6883 H   0  0  0  0  0  0  0  0  0  0  0  0
   56.7953   35.1643   45.3379 H   0  0  0  0  0  0  0  0  0  0  0  0
   56.3579   33.4221   45.3379 H   0  0  0  0  0  0  0  0  0  0  0  0
   58.5264   30.1648   46.4436 H   0  0  0  0  0  0  0  0  0  0  0  0
  1  2  2  0
  2  3  1  0
  3  4  1  0
  4  5  1  0
  5  6  1  0
  6  7  2  0
  7  8  1  0
  8  9  2  0
  9 10  1  0
 10 11  2  0
 11 12  1  0
 11 13  1  0
 13 14  1  0
 14 15  1  0
 15 16  1  0
 13 17  2  0
  7 18  1  0
 18 19  1  0
 19 20  2  0
 19 21  1  0
 21 22  1  0
 22 23  3  0
 21  5  2  0
 17  8  1  0
  1 24  1  0
  1 25  1  0
  2 26  1  0
  3 27  1  0
  3 28  1  0
  9 29  1  0
 10 30  1  0
 12 31  1  0
 14 32  1  0
 14 33  1  0
 16 34  1  0
 16 35  1  0
 16 36  1  0
 17 37  1  0
M  CHG  1  18  -1
M  END
>  <UniqueID>  (91) 
86

>  <SMILES>  (91) 
C=CCOc1nc(-c2ccc(O)c(COC)c2)[n-]c(=O)c1C#N

>  <Energy>  (91) 
37.59301015384788

>  <Genealogy>  (91) 
C=CCOc1nc(-c2ccc(O)c(COC)c2)[n-]c(=O)c1C#N (protonated)
C=CCOc1nc(-c2ccc(O)c(COC)c2)[n-]c(=O)c1C#N (3D coordinates assigned)
C=CCOc1nc(-c2ccc(O)c(COC)c2)[n-]c(=O)c1C#N (optimized conformer: 37.59301015384788 kcal/mol)

>  <smiles>  (91) 
C=CCOc1nc(-c2ccc(O)c(COC)c2)[nH]c(=O)c1C#N

>  <score_type>  (91) 
oracle

>  <origin>  (91) 
adg

>  <m_score__min__energy>  (91) 
-7.6699999999999999

>  <m_primary>  (91) 
energy

$$$$
91:0
     RDKit          3D

 46 49  0  0  0  0  0  0  0  0999 V2000
   67.5470   29.1150   52.3100 C   0  0  0  0  0  0  0  0  0  0  0  0
   67.0640   30.4480   52.4320 O   0  0  0  0  0  0  0  0  0  0  0  0
   66.2670   31.0930   51.4740 C   0  0  0  0  0  0  0  0  0  0  0  0
   66.7360   32.1750   50.7060 C   0  0  0  0  0  0  0  0  0  0  0  0
   65.9020   32.7830   49.7630 C   0  0  0  0  0  0  0  0  0  0  0  0
   64.5970   32.3120   49.5610 C   0  0  0  0  0  0  0  0  0  0  0  0
   63.7250   32.9720   48.5710 C   0  0  0  0  0  0  0  0  0  0  0  0
   64.0720   33.1390   47.2760 N   0  0  0  0  0  0  0  0  0  0  0  0
   63.0360   33.6890   46.6570 N   0  0  0  0  0  0  0  0  0  0  0  0
   62.0720   33.8330   47.5830 C   0  0  0  0  0  0  0  0  0  0  0  0
   62.4720   33.4180   48.7980 N   0  0  0  0  0  0  0  0  0  0  0  0
   61.5880   33.2180   49.9540 C   0  0  0  0  0  0  0  0  0  0  0  0
   60.3070   34.0560   49.7730 C   0  0  2  0  0  0  0  0  0  0  0  0
   59.2560   33.7500   50.8500 C   0  0  0  0  0  0  0  0  0  0  0  0
   59.8060   33.8870   48.3930 N   0  0  0  0  0  0  0  0  0  0  0  0
   58.7860   32.9270   48.0520 C   0  0  0  0  0  0  0  0  0  0  0  0
   58.1610   32.3300   48.9690 O   0  0  0  0  0  0  0  0  0  0  0  0
   58.4750   32.6420   46.6290 C   0  0  0  0  0  0  0  0  0  0  0  0
   57.8790   33.6520   45.8510 C   0  0  0  0  0  0  0  0  0  0  0  0
   57.5560   33.4240   44.5110 C   0  0  0  0  0  0  0  0  0  0  0  0
   57.8250   32.1870   43.9260 C   0  0  0  0  0  0  0  0  0  0  0  0
   57.4190   31.9030   42.2440 Cl  0  0  0  0  0  0  0  0  0  0  0  0
   58.4230   31.1740   44.6820 C   0  0  0  0  0  0  0  0  0  0  0  0
   58.7520   31.3900   46.0260 C   0  0  0  0  0  0  0  0  0  0  0  0
   59.5640   30.0840   46.8850 Cl  0  0  0  0  0  0  0  0  0  0  0  0
   60.6950   34.3620   47.3230 C   0  0  0  0  0  0  0  0  0  0  0  0
   64.1220   31.2480   50.3420 C   0  0  0  0  0  0  0  0  0  0  0  0
   64.9560   30.6400   51.2860 C   0  0  0  0  0  0  0  0  0  0  0  0
   67.7017   28.6879   53.3118 H   0  0  0  0  0  0  0  0  0  0  0  0
   66.8119   28.5074   51.7619 H   0  0  0  0  0  0  0  0  0  0  0  0
   68.5007   29.1193   51.7619 H   0  0  0  0  0  0  0  0  0  0  0  0
   67.7626   32.5437   50.8482 H   0  0  0  0  0  0  0  0  0  0  0  0
   66.2720   33.6364   49.1758 H   0  0  0  0  0  0  0  0  0  0  0  0
   61.3217   32.1536   50.0320 H   0  0  0  0  0  0  0  0  0  0  0  0
   62.1065   33.5347   50.8710 H   0  0  0  0  0  0  0  0  0  0  0  0
   60.5458   35.1202   49.9158 H   0  0  0  0  0  0  0  0  0  0  0  0
   59.7034   33.8803   51.8464 H   0  0  0  0  0  0  0  0  0  0  0  0
   58.4048   34.4376   50.7375 H   0  0  0  0  0  0  0  0  0  0  0  0
   58.9069   32.7129   50.7375 H   0  0  0  0  0  0  0  0  0  0  0  0
   57.6651   34.6318   46.3029 H   0  0  0  0  0  0  0  0  0  0  0  0
   57.0883   34.2222   43.9159 H   0  0  0  0  0  0  0  0  0  0  0  0
   58.6366   30.2000   44.2175 H   0  0  0  0  0  0  0  0  0  0  0  0
   60.3340   33.9964   46.3504 H   0  0  0  0  0  0  0  0  0  0  0  0
   60.7098   35.4617   47.3042 H   0  0  0  0  0  0  0  0  0  0  0  0
   63.0899   30.8905   50.2116 H   0  0  0  0  0  0  0  0  0  0  0  0
   64.5784   29.7987   51.8857 H   0  0  0  0  0  0  0  0  0  0  0  0
  1  2  1  0
  2  3  1  0
  3  4  2  0
  4  5  1  0
  5  6  2  0
  6  7  1  0
  7  8  2  0
  8  9  1  0
  9 10  2  0
 10 11  1  0
 11 12  1  0
 12 13  1  0
 13 14  1  0
 13 15  1  0
 15 16  1  0
 16 17  2  0
 16 18  1  0
 18 19  2  0
 19 20  1  0
 20 21  2  0
 21 22  1  0
 21 23  1  0
 23 24  2  0
 24 25  1  0
 15 26  1  0
  6 27  1  0
 27 28  2  0
 28  3  1  0
 11  7  1  0
 24 18  1  0
 26 10  1  0
  1 29  1  0
  1 30  1  0
  1 31  1  0
  4 32  1  0
  5 33  1  0
 12 34  1  0
 12 35  1  0
 13 36  1  6
 14 37  1  0
 14 38  1  0
 14 39  1  0
 19 40  1  0
 20 41  1  0
 23 42  1  0
 26 43  1  0
 26 44  1  0
 27 45  1  0
 28 46  1  0
M  END
>  <UniqueID>  (92) 
87

>  <SMILES>  (92) 
COc1ccc(-c2nnc3n2C[C@H](C)N(C(=O)c2ccc(Cl)cc2Cl)C3)cc1

>  <Energy>  (92) 
100.75992781505

>  <Genealogy>  (92) 
COc1ccc(-c2nnc3n2C[C@H](C)N(C(=O)c2ccc(Cl)cc2Cl)C3)cc1 (chirality)
COc1ccc(-c2nnc3n2C[C@H](C)N(C(=O)c2ccc(Cl)cc2Cl)C3)cc1 (3D coordinates assigned)
COc1ccc(-c2nnc3n2C[C@H](C)N(C(=O)c2ccc(Cl)cc2Cl)C3)cc1 (nonaromatic ring conformer: 100.75992781505 kcal/mol)

>  <smiles>  (92) 
COc1ccc(-c2nnc3n2CC(C)N(C(=O)c2ccc(Cl)cc2Cl)C3)cc1

>  <score_type>  (92) 
oracle

>  <origin>  (92) 
adg

>  <m_score__min__energy>  (92) 
-8.2100000000000009

>  <m_primary>  (92) 
energy

$$$$
92:0
     RDKit          3D

 37 40  0  0  0  0  0  0  0  0999 V2000
   57.5250   30.8540   45.8340 O   0  0  0  0  0  0  0  0  0  0  0  0
   58.1850   30.1610   46.6530 C   0  0  0  0  0  0  0  0  0  0  0  0
   58.6400   28.7530   46.3850 C   0  0  2  0  0  0  0  0  0  0  0  0
   57.4790   27.8040   46.2530 C   0  0  0  0  0  0  0  0  0  0  0  0
   57.5020   26.5170   46.6500 N   0  0  0  0  0  0  0  0  0  0  0  0
   56.2950   26.0490   46.2680 C   0  0  0  0  0  0  0  0  0  0  0  0
   55.9320   24.8630   46.4770 O   0  0  0  0  0  0  0  0  0  0  0  0
   55.5120   26.9490   45.6380 N   0  0  0  0  0  0  0  0  0  0  0  0
   56.2750   28.0540   45.6270 C   0  0  0  0  0  0  0  0  0  0  0  0
   55.8730   29.2530   45.0420 O   0  0  0  0  0  0  0  0  0  0  0  0
   59.4110   28.4890   47.6410 C   0  0  0  0  0  0  0  0  0  0  0  0
   60.1270   27.3410   47.9870 C   0  0  0  0  0  0  0  0  0  0  0  0
   60.7910   27.3110   49.2230 C   0  0  0  0  0  0  0  0  0  0  0  0
   60.7330   28.4190   50.0900 C   0  0  0  0  0  0  0  0  0  0  0  0
   60.0150   29.5690   49.7240 C   0  0  0  0  0  0  0  0  0  0  0  0
   59.3660   29.5830   48.4860 C   0  0  0  0  0  0  0  0  0  0  0  0
   58.6020   30.6470   47.9300 N   0  0  0  0  0  0  0  0  0  0  0  0
   58.6300   32.0520   48.3370 C   0  0  0  0  0  0  0  0  0  0  0  0
   58.6020   32.9480   47.1270 C   0  0  0  0  0  0  0  0  0  0  0  0
   57.3850   33.4730   46.6630 C   0  0  0  0  0  0  0  0  0  0  0  0
   57.3520   34.2730   45.5170 C   0  0  0  0  0  0  0  0  0  0  0  0
   58.5320   34.5500   44.8210 C   0  0  0  0  0  0  0  0  0  0  0  0
   59.7470   34.0270   45.2710 C   0  0  0  0  0  0  0  0  0  0  0  0
   59.7840   33.2260   46.4180 C   0  0  0  0  0  0  0  0  0  0  0  0
   59.2029   28.6225   45.4490 H   0  0  0  0  0  0  0  0  0  0  0  0
   55.7880   30.1050   45.5810 H   0  0  0  0  0  0  0  0  0  0  0  0
   60.1696   26.4787   47.3053 H   0  0  0  0  0  0  0  0  0  0  0  0
   61.3602   26.4166   49.5163 H   0  0  0  0  0  0  0  0  0  0  0  0
   61.2527   28.3836   51.0588 H   0  0  0  0  0  0  0  0  0  0  0  0
   59.9645   30.4385   50.3958 H   0  0  0  0  0  0  0  0  0  0  0  0
   57.7533   32.2649   48.9664 H   0  0  0  0  0  0  0  0  0  0  0  0
   59.5547   32.2423   48.9015 H   0  0  0  0  0  0  0  0  0  0  0  0
   56.4528   33.2536   47.2041 H   0  0  0  0  0  0  0  0  0  0  0  0
   56.3958   34.6852   45.1624 H   0  0  0  0  0  0  0  0  0  0  0  0
   58.5042   35.1795   43.9193 H   0  0  0  0  0  0  0  0  0  0  0  0
   60.6756   34.2451   44.7231 H   0  0  0  0  0  0  0  0  0  0  0  0
   60.7418   32.8122   46.7663 H   0  0  0  0  0  0  0  0  0  0  0  0
  1  2  2  0
  2  3  1  0
  3  4  1  0
  4  5  1  0
  5  6  1  0
  6  7  2  0
  6  8  1  0
  8  9  1  0
  9 10  1  0
  3 11  1  0
 11 12  2  0
 12 13  1  0
 13 14  2  0
 14 15  1  0
 15 16  2  0
 16 17  1  0
 17 18  1  0
 18 19  1  0
 19 20  2  0
 20 21  1  0
 21 22  2  0
 22 23  1  0
 23 24  2  0
 17  2  1  0
 24 19  1  0
  9  4  2  0
 16 11  1  0
  3 25  1  6
 10 26  1  0
 12 27  1  0
 13 28  1  0
 14 29  1  0
 15 30  1  0
 18 31  1  0
 18 32  1  0
 20 33  1  0
 21 34  1  0
 22 35  1  0
 23 36  1  0
 24 37  1  0
M  CHG  2   5  -1   8  -1
M  END
>  <UniqueID>  (93) 
88

>  <SMILES>  (93) 
O=C1[C@H](c2[n-]c(=O)[n-]c2O)c2ccccc2N1Cc1ccccc1

>  <Energy>  (93) 
88.24746560238351

>  <Genealogy>  (93) 
O=C1C(c2[n-]c(=O)[n-]c2O)c2ccccc2N1Cc1ccccc1 (protonated)
O=C1[C@H](c2[n-]c(=O)[n-]c2O)c2ccccc2N1Cc1ccccc1 (chirality)
O=C1[C@H](c2[n-]c(=O)[n-]c2O)c2ccccc2N1Cc1ccccc1 (3D coordinates assigned)
O=C1[C@H](c2[n-]c(=O)[n-]c2O)c2ccccc2N1Cc1ccccc1 (nonaromatic ring conformer: 88.24746560238351 kcal/mol)

>  <smiles>  (93) 
O=C1C(c2[nH]c(=O)[nH]c2O)c2ccccc2N1Cc1ccccc1

>  <score_type>  (93) 
oracle

>  <origin>  (93) 
adg

>  <m_score__min__energy>  (93) 
-11.9

>  <m_primary>  (93) 
energy

$$$$
93:0
     RDKit          3D

 45 48  0  0  0  0  0  0  0  0999 V2000
   57.0660   31.0710   51.5990 C   0  0  0  0  0  0  0  0  0  0  0  0
   57.6770   30.1390   50.7140 O   0  0  0  0  0  0  0  0  0  0  0  0
   59.0410   29.8040   50.7220 C   0  0  0  0  0  0  0  0  0  0  0  0
   59.6870   29.3730   51.8990 C   0  0  0  0  0  0  0  0  0  0  0  0
   61.0550   29.0910   51.8940 C   0  0  0  0  0  0  0  0  0  0  0  0
   61.7950   29.2390   50.7230 C   0  0  0  0  0  0  0  0  0  0  0  0
   61.1700   29.6570   49.5480 C   0  0  0  0  0  0  0  0  0  0  0  0
   59.7900   29.9250   49.5290 C   0  0  0  0  0  0  0  0  0  0  0  0
   59.1640   30.3570   48.2580 C   0  0  0  0  0  0  0  0  0  0  0  0
   58.4610   29.4540   47.4470 C   0  0  0  0  0  0  0  0  0  0  0  0
   57.8710   29.8870   46.2500 C   0  0  0  0  0  0  0  0  0  0  0  0
   57.0690   28.9130   45.4770 C   0  0  0  0  0  0  0  0  0  0  0  0
   55.8790   29.1950   45.1680 O   0  0  0  0  0  0  0  0  0  0  0  0
   57.6810   27.7160   44.9810 N   0  0  0  0  0  0  0  0  0  0  0  0
   57.5860   26.4050   45.5590 C   0  0  0  0  0  0  0  0  0  0  0  0
   58.7030   25.5490   45.6240 C   0  0  0  0  0  0  0  0  0  0  0  0
   58.5790   24.2680   46.1680 C   0  0  0  0  0  0  0  0  0  0  0  0
   57.3430   23.8220   46.6370 C   0  0  0  0  0  0  0  0  0  0  0  0
   56.2240   24.6530   46.5560 C   0  0  0  0  0  0  0  0  0  0  0  0
   56.3350   25.9390   46.0130 C   0  0  0  0  0  0  0  0  0  0  0  0
   55.1930   26.7370   45.9400 O   0  0  0  0  0  0  0  0  0  0  0  0
   58.0430   31.2350   45.8450 C   0  0  0  0  0  0  0  0  0  0  0  0
   57.5630   31.7340   44.6160 C   0  0  0  0  0  0  0  0  0  0  0  0
   57.7620   33.0740   44.2680 C   0  0  0  0  0  0  0  0  0  0  0  0
   58.4520   33.9290   45.1280 C   0  0  0  0  0  0  0  0  0  0  0  0
   58.9610   33.4470   46.3340 C   0  0  0  0  0  0  0  0  0  0  0  0
   58.7710   32.1080   46.6930 C   0  0  0  0  0  0  0  0  0  0  0  0
   59.3020   31.6480   47.8550 N   0  0  0  0  0  0  0  0  0  0  0  0
   57.2622   30.7718   52.6392 H   0  0  0  0  0  0  0  0  0  0  0  0
   57.4829   32.0732   51.4210 H   0  0  0  0  0  0  0  0  0  0  0  0
   55.9806   31.0884   51.4210 H   0  0  0  0  0  0  0  0  0  0  0  0
   59.1093   29.2580   52.8280 H   0  0  0  0  0  0  0  0  0  0  0  0
   61.5489   28.7514   52.8164 H   0  0  0  0  0  0  0  0  0  0  0  0
   62.8741   29.0259   50.7249 H   0  0  0  0  0  0  0  0  0  0  0  0
   61.7618   29.7779   48.6287 H   0  0  0  0  0  0  0  0  0  0  0  0
   58.3718   28.4006   47.7511 H   0  0  0  0  0  0  0  0  0  0  0  0
   59.6774   25.8907   45.2447 H   0  0  0  0  0  0  0  0  0  0  0  0
   59.4581   23.6094   46.2267 H   0  0  0  0  0  0  0  0  0  0  0  0
   57.2501   22.8154   47.0707 H   0  0  0  0  0  0  0  0  0  0  0  0
   55.2497   24.2955   46.9208 H   0  0  0  0  0  0  0  0  0  0  0  0
   55.1420   27.5590   45.3490 H   0  0  0  0  0  0  0  0  0  0  0  0
   57.0283   31.0644   43.9263 H   0  0  0  0  0  0  0  0  0  0  0  0
   57.3729   33.4553   43.3124 H   0  0  0  0  0  0  0  0  0  0  0  0
   58.5948   34.9849   44.8546 H   0  0  0  0  0  0  0  0  0  0  0  0
   59.5134   34.1215   47.0048 H   0  0  0  0  0  0  0  0  0  0  0  0
  1  2  1  0
  2  3  1  0
  3  4  2  0
  4  5  1  0
  5  6  2  0
  6  7  1  0
  7  8  2  0
  8  9  1  0
  9 10  2  0
 10 11  1  0
 11 12  1  0
 12 13  2  0
 12 14  1  0
 14 15  1  0
 15 16  2  0
 16 17  1  0
 17 18  2  0
 18 19  1  0
 19 20  2  0
 20 21  1  0
 11 22  2  0
 22 23  1  0
 23 24  2  0
 24 25  1  0
 25 26  2  0
 26 27  1  0
 27 28  2  0
  8  3  1  0
 28  9  1  0
 20 15  1  0
 27 22  1  0
  1 29  1  0
  1 30  1  0
  1 31  1  0
  4 32  1  0
  5 33  1  0
  6 34  1  0
  7 35  1  0
 10 36  1  0
 16 37  1  0
 17 38  1  0
 18 39  1  0
 19 40  1  0
 21 41  1  0
 23 42  1  0
 24 43  1  0
 25 44  1  0
 26 45  1  0
M  CHG  1  14  -1
M  END
>  <UniqueID>  (94) 
89

>  <SMILES>  (94) 
COc1ccccc1-c1cc(C(=O)[N-]c2ccccc2O)c2ccccc2n1

>  <Energy>  (94) 
68.87225577647442

>  <Genealogy>  (94) 
COc1ccccc1-c1cc(C(=O)[N-]c2ccccc2O)c2ccccc2n1 (protonated)
COc1ccccc1-c1cc(C(=O)[N-]c2ccccc2O)c2ccccc2n1 (3D coordinates assigned)
COc1ccccc1-c1cc(C(=O)[N-]c2ccccc2O)c2ccccc2n1 (optimized conformer: 68.87225577647442 kcal/mol)

>  <smiles>  (94) 
COc1ccccc1-c1cc(C(=O)Nc2ccccc2O)c2ccccc2n1

>  <score_type>  (94) 
oracle

>  <origin>  (94) 
adg

>  <m_score__min__energy>  (94) 
-11.1

>  <m_primary>  (94) 
energy

$$$$
94:0
     RDKit          3D

 62 65  0  0  0  0  0  0  0  0999 V2000
   59.6730   31.8850   48.1760 O   0  0  0  0  0  0  0  0  0  0  0  0
   59.1050   32.9940   48.3700 C   0  0  0  0  0  0  0  0  0  0  0  0
   58.2100   33.5350   47.3910 N   0  0  0  0  0  0  0  0  0  0  0  0
   58.0560   33.0850   46.0370 C   0  0  0  0  0  0  0  0  0  0  0  0
   58.6220   33.8490   45.0080 C   0  0  0  0  0  0  0  0  0  0  0  0
   58.5270   33.4230   43.6800 C   0  0  0  0  0  0  0  0  0  0  0  0
   57.8820   32.2220   43.3720 C   0  0  0  0  0  0  0  0  0  0  0  0
   57.3310   31.4370   44.3960 C   0  0  0  0  0  0  0  0  0  0  0  0
   56.5120   29.9250   44.0170 S   0  0  0  0  0  0  0  0  0  0  0  0
   56.0280   29.9760   42.5950 O   0  0  0  0  0  0  0  0  0  0  0  0
   55.3190   29.7490   44.9150 O   0  0  0  0  0  0  0  0  0  0  0  0
   57.5940   28.5730   44.1960 N   0  0  0  0  0  0  0  0  0  0  0  0
   58.9630   29.0170   44.4700 C   0  0  0  0  0  0  0  0  0  0  0  0
   59.2640   28.9760   45.9470 C   0  0  0  0  0  0  0  0  0  0  0  0
   60.4940   29.4480   46.4350 C   0  0  0  0  0  0  0  0  0  0  0  0
   60.7690   29.4040   47.8060 C   0  0  0  0  0  0  0  0  0  0  0  0
   59.8200   28.8870   48.6950 C   0  0  0  0  0  0  0  0  0  0  0  0
   58.6000   28.4090   48.2170 C   0  0  0  0  0  0  0  0  0  0  0  0
   58.3220   28.4460   46.8460 C   0  0  0  0  0  0  0  0  0  0  0  0
   57.4220   31.8670   45.7270 C   0  0  0  0  0  0  0  0  0  0  0  0
   59.3110   33.7060   49.5970 N   0  0  0  0  0  0  0  0  0  0  0  0
   60.1240   33.1750   50.6940 C   0  0  1  0  0  0  0  0  0  0  0  0
   59.9100   31.6550   50.8300 C   0  0  0  0  0  0  0  0  0  0  0  0
   58.5900   31.3190   51.4810 C   0  0  0  0  0  0  0  0  0  0  0  0
   57.6370   32.3230   51.7290 C   0  0  0  0  0  0  0  0  0  0  0  0
   56.4160   32.0050   52.3370 C   0  0  0  0  0  0  0  0  0  0  0  0
   56.1380   30.6830   52.6970 C   0  0  0  0  0  0  0  0  0  0  0  0
   57.0790   29.6760   52.4490 C   0  0  0  0  0  0  0  0  0  0  0  0
   58.3020   29.9910   51.8470 C   0  0  0  0  0  0  0  0  0  0  0  0
   61.5850   33.5190   50.4930 C   0  0  0  0  0  0  0  0  0  0  0  0
   62.2360   33.9820   51.4670 O   0  0  0  0  0  0  0  0  0  0  0  0
   62.2920   33.2760   49.2150 C   0  0  0  0  0  0  0  0  0  0  0  0
   63.1250   32.1480   49.0880 C   0  0  0  0  0  0  0  0  0  0  0  0
   63.7530   31.8640   47.8700 C   0  0  0  0  0  0  0  0  0  0  0  0
   63.5720   32.7170   46.7770 C   0  0  0  0  0  0  0  0  0  0  0  0
   62.7690   33.8580   46.9010 C   0  0  0  0  0  0  0  0  0  0  0  0
   62.1290   34.1360   48.1140 C   0  0  0  0  0  0  0  0  0  0  0  0
   59.1433   34.7879   45.2461 H   0  0  0  0  0  0  0  0  0  0  0  0
   58.9610   34.0346   42.8753 H   0  0  0  0  0  0  0  0  0  0  0  0
   57.8063   31.8918   42.3255 H   0  0  0  0  0  0  0  0  0  0  0  0
   59.6668   28.3569   43.9419 H   0  0  0  0  0  0  0  0  0  0  0  0
   59.0690   30.0549   44.1215 H   0  0  0  0  0  0  0  0  0  0  0  0
   61.2423   29.8529   45.7378 H   0  0  0  0  0  0  0  0  0  0  0  0
   61.7321   29.7761   48.1855 H   0  0  0  0  0  0  0  0  0  0  0  0
   60.0366   28.8575   49.7731 H   0  0  0  0  0  0  0  0  0  0  0  0
   57.8560   28.0027   48.9180 H   0  0  0  0  0  0  0  0  0  0  0  0
   57.3632   28.0591   46.4705 H   0  0  0  0  0  0  0  0  0  0  0  0
   56.9964   31.2503   46.5323 H   0  0  0  0  0  0  0  0  0  0  0  0
   58.8910   34.6590   49.6780 H   0  0  0  0  0  0  0  0  0  0  0  0
   59.8026   33.6456   51.6349 H   0  0  0  0  0  0  0  0  0  0  0  0
   59.9354   31.2030   49.8275 H   0  0  0  0  0  0  0  0  0  0  0  0
   60.7119   31.2578   51.4698 H   0  0  0  0  0  0  0  0  0  0  0  0
   57.8517   33.3635   51.4440 H   0  0  0  0  0  0  0  0  0  0  0  0
   55.6759   32.7953   52.5312 H   0  0  0  0  0  0  0  0  0  0  0  0
   55.1794   30.4337   53.1754 H   0  0  0  0  0  0  0  0  0  0  0  0
   56.8562   28.6356   52.7280 H   0  0  0  0  0  0  0  0  0  0  0  0
   59.0409   29.1981   51.6591 H   0  0  0  0  0  0  0  0  0  0  0  0
   63.2832   31.4856   49.9518 H   0  0  0  0  0  0  0  0  0  0  0  0
   64.3880   30.9711   47.7727 H   0  0  0  0  0  0  0  0  0  0  0  0
   64.0612   32.4916   45.8179 H   0  0  0  0  0  0  0  0  0  0  0  0
   62.6414   34.5360   46.0442 H   0  0  0  0  0  0  0  0  0  0  0  0
   61.4959   35.0307   48.2068 H   0  0  0  0  0  0  0  0  0  0  0  0
  1  2  2  0
  2  3  1  0
  3  4  1  0
  4  5  2  0
  5  6  1  0
  6  7  2  0
  7  8  1  0
  8  9  1  0
  9 10  2  0
  9 11  2  0
  9 12  1  0
 12 13  1  0
 13 14  1  0
 14 15  2  0
 15 16  1  0
 16 17  2  0
 17 18  1  0
 18 19  2  0
  8 20  2  0
  2 21  1  0
 21 22  1  0
 22 23  1  0
 23 24  1  0
 24 25  2  0
 25 26  1  0
 26 27  2  0
 27 28  1  0
 28 29  2  0
 22 30  1  0
 30 31  2  0
 30 32  1  0
 32 33  2  0
 33 34  1  0
 34 35  2  0
 35 36  1  0
 36 37  2  0
 20  4  1  0
 29 24  1  0
 37 32  1  0
 19 14  1  0
  5 38  1  0
  6 39  1  0
  7 40  1  0
 13 41  1  0
 13 42  1  0
 15 43  1  0
 16 44  1  0
 17 45  1  0
 18 46  1  0
 19 47  1  0
 20 48  1  0
 21 49  1  0
 22 50  1  1
 23 51  1  0
 23 52  1  0
 25 53  1  0
 26 54  1  0
 27 55  1  0
 28 56  1  0
 29 57  1  0
 33 58  1  0
 34 59  1  0
 35 60  1  0
 36 61  1  0
 37 62  1  0
M  CHG  2   3  -1  12  -1
M  END
>  <UniqueID>  (95) 
90

>  <SMILES>  (95) 
O=C([N-]c1cccc(S(=O)(=O)[N-]Cc2ccccc2)c1)N[C@@H](Cc1ccccc1)C(=O)c1ccccc1

>  <Energy>  (95) 
69.0453442548922

>  <Genealogy>  (95) 
O=C([N-]c1cccc(S(=O)(=O)[N-]Cc2ccccc2)c1)NC(Cc1ccccc1)C(=O)c1ccccc1 (protonated)
O=C([N-]c1cccc(S(=O)(=O)[N-]Cc2ccccc2)c1)N[C@@H](Cc1ccccc1)C(=O)c1ccccc1 (chirality)
O=C([N-]c1cccc(S(=O)(=O)[N-]Cc2ccccc2)c1)N[C@@H](Cc1ccccc1)C(=O)c1ccccc1 (3D coordinates assigned)
O=C([N-]c1cccc(S(=O)(=O)[N-]Cc2ccccc2)c1)N[C@@H](Cc1ccccc1)C(=O)c1ccccc1 (optimized conformer: 69.0453442548922 kcal/mol)

>  <smiles>  (95) 
O=C(Nc1cccc(S(=O)(=O)NCc2ccccc2)c1)NC(Cc1ccccc1)C(=O)c1ccccc1

>  <score_type>  (95) 
oracle

>  <origin>  (95) 
adg

>  <m_score__min__energy>  (95) 
-12.94

>  <m_primary>  (95) 
energy

$$$$
