0:0
     RDKit          3D

 39 42  0  0  0  0  0  0  0  0999 V2000
   57.9059   26.8215   43.7817 H   0  0  0  0  0  0  0  0  0  0  0  0
   57.5160   27.1030   44.7710 C   0  0  0  0  0  0  0  0  0  0  0  0
   57.1000   26.0050   45.6650 C   0  0  0  0  0  0  0  0  0  0  0  0
   57.9030   25.0400   46.1480 N   0  0  0  0  0  0  0  0  0  0  0  0
   57.0980   24.3500   46.9850 C   0  0  0  0  0  0  0  0  0  0  0  0
   57.4910   23.3460   47.6320 O   0  0  0  0  0  0  0  0  0  0  0  0
   55.8380   24.8280   47.0810 N   0  0  0  0  0  0  0  0  0  0  0  0
   55.8610   25.8800   46.2480 C   0  0  0  0  0  0  0  0  0  0  0  0
   54.7710   26.7120   46.0270 O   0  0  0  0  0  0  0  0  0  0  0  0
   57.4620   28.4150   45.0550 C   0  0  0  0  0  0  0  0  0  0  0  0
   56.8040   29.3690   44.2910 C   0  0  0  0  0  0  0  0  0  0  0  0
   56.2278   29.1588   43.3779 H   0  0  0  0  0  0  0  0  0  0  0  0
   56.9760   30.5950   44.8350 N   0  0  0  0  0  0  0  0  0  0  0  0
   57.7220   30.4600   45.9180 N   0  0  0  0  0  0  0  0  0  0  0  0
   58.2050   31.4110   46.7790 C   0  0  0  0  0  0  0  0  0  0  0  0
   57.9530   32.6980   46.7260 N   0  0  0  0  0  0  0  0  0  0  0  0
   57.8680   33.8360   45.7890 C   0  0  0  0  0  0  0  0  0  0  0  0
   56.8750   34.1352   46.1557 H   0  0  0  0  0  0  0  0  0  0  0  0
   59.1480   34.5740   45.4680 C   0  0  0  0  0  0  0  0  0  0  0  0
   59.1374   35.6663   45.3384 H   0  0  0  0  0  0  0  0  0  0  0  0
   60.1471   34.6401   45.9234 H   0  0  0  0  0  0  0  0  0  0  0  0
   58.4830   33.6660   44.4190 C   0  0  0  0  0  0  0  0  0  0  0  0
   57.9957   34.1072   43.5370 H   0  0  0  0  0  0  0  0  0  0  0  0
   58.8070   32.8099   43.8090 H   0  0  0  0  0  0  0  0  0  0  0  0
   59.0190   30.9850   47.7840 N   0  0  0  0  0  0  0  0  0  0  0  0
   59.3340   29.6670   47.9350 C   0  0  0  0  0  0  0  0  0  0  0  0
   60.4280   29.1580   49.2620 S   0  0  0  0  0  0  0  0  0  0  0  0
   60.2140   27.3410   49.0810 C   0  0  0  0  0  0  0  0  0  0  0  0
   59.1307   27.1515   49.0577 H   0  0  0  0  0  0  0  0  0  0  0  0
   60.7890   26.8230   47.7600 C   0  0  0  0  0  0  0  0  0  0  0  0
   61.5915   26.1000   47.9679 H   0  0  0  0  0  0  0  0  0  0  0  0
   59.9931   26.3311   47.1815 H   0  0  0  0  0  0  0  0  0  0  0  0
   61.1954   27.6657   47.1815 H   0  0  0  0  0  0  0  0  0  0  0  0
   60.7830   26.5770   50.2800 C   0  0  0  0  0  0  0  0  0  0  0  0
   60.4342   27.0453   51.2122 H   0  0  0  0  0  0  0  0  0  0  0  0
   60.4414   25.5320   50.2445 H   0  0  0  0  0  0  0  0  0  0  0  0
   61.8821   26.6049   50.2445 H   0  0  0  0  0  0  0  0  0  0  0  0
   58.8530   28.7440   47.0630 N   0  0  0  0  0  0  0  0  0  0  0  0
   58.0330   29.1600   46.0720 C   0  0  0  0  0  0  0  0  0  0  0  0
  1  2  1  0
  2  3  1  0
  3  4  1  0
  4  5  1  0
  5  6  2  0
  5  7  1  0
  7  8  1  0
  8  9  1  0
  2 10  2  0
 10 11  1  0
 11 12  1  0
 11 13  2  0
 13 14  1  0
 14 15  1  0
 15 16  2  3
 16 17  1  0
 17 18  1  0
 17 19  1  0
 19 20  1  0
 19 21  1  0
 19 22  1  0
 22 23  1  0
 22 24  1  0
 15 25  1  0
 25 26  2  0
 26 27  1  0
 27 28  1  0
 28 29  1  0
 28 30  1  0
 30 31  1  0
 30 32  1  0
 30 33  1  0
 28 34  1  0
 34 35  1  0
 34 36  1  0
 34 37  1  0
 26 38  1  0
 38 39  2  0
  8  3  2  0
 39 10  1  0
 39 14  1  0
 22 17  1  0
M  CHG  3   4  -1   7  -1   9  -1
M  END
>  <UniqueID>  (1) 
1

>  <SMILES>  (1) 
CC(C)Sc1nc(=NC2CC2)n2nc/c(=C/c3[n-]c(=O)[n-]c3[O-])c2n1

>  <Energy>  (1) 
398.33973463074165

>  <Genealogy>  (1) 
CC(C)Sc1nc(=NC2CC2)n2ncc(=Cc3[n-]c(=O)[n-]c3[O-])c2n1 (protonated)
CC(C)Sc1nc(=NC2CC2)n2nc/c(=C/c3[n-]c(=O)[n-]c3[O-])c2n1 (cis-trans isomerization)
CC(C)Sc1nc(=NC2CC2)n2nc/c(=C/c3[n-]c(=O)[n-]c3[O-])c2n1 (3D coordinates assigned)
CC(C)Sc1nc(=NC2CC2)n2nc/c(=C/c3[n-]c(=O)[n-]c3[O-])c2n1 (nonaromatic ring conformer: 398.33973463074165 kcal/mol)

>  <smiles>  (1) 
CC(C)Sc1nc(=NC2CC2)n2ncc(=Cc3[nH]c(=O)[nH]c3O)c2n1

>  <score_type>  (1) 
oracle

>  <origin>  (1) 
adg

>  <m_score__min__energy>  (1) 
-15.68

>  <m_primary>  (1) 
energy

$$$$
1:0
     RDKit          3D

 40 43  0  0  0  0  0  0  0  0999 V2000
   63.1650   31.5240   50.9580 O   0  0  0  0  0  0  0  0  0  0  0  0
   63.8590   31.8400   49.9530 C   0  0  0  0  0  0  0  0  0  0  0  0
   65.2740   31.5910   49.9620 N   0  0  0  0  0  0  0  0  0  0  0  0
   65.9870   31.2520   51.1610 C   0  0  0  0  0  0  0  0  0  0  0  0
   65.6650   30.0640   51.8330 C   0  0  0  0  0  0  0  0  0  0  0  0
   66.3410   29.7070   53.0020 C   0  0  0  0  0  0  0  0  0  0  0  0
   67.3550   30.5260   53.5030 C   0  0  0  0  0  0  0  0  0  0  0  0
   67.7030   31.6980   52.8260 C   0  0  0  0  0  0  0  0  0  0  0  0
   67.0310   32.0650   51.6540 C   0  0  0  0  0  0  0  0  0  0  0  0
   67.5770   33.4970   50.7880 Cl  0  0  0  0  0  0  0  0  0  0  0  0
   63.1980   32.4340   48.7650 C   0  0  0  0  0  0  0  0  0  0  0  0
   63.7120   33.5930   48.1580 C   0  0  0  0  0  0  0  0  0  0  0  0
   63.0740   34.1510   47.0480 C   0  0  0  0  0  0  0  0  0  0  0  0
   61.9160   33.5660   46.5330 C   0  0  0  0  0  0  0  0  0  0  0  0
   61.3810   32.4130   47.1270 C   0  0  0  0  0  0  0  0  0  0  0  0
   60.1870   31.8100   46.5980 N   0  0  0  0  0  0  0  0  0  0  0  0
   59.2840   32.3570   45.6280 C   0  0  0  0  0  0  0  0  0  0  0  0
   59.3920   33.5030   45.1170 O   0  0  0  0  0  0  0  0  0  0  0  0
   58.1990   31.4170   45.3710 C   0  0  0  0  0  0  0  0  0  0  0  0
   57.0990   31.5090   44.5210 C   0  0  0  0  0  0  0  0  0  0  0  0
   56.2010   30.4260   44.4830 C   0  0  0  0  0  0  0  0  0  0  0  0
   56.4180   29.2870   45.2900 C   0  0  0  0  0  0  0  0  0  0  0  0
   55.5230   28.2260   45.2420 O   0  0  0  0  0  0  0  0  0  0  0  0
   57.5360   29.2210   46.1430 C   0  0  0  0  0  0  0  0  0  0  0  0
   58.4100   30.3070   46.1620 C   0  0  0  0  0  0  0  0  0  0  0  0
   59.6320   30.5310   46.9240 C   0  0  0  0  0  0  0  0  0  0  0  0
   60.1580   29.7060   47.7170 O   0  0  0  0  0  0  0  0  0  0  0  0
   62.0240   31.8550   48.2450 C   0  0  0  0  0  0  0  0  0  0  0  0
   65.7540   31.4250   49.0500 H   0  0  0  0  0  0  0  0  0  0  0  0
   64.8750   29.4091   51.4369 H   0  0  0  0  0  0  0  0  0  0  0  0
   66.0741   28.7790   53.5289 H   0  0  0  0  0  0  0  0  0  0  0  0
   67.8793   30.2490   54.4295 H   0  0  0  0  0  0  0  0  0  0  0  0
   68.5097   32.3359   53.2163 H   0  0  0  0  0  0  0  0  0  0  0  0
   64.6218   34.0631   48.5595 H   0  0  0  0  0  0  0  0  0  0  0  0
   63.4860   35.0558   46.5773 H   0  0  0  0  0  0  0  0  0  0  0  0
   61.4206   34.0110   45.6575 H   0  0  0  0  0  0  0  0  0  0  0  0
   56.9372   32.4012   43.8983 H   0  0  0  0  0  0  0  0  0  0  0  0
   55.3240   30.4667   43.8203 H   0  0  0  0  0  0  0  0  0  0  0  0
   57.7146   28.3390   46.7756 H   0  0  0  0  0  0  0  0  0  0  0  0
   61.6055   30.9553   48.7197 H   0  0  0  0  0  0  0  0  0  0  0  0
  1  2  2  0
  2  3  1  0
  3  4  1  0
  4  5  2  0
  5  6  1  0
  6  7  2  0
  7  8  1  0
  8  9  2  0
  9 10  1  0
  2 11  1  0
 11 12  2  0
 12 13  1  0
 13 14  2  0
 14 15  1  0
 15 16  1  0
 16 17  1  0
 17 18  2  0
 17 19  1  0
 19 20  2  0
 20 21  1  0
 21 22  2  0
 22 23  1  0
 22 24  1  0
 24 25  2  0
 25 26  1  0
 26 27  2  0
 15 28  2  0
  9  4  1  0
 28 11  1  0
 26 16  1  0
 25 19  1  0
  3 29  1  0
  5 30  1  0
  6 31  1  0
  7 32  1  0
  8 33  1  0
 12 34  1  0
 13 35  1  0
 14 36  1  0
 20 37  1  0
 21 38  1  0
 24 39  1  0
 28 40  1  0
M  CHG  1  23  -1
M  END
>  <UniqueID>  (2) 
2

>  <SMILES>  (2) 
O=C(Nc1ccccc1Cl)c1cccc(N2C(=O)c3ccc([O-])cc3C2=O)c1

>  <Energy>  (2) 
90.28782891508045

>  <Genealogy>  (2) 
O=C(Nc1ccccc1Cl)c1cccc(N2C(=O)c3ccc([O-])cc3C2=O)c1 (protonated)
O=C(Nc1ccccc1Cl)c1cccc(N2C(=O)c3ccc([O-])cc3C2=O)c1 (3D coordinates assigned)
O=C(Nc1ccccc1Cl)c1cccc(N2C(=O)c3ccc([O-])cc3C2=O)c1 (nonaromatic ring conformer: 90.28782891508045 kcal/mol)

>  <smiles>  (2) 
O=C(Nc1ccccc1Cl)c1cccc(N2C(=O)c3ccc(O)cc3C2=O)c1

>  <score_type>  (2) 
oracle

>  <origin>  (2) 
adg

>  <m_score__min__energy>  (2) 
-10.92

>  <m_primary>  (2) 
energy

$$$$
2:0
     RDKit          3D

 39 41  0  0  0  0  0  0  0  0999 V2000
   56.5234   32.5130   44.0509 H   0  0  0  0  0  0  0  0  0  0  0  0
   57.2950   31.8530   44.4740 C   0  0  0  0  0  0  0  0  0  0  0  0
   57.3610   30.5970   44.0050 C   0  0  0  0  0  0  0  0  0  0  0  0
   57.2772   30.4503   42.9181 H   0  0  0  0  0  0  0  0  0  0  0  0
   57.5390   29.3960   44.8520 C   0  0  0  0  0  0  0  0  0  0  0  0
   56.4450   28.6290   45.2670 C   0  0  0  0  0  0  0  0  0  0  0  0
   55.1530   28.9620   44.8700 O   0  0  0  0  0  0  0  0  0  0  0  0
   56.6400   27.5420   46.0540 N   0  0  0  0  0  0  0  0  0  0  0  0
   55.8120   26.9830   46.3630 H   0  0  0  0  0  0  0  0  0  0  0  0
   57.8870   27.1660   46.4440 C   0  0  0  0  0  0  0  0  0  0  0  0
   58.0150   26.1520   47.1850 O   0  0  0  0  0  0  0  0  0  0  0  0
   58.9890   27.8780   46.0360 N   0  0  0  0  0  0  0  0  0  0  0  0
   60.3360   27.4970   46.5060 C   0  0  0  0  0  0  0  0  0  0  0  0
   60.4135   26.4001   46.5350 H   0  0  0  0  0  0  0  0  0  0  0  0
   61.0861   27.9095   45.8152 H   0  0  0  0  0  0  0  0  0  0  0  0
   60.5840   28.0500   47.8870 C   0  0  0  0  0  0  0  0  0  0  0  0
   60.6420   27.1910   48.9970 C   0  0  0  0  0  0  0  0  0  0  0  0
   60.5396   26.1051   48.8540 H   0  0  0  0  0  0  0  0  0  0  0  0
   60.8290   27.7080   50.2820 C   0  0  0  0  0  0  0  0  0  0  0  0
   60.8778   27.0289   51.1459 H   0  0  0  0  0  0  0  0  0  0  0  0
   60.9540   29.0870   50.4700 C   0  0  0  0  0  0  0  0  0  0  0  0
   61.0997   29.4931   51.4819 H   0  0  0  0  0  0  0  0  0  0  0  0
   60.8940   29.9500   49.3730 C   0  0  0  0  0  0  0  0  0  0  0  0
   60.9932   31.0353   49.5219 H   0  0  0  0  0  0  0  0  0  0  0  0
   60.7080   29.4360   48.0860 C   0  0  0  0  0  0  0  0  0  0  0  0
   60.6585   30.1193   47.2254 H   0  0  0  0  0  0  0  0  0  0  0  0
   58.8240   28.9820   45.2350 C   0  0  0  0  0  0  0  0  0  0  0  0
   59.8260   29.6440   44.8460 O   0  0  0  0  0  0  0  0  0  0  0  0
   58.1800   32.4180   45.5160 C   0  0  0  0  0  0  0  0  0  0  0  0
   58.9930   33.5410   45.2670 C   0  0  0  0  0  0  0  0  0  0  0  0
   58.9891   34.0101   44.2721 H   0  0  0  0  0  0  0  0  0  0  0  0
   59.8050   34.0620   46.2790 C   0  0  0  0  0  0  0  0  0  0  0  0
   60.4477   34.9309   46.0741 H   0  0  0  0  0  0  0  0  0  0  0  0
   59.8020   33.4810   47.5510 C   0  0  0  0  0  0  0  0  0  0  0  0
   60.9110   34.1940   48.9310 Br  0  0  0  0  0  0  0  0  0  0  0  0
   58.9740   32.3840   47.8140 C   0  0  0  0  0  0  0  0  0  0  0  0
   58.9633   31.9322   48.8169 H   0  0  0  0  0  0  0  0  0  0  0  0
   58.1600   31.8610   46.8040 C   0  0  0  0  0  0  0  0  0  0  0  0
   57.5001   31.0079   47.0205 H   0  0  0  0  0  0  0  0  0  0  0  0
  1  2  1  0
  2  3  2  0
  3  4  1  0
  3  5  1  0
  5  6  2  0
  6  7  1  0
  6  8  1  0
  8  9  1  0
  8 10  1  0
 10 11  2  0
 10 12  1  0
 12 13  1  0
 13 14  1  0
 13 15  1  0
 13 16  1  0
 16 17  2  0
 17 18  1  0
 17 19  1  0
 19 20  1  0
 19 21  2  0
 21 22  1  0
 21 23  1  0
 23 24  1  0
 23 25  2  0
 25 26  1  0
 12 27  1  0
 27 28  2  0
  2 29  1  0
 29 30  2  0
 30 31  1  0
 30 32  1  0
 32 33  1  0
 32 34  2  0
 34 35  1  0
 34 36  1  0
 36 37  1  0
 36 38  2  0
 38 39  1  0
 27  5  1  0
 38 29  1  0
 25 16  1  0
M  CHG  1   7  -1
M  END
>  <UniqueID>  (3) 
3

>  <SMILES>  (3) 
O=c1[nH]c([O-])c(/C=C\c2ccc(Br)cc2)c(=O)n1Cc1ccccc1

>  <Energy>  (3) 
56.60730646230523

>  <Genealogy>  (3) 
O=c1[nH]c([O-])c(C=Cc2ccc(Br)cc2)c(=O)n1Cc1ccccc1 (protonated)
O=c1[nH]c([O-])c(/C=C\c2ccc(Br)cc2)c(=O)n1Cc1ccccc1 (cis-trans isomerization)
O=c1[nH]c([O-])c(/C=C\c2ccc(Br)cc2)c(=O)n1Cc1ccccc1 (3D coordinates assigned)
O=c1[nH]c([O-])c(/C=C\c2ccc(Br)cc2)c(=O)n1Cc1ccccc1 (optimized conformer: 56.60730646230523 kcal/mol)

>  <smiles>  (3) 
O=c1[nH]c(O)c(C=Cc2ccc(Br)cc2)c(=O)n1Cc1ccccc1

>  <score_type>  (3) 
oracle

>  <origin>  (3) 
adg

>  <m_score__min__energy>  (3) 
-11.19

>  <m_primary>  (3) 
energy

$$$$
3:0
     RDKit          3D

 47 50  0  0  0  0  0  0  0  0999 V2000
   59.8664   29.1988   52.1432 H   0  0  0  0  0  0  0  0  0  0  0  0
   59.3180   29.8340   51.4320 C   0  0  0  0  0  0  0  0  0  0  0  0
   59.7820   30.0190   50.2340 N   0  0  0  0  0  0  0  0  0  0  0  0
   60.4790   31.1810   49.8390 N   0  0  0  0  0  0  0  0  0  0  0  0
   61.8470   31.2190   49.8220 C   0  0  0  0  0  0  0  0  0  0  0  0
   62.6000   30.1030   50.1740 O   0  0  0  0  0  0  0  0  0  0  0  0
   62.5060   32.3730   49.4210 C   0  0  0  0  0  0  0  0  0  0  0  0
   63.6050   32.4195   49.4307 H   0  0  0  0  0  0  0  0  0  0  0  0
   61.7580   33.4690   49.0070 C   0  0  0  0  0  0  0  0  0  0  0  0
   62.3630   34.5140   48.6410 O   0  0  0  0  0  0  0  0  0  0  0  0
   60.3880   33.4080   48.9930 N   0  0  0  0  0  0  0  0  0  0  0  0
   59.6030   34.5600   48.5050 C   0  0  0  0  0  0  0  0  0  0  0  0
   58.7685   34.7484   49.1965 H   0  0  0  0  0  0  0  0  0  0  0  0
   60.2591   35.4414   48.4534 H   0  0  0  0  0  0  0  0  0  0  0  0
   59.0540   34.2800   47.1300 C   0  0  0  0  0  0  0  0  0  0  0  0
   59.7470   34.7140   45.9880 C   0  0  0  0  0  0  0  0  0  0  0  0
   60.7075   35.2390   46.0964 H   0  0  0  0  0  0  0  0  0  0  0  0
   59.2200   34.4810   44.7130 C   0  0  0  0  0  0  0  0  0  0  0  0
   59.7688   34.8201   43.8220 H   0  0  0  0  0  0  0  0  0  0  0  0
   57.9990   33.8190   44.5690 C   0  0  0  0  0  0  0  0  0  0  0  0
   57.5862   33.6381   43.5656 H   0  0  0  0  0  0  0  0  0  0  0  0
   57.3010   33.3860   45.7010 C   0  0  0  0  0  0  0  0  0  0  0  0
   56.3398   32.8633   45.5874 H   0  0  0  0  0  0  0  0  0  0  0  0
   57.8240   33.6170   46.9770 C   0  0  0  0  0  0  0  0  0  0  0  0
   57.2704   33.2784   47.8652 H   0  0  0  0  0  0  0  0  0  0  0  0
   59.7570   32.2550   49.4000 C   0  0  0  0  0  0  0  0  0  0  0  0
   58.4960   32.1840   49.3840 O   0  0  0  0  0  0  0  0  0  0  0  0
   58.0640   30.4720   51.8350 C   0  0  0  0  0  0  0  0  0  0  0  0
   56.8790   29.9240   51.7000 O   0  0  0  0  0  0  0  0  0  0  0  0
   55.9730   30.7610   52.1590 C   0  0  0  0  0  0  0  0  0  0  0  0
   54.5210   30.4690   52.1640 C   0  0  0  0  0  0  0  0  0  0  0  0
   54.0230   29.2330   52.6150 C   0  0  0  0  0  0  0  0  0  0  0  0
   54.7196   28.4613   52.9745 H   0  0  0  0  0  0  0  0  0  0  0  0
   52.6500   28.9800   52.6090 C   0  0  0  0  0  0  0  0  0  0  0  0
   52.2704   28.0101   52.9629 H   0  0  0  0  0  0  0  0  0  0  0  0
   51.7570   29.9520   52.1560 C   0  0  0  0  0  0  0  0  0  0  0  0
   50.6768   29.7441   52.1543 H   0  0  0  0  0  0  0  0  0  0  0  0
   52.2300   31.1950   51.7020 C   0  0  0  0  0  0  0  0  0  0  0  0
   51.2870   32.2300   51.2230 C   0  0  0  0  0  0  0  0  0  0  0  0
   50.7100   32.9970   52.0380 O   0  0  0  0  0  0  0  0  0  0  0  0
   51.0220   32.3700   49.8650 O   0  0  0  0  0  0  0  0  0  0  0  0
   53.6140   31.4430   51.7100 C   0  0  0  0  0  0  0  0  0  0  0  0
   53.9928   32.4131   51.3559 H   0  0  0  0  0  0  0  0  0  0  0  0
   56.5980   31.9120   52.6170 C   0  0  0  0  0  0  0  0  0  0  0  0
   56.1150   32.7964   53.0580 H   0  0  0  0  0  0  0  0  0  0  0  0
   57.9480   31.7220   52.4070 C   0  0  0  0  0  0  0  0  0  0  0  0
   58.7626   32.4216   52.6459 H   0  0  0  0  0  0  0  0  0  0  0  0
  1  2  1  0
  2  3  2  0
  3  4  1  0
  4  5  1  0
  5  6  1  0
  5  7  2  0
  7  8  1  0
  7  9  1  0
  9 10  2  0
  9 11  1  0
 11 12  1  0
 12 13  1  0
 12 14  1  0
 12 15  1  0
 15 16  2  0
 16 17  1  0
 16 18  1  0
 18 19  1  0
 18 20  2  0
 20 21  1  0
 20 22  1  0
 22 23  1  0
 22 24  2  0
 24 25  1  0
 11 26  1  0
 26 27  2  0
  2 28  1  0
 28 29  1  0
 29 30  1  0
 30 31  1  0
 31 32  2  0
 32 33  1  0
 32 34  1  0
 34 35  1  0
 34 36  2  0
 36 37  1  0
 36 38  1  0
 38 39  1  0
 39 40  2  0
 39 41  1  0
 38 42  2  0
 42 43  1  0
 30 44  2  0
 44 45  1  0
 44 46  1  0
 46 47  1  0
 26  4  1  0
 46 28  2  0
 24 15  1  0
 42 31  1  0
M  CHG  2   6  -1  41  -1
M  END
>  <UniqueID>  (4) 
4

>  <SMILES>  (4) 
O=C([O-])c1cccc(-c2ccc(/C=N/n3c([O-])cc(=O)n(Cc4ccccc4)c3=O)o2)c1

>  <Energy>  (4) 
89.10710176089795

>  <Genealogy>  (4) 
O=C([O-])c1cccc(-c2ccc(C=Nn3c([O-])cc(=O)n(Cc4ccccc4)c3=O)o2)c1 (protonated)
O=C([O-])c1cccc(-c2ccc(/C=N/n3c([O-])cc(=O)n(Cc4ccccc4)c3=O)o2)c1 (cis-trans isomerization)
O=C([O-])c1cccc(-c2ccc(/C=N/n3c([O-])cc(=O)n(Cc4ccccc4)c3=O)o2)c1 (3D coordinates assigned)
O=C([O-])c1cccc(-c2ccc(/C=N/n3c([O-])cc(=O)n(Cc4ccccc4)c3=O)o2)c1 (optimized conformer: 89.10710176089795 kcal/mol)

>  <smiles>  (4) 
O=C(O)c1cccc(-c2ccc(C=Nn3c(O)cc(=O)n(Cc4ccccc4)c3=O)o2)c1

>  <score_type>  (4) 
oracle

>  <origin>  (4) 
adg

>  <m_score__min__energy>  (4) 
-14.26

>  <m_primary>  (4) 
energy

$$$$
4:0
     RDKit          3D

 54 57  0  0  1  0  0  0  0  0999 V2000
   66.9740   30.8550   50.9420 C   0  0  0  0  0  0  0  0  0  0  0  0
   66.9910   32.3110   50.5220 C   0  0  0  0  0  0  0  0  0  0  0  0
   65.6430   32.8770   50.4900 N   0  0  0  0  0  0  0  0  0  0  0  0
   64.5920   32.5570   49.5450 C   0  0  0  0  0  0  0  0  0  0  0  0
   63.7500   33.8170   49.6070 C   0  0  1  0  0  0  0  0  0  0  0  0
   62.3800   33.5880   49.0920 C   0  0  0  0  0  0  0  0  0  0  0  0
   62.0250   33.8500   47.8220 N   0  0  0  0  0  0  0  0  0  0  0  0
   60.7270   33.5460   47.6450 C   0  0  0  0  0  0  0  0  0  0  0  0
   59.9550   33.6530   46.5210 C   0  0  0  0  0  0  0  0  0  0  0  0
   58.6160   33.2680   46.5990 C   0  0  0  0  0  0  0  0  0  0  0  0
   57.6580   33.4120   45.1390 S   0  0  0  0  0  0  0  0  0  0  0  0
   58.5610   33.8290   43.9850 O   0  0  0  0  0  0  0  0  0  0  0  0
   56.6150   34.4590   45.3150 O   0  0  0  0  0  0  0  0  0  0  0  0
   56.9420   31.9290   44.6940 N   0  0  0  0  0  0  0  0  0  0  0  0
   57.8240   31.0540   43.9850 C   0  0  0  0  0  0  0  0  0  0  0  0
   58.0650   29.7960   44.7450 C   0  0  0  0  0  0  0  0  0  0  0  0
   59.3740   29.3550   44.9590 C   0  0  0  0  0  0  0  0  0  0  0  0
   59.6100   28.1910   45.6660 C   0  0  0  0  0  0  0  0  0  0  0  0
   58.5760   27.4330   46.1800 C   0  0  0  0  0  0  0  0  0  0  0  0
   57.2860   27.8880   45.9560 C   0  0  0  0  0  0  0  0  0  0  0  0
   57.0050   29.0400   45.2580 C   0  0  0  0  0  0  0  0  0  0  0  0
   55.7240   29.5110   45.0250 O   0  0  0  0  0  0  0  0  0  0  0  0
   55.1430   29.7040   43.7560 C   0  0  0  0  0  0  0  0  0  0  0  0
   58.1020   32.7930   47.7880 C   0  0  0  0  0  0  0  0  0  0  0  0
   58.9310   32.7020   48.9120 C   0  0  0  0  0  0  0  0  0  0  0  0
   60.2600   33.0780   48.8570 C   0  0  0  0  0  0  0  0  0  0  0  0
   61.2890   33.1120   49.7280 N   0  0  0  0  0  0  0  0  0  0  0  0
   63.7650   34.1050   51.0920 C   0  0  0  0  0  0  0  0  0  0  0  0
   65.1910   33.8530   51.4230 C   0  0  0  0  0  0  0  0  0  0  0  0
   65.8750   34.3990   52.3550 O   0  0  0  0  0  0  0  0  0  0  0  0
   66.9732   30.7901   52.0401 H   0  0  0  0  0  0  0  0  0  0  0  0
   66.0701   30.3695   50.5454 H   0  0  0  0  0  0  0  0  0  0  0  0
   67.8663   30.3485   50.5454 H   0  0  0  0  0  0  0  0  0  0  0  0
   67.6012   32.8819   51.2374 H   0  0  0  0  0  0  0  0  0  0  0  0
   67.4144   32.3722   49.5086 H   0  0  0  0  0  0  0  0  0  0  0  0
   64.9946   32.3900   48.5350 H   0  0  0  0  0  0  0  0  0  0  0  0
   64.0415   31.6331   49.7762 H   0  0  0  0  0  0  0  0  0  0  0  0
   64.1251   34.6458   48.9886 H   0  0  0  0  0  0  0  0  0  0  0  0
   60.3788   34.0328   45.5797 H   0  0  0  0  0  0  0  0  0  0  0  0
   56.6770   31.4390   45.5790 H   0  0  0  0  0  0  0  0  0  0  0  0
   57.3754   30.8045   43.0121 H   0  0  0  0  0  0  0  0  0  0  0  0
   58.7873   31.5675   43.8493 H   0  0  0  0  0  0  0  0  0  0  0  0
   60.2196   29.9366   44.5632 H   0  0  0  0  0  0  0  0  0  0  0  0
   60.6472   27.8600   45.8233 H   0  0  0  0  0  0  0  0  0  0  0  0
   58.7681   26.5078   46.7431 H   0  0  0  0  0  0  0  0  0  0  0  0
   56.4466   27.2999   46.3554 H   0  0  0  0  0  0  0  0  0  0  0  0
   54.1054   30.0487   43.8764 H   0  0  0  0  0  0  0  0  0  0  0  0
   55.7182   30.4593   43.2004 H   0  0  0  0  0  0  0  0  0  0  0  0
   55.1519   28.7546   43.2004 H   0  0  0  0  0  0  0  0  0  0  0  0
   57.0472   32.4877   47.8522 H   0  0  0  0  0  0  0  0  0  0  0  0
   58.5166   32.3237   49.8581 H   0  0  0  0  0  0  0  0  0  0  0  0
   61.2510   32.8200   50.7250 H   0  0  0  0  0  0  0  0  0  0  0  0
   63.4806   35.1464   51.3031 H   0  0  0  0  0  0  0  0  0  0  0  0
   63.0538   33.5015   51.6751 H   0  0  0  0  0  0  0  0  0  0  0  0
  1  2  1  0
  2  3  1  0
  3  4  1  0
  4  5  1  0
  5  6  1  0
  6  7  2  0
  7  8  1  0
  8  9  2  0
  9 10  1  0
 10 11  1  0
 11 12  2  0
 11 13  2  0
 11 14  1  0
 14 15  1  0
 15 16  1  0
 16 17  2  0
 17 18  1  0
 18 19  2  0
 19 20  1  0
 20 21  2  0
 21 22  1  0
 22 23  1  0
 10 24  2  0
 24 25  1  0
 25 26  2  0
 26 27  1  0
  5 28  1  0
 28 29  1  0
 29 30  2  0
 29  3  1  0
 27  6  1  0
 26  8  1  0
 21 16  1  0
  1 31  1  0
  1 32  1  0
  1 33  1  0
  2 34  1  0
  2 35  1  0
  4 36  1  0
  4 37  1  0
  5 38  1  6
  9 39  1  0
 14 40  1  0
 15 41  1  0
 15 42  1  0
 17 43  1  0
 18 44  1  0
 19 45  1  0
 20 46  1  0
 23 47  1  0
 23 48  1  0
 23 49  1  0
 24 50  1  0
 25 51  1  0
 27 52  1  0
 28 53  1  0
 28 54  1  0
M  END
>  <smiles>  (5) 
CCN1CC(c2nc3cc(S(=O)(=O)NCc4ccccc4OC)ccc3[nH]2)CC1=O

>  <score_type>  (5) 
oracle

>  <origin>  (5) 
adg

>  <m_score__min__energy>  (5) 
-9.7699999999999996

>  <m_primary>  (5) 
energy

$$$$
5:0
     RDKit          3D

 35 36  0  0  0  0  0  0  0  0999 V2000
   54.4190   23.9980   46.3670 O   0  0  0  0  0  0  0  0  0  0  0  0
   55.0470   25.0100   45.9610 C   0  0  0  0  0  0  0  0  0  0  0  0
   54.4370   26.2580   45.9910 O   0  0  0  0  0  0  0  0  0  0  0  0
   56.4650   24.8790   45.4990 C   0  0  0  0  0  0  0  0  0  0  0  0
   57.0500   26.1950   45.2470 N   0  0  0  0  0  0  0  0  0  0  0  0
   58.1730   26.6660   46.0070 C   0  0  0  0  0  0  0  0  0  0  0  0
   58.7730   25.8720   46.7830 O   0  0  0  0  0  0  0  0  0  0  0  0
   58.6520   28.0650   45.8860 C   0  0  0  0  0  0  0  0  0  0  0  0
   59.9360   28.4090   46.3440 C   0  0  0  0  0  0  0  0  0  0  0  0
   60.3950   29.7250   46.2470 C   0  0  0  0  0  0  0  0  0  0  0  0
   59.5750   30.7150   45.7000 C   0  0  0  0  0  0  0  0  0  0  0  0
   58.2880   30.3940   45.2540 C   0  0  0  0  0  0  0  0  0  0  0  0
   57.2530   31.6570   44.5960 S   0  0  0  0  0  0  0  0  0  0  0  0
   55.8920   31.1120   44.2600 O   0  0  0  0  0  0  0  0  0  0  0  0
   57.8830   32.2010   43.3460 O   0  0  0  0  0  0  0  0  0  0  0  0
   57.0790   32.9400   45.7500 N   0  0  0  0  0  0  0  0  0  0  0  0
   58.1390   33.4760   46.5550 C   0  0  0  0  0  0  0  0  0  0  0  0
   58.3900   33.0190   47.8630 C   0  0  0  0  0  0  0  0  0  0  0  0
   59.4400   33.5620   48.6090 C   0  0  0  0  0  0  0  0  0  0  0  0
   60.2450   34.5640   48.0610 C   0  0  0  0  0  0  0  0  0  0  0  0
   60.0010   35.0250   46.7660 C   0  0  0  0  0  0  0  0  0  0  0  0
   58.9520   34.4840   46.0140 C   0  0  0  0  0  0  0  0  0  0  0  0
   58.7290   34.9370   44.7550 F   0  0  0  0  0  0  0  0  0  0  0  0
   57.8290   29.0720   45.3460 C   0  0  0  0  0  0  0  0  0  0  0  0
   57.0517   24.3656   46.2751 H   0  0  0  0  0  0  0  0  0  0  0  0
   56.4802   24.3002   44.5637 H   0  0  0  0  0  0  0  0  0  0  0  0
   56.6770   26.7800   44.4640 H   0  0  0  0  0  0  0  0  0  0  0  0
   60.5843   27.6359   46.7822 H   0  0  0  0  0  0  0  0  0  0  0  0
   61.4039   29.9821   46.6020 H   0  0  0  0  0  0  0  0  0  0  0  0
   59.9417   31.7489   45.6197 H   0  0  0  0  0  0  0  0  0  0  0  0
   57.7575   32.2319   48.2993 H   0  0  0  0  0  0  0  0  0  0  0  0
   59.6329   33.1997   49.6296 H   0  0  0  0  0  0  0  0  0  0  0  0
   61.0709   34.9896   48.6499 H   0  0  0  0  0  0  0  0  0  0  0  0
   60.6344   35.8149   46.3360 H   0  0  0  0  0  0  0  0  0  0  0  0
   56.8180   28.8197   44.9935 H   0  0  0  0  0  0  0  0  0  0  0  0
  1  2  2  0
  2  3  1  0
  2  4  1  0
  4  5  1  0
  5  6  1  0
  6  7  2  0
  6  8  1  0
  8  9  2  0
  9 10  1  0
 10 11  2  0
 11 12  1  0
 12 13  1  0
 13 14  2  0
 13 15  2  0
 13 16  1  0
 16 17  1  0
 17 18  2  0
 18 19  1  0
 19 20  2  0
 20 21  1  0
 21 22  2  0
 22 23  1  0
 12 24  2  0
 24  8  1  0
 22 17  1  0
  4 25  1  0
  4 26  1  0
  5 27  1  0
  9 28  1  0
 10 29  1  0
 11 30  1  0
 18 31  1  0
 19 32  1  0
 20 33  1  0
 21 34  1  0
 24 35  1  0
M  CHG  2   3  -1  16  -1
M  END
>  <UniqueID>  (6) 
5

>  <SMILES>  (6) 
O=C([O-])CNC(=O)c1cccc(S(=O)(=O)[N-]c2ccccc2F)c1

>  <Energy>  (6) 
38.53891755125025

>  <Genealogy>  (6) 
O=C([O-])CNC(=O)c1cccc(S(=O)(=O)[N-]c2ccccc2F)c1 (protonated)
O=C([O-])CNC(=O)c1cccc(S(=O)(=O)[N-]c2ccccc2F)c1 (3D coordinates assigned)
O=C([O-])CNC(=O)c1cccc(S(=O)(=O)[N-]c2ccccc2F)c1 (optimized conformer: 38.53891755125025 kcal/mol)

>  <smiles>  (6) 
O=C(O)CNC(=O)c1cccc(S(=O)(=O)Nc2ccccc2F)c1

>  <score_type>  (6) 
oracle

>  <origin>  (6) 
adg

>  <m_score__min__energy>  (6) 
-12.51

>  <m_primary>  (6) 
energy

$$$$
6:0
     RDKit          3D

 54 56  0  0  0  0  0  0  0  0999 V2000
   61.6150   34.5730   45.9930 H   0  0  0  0  0  0  0  0  0  0  0  0
   62.5130   34.2590   46.3430 O   0  0  0  0  0  0  0  0  0  0  0  0
   62.6270   33.5720   47.5490 C   0  0  0  0  0  0  0  0  0  0  0  0
   62.0560   34.0930   48.7230 C   0  0  0  0  0  0  0  0  0  0  0  0
   61.5177   35.0519   48.6948 H   0  0  0  0  0  0  0  0  0  0  0  0
   62.1730   33.3910   49.9270 C   0  0  0  0  0  0  0  0  0  0  0  0
   61.7308   33.8033   50.8459 H   0  0  0  0  0  0  0  0  0  0  0  0
   62.8540   32.1590   49.9690 C   0  0  0  0  0  0  0  0  0  0  0  0
   62.9610   31.4000   51.2650 C   0  0  0  0  0  0  0  0  0  0  0  0
   62.2526   31.8261   51.9907 H   0  0  0  0  0  0  0  0  0  0  0  0
   63.9927   31.4859   51.6366 H   0  0  0  0  0  0  0  0  0  0  0  0
   62.6380   29.9160   51.0620 C   0  0  0  0  0  0  0  0  0  0  0  0
   62.9136   29.3542   51.9667 H   0  0  0  0  0  0  0  0  0  0  0  0
   63.2075   29.5322   50.2027 H   0  0  0  0  0  0  0  0  0  0  0  0
   61.2130   29.7570   50.8080 N   0  0  0  0  0  0  0  0  0  0  0  0
   60.6210   28.5410   50.3490 C   0  0  0  0  0  0  0  0  0  0  0  0
   60.5370   27.5410   51.1160 O   0  0  0  0  0  0  0  0  0  0  0  0
   60.1250   28.4460   48.9380 C   0  0  0  0  0  0  0  0  0  0  0  0
   60.8595   27.8964   48.3310 H   0  0  0  0  0  0  0  0  0  0  0  0
   59.1608   27.9166   48.9316 H   0  0  0  0  0  0  0  0  0  0  0  0
   59.9330   29.8230   48.3600 C   0  0  0  0  0  0  0  0  0  0  0  0
   60.5720   30.1780   47.1600 C   0  0  0  0  0  0  0  0  0  0  0  0
   61.2610   29.4697   46.6767 H   0  0  0  0  0  0  0  0  0  0  0  0
   60.3370   31.4250   46.5780 C   0  0  0  0  0  0  0  0  0  0  0  0
   60.8326   31.6894   45.6322 H   0  0  0  0  0  0  0  0  0  0  0  0
   59.4720   32.3430   47.1930 C   0  0  0  0  0  0  0  0  0  0  0  0
   59.1710   33.6370   46.5420 C   0  0  0  0  0  0  0  0  0  0  0  0
   59.6920   34.6930   46.9850 O   0  0  0  0  0  0  0  0  0  0  0  0
   58.3360   33.7110   45.3760 N   0  0  0  0  0  0  0  0  0  0  0  0
   57.8700   32.6900   44.7170 C   0  0  0  0  0  0  0  0  0  0  0  0
   57.3190   31.6250   45.3330 N   0  0  0  0  0  0  0  0  0  0  0  0
   56.9080   30.6770   44.4450 C   0  0  0  0  0  0  0  0  0  0  0  0
   56.2910   29.4200   44.9080 C   0  0  0  0  0  0  0  0  0  0  0  0
   55.1370   29.1350   44.4950 O   0  0  0  0  0  0  0  0  0  0  0  0
   56.9670   28.4780   45.7600 N   0  0  0  0  0  0  0  0  0  0  0  0
   57.4000   27.1380   45.3800 C   0  0  0  0  0  0  0  0  0  0  0  0
   57.4424   27.0660   44.2832 H   0  0  0  0  0  0  0  0  0  0  0  0
   58.3964   26.9459   45.8046 H   0  0  0  0  0  0  0  0  0  0  0  0
   56.4160   26.1000   45.9180 C   0  0  0  0  0  0  0  0  0  0  0  0
   56.3935   25.2356   45.2381 H   0  0  0  0  0  0  0  0  0  0  0  0
   56.7426   25.7848   46.9200 H   0  0  0  0  0  0  0  0  0  0  0  0
   55.1290   26.6480   46.0110 O   0  0  0  0  0  0  0  0  0  0  0  0
   55.1470   27.5120   45.5160 H   0  0  0  0  0  0  0  0  0  0  0  0
   57.1770   30.9720   43.1070 C   0  0  0  0  0  0  0  0  0  0  0  0
   56.9458   30.3294   42.2447 H   0  0  0  0  0  0  0  0  0  0  0  0
   57.9160   32.4810   43.0440 S   0  0  0  0  0  0  0  0  0  0  0  0
   58.8750   32.0090   48.4200 C   0  0  0  0  0  0  0  0  0  0  0  0
   58.2329   32.7400   48.9332 H   0  0  0  0  0  0  0  0  0  0  0  0
   59.0930   30.7520   48.9920 C   0  0  0  0  0  0  0  0  0  0  0  0
   58.6037   30.4903   49.9418 H   0  0  0  0  0  0  0  0  0  0  0  0
   63.4360   31.6470   48.7900 C   0  0  0  0  0  0  0  0  0  0  0  0
   63.9851   30.6943   48.8168 H   0  0  0  0  0  0  0  0  0  0  0  0
   63.3150   32.3500   47.5880 C   0  0  0  0  0  0  0  0  0  0  0  0
   63.7612   31.9433   46.6685 H   0  0  0  0  0  0  0  0  0  0  0  0
  1  2  1  0
  2  3  1  0
  3  4  2  0
  4  5  1  0
  4  6  1  0
  6  7  1  0
  6  8  2  0
  8  9  1  0
  9 10  1  0
  9 11  1  0
  9 12  1  0
 12 13  1  0
 12 14  1  0
 12 15  1  0
 15 16  1  0
 16 17  2  0
 16 18  1  0
 18 19  1  0
 18 20  1  0
 18 21  1  0
 21 22  2  0
 22 23  1  0
 22 24  1  0
 24 25  1  0
 24 26  2  0
 26 27  1  0
 27 28  2  0
 27 29  1  0
 29 30  2  0
 30 31  1  0
 31 32  1  0
 32 33  1  0
 33 34  2  0
 33 35  1  0
 35 36  1  0
 36 37  1  0
 36 38  1  0
 36 39  1  0
 39 40  1  0
 39 41  1  0
 39 42  1  0
 42 43  1  0
 32 44  2  0
 44 45  1  0
 44 46  1  0
 26 47  1  0
 47 48  1  0
 47 49  2  0
 49 50  1  0
  8 51  1  0
 51 52  1  0
 51 53  2  0
 53 54  1  0
 53  3  1  0
 49 21  1  0
 46 30  1  0
M  CHG  3  15  -1  31  -1  35  -1
M  END
>  <UniqueID>  (7) 
6

>  <SMILES>  (7) 
O=C(Cc1ccc(C(=O)/N=c2/[n-]c(C(=O)[N-]CCO)cs2)cc1)[N-]CCc1ccc(O)cc1

>  <Energy>  (7) 
88.08626489163127

>  <Genealogy>  (7) 
O=C(Cc1ccc(C(=O)N=c2[n-]c(C(=O)[N-]CCO)cs2)cc1)[N-]CCc1ccc(O)cc1 (protonated)
O=C(Cc1ccc(C(=O)/N=c2/[n-]c(C(=O)[N-]CCO)cs2)cc1)[N-]CCc1ccc(O)cc1 (cis-trans isomerization)
O=C(Cc1ccc(C(=O)/N=c2/[n-]c(C(=O)[N-]CCO)cs2)cc1)[N-]CCc1ccc(O)cc1 (3D coordinates assigned)
O=C(Cc1ccc(C(=O)/N=c2/[n-]c(C(=O)[N-]CCO)cs2)cc1)[N-]CCc1ccc(O)cc1 (optimized conformer: 88.08626489163127 kcal/mol)

>  <smiles>  (7) 
O=C(Cc1ccc(C(=O)N=c2[nH]c(C(=O)NCCO)cs2)cc1)NCCc1ccc(O)cc1

>  <score_type>  (7) 
oracle

>  <origin>  (7) 
adg

>  <m_score__min__energy>  (7) 
-12.85

>  <m_primary>  (7) 
energy

$$$$
7:0
     RDKit          3D

 39 41  0  0  1  0  0  0  0  0999 V2000
   57.7320   28.0260   43.6510 O   0  0  0  0  0  0  0  0  0  0  0  0
   57.6520   28.8260   44.6250 C   0  0  0  0  0  0  0  0  0  0  0  0
   57.5240   28.2530   45.9120 N   0  0  0  0  0  0  0  0  0  0  0  0
   57.4950   26.8280   45.9890 C   0  0  0  0  0  0  0  0  0  0  0  0
   58.7460   26.2070   46.0250 C   0  0  0  0  0  0  0  0  0  0  0  0
   58.8190   24.8320   46.1000 C   0  0  0  0  0  0  0  0  0  0  0  0
   57.6730   24.0960   46.1370 C   0  0  0  0  0  0  0  0  0  0  0  0
   56.4220   24.7150   46.1000 C   0  0  0  0  0  0  0  0  0  0  0  0
   56.3270   26.1000   46.0250 C   0  0  0  0  0  0  0  0  0  0  0  0
   55.1430   26.7350   45.9880 F   0  0  0  0  0  0  0  0  0  0  0  0
   57.6980   30.2480   44.3620 C   0  0  0  0  0  0  0  0  0  0  0  0
   57.7490   31.0710   45.4350 N   0  0  0  0  0  0  0  0  0  0  0  0
   57.7940   32.4150   45.2750 C   0  0  0  0  0  0  0  0  0  0  0  0
   57.8410   33.1590   46.3150 N   0  0  0  0  0  0  0  0  0  0  0  0
   59.1420   34.2080   46.5910 S   0  0  0  0  0  0  0  0  0  0  0  0
   59.4130   34.8990   45.2450 O   0  0  0  0  0  0  0  0  0  0  0  0
   58.9010   35.3150   47.5460 O   0  0  0  0  0  0  0  0  0  0  0  0
   60.5820   33.2770   46.9220 C   0  0  0  0  0  0  0  0  0  0  0  0
   61.8400   33.8940   46.8380 C   0  0  0  0  0  0  0  0  0  0  0  0
   63.0040   33.2040   47.0970 C   0  0  0  0  0  0  0  0  0  0  0  0
   62.9820   31.8780   47.4460 C   0  0  0  0  0  0  0  0  0  0  0  0
   61.7560   31.2470   47.5350 C   0  0  0  0  0  0  0  0  0  0  0  0
   60.5860   31.9590   47.2710 C   0  0  0  0  0  0  0  0  0  0  0  0
   57.7850   32.8820   43.9830 C   0  0  0  0  0  0  0  0  0  0  0  0
   57.7340   32.0750   42.8710 C   0  0  0  0  0  0  0  0  0  0  0  0
   57.6900   30.7350   43.1100 N   0  0  0  0  0  0  0  0  0  0  0  0
   57.4550   28.8760   46.7410 H   0  0  0  0  0  0  0  0  0  0  0  0
   59.6654   26.8101   45.9938 H   0  0  0  0  0  0  0  0  0  0  0  0
   59.7981   24.3316   46.1298 H   0  0  0  0  0  0  0  0  0  0  0  0
   57.7342   22.9993   46.1968 H   0  0  0  0  0  0  0  0  0  0  0  0
   55.5077   24.1042   46.1303 H   0  0  0  0  0  0  0  0  0  0  0  0
   61.8980   34.9562   46.5581 H   0  0  0  0  0  0  0  0  0  0  0  0
   63.9691   33.7265   47.0224 H   0  0  0  0  0  0  0  0  0  0  0  0
   63.9148   31.3317   47.6495 H   0  0  0  0  0  0  0  0  0  0  0  0
   61.7027   30.1842   47.8138 H   0  0  0  0  0  0  0  0  0  0  0  0
   59.6228   31.4333   47.3479 H   0  0  0  0  0  0  0  0  0  0  0  0
   57.8209   33.9705   43.8284 H   0  0  0  0  0  0  0  0  0  0  0  0
   57.7290   32.4865   41.8509 H   0  0  0  0  0  0  0  0  0  0  0  0
   57.6530   30.1210   42.2790 H   0  0  0  0  0  0  0  0  0  0  0  0
  1  2  2  0
  2  3  1  0
  3  4  1  0
  4  5  2  0
  5  6  1  0
  6  7  2  0
  7  8  1  0
  8  9  2  0
  9 10  1  0
  2 11  1  0
 11 12  2  0
 12 13  1  0
 13 14  2  0
 14 15  1  0
 15 16  2  0
 15 17  2  0
 15 18  1  0
 18 19  2  0
 19 20  1  0
 20 21  2  0
 21 22  1  0
 22 23  2  0
 13 24  1  0
 24 25  2  0
 25 26  1  0
  9  4  1  0
 26 11  1  0
 23 18  1  0
  3 27  1  0
  5 28  1  0
  6 29  1  0
  7 30  1  0
  8 31  1  0
 19 32  1  0
 20 33  1  0
 21 34  1  0
 22 35  1  0
 23 36  1  0
 24 37  1  0
 25 38  1  0
 26 39  1  0
M  END
>  <smiles>  (8) 
O=C(Nc1ccccc1F)c1nc(=NS(=O)(=O)c2ccccc2)cc[nH]1

>  <score_type>  (8) 
oracle

>  <origin>  (8) 
adg

>  <m_score__min__energy>  (8) 
-8.9600000000000009

>  <m_primary>  (8) 
energy

$$$$
8:0
     RDKit          3D

 49 51  0  0  0  0  0  0  0  0999 V2000
   56.7960   34.3480   45.0600 N   0  0  0  0  0  0  0  0  0  0  0  0
   57.6600   32.8670   44.8430 S   0  0  0  0  0  0  0  0  0  0  0  0
   58.0440   32.7080   43.3980 O   0  0  0  0  0  0  0  0  0  0  0  0
   56.7670   31.7180   45.2190 O   0  0  0  0  0  0  0  0  0  0  0  0
   59.1000   32.8570   45.8760 C   0  0  0  0  0  0  0  0  0  0  0  0
   59.7050   34.0830   46.1970 C   0  0  0  0  0  0  0  0  0  0  0  0
   60.8330   34.1270   47.0190 C   0  0  0  0  0  0  0  0  0  0  0  0
   61.3730   32.9470   47.5300 C   0  0  0  0  0  0  0  0  0  0  0  0
   60.7920   31.7190   47.2150 C   0  0  0  0  0  0  0  0  0  0  0  0
   59.6620   31.6590   46.3840 C   0  0  0  0  0  0  0  0  0  0  0  0
   59.1000   30.3360   46.0630 C   0  0  0  0  0  0  0  0  0  0  0  0
   58.9890   29.9230   44.7290 C   0  0  0  0  0  0  0  0  0  0  0  0
   58.4780   28.6570   44.4260 C   0  0  0  0  0  0  0  0  0  0  0  0
   58.0570   27.7990   45.4550 C   0  0  0  0  0  0  0  0  0  0  0  0
   57.5630   26.4140   45.1410 C   0  0  0  0  0  0  0  0  0  0  0  0
   56.7080   25.9290   46.2200 N   0  0  0  0  0  0  0  0  0  0  0  0
   55.4580   25.2680   46.0010 C   0  0  0  0  0  0  0  0  0  0  0  0
   54.4340   25.9380   45.6900 O   0  0  0  0  0  0  0  0  0  0  0  0
   55.3710   23.7720   46.2000 C   0  0  2  0  0  0  0  0  0  0  0  0
   56.3740   23.1990   47.2340 C   0  0  0  0  0  0  0  0  0  0  0  0
   57.7500   23.4050   46.7590 N   0  0  0  0  0  0  0  0  0  0  0  0
   58.0790   22.6120   45.5570 C   0  0  0  0  0  0  0  0  0  0  0  0
   57.7450   23.2980   44.2150 C   0  0  0  0  0  0  0  0  0  0  0  0
   56.2440   23.5660   43.9850 C   0  0  0  0  0  0  0  0  0  0  0  0
   55.3750   23.0420   44.9780 O   0  0  0  0  0  0  0  0  0  0  0  0
   58.1480   28.2250   46.7890 C   0  0  0  0  0  0  0  0  0  0  0  0
   58.6610   29.4900   47.0910 C   0  0  0  0  0  0  0  0  0  0  0  0
   56.1390   34.2050   45.8580 H   0  0  0  0  0  0  0  0  0  0  0  0
   56.2020   34.4900   44.2110 H   0  0  0  0  0  0  0  0  0  0  0  0
   59.2861   35.0181   45.7969 H   0  0  0  0  0  0  0  0  0  0  0  0
   61.2965   35.0941   47.2639 H   0  0  0  0  0  0  0  0  0  0  0  0
   62.2580   32.9850   48.1821 H   0  0  0  0  0  0  0  0  0  0  0  0
   61.2219   30.7912   47.6203 H   0  0  0  0  0  0  0  0  0  0  0  0
   59.3045   30.5960   43.9181 H   0  0  0  0  0  0  0  0  0  0  0  0
   58.4055   28.3320   43.3776 H   0  0  0  0  0  0  0  0  0  0  0  0
   56.9879   26.4368   44.2036 H   0  0  0  0  0  0  0  0  0  0  0  0
   58.4257   25.7398   45.0350 H   0  0  0  0  0  0  0  0  0  0  0  0
   54.3798   23.6218   46.6528 H   0  0  0  0  0  0  0  0  0  0  0  0
   56.2393   23.7129   48.1972 H   0  0  0  0  0  0  0  0  0  0  0  0
   56.1904   22.1218   47.3602 H   0  0  0  0  0  0  0  0  0  0  0  0
   57.8700   24.4160   46.5200 H   0  0  0  0  0  0  0  0  0  0  0  0
   59.1581   22.3991   45.5728 H   0  0  0  0  0  0  0  0  0  0  0  0
   57.4561   21.7066   45.6044 H   0  0  0  0  0  0  0  0  0  0  0  0
   58.2743   24.2617   44.1816 H   0  0  0  0  0  0  0  0  0  0  0  0
   58.0616   22.6031   43.4233 H   0  0  0  0  0  0  0  0  0  0  0  0
   56.0956   24.6552   43.9440 H   0  0  0  0  0  0  0  0  0  0  0  0
   55.9828   23.0501   43.0493 H   0  0  0  0  0  0  0  0  0  0  0  0
   57.8144   27.5611   47.6001 H   0  0  0  0  0  0  0  0  0  0  0  0
   58.7203   29.8223   48.1379 H   0  0  0  0  0  0  0  0  0  0  0  0
  1  2  1  0
  2  3  2  0
  2  4  2  0
  2  5  1  0
  5  6  2  0
  6  7  1  0
  7  8  2  0
  8  9  1  0
  9 10  2  0
 10 11  1  0
 11 12  2  0
 12 13  1  0
 13 14  2  0
 14 15  1  0
 15 16  1  0
 16 17  1  0
 17 18  2  0
 17 19  1  0
 19 20  1  0
 20 21  1  0
 21 22  1  0
 22 23  1  0
 23 24  1  0
 24 25  1  0
 14 26  1  0
 26 27  2  0
 10  5  1  0
 27 11  1  0
 25 19  1  0
  1 28  1  0
  1 29  1  0
  6 30  1  0
  7 31  1  0
  8 32  1  0
  9 33  1  0
 12 34  1  0
 13 35  1  0
 15 36  1  0
 15 37  1  0
 19 38  1  1
 20 39  1  0
 20 40  1  0
 21 41  1  0
 22 42  1  0
 22 43  1  0
 23 44  1  0
 23 45  1  0
 24 46  1  0
 24 47  1  0
 26 48  1  0
 27 49  1  0
M  CHG  1  16  -1
M  END
>  <UniqueID>  (9) 
7

>  <SMILES>  (9) 
NS(=O)(=O)c1ccccc1-c1ccc(C[N-]C(=O)[C@@H]2CNCCCO2)cc1

>  <Energy>  (9) 
72.68115675290727

>  <Genealogy>  (9) 
NS(=O)(=O)c1ccccc1-c1ccc(C[N-]C(=O)C2CNCCCO2)cc1 (protonated)
NS(=O)(=O)c1ccccc1-c1ccc(C[N-]C(=O)[C@@H]2CNCCCO2)cc1 (chirality)
NS(=O)(=O)c1ccccc1-c1ccc(C[N-]C(=O)[C@@H]2CNCCCO2)cc1 (3D coordinates assigned)
NS(=O)(=O)c1ccccc1-c1ccc(C[N-]C(=O)[C@@H]2CNCCCO2)cc1 (nonaromatic ring conformer: 72.68115675290727 kcal/mol)

>  <smiles>  (9) 
NS(=O)(=O)c1ccccc1-c1ccc(CNC(=O)C2CNCCCO2)cc1

>  <score_type>  (9) 
oracle

>  <origin>  (9) 
adg

>  <m_score__min__energy>  (9) 
-8.5099999999999998

>  <m_primary>  (9) 
energy

$$$$
9:0
     RDKit          3D

 39 40  0  0  0  0  0  0  0  0999 V2000
   56.5030   23.7900   46.8450 C   0  0  0  0  0  0  0  0  0  0  0  0
   56.2760   25.1330   47.2490 O   0  0  0  0  0  0  0  0  0  0  0  0
   56.4330   26.2180   46.3830 C   0  0  0  0  0  0  0  0  0  0  0  0
   55.4300   26.7490   45.8340 O   0  0  0  0  0  0  0  0  0  0  0  0
   57.7990   26.7810   46.1380 C   0  0  0  0  0  0  0  0  0  0  0  0
   57.7040   28.1640   45.6610 N   0  0  0  0  0  0  0  0  0  0  0  0
   56.9390   28.4800   44.6240 N   0  0  0  0  0  0  0  0  0  0  0  0
   57.1960   29.7470   44.2520 C   0  0  0  0  0  0  0  0  0  0  0  0
   56.5370   30.4360   43.1030 C   0  0  0  0  0  0  0  0  0  0  0  0
   58.1720   30.2800   45.0730 C   0  0  0  0  0  0  0  0  0  0  0  0
   58.4690   29.2590   45.9530 C   0  0  0  0  0  0  0  0  0  0  0  0
   59.3920   29.3720   46.8700 N   0  0  0  0  0  0  0  0  0  0  0  0
   59.2670   29.8390   48.2160 C   0  0  0  0  0  0  0  0  0  0  0  0
   58.5610   29.1930   49.0360 O   0  0  0  0  0  0  0  0  0  0  0  0
   59.8470   31.1770   48.5750 C   0  0  0  0  0  0  0  0  0  0  0  0
   58.5900   32.4310   49.0350 S   0  0  0  0  0  0  0  0  0  0  0  0
   58.5680   33.2630   47.4410 C   0  0  0  0  0  0  0  0  0  0  0  0
   57.4420   33.1580   46.6140 C   0  0  0  0  0  0  0  0  0  0  0  0
   57.4270   33.7890   45.3660 C   0  0  0  0  0  0  0  0  0  0  0  0
   58.5400   34.5150   44.9340 C   0  0  0  0  0  0  0  0  0  0  0  0
   59.6740   34.6050   45.7490 C   0  0  0  0  0  0  0  0  0  0  0  0
   59.6910   33.9760   46.9990 C   0  0  0  0  0  0  0  0  0  0  0  0
   56.6107   23.1526   47.7350 H   0  0  0  0  0  0  0  0  0  0  0  0
   55.6514   23.4391   46.2436 H   0  0  0  0  0  0  0  0  0  0  0  0
   57.4226   23.7385   46.2436 H   0  0  0  0  0  0  0  0  0  0  0  0
   58.3733   26.7598   47.0759 H   0  0  0  0  0  0  0  0  0  0  0  0
   58.3032   26.1733   45.3721 H   0  0  0  0  0  0  0  0  0  0  0  0
   56.2810   27.8240   44.1440 H   0  0  0  0  0  0  0  0  0  0  0  0
   55.8235   31.1820   43.4831 H   0  0  0  0  0  0  0  0  0  0  0  0
   57.3000   30.9376   42.4897 H   0  0  0  0  0  0  0  0  0  0  0  0
   56.0019   29.6960   42.4897 H   0  0  0  0  0  0  0  0  0  0  0  0
   58.6115   31.2876   45.0339 H   0  0  0  0  0  0  0  0  0  0  0  0
   60.5294   31.0416   49.4270 H   0  0  0  0  0  0  0  0  0  0  0  0
   60.3613   31.5536   47.6785 H   0  0  0  0  0  0  0  0  0  0  0  0
   56.5684   32.5783   46.9468 H   0  0  0  0  0  0  0  0  0  0  0  0
   56.5374   33.7137   44.7233 H   0  0  0  0  0  0  0  0  0  0  0  0
   58.5248   35.0152   43.9544 H   0  0  0  0  0  0  0  0  0  0  0  0
   60.5530   35.1708   45.4067 H   0  0  0  0  0  0  0  0  0  0  0  0
   60.5861   34.0411   47.6350 H   0  0  0  0  0  0  0  0  0  0  0  0
  1  2  1  0
  2  3  1  0
  3  4  2  0
  3  5  1  0
  5  6  1  0
  6  7  1  0
  7  8  1  0
  8  9  1  0
  8 10  2  0
 10 11  1  0
 11 12  2  3
 12 13  1  0
 13 14  2  0
 13 15  1  0
 15 16  1  0
 16 17  1  0
 17 18  2  0
 18 19  1  0
 19 20  2  0
 20 21  1  0
 21 22  2  0
 11  6  1  0
 22 17  1  0
  1 23  1  0
  1 24  1  0
  1 25  1  0
  5 26  1  0
  5 27  1  0
  7 28  1  0
  9 29  1  0
  9 30  1  0
  9 31  1  0
 10 32  1  0
 15 33  1  0
 15 34  1  0
 18 35  1  0
 19 36  1  0
 20 37  1  0
 21 38  1  0
 22 39  1  0
M  END
>  <UniqueID>  (10) 
8

>  <SMILES>  (10) 
COC(=O)Cn1[nH]c(C)cc1=NC(=O)CSc1ccccc1

>  <Energy>  (10) 
73.53783406261675

>  <Genealogy>  (10) 
COC(=O)Cn1[nH]c(C)cc1=NC(=O)CSc1ccccc1 (3D coordinates assigned)
COC(=O)Cn1[nH]c(C)cc1=NC(=O)CSc1ccccc1 (optimized conformer: 73.53783406261675 kcal/mol)

>  <smiles>  (10) 
COC(=O)Cn1[nH]c(C)cc1=NC(=O)CSc1ccccc1

>  <score_type>  (10) 
oracle

>  <origin>  (10) 
adg

>  <m_score__min__energy>  (10) 
-7.1600000000000001

>  <m_primary>  (10) 
energy

$$$$
10:0
     RDKit          3D

 32 33  0  0  0  0  0  0  0  0999 V2000
   56.7680   34.0480   44.8070 O   0  0  0  0  0  0  0  0  0  0  0  0
   58.0040   33.8870   44.9890 C   0  0  0  0  0  0  0  0  0  0  0  0
   58.8980   35.0890   45.0680 C   0  0  0  0  0  0  0  0  0  0  0  0
   60.1590   34.7540   45.7250 N   0  0  0  0  0  0  0  0  0  0  0  0
   60.3160   34.3880   47.1030 C   0  0  0  0  0  0  0  0  0  0  0  0
   59.3280   34.4970   47.8760 O   0  0  0  0  0  0  0  0  0  0  0  0
   61.5830   33.8500   47.6340 C   0  0  0  0  0  0  0  0  0  0  0  0
   62.5440   33.3260   46.7520 C   0  0  0  0  0  0  0  0  0  0  0  0
   63.7470   32.8160   47.2460 C   0  0  0  0  0  0  0  0  0  0  0  0
   63.9950   32.8120   48.6220 C   0  0  0  0  0  0  0  0  0  0  0  0
   63.0350   33.3120   49.5060 C   0  0  0  0  0  0  0  0  0  0  0  0
   61.8300   33.8230   49.0160 C   0  0  0  0  0  0  0  0  0  0  0  0
   58.5690   32.5680   45.0640 N   0  0  0  0  0  0  0  0  0  0  0  0
   57.7900   31.3610   45.0840 C   0  0  0  0  0  0  0  0  0  0  0  0
   58.1570   30.3210   45.9530 C   0  0  0  0  0  0  0  0  0  0  0  0
   57.4050   29.1430   46.0060 C   0  0  0  0  0  0  0  0  0  0  0  0
   56.2690   29.0020   45.2030 C   0  0  0  0  0  0  0  0  0  0  0  0
   55.5210   27.8310   45.2560 O   0  0  0  0  0  0  0  0  0  0  0  0
   55.8820   30.0400   44.3520 C   0  0  0  0  0  0  0  0  0  0  0  0
   56.6340   31.2180   44.2960 C   0  0  0  0  0  0  0  0  0  0  0  0
   59.1064   35.4512   44.0505 H   0  0  0  0  0  0  0  0  0  0  0  0
   58.3903   35.8686   45.6549 H   0  0  0  0  0  0  0  0  0  0  0  0
   62.3481   33.3175   45.6696 H   0  0  0  0  0  0  0  0  0  0  0  0
   64.5006   32.4168   46.5512 H   0  0  0  0  0  0  0  0  0  0  0  0
   64.9454   32.4154   49.0086 H   0  0  0  0  0  0  0  0  0  0  0  0
   63.2280   33.3033   50.5889 H   0  0  0  0  0  0  0  0  0  0  0  0
   61.0722   34.2055   49.7156 H   0  0  0  0  0  0  0  0  0  0  0  0
   59.6070   32.4800   44.9850 H   0  0  0  0  0  0  0  0  0  0  0  0
   59.0420   30.4335   46.5965 H   0  0  0  0  0  0  0  0  0  0  0  0
   57.7072   28.3274   46.6794 H   0  0  0  0  0  0  0  0  0  0  0  0
   54.9847   29.9308   43.7251 H   0  0  0  0  0  0  0  0  0  0  0  0
   56.3196   32.0368   43.6322 H   0  0  0  0  0  0  0  0  0  0  0  0
  1  2  2  0
  2  3  1  0
  3  4  1  0
  4  5  1  0
  5  6  2  0
  5  7  1  0
  7  8  2  0
  8  9  1  0
  9 10  2  0
 10 11  1  0
 11 12  2  0
  2 13  1  0
 13 14  1  0
 14 15  2  0
 15 16  1  0
 16 17  2  0
 17 18  1  0
 17 19  1  0
 19 20  2  0
 12  7  1  0
 20 14  1  0
  3 21  1  0
  3 22  1  0
  8 23  1  0
  9 24  1  0
 10 25  1  0
 11 26  1  0
 12 27  1  0
 13 28  1  0
 15 29  1  0
 16 30  1  0
 19 31  1  0
 20 32  1  0
M  CHG  2   4  -1  18  -1
M  END
>  <UniqueID>  (11) 
9

>  <SMILES>  (11) 
O=C(C[N-]C(=O)c1ccccc1)Nc1ccc([O-])cc1

>  <Energy>  (11) 
38.451791711423596

>  <Genealogy>  (11) 
O=C(C[N-]C(=O)c1ccccc1)Nc1ccc([O-])cc1 (protonated)
O=C(C[N-]C(=O)c1ccccc1)Nc1ccc([O-])cc1 (3D coordinates assigned)
O=C(C[N-]C(=O)c1ccccc1)Nc1ccc([O-])cc1 (optimized conformer: 38.451791711423596 kcal/mol)

>  <smiles>  (11) 
O=C(CNC(=O)c1ccccc1)Nc1ccc(O)cc1

>  <score_type>  (11) 
oracle

>  <origin>  (11) 
adg

>  <m_score__min__energy>  (11) 
-10.93

>  <m_primary>  (11) 
energy

$$$$
11:0
     RDKit          3D

 40 42  0  0  0  0  0  0  0  0999 V2000
   58.6780   22.7180   44.8950 C   0  0  0  0  0  0  0  0  0  0  0  0
   57.5630   23.6740   45.2000 C   0  0  0  0  0  0  0  0  0  0  0  0
   56.2360   23.2260   45.2300 C   0  0  0  0  0  0  0  0  0  0  0  0
   55.1960   24.1220   45.4850 C   0  0  0  0  0  0  0  0  0  0  0  0
   55.4680   25.4770   45.6950 C   0  0  0  0  0  0  0  0  0  0  0  0
   54.4170   26.3390   45.9950 O   0  0  0  0  0  0  0  0  0  0  0  0
   56.7930   25.9500   45.6230 C   0  0  0  0  0  0  0  0  0  0  0  0
   57.1140   27.3790   45.8280 C   0  0  0  0  0  0  0  0  0  0  0  0
   56.3660   28.2530   45.3110 O   0  0  0  0  0  0  0  0  0  0  0  0
   58.2590   27.8120   46.6530 C   0  0  0  0  0  0  0  0  0  0  0  0
   58.7740   27.1760   47.7680 C   0  0  0  0  0  0  0  0  0  0  0  0
   59.7950   27.8930   48.2720 N   0  0  0  0  0  0  0  0  0  0  0  0
   59.9300   28.9880   47.4960 C   0  0  0  0  0  0  0  0  0  0  0  0
   60.9460   30.0380   47.6980 C   0  0  0  0  0  0  0  0  0  0  0  0
   61.4850   30.5730   46.6910 O   0  0  0  0  0  0  0  0  0  0  0  0
   61.2900   30.4840   49.0190 N   0  0  0  0  0  0  0  0  0  0  0  0
   62.4850   31.2220   49.3290 C   0  0  0  0  0  0  0  0  0  0  0  0
   63.2320   30.8790   50.4660 C   0  0  0  0  0  0  0  0  0  0  0  0
   64.4090   31.5670   50.7780 C   0  0  0  0  0  0  0  0  0  0  0  0
   64.8590   32.5980   49.9450 C   0  0  0  0  0  0  0  0  0  0  0  0
   66.0720   33.3060   50.2640 C   0  0  0  0  0  0  0  0  0  0  0  0
   67.0460   33.8750   50.5220 N   0  0  0  0  0  0  0  0  0  0  0  0
   64.1320   32.9330   48.7960 C   0  0  0  0  0  0  0  0  0  0  0  0
   62.9550   32.2460   48.4850 C   0  0  0  0  0  0  0  0  0  0  0  0
   58.9920   28.9720   46.4800 C   0  0  0  0  0  0  0  0  0  0  0  0
   57.8350   25.0380   45.3880 C   0  0  0  0  0  0  0  0  0  0  0  0
   59.1106   22.3471   45.8359 H   0  0  0  0  0  0  0  0  0  0  0  0
   58.2859   21.8711   44.3127 H   0  0  0  0  0  0  0  0  0  0  0  0
   59.4551   23.2348   44.3127 H   0  0  0  0  0  0  0  0  0  0  0  0
   56.0124   22.1638   45.0519 H   0  0  0  0  0  0  0  0  0  0  0  0
   54.1579   23.7600   45.5208 H   0  0  0  0  0  0  0  0  0  0  0  0
   58.4042   26.2259   48.1811 H   0  0  0  0  0  0  0  0  0  0  0  0
   60.3670   27.6310   49.1040 H   0  0  0  0  0  0  0  0  0  0  0  0
   60.5850   30.3590   49.7800 H   0  0  0  0  0  0  0  0  0  0  0  0
   62.8890   30.0619   51.1177 H   0  0  0  0  0  0  0  0  0  0  0  0
   64.9812   31.2979   51.6781 H   0  0  0  0  0  0  0  0  0  0  0  0
   64.4879   33.7385   48.1368 H   0  0  0  0  0  0  0  0  0  0  0  0
   62.3931   32.5069   47.5760 H   0  0  0  0  0  0  0  0  0  0  0  0
   58.8563   29.7288   45.6933 H   0  0  0  0  0  0  0  0  0  0  0  0
   58.8744   25.3963   45.3509 H   0  0  0  0  0  0  0  0  0  0  0  0
  1  2  1  0
  2  3  2  0
  3  4  1  0
  4  5  2  0
  5  6  1  0
  5  7  1  0
  7  8  1  0
  8  9  2  0
  8 10  1  0
 10 11  2  0
 11 12  1  0
 12 13  1  0
 13 14  1  0
 14 15  2  0
 14 16  1  0
 16 17  1  0
 17 18  2  0
 18 19  1  0
 19 20  2  0
 20 21  1  0
 21 22  3  0
 20 23  1  0
 23 24  2  0
 13 25  2  0
  7 26  2  0
 26  2  1  0
 25 10  1  0
 24 17  1  0
  1 27  1  0
  1 28  1  0
  1 29  1  0
  3 30  1  0
  4 31  1  0
 11 32  1  0
 12 33  1  0
 16 34  1  0
 18 35  1  0
 19 36  1  0
 23 37  1  0
 24 38  1  0
 25 39  1  0
 26 40  1  0
M  CHG  1   6  -1
M  END
>  <UniqueID>  (12) 
10

>  <SMILES>  (12) 
Cc1ccc([O-])c(C(=O)c2c[nH]c(C(=O)Nc3ccc(C#N)cc3)c2)c1

>  <Energy>  (12) 
75.99322312291434

>  <Genealogy>  (12) 
Cc1ccc([O-])c(C(=O)c2c[nH]c(C(=O)Nc3ccc(C#N)cc3)c2)c1 (protonated)
Cc1ccc([O-])c(C(=O)c2c[nH]c(C(=O)Nc3ccc(C#N)cc3)c2)c1 (3D coordinates assigned)
Cc1ccc([O-])c(C(=O)c2c[nH]c(C(=O)Nc3ccc(C#N)cc3)c2)c1 (optimized conformer: 75.99322312291434 kcal/mol)

>  <smiles>  (12) 
Cc1ccc(O)c(C(=O)c2c[nH]c(C(=O)Nc3ccc(C#N)cc3)c2)c1

>  <score_type>  (12) 
oracle

>  <origin>  (12) 
adg

>  <m_score__min__energy>  (12) 
-11.970000000000001

>  <m_primary>  (12) 
energy

$$$$
12:0
     RDKit          3D

 41 43  0  0  1  0  0  0  0  0999 V2000
   56.9130   23.8360   45.9110 C   0  0  0  0  0  0  0  0  0  0  0  0
   56.9800   24.8360   46.9100 O   0  0  0  0  0  0  0  0  0  0  0  0
   57.3980   26.1000   46.4960 C   0  0  0  0  0  0  0  0  0  0  0  0
   58.7210   26.4750   46.5300 C   0  0  0  0  0  0  0  0  0  0  0  0
   59.0850   27.7340   46.1100 C   0  0  0  0  0  0  0  0  0  0  0  0
   58.1550   28.6640   45.6440 C   0  0  0  0  0  0  0  0  0  0  0  0
   58.5760   29.9900   45.2080 C   0  0  0  0  0  0  0  0  0  0  0  0
   57.7420   30.9580   44.9860 N   0  0  0  0  0  0  0  0  0  0  0  0
   57.6400   31.4550   43.6840 N   0  0  0  0  0  0  0  0  0  0  0  0
   58.1240   32.6400   43.1990 C   0  0  0  0  0  0  0  0  0  0  0  0
   58.8460   33.5810   44.0900 C   0  0  0  0  0  0  0  0  0  0  0  0
   58.2580   33.8190   45.3200 O   0  0  0  0  0  0  0  0  0  0  0  0
   58.7170   33.6820   46.5810 C   0  0  0  0  0  0  0  0  0  0  0  0
   58.3090   32.7900   47.5380 C   0  0  0  0  0  0  0  0  0  0  0  0
   58.8410   32.7270   48.8110 C   0  0  0  0  0  0  0  0  0  0  0  0
   59.8460   33.5940   49.1830 C   0  0  0  0  0  0  0  0  0  0  0  0
   60.2820   34.5050   48.2460 C   0  0  0  0  0  0  0  0  0  0  0  0
   59.7440   34.5580   46.9810 C   0  0  0  0  0  0  0  0  0  0  0  0
   57.8020   32.7100   41.9050 N   0  0  0  0  0  0  0  0  0  0  0  0
   57.1430   31.6040   41.6150 N   0  0  0  0  0  0  0  0  0  0  0  0
   57.0220   30.8070   42.6770 C   0  0  0  0  0  0  0  0  0  0  0  0
   56.2690   29.3430   42.7210 S   0  0  0  0  0  0  0  0  0  0  0  0
   56.8300   28.2870   45.6110 C   0  0  0  0  0  0  0  0  0  0  0  0
   56.4490   27.0150   46.0340 C   0  0  0  0  0  0  0  0  0  0  0  0
   55.1050   26.6250   46.0030 O   0  0  0  0  0  0  0  0  0  0  0  0
   56.8467   22.8464   46.3867 H   0  0  0  0  0  0  0  0  0  0  0  0
   56.0240   24.0022   45.2849 H   0  0  0  0  0  0  0  0  0  0  0  0
   57.8162   23.8821   45.2849 H   0  0  0  0  0  0  0  0  0  0  0  0
   59.4852   25.7712   46.8915 H   0  0  0  0  0  0  0  0  0  0  0  0
   60.1474   28.0174   46.1428 H   0  0  0  0  0  0  0  0  0  0  0  0
   59.6498   30.1779   45.0607 H   0  0  0  0  0  0  0  0  0  0  0  0
   59.8507   33.1711   44.2702 H   0  0  0  0  0  0  0  0  0  0  0  0
   58.8439   34.5484   43.5664 H   0  0  0  0  0  0  0  0  0  0  0  0
   57.5094   32.0813   47.2765 H   0  0  0  0  0  0  0  0  0  0  0  0
   58.4624   31.9843   49.5287 H   0  0  0  0  0  0  0  0  0  0  0  0
   60.2840   33.5597   50.1915 H   0  0  0  0  0  0  0  0  0  0  0  0
   61.0823   35.2094   48.5168 H   0  0  0  0  0  0  0  0  0  0  0  0
   60.1249   35.3018   46.2657 H   0  0  0  0  0  0  0  0  0  0  0  0
   56.7740   31.4050   40.6630 H   0  0  0  0  0  0  0  0  0  0  0  0
   56.0690   28.9939   45.2488 H   0  0  0  0  0  0  0  0  0  0  0  0
   54.8350   25.8050   46.5420 H   0  0  0  0  0  0  0  0  0  0  0  0
  1  2  1  0
  2  3  1  0
  3  4  2  0
  4  5  1  0
  5  6  2  0
  6  7  1  0
  7  8  2  0
  8  9  1  0
  9 10  1  0
 10 11  1  0
 11 12  1  0
 12 13  1  0
 13 14  2  0
 14 15  1  0
 15 16  2  0
 16 17  1  0
 17 18  2  0
 10 19  2  0
 19 20  1  0
 20 21  1  0
 21 22  2  0
  6 23  1  0
 23 24  2  0
 24 25  1  0
 24  3  1  0
 21  9  1  0
 18 13  1  0
  1 26  1  0
  1 27  1  0
  1 28  1  0
  4 29  1  0
  5 30  1  0
  7 31  1  0
 11 32  1  0
 11 33  1  0
 14 34  1  0
 15 35  1  0
 16 36  1  0
 17 37  1  0
 18 38  1  0
 20 39  1  0
 23 40  1  0
 25 41  1  0
M  END
>  <smiles>  (13) 
COc1ccc(C=Nn2c(COc3ccccc3)n[nH]c2=S)cc1O

>  <score_type>  (13) 
oracle

>  <origin>  (13) 
adg

>  <m_score__min__energy>  (13) 
-8.25

>  <m_primary>  (13) 
energy

$$$$
13:0
     RDKit          3D

 33 34  0  0  0  0  0  0  0  0999 V2000
   61.1250   30.7510   46.8380 C   0  0  0  0  0  0  0  0  0  0  0  0
   60.2730   29.6120   46.8770 O   0  0  0  0  0  0  0  0  0  0  0  0
   59.0990   29.4440   46.1210 C   0  0  0  0  0  0  0  0  0  0  0  0
   58.9380   28.3050   45.4240 C   0  0  0  0  0  0  0  0  0  0  0  0
   58.0300   27.2080   45.8350 C   0  0  0  0  0  0  0  0  0  0  0  0
   56.6410   27.2910   45.6360 C   0  0  0  0  0  0  0  0  0  0  0  0
   55.8060   26.2560   46.0640 C   0  0  0  0  0  0  0  0  0  0  0  0
   54.4330   26.3380   45.8580 O   0  0  0  0  0  0  0  0  0  0  0  0
   56.3660   25.1490   46.7070 C   0  0  0  0  0  0  0  0  0  0  0  0
   55.6320   24.2030   47.0990 O   0  0  0  0  0  0  0  0  0  0  0  0
   57.7070   25.0910   46.9150 N   0  0  0  0  0  0  0  0  0  0  0  0
   58.5440   26.0840   46.5070 C   0  0  0  0  0  0  0  0  0  0  0  0
   59.9110   25.9730   46.7510 O   0  0  0  0  0  0  0  0  0  0  0  0
   58.0270   30.4750   46.0910 C   0  0  0  0  0  0  0  0  0  0  0  0
   57.0710   30.3700   45.2780 O   0  0  0  0  0  0  0  0  0  0  0  0
   58.1150   31.6260   46.9440 N   0  0  0  0  0  0  0  0  0  0  0  0
   58.6210   32.9200   46.5850 C   0  0  0  0  0  0  0  0  0  0  0  0
   58.4330   33.3740   45.2720 C   0  0  0  0  0  0  0  0  0  0  0  0
   58.9290   34.6200   44.8760 C   0  0  0  0  0  0  0  0  0  0  0  0
   59.6330   35.4140   45.7850 C   0  0  0  0  0  0  0  0  0  0  0  0
   59.8480   34.9590   47.0880 C   0  0  0  0  0  0  0  0  0  0  0  0
   59.3520   33.7140   47.4890 C   0  0  0  0  0  0  0  0  0  0  0  0
   61.3616   31.0673   47.8647 H   0  0  0  0  0  0  0  0  0  0  0  0
   62.0552   30.4951   46.3096 H   0  0  0  0  0  0  0  0  0  0  0  0
   60.6168   31.5711   46.3096 H   0  0  0  0  0  0  0  0  0  0  0  0
   59.5137   28.1804   44.4950 H   0  0  0  0  0  0  0  0  0  0  0  0
   56.2100   28.1740   45.1415 H   0  0  0  0  0  0  0  0  0  0  0  0
   60.4890   26.7970   46.8580 H   0  0  0  0  0  0  0  0  0  0  0  0
   57.8919   32.7461   44.5488 H   0  0  0  0  0  0  0  0  0  0  0  0
   58.7648   34.9754   43.8480 H   0  0  0  0  0  0  0  0  0  0  0  0
   60.0176   36.3967   45.4747 H   0  0  0  0  0  0  0  0  0  0  0  0
   60.4089   35.5814   47.8008 H   0  0  0  0  0  0  0  0  0  0  0  0
   59.5335   33.3547   48.5127 H   0  0  0  0  0  0  0  0  0  0  0  0
  1  2  1  0
  2  3  1  0
  3  4  2  3
  4  5  1  0
  5  6  1  0
  6  7  2  0
  7  8  1  0
  7  9  1  0
  9 10  2  0
  9 11  1  0
 11 12  1  0
 12 13  1  0
  3 14  1  0
 14 15  2  0
 14 16  1  0
 16 17  1  0
 17 18  2  0
 18 19  1  0
 19 20  2  0
 20 21  1  0
 21 22  2  0
 12  5  2  0
 22 17  1  0
  1 23  1  0
  1 24  1  0
  1 25  1  0
  4 26  1  0
  6 27  1  0
 13 28  1  0
 18 29  1  0
 19 30  1  0
 20 31  1  0
 21 32  1  0
 22 33  1  0
M  CHG  3   8  -1  11  -1  16  -1
M  END
>  <UniqueID>  (14) 
11

>  <SMILES>  (14) 
COC(=Cc1cc([O-])c(=O)[n-]c1O)C(=O)[N-]c1ccccc1

>  <Energy>  (14) 
44.00376505124491

>  <Genealogy>  (14) 
COC(=Cc1cc([O-])c(=O)[n-]c1O)C(=O)[N-]c1ccccc1 (protonated)
COC(=Cc1cc([O-])c(=O)[n-]c1O)C(=O)[N-]c1ccccc1 (3D coordinates assigned)
COC(=Cc1cc([O-])c(=O)[n-]c1O)C(=O)[N-]c1ccccc1 (optimized conformer: 44.00376505124491 kcal/mol)

>  <smiles>  (14) 
COC(=Cc1cc(O)c(=O)[nH]c1O)C(=O)Nc1ccccc1

>  <score_type>  (14) 
oracle

>  <origin>  (14) 
adg

>  <m_score__min__energy>  (14) 
-13.32

>  <m_primary>  (14) 
energy

$$$$
14:0
     RDKit          3D

 59 62  0  0  0  0  0  0  0  0999 V2000
   58.2200   26.3580   46.2420 O   0  0  0  0  0  0  0  0  0  0  0  0
   57.7250   27.4640   45.8920 C   0  0  0  0  0  0  0  0  0  0  0  0
   56.4270   27.6070   45.5560 N   0  0  0  0  0  0  0  0  0  0  0  0
   56.3330   28.9140   45.2410 C   0  0  0  0  0  0  0  0  0  0  0  0
   55.1410   29.5140   44.8410 O   0  0  0  0  0  0  0  0  0  0  0  0
   57.5580   29.5380   45.3930 C   0  0  0  0  0  0  0  0  0  0  0  0
   57.8690   30.9510   45.0880 C   0  0  0  0  0  0  0  0  0  0  0  0
   57.6830   31.4580   43.7940 C   0  0  0  0  0  0  0  0  0  0  0  0
   57.9620   32.7990   43.5180 C   0  0  0  0  0  0  0  0  0  0  0  0
   58.4390   33.6390   44.5280 C   0  0  0  0  0  0  0  0  0  0  0  0
   58.6540   33.1420   45.8180 C   0  0  0  0  0  0  0  0  0  0  0  0
   59.1220   34.0190   46.8080 O   0  0  0  0  0  0  0  0  0  0  0  0
   60.3450   33.9000   47.4840 C   0  0  0  0  0  0  0  0  0  0  0  0
   61.5360   33.5650   46.8130 C   0  0  0  0  0  0  0  0  0  0  0  0
   62.7390   33.4670   47.5200 C   0  0  0  0  0  0  0  0  0  0  0  0
   62.7640   33.7150   48.8950 C   0  0  0  0  0  0  0  0  0  0  0  0
   61.5870   34.0680   49.5640 C   0  0  0  0  0  0  0  0  0  0  0  0
   60.3850   34.1660   48.8580 C   0  0  0  0  0  0  0  0  0  0  0  0
   58.3510   31.7980   46.0980 C   0  0  0  0  0  0  0  0  0  0  0  0
   58.4430   28.6070   45.8070 N   0  0  0  0  0  0  0  0  0  0  0  0
   59.8800   28.7540   46.0510 C   0  0  0  0  0  0  0  0  0  0  0  0
   60.3140   27.8760   47.2320 C   0  0  0  0  0  0  0  0  0  0  0  0
   60.2990   28.6280   48.5740 C   0  0  0  0  0  0  0  0  0  0  0  0
   60.1060   30.1530   48.4570 C   0  0  0  0  0  0  0  0  0  0  0  0
   58.8940   30.6920   49.2350 C   0  0  0  0  0  0  0  0  0  0  0  0
   59.2890   31.1370   50.5930 N   0  0  0  0  0  0  0  0  0  0  0  0
   59.5090   30.0020   51.5210 C   0  0  0  0  0  0  0  0  0  0  0  0
   58.2400   29.6410   52.3230 C   0  0  0  0  0  0  0  0  0  0  0  0
   57.0800   30.0170   51.6120 O   0  0  0  0  0  0  0  0  0  0  0  0
   56.9910   31.4290   51.5380 C   0  0  0  0  0  0  0  0  0  0  0  0
   58.3320   32.1050   51.1620 C   0  0  0  0  0  0  0  0  0  0  0  0
   54.3440   28.9650   44.5450 H   0  0  0  0  0  0  0  0  0  0  0  0
   57.3164   30.7982   42.9939 H   0  0  0  0  0  0  0  0  0  0  0  0
   57.8059   33.1945   42.5035 H   0  0  0  0  0  0  0  0  0  0  0  0
   58.6465   34.6965   44.3075 H   0  0  0  0  0  0  0  0  0  0  0  0
   61.5208   33.3796   45.7288 H   0  0  0  0  0  0  0  0  0  0  0  0
   63.6656   33.1946   46.9935 H   0  0  0  0  0  0  0  0  0  0  0  0
   63.7093   33.6327   49.4515 H   0  0  0  0  0  0  0  0  0  0  0  0
   61.6078   34.2683   50.6454 H   0  0  0  0  0  0  0  0  0  0  0  0
   59.4638   34.4542   49.3855 H   0  0  0  0  0  0  0  0  0  0  0  0
   58.4928   31.4073   47.1164 H   0  0  0  0  0  0  0  0  0  0  0  0
   60.4336   28.4498   45.1504 H   0  0  0  0  0  0  0  0  0  0  0  0
   60.0958   29.8058   46.2898 H   0  0  0  0  0  0  0  0  0  0  0  0
   59.6286   27.0185   47.3024 H   0  0  0  0  0  0  0  0  0  0  0  0
   61.3499   27.5575   47.0435 H   0  0  0  0  0  0  0  0  0  0  0  0
   59.4769   28.2246   49.1834 H   0  0  0  0  0  0  0  0  0  0  0  0
   61.2897   28.4745   49.0267 H   0  0  0  0  0  0  0  0  0  0  0  0
   61.0109   30.6466   48.8412 H   0  0  0  0  0  0  0  0  0  0  0  0
   59.9237   30.3699   47.3941 H   0  0  0  0  0  0  0  0  0  0  0  0
   58.4655   31.5445   48.6876 H   0  0  0  0  0  0  0  0  0  0  0  0
   58.1532   29.8847   49.3326 H   0  0  0  0  0  0  0  0  0  0  0  0
   59.8191   29.1232   50.9366 H   0  0  0  0  0  0  0  0  0  0  0  0
   60.2851   30.3031   52.2401 H   0  0  0  0  0  0  0  0  0  0  0  0
   58.2202   28.5554   52.4992 H   0  0  0  0  0  0  0  0  0  0  0  0
   58.2599   30.1813   53.2810 H   0  0  0  0  0  0  0  0  0  0  0  0
   56.2411   31.6928   50.7777 H   0  0  0  0  0  0  0  0  0  0  0  0
   56.7106   31.7920   52.5378 H   0  0  0  0  0  0  0  0  0  0  0  0
   58.1383   32.8934   50.4198 H   0  0  0  0  0  0  0  0  0  0  0  0
   58.7729   32.5261   52.0776 H   0  0  0  0  0  0  0  0  0  0  0  0
  1  2  2  0
  2  3  1  0
  3  4  1  0
  4  5  1  0
  4  6  2  0
  6  7  1  0
  7  8  2  0
  8  9  1  0
  9 10  2  0
 10 11  1  0
 11 12  1  0
 12 13  1  0
 13 14  2  0
 14 15  1  0
 15 16  2  0
 16 17  1  0
 17 18  2  0
 11 19  2  0
  6 20  1  0
 20 21  1  0
 21 22  1  0
 22 23  1  0
 23 24  1  0
 24 25  1  0
 25 26  1  0
 26 27  1  0
 27 28  1  0
 28 29  1  0
 29 30  1  0
 30 31  1  0
 20  2  1  0
 31 26  1  0
 19  7  1  0
 18 13  1  0
  5 32  1  0
  8 33  1  0
  9 34  1  0
 10 35  1  0
 14 36  1  0
 15 37  1  0
 16 38  1  0
 17 39  1  0
 18 40  1  0
 19 41  1  0
 21 42  1  0
 21 43  1  0
 22 44  1  0
 22 45  1  0
 23 46  1  0
 23 47  1  0
 24 48  1  0
 24 49  1  0
 25 50  1  0
 25 51  1  0
 27 52  1  0
 27 53  1  0
 28 54  1  0
 28 55  1  0
 30 56  1  0
 30 57  1  0
 31 58  1  0
 31 59  1  0
M  CHG  1   3  -1
M  END
>  <UniqueID>  (15) 
12

>  <SMILES>  (15) 
O=c1[n-]c(O)c(-c2cccc(Oc3ccccc3)c2)n1CCCCCN1CCOCC1

>  <Energy>  (15) 
110.76736755174147

>  <Genealogy>  (15) 
O=c1[n-]c(O)c(-c2cccc(Oc3ccccc3)c2)n1CCCCCN1CCOCC1 (protonated)
O=c1[n-]c(O)c(-c2cccc(Oc3ccccc3)c2)n1CCCCCN1CCOCC1 (3D coordinates assigned)
O=c1[n-]c(O)c(-c2cccc(Oc3ccccc3)c2)n1CCCCCN1CCOCC1 (nonaromatic ring conformer: 110.76736755174147 kcal/mol)

>  <smiles>  (15) 
O=c1[nH]c(O)c(-c2cccc(Oc3ccccc3)c2)n1CCCCCN1CCOCC1

>  <score_type>  (15) 
oracle

>  <origin>  (15) 
adg

>  <m_score__min__energy>  (15) 
-11.01

>  <m_primary>  (15) 
energy

$$$$
15:0
     RDKit          3D

 69 71  0  0  0  0  0  0  0  0999 V2000
   61.2930   30.4230   46.7200 H   0  0  0  0  0  0  0  0  0  0  0  0
   62.1560   30.9520   46.7610 O   0  0  0  0  0  0  0  0  0  0  0  0
   62.4470   31.7950   47.8320 C   0  0  0  0  0  0  0  0  0  0  0  0
   62.9780   31.2610   49.0150 C   0  0  0  0  0  0  0  0  0  0  0  0
   63.1576   30.1787   49.0943 H   0  0  0  0  0  0  0  0  0  0  0  0
   63.2800   32.0960   50.0930 C   0  0  0  0  0  0  0  0  0  0  0  0
   63.6931   31.6700   51.0192 H   0  0  0  0  0  0  0  0  0  0  0  0
   63.0580   33.4710   49.9960 C   0  0  0  0  0  0  0  0  0  0  0  0
   63.2997   34.1283   50.8442 H   0  0  0  0  0  0  0  0  0  0  0  0
   62.5290   34.0120   48.8220 C   0  0  0  0  0  0  0  0  0  0  0  0
   62.3564   35.0960   48.7505 H   0  0  0  0  0  0  0  0  0  0  0  0
   62.2150   33.1820   47.7300 C   0  0  0  0  0  0  0  0  0  0  0  0
   61.5870   33.7800   46.4910 C   0  0  0  0  0  0  0  0  0  0  0  0
   61.5145   33.0047   45.7140 H   0  0  0  0  0  0  0  0  0  0  0  0
   62.2166   34.6131   46.1452 H   0  0  0  0  0  0  0  0  0  0  0  0
   60.2400   34.2980   46.7820 N   0  0  0  0  0  0  0  0  0  0  0  0
   59.5870   33.9490   48.0240 C   0  0  0  0  0  0  0  0  0  0  0  0
   59.8940   34.5640   49.0810 O   0  0  0  0  0  0  0  0  0  0  0  0
   58.5440   32.8580   48.1140 C   0  0  0  0  0  0  0  0  0  0  0  0
   58.0502   32.7605   47.1359 H   0  0  0  0  0  0  0  0  0  0  0  0
   57.8301   33.1423   48.9011 H   0  0  0  0  0  0  0  0  0  0  0  0
   59.1270   31.5420   48.4870 N   0  0  0  0  0  0  0  0  0  0  0  0
   59.3830   31.2320   49.8080 C   0  0  0  0  0  0  0  0  0  0  0  0
   59.0320   32.1600   50.9110 C   0  0  0  0  0  0  0  0  0  0  0  0
   60.0240   32.9560   51.5050 C   0  0  0  0  0  0  0  0  0  0  0  0
   61.0647   32.8873   51.1553 H   0  0  0  0  0  0  0  0  0  0  0  0
   59.6930   33.8360   52.5400 C   0  0  0  0  0  0  0  0  0  0  0  0
   60.4717   34.4631   52.9986 H   0  0  0  0  0  0  0  0  0  0  0  0
   58.3730   33.9190   52.9920 C   0  0  0  0  0  0  0  0  0  0  0  0
   58.1121   34.6153   53.8026 H   0  0  0  0  0  0  0  0  0  0  0  0
   57.3840   33.1170   52.4140 C   0  0  0  0  0  0  0  0  0  0  0  0
   56.3465   33.1793   52.7741 H   0  0  0  0  0  0  0  0  0  0  0  0
   57.7120   32.2360   51.3790 C   0  0  0  0  0  0  0  0  0  0  0  0
   56.9333   31.6013   50.9309 H   0  0  0  0  0  0  0  0  0  0  0  0
   59.9780   30.0000   50.1280 C   0  0  0  0  0  0  0  0  0  0  0  0
   60.3520   29.5400   51.7840 Cl  0  0  0  0  0  0  0  0  0  0  0  0
   60.2430   29.1120   49.1450 N   0  0  0  0  0  0  0  0  0  0  0  0
   59.9440   29.3500   47.8460 C   0  0  0  0  0  0  0  0  0  0  0  0
   60.2370   28.4140   46.9830 N   0  0  0  0  0  0  0  0  0  0  0  0
   60.1920   28.4380   45.5510 C   0  0  0  0  0  0  0  0  0  0  0  0
   60.8770   29.2970   44.9340 O   0  0  0  0  0  0  0  0  0  0  0  0
   59.4860   27.4550   44.8460 O   0  0  0  0  0  0  0  0  0  0  0  0
   58.1700   27.6480   44.3280 C   0  0  0  0  0  0  0  0  0  0  0  0
   57.4431   27.1010   44.9465 H   0  0  0  0  0  0  0  0  0  0  0  0
   58.1180   27.1160   42.8970 C   0  0  0  0  0  0  0  0  0  0  0  0
   58.0110   26.0214   42.9164 H   0  0  0  0  0  0  0  0  0  0  0  0
   57.2589   27.5591   42.3721 H   0  0  0  0  0  0  0  0  0  0  0  0
   59.0467   27.3844   42.3721 H   0  0  0  0  0  0  0  0  0  0  0  0
   57.8010   29.1330   44.3640 C   0  0  0  0  0  0  0  0  0  0  0  0
   57.7185   29.4651   45.4094 H   0  0  0  0  0  0  0  0  0  0  0  0
   58.5813   29.7172   43.8542 H   0  0  0  0  0  0  0  0  0  0  0  0
   56.8380   29.2840   43.8542 H   0  0  0  0  0  0  0  0  0  0  0  0
   59.3780   30.6050   47.5050 C   0  0  0  0  0  0  0  0  0  0  0  0
   59.1380   30.8830   46.2990 O   0  0  0  0  0  0  0  0  0  0  0  0
   59.5850   35.1750   45.8000 C   0  0  0  0  0  0  0  0  0  0  0  0
   58.6760   35.6040   46.2469 H   0  0  0  0  0  0  0  0  0  0  0  0
   60.2826   35.9772   45.5174 H   0  0  0  0  0  0  0  0  0  0  0  0
   59.2020   34.3770   44.5360 C   0  0  0  0  0  0  0  0  0  0  0  0
   58.7229   35.0666   43.8254 H   0  0  0  0  0  0  0  0  0  0  0  0
   60.1329   33.9394   44.1461 H   0  0  0  0  0  0  0  0  0  0  0  0
   58.2750   33.2490   44.7840 N   0  0  0  0  0  0  0  0  0  0  0  0
   58.0420   32.4230   43.5900 C   0  0  0  0  0  0  0  0  0  0  0  0
   57.7553   31.4065   43.8976 H   0  0  0  0  0  0  0  0  0  0  0  0
   57.2338   32.8661   42.9896 H   0  0  0  0  0  0  0  0  0  0  0  0
   58.9626   32.3784   42.9896 H   0  0  0  0  0  0  0  0  0  0  0  0
   57.0070   33.6730   45.3970 C   0  0  0  0  0  0  0  0  0  0  0  0
   57.1008   33.6416   46.4925 H   0  0  0  0  0  0  0  0  0  0  0  0
   56.7708   34.6990   45.0785 H   0  0  0  0  0  0  0  0  0  0  0  0
   56.2011   32.9954   45.0785 H   0  0  0  0  0  0  0  0  0  0  0  0
  1  2  1  0
  2  3  1  0
  3  4  2  0
  4  5  1  0
  4  6  1  0
  6  7  1  0
  6  8  2  0
  8  9  1  0
  8 10  1  0
 10 11  1  0
 10 12  2  0
 12 13  1  0
 13 14  1  0
 13 15  1  0
 13 16  1  0
 16 17  1  0
 17 18  2  0
 17 19  1  0
 19 20  1  0
 19 21  1  0
 19 22  1  0
 22 23  1  0
 23 24  1  0
 24 25  2  0
 25 26  1  0
 25 27  1  0
 27 28  1  0
 27 29  2  0
 29 30  1  0
 29 31  1  0
 31 32  1  0
 31 33  2  0
 33 34  1  0
 23 35  2  0
 35 36  1  0
 35 37  1  0
 37 38  1  0
 38 39  2  0
 39 40  1  0
 40 41  2  0
 40 42  1  0
 42 43  1  0
 43 44  1  0
 43 45  1  0
 45 46  1  0
 45 47  1  0
 45 48  1  0
 43 49  1  0
 49 50  1  0
 49 51  1  0
 49 52  1  0
 38 53  1  0
 53 54  2  0
 16 55  1  0
 55 56  1  0
 55 57  1  0
 55 58  1  0
 58 59  1  0
 58 60  1  0
 58 61  1  0
 61 62  1  0
 62 63  1  0
 62 64  1  0
 62 65  1  0
 61 66  1  0
 66 67  1  0
 66 68  1  0
 66 69  1  0
 12  3  1  0
 53 22  1  0
 33 24  1  0
M  CHG  1  37  -1
M  END
>  <UniqueID>  (16) 
13

>  <SMILES>  (16) 
CC(C)OC(=O)/N=c1/[n-]c(Cl)c(-c2ccccc2)n(CC(=O)N(CCN(C)C)Cc2ccccc2O)c1=O

>  <Energy>  (16) 
88.32879112505005

>  <Genealogy>  (16) 
CC(C)OC(=O)N=c1[n-]c(Cl)c(-c2ccccc2)n(CC(=O)N(CCN(C)C)Cc2ccccc2O)c1=O (protonated)
CC(C)OC(=O)/N=c1/[n-]c(Cl)c(-c2ccccc2)n(CC(=O)N(CCN(C)C)Cc2ccccc2O)c1=O (cis-trans isomerization)
CC(C)OC(=O)/N=c1/[n-]c(Cl)c(-c2ccccc2)n(CC(=O)N(CCN(C)C)Cc2ccccc2O)c1=O (3D coordinates assigned)
CC(C)OC(=O)/N=c1/[n-]c(Cl)c(-c2ccccc2)n(CC(=O)N(CCN(C)C)Cc2ccccc2O)c1=O (optimized conformer: 88.32879112505005 kcal/mol)

>  <smiles>  (16) 
CC(C)OC(=O)N=c1[nH]c(Cl)c(-c2ccccc2)n(CC(=O)N(CCN(C)C)Cc2ccccc2O)c1=O

>  <score_type>  (16) 
oracle

>  <origin>  (16) 
adg

>  <m_score__min__energy>  (16) 
-10.720000000000001

>  <m_primary>  (16) 
energy

$$$$
16:0
     RDKit          3D

 60 64  0  0  0  0  0  0  0  0999 V2000
   59.2710   33.7210   48.4970 C   0  0  0  0  0  0  0  0  0  0  0  0
   59.5030   32.3860   49.1750 C   0  0  0  0  0  0  0  0  0  0  0  0
   60.0230   31.2760   48.4490 C   0  0  0  0  0  0  0  0  0  0  0  0
   60.6190   31.4540   46.7740 S   0  0  0  0  0  0  0  0  0  0  0  0
   61.5980   30.3690   46.4230 O   0  0  0  0  0  0  0  0  0  0  0  0
   61.3410   32.7670   46.6410 O   0  0  0  0  0  0  0  0  0  0  0  0
   59.2640   31.3750   45.6510 C   0  0  0  0  0  0  0  0  0  0  0  0
   58.9910   30.1960   44.9400 C   0  0  0  0  0  0  0  0  0  0  0  0
   57.9060   30.1420   44.0590 C   0  0  0  0  0  0  0  0  0  0  0  0
   57.0900   31.2630   43.8820 C   0  0  0  0  0  0  0  0  0  0  0  0
   57.3580   32.4400   44.5890 C   0  0  0  0  0  0  0  0  0  0  0  0
   58.4410   32.4940   45.4730 C   0  0  0  0  0  0  0  0  0  0  0  0
   60.0830   30.0140   49.0840 C   0  0  0  0  0  0  0  0  0  0  0  0
   60.4390   28.9570   48.4100 N   0  0  0  0  0  0  0  0  0  0  0  0
   59.5690   28.0640   47.6970 C   0  0  0  0  0  0  0  0  0  0  0  0
   58.2510   28.4280   47.3630 C   0  0  0  0  0  0  0  0  0  0  0  0
   57.4210   27.5230   46.6970 C   0  0  0  0  0  0  0  0  0  0  0  0
   57.8960   26.2480   46.3480 C   0  0  0  0  0  0  0  0  0  0  0  0
   57.0620   25.2940   45.6770 N   0  0  0  0  0  0  0  0  0  0  0  0
   55.6280   25.2980   45.6380 C   0  0  0  0  0  0  0  0  0  0  0  0
   55.0160   26.3460   45.9750 O   0  0  0  0  0  0  0  0  0  0  0  0
   54.8420   24.0800   45.2290 C   0  0  0  0  0  0  0  0  0  0  0  0
   55.7180   23.0880   44.5100 C   0  0  0  0  0  0  0  0  0  0  0  0
   55.7910   23.0940   43.1050 C   0  0  0  0  0  0  0  0  0  0  0  0
   56.6290   22.1920   42.4420 C   0  0  0  0  0  0  0  0  0  0  0  0
   57.4080   21.2890   43.1740 C   0  0  0  0  0  0  0  0  0  0  0  0
   57.3500   21.2860   44.5710 C   0  0  0  0  0  0  0  0  0  0  0  0
   56.5100   22.1830   45.2390 C   0  0  0  0  0  0  0  0  0  0  0  0
   59.1870   25.8680   46.7350 C   0  0  0  0  0  0  0  0  0  0  0  0
   60.0170   26.7690   47.4110 C   0  0  0  0  0  0  0  0  0  0  0  0
   59.7180   29.8950   50.3870 N   0  0  0  0  0  0  0  0  0  0  0  0
   59.3130   30.9460   51.1350 C   0  0  0  0  0  0  0  0  0  0  0  0
   59.0020   30.7420   52.4860 C   0  0  0  0  0  0  0  0  0  0  0  0
   58.6050   31.8160   53.2830 C   0  0  0  0  0  0  0  0  0  0  0  0
   58.5250   33.0980   52.7370 C   0  0  0  0  0  0  0  0  0  0  0  0
   58.8300   33.3110   51.3890 C   0  0  0  0  0  0  0  0  0  0  0  0
   59.2100   32.2310   50.5570 C   0  0  0  0  0  0  0  0  0  0  0  0
   59.1354   34.5013   49.2604 H   0  0  0  0  0  0  0  0  0  0  0  0
   60.1395   33.9692   47.8692 H   0  0  0  0  0  0  0  0  0  0  0  0
   58.3697   33.6617   47.8692 H   0  0  0  0  0  0  0  0  0  0  0  0
   59.6319   29.3124   45.0760 H   0  0  0  0  0  0  0  0  0  0  0  0
   57.6945   29.2158   43.5045 H   0  0  0  0  0  0  0  0  0  0  0  0
   56.2380   31.2197   43.1875 H   0  0  0  0  0  0  0  0  0  0  0  0
   56.7171   33.3231   44.4499 H   0  0  0  0  0  0  0  0  0  0  0  0
   58.6470   33.4195   46.0307 H   0  0  0  0  0  0  0  0  0  0  0  0
   57.8738   29.4270   47.6269 H   0  0  0  0  0  0  0  0  0  0  0  0
   56.3897   27.8105   46.4445 H   0  0  0  0  0  0  0  0  0  0  0  0
   54.4225   23.6042   46.1277 H   0  0  0  0  0  0  0  0  0  0  0  0
   54.0375   24.3948   44.5481 H   0  0  0  0  0  0  0  0  0  0  0  0
   55.1878   23.8095   42.5270 H   0  0  0  0  0  0  0  0  0  0  0  0
   56.6759   22.1923   41.3430 H   0  0  0  0  0  0  0  0  0  0  0  0
   58.0666   20.5808   42.6499 H   0  0  0  0  0  0  0  0  0  0  0  0
   57.9654   20.5777   45.1451 H   0  0  0  0  0  0  0  0  0  0  0  0
   56.4687   22.1805   46.3382 H   0  0  0  0  0  0  0  0  0  0  0  0
   59.5507   24.8554   46.5062 H   0  0  0  0  0  0  0  0  0  0  0  0
   61.0262   26.4583   47.7191 H   0  0  0  0  0  0  0  0  0  0  0  0
   59.0710   29.7331   52.9189 H   0  0  0  0  0  0  0  0  0  0  0  0
   58.3550   31.6525   54.3417 H   0  0  0  0  0  0  0  0  0  0  0  0
   58.2207   33.9446   53.3699 H   0  0  0  0  0  0  0  0  0  0  0  0
   58.7741   34.3272   50.9715 H   0  0  0  0  0  0  0  0  0  0  0  0
  1  2  1  0
  2  3  2  0
  3  4  1  0
  4  5  2  0
  4  6  2  0
  4  7  1  0
  7  8  2  0
  8  9  1  0
  9 10  2  0
 10 11  1  0
 11 12  2  0
  3 13  1  0
 13 14  2  3
 14 15  1  0
 15 16  2  0
 16 17  1  0
 17 18  2  0
 18 19  1  0
 19 20  1  0
 20 21  2  0
 20 22  1  0
 22 23  1  0
 23 24  2  0
 24 25  1  0
 25 26  2  0
 26 27  1  0
 27 28  2  0
 18 29  1  0
 29 30  2  0
 13 31  1  0
 31 32  1  0
 32 33  2  0
 33 34  1  0
 34 35  2  0
 35 36  1  0
 36 37  2  0
 37  2  1  0
 12  7  1  0
 30 15  1  0
 37 32  1  0
 28 23  1  0
  1 38  1  0
  1 39  1  0
  1 40  1  0
  8 41  1  0
  9 42  1  0
 10 43  1  0
 11 44  1  0
 12 45  1  0
 16 46  1  0
 17 47  1  0
 22 48  1  0
 22 49  1  0
 24 50  1  0
 25 51  1  0
 26 52  1  0
 27 53  1  0
 28 54  1  0
 29 55  1  0
 30 56  1  0
 33 57  1  0
 34 58  1  0
 35 59  1  0
 36 60  1  0
M  CHG  2  19  -1  31  -1
M  END
>  <UniqueID>  (17) 
14

>  <SMILES>  (17) 
Cc1c(S(=O)(=O)c2ccccc2)c(=Nc2ccc([N-]C(=O)Cc3ccccc3)cc2)[n-]c2ccccc12

>  <Energy>  (17) 
90.20832080052058

>  <Genealogy>  (17) 
Cc1c(S(=O)(=O)c2ccccc2)c(=Nc2ccc([N-]C(=O)Cc3ccccc3)cc2)[n-]c2ccccc12 (protonated)
Cc1c(S(=O)(=O)c2ccccc2)c(=Nc2ccc([N-]C(=O)Cc3ccccc3)cc2)[n-]c2ccccc12 (3D coordinates assigned)
Cc1c(S(=O)(=O)c2ccccc2)c(=Nc2ccc([N-]C(=O)Cc3ccccc3)cc2)[n-]c2ccccc12 (optimized conformer: 90.20832080052058 kcal/mol)

>  <smiles>  (17) 
Cc1c(S(=O)(=O)c2ccccc2)c(=Nc2ccc(NC(=O)Cc3ccccc3)cc2)[nH]c2ccccc12

>  <score_type>  (17) 
oracle

>  <origin>  (17) 
adg

>  <m_score__min__energy>  (17) 
-12.529999999999999

>  <m_primary>  (17) 
energy

$$$$
17:0
     RDKit          3D

 24 25  0  0  0  0  0  0  0  0999 V2000
   55.1220   26.2570   46.0330 N   0  0  0  0  0  0  0  0  0  0  0  0
   56.5170   26.1390   46.3080 C   0  0  0  0  0  0  0  0  0  0  0  0
   56.9780   25.0290   46.6800 O   0  0  0  0  0  0  0  0  0  0  0  0
   57.3870   27.3250   46.1840 C   0  0  0  0  0  0  0  0  0  0  0  0
   58.9960   27.3480   46.6820 S   0  0  0  0  0  0  0  0  0  0  0  0
   59.2670   28.9150   46.1580 C   0  0  0  0  0  0  0  0  0  0  0  0
   60.6900   29.7040   46.3680 S   0  0  0  0  0  0  0  0  0  0  0  0
   58.1480   29.4550   45.6070 N   0  0  0  0  0  0  0  0  0  0  0  0
   58.0700   30.8020   45.1090 C   0  0  0  0  0  0  0  0  0  0  0  0
   58.1220   31.8870   45.9990 C   0  0  0  0  0  0  0  0  0  0  0  0
   58.0500   33.1970   45.5140 C   0  0  0  0  0  0  0  0  0  0  0  0
   57.9250   33.4290   44.1400 C   0  0  0  0  0  0  0  0  0  0  0  0
   57.8740   32.3520   43.2500 C   0  0  0  0  0  0  0  0  0  0  0  0
   57.9460   31.0410   43.7320 C   0  0  0  0  0  0  0  0  0  0  0  0
   57.0940   28.5780   45.6170 C   0  0  0  0  0  0  0  0  0  0  0  0
   55.8080   28.9330   45.0900 N   0  0  0  0  0  0  0  0  0  0  0  0
   54.7850   26.7160   45.1580 H   0  0  0  0  0  0  0  0  0  0  0  0
   58.2195   31.7063   47.0797 H   0  0  0  0  0  0  0  0  0  0  0  0
   58.0917   34.0452   46.2132 H   0  0  0  0  0  0  0  0  0  0  0  0
   57.8668   34.4595   43.7597 H   0  0  0  0  0  0  0  0  0  0  0  0
   57.7772   32.5358   42.1698 H   0  0  0  0  0  0  0  0  0  0  0  0
   57.9053   30.1953   43.0298 H   0  0  0  0  0  0  0  0  0  0  0  0
   55.0800   28.2180   44.8810 H   0  0  0  0  0  0  0  0  0  0  0  0
   55.5410   29.9320   44.9530 H   0  0  0  0  0  0  0  0  0  0  0  0
  1  2  1  0
  2  3  2  0
  2  4  1  0
  4  5  1  0
  5  6  1  0
  6  7  2  0
  6  8  1  0
  8  9  1  0
  9 10  2  0
 10 11  1  0
 11 12  2  0
 12 13  1  0
 13 14  2  0
  8 15  1  0
 15 16  1  0
 15  4  2  0
 14  9  1  0
  1 17  1  0
 10 18  1  0
 11 19  1  0
 12 20  1  0
 13 21  1  0
 14 22  1  0
 16 23  1  0
 16 24  1  0
M  CHG  1   1  -1
M  END
>  <UniqueID>  (18) 
15

>  <SMILES>  (18) 
[NH-]C(=O)c1sc(=S)n(-c2ccccc2)c1N

>  <Energy>  (18) 
64.37893605226093

>  <Genealogy>  (18) 
[NH-]C(=O)c1sc(=S)n(-c2ccccc2)c1N (protonated)
[NH-]C(=O)c1sc(=S)n(-c2ccccc2)c1N (3D coordinates assigned)
[NH-]C(=O)c1sc(=S)n(-c2ccccc2)c1N (optimized conformer: 64.37893605226093 kcal/mol)

>  <smiles>  (18) 
NC(=O)c1sc(=S)n(-c2ccccc2)c1N

>  <score_type>  (18) 
oracle

>  <origin>  (18) 
adg

>  <m_score__min__energy>  (18) 
-10.68

>  <m_primary>  (18) 
energy

$$$$
18:0
     RDKit          3D

 23 24  0  0  0  0  0  0  0  0999 V2000
   56.4200   30.6210   44.3450 O   0  0  0  0  0  0  0  0  0  0  0  0
   56.6750   29.4660   44.7760 C   0  0  0  0  0  0  0  0  0  0  0  0
   55.6620   28.6470   45.1570 N   0  0  0  0  0  0  0  0  0  0  0  0
   55.9080   27.3970   45.6260 C   0  0  0  0  0  0  0  0  0  0  0  0
   54.8390   26.5950   46.0060 O   0  0  0  0  0  0  0  0  0  0  0  0
   57.2310   26.9270   45.7180 C   0  0  0  0  0  0  0  0  0  0  0  0
   57.5340   25.5520   46.2700 C   0  0  0  0  0  0  0  0  0  0  0  0
   57.0790   24.4830   45.3110 C   0  0  0  0  0  0  0  0  0  0  0  0
   56.7440   23.2020   45.7810 C   0  0  0  0  0  0  0  0  0  0  0  0
   56.3510   22.2030   44.8850 C   0  0  0  0  0  0  0  0  0  0  0  0
   56.2980   22.4710   43.5140 C   0  0  0  0  0  0  0  0  0  0  0  0
   55.9080   21.4770   42.6250 O   0  0  0  0  0  0  0  0  0  0  0  0
   56.6340   23.7420   43.0380 C   0  0  0  0  0  0  0  0  0  0  0  0
   57.0260   24.7440   43.9300 C   0  0  0  0  0  0  0  0  0  0  0  0
   58.2620   27.8000   45.3210 C   0  0  0  0  0  0  0  0  0  0  0  0
   59.4680   27.4450   45.3850 O   0  0  0  0  0  0  0  0  0  0  0  0
   57.9600   29.0410   44.8600 N   0  0  0  0  0  0  0  0  0  0  0  0
   58.6183   25.4572   46.4289 H   0  0  0  0  0  0  0  0  0  0  0  0
   56.9972   25.4260   47.2218 H   0  0  0  0  0  0  0  0  0  0  0  0
   56.7911   22.9841   46.8582 H   0  0  0  0  0  0  0  0  0  0  0  0
   56.0830   21.2041   45.2597 H   0  0  0  0  0  0  0  0  0  0  0  0
   56.5897   23.9537   41.9595 H   0  0  0  0  0  0  0  0  0  0  0  0
   57.2942   25.7410   43.5504 H   0  0  0  0  0  0  0  0  0  0  0  0
  1  2  2  0
  2  3  1  0
  3  4  1  0
  4  5  1  0
  4  6  2  0
  6  7  1  0
  7  8  1  0
  8  9  2  0
  9 10  1  0
 10 11  2  0
 11 12  1  0
 11 13  1  0
 13 14  2  0
  6 15  1  0
 15 16  2  0
 15 17  1  0
 17  2  1  0
 14  8  1  0
  7 18  1  0
  7 19  1  0
  9 20  1  0
 10 21  1  0
 13 22  1  0
 14 23  1  0
M  CHG  4   3  -1   5  -1  12  -1  17  -1
M  END
>  <UniqueID>  (19) 
16

>  <SMILES>  (19) 
O=c1[n-]c([O-])c(Cc2ccc([O-])cc2)c(=O)[n-]1

>  <Energy>  (19) 
25.760215829238845

>  <Genealogy>  (19) 
O=c1[n-]c([O-])c(Cc2ccc([O-])cc2)c(=O)[n-]1 (protonated)
O=c1[n-]c([O-])c(Cc2ccc([O-])cc2)c(=O)[n-]1 (3D coordinates assigned)
O=c1[n-]c([O-])c(Cc2ccc([O-])cc2)c(=O)[n-]1 (optimized conformer: 25.760215829238845 kcal/mol)

>  <smiles>  (19) 
O=c1[nH]c(O)c(Cc2ccc(O)cc2)c(=O)[nH]1

>  <score_type>  (19) 
oracle

>  <origin>  (19) 
adg

>  <m_score__min__energy>  (19) 
-14.91

>  <m_primary>  (19) 
energy

$$$$
19:0
     RDKit          3D

 45 47  0  0  0  0  0  0  0  0999 V2000
   54.7460   26.3380   46.0000 N   0  0  0  0  0  0  0  0  0  0  0  0
   56.0640   25.2340   46.1670 S   0  0  0  0  0  0  0  0  0  0  0  0
   55.8600   24.3970   47.3990 O   0  0  0  0  0  0  0  0  0  0  0  0
   56.1140   24.3250   44.9710 O   0  0  0  0  0  0  0  0  0  0  0  0
   57.5720   26.1320   46.2960 C   0  0  0  0  0  0  0  0  0  0  0  0
   58.8010   25.4580   46.2570 C   0  0  0  0  0  0  0  0  0  0  0  0
   59.9960   26.1720   46.3730 C   0  0  0  0  0  0  0  0  0  0  0  0
   59.9710   27.5600   46.5260 C   0  0  0  0  0  0  0  0  0  0  0  0
   58.7450   28.2490   46.5510 C   0  0  0  0  0  0  0  0  0  0  0  0
   58.6780   29.6420   46.7130 O   0  0  0  0  0  0  0  0  0  0  0  0
   58.2970   30.5490   45.7140 C   0  0  0  0  0  0  0  0  0  0  0  0
   58.0250   30.0670   44.4290 C   0  0  0  0  0  0  0  0  0  0  0  0
   57.6140   30.9420   43.4200 C   0  0  0  0  0  0  0  0  0  0  0  0
   57.4830   32.3080   43.6850 C   0  0  0  0  0  0  0  0  0  0  0  0
   57.7940   32.8120   44.9580 C   0  0  0  0  0  0  0  0  0  0  0  0
   57.5840   34.2670   45.2750 C   0  0  0  0  0  0  0  0  0  0  0  0
   58.1500   34.5650   46.5880 N   0  0  0  0  0  0  0  0  0  0  0  0
   59.4680   35.1080   46.7450 C   0  0  0  0  0  0  0  0  0  0  0  0
   59.9820   35.7980   45.8250 O   0  0  0  0  0  0  0  0  0  0  0  0
   60.1980   34.9270   47.9640 N   0  0  0  0  0  0  0  0  0  0  0  0
   61.4210   34.1900   48.1050 C   0  0  0  0  0  0  0  0  0  0  0  0
   62.1520   33.8630   46.9560 C   0  0  0  0  0  0  0  0  0  0  0  0
   63.3270   33.1100   47.0560 C   0  0  0  0  0  0  0  0  0  0  0  0
   63.7690   32.6660   48.3040 C   0  0  0  0  0  0  0  0  0  0  0  0
   63.0330   32.9650   49.4540 C   0  0  0  0  0  0  0  0  0  0  0  0
   63.4500   32.5140   50.6630 F   0  0  0  0  0  0  0  0  0  0  0  0
   61.8600   33.7200   49.3580 C   0  0  0  0  0  0  0  0  0  0  0  0
   58.2100   31.9290   45.9650 C   0  0  0  0  0  0  0  0  0  0  0  0
   57.5490   27.5250   46.4550 C   0  0  0  0  0  0  0  0  0  0  0  0
   53.8700   25.7710   46.0060 H   0  0  0  0  0  0  0  0  0  0  0  0
   58.8241   24.3650   46.1348 H   0  0  0  0  0  0  0  0  0  0  0  0
   60.9584   25.6401   46.3438 H   0  0  0  0  0  0  0  0  0  0  0  0
   60.9142   28.1168   46.6274 H   0  0  0  0  0  0  0  0  0  0  0  0
   58.1352   28.9943   44.2120 H   0  0  0  0  0  0  0  0  0  0  0  0
   57.3930   30.5546   42.4145 H   0  0  0  0  0  0  0  0  0  0  0  0
   57.1355   32.9896   42.8946 H   0  0  0  0  0  0  0  0  0  0  0  0
   58.0816   34.8841   44.5124 H   0  0  0  0  0  0  0  0  0  0  0  0
   56.5068   34.4896   45.2806 H   0  0  0  0  0  0  0  0  0  0  0  0
   57.6420   34.2160   47.4300 H   0  0  0  0  0  0  0  0  0  0  0  0
   61.8005   34.2000   45.9697 H   0  0  0  0  0  0  0  0  0  0  0  0
   63.9031   32.8676   46.1508 H   0  0  0  0  0  0  0  0  0  0  0  0
   64.6970   32.0806   48.3821 H   0  0  0  0  0  0  0  0  0  0  0  0
   61.2785   33.9475   50.2636 H   0  0  0  0  0  0  0  0  0  0  0  0
   58.4704   32.3199   46.9597 H   0  0  0  0  0  0  0  0  0  0  0  0
   56.5854   28.0532   46.5047 H   0  0  0  0  0  0  0  0  0  0  0  0
  1  2  1  0
  2  3  2  0
  2  4  2  0
  2  5  1  0
  5  6  2  0
  6  7  1  0
  7  8  2  0
  8  9  1  0
  9 10  1  0
 10 11  1  0
 11 12  2  0
 12 13  1  0
 13 14  2  0
 14 15  1  0
 15 16  1  0
 16 17  1  0
 17 18  1  0
 18 19  2  0
 18 20  1  0
 20 21  1  0
 21 22  2  0
 22 23  1  0
 23 24  2  0
 24 25  1  0
 25 26  1  0
 25 27  2  0
 15 28  2  0
  9 29  2  0
 29  5  1  0
 28 11  1  0
 27 21  1  0
  1 30  1  0
  6 31  1  0
  7 32  1  0
  8 33  1  0
 12 34  1  0
 13 35  1  0
 14 36  1  0
 16 37  1  0
 16 38  1  0
 17 39  1  0
 22 40  1  0
 23 41  1  0
 24 42  1  0
 27 43  1  0
 28 44  1  0
 29 45  1  0
M  CHG  2   1  -1  20  -1
M  END
>  <UniqueID>  (20) 
17

>  <SMILES>  (20) 
[NH-]S(=O)(=O)c1cccc(Oc2cccc(CNC(=O)[N-]c3cccc(F)c3)c2)c1

>  <Energy>  (20) 
53.306457585006044

>  <Genealogy>  (20) 
[NH-]S(=O)(=O)c1cccc(Oc2cccc(CNC(=O)[N-]c3cccc(F)c3)c2)c1 (protonated)
[NH-]S(=O)(=O)c1cccc(Oc2cccc(CNC(=O)[N-]c3cccc(F)c3)c2)c1 (3D coordinates assigned)
[NH-]S(=O)(=O)c1cccc(Oc2cccc(CNC(=O)[N-]c3cccc(F)c3)c2)c1 (optimized conformer: 53.306457585006044 kcal/mol)

>  <smiles>  (20) 
NS(=O)(=O)c1cccc(Oc2cccc(CNC(=O)Nc3cccc(F)c3)c2)c1

>  <score_type>  (20) 
oracle

>  <origin>  (20) 
adg

>  <m_score__min__energy>  (20) 
-12.75

>  <m_primary>  (20) 
energy

$$$$
20:0
     RDKit          3D

 42 43  0  0  0  0  0  0  0  0999 V2000
   56.1580   30.0920   45.6350 H   0  0  0  0  0  0  0  0  0  0  0  0
   56.8560   30.7140   45.2420 O   0  0  0  0  0  0  0  0  0  0  0  0
   57.8200   31.3230   46.0390 C   0  0  0  0  0  0  0  0  0  0  0  0
   58.7230   30.5310   46.7560 C   0  0  0  0  0  0  0  0  0  0  0  0
   58.6605   29.4346   46.6927 H   0  0  0  0  0  0  0  0  0  0  0  0
   59.7050   31.1280   47.5530 C   0  0  0  0  0  0  0  0  0  0  0  0
   60.4178   30.4998   48.1073 H   0  0  0  0  0  0  0  0  0  0  0  0
   59.7840   32.5270   47.6480 C   0  0  0  0  0  0  0  0  0  0  0  0
   60.8900   33.1710   48.4410 C   0  0  0  0  0  0  0  0  0  0  0  0
   60.6711   34.2415   48.5676 H   0  0  0  0  0  0  0  0  0  0  0  0
   61.8403   33.0444   47.9017 H   0  0  0  0  0  0  0  0  0  0  0  0
   61.0010   32.5260   49.7870 C   0  0  0  0  0  0  0  0  0  0  0  0
   61.6490   31.4540   49.9150 O   0  0  0  0  0  0  0  0  0  0  0  0
   60.3120   33.0840   50.9110 N   0  0  0  0  0  0  0  0  0  0  0  0
   59.3240   32.5230   51.5450 C   0  0  0  0  0  0  0  0  0  0  0  0
   59.5266   32.0732   52.5282 H   0  0  0  0  0  0  0  0  0  0  0  0
   57.9180   32.4550   51.0080 C   0  0  0  0  0  0  0  0  0  0  0  0
   57.2579   33.0409   51.6645 H   0  0  0  0  0  0  0  0  0  0  0  0
   57.9234   32.8617   49.9860 H   0  0  0  0  0  0  0  0  0  0  0  0
   57.4000   31.0140   50.9430 C   0  0  0  0  0  0  0  0  0  0  0  0
   56.5671   30.9592   50.2265 H   0  0  0  0  0  0  0  0  0  0  0  0
   58.2176   30.3529   50.6197 H   0  0  0  0  0  0  0  0  0  0  0  0
   56.9190   30.5730   52.2990 C   0  0  0  0  0  0  0  0  0  0  0  0
   57.7150   29.9530   53.0530 O   0  0  0  0  0  0  0  0  0  0  0  0
   55.5650   30.7600   52.7320 N   0  0  0  0  0  0  0  0  0  0  0  0
   54.3720   30.2860   52.0380 C   0  0  0  0  0  0  0  0  0  0  0  0
   54.5759   30.2362   50.9582 H   0  0  0  0  0  0  0  0  0  0  0  0
   54.1096   29.2877   52.4180 H   0  0  0  0  0  0  0  0  0  0  0  0
   53.2010   31.2370   52.2870 C   0  0  0  0  0  0  0  0  0  0  0  0
   52.6219   30.8782   53.1506 H   0  0  0  0  0  0  0  0  0  0  0  0
   53.5987   32.2432   52.4855 H   0  0  0  0  0  0  0  0  0  0  0  0
   52.3060   31.3010   51.0870 C   0  0  0  0  0  0  0  0  0  0  0  0
   52.2920   30.3830   50.1040 N   0  0  0  0  0  0  0  0  0  0  0  0
   51.3190   30.8270   49.2790 C   0  0  0  0  0  0  0  0  0  0  0  0
   51.0010   30.2240   48.2220 O   0  0  0  0  0  0  0  0  0  0  0  0
   50.7080   31.9630   49.6800 N   0  0  0  0  0  0  0  0  0  0  0  0
   51.3420   32.2460   50.8290 C   0  0  0  0  0  0  0  0  0  0  0  0
   51.0430   33.3410   51.6280 O   0  0  0  0  0  0  0  0  0  0  0  0
   58.8740   33.3190   46.9280 C   0  0  0  0  0  0  0  0  0  0  0  0
   58.9303   34.4156   46.9937 H   0  0  0  0  0  0  0  0  0  0  0  0
   57.8980   32.7190   46.1290 C   0  0  0  0  0  0  0  0  0  0  0  0
   57.1880   33.3448   45.5684 H   0  0  0  0  0  0  0  0  0  0  0  0
  1  2  1  0
  2  3  1  0
  3  4  2  0
  4  5  1  0
  4  6  1  0
  6  7  1  0
  6  8  2  0
  8  9  1  0
  9 10  1  0
  9 11  1  0
  9 12  1  0
 12 13  2  0
 12 14  1  0
 14 15  2  0
 15 16  1  0
 15 17  1  0
 17 18  1  0
 17 19  1  0
 17 20  1  0
 20 21  1  0
 20 22  1  0
 20 23  1  0
 23 24  2  0
 23 25  1  0
 25 26  1  0
 26 27  1  0
 26 28  1  0
 26 29  1  0
 29 30  1  0
 29 31  1  0
 29 32  1  0
 32 33  1  0
 33 34  1  0
 34 35  2  0
 34 36  1  0
 36 37  1  0
 37 38  1  0
  8 39  1  0
 39 40  1  0
 39 41  2  0
 41 42  1  0
 41  3  1  0
 37 32  2  0
M  CHG  4  25  -1  33  -1  36  -1  38  -1
M  END
>  <UniqueID>  (21) 
18

>  <SMILES>  (21) 
O=C(Cc1ccc(O)cc1)/N=C\CCC(=O)[N-]CCc1[n-]c(=O)[n-]c1[O-]

>  <Energy>  (21) 
63.656619890766926

>  <Genealogy>  (21) 
O=C(Cc1ccc(O)cc1)N=CCCC(=O)[N-]CCc1[n-]c(=O)[n-]c1[O-] (protonated)
O=C(Cc1ccc(O)cc1)/N=C\CCC(=O)[N-]CCc1[n-]c(=O)[n-]c1[O-] (cis-trans isomerization)
O=C(Cc1ccc(O)cc1)/N=C\CCC(=O)[N-]CCc1[n-]c(=O)[n-]c1[O-] (3D coordinates assigned)
O=C(Cc1ccc(O)cc1)/N=C\CCC(=O)[N-]CCc1[n-]c(=O)[n-]c1[O-] (optimized conformer: 63.656619890766926 kcal/mol)

>  <smiles>  (21) 
O=C(Cc1ccc(O)cc1)N=CCCC(=O)NCCc1[nH]c(=O)[nH]c1O

>  <score_type>  (21) 
oracle

>  <origin>  (21) 
adg

>  <m_score__min__energy>  (21) 
-17.73

>  <m_primary>  (21) 
energy

$$$$
21:0
     RDKit          3D

 35 37  0  0  0  0  0  0  0  0999 V2000
   57.4910   33.1420   45.6970 O   0  0  0  0  0  0  0  0  0  0  0  0
   57.6170   31.8880   45.7590 C   0  0  0  0  0  0  0  0  0  0  0  0
   56.6580   31.1030   45.2060 N   0  0  0  0  0  0  0  0  0  0  0  0
   56.7410   29.7510   45.2420 C   0  0  0  0  0  0  0  0  0  0  0  0
   55.7350   28.9910   44.6560 O   0  0  0  0  0  0  0  0  0  0  0  0
   57.8390   29.1350   45.8520 C   0  0  0  0  0  0  0  0  0  0  0  0
   57.9300   27.6560   45.8780 C   0  0  0  0  0  0  0  0  0  0  0  0
   57.0400   26.8440   46.4700 C   0  0  0  0  0  0  0  0  0  0  0  0
   56.5720   25.5490   45.9190 C   0  0  0  0  0  0  0  0  0  0  0  0
   57.4830   24.5330   45.5750 C   0  0  0  0  0  0  0  0  0  0  0  0
   57.0270   23.3220   45.0490 C   0  0  0  0  0  0  0  0  0  0  0  0
   55.6610   23.1200   44.8410 C   0  0  0  0  0  0  0  0  0  0  0  0
   54.7500   24.1320   45.1500 C   0  0  0  0  0  0  0  0  0  0  0  0
   55.1990   25.3470   45.6820 C   0  0  0  0  0  0  0  0  0  0  0  0
   54.2750   26.3400   45.9840 O   0  0  0  0  0  0  0  0  0  0  0  0
   58.8070   29.9580   46.4580 C   0  0  0  0  0  0  0  0  0  0  0  0
   59.7800   29.4330   47.0710 O   0  0  0  0  0  0  0  0  0  0  0  0
   58.6940   31.3220   46.3880 N   0  0  0  0  0  0  0  0  0  0  0  0
   59.7110   32.1620   46.9730 C   0  0  0  0  0  0  0  0  0  0  0  0
   61.0690   31.8890   46.7490 C   0  0  0  0  0  0  0  0  0  0  0  0
   62.0540   32.6990   47.3210 C   0  0  0  0  0  0  0  0  0  0  0  0
   61.6890   33.7870   48.1200 C   0  0  0  0  0  0  0  0  0  0  0  0
   62.6690   34.5930   48.6880 O   0  0  0  0  0  0  0  0  0  0  0  0
   60.3370   34.0650   48.3460 C   0  0  0  0  0  0  0  0  0  0  0  0
   59.3510   33.2570   47.7760 C   0  0  0  0  0  0  0  0  0  0  0  0
   58.7900   27.1894   45.3753 H   0  0  0  0  0  0  0  0  0  0  0  0
   56.6261   27.1635   47.4378 H   0  0  0  0  0  0  0  0  0  0  0  0
   58.5613   24.6936   45.7213 H   0  0  0  0  0  0  0  0  0  0  0  0
   57.7445   22.5268   44.7984 H   0  0  0  0  0  0  0  0  0  0  0  0
   55.3025   22.1632   44.4335 H   0  0  0  0  0  0  0  0  0  0  0  0
   53.6756   23.9742   44.9749 H   0  0  0  0  0  0  0  0  0  0  0  0
   61.3595   31.0341   46.1207 H   0  0  0  0  0  0  0  0  0  0  0  0
   63.1172   32.4804   47.1425 H   0  0  0  0  0  0  0  0  0  0  0  0
   60.0500   34.9215   48.9737 H   0  0  0  0  0  0  0  0  0  0  0  0
   58.2888   33.4787   47.9564 H   0  0  0  0  0  0  0  0  0  0  0  0
  1  2  2  0
  2  3  1  0
  3  4  1  0
  4  5  1  0
  4  6  2  0
  6  7  1  0
  7  8  2  3
  8  9  1  0
  9 10  2  0
 10 11  1  0
 11 12  2  0
 12 13  1  0
 13 14  2  0
 14 15  1  0
  6 16  1  0
 16 17  2  0
 16 18  1  0
 18 19  1  0
 19 20  2  0
 20 21  1  0
 21 22  2  0
 22 23  1  0
 22 24  1  0
 24 25  2  0
 18  2  1  0
 25 19  1  0
 14  9  1  0
  7 26  1  0
  8 27  1  0
 10 28  1  0
 11 29  1  0
 12 30  1  0
 13 31  1  0
 20 32  1  0
 21 33  1  0
 24 34  1  0
 25 35  1  0
M  CHG  4   3  -1   5  -1  15  -1  23  -1
M  END
>  <UniqueID>  (22) 
19

>  <SMILES>  (22) 
O=c1[n-]c([O-])c(C=Cc2ccccc2[O-])c(=O)n1-c1ccc([O-])cc1

>  <Energy>  (22) 
61.217332412069645

>  <Genealogy>  (22) 
O=c1[n-]c([O-])c(C=Cc2ccccc2[O-])c(=O)n1-c1ccc([O-])cc1 (protonated)
O=c1[n-]c([O-])c(C=Cc2ccccc2[O-])c(=O)n1-c1ccc([O-])cc1 (3D coordinates assigned)
O=c1[n-]c([O-])c(C=Cc2ccccc2[O-])c(=O)n1-c1ccc([O-])cc1 (optimized conformer: 61.217332412069645 kcal/mol)

>  <smiles>  (22) 
O=c1[nH]c(O)c(C=Cc2ccccc2O)c(=O)n1-c1ccc(O)cc1

>  <score_type>  (22) 
oracle

>  <origin>  (22) 
adg

>  <m_score__min__energy>  (22) 
-16.440000000000001

>  <m_primary>  (22) 
energy

$$$$
22:0
     RDKit          3D

 47 49  0  0  0  0  0  0  0  0999 V2000
   54.6590   29.3420   45.4100 H   0  0  0  0  0  0  0  0  0  0  0  0
   55.1500   29.0050   44.5520 N   0  0  0  0  0  0  0  0  0  0  0  0
   56.8440   29.0070   44.9060 S   0  0  0  0  0  0  0  0  0  0  0  0
   57.1010   30.0290   45.9790 O   0  0  0  0  0  0  0  0  0  0  0  0
   57.6210   29.3860   43.6780 O   0  0  0  0  0  0  0  0  0  0  0  0
   57.3480   27.4010   45.4690 C   0  0  0  0  0  0  0  0  0  0  0  0
   56.3680   26.4080   45.6280 C   0  0  0  0  0  0  0  0  0  0  0  0
   55.3098   26.6542   45.4560 H   0  0  0  0  0  0  0  0  0  0  0  0
   56.7250   25.1090   46.0030 C   0  0  0  0  0  0  0  0  0  0  0  0
   55.9479   24.3404   46.1270 H   0  0  0  0  0  0  0  0  0  0  0  0
   58.0630   24.7860   46.2200 C   0  0  0  0  0  0  0  0  0  0  0  0
   58.3416   23.7616   46.5080 H   0  0  0  0  0  0  0  0  0  0  0  0
   59.0500   25.7620   46.0720 C   0  0  0  0  0  0  0  0  0  0  0  0
   60.1058   25.4988   46.2330 H   0  0  0  0  0  0  0  0  0  0  0  0
   58.7060   27.0780   45.7190 C   0  0  0  0  0  0  0  0  0  0  0  0
   59.7930   28.0720   45.6330 C   0  0  0  0  0  0  0  0  0  0  0  0
   60.3380   28.1953   44.6855 H   0  0  0  0  0  0  0  0  0  0  0  0
   60.1280   28.8260   46.6860 C   0  0  0  0  0  0  0  0  0  0  0  0
   60.2777   28.3326   47.6577 H   0  0  0  0  0  0  0  0  0  0  0  0
   60.3060   30.2880   46.6050 C   0  0  0  0  0  0  0  0  0  0  0  0
   61.4610   30.7440   46.3900 O   0  0  0  0  0  0  0  0  0  0  0  0
   59.2110   31.1950   46.8030 N   0  0  0  0  0  0  0  0  0  0  0  0
   58.4430   30.9330   47.4650 H   0  0  0  0  0  0  0  0  0  0  0  0
   59.2350   32.5310   46.2860 C   0  0  0  0  0  0  0  0  0  0  0  0
   58.2980   32.9000   45.3090 C   0  0  0  0  0  0  0  0  0  0  0  0
   57.5769   32.1580   44.9356 H   0  0  0  0  0  0  0  0  0  0  0  0
   58.2750   34.2020   44.8080 C   0  0  0  0  0  0  0  0  0  0  0  0
   57.5302   34.4854   44.0498 H   0  0  0  0  0  0  0  0  0  0  0  0
   59.1950   35.1450   45.2670 C   0  0  0  0  0  0  0  0  0  0  0  0
   59.1692   36.1731   44.8766 H   0  0  0  0  0  0  0  0  0  0  0  0
   60.1490   34.7850   46.2220 C   0  0  0  0  0  0  0  0  0  0  0  0
   60.8760   35.5311   46.5753 H   0  0  0  0  0  0  0  0  0  0  0  0
   60.1870   33.4790   46.7340 C   0  0  0  0  0  0  0  0  0  0  0  0
   61.2430   33.1090   47.6370 N   0  0  0  0  0  0  0  0  0  0  0  0
   62.6380   33.3090   47.2140 C   0  0  0  0  0  0  0  0  0  0  0  0
   62.7520   32.9386   46.1845 H   0  0  0  0  0  0  0  0  0  0  0  0
   62.8588   34.3845   47.2810 H   0  0  0  0  0  0  0  0  0  0  0  0
   63.6310   32.5700   48.1160 C   0  0  0  0  0  0  0  0  0  0  0  0
   63.6709   31.5125   47.8157 H   0  0  0  0  0  0  0  0  0  0  0  0
   64.6192   33.0407   48.0067 H   0  0  0  0  0  0  0  0  0  0  0  0
   63.2440   32.6500   49.4710 O   0  0  0  0  0  0  0  0  0  0  0  0
   62.0670   31.8970   49.6500 C   0  0  0  0  0  0  0  0  0  0  0  0
   62.2106   30.8947   49.2202 H   0  0  0  0  0  0  0  0  0  0  0  0
   61.8543   31.8234   50.7267 H   0  0  0  0  0  0  0  0  0  0  0  0
   60.8830   32.5740   48.9600 C   0  0  0  0  0  0  0  0  0  0  0  0
   60.0760   31.8368   48.8365 H   0  0  0  0  0  0  0  0  0  0  0  0
   60.5619   33.4170   49.5895 H   0  0  0  0  0  0  0  0  0  0  0  0
  1  2  1  0
  2  3  1  0
  3  4  2  0
  3  5  2  0
  3  6  1  0
  6  7  2  0
  7  8  1  0
  7  9  1  0
  9 10  1  0
  9 11  2  0
 11 12  1  0
 11 13  1  0
 13 14  1  0
 13 15  2  0
 15 16  1  0
 16 17  1  0
 16 18  2  0
 18 19  1  0
 18 20  1  0
 20 21  2  0
 20 22  1  0
 22 23  1  0
 22 24  1  0
 24 25  2  0
 25 26  1  0
 25 27  1  0
 27 28  1  0
 27 29  2  0
 29 30  1  0
 29 31  1  0
 31 32  1  0
 31 33  2  0
 33 34  1  0
 34 35  1  0
 35 36  1  0
 35 37  1  0
 35 38  1  0
 38 39  1  0
 38 40  1  0
 38 41  1  0
 41 42  1  0
 42 43  1  0
 42 44  1  0
 42 45  1  0
 45 46  1  0
 45 47  1  0
 15  6  1  0
 33 24  1  0
 45 34  1  0
M  CHG  1   2  -1
M  END
>  <UniqueID>  (23) 
20

>  <SMILES>  (23) 
[NH-]S(=O)(=O)c1ccccc1/C=C/C(=O)Nc1ccccc1N1CCOCC1

>  <Energy>  (23) 
68.5050170774228

>  <Genealogy>  (23) 
[NH-]S(=O)(=O)c1ccccc1C=CC(=O)Nc1ccccc1N1CCOCC1 (protonated)
[NH-]S(=O)(=O)c1ccccc1/C=C/C(=O)Nc1ccccc1N1CCOCC1 (cis-trans isomerization)
[NH-]S(=O)(=O)c1ccccc1/C=C/C(=O)Nc1ccccc1N1CCOCC1 (3D coordinates assigned)
[NH-]S(=O)(=O)c1ccccc1/C=C/C(=O)Nc1ccccc1N1CCOCC1 (nonaromatic ring conformer: 68.5050170774228 kcal/mol)

>  <smiles>  (23) 
NS(=O)(=O)c1ccccc1C=CC(=O)Nc1ccccc1N1CCOCC1

>  <score_type>  (23) 
oracle

>  <origin>  (23) 
adg

>  <m_score__min__energy>  (23) 
-11.369999999999999

>  <m_primary>  (23) 
energy

$$$$
23:0
     RDKit          3D

 41 43  0  0  0  0  0  0  0  0999 V2000
   57.7890   34.8860   44.8030 O   0  0  0  0  0  0  0  0  0  0  0  0
   58.5680   34.3890   45.6600 C   0  0  0  0  0  0  0  0  0  0  0  0
   59.3850   35.2920   46.5270 C   0  0  0  0  0  0  0  0  0  0  0  0
   60.4960   34.5170   47.1780 C   0  0  0  0  0  0  0  0  0  0  0  0
   61.5430   33.9910   46.4020 C   0  0  0  0  0  0  0  0  0  0  0  0
   62.5570   33.2410   47.0050 C   0  0  0  0  0  0  0  0  0  0  0  0
   62.5300   33.0030   48.3820 C   0  0  0  0  0  0  0  0  0  0  0  0
   63.8040   32.0610   49.1360 Cl  0  0  0  0  0  0  0  0  0  0  0  0
   61.4850   33.5130   49.1580 C   0  0  0  0  0  0  0  0  0  0  0  0
   60.4680   34.2630   48.5590 C   0  0  0  0  0  0  0  0  0  0  0  0
   58.6040   32.9740   45.8880 N   0  0  0  0  0  0  0  0  0  0  0  0
   58.0290   31.9560   45.0550 C   0  0  0  0  0  0  0  0  0  0  0  0
   57.9610   32.1800   43.6750 C   0  0  0  0  0  0  0  0  0  0  0  0
   57.3980   31.2210   42.8300 C   0  0  0  0  0  0  0  0  0  0  0  0
   56.8720   30.0410   43.3620 C   0  0  0  0  0  0  0  0  0  0  0  0
   56.8870   29.8200   44.7440 C   0  0  0  0  0  0  0  0  0  0  0  0
   56.3250   28.6020   45.2550 N   0  0  0  0  0  0  0  0  0  0  0  0
   57.0360   27.5510   45.9260 C   0  0  0  0  0  0  0  0  0  0  0  0
   57.9050   27.8630   46.7820 O   0  0  0  0  0  0  0  0  0  0  0  0
   56.8020   26.1210   45.6210 C   0  0  0  0  0  0  0  0  0  0  0  0
   57.8880   25.3080   45.2550 C   0  0  0  0  0  0  0  0  0  0  0  0
   57.6990   23.9500   44.9890 C   0  0  0  0  0  0  0  0  0  0  0  0
   56.4220   23.3910   45.0750 C   0  0  0  0  0  0  0  0  0  0  0  0
   55.3310   24.1930   45.4160 C   0  0  0  0  0  0  0  0  0  0  0  0
   55.5110   25.5550   45.6800 C   0  0  0  0  0  0  0  0  0  0  0  0
   54.4000   26.3390   45.9770 O   0  0  0  0  0  0  0  0  0  0  0  0
   57.4840   30.7740   45.5890 C   0  0  0  0  0  0  0  0  0  0  0  0
   59.8145   36.0964   45.9118 H   0  0  0  0  0  0  0  0  0  0  0  0
   58.7402   35.7216   47.3078 H   0  0  0  0  0  0  0  0  0  0  0  0
   61.5647   34.1700   45.3169 H   0  0  0  0  0  0  0  0  0  0  0  0
   63.3780   32.8372   46.3943 H   0  0  0  0  0  0  0  0  0  0  0  0
   61.4627   33.3241   50.2414 H   0  0  0  0  0  0  0  0  0  0  0  0
   59.6430   34.6555   49.1717 H   0  0  0  0  0  0  0  0  0  0  0  0
   58.3534   33.1172   43.2534 H   0  0  0  0  0  0  0  0  0  0  0  0
   57.3687   31.3949   41.7442 H   0  0  0  0  0  0  0  0  0  0  0  0
   56.4438   29.2816   42.6911 H   0  0  0  0  0  0  0  0  0  0  0  0
   58.8947   25.7444   45.1774 H   0  0  0  0  0  0  0  0  0  0  0  0
   58.5569   23.3200   44.7114 H   0  0  0  0  0  0  0  0  0  0  0  0
   56.2758   22.3194   44.8742 H   0  0  0  0  0  0  0  0  0  0  0  0
   54.3252   23.7518   45.4773 H   0  0  0  0  0  0  0  0  0  0  0  0
   57.5248   30.5944   46.6735 H   0  0  0  0  0  0  0  0  0  0  0  0
  1  2  2  0
  2  3  1  0
  3  4  1  0
  4  5  2  0
  5  6  1  0
  6  7  2  0
  7  8  1  0
  7  9  1  0
  9 10  2  0
  2 11  1  0
 11 12  1  0
 12 13  2  0
 13 14  1  0
 14 15  2  0
 15 16  1  0
 16 17  1  0
 17 18  1  0
 18 19  2  0
 18 20  1  0
 20 21  2  0
 21 22  1  0
 22 23  2  0
 23 24  1  0
 24 25  2  0
 25 26  1  0
 16 27  2  0
 10  4  1  0
 27 12  1  0
 25 20  1  0
  3 28  1  0
  3 29  1  0
  5 30  1  0
  6 31  1  0
  9 32  1  0
 10 33  1  0
 13 34  1  0
 14 35  1  0
 15 36  1  0
 21 37  1  0
 22 38  1  0
 23 39  1  0
 24 40  1  0
 27 41  1  0
M  CHG  3  11  -1  17  -1  26  -1
M  END
>  <UniqueID>  (24) 
21

>  <SMILES>  (24) 
O=C(Cc1ccc(Cl)cc1)[N-]c1cccc([N-]C(=O)c2ccccc2[O-])c1

>  <Energy>  (24) 
53.316061089835664

>  <Genealogy>  (24) 
O=C(Cc1ccc(Cl)cc1)[N-]c1cccc([N-]C(=O)c2ccccc2[O-])c1 (protonated)
O=C(Cc1ccc(Cl)cc1)[N-]c1cccc([N-]C(=O)c2ccccc2[O-])c1 (3D coordinates assigned)
O=C(Cc1ccc(Cl)cc1)[N-]c1cccc([N-]C(=O)c2ccccc2[O-])c1 (optimized conformer: 53.316061089835664 kcal/mol)

>  <smiles>  (24) 
O=C(Cc1ccc(Cl)cc1)Nc1cccc(NC(=O)c2ccccc2O)c1

>  <score_type>  (24) 
oracle

>  <origin>  (24) 
adg

>  <m_score__min__energy>  (24) 
-15.74

>  <m_primary>  (24) 
energy

$$$$
24:0
     RDKit          3D

 35 36  0  0  0  0  0  0  0  0999 V2000
   55.1450   29.5200   44.8880 N   0  0  0  0  0  0  0  0  0  0  0  0
   56.6460   29.9140   44.1240 S   0  0  0  0  0  0  0  0  0  0  0  0
   56.3800   30.2320   42.6780 O   0  0  0  0  0  0  0  0  0  0  0  0
   57.5660   28.7310   44.2170 O   0  0  0  0  0  0  0  0  0  0  0  0
   57.4060   31.3070   44.9060 C   0  0  0  0  0  0  0  0  0  0  0  0
   56.6460   32.4620   45.1510 C   0  0  0  0  0  0  0  0  0  0  0  0
   57.2270   33.5730   45.7610 C   0  0  0  0  0  0  0  0  0  0  0  0
   58.5670   33.5400   46.1380 C   0  0  0  0  0  0  0  0  0  0  0  0
   59.3390   32.3980   45.9120 C   0  0  0  0  0  0  0  0  0  0  0  0
   60.6260   32.4130   46.3270 F   0  0  0  0  0  0  0  0  0  0  0  0
   58.7660   31.2650   45.2860 C   0  0  0  0  0  0  0  0  0  0  0  0
   59.5090   30.0590   45.0340 N   0  0  0  0  0  0  0  0  0  0  0  0
   60.6130   29.2530   46.1000 S   0  0  0  0  0  0  0  0  0  0  0  0
   61.1770   28.0450   45.4040 O   0  0  0  0  0  0  0  0  0  0  0  0
   61.7330   30.1980   46.4300 O   0  0  0  0  0  0  0  0  0  0  0  0
   59.7730   28.8160   47.5890 C   0  0  0  0  0  0  0  0  0  0  0  0
   59.2800   27.5990   47.8450 C   0  0  0  0  0  0  0  0  0  0  0  0
   58.4250   26.8480   46.9080 C   0  0  0  0  0  0  0  0  0  0  0  0
   57.0460   27.1030   46.8880 C   0  0  0  0  0  0  0  0  0  0  0  0
   56.2120   26.4030   46.0100 C   0  0  0  0  0  0  0  0  0  0  0  0
   54.8500   26.6720   45.9840 O   0  0  0  0  0  0  0  0  0  0  0  0
   56.7500   25.4350   45.1580 C   0  0  0  0  0  0  0  0  0  0  0  0
   58.1190   25.1580   45.1890 C   0  0  0  0  0  0  0  0  0  0  0  0
   58.9620   25.8550   46.0680 C   0  0  0  0  0  0  0  0  0  0  0  0
   60.3220   25.5500   46.1210 O   0  0  0  0  0  0  0  0  0  0  0  0
   55.3340   28.7290   45.5440 H   0  0  0  0  0  0  0  0  0  0  0  0
   55.5856   32.4905   44.8599 H   0  0  0  0  0  0  0  0  0  0  0  0
   56.6264   34.4761   45.9445 H   0  0  0  0  0  0  0  0  0  0  0  0
   59.0210   34.4198   46.6174 H   0  0  0  0  0  0  0  0  0  0  0  0
   59.6466   29.5943   48.3560 H   0  0  0  0  0  0  0  0  0  0  0  0
   59.5268   27.1320   48.8099 H   0  0  0  0  0  0  0  0  0  0  0  0
   56.6185   27.8567   47.5657 H   0  0  0  0  0  0  0  0  0  0  0  0
   56.0949   24.8904   44.4621 H   0  0  0  0  0  0  0  0  0  0  0  0
   58.5378   24.3904   44.5216 H   0  0  0  0  0  0  0  0  0  0  0  0
   61.0280   26.2230   45.8440 H   0  0  0  0  0  0  0  0  0  0  0  0
  1  2  1  0
  2  3  2  0
  2  4  2  0
  2  5  1  0
  5  6  2  0
  6  7  1  0
  7  8  2  0
  8  9  1  0
  9 10  1  0
  9 11  2  0
 11 12  1  0
 12 13  1  0
 13 14  2  0
 13 15  2  0
 13 16  1  0
 16 17  2  3
 17 18  1  0
 18 19  2  0
 19 20  1  0
 20 21  1  0
 20 22  2  0
 22 23  1  0
 23 24  2  0
 24 25  1  0
 11  5  1  0
 24 18  1  0
  1 26  1  0
  6 27  1  0
  7 28  1  0
  8 29  1  0
 16 30  1  0
 17 31  1  0
 19 32  1  0
 22 33  1  0
 23 34  1  0
 25 35  1  0
M  CHG  3   1  -1  12  -1  21  -1
M  END
>  <UniqueID>  (25) 
22

>  <SMILES>  (25) 
[NH-]S(=O)(=O)c1cccc(F)c1[N-]S(=O)(=O)C=Cc1cc([O-])ccc1O

>  <Energy>  (25) 
50.18465212869995

>  <Genealogy>  (25) 
[NH-]S(=O)(=O)c1cccc(F)c1[N-]S(=O)(=O)C=Cc1cc([O-])ccc1O (protonated)
[NH-]S(=O)(=O)c1cccc(F)c1[N-]S(=O)(=O)C=Cc1cc([O-])ccc1O (3D coordinates assigned)
[NH-]S(=O)(=O)c1cccc(F)c1[N-]S(=O)(=O)C=Cc1cc([O-])ccc1O (optimized conformer: 50.18465212869995 kcal/mol)

>  <smiles>  (25) 
NS(=O)(=O)c1cccc(F)c1NS(=O)(=O)C=Cc1cc(O)ccc1O

>  <score_type>  (25) 
oracle

>  <origin>  (25) 
adg

>  <m_score__min__energy>  (25) 
-15.24

>  <m_primary>  (25) 
energy

$$$$
25:0
     RDKit          3D

 48 50  0  0  0  0  0  0  0  0999 V2000
   60.3631   34.4912   51.6350 H   0  0  0  0  0  0  0  0  0  0  0  0
   60.1540   33.7570   50.8430 C   0  0  0  0  0  0  0  0  0  0  0  0
   60.8500   33.8560   49.6910 C   0  0  0  0  0  0  0  0  0  0  0  0
   60.1310   34.1440   48.4190 C   0  0  0  0  0  0  0  0  0  0  0  0
   58.9080   34.4610   48.4480 O   0  0  0  0  0  0  0  0  0  0  0  0
   60.8440   34.0730   47.1140 C   0  0  0  0  0  0  0  0  0  0  0  0
   60.1440   34.1670   45.9640 C   0  0  0  0  0  0  0  0  0  0  0  0
   60.2263   35.0992   45.3859 H   0  0  0  0  0  0  0  0  0  0  0  0
   59.2760   33.1000   45.4330 C   0  0  0  0  0  0  0  0  0  0  0  0
   59.4080   31.7930   45.9200 C   0  0  0  0  0  0  0  0  0  0  0  0
   60.1768   31.5637   46.6725 H   0  0  0  0  0  0  0  0  0  0  0  0
   58.5660   30.7790   45.4530 C   0  0  0  0  0  0  0  0  0  0  0  0
   58.6868   29.7511   45.8256 H   0  0  0  0  0  0  0  0  0  0  0  0
   57.5690   31.0680   44.5120 C   0  0  0  0  0  0  0  0  0  0  0  0
   56.5170   29.7850   43.9200 S   0  0  0  0  0  0  0  0  0  0  0  0
   55.8890   30.2150   42.6250 O   0  0  0  0  0  0  0  0  0  0  0  0
   55.4380   29.5030   44.9280 O   0  0  0  0  0  0  0  0  0  0  0  0
   57.4370   28.3430   43.6670 N   0  0  0  0  0  0  0  0  0  0  0  0
   56.7940   27.6430   43.2340 H   0  0  0  0  0  0  0  0  0  0  0  0
   58.1660   28.5670   42.9520 H   0  0  0  0  0  0  0  0  0  0  0  0
   57.4230   32.3790   44.0380 C   0  0  0  0  0  0  0  0  0  0  0  0
   56.6443   32.6108   43.2965 H   0  0  0  0  0  0  0  0  0  0  0  0
   58.2640   33.3920   44.5050 C   0  0  0  0  0  0  0  0  0  0  0  0
   58.1327   34.4228   44.1440 H   0  0  0  0  0  0  0  0  0  0  0  0
   62.3210   33.7300   47.1140 C   0  0  0  0  0  0  0  0  0  0  0  0
   62.8067   34.2445   46.2717 H   0  0  0  0  0  0  0  0  0  0  0  0
   62.4201   32.6386   47.0186 H   0  0  0  0  0  0  0  0  0  0  0  0
   63.0000   34.1590   48.4150 C   0  0  0  0  0  0  0  0  0  0  0  0
   62.9398   35.2535   48.5069 H   0  0  0  0  0  0  0  0  0  0  0  0
   64.0489   33.8288   48.3852 H   0  0  0  0  0  0  0  0  0  0  0  0
   62.3260   33.5190   49.6290 C   0  0  0  0  0  0  0  0  0  0  0  0
   62.8146   33.8866   50.5434 H   0  0  0  0  0  0  0  0  0  0  0  0
   62.4257   32.4270   49.5415 H   0  0  0  0  0  0  0  0  0  0  0  0
   59.1310   32.7280   51.1090 C   0  0  0  0  0  0  0  0  0  0  0  0
   59.1760   31.4860   50.4600 C   0  0  0  0  0  0  0  0  0  0  0  0
   59.9634   31.2840   49.7190 H   0  0  0  0  0  0  0  0  0  0  0  0
   58.2250   30.5030   50.7500 C   0  0  0  0  0  0  0  0  0  0  0  0
   58.2585   29.5364   50.2260 H   0  0  0  0  0  0  0  0  0  0  0  0
   57.2250   30.7460   51.7100 C   0  0  0  0  0  0  0  0  0  0  0  0
   56.2460   29.7940   52.0350 O   0  0  0  0  0  0  0  0  0  0  0  0
   55.0600   30.0810   52.7670 C   0  0  0  0  0  0  0  0  0  0  0  0
   55.2729   30.0295   53.8450 H   0  0  0  0  0  0  0  0  0  0  0  0
   54.7064   31.0906   52.5109 H   0  0  0  0  0  0  0  0  0  0  0  0
   54.2839   29.3447   52.5109 H   0  0  0  0  0  0  0  0  0  0  0  0
   57.2010   31.9780   52.3740 C   0  0  0  0  0  0  0  0  0  0  0  0
   56.4270   32.1748   53.1305 H   0  0  0  0  0  0  0  0  0  0  0  0
   58.1520   32.9600   52.0840 C   0  0  0  0  0  0  0  0  0  0  0  0
   58.1319   33.9186   52.6232 H   0  0  0  0  0  0  0  0  0  0  0  0
  1  2  1  0
  2  3  2  3
  3  4  1  0
  4  5  2  0
  4  6  1  0
  6  7  2  0
  7  8  1  0
  7  9  1  0
  9 10  2  0
 10 11  1  0
 10 12  1  0
 12 13  1  0
 12 14  2  0
 14 15  1  0
 15 16  2  0
 15 17  2  0
 15 18  1  0
 18 19  1  0
 18 20  1  0
 14 21  1  0
 21 22  1  0
 21 23  2  0
 23 24  1  0
  6 25  1  0
 25 26  1  0
 25 27  1  0
 25 28  1  0
 28 29  1  0
 28 30  1  0
 28 31  1  0
 31 32  1  0
 31 33  1  0
  2 34  1  0
 34 35  2  0
 35 36  1  0
 35 37  1  0
 37 38  1  0
 37 39  2  0
 39 40  1  0
 40 41  1  0
 41 42  1  0
 41 43  1  0
 41 44  1  0
 39 45  1  0
 45 46  1  0
 45 47  2  0
 47 48  1  0
 31  3  1  0
 47 34  1  0
 23  9  1  0
M  END
>  <UniqueID>  (26) 
23

>  <SMILES>  (26) 
COc1ccc(C=C2CCC/C(=C\c3ccc(S(N)(=O)=O)cc3)C2=O)cc1

>  <Energy>  (26) 
63.76680974138628

>  <Genealogy>  (26) 
COc1ccc(C=C2CCC/C(=C\c3ccc(S(N)(=O)=O)cc3)C2=O)cc1 (cis-trans isomerization)
COc1ccc(C=C2CCC/C(=C\c3ccc(S(N)(=O)=O)cc3)C2=O)cc1 (3D coordinates assigned)
COc1ccc(C=C2CCC/C(=C\c3ccc(S(N)(=O)=O)cc3)C2=O)cc1 (nonaromatic ring conformer: 63.76680974138628 kcal/mol)

>  <smiles>  (26) 
COc1ccc(C=C2CCCC(=Cc3ccc(S(N)(=O)=O)cc3)C2=O)cc1

>  <score_type>  (26) 
oracle

>  <origin>  (26) 
adg

>  <m_score__min__energy>  (26) 
-10.4

>  <m_primary>  (26) 
energy

$$$$
26:0
     RDKit          3D

 45 48  0  0  0  0  0  0  0  0999 V2000
   58.7250   29.9240   44.4120 O   0  0  0  0  0  0  0  0  0  0  0  0
   57.7980   29.6720   45.2290 C   0  0  0  0  0  0  0  0  0  0  0  0
   56.7620   28.6520   44.8820 C   0  0  0  0  0  0  0  0  0  0  0  0
   57.0400   27.4000   45.5830 N   0  0  0  0  0  0  0  0  0  0  0  0
   56.1490   26.5100   46.0490 C   0  0  0  0  0  0  0  0  0  0  0  0
   54.7700   26.6720   46.0000 O   0  0  0  0  0  0  0  0  0  0  0  0
   56.8270   25.4240   46.5600 C   0  0  0  0  0  0  0  0  0  0  0  0
   56.2200   24.1710   47.1090 C   0  0  0  0  0  0  0  0  0  0  0  0
   56.6100   22.9980   46.2610 C   0  0  0  0  0  0  0  0  0  0  0  0
   57.3740   21.9070   46.6640 C   0  0  0  0  0  0  0  0  0  0  0  0
   57.6040   21.0790   45.6190 N   0  0  0  0  0  0  0  0  0  0  0  0
   57.0040   21.6440   44.5570 C   0  0  0  0  0  0  0  0  0  0  0  0
   56.9780   21.1660   43.2470 C   0  0  0  0  0  0  0  0  0  0  0  0
   56.2950   21.9280   42.2810 C   0  0  0  0  0  0  0  0  0  0  0  0
   55.6630   23.1380   42.6410 C   0  0  0  0  0  0  0  0  0  0  0  0
   55.7050   23.5970   43.9720 C   0  0  0  0  0  0  0  0  0  0  0  0
   56.3890   22.8200   44.9070 C   0  0  0  0  0  0  0  0  0  0  0  0
   58.1560   25.6050   46.3910 N   0  0  0  0  0  0  0  0  0  0  0  0
   58.2390   26.8160   45.7950 C   0  0  0  0  0  0  0  0  0  0  0  0
   59.3350   27.3390   45.4610 O   0  0  0  0  0  0  0  0  0  0  0  0
   57.7560   30.3220   46.5040 N   0  0  0  0  0  0  0  0  0  0  0  0
   58.8520   31.1200   47.0390 C   0  0  0  0  0  0  0  0  0  0  0  0
   58.8870   32.4730   46.3780 C   0  0  0  0  0  0  0  0  0  0  0  0
   59.9680   33.3470   46.5950 C   0  0  0  0  0  0  0  0  0  0  0  0
   60.0010   34.5950   45.9620 C   0  0  0  0  0  0  0  0  0  0  0  0
   58.9580   34.9780   45.1120 C   0  0  0  0  0  0  0  0  0  0  0  0
   57.8820   34.1110   44.8890 C   0  0  0  0  0  0  0  0  0  0  0  0
   57.8450   32.8620   45.5180 C   0  0  0  0  0  0  0  0  0  0  0  0
   55.7704   29.0239   45.1795 H   0  0  0  0  0  0  0  0  0  0  0  0
   56.7820   28.4710   43.7972 H   0  0  0  0  0  0  0  0  0  0  0  0
   56.5785   24.0126   48.1368 H   0  0  0  0  0  0  0  0  0  0  0  0
   55.1244   24.2696   47.1069 H   0  0  0  0  0  0  0  0  0  0  0  0
   57.7395   21.7411   47.6881 H   0  0  0  0  0  0  0  0  0  0  0  0
   58.1510   20.1900   45.6360 H   0  0  0  0  0  0  0  0  0  0  0  0
   57.4758   20.2229   42.9774 H   0  0  0  0  0  0  0  0  0  0  0  0
   56.2533   21.5786   41.2388 H   0  0  0  0  0  0  0  0  0  0  0  0
   55.1341   23.7264   41.8768 H   0  0  0  0  0  0  0  0  0  0  0  0
   55.2146   24.5372   44.2645 H   0  0  0  0  0  0  0  0  0  0  0  0
   58.7112   31.2493   48.1223 H   0  0  0  0  0  0  0  0  0  0  0  0
   59.8014   30.6011   46.8408 H   0  0  0  0  0  0  0  0  0  0  0  0
   60.7890   33.0489   47.2636 H   0  0  0  0  0  0  0  0  0  0  0  0
   60.8481   35.2755   46.1331 H   0  0  0  0  0  0  0  0  0  0  0  0
   58.9835   35.9609   44.6187 H   0  0  0  0  0  0  0  0  0  0  0  0
   57.0641   34.4123   44.2180 H   0  0  0  0  0  0  0  0  0  0  0  0
   56.9986   32.1826   45.3393 H   0  0  0  0  0  0  0  0  0  0  0  0
  1  2  2  0
  2  3  1  0
  3  4  1  0
  4  5  1  0
  5  6  1  0
  5  7  2  0
  7  8  1  0
  8  9  1  0
  9 10  2  0
 10 11  1  0
 11 12  1  0
 12 13  2  0
 13 14  1  0
 14 15  2  0
 15 16  1  0
 16 17  2  0
  7 18  1  0
 18 19  1  0
 19 20  2  0
  2 21  1  0
 21 22  1  0
 22 23  1  0
 23 24  2  0
 24 25  1  0
 25 26  2  0
 26 27  1  0
 27 28  2  0
 19  4  1  0
 28 23  1  0
 17  9  1  0
 17 12  1  0
  3 29  1  0
  3 30  1  0
  8 31  1  0
  8 32  1  0
 10 33  1  0
 11 34  1  0
 13 35  1  0
 14 36  1  0
 15 37  1  0
 16 38  1  0
 22 39  1  0
 22 40  1  0
 24 41  1  0
 25 42  1  0
 26 43  1  0
 27 44  1  0
 28 45  1  0
M  CHG  3   6  -1  18  -1  21  -1
M  END
>  <UniqueID>  (27) 
24

>  <SMILES>  (27) 
O=C(Cn1c([O-])c(Cc2c[nH]c3ccccc23)[n-]c1=O)[N-]Cc1ccccc1

>  <Energy>  (27) 
107.83679423134691

>  <Genealogy>  (27) 
O=C(Cn1c([O-])c(Cc2c[nH]c3ccccc23)[n-]c1=O)[N-]Cc1ccccc1 (protonated)
O=C(Cn1c([O-])c(Cc2c[nH]c3ccccc23)[n-]c1=O)[N-]Cc1ccccc1 (3D coordinates assigned)
O=C(Cn1c([O-])c(Cc2c[nH]c3ccccc23)[n-]c1=O)[N-]Cc1ccccc1 (optimized conformer: 107.83679423134691 kcal/mol)

>  <smiles>  (27) 
O=C(Cn1c(O)c(Cc2c[nH]c3ccccc23)[nH]c1=O)NCc1ccccc1

>  <score_type>  (27) 
oracle

>  <origin>  (27) 
adg

>  <m_score__min__energy>  (27) 
-15.42

>  <m_primary>  (27) 
energy

$$$$
27:0
     RDKit          3D

 48 50  0  0  0  0  0  0  0  0999 V2000
   55.7650   29.7110   43.3160 C   0  0  0  0  0  0  0  0  0  0  0  0
   55.7690   29.1700   44.6310 O   0  0  0  0  0  0  0  0  0  0  0  0
   56.8980   28.6370   45.2740 C   0  0  0  0  0  0  0  0  0  0  0  0
   56.8490   27.3930   45.9330 C   0  0  0  0  0  0  0  0  0  0  0  0
   57.9590   26.9190   46.6330 C   0  0  0  0  0  0  0  0  0  0  0  0
   59.1280   27.6770   46.6890 C   0  0  0  0  0  0  0  0  0  0  0  0
   59.2000   28.9100   46.0310 C   0  0  0  0  0  0  0  0  0  0  0  0
   60.4000   29.6860   46.0980 N   0  0  0  0  0  0  0  0  0  0  0  0
   60.7830   30.4490   47.2510 C   0  0  0  0  0  0  0  0  0  0  0  0
   60.6460   29.9410   48.3940 O   0  0  0  0  0  0  0  0  0  0  0  0
   61.3980   31.8130   47.1140 C   0  0  0  0  0  0  0  0  0  0  0  0
   62.8230   31.7450   47.5070 N   0  0  0  0  0  0  0  0  0  0  0  0
   63.6650   32.7160   46.7820 C   0  0  0  0  0  0  0  0  0  0  0  0
   63.4240   34.1630   47.2680 C   0  0  0  0  0  0  0  0  0  0  0  0
   62.6080   34.2230   48.4220 O   0  0  0  0  0  0  0  0  0  0  0  0
   63.1140   33.3500   49.4140 C   0  0  0  0  0  0  0  0  0  0  0  0
   63.0080   31.8770   48.9680 C   0  0  0  0  0  0  0  0  0  0  0  0
   58.1000   29.3830   45.2930 C   0  0  0  0  0  0  0  0  0  0  0  0
   58.1900   30.6830   44.6950 N   0  0  0  0  0  0  0  0  0  0  0  0
   57.5030   31.8650   45.1240 C   0  0  0  0  0  0  0  0  0  0  0  0
   56.2740   32.0040   44.8730 O   0  0  0  0  0  0  0  0  0  0  0  0
   58.2420   32.9450   45.8200 C   0  0  0  0  0  0  0  0  0  0  0  0
   58.9080   33.9430   45.0830 C   0  0  0  0  0  0  0  0  0  0  0  0
   59.6000   34.9620   45.7410 C   0  0  0  0  0  0  0  0  0  0  0  0
   59.6450   34.9910   47.1380 C   0  0  0  0  0  0  0  0  0  0  0  0
   58.9950   34.0020   47.8800 C   0  0  0  0  0  0  0  0  0  0  0  0
   58.2910   32.9860   47.2240 C   0  0  0  0  0  0  0  0  0  0  0  0
   55.7569   30.8096   43.3715 H   0  0  0  0  0  0  0  0  0  0  0  0
   56.6656   29.3776   42.7796 H   0  0  0  0  0  0  0  0  0  0  0  0
   54.8694   29.3643   42.7796 H   0  0  0  0  0  0  0  0  0  0  0  0
   55.9291   26.7910   45.8955 H   0  0  0  0  0  0  0  0  0  0  0  0
   57.9118   25.9450   47.1419 H   0  0  0  0  0  0  0  0  0  0  0  0
   59.9964   27.3046   47.2522 H   0  0  0  0  0  0  0  0  0  0  0  0
   61.3199   32.1487   46.0694 H   0  0  0  0  0  0  0  0  0  0  0  0
   60.8684   32.5246   47.7645 H   0  0  0  0  0  0  0  0  0  0  0  0
   64.7225   32.4587   46.9416 H   0  0  0  0  0  0  0  0  0  0  0  0
   63.4016   32.6662   45.7152 H   0  0  0  0  0  0  0  0  0  0  0  0
   64.3960   34.6227   47.5001 H   0  0  0  0  0  0  0  0  0  0  0  0
   62.9012   34.7008   46.4633 H   0  0  0  0  0  0  0  0  0  0  0  0
   64.1704   33.5931   49.6008 H   0  0  0  0  0  0  0  0  0  0  0  0
   62.5181   33.4804   50.3294 H   0  0  0  0  0  0  0  0  0  0  0  0
   63.9310   31.3528   49.2565 H   0  0  0  0  0  0  0  0  0  0  0  0
   62.1268   31.4391   49.4597 H   0  0  0  0  0  0  0  0  0  0  0  0
   58.8831   33.9199   43.9835 H   0  0  0  0  0  0  0  0  0  0  0  0
   60.1107   35.7433   45.1590 H   0  0  0  0  0  0  0  0  0  0  0  0
   60.1929   35.7936   47.6535 H   0  0  0  0  0  0  0  0  0  0  0  0
   59.0365   34.0218   48.9790 H   0  0  0  0  0  0  0  0  0  0  0  0
   57.7723   32.2140   47.8113 H   0  0  0  0  0  0  0  0  0  0  0  0
  1  2  1  0
  2  3  1  0
  3  4  2  0
  4  5  1  0
  5  6  2  0
  6  7  1  0
  7  8  1  0
  8  9  1  0
  9 10  2  0
  9 11  1  0
 11 12  1  0
 12 13  1  0
 13 14  1  0
 14 15  1  0
 15 16  1  0
 16 17  1  0
  7 18  2  0
 18 19  1  0
 19 20  1  0
 20 21  2  0
 20 22  1  0
 22 23  2  0
 23 24  1  0
 24 25  2  0
 25 26  1  0
 26 27  2  0
 18  3  1  0
 27 22  1  0
 17 12  1  0
  1 28  1  0
  1 29  1  0
  1 30  1  0
  4 31  1  0
  5 32  1  0
  6 33  1  0
 11 34  1  0
 11 35  1  0
 13 36  1  0
 13 37  1  0
 14 38  1  0
 14 39  1  0
 16 40  1  0
 16 41  1  0
 17 42  1  0
 17 43  1  0
 23 44  1  0
 24 45  1  0
 25 46  1  0
 26 47  1  0
 27 48  1  0
M  CHG  2   8  -1  19  -1
M  END
>  <UniqueID>  (28) 
25

>  <SMILES>  (28) 
COc1cccc([N-]C(=O)CN2CCOCC2)c1[N-]C(=O)c1ccccc1

>  <Energy>  (28) 
71.5042338783304

>  <Genealogy>  (28) 
COc1cccc([N-]C(=O)CN2CCOCC2)c1[N-]C(=O)c1ccccc1 (protonated)
COc1cccc([N-]C(=O)CN2CCOCC2)c1[N-]C(=O)c1ccccc1 (3D coordinates assigned)
COc1cccc([N-]C(=O)CN2CCOCC2)c1[N-]C(=O)c1ccccc1 (nonaromatic ring conformer: 71.5042338783304 kcal/mol)

>  <smiles>  (28) 
COc1cccc(NC(=O)CN2CCOCC2)c1NC(=O)c1ccccc1

>  <score_type>  (28) 
oracle

>  <origin>  (28) 
adg

>  <m_score__min__energy>  (28) 
-11.970000000000001

>  <m_primary>  (28) 
energy

$$$$
28:0
     RDKit          3D

 39 41  0  0  0  0  0  0  0  0999 V2000
   59.4870   27.4050   45.4000 O   0  0  0  0  0  0  0  0  0  0  0  0
   58.3130   26.9530   45.3280 C   0  0  0  0  0  0  0  0  0  0  0  0
   58.0390   25.5570   45.8010 C   0  0  0  0  0  0  0  0  0  0  0  0
   56.5710   25.2590   45.6770 C   0  0  0  0  0  0  0  0  0  0  0  0
   55.6640   26.1720   46.1170 N   0  0  0  0  0  0  0  0  0  0  0  0
   54.3530   25.9670   45.9900 N   0  0  0  0  0  0  0  0  0  0  0  0
   53.8810   24.8350   45.4060 C   0  0  0  0  0  0  0  0  0  0  0  0
   52.6420   24.6530   45.2940 O   0  0  0  0  0  0  0  0  0  0  0  0
   54.7520   23.9060   44.9420 N   0  0  0  0  0  0  0  0  0  0  0  0
   56.0900   24.0920   45.0600 C   0  0  0  0  0  0  0  0  0  0  0  0
   56.8810   23.2190   44.6130 O   0  0  0  0  0  0  0  0  0  0  0  0
   57.2300   27.7880   44.8920 N   0  0  0  0  0  0  0  0  0  0  0  0
   57.3320   29.2160   44.8100 C   0  0  0  0  0  0  0  0  0  0  0  0
   56.9880   29.9070   43.6400 C   0  0  0  0  0  0  0  0  0  0  0  0
   57.1230   31.2960   43.5800 C   0  0  0  0  0  0  0  0  0  0  0  0
   57.6080   32.0120   44.6810 C   0  0  0  0  0  0  0  0  0  0  0  0
   57.8320   33.7500   44.5040 Cl  0  0  0  0  0  0  0  0  0  0  0  0
   57.9470   31.3280   45.8700 C   0  0  0  0  0  0  0  0  0  0  0  0
   58.4950   32.0330   47.0540 C   0  0  0  0  0  0  0  0  0  0  0  0
   57.8600   33.0000   47.5510 O   0  0  0  0  0  0  0  0  0  0  0  0
   59.6920   31.5890   47.7080 N   0  0  0  0  0  0  0  0  0  0  0  0
   61.0080   32.1310   47.5170 C   0  0  0  0  0  0  0  0  0  0  0  0
   62.1510   31.5030   48.0480 C   0  0  0  0  0  0  0  0  0  0  0  0
   63.4170   32.0620   47.8490 C   0  0  0  0  0  0  0  0  0  0  0  0
   63.5550   33.2380   47.1070 C   0  0  0  0  0  0  0  0  0  0  0  0
   62.4260   33.8530   46.5580 C   0  0  0  0  0  0  0  0  0  0  0  0
   61.1590   33.2970   46.7550 C   0  0  0  0  0  0  0  0  0  0  0  0
   57.7740   29.9330   45.9260 C   0  0  0  0  0  0  0  0  0  0  0  0
   58.6098   24.8444   45.1875 H   0  0  0  0  0  0  0  0  0  0  0  0
   58.3420   25.4632   46.8543 H   0  0  0  0  0  0  0  0  0  0  0  0
   56.2710   27.3710   44.8770 H   0  0  0  0  0  0  0  0  0  0  0  0
   56.6108   29.3541   42.7670 H   0  0  0  0  0  0  0  0  0  0  0  0
   56.8460   31.8317   42.6601 H   0  0  0  0  0  0  0  0  0  0  0  0
   62.0476   30.5698   48.6211 H   0  0  0  0  0  0  0  0  0  0  0  0
   64.3057   31.5753   48.2772 H   0  0  0  0  0  0  0  0  0  0  0  0
   64.5510   33.6794   46.9550 H   0  0  0  0  0  0  0  0  0  0  0  0
   62.5350   34.7762   45.9699 H   0  0  0  0  0  0  0  0  0  0  0  0
   60.2755   33.7775   46.3094 H   0  0  0  0  0  0  0  0  0  0  0  0
   57.9899   29.3979   46.8625 H   0  0  0  0  0  0  0  0  0  0  0  0
  1  2  2  0
  2  3  1  0
  3  4  1  0
  4  5  2  0
  5  6  1  0
  6  7  1  0
  7  8  2  0
  7  9  1  0
  9 10  1  0
 10 11  2  0
  2 12  1  0
 12 13  1  0
 13 14  2  0
 14 15  1  0
 15 16  2  0
 16 17  1  0
 16 18  1  0
 18 19  1  0
 19 20  2  0
 19 21  1  0
 21 22  1  0
 22 23  2  0
 23 24  1  0
 24 25  2  0
 25 26  1  0
 26 27  2  0
 18 28  2  0
 10  4  1  0
 28 13  1  0
 27 22  1  0
  3 29  1  0
  3 30  1  0
 12 31  1  0
 14 32  1  0
 15 33  1  0
 23 34  1  0
 24 35  1  0
 25 36  1  0
 26 37  1  0
 27 38  1  0
 28 39  1  0
M  CHG  3   6  -1   9  -1  21  -1
M  END
>  <UniqueID>  (29) 
26

>  <SMILES>  (29) 
O=C(Cc1n[n-]c(=O)[n-]c1=O)Nc1ccc(Cl)c(C(=O)[N-]c2ccccc2)c1

>  <Energy>  (29) 
53.653073267402135

>  <Genealogy>  (29) 
O=C(Cc1n[n-]c(=O)[n-]c1=O)Nc1ccc(Cl)c(C(=O)[N-]c2ccccc2)c1 (protonated)
O=C(Cc1n[n-]c(=O)[n-]c1=O)Nc1ccc(Cl)c(C(=O)[N-]c2ccccc2)c1 (3D coordinates assigned)
O=C(Cc1n[n-]c(=O)[n-]c1=O)Nc1ccc(Cl)c(C(=O)[N-]c2ccccc2)c1 (optimized conformer: 53.653073267402135 kcal/mol)

>  <smiles>  (29) 
O=C(Cc1n[nH]c(=O)[nH]c1=O)Nc1ccc(Cl)c(C(=O)Nc2ccccc2)c1

>  <score_type>  (29) 
oracle

>  <origin>  (29) 
adg

>  <m_score__min__energy>  (29) 
-14.720000000000001

>  <m_primary>  (29) 
energy

$$$$
29:0
     RDKit          3D

 65 68  0  0  0  0  0  0  0  0999 V2000
   63.3990   33.7920   46.7350 C   0  0  0  0  0  0  0  0  0  0  0  0
   64.0070   32.9970   47.8860 C   0  0  0  0  0  0  0  0  0  0  0  0
   64.0000   33.7830   49.1160 N   0  0  0  0  0  0  0  0  0  0  0  0
   63.2750   33.4160   50.2920 C   0  0  0  0  0  0  0  0  0  0  0  0
   63.8960   33.2980   51.3800 O   0  0  0  0  0  0  0  0  0  0  0  0
   61.8470   33.2750   50.2390 N   0  0  0  0  0  0  0  0  0  0  0  0
   61.0010   33.3500   49.0800 C   0  0  0  0  0  0  0  0  0  0  0  0
   60.3920   34.5770   48.7840 C   0  0  0  0  0  0  0  0  0  0  0  0
   59.5480   34.7040   47.6790 C   0  0  0  0  0  0  0  0  0  0  0  0
   59.3100   33.6020   46.8450 C   0  0  0  0  0  0  0  0  0  0  0  0
   58.1700   33.7150   45.5070 S   0  0  0  0  0  0  0  0  0  0  0  0
   56.7540   33.5580   45.9920 O   0  0  0  0  0  0  0  0  0  0  0  0
   58.3140   35.0650   44.8600 O   0  0  0  0  0  0  0  0  0  0  0  0
   58.5130   32.4770   44.3420 N   0  0  0  0  0  0  0  0  0  0  0  0
   58.1410   31.0970   44.4790 C   0  0  0  0  0  0  0  0  0  0  0  0
   59.1510   30.1280   44.5340 C   0  0  0  0  0  0  0  0  0  0  0  0
   58.8310   28.7780   44.7050 C   0  0  0  0  0  0  0  0  0  0  0  0
   57.4910   28.3810   44.8210 C   0  0  0  0  0  0  0  0  0  0  0  0
   57.1530   26.9580   44.9780 C   0  0  0  0  0  0  0  0  0  0  0  0
   56.9600   26.3780   46.1680 C   0  0  0  0  0  0  0  0  0  0  0  0
   58.0990   25.2450   46.8950 S   0  0  0  0  0  0  0  0  0  0  0  0
   57.5190   24.7290   48.1820 O   0  0  0  0  0  0  0  0  0  0  0  0
   58.3370   24.0960   45.9570 O   0  0  0  0  0  0  0  0  0  0  0  0
   59.5880   26.0680   47.2260 N   0  0  0  0  0  0  0  0  0  0  0  0
   59.7390   27.1600   48.1420 C   0  0  0  0  0  0  0  0  0  0  0  0
   58.9620   28.3110   47.9510 C   0  0  0  0  0  0  0  0  0  0  0  0
   59.0590   29.3890   48.8380 C   0  0  0  0  0  0  0  0  0  0  0  0
   59.9620   29.3420   49.9170 C   0  0  0  0  0  0  0  0  0  0  0  0
   60.0870   30.3830   50.8490 O   0  0  0  0  0  0  0  0  0  0  0  0
   59.0500   31.1800   51.3540 C   0  0  0  0  0  0  0  0  0  0  0  0
   59.3550   32.4880   51.7500 C   0  0  0  0  0  0  0  0  0  0  0  0
   58.3600   33.3190   52.2800 C   0  0  0  0  0  0  0  0  0  0  0  0
   57.0460   32.8510   52.3980 C   0  0  0  0  0  0  0  0  0  0  0  0
   56.7250   31.5590   51.9690 C   0  0  0  0  0  0  0  0  0  0  0  0
   57.7190   30.7290   51.4320 C   0  0  0  0  0  0  0  0  0  0  0  0
   60.7310   28.1900   50.1090 C   0  0  0  0  0  0  0  0  0  0  0  0
   60.6240   27.1040   49.2330 C   0  0  0  0  0  0  0  0  0  0  0  0
   56.4740   29.3460   44.7640 C   0  0  0  0  0  0  0  0  0  0  0  0
   55.1400   28.9750   44.8860 O   0  0  0  0  0  0  0  0  0  0  0  0
   56.7980   30.6930   44.5800 C   0  0  0  0  0  0  0  0  0  0  0  0
   59.9520   32.3840   47.1080 C   0  0  0  0  0  0  0  0  0  0  0  0
   60.8000   32.2580   48.2150 C   0  0  0  0  0  0  0  0  0  0  0  0
   62.7774   34.6048   47.1388 H   0  0  0  0  0  0  0  0  0  0  0  0
   64.2040   34.2179   46.1181 H   0  0  0  0  0  0  0  0  0  0  0  0
   62.7771   33.1267   46.1181 H   0  0  0  0  0  0  0  0  0  0  0  0
   63.4205   32.0793   48.0405 H   0  0  0  0  0  0  0  0  0  0  0  0
   65.0476   32.7466   47.6321 H   0  0  0  0  0  0  0  0  0  0  0  0
   60.5807   35.4483   49.4284 H   0  0  0  0  0  0  0  0  0  0  0  0
   59.0689   35.6702   47.4622 H   0  0  0  0  0  0  0  0  0  0  0  0
   60.2042   30.4317   44.4419 H   0  0  0  0  0  0  0  0  0  0  0  0
   59.6321   28.0254   44.7487 H   0  0  0  0  0  0  0  0  0  0  0  0
   57.0541   26.3407   44.0729 H   0  0  0  0  0  0  0  0  0  0  0  0
   56.0416   26.6209   46.7226 H   0  0  0  0  0  0  0  0  0  0  0  0
   58.2707   28.3673   47.0972 H   0  0  0  0  0  0  0  0  0  0  0  0
   58.4268   30.2772   48.6915 H   0  0  0  0  0  0  0  0  0  0  0  0
   60.3828   32.8653   51.6441 H   0  0  0  0  0  0  0  0  0  0  0  0
   58.6112   34.3399   52.6037 H   0  0  0  0  0  0  0  0  0  0  0  0
   56.2672   33.4983   52.8274 H   0  0  0  0  0  0  0  0  0  0  0  0
   55.6909   31.1936   52.0531 H   0  0  0  0  0  0  0  0  0  0  0  0
   57.4582   29.7232   51.0709 H   0  0  0  0  0  0  0  0  0  0  0  0
   61.4280   28.1368   50.9583 H   0  0  0  0  0  0  0  0  0  0  0  0
   61.2341   26.2038   49.3985 H   0  0  0  0  0  0  0  0  0  0  0  0
   55.9961   31.4430   44.5137 H   0  0  0  0  0  0  0  0  0  0  0  0
   59.7889   31.5238   46.4421 H   0  0  0  0  0  0  0  0  0  0  0  0
   61.3104   31.3031   48.4092 H   0  0  0  0  0  0  0  0  0  0  0  0
  1  2  1  0
  2  3  1  0
  3  4  1  0
  4  5  2  0
  4  6  1  0
  6  7  1  0
  7  8  2  0
  8  9  1  0
  9 10  2  0
 10 11  1  0
 11 12  2  0
 11 13  2  0
 11 14  1  0
 14 15  1  0
 15 16  2  0
 16 17  1  0
 17 18  2  0
 18 19  1  0
 19 20  2  3
 20 21  1  0
 21 22  2  0
 21 23  2  0
 21 24  1  0
 24 25  1  0
 25 26  2  0
 26 27  1  0
 27 28  2  0
 28 29  1  0
 29 30  1  0
 30 31  2  0
 31 32  1  0
 32 33  2  0
 33 34  1  0
 34 35  2  0
 28 36  1  0
 36 37  2  0
 18 38  1  0
 38 39  1  0
 38 40  2  0
 10 41  1  0
 41 42  2  0
 42  7  1  0
 40 15  1  0
 37 25  1  0
 35 30  1  0
  1 43  1  0
  1 44  1  0
  1 45  1  0
  2 46  1  0
  2 47  1  0
  8 48  1  0
  9 49  1  0
 16 50  1  0
 17 51  1  0
 19 52  1  0
 20 53  1  0
 26 54  1  0
 27 55  1  0
 31 56  1  0
 32 57  1  0
 33 58  1  0
 34 59  1  0
 35 60  1  0
 36 61  1  0
 37 62  1  0
 40 63  1  0
 41 64  1  0
 42 65  1  0
M  CHG  5   3  -1   6  -1  14  -1  24  -1  39  -1
M  END
>  <UniqueID>  (30) 
27

>  <SMILES>  (30) 
CC[N-]C(=O)[N-]c1ccc(S(=O)(=O)[N-]c2ccc(C=CS(=O)(=O)[N-]c3ccc(Oc4ccccc4)cc3)c([O-])c2)cc1

>  <Energy>  (30) 
89.66304093774072

>  <Genealogy>  (30) 
CC[N-]C(=O)[N-]c1ccc(S(=O)(=O)[N-]c2ccc(C=CS(=O)(=O)[N-]c3ccc(Oc4ccccc4)cc3)c([O-])c2)cc1 (protonated)
CC[N-]C(=O)[N-]c1ccc(S(=O)(=O)[N-]c2ccc(C=CS(=O)(=O)[N-]c3ccc(Oc4ccccc4)cc3)c([O-])c2)cc1 (3D coordinates assigned)
CC[N-]C(=O)[N-]c1ccc(S(=O)(=O)[N-]c2ccc(C=CS(=O)(=O)[N-]c3ccc(Oc4ccccc4)cc3)c([O-])c2)cc1 (optimized conformer: 89.66304093774072 kcal/mol)

>  <smiles>  (30) 
CCNC(=O)Nc1ccc(S(=O)(=O)Nc2ccc(C=CS(=O)(=O)Nc3ccc(Oc4ccccc4)cc3)c(O)c2)cc1

>  <score_type>  (30) 
oracle

>  <origin>  (30) 
adg

>  <m_score__min__energy>  (30) 
-19.109999999999999

>  <m_primary>  (30) 
energy

$$$$
30:0
     RDKit          3D

 77 81  0  0  0  0  0  0  0  0999 V2000
   55.5800   30.4250   44.4610 O   0  0  0  0  0  0  0  0  0  0  0  0
   56.7380   29.9280   44.3800 C   0  0  0  0  0  0  0  0  0  0  0  0
   57.0420   28.7790   45.1800 N   0  0  0  0  0  0  0  0  0  0  0  0
   58.6370   28.3340   45.6930 S   0  0  0  0  0  0  0  0  0  0  0  0
   58.6380   26.8910   46.1110 O   0  0  0  0  0  0  0  0  0  0  0  0
   59.5930   28.5080   44.5450 O   0  0  0  0  0  0  0  0  0  0  0  0
   59.1210   29.3200   47.0690 C   0  0  0  0  0  0  0  0  0  0  0  0
   59.9160   30.4580   46.8920 C   0  0  0  0  0  0  0  0  0  0  0  0
   60.2710   31.2450   47.9910 C   0  0  0  0  0  0  0  0  0  0  0  0
   59.8440   30.9010   49.2850 C   0  0  0  0  0  0  0  0  0  0  0  0
   60.2130   31.7170   50.4140 N   0  0  0  0  0  0  0  0  0  0  0  0
   59.6430   33.0270   50.7350 C   0  0  0  0  0  0  0  0  0  0  0  0
   60.2650   33.4430   52.0920 C   0  0  0  0  0  0  0  0  0  0  0  0
   61.2350   32.4040   52.4130 N   0  0  0  0  0  0  0  0  0  0  0  0
   62.0910   32.3800   53.5970 C   0  0  0  0  0  0  0  0  0  0  0  0
   63.4420   31.7410   53.2610 C   0  0  0  0  0  0  0  0  0  0  0  0
   64.5940   32.7410   53.4390 C   0  0  0  0  0  0  0  0  0  0  0  0
   65.8650   32.2480   52.8540 N   0  0  0  0  0  0  0  0  0  0  0  0
   65.6430   31.0570   51.9950 C   0  0  0  0  0  0  0  0  0  0  0  0
   65.4890   31.3830   50.4910 C   0  0  0  0  0  0  0  0  0  0  0  0
   65.0990   32.7840   50.2910 N   0  0  0  0  0  0  0  0  0  0  0  0
   64.0550   33.1330   49.3640 C   0  0  0  0  0  0  0  0  0  0  0  0
   64.0830   32.6390   48.0490 C   0  0  0  0  0  0  0  0  0  0  0  0
   63.0740   32.9790   47.1430 C   0  0  0  0  0  0  0  0  0  0  0  0
   62.0300   33.8160   47.5390 C   0  0  0  0  0  0  0  0  0  0  0  0
   61.9960   34.3220   48.8400 C   0  0  0  0  0  0  0  0  0  0  0  0
   63.0070   33.9910   49.7510 C   0  0  0  0  0  0  0  0  0  0  0  0
   62.9740   34.5340   51.0320 O   0  0  0  0  0  0  0  0  0  0  0  0
   65.8930   33.8390   50.9300 C   0  0  0  0  0  0  0  0  0  0  0  0
   66.6500   33.2840   52.1440 C   0  0  0  0  0  0  0  0  0  0  0  0
   61.1620   31.4070   51.4170 C   0  0  0  0  0  0  0  0  0  0  0  0
   61.8940   30.3810   51.4040 O   0  0  0  0  0  0  0  0  0  0  0  0
   59.0300   29.7660   49.4520 C   0  0  0  0  0  0  0  0  0  0  0  0
   58.6770   28.9800   48.3520 C   0  0  0  0  0  0  0  0  0  0  0  0
   57.7530   30.5560   43.5660 N   0  0  0  0  0  0  0  0  0  0  0  0
   57.5000   31.9910   43.3620 C   0  0  0  0  0  0  0  0  0  0  0  0
   57.9650   32.7800   44.5590 C   0  0  0  0  0  0  0  0  0  0  0  0
   58.9200   33.8000   44.4030 C   0  0  0  0  0  0  0  0  0  0  0  0
   59.3200   34.5640   45.5050 C   0  0  0  0  0  0  0  0  0  0  0  0
   58.7620   34.3250   46.7630 C   0  0  0  0  0  0  0  0  0  0  0  0
   57.7980   33.3240   46.9220 C   0  0  0  0  0  0  0  0  0  0  0  0
   57.3940   32.5580   45.8240 C   0  0  0  0  0  0  0  0  0  0  0  0
   60.2624   30.7338   45.8851 H   0  0  0  0  0  0  0  0  0  0  0  0
   60.8902   32.1418   47.8418 H   0  0  0  0  0  0  0  0  0  0  0  0
   59.9028   33.7582   49.9554 H   0  0  0  0  0  0  0  0  0  0  0  0
   58.5452   32.9858   50.7909 H   0  0  0  0  0  0  0  0  0  0  0  0
   60.7635   34.4195   52.0027 H   0  0  0  0  0  0  0  0  0  0  0  0
   59.5006   33.5429   52.8767 H   0  0  0  0  0  0  0  0  0  0  0  0
   62.2536   33.4095   53.9486 H   0  0  0  0  0  0  0  0  0  0  0  0
   61.5996   31.7876   54.3829 H   0  0  0  0  0  0  0  0  0  0  0  0
   63.6074   30.8819   53.9278 H   0  0  0  0  0  0  0  0  0  0  0  0
   63.4213   31.4200   52.2091 H   0  0  0  0  0  0  0  0  0  0  0  0
   64.3212   33.6859   52.9462 H   0  0  0  0  0  0  0  0  0  0  0  0
   64.7532   32.8812   54.5183 H   0  0  0  0  0  0  0  0  0  0  0  0
   66.5011   30.3794   52.1155 H   0  0  0  0  0  0  0  0  0  0  0  0
   64.6949   30.6038   52.3200 H   0  0  0  0  0  0  0  0  0  0  0  0
   66.4481   31.2012   49.9840 H   0  0  0  0  0  0  0  0  0  0  0  0
   64.7021   30.7382   50.0726 H   0  0  0  0  0  0  0  0  0  0  0  0
   64.9043   31.9803   47.7302 H   0  0  0  0  0  0  0  0  0  0  0  0
   63.1031   32.5860   46.1160 H   0  0  0  0  0  0  0  0  0  0  0  0
   61.2339   34.0772   46.8263 H   0  0  0  0  0  0  0  0  0  0  0  0
   61.1729   34.9824   49.1503 H   0  0  0  0  0  0  0  0  0  0  0  0
   66.6168   34.2371   50.2036 H   0  0  0  0  0  0  0  0  0  0  0  0
   65.2159   34.6371   51.2685 H   0  0  0  0  0  0  0  0  0  0  0  0
   67.5968   32.8411   51.8014 H   0  0  0  0  0  0  0  0  0  0  0  0
   66.8322   34.1140   52.8425 H   0  0  0  0  0  0  0  0  0  0  0  0
   58.6690   29.4954   50.4552 H   0  0  0  0  0  0  0  0  0  0  0  0
   58.0471   28.0897   48.4951 H   0  0  0  0  0  0  0  0  0  0  0  0
   58.6770   30.4320   44.0430 H   0  0  0  0  0  0  0  0  0  0  0  0
   57.7790   30.0910   42.6300 H   0  0  0  0  0  0  0  0  0  0  0  0
   58.0443   32.3320   42.4690 H   0  0  0  0  0  0  0  0  0  0  0  0
   56.4196   32.1481   43.2279 H   0  0  0  0  0  0  0  0  0  0  0  0
   59.3540   33.9980   43.4118 H   0  0  0  0  0  0  0  0  0  0  0  0
   60.0751   35.3541   45.3804 H   0  0  0  0  0  0  0  0  0  0  0  0
   59.0807   34.9241   47.6288 H   0  0  0  0  0  0  0  0  0  0  0  0
   57.3569   33.1390   47.9126 H   0  0  0  0  0  0  0  0  0  0  0  0
   56.6272   31.7796   45.9507 H   0  0  0  0  0  0  0  0  0  0  0  0
  1  2  2  0
  2  3  1  0
  3  4  1  0
  4  5  2  0
  4  6  2  0
  4  7  1  0
  7  8  2  0
  8  9  1  0
  9 10  2  0
 10 11  1  0
 11 12  1  0
 12 13  1  0
 13 14  1  0
 14 15  1  0
 15 16  1  0
 16 17  1  0
 17 18  1  0
 18 19  1  0
 19 20  1  0
 20 21  1  0
 21 22  1  0
 22 23  2  0
 23 24  1  0
 24 25  2  0
 25 26  1  0
 26 27  2  0
 27 28  1  0
 21 29  1  0
 29 30  1  0
 14 31  1  0
 31 32  2  0
 10 33  1  0
 33 34  2  0
  2 35  1  0
 35 36  1  0
 36 37  1  0
 37 38  2  0
 38 39  1  0
 39 40  2  0
 40 41  1  0
 41 42  2  0
 34  7  1  0
 42 37  1  0
 31 11  1  0
 30 18  1  0
 27 22  1  0
  8 43  1  0
  9 44  1  0
 12 45  1  0
 12 46  1  0
 13 47  1  0
 13 48  1  0
 15 49  1  0
 15 50  1  0
 16 51  1  0
 16 52  1  0
 17 53  1  0
 17 54  1  0
 19 55  1  0
 19 56  1  0
 20 57  1  0
 20 58  1  0
 23 59  1  0
 24 60  1  0
 25 61  1  0
 26 62  1  0
 29 63  1  0
 29 64  1  0
 30 65  1  0
 30 66  1  0
 33 67  1  0
 34 68  1  0
 35 69  1  0
 35 70  1  0
 36 71  1  0
 36 72  1  0
 38 73  1  0
 39 74  1  0
 40 75  1  0
 41 76  1  0
 42 77  1  0
M  CHG  3   3  -1  28  -1  35   1
M  END
>  <UniqueID>  (31) 
28

>  <SMILES>  (31) 
O=C([N-]S(=O)(=O)c1ccc(N2CCN(CCCN3CCN(c4ccccc4[O-])CC3)C2=O)cc1)[NH2+]Cc1ccccc1

>  <Energy>  (31) 
109.91856462598689

>  <Genealogy>  (31) 
O=C([N-]S(=O)(=O)c1ccc(N2CCN(CCCN3CCN(c4ccccc4[O-])CC3)C2=O)cc1)[NH2+]Cc1ccccc1 (protonated)
O=C([N-]S(=O)(=O)c1ccc(N2CCN(CCCN3CCN(c4ccccc4[O-])CC3)C2=O)cc1)[NH2+]Cc1ccccc1 (3D coordinates assigned)
O=C([N-]S(=O)(=O)c1ccc(N2CCN(CCCN3CCN(c4ccccc4[O-])CC3)C2=O)cc1)[NH2+]Cc1ccccc1 (nonaromatic ring conformer: 109.91856462598689 kcal/mol)

>  <smiles>  (31) 
O=C(NCc1ccccc1)NS(=O)(=O)c1ccc(N2CCN(CCCN3CCN(c4ccccc4O)CC3)C2=O)cc1

>  <score_type>  (31) 
oracle

>  <origin>  (31) 
adg

>  <m_score__min__energy>  (31) 
-14.15

>  <m_primary>  (31) 
energy

$$$$
31:0
     RDKit          3D

 44 46  0  0  0  0  0  0  0  0999 V2000
   54.9850   29.3890   44.0860 O   0  0  0  0  0  0  0  0  0  0  0  0
   56.1750   29.4270   44.5010 C   0  0  0  0  0  0  0  0  0  0  0  0
   57.1080   28.3030   44.1800 C   0  0  0  0  0  0  0  0  0  0  0  0
   57.4180   27.5190   45.4230 C   0  0  0  0  0  0  0  0  0  0  0  0
   56.5110   26.8030   46.1750 C   0  0  0  0  0  0  0  0  0  0  0  0
   55.1450   26.7280   45.9380 O   0  0  0  0  0  0  0  0  0  0  0  0
   57.1280   26.1670   47.1880 N   0  0  0  0  0  0  0  0  0  0  0  0
   58.4230   26.5100   47.0200 C   0  0  0  0  0  0  0  0  0  0  0  0
   59.3380   26.1090   47.7860 O   0  0  0  0  0  0  0  0  0  0  0  0
   58.6420   27.3170   45.9570 N   0  0  0  0  0  0  0  0  0  0  0  0
   59.9290   27.8830   45.5380 C   0  0  0  0  0  0  0  0  0  0  0  0
   59.9380   29.4090   45.6920 C   0  0  0  0  0  0  0  0  0  0  0  0
   60.4760   29.8280   47.0350 C   0  0  0  0  0  0  0  0  0  0  0  0
   61.4970   30.7890   47.1210 C   0  0  0  0  0  0  0  0  0  0  0  0
   61.9570   31.2190   48.3700 C   0  0  0  0  0  0  0  0  0  0  0  0
   61.3990   30.6960   49.5390 C   0  0  0  0  0  0  0  0  0  0  0  0
   60.3800   29.7430   49.4630 C   0  0  0  0  0  0  0  0  0  0  0  0
   59.9170   29.3100   48.2160 C   0  0  0  0  0  0  0  0  0  0  0  0
   56.6510   30.5560   45.2400 N   0  0  0  0  0  0  0  0  0  0  0  0
   57.3560   31.6790   44.6350 C   0  0  0  0  0  0  0  0  0  0  0  0
   58.2010   32.3800   45.6630 C   0  0  0  0  0  0  0  0  0  0  0  0
   58.0800   32.0400   47.0220 C   0  0  0  0  0  0  0  0  0  0  0  0
   58.8440   32.7050   47.9850 C   0  0  0  0  0  0  0  0  0  0  0  0
   59.7310   33.7160   47.6020 C   0  0  0  0  0  0  0  0  0  0  0  0
   60.6870   34.5520   48.8140 Cl  0  0  0  0  0  0  0  0  0  0  0  0
   59.8520   34.0640   46.2520 C   0  0  0  0  0  0  0  0  0  0  0  0
   59.0900   33.4000   45.2850 C   0  0  0  0  0  0  0  0  0  0  0  0
   56.6374   27.6397   43.4393 H   0  0  0  0  0  0  0  0  0  0  0  0
   58.0425   28.7159   43.7722 H   0  0  0  0  0  0  0  0  0  0  0  0
   60.7292   27.4546   46.1594 H   0  0  0  0  0  0  0  0  0  0  0  0
   60.0895   27.6381   44.4777 H   0  0  0  0  0  0  0  0  0  0  0  0
   60.5695   29.8436   44.9032 H   0  0  0  0  0  0  0  0  0  0  0  0
   58.9019   29.7691   45.6090 H   0  0  0  0  0  0  0  0  0  0  0  0
   61.9365   31.2050   46.2024 H   0  0  0  0  0  0  0  0  0  0  0  0
   62.7588   31.9696   48.4318 H   0  0  0  0  0  0  0  0  0  0  0  0
   61.7622   31.0348   50.5205 H   0  0  0  0  0  0  0  0  0  0  0  0
   59.9414   29.3328   50.3846 H   0  0  0  0  0  0  0  0  0  0  0  0
   59.1128   28.5616   48.1595 H   0  0  0  0  0  0  0  0  0  0  0  0
   58.0022   31.3082   43.8257 H   0  0  0  0  0  0  0  0  0  0  0  0
   56.6188   32.3896   44.2330 H   0  0  0  0  0  0  0  0  0  0  0  0
   57.3813   31.2476   47.3284 H   0  0  0  0  0  0  0  0  0  0  0  0
   58.7474   32.4326   49.0464 H   0  0  0  0  0  0  0  0  0  0  0  0
   60.5476   34.8611   45.9507 H   0  0  0  0  0  0  0  0  0  0  0  0
   59.1872   33.6774   44.2250 H   0  0  0  0  0  0  0  0  0  0  0  0
  1  2  2  0
  2  3  1  0
  3  4  1  0
  4  5  2  0
  5  6  1  0
  5  7  1  0
  7  8  1  0
  8  9  2  0
  8 10  1  0
 10 11  1  0
 11 12  1  0
 12 13  1  0
 13 14  2  0
 14 15  1  0
 15 16  2  0
 16 17  1  0
 17 18  2  0
  2 19  1  0
 19 20  1  0
 20 21  1  0
 21 22  2  0
 22 23  1  0
 23 24  2  0
 24 25  1  0
 24 26  1  0
 26 27  2  0
 10  4  1  0
 18 13  1  0
 27 21  1  0
  3 28  1  0
  3 29  1  0
 11 30  1  0
 11 31  1  0
 12 32  1  0
 12 33  1  0
 14 34  1  0
 15 35  1  0
 16 36  1  0
 17 37  1  0
 18 38  1  0
 20 39  1  0
 20 40  1  0
 22 41  1  0
 23 42  1  0
 26 43  1  0
 27 44  1  0
M  CHG  3   6  -1   7  -1  19  -1
M  END
>  <UniqueID>  (32) 
29

>  <SMILES>  (32) 
O=C(Cc1c([O-])[n-]c(=O)n1CCc1ccccc1)[N-]Cc1ccc(Cl)cc1

>  <Energy>  (32) 
68.59636956303738

>  <Genealogy>  (32) 
O=C(Cc1c([O-])[n-]c(=O)n1CCc1ccccc1)[N-]Cc1ccc(Cl)cc1 (protonated)
O=C(Cc1c([O-])[n-]c(=O)n1CCc1ccccc1)[N-]Cc1ccc(Cl)cc1 (3D coordinates assigned)
O=C(Cc1c([O-])[n-]c(=O)n1CCc1ccccc1)[N-]Cc1ccc(Cl)cc1 (optimized conformer: 68.59636956303738 kcal/mol)

>  <smiles>  (32) 
O=C(Cc1c(O)[nH]c(=O)n1CCc1ccccc1)NCc1ccc(Cl)cc1

>  <score_type>  (32) 
oracle

>  <origin>  (32) 
adg

>  <m_score__min__energy>  (32) 
-15.52

>  <m_primary>  (32) 
energy

$$$$
32:0
     RDKit          3D

 57 59  0  0  0  0  0  0  0  0999 V2000
   56.6230   23.1980   43.3830 C   0  0  0  0  0  0  0  0  0  0  0  0
   56.4290   24.2560   44.1720 C   0  0  0  0  0  0  0  0  0  0  0  0
   55.2570   24.3260   45.1040 C   0  0  0  0  0  0  0  0  0  0  0  0
   55.4800   25.3570   46.0660 O   0  0  0  0  0  0  0  0  0  0  0  0
   56.7000   26.0320   46.2410 C   0  0  0  0  0  0  0  0  0  0  0  0
   56.8920   27.3580   45.8050 C   0  0  0  0  0  0  0  0  0  0  0  0
   58.1260   28.0010   45.9890 C   0  0  0  0  0  0  0  0  0  0  0  0
   58.3280   29.3790   45.4970 C   0  0  0  0  0  0  0  0  0  0  0  0
   59.0020   29.5720   44.4480 O   0  0  0  0  0  0  0  0  0  0  0  0
   57.8250   30.5160   46.2090 N   0  0  0  0  0  0  0  0  0  0  0  0
   58.0350   31.8970   45.8680 C   0  0  0  0  0  0  0  0  0  0  0  0
   57.3410   32.5010   44.8010 C   0  0  0  0  0  0  0  0  0  0  0  0
   57.5660   33.8430   44.4830 C   0  0  0  0  0  0  0  0  0  0  0  0
   58.4880   34.5920   45.2170 C   0  0  0  0  0  0  0  0  0  0  0  0
   59.1900   34.0010   46.2680 C   0  0  0  0  0  0  0  0  0  0  0  0
   58.9760   32.6530   46.5970 C   0  0  0  0  0  0  0  0  0  0  0  0
   59.7270   32.0560   47.6690 N   0  0  0  0  0  0  0  0  0  0  0  0
   59.6280   32.5870   49.0280 C   0  0  0  0  0  0  0  0  0  0  0  0
   61.0230   33.0040   49.5190 C   0  0  0  0  0  0  0  0  0  0  0  0
   62.0890   32.0060   49.2290 N   0  0  0  0  0  0  0  0  0  0  0  0
   63.4130   32.7260   48.3350 S   0  0  0  0  0  0  0  0  0  0  0  0
   64.8520   32.8110   49.3770 C   0  0  0  0  0  0  0  0  0  0  0  0
   63.0500   34.1140   47.8810 O   0  0  0  0  0  0  0  0  0  0  0  0
   63.7460   31.8850   47.1340 O   0  0  0  0  0  0  0  0  0  0  0  0
   61.6180   30.7560   48.5920 C   0  0  0  0  0  0  0  0  0  0  0  0
   60.7260   31.0220   47.3690 C   0  0  0  0  0  0  0  0  0  0  0  0
   59.1750   27.3090   46.6120 C   0  0  0  0  0  0  0  0  0  0  0  0
   58.9970   25.9940   47.0400 C   0  0  0  0  0  0  0  0  0  0  0  0
   57.7640   25.3430   46.8530 C   0  0  0  0  0  0  0  0  0  0  0  0
   57.5490   24.0160   47.2630 O   0  0  0  0  0  0  0  0  0  0  0  0
   56.5700   23.6170   48.2180 C   0  0  0  0  0  0  0  0  0  0  0  0
   57.4900   23.1679   42.7067 H   0  0  0  0  0  0  0  0  0  0  0  0
   55.9160   22.3557   43.4087 H   0  0  0  0  0  0  0  0  0  0  0  0
   57.1423   25.0927   44.1381 H   0  0  0  0  0  0  0  0  0  0  0  0
   54.3448   24.5490   44.5311 H   0  0  0  0  0  0  0  0  0  0  0  0
   55.1375   23.3613   45.6188 H   0  0  0  0  0  0  0  0  0  0  0  0
   56.0662   27.8949   45.3153 H   0  0  0  0  0  0  0  0  0  0  0  0
   56.6186   31.9134   44.2155 H   0  0  0  0  0  0  0  0  0  0  0  0
   57.0158   34.3102   43.6529 H   0  0  0  0  0  0  0  0  0  0  0  0
   58.6610   35.6490   44.9664 H   0  0  0  0  0  0  0  0  0  0  0  0
   59.9159   34.5951   46.8426 H   0  0  0  0  0  0  0  0  0  0  0  0
   58.9614   33.4620   49.0319 H   0  0  0  0  0  0  0  0  0  0  0  0
   59.2213   31.8126   49.6950 H   0  0  0  0  0  0  0  0  0  0  0  0
   61.2933   33.9513   49.0296 H   0  0  0  0  0  0  0  0  0  0  0  0
   60.9615   33.0959   50.6134 H   0  0  0  0  0  0  0  0  0  0  0  0
   64.5421   32.7927   50.4323 H   0  0  0  0  0  0  0  0  0  0  0  0
   65.5049   31.9499   49.1716 H   0  0  0  0  0  0  0  0  0  0  0  0
   65.3989   33.7430   49.1716 H   0  0  0  0  0  0  0  0  0  0  0  0
   62.4929   30.1717   48.2708 H   0  0  0  0  0  0  0  0  0  0  0  0
   61.0172   30.2078   49.3326 H   0  0  0  0  0  0  0  0  0  0  0  0
   61.3537   31.3590   46.5309 H   0  0  0  0  0  0  0  0  0  0  0  0
   60.2027   30.0914   47.1044 H   0  0  0  0  0  0  0  0  0  0  0  0
   60.1441   27.8068   46.7639 H   0  0  0  0  0  0  0  0  0  0  0  0
   59.8269   25.4616   47.5276 H   0  0  0  0  0  0  0  0  0  0  0  0
   56.9618   23.7767   49.2334 H   0  0  0  0  0  0  0  0  0  0  0  0
   55.6572   24.2148   48.0790 H   0  0  0  0  0  0  0  0  0  0  0  0
   56.3351   22.5514   48.0790 H   0  0  0  0  0  0  0  0  0  0  0  0
  1  2  2  0
  2  3  1  0
  3  4  1  0
  4  5  1  0
  5  6  2  0
  6  7  1  0
  7  8  1  0
  8  9  2  0
  8 10  1  0
 10 11  1  0
 11 12  2  0
 12 13  1  0
 13 14  2  0
 14 15  1  0
 15 16  2  0
 16 17  1  0
 17 18  1  0
 18 19  1  0
 19 20  1  0
 20 21  1  0
 21 22  1  0
 21 23  2  0
 21 24  2  0
 20 25  1  0
 25 26  1  0
  7 27  2  0
 27 28  1  0
 28 29  2  0
 29 30  1  0
 30 31  1  0
 29  5  1  0
 16 11  1  0
 26 17  1  0
  1 32  1  0
  1 33  1  0
  2 34  1  0
  3 35  1  0
  3 36  1  0
  6 37  1  0
 12 38  1  0
 13 39  1  0
 14 40  1  0
 15 41  1  0
 18 42  1  0
 18 43  1  0
 19 44  1  0
 19 45  1  0
 22 46  1  0
 22 47  1  0
 22 48  1  0
 25 49  1  0
 25 50  1  0
 26 51  1  0
 26 52  1  0
 27 53  1  0
 28 54  1  0
 31 55  1  0
 31 56  1  0
 31 57  1  0
M  CHG  1  10  -1
M  END
>  <UniqueID>  (33) 
30

>  <SMILES>  (33) 
C=CCOc1cc(C(=O)[N-]c2ccccc2N2CCN(S(C)(=O)=O)CC2)ccc1OC

>  <Energy>  (33) 
69.07725125191706

>  <Genealogy>  (33) 
C=CCOc1cc(C(=O)[N-]c2ccccc2N2CCN(S(C)(=O)=O)CC2)ccc1OC (protonated)
C=CCOc1cc(C(=O)[N-]c2ccccc2N2CCN(S(C)(=O)=O)CC2)ccc1OC (3D coordinates assigned)
C=CCOc1cc(C(=O)[N-]c2ccccc2N2CCN(S(C)(=O)=O)CC2)ccc1OC (nonaromatic ring conformer: 69.07725125191706 kcal/mol)

>  <smiles>  (33) 
C=CCOc1cc(C(=O)Nc2ccccc2N2CCN(S(C)(=O)=O)CC2)ccc1OC

>  <score_type>  (33) 
oracle

>  <origin>  (33) 
adg

>  <m_score__min__energy>  (33) 
-9.6899999999999995

>  <m_primary>  (33) 
energy

$$$$
33:0
     RDKit          3D

 35 36  0  0  0  0  0  0  0  0999 V2000
   57.0760   29.1430   43.3080 N   0  0  0  0  0  0  0  0  0  0  0  0
   56.2530   29.7450   44.3040 C   0  0  0  0  0  0  0  0  0  0  0  0
   55.4660   29.0270   44.9730 O   0  0  0  0  0  0  0  0  0  0  0  0
   56.3290   31.1620   44.5160 N   0  0  0  0  0  0  0  0  0  0  0  0
   57.4440   32.0360   44.2830 C   0  0  0  0  0  0  0  0  0  0  0  0
   58.4310   31.5890   43.6410 O   0  0  0  0  0  0  0  0  0  0  0  0
   57.5040   33.4430   44.8040 C   0  0  0  0  0  0  0  0  0  0  0  0
   57.3580   33.4790   46.6250 S   0  0  0  0  0  0  0  0  0  0  0  0
   59.1080   33.1920   46.9420 C   0  0  0  0  0  0  0  0  0  0  0  0
   59.9020   34.2780   47.3330 C   0  0  0  0  0  0  0  0  0  0  0  0
   61.2730   34.1120   47.5370 C   0  0  0  0  0  0  0  0  0  0  0  0
   61.8630   32.8610   47.3470 C   0  0  0  0  0  0  0  0  0  0  0  0
   61.0790   31.7690   46.9660 C   0  0  0  0  0  0  0  0  0  0  0  0
   59.6970   31.9140   46.7850 C   0  0  0  0  0  0  0  0  0  0  0  0
   58.9260   30.7710   46.3860 N   0  0  0  0  0  0  0  0  0  0  0  0
   59.3380   29.4080   46.5900 C   0  0  0  0  0  0  0  0  0  0  0  0
   59.2070   28.7780   47.8420 C   0  0  0  0  0  0  0  0  0  0  0  0
   59.6150   27.4510   48.0100 C   0  0  0  0  0  0  0  0  0  0  0  0
   60.1640   26.7460   46.9360 C   0  0  0  0  0  0  0  0  0  0  0  0
   60.3150   27.3700   45.6950 C   0  0  0  0  0  0  0  0  0  0  0  0
   59.9110   28.6970   45.5250 C   0  0  0  0  0  0  0  0  0  0  0  0
   57.7340   29.7260   42.7450 H   0  0  0  0  0  0  0  0  0  0  0  0
   57.0380   28.1130   43.1430 H   0  0  0  0  0  0  0  0  0  0  0  0
   58.4642   33.8933   44.5119 H   0  0  0  0  0  0  0  0  0  0  0  0
   56.6641   34.0096   44.3756 H   0  0  0  0  0  0  0  0  0  0  0  0
   59.4427   35.2667   47.4800 H   0  0  0  0  0  0  0  0  0  0  0  0
   61.8895   34.9683   47.8480 H   0  0  0  0  0  0  0  0  0  0  0  0
   62.9454   32.7350   47.4973 H   0  0  0  0  0  0  0  0  0  0  0  0
   61.5503   30.7879   46.8069 H   0  0  0  0  0  0  0  0  0  0  0  0
   58.0620   30.9460   45.8250 H   0  0  0  0  0  0  0  0  0  0  0  0
   58.7818   29.3319   48.6919 H   0  0  0  0  0  0  0  0  0  0  0  0
   59.5036   26.9617   48.9889 H   0  0  0  0  0  0  0  0  0  0  0  0
   60.4773   25.6998   47.0674 H   0  0  0  0  0  0  0  0  0  0  0  0
   60.7522   26.8163   44.8511 H   0  0  0  0  0  0  0  0  0  0  0  0
   60.0432   29.1874   44.5493 H   0  0  0  0  0  0  0  0  0  0  0  0
  1  2  1  0
  2  3  2  0
  2  4  1  0
  4  5  1  0
  5  6  2  0
  5  7  1  0
  7  8  1  0
  8  9  1  0
  9 10  2  0
 10 11  1  0
 11 12  2  0
 12 13  1  0
 13 14  2  0
 14 15  1  0
 15 16  1  0
 16 17  2  0
 17 18  1  0
 18 19  2  0
 19 20  1  0
 20 21  2  0
 14  9  1  0
 21 16  1  0
  1 22  1  0
  1 23  1  0
  7 24  1  0
  7 25  1  0
 10 26  1  0
 11 27  1  0
 12 28  1  0
 13 29  1  0
 15 30  1  0
 17 31  1  0
 18 32  1  0
 19 33  1  0
 20 34  1  0
 21 35  1  0
M  CHG  1   4  -1
M  END
>  <UniqueID>  (34) 
31

>  <SMILES>  (34) 
NC(=O)[N-]C(=O)CSc1ccccc1Nc1ccccc1

>  <Energy>  (34) 
35.95942499115535

>  <Genealogy>  (34) 
NC(=O)[N-]C(=O)CSc1ccccc1Nc1ccccc1 (protonated)
NC(=O)[N-]C(=O)CSc1ccccc1Nc1ccccc1 (3D coordinates assigned)
NC(=O)[N-]C(=O)CSc1ccccc1Nc1ccccc1 (optimized conformer: 35.95942499115535 kcal/mol)

>  <smiles>  (34) 
NC(=O)NC(=O)CSc1ccccc1Nc1ccccc1

>  <score_type>  (34) 
oracle

>  <origin>  (34) 
adg

>  <m_score__min__energy>  (34) 
-9.2599999999999998

>  <m_primary>  (34) 
energy

$$$$
34:0
     RDKit          3D

 50 54  0  0  0  0  0  0  0  0999 V2000
   55.5960   29.7190   43.3990 C   0  0  0  0  0  0  0  0  0  0  0  0
   55.8950   30.0920   44.7410 O   0  0  0  0  0  0  0  0  0  0  0  0
   56.9410   29.5490   45.5020 C   0  0  0  0  0  0  0  0  0  0  0  0
   58.0890   30.2920   45.8420 C   0  0  0  0  0  0  0  0  0  0  0  0
   59.1050   29.7180   46.6240 C   0  0  0  0  0  0  0  0  0  0  0  0
   60.2840   30.5210   47.0050 C   0  0  0  0  0  0  0  0  0  0  0  0
   60.6120   31.6890   46.4010 N   0  0  0  0  0  0  0  0  0  0  0  0
   61.6810   32.1610   47.0650 C   0  0  0  0  0  0  0  0  0  0  0  0
   62.3650   33.3520   46.8270 C   0  0  0  0  0  0  0  0  0  0  0  0
   63.4420   33.6740   47.6750 C   0  0  0  0  0  0  0  0  0  0  0  0
   63.8020   32.8110   48.7330 C   0  0  0  0  0  0  0  0  0  0  0  0
   63.0910   31.6170   48.9520 C   0  0  0  0  0  0  0  0  0  0  0  0
   62.0370   31.3210   48.0890 C   0  0  0  0  0  0  0  0  0  0  0  0
   61.1540   30.2620   48.0670 C   0  0  0  0  0  0  0  0  0  0  0  0
   61.0500   28.9470   49.2870 S   0  0  0  0  0  0  0  0  0  0  0  0
   59.8900   29.8720   50.2880 C   0  0  0  0  0  0  0  0  0  0  0  0
   58.5230   29.6780   50.3500 C   0  0  0  0  0  0  0  0  0  0  0  0
   58.0710   30.5600   51.3120 C   0  0  0  0  0  0  0  0  0  0  0  0
   56.7480   30.6640   51.7270 O   0  0  0  0  0  0  0  0  0  0  0  0
   59.0870   31.2840   51.8310 N   0  0  0  0  0  0  0  0  0  0  0  0
   59.0000   32.2240   52.9140 C   0  0  0  0  0  0  0  0  0  0  0  0
   58.9800   31.7740   54.2440 C   0  0  0  0  0  0  0  0  0  0  0  0
   58.9120   32.6920   55.2970 C   0  0  0  0  0  0  0  0  0  0  0  0
   58.8730   34.0640   55.0290 C   0  0  0  0  0  0  0  0  0  0  0  0
   58.8090   34.9520   56.0520 F   0  0  0  0  0  0  0  0  0  0  0  0
   58.9050   34.5190   53.7090 C   0  0  0  0  0  0  0  0  0  0  0  0
   58.9720   33.6040   52.6540 C   0  0  0  0  0  0  0  0  0  0  0  0
   60.2000   30.8670   51.1910 C   0  0  0  0  0  0  0  0  0  0  0  0
   61.4770   31.3900   51.3830 O   0  0  0  0  0  0  0  0  0  0  0  0
   58.9820   28.3840   47.0420 C   0  0  0  0  0  0  0  0  0  0  0  0
   57.8500   27.6410   46.7000 C   0  0  0  0  0  0  0  0  0  0  0  0
   56.8320   28.2220   45.9380 C   0  0  0  0  0  0  0  0  0  0  0  0
   55.7070   27.4720   45.6130 O   0  0  0  0  0  0  0  0  0  0  0  0
   54.9080   28.8607   43.4016 H   0  0  0  0  0  0  0  0  0  0  0  0
   55.1238   30.5659   42.8796 H   0  0  0  0  0  0  0  0  0  0  0  0
   56.5254   29.4424   42.8796 H   0  0  0  0  0  0  0  0  0  0  0  0
   58.1904   31.3300   45.4922 H   0  0  0  0  0  0  0  0  0  0  0  0
   60.1290   32.1400   45.5920 H   0  0  0  0  0  0  0  0  0  0  0  0
   62.0727   34.0192   46.0028 H   0  0  0  0  0  0  0  0  0  0  0  0
   64.0066   34.6039   47.5122 H   0  0  0  0  0  0  0  0  0  0  0  0
   64.6439   33.0740   49.3903 H   0  0  0  0  0  0  0  0  0  0  0  0
   63.3578   30.9396   49.7766 H   0  0  0  0  0  0  0  0  0  0  0  0
   57.9224   28.9711   49.7587 H   0  0  0  0  0  0  0  0  0  0  0  0
   59.0179   30.6958   54.4584 H   0  0  0  0  0  0  0  0  0  0  0  0
   58.8892   32.3345   56.3370 H   0  0  0  0  0  0  0  0  0  0  0  0
   58.8775   35.5984   53.4991 H   0  0  0  0  0  0  0  0  0  0  0  0
   59.0029   33.9664   51.6159 H   0  0  0  0  0  0  0  0  0  0  0  0
   62.3080   30.8990   51.0820 H   0  0  0  0  0  0  0  0  0  0  0  0
   59.7803   27.9218   47.6413 H   0  0  0  0  0  0  0  0  0  0  0  0
   57.7591   26.5959   47.0310 H   0  0  0  0  0  0  0  0  0  0  0  0
  1  2  1  0
  2  3  1  0
  3  4  2  0
  4  5  1  0
  5  6  1  0
  6  7  1  0
  7  8  1  0
  8  9  2  0
  9 10  1  0
 10 11  2  0
 11 12  1  0
 12 13  2  0
 13 14  1  0
 14 15  1  0
 15 16  1  0
 16 17  1  0
 17 18  2  0
 18 19  1  0
 18 20  1  0
 20 21  1  0
 21 22  2  0
 22 23  1  0
 23 24  2  0
 24 25  1  0
 24 26  1  0
 26 27  2  0
 20 28  1  0
 28 29  1  0
  5 30  2  0
 30 31  1  0
 31 32  2  0
 32 33  1  0
 32  3  1  0
 14  6  2  0
 28 16  2  0
 13  8  1  0
 27 21  1  0
  1 34  1  0
  1 35  1  0
  1 36  1  0
  4 37  1  0
  7 38  1  0
  9 39  1  0
 10 40  1  0
 11 41  1  0
 12 42  1  0
 17 43  1  0
 22 44  1  0
 23 45  1  0
 26 46  1  0
 27 47  1  0
 29 48  1  0
 30 49  1  0
 31 50  1  0
M  CHG  2  19  -1  33  -1
M  END
>  <UniqueID>  (35) 
32

>  <SMILES>  (35) 
COc1cc(-c2[nH]c3ccccc3c2Sc2cc([O-])n(-c3ccc(F)cc3)c2O)ccc1[O-]

>  <Energy>  (35) 
120.61343042996572

>  <Genealogy>  (35) 
COc1cc(-c2[nH]c3ccccc3c2Sc2cc([O-])n(-c3ccc(F)cc3)c2O)ccc1[O-] (protonated)
COc1cc(-c2[nH]c3ccccc3c2Sc2cc([O-])n(-c3ccc(F)cc3)c2O)ccc1[O-] (3D coordinates assigned)
COc1cc(-c2[nH]c3ccccc3c2Sc2cc([O-])n(-c3ccc(F)cc3)c2O)ccc1[O-] (optimized conformer: 120.61343042996572 kcal/mol)

>  <smiles>  (35) 
COc1cc(-c2[nH]c3ccccc3c2Sc2cc(O)n(-c3ccc(F)cc3)c2O)ccc1O

>  <score_type>  (35) 
oracle

>  <origin>  (35) 
adg

>  <m_score__min__energy>  (35) 
-12.58

>  <m_primary>  (35) 
energy

$$$$
35:0
     RDKit          3D

 51 53  0  0  0  0  0  0  0  0999 V2000
   60.7360   30.2260   47.3770 C   0  0  0  0  0  0  0  0  0  0  0  0
   59.0190   30.6170   47.8280 S   0  0  0  0  0  0  0  0  0  0  0  0
   59.2190   32.3820   47.5480 C   0  0  0  0  0  0  0  0  0  0  0  0
   59.5340   33.2130   48.6310 C   0  0  0  0  0  0  0  0  0  0  0  0
   59.7050   34.5840   48.4400 C   0  0  0  0  0  0  0  0  0  0  0  0
   59.5730   35.1320   47.1630 C   0  0  0  0  0  0  0  0  0  0  0  0
   59.2610   34.3110   46.0750 C   0  0  0  0  0  0  0  0  0  0  0  0
   59.0640   32.9300   46.2610 C   0  0  0  0  0  0  0  0  0  0  0  0
   58.7650   32.0590   45.1600 N   0  0  0  0  0  0  0  0  0  0  0  0
   57.4960   31.9050   44.5130 C   0  0  0  0  0  0  0  0  0  0  0  0
   56.4250   32.1970   45.1120 O   0  0  0  0  0  0  0  0  0  0  0  0
   57.4400   31.3030   43.1480 C   0  0  0  0  0  0  0  0  0  0  0  0
   56.5620   30.1380   43.1660 N   0  0  0  0  0  0  0  0  0  0  0  0
   56.2670   29.3540   44.3290 C   0  0  0  0  0  0  0  0  0  0  0  0
   55.1470   29.4950   44.8870 O   0  0  0  0  0  0  0  0  0  0  0  0
   57.2150   28.3590   44.8670 C   0  0  0  0  0  0  0  0  0  0  0  0
   58.5800   28.6630   44.9940 C   0  0  0  0  0  0  0  0  0  0  0  0
   59.4650   27.7170   45.5200 C   0  0  0  0  0  0  0  0  0  0  0  0
   58.9960   26.4680   45.9290 C   0  0  0  0  0  0  0  0  0  0  0  0
   57.6340   26.1570   45.8190 C   0  0  0  0  0  0  0  0  0  0  0  0
   57.0470   24.5870   46.3620 S   0  0  0  0  0  0  0  0  0  0  0  0
   55.5520   24.6540   46.5090 O   0  0  0  0  0  0  0  0  0  0  0  0
   57.6450   24.2530   47.7000 O   0  0  0  0  0  0  0  0  0  0  0  0
   57.4670   23.3580   45.1940 N   0  0  0  0  0  0  0  0  0  0  0  0
   56.7080   22.1230   45.4660 C   0  0  0  0  0  0  0  0  0  0  0  0
   56.6570   21.2300   44.2150 C   0  0  0  0  0  0  0  0  0  0  0  0
   56.0480   21.8430   43.0840 O   0  0  0  0  0  0  0  0  0  0  0  0
   56.0320   23.2620   43.1400 C   0  0  0  0  0  0  0  0  0  0  0  0
   57.2850   23.8530   43.8100 C   0  0  0  0  0  0  0  0  0  0  0  0
   56.7460   27.1100   45.3000 C   0  0  0  0  0  0  0  0  0  0  0  0
   61.3332   30.0900   48.2907 H   0  0  0  0  0  0  0  0  0  0  0  0
   60.7575   29.3000   46.7837 H   0  0  0  0  0  0  0  0  0  0  0  0
   61.1563   31.0514   46.7837 H   0  0  0  0  0  0  0  0  0  0  0  0
   59.6470   32.7822   49.6368 H   0  0  0  0  0  0  0  0  0  0  0  0
   59.9438   35.2331   49.2953 H   0  0  0  0  0  0  0  0  0  0  0  0
   59.7148   36.2124   47.0122 H   0  0  0  0  0  0  0  0  0  0  0  0
   59.1691   34.7465   45.0691 H   0  0  0  0  0  0  0  0  0  0  0  0
   57.0501   32.0450   42.4357 H   0  0  0  0  0  0  0  0  0  0  0  0
   58.4506   30.9958   42.8410 H   0  0  0  0  0  0  0  0  0  0  0  0
   58.9541   29.6482   44.6788 H   0  0  0  0  0  0  0  0  0  0  0  0
   60.5343   27.9580   45.6117 H   0  0  0  0  0  0  0  0  0  0  0  0
   59.6970   25.7259   46.3387 H   0  0  0  0  0  0  0  0  0  0  0  0
   57.1959   21.5719   46.2835 H   0  0  0  0  0  0  0  0  0  0  0  0
   55.6803   22.3945   45.7490 H   0  0  0  0  0  0  0  0  0  0  0  0
   57.6874   20.9553   43.9452 H   0  0  0  0  0  0  0  0  0  0  0  0
   56.0371   20.3590   44.4740 H   0  0  0  0  0  0  0  0  0  0  0  0
   55.9666   23.6523   42.1137 H   0  0  0  0  0  0  0  0  0  0  0  0
   55.1643   23.5569   43.7484 H   0  0  0  0  0  0  0  0  0  0  0  0
   58.1683   23.5758   43.2159 H   0  0  0  0  0  0  0  0  0  0  0  0
   57.1594   24.9448   43.8562 H   0  0  0  0  0  0  0  0  0  0  0  0
   55.6733   26.8763   45.2319 H   0  0  0  0  0  0  0  0  0  0  0  0
  1  2  1  0
  2  3  1  0
  3  4  2  0
  4  5  1  0
  5  6  2  0
  6  7  1  0
  7  8  2  0
  8  9  1  0
  9 10  1  0
 10 11  2  0
 10 12  1  0
 12 13  1  0
 13 14  1  0
 14 15  2  0
 14 16  1  0
 16 17  2  0
 17 18  1  0
 18 19  2  0
 19 20  1  0
 20 21  1  0
 21 22  2  0
 21 23  2  0
 21 24  1  0
 24 25  1  0
 25 26  1  0
 26 27  1  0
 27 28  1  0
 28 29  1  0
 20 30  2  0
  8  3  1  0
 30 16  1  0
 29 24  1  0
  1 31  1  0
  1 32  1  0
  1 33  1  0
  4 34  1  0
  5 35  1  0
  6 36  1  0
  7 37  1  0
 12 38  1  0
 12 39  1  0
 17 40  1  0
 18 41  1  0
 19 42  1  0
 25 43  1  0
 25 44  1  0
 26 45  1  0
 26 46  1  0
 28 47  1  0
 28 48  1  0
 29 49  1  0
 29 50  1  0
 30 51  1  0
M  CHG  2   9  -1  13  -1
M  END
>  <UniqueID>  (36) 
33

>  <SMILES>  (36) 
CSc1ccccc1[N-]C(=O)C[N-]C(=O)c1cccc(S(=O)(=O)N2CCOCC2)c1

>  <Energy>  (36) 
66.53642625831812

>  <Genealogy>  (36) 
CSc1ccccc1[N-]C(=O)C[N-]C(=O)c1cccc(S(=O)(=O)N2CCOCC2)c1 (protonated)
CSc1ccccc1[N-]C(=O)C[N-]C(=O)c1cccc(S(=O)(=O)N2CCOCC2)c1 (3D coordinates assigned)
CSc1ccccc1[N-]C(=O)C[N-]C(=O)c1cccc(S(=O)(=O)N2CCOCC2)c1 (nonaromatic ring conformer: 66.53642625831812 kcal/mol)

>  <smiles>  (36) 
CSc1ccccc1NC(=O)CNC(=O)c1cccc(S(=O)(=O)N2CCOCC2)c1

>  <score_type>  (36) 
oracle

>  <origin>  (36) 
adg

>  <m_score__min__energy>  (36) 
-12.5

>  <m_primary>  (36) 
energy

$$$$
36:0
     RDKit          3D

 51 53  0  0  0  0  0  0  0  0999 V2000
   58.0040   26.8380   45.8330 C   0  0  0  0  0  0  0  0  0  0  0  0
   57.4190   28.1070   46.1060 O   0  0  0  0  0  0  0  0  0  0  0  0
   58.0370   29.3720   46.0260 C   0  0  0  0  0  0  0  0  0  0  0  0
   59.2080   29.7180   46.7610 C   0  0  0  0  0  0  0  0  0  0  0  0
   59.8390   28.7600   47.6210 N   0  0  0  0  0  0  0  0  0  0  0  0
   60.1320   28.9400   49.3220 S   0  0  0  0  0  0  0  0  0  0  0  0
   58.8160   29.1420   50.0180 O   0  0  0  0  0  0  0  0  0  0  0  0
   60.7660   27.6860   49.8530 O   0  0  0  0  0  0  0  0  0  0  0  0
   61.1620   30.2970   49.6590 N   0  0  0  0  0  0  0  0  0  0  0  0
   60.2110   31.6850   50.0890 S   0  0  0  0  0  0  0  0  0  0  0  0
   58.8040   31.4730   49.6060 O   0  0  0  0  0  0  0  0  0  0  0  0
   60.7640   32.9320   49.4540 O   0  0  0  0  0  0  0  0  0  0  0  0
   60.2050   31.8390   51.8190 N   0  0  0  0  0  0  0  0  0  0  0  0
   59.6980   30.6260   52.4620 C   0  0  0  0  0  0  0  0  0  0  0  0
   58.1980   30.6470   52.4420 C   0  0  0  0  0  0  0  0  0  0  0  0
   57.5020   31.8550   52.3010 C   0  0  0  0  0  0  0  0  0  0  0  0
   56.1040   31.8710   52.3140 C   0  0  0  0  0  0  0  0  0  0  0  0
   55.3770   30.6780   52.4850 C   0  0  0  0  0  0  0  0  0  0  0  0
   53.8920   30.6960   52.5340 C   0  0  0  0  0  0  0  0  0  0  0  0
   53.1970   29.9490   53.5050 C   0  0  0  0  0  0  0  0  0  0  0  0
   51.8000   29.9890   53.5660 C   0  0  0  0  0  0  0  0  0  0  0  0
   51.0810   30.7710   52.6610 C   0  0  0  0  0  0  0  0  0  0  0  0
   51.7560   31.5120   51.6890 C   0  0  0  0  0  0  0  0  0  0  0  0
   51.0580   32.2770   50.8140 F   0  0  0  0  0  0  0  0  0  0  0  0
   53.1520   31.4740   51.6220 C   0  0  0  0  0  0  0  0  0  0  0  0
   56.0830   29.4700   52.6310 C   0  0  0  0  0  0  0  0  0  0  0  0
   57.4790   29.4560   52.6180 C   0  0  0  0  0  0  0  0  0  0  0  0
   59.7330   31.0160   46.6520 C   0  0  0  0  0  0  0  0  0  0  0  0
   59.1190   31.9660   45.8450 C   0  0  0  0  0  0  0  0  0  0  0  0
   57.9860   31.6340   45.1130 C   0  0  0  0  0  0  0  0  0  0  0  0
   57.4430   30.3400   45.1750 C   0  0  0  0  0  0  0  0  0  0  0  0
   56.2530   30.0280   44.3390 C   0  0  0  0  0  0  0  0  0  0  0  0
   55.1370   29.3240   44.8800 N   0  0  0  0  0  0  0  0  0  0  0  0
   56.2320   30.3590   43.1230 O   0  0  0  0  0  0  0  0  0  0  0  0
   58.2379   26.3306   46.7805 H   0  0  0  0  0  0  0  0  0  0  0  0
   57.2974   26.2255   45.2538 H   0  0  0  0  0  0  0  0  0  0  0  0
   58.9287   26.9775   45.2538 H   0  0  0  0  0  0  0  0  0  0  0  0
   60.0608   29.7418   51.9174 H   0  0  0  0  0  0  0  0  0  0  0  0
   60.0531   30.5832   53.5022 H   0  0  0  0  0  0  0  0  0  0  0  0
   58.0586   32.7959   52.1794 H   0  0  0  0  0  0  0  0  0  0  0  0
   55.5680   32.8235   52.1896 H   0  0  0  0  0  0  0  0  0  0  0  0
   53.7570   29.3294   54.2209 H   0  0  0  0  0  0  0  0  0  0  0  0
   51.2670   29.4027   54.3290 H   0  0  0  0  0  0  0  0  0  0  0  0
   49.9827   30.8036   52.7134 H   0  0  0  0  0  0  0  0  0  0  0  0
   53.6770   32.0565   50.8506 H   0  0  0  0  0  0  0  0  0  0  0  0
   55.5299   28.5275   52.7566 H   0  0  0  0  0  0  0  0  0  0  0  0
   58.0178   28.5056   52.7465 H   0  0  0  0  0  0  0  0  0  0  0  0
   60.6411   31.2838   47.2121 H   0  0  0  0  0  0  0  0  0  0  0  0
   59.5314   32.9841   45.7856 H   0  0  0  0  0  0  0  0  0  0  0  0
   57.5082   32.3938   44.4770 H   0  0  0  0  0  0  0  0  0  0  0  0
   55.2690   28.5910   45.6120 H   0  0  0  0  0  0  0  0  0  0  0  0
  1  2  1  0
  2  3  1  0
  3  4  2  0
  4  5  1  0
  5  6  1  0
  6  7  2  0
  6  8  2  0
  6  9  1  0
  9 10  1  0
 10 11  2  0
 10 12  2  0
 10 13  1  0
 13 14  1  0
 14 15  1  0
 15 16  2  0
 16 17  1  0
 17 18  2  0
 18 19  1  0
 19 20  2  0
 20 21  1  0
 21 22  2  0
 22 23  1  0
 23 24  1  0
 23 25  2  0
 18 26  1  0
 26 27  2  0
  4 28  1  0
 28 29  2  0
 29 30  1  0
 30 31  2  0
 31 32  1  0
 32 33  1  0
 32 34  2  0
 31  3  1  0
 27 15  1  0
 25 19  1  0
  1 35  1  0
  1 36  1  0
  1 37  1  0
 14 38  1  0
 14 39  1  0
 16 40  1  0
 17 41  1  0
 20 42  1  0
 21 43  1  0
 22 44  1  0
 25 45  1  0
 26 46  1  0
 27 47  1  0
 28 48  1  0
 29 49  1  0
 30 50  1  0
 33 51  1  0
M  CHG  4   5  -1   9  -1  13  -1  33  -1
M  END
>  <UniqueID>  (37) 
34

>  <SMILES>  (37) 
COc1c([N-]S(=O)(=O)[N-]S(=O)(=O)[N-]Cc2ccc(-c3cccc(F)c3)cc2)cccc1C([NH-])=O

>  <Energy>  (37) 
54.90670897076301

>  <Genealogy>  (37) 
COc1c([N-]S(=O)(=O)[N-]S(=O)(=O)[N-]Cc2ccc(-c3cccc(F)c3)cc2)cccc1C([NH-])=O (protonated)
COc1c([N-]S(=O)(=O)[N-]S(=O)(=O)[N-]Cc2ccc(-c3cccc(F)c3)cc2)cccc1C([NH-])=O (3D coordinates assigned)
COc1c([N-]S(=O)(=O)[N-]S(=O)(=O)[N-]Cc2ccc(-c3cccc(F)c3)cc2)cccc1C([NH-])=O (optimized conformer: 54.90670897076301 kcal/mol)

>  <smiles>  (37) 
COc1c(NS(=O)(=O)NS(=O)(=O)NCc2ccc(-c3cccc(F)c3)cc2)cccc1C(N)=O

>  <score_type>  (37) 
oracle

>  <origin>  (37) 
adg

>  <m_score__min__energy>  (37) 
-15.789999999999999

>  <m_primary>  (37) 
energy

$$$$
37:0
     RDKit          3D

 49 52  0  0  0  0  0  0  0  0999 V2000
   63.8780   34.1020   50.3360 O   0  0  0  0  0  0  0  0  0  0  0  0
   62.9970   33.9820   49.4450 C   0  0  0  0  0  0  0  0  0  0  0  0
   63.3560   33.5720   48.1590 C   0  0  0  0  0  0  0  0  0  0  0  0
   62.3600   33.4460   47.1910 C   0  0  0  0  0  0  0  0  0  0  0  0
   61.0270   33.7300   47.5220 C   0  0  0  0  0  0  0  0  0  0  0  0
   59.9430   33.6060   46.5140 C   0  0  0  0  0  0  0  0  0  0  0  0
   59.4810   34.7380   45.8180 C   0  0  0  0  0  0  0  0  0  0  0  0
   58.4630   34.6170   44.8680 C   0  0  0  0  0  0  0  0  0  0  0  0
   57.8990   33.3700   44.5990 C   0  0  0  0  0  0  0  0  0  0  0  0
   58.3490   32.2320   45.2790 C   0  0  0  0  0  0  0  0  0  0  0  0
   57.6520   30.6600   44.8990 S   0  0  0  0  0  0  0  0  0  0  0  0
   56.2110   30.7940   44.4910 O   0  0  0  0  0  0  0  0  0  0  0  0
   58.4260   30.0520   43.7630 O   0  0  0  0  0  0  0  0  0  0  0  0
   57.7560   29.6230   46.2860 N   0  0  0  0  0  0  0  0  0  0  0  0
   57.7560   28.1850   46.2050 C   0  0  0  0  0  0  0  0  0  0  0  0
   58.8520   27.4280   46.6480 C   0  0  0  0  0  0  0  0  0  0  0  0
   58.8440   26.0350   46.5540 C   0  0  0  0  0  0  0  0  0  0  0  0
   57.7340   25.3450   46.0160 C   0  0  0  0  0  0  0  0  0  0  0  0
   57.7260   23.8870   45.9130 N   0  0  0  0  0  0  0  0  0  0  0  0
   58.8560   23.2010   45.2490 C   0  0  0  0  0  0  0  0  0  0  0  0
   58.6740   21.6850   45.1390 C   0  0  0  0  0  0  0  0  0  0  0  0
   58.0670   21.1650   46.2970 O   0  0  0  0  0  0  0  0  0  0  0  0
   56.7330   21.6100   46.3370 C   0  0  0  0  0  0  0  0  0  0  0  0
   56.6660   23.1170   46.6000 C   0  0  0  0  0  0  0  0  0  0  0  0
   56.6280   26.1180   45.5950 C   0  0  0  0  0  0  0  0  0  0  0  0
   56.6390   27.5120   45.6870 C   0  0  0  0  0  0  0  0  0  0  0  0
   55.5280   28.2270   45.2500 O   0  0  0  0  0  0  0  0  0  0  0  0
   59.3640   32.3520   46.2390 C   0  0  0  0  0  0  0  0  0  0  0  0
   60.7510   34.1380   48.8380 C   0  0  0  0  0  0  0  0  0  0  0  0
   61.7270   34.2470   49.7340 O   0  0  0  0  0  0  0  0  0  0  0  0
   64.4057   33.3524   47.9141 H   0  0  0  0  0  0  0  0  0  0  0  0
   62.6190   33.1249   46.1713 H   0  0  0  0  0  0  0  0  0  0  0  0
   59.9235   35.7240   46.0227 H   0  0  0  0  0  0  0  0  0  0  0  0
   58.1055   35.5079   44.3309 H   0  0  0  0  0  0  0  0  0  0  0  0
   57.0982   33.2804   43.8502 H   0  0  0  0  0  0  0  0  0  0  0  0
   57.7050   30.0850   47.2200 H   0  0  0  0  0  0  0  0  0  0  0  0
   59.7280   27.9386   47.0745 H   0  0  0  0  0  0  0  0  0  0  0  0
   59.7167   25.4646   46.9047 H   0  0  0  0  0  0  0  0  0  0  0  0
   58.9650   23.6126   44.2347 H   0  0  0  0  0  0  0  0  0  0  0  0
   59.7478   23.3744   45.8692 H   0  0  0  0  0  0  0  0  0  0  0  0
   58.0396   21.4610   44.2687 H   0  0  0  0  0  0  0  0  0  0  0  0
   59.6644   21.2204   45.0235 H   0  0  0  0  0  0  0  0  0  0  0  0
   56.2515   21.3912   45.3725 H   0  0  0  0  0  0  0  0  0  0  0  0
   56.2132   21.0878   47.1538 H   0  0  0  0  0  0  0  0  0  0  0  0
   55.6890   23.4868   46.2554 H   0  0  0  0  0  0  0  0  0  0  0  0
   56.8115   23.2621   47.6806 H   0  0  0  0  0  0  0  0  0  0  0  0
   55.7408   25.6118   45.1867 H   0  0  0  0  0  0  0  0  0  0  0  0
   59.7106   31.4600   46.7814 H   0  0  0  0  0  0  0  0  0  0  0  0
   59.7161   34.3697   49.1300 H   0  0  0  0  0  0  0  0  0  0  0  0
  1  2  2  0
  2  3  1  0
  3  4  2  0
  4  5  1  0
  5  6  1  0
  6  7  2  0
  7  8  1  0
  8  9  2  0
  9 10  1  0
 10 11  1  0
 11 12  2  0
 11 13  2  0
 11 14  1  0
 14 15  1  0
 15 16  2  0
 16 17  1  0
 17 18  2  0
 18 19  1  0
 19 20  1  0
 20 21  1  0
 21 22  1  0
 22 23  1  0
 23 24  1  0
 18 25  1  0
 25 26  2  0
 26 27  1  0
 10 28  2  0
  5 29  2  0
 29 30  1  0
 30  2  1  0
 28  6  1  0
 26 15  1  0
 24 19  1  0
  3 31  1  0
  4 32  1  0
  7 33  1  0
  8 34  1  0
  9 35  1  0
 14 36  1  0
 16 37  1  0
 17 38  1  0
 20 39  1  0
 20 40  1  0
 21 41  1  0
 21 42  1  0
 23 43  1  0
 23 44  1  0
 24 45  1  0
 24 46  1  0
 25 47  1  0
 28 48  1  0
 29 49  1  0
M  CHG  1  27  -1
M  END
>  <UniqueID>  (38) 
35

>  <SMILES>  (38) 
O=c1ccc(-c2cccc(S(=O)(=O)Nc3ccc(N4CCOCC4)cc3[O-])c2)co1

>  <Energy>  (38) 
70.85411468899842

>  <Genealogy>  (38) 
O=c1ccc(-c2cccc(S(=O)(=O)Nc3ccc(N4CCOCC4)cc3[O-])c2)co1 (protonated)
O=c1ccc(-c2cccc(S(=O)(=O)Nc3ccc(N4CCOCC4)cc3[O-])c2)co1 (3D coordinates assigned)
O=c1ccc(-c2cccc(S(=O)(=O)Nc3ccc(N4CCOCC4)cc3[O-])c2)co1 (nonaromatic ring conformer: 70.85411468899842 kcal/mol)

>  <smiles>  (38) 
O=c1ccc(-c2cccc(S(=O)(=O)Nc3ccc(N4CCOCC4)cc3O)c2)co1

>  <score_type>  (38) 
oracle

>  <origin>  (38) 
adg

>  <m_score__min__energy>  (38) 
-12.699999999999999

>  <m_primary>  (38) 
energy

$$$$
38:0
     RDKit          3D

 46 49  0  0  0  0  0  0  0  0999 V2000
   54.5450   25.7030   45.9650 N   0  0  0  0  0  0  0  0  0  0  0  0
   54.4500   24.0550   45.4390 S   0  0  0  0  0  0  0  0  0  0  0  0
   53.6370   23.9590   44.1780 O   0  0  0  0  0  0  0  0  0  0  0  0
   53.7560   23.2510   46.5030 O   0  0  0  0  0  0  0  0  0  0  0  0
   56.0770   23.4030   45.1630 C   0  0  0  0  0  0  0  0  0  0  0  0
   56.2520   22.4990   44.1020 C   0  0  0  0  0  0  0  0  0  0  0  0
   57.5180   22.0040   43.7880 C   0  0  0  0  0  0  0  0  0  0  0  0
   58.6280   22.4080   44.5250 C   0  0  0  0  0  0  0  0  0  0  0  0
   58.4740   23.2950   45.5910 C   0  0  0  0  0  0  0  0  0  0  0  0
   57.2050   23.7920   45.9380 C   0  0  0  0  0  0  0  0  0  0  0  0
   57.1110   24.6910   47.1120 C   0  0  0  0  0  0  0  0  0  0  0  0
   56.0950   24.6650   47.8540 O   0  0  0  0  0  0  0  0  0  0  0  0
   58.1900   25.5950   47.3930 N   0  0  0  0  0  0  0  0  0  0  0  0
   58.4210   26.8700   46.7760 C   0  0  0  0  0  0  0  0  0  0  0  0
   59.6410   27.5310   47.0330 C   0  0  0  0  0  0  0  0  0  0  0  0
   59.9100   28.7910   46.4740 C   0  0  0  0  0  0  0  0  0  0  0  0
   58.9410   29.3890   45.6690 C   0  0  0  0  0  0  0  0  0  0  0  0
   59.0750   30.6050   45.0840 N   0  0  0  0  0  0  0  0  0  0  0  0
   57.9590   30.9250   44.3840 C   0  0  0  0  0  0  0  0  0  0  0  0
   57.7650   32.4660   43.4940 S   0  0  0  0  0  0  0  0  0  0  0  0
   57.1580   33.4070   44.9400 C   0  0  0  0  0  0  0  0  0  0  0  0
   58.2420   33.5820   45.9690 C   0  0  0  0  0  0  0  0  0  0  0  0
   58.1400   32.9590   47.2240 C   0  0  0  0  0  0  0  0  0  0  0  0
   59.1340   33.1520   48.1890 C   0  0  0  0  0  0  0  0  0  0  0  0
   60.2340   33.9680   47.9090 C   0  0  0  0  0  0  0  0  0  0  0  0
   61.4760   34.2130   49.1230 Cl  0  0  0  0  0  0  0  0  0  0  0  0
   60.3420   34.5910   46.6610 C   0  0  0  0  0  0  0  0  0  0  0  0
   59.3500   34.4010   45.6950 C   0  0  0  0  0  0  0  0  0  0  0  0
   56.7750   29.7170   44.4570 S   0  0  0  0  0  0  0  0  0  0  0  0
   57.7360   28.7470   45.4330 C   0  0  0  0  0  0  0  0  0  0  0  0
   57.4420   27.4990   45.9740 C   0  0  0  0  0  0  0  0  0  0  0  0
   55.2450   25.7460   46.7410 H   0  0  0  0  0  0  0  0  0  0  0  0
   53.6200   25.9590   46.3750 H   0  0  0  0  0  0  0  0  0  0  0  0
   55.3809   22.1778   43.5121 H   0  0  0  0  0  0  0  0  0  0  0  0
   57.6394   21.2936   42.9570 H   0  0  0  0  0  0  0  0  0  0  0  0
   59.6273   22.0276   44.2667 H   0  0  0  0  0  0  0  0  0  0  0  0
   59.3565   23.6096   46.1674 H   0  0  0  0  0  0  0  0  0  0  0  0
   60.3914   27.0530   47.6798 H   0  0  0  0  0  0  0  0  0  0  0  0
   60.8674   29.2968   46.6676 H   0  0  0  0  0  0  0  0  0  0  0  0
   56.8170   34.3980   44.6059 H   0  0  0  0  0  0  0  0  0  0  0  0
   56.3299   32.8462   45.3981 H   0  0  0  0  0  0  0  0  0  0  0  0
   57.2754   32.3171   47.4486 H   0  0  0  0  0  0  0  0  0  0  0  0
   59.0500   32.6609   49.1697 H   0  0  0  0  0  0  0  0  0  0  0  0
   61.2087   35.2312   46.4398 H   0  0  0  0  0  0  0  0  0  0  0  0
   59.4372   34.8949   44.7160 H   0  0  0  0  0  0  0  0  0  0  0  0
   56.4731   27.0148   45.7824 H   0  0  0  0  0  0  0  0  0  0  0  0
  1  2  1  0
  2  3  2  0
  2  4  2  0
  2  5  1  0
  5  6  2  0
  6  7  1  0
  7  8  2  0
  8  9  1  0
  9 10  2  0
 10 11  1  0
 11 12  2  0
 11 13  1  0
 13 14  1  0
 14 15  2  0
 15 16  1  0
 16 17  2  0
 17 18  1  0
 18 19  2  0
 19 20  1  0
 20 21  1  0
 21 22  1  0
 22 23  2  0
 23 24  1  0
 24 25  2  0
 25 26  1  0
 25 27  1  0
 27 28  2  0
 19 29  1  0
 29 30  1  0
 30 31  2  0
 10  5  1  0
 31 14  1  0
 30 17  1  0
 28 22  1  0
  1 32  1  0
  1 33  1  0
  6 34  1  0
  7 35  1  0
  8 36  1  0
  9 37  1  0
 15 38  1  0
 16 39  1  0
 21 40  1  0
 21 41  1  0
 23 42  1  0
 24 43  1  0
 27 44  1  0
 28 45  1  0
 31 46  1  0
M  CHG  1  13  -1
M  END
>  <UniqueID>  (39) 
36

>  <SMILES>  (39) 
NS(=O)(=O)c1ccccc1C(=O)[N-]c1ccc2nc(SCc3ccc(Cl)cc3)sc2c1

>  <Energy>  (39) 
89.54933309832755

>  <Genealogy>  (39) 
NS(=O)(=O)c1ccccc1C(=O)[N-]c1ccc2nc(SCc3ccc(Cl)cc3)sc2c1 (protonated)
NS(=O)(=O)c1ccccc1C(=O)[N-]c1ccc2nc(SCc3ccc(Cl)cc3)sc2c1 (3D coordinates assigned)
NS(=O)(=O)c1ccccc1C(=O)[N-]c1ccc2nc(SCc3ccc(Cl)cc3)sc2c1 (optimized conformer: 89.54933309832755 kcal/mol)

>  <smiles>  (39) 
NS(=O)(=O)c1ccccc1C(=O)Nc1ccc2nc(SCc3ccc(Cl)cc3)sc2c1

>  <score_type>  (39) 
oracle

>  <origin>  (39) 
adg

>  <m_score__min__energy>  (39) 
-11.880000000000001

>  <m_primary>  (39) 
energy

$$$$
39:0
     RDKit          3D

 56 59  0  0  0  0  0  0  0  0999 V2000
   58.0200   32.0220   42.5450 C   0  0  0  0  0  0  0  0  0  0  0  0
   57.1190   31.1400   42.9730 C   0  0  0  0  0  0  0  0  0  0  0  0
   56.6580   31.1020   44.3770 C   0  0  0  0  0  0  0  0  0  0  0  0
   56.2530   30.0200   44.8790 O   0  0  0  0  0  0  0  0  0  0  0  0
   56.6090   32.2920   45.1750 N   0  0  0  0  0  0  0  0  0  0  0  0
   57.7310   32.9640   45.7650 C   0  0  0  0  0  0  0  0  0  0  0  0
   57.9770   34.2920   45.3960 C   0  0  0  0  0  0  0  0  0  0  0  0
   59.0880   34.9730   45.8990 C   0  0  0  0  0  0  0  0  0  0  0  0
   59.9600   34.3340   46.7820 C   0  0  0  0  0  0  0  0  0  0  0  0
   59.7060   33.0200   47.1850 C   0  0  0  0  0  0  0  0  0  0  0  0
   58.5770   32.3380   46.7140 C   0  0  0  0  0  0  0  0  0  0  0  0
   58.3350   31.0460   47.2020 O   0  0  0  0  0  0  0  0  0  0  0  0
   58.9010   29.8740   46.6790 C   0  0  0  0  0  0  0  0  0  0  0  0
   60.2010   29.9290   46.1690 C   0  0  0  0  0  0  0  0  0  0  0  0
   60.7850   28.7770   45.6410 C   0  0  0  0  0  0  0  0  0  0  0  0
   60.0940   27.6060   45.6380 N   0  0  0  0  0  0  0  0  0  0  0  0
   58.8330   27.5100   46.1460 C   0  0  0  0  0  0  0  0  0  0  0  0
   58.1870   26.3800   46.1280 N   0  0  0  0  0  0  0  0  0  0  0  0
   57.4830   25.8360   45.0000 C   0  0  0  0  0  0  0  0  0  0  0  0
   57.7690   26.2560   43.8480 O   0  0  0  0  0  0  0  0  0  0  0  0
   56.4110   24.8360   45.1520 C   0  0  0  0  0  0  0  0  0  0  0  0
   56.5720   23.1970   44.8090 S   0  0  0  0  0  0  0  0  0  0  0  0
   54.9810   22.7650   45.1450 C   0  0  0  0  0  0  0  0  0  0  0  0
   54.2870   23.9130   45.5140 C   0  0  0  0  0  0  0  0  0  0  0  0
   52.8190   23.9120   45.8400 C   0  0  0  0  0  0  0  0  0  0  0  0
   52.1270   22.7890   45.2020 N   0  0  0  0  0  0  0  0  0  0  0  0
   51.9670   21.4320   46.2820 S   0  0  0  0  0  0  0  0  0  0  0  0
   52.7300   20.2640   45.7260 O   0  0  0  0  0  0  0  0  0  0  0  0
   50.5220   21.0400   46.4270 O   0  0  0  0  0  0  0  0  0  0  0  0
   52.6320   21.8440   47.8510 C   0  0  0  0  0  0  0  0  0  0  0  0
   51.9130   22.2580   48.9490 C   0  0  0  0  0  0  0  0  0  0  0  0
   52.7950   22.5450   49.9180 N   0  0  0  0  0  0  0  0  0  0  0  0
   52.5050   23.1350   51.2180 C   0  0  0  0  0  0  0  0  0  0  0  0
   54.0160   22.3220   49.3920 C   0  0  0  0  0  0  0  0  0  0  0  0
   53.9540   21.8840   48.1150 N   0  0  0  0  0  0  0  0  0  0  0  0
   55.0860   25.0680   45.5170 C   0  0  0  0  0  0  0  0  0  0  0  0
   54.5870   26.3310   45.8160 O   0  0  0  0  0  0  0  0  0  0  0  0
   58.2120   28.6480   46.6720 C   0  0  0  0  0  0  0  0  0  0  0  0
   58.3369   32.0174   41.4917 H   0  0  0  0  0  0  0  0  0  0  0  0
   58.4474   32.7553   43.2448 H   0  0  0  0  0  0  0  0  0  0  0  0
   56.7036   30.4150   42.2576 H   0  0  0  0  0  0  0  0  0  0  0  0
   57.2903   34.8028   44.7049 H   0  0  0  0  0  0  0  0  0  0  0  0
   59.2760   36.0144   45.5988 H   0  0  0  0  0  0  0  0  0  0  0  0
   60.8464   34.8642   47.1604 H   0  0  0  0  0  0  0  0  0  0  0  0
   60.3979   32.5178   47.8772 H   0  0  0  0  0  0  0  0  0  0  0  0
   60.7610   30.8757   46.1837 H   0  0  0  0  0  0  0  0  0  0  0  0
   61.8036   28.8162   45.2275 H   0  0  0  0  0  0  0  0  0  0  0  0
   54.5618   21.7499   45.0835 H   0  0  0  0  0  0  0  0  0  0  0  0
   52.6952   23.8350   46.9303 H   0  0  0  0  0  0  0  0  0  0  0  0
   52.3811   24.8471   45.4607 H   0  0  0  0  0  0  0  0  0  0  0  0
   50.8182   22.3386   49.0190 H   0  0  0  0  0  0  0  0  0  0  0  0
   52.8403   22.4529   52.0132 H   0  0  0  0  0  0  0  0  0  0  0  0
   53.0339   24.0950   51.3112 H   0  0  0  0  0  0  0  0  0  0  0  0
   51.4218   23.3026   51.3112 H   0  0  0  0  0  0  0  0  0  0  0  0
   54.9566   22.4788   49.9403 H   0  0  0  0  0  0  0  0  0  0  0  0
   57.1914   28.5842   47.0775 H   0  0  0  0  0  0  0  0  0  0  0  0
  1  2  2  0
  2  3  1  0
  3  4  2  0
  3  5  1  0
  5  6  1  0
  6  7  2  0
  7  8  1  0
  8  9  2  0
  9 10  1  0
 10 11  2  0
 11 12  1  0
 12 13  1  0
 13 14  1  0
 14 15  2  0
 15 16  1  0
 16 17  1  0
 17 18  2  3
 18 19  1  0
 19 20  2  0
 19 21  1  0
 21 22  1  0
 22 23  1  0
 23 24  2  0
 24 25  1  0
 25 26  1  0
 26 27  1  0
 27 28  2  0
 27 29  2  0
 27 30  1  0
 30 31  2  0
 31 32  1  0
 32 33  1  0
 32 34  1  0
 34 35  2  0
 24 36  1  0
 36 37  1  0
 17 38  1  0
 11  6  1  0
 38 13  2  0
 36 21  2  0
 35 30  1  0
  1 39  1  0
  1 40  1  0
  2 41  1  0
  7 42  1  0
  8 43  1  0
  9 44  1  0
 10 45  1  0
 14 46  1  0
 15 47  1  0
 23 48  1  0
 25 49  1  0
 25 50  1  0
 31 51  1  0
 33 52  1  0
 33 53  1  0
 33 54  1  0
 34 55  1  0
 38 56  1  0
M  CHG  4   5  -1  16  -1  26  -1  37  -1
M  END
>  <UniqueID>  (40) 
37

>  <SMILES>  (40) 
C=CC(=O)[N-]c1ccccc1Oc1cc[n-]c(=NC(=O)c2scc(C[N-]S(=O)(=O)c3cn(C)cn3)c2[O-])c1

>  <Energy>  (40) 
129.40806367942727

>  <Genealogy>  (40) 
C=CC(=O)[N-]c1ccccc1Oc1cc[n-]c(=NC(=O)c2scc(C[N-]S(=O)(=O)c3cn(C)cn3)c2[O-])c1 (protonated)
C=CC(=O)[N-]c1ccccc1Oc1cc[n-]c(=NC(=O)c2scc(C[N-]S(=O)(=O)c3cn(C)cn3)c2[O-])c1 (3D coordinates assigned)
C=CC(=O)[N-]c1ccccc1Oc1cc[n-]c(=NC(=O)c2scc(C[N-]S(=O)(=O)c3cn(C)cn3)c2[O-])c1 (optimized conformer: 129.40806367942727 kcal/mol)

>  <smiles>  (40) 
C=CC(=O)Nc1ccccc1Oc1cc[nH]c(=NC(=O)c2scc(CNS(=O)(=O)c3cn(C)cn3)c2O)c1

>  <score_type>  (40) 
oracle

>  <origin>  (40) 
adg

>  <m_score__min__energy>  (40) 
-16.280000000000001

>  <m_primary>  (40) 
energy

$$$$
40:0
     RDKit          3D

 42 44  0  0  0  0  0  0  0  0999 V2000
   55.0380   26.4270   45.9970 N   0  0  0  0  0  0  0  0  0  0  0  0
   56.6210   25.7300   45.9600 S   0  0  0  0  0  0  0  0  0  0  0  0
   56.7260   24.7700   44.8080 O   0  0  0  0  0  0  0  0  0  0  0  0
   56.8490   24.9810   47.2430 O   0  0  0  0  0  0  0  0  0  0  0  0
   57.8240   27.0040   45.7740 C   0  0  0  0  0  0  0  0  0  0  0  0
   58.3090   27.3170   44.4970 C   0  0  0  0  0  0  0  0  0  0  0  0
   59.2790   28.3080   44.3380 C   0  0  0  0  0  0  0  0  0  0  0  0
   59.7650   28.9990   45.4510 C   0  0  0  0  0  0  0  0  0  0  0  0
   59.2750   28.7140   46.7310 C   0  0  0  0  0  0  0  0  0  0  0  0
   59.8230   29.4260   47.8500 N   0  0  0  0  0  0  0  0  0  0  0  0
   59.7050   30.8330   48.1100 C   0  0  0  0  0  0  0  0  0  0  0  0
   58.6850   31.2760   48.7050 O   0  0  0  0  0  0  0  0  0  0  0  0
   60.7590   31.7660   47.6260 C   0  0  0  0  0  0  0  0  0  0  0  0
   62.1070   31.4950   47.9350 C   0  0  0  0  0  0  0  0  0  0  0  0
   63.1250   32.3490   47.5060 C   0  0  0  0  0  0  0  0  0  0  0  0
   62.8170   33.4830   46.7590 C   0  0  0  0  0  0  0  0  0  0  0  0
   61.4900   33.7730   46.4440 C   0  0  0  0  0  0  0  0  0  0  0  0
   60.4480   32.9360   46.8860 C   0  0  0  0  0  0  0  0  0  0  0  0
   59.0840   33.2490   46.5610 N   0  0  0  0  0  0  0  0  0  0  0  0
   58.5810   33.5700   45.2570 C   0  0  0  0  0  0  0  0  0  0  0  0
   58.6960   34.7530   44.8380 O   0  0  0  0  0  0  0  0  0  0  0  0
   57.9690   32.5470   44.3790 C   0  0  0  0  0  0  0  0  0  0  0  0
   57.9800   32.7280   42.9860 C   0  0  0  0  0  0  0  0  0  0  0  0
   57.4030   31.7740   42.1430 C   0  0  0  0  0  0  0  0  0  0  0  0
   56.8180   30.6260   42.6820 C   0  0  0  0  0  0  0  0  0  0  0  0
   56.8170   30.4250   44.0630 C   0  0  0  0  0  0  0  0  0  0  0  0
   57.3930   31.3750   44.9140 C   0  0  0  0  0  0  0  0  0  0  0  0
   57.4240   31.1270   46.2480 F   0  0  0  0  0  0  0  0  0  0  0  0
   58.3160   27.6960   46.8910 C   0  0  0  0  0  0  0  0  0  0  0  0
   55.1570   27.4660   45.9990 H   0  0  0  0  0  0  0  0  0  0  0  0
   57.9241   26.7801   43.6174 H   0  0  0  0  0  0  0  0  0  0  0  0
   59.6616   28.5455   43.3344 H   0  0  0  0  0  0  0  0  0  0  0  0
   60.5372   29.7715   45.3206 H   0  0  0  0  0  0  0  0  0  0  0  0
   62.3604   30.5995   48.5215 H   0  0  0  0  0  0  0  0  0  0  0  0
   64.1720   32.1255   47.7586 H   0  0  0  0  0  0  0  0  0  0  0  0
   63.6214   34.1508   46.4170 H   0  0  0  0  0  0  0  0  0  0  0  0
   61.2550   34.6646   45.8442 H   0  0  0  0  0  0  0  0  0  0  0  0
   58.4459   33.6267   42.5557 H   0  0  0  0  0  0  0  0  0  0  0  0
   57.4097   31.9276   41.0538 H   0  0  0  0  0  0  0  0  0  0  0  0
   56.3578   29.8798   42.0176 H   0  0  0  0  0  0  0  0  0  0  0  0
   56.3618   29.5165   44.4842 H   0  0  0  0  0  0  0  0  0  0  0  0
   57.9505   27.4417   47.8969 H   0  0  0  0  0  0  0  0  0  0  0  0
  1  2  1  0
  2  3  2  0
  2  4  2  0
  2  5  1  0
  5  6  2  0
  6  7  1  0
  7  8  2  0
  8  9  1  0
  9 10  1  0
 10 11  1  0
 11 12  2  0
 11 13  1  0
 13 14  2  0
 14 15  1  0
 15 16  2  0
 16 17  1  0
 17 18  2  0
 18 19  1  0
 19 20  1  0
 20 21  2  0
 20 22  1  0
 22 23  2  0
 23 24  1  0
 24 25  2  0
 25 26  1  0
 26 27  2  0
 27 28  1  0
  9 29  2  0
 29  5  1  0
 18 13  1  0
 27 22  1  0
  1 30  1  0
  6 31  1  0
  7 32  1  0
  8 33  1  0
 14 34  1  0
 15 35  1  0
 16 36  1  0
 17 37  1  0
 23 38  1  0
 24 39  1  0
 25 40  1  0
 26 41  1  0
 29 42  1  0
M  CHG  3   1  -1  10  -1  19  -1
M  END
>  <UniqueID>  (41) 
38

>  <SMILES>  (41) 
[NH-]S(=O)(=O)c1cccc([N-]C(=O)c2ccccc2[N-]C(=O)c2ccccc2F)c1

>  <Energy>  (41) 
59.66969544753115

>  <Genealogy>  (41) 
[NH-]S(=O)(=O)c1cccc([N-]C(=O)c2ccccc2[N-]C(=O)c2ccccc2F)c1 (protonated)
[NH-]S(=O)(=O)c1cccc([N-]C(=O)c2ccccc2[N-]C(=O)c2ccccc2F)c1 (3D coordinates assigned)
[NH-]S(=O)(=O)c1cccc([N-]C(=O)c2ccccc2[N-]C(=O)c2ccccc2F)c1 (optimized conformer: 59.66969544753115 kcal/mol)

>  <smiles>  (41) 
NS(=O)(=O)c1cccc(NC(=O)c2ccccc2NC(=O)c2ccccc2F)c1

>  <score_type>  (41) 
oracle

>  <origin>  (41) 
adg

>  <m_score__min__energy>  (41) 
-14.32

>  <m_primary>  (41) 
energy

$$$$
41:0
     RDKit          3D

 39 40  0  0  0  0  0  0  0  0999 V2000
   54.7880   27.1170   45.1040 H   0  0  0  0  0  0  0  0  0  0  0  0
   55.1240   26.6530   45.9380 O   0  0  0  0  0  0  0  0  0  0  0  0
   56.4170   26.1370   46.0180 C   0  0  0  0  0  0  0  0  0  0  0  0
   56.6540   24.9610   46.7460 C   0  0  0  0  0  0  0  0  0  0  0  0
   55.8295   24.4797   47.2923 H   0  0  0  0  0  0  0  0  0  0  0  0
   57.9320   24.3990   46.7800 C   0  0  0  0  0  0  0  0  0  0  0  0
   58.1138   23.4806   47.3574 H   0  0  0  0  0  0  0  0  0  0  0  0
   58.9790   25.0030   46.0810 C   0  0  0  0  0  0  0  0  0  0  0  0
   59.9825   24.5528   46.0981 H   0  0  0  0  0  0  0  0  0  0  0  0
   58.7540   26.1780   45.3600 C   0  0  0  0  0  0  0  0  0  0  0  0
   59.5794   26.6420   44.8002 H   0  0  0  0  0  0  0  0  0  0  0  0
   57.4830   26.7700   45.3450 C   0  0  0  0  0  0  0  0  0  0  0  0
   57.2950   27.9740   44.5900 N   0  0  0  0  0  0  0  0  0  0  0  0
   56.6270   29.1460   45.0630 C   0  0  0  0  0  0  0  0  0  0  0  0
   55.3970   29.2800   44.8270 O   0  0  0  0  0  0  0  0  0  0  0  0
   57.3710   30.1730   45.7410 N   0  0  0  0  0  0  0  0  0  0  0  0
   58.4280   30.0280   46.4870 C   0  0  0  0  0  0  0  0  0  0  0  0
   59.5530   30.7410   46.2720 N   0  0  0  0  0  0  0  0  0  0  0  0
   60.5310   30.4220   47.1630 C   0  0  0  0  0  0  0  0  0  0  0  0
   61.8660   31.1000   47.1370 C   0  0  0  0  0  0  0  0  0  0  0  0
   62.1643   31.2742   46.0926 H   0  0  0  0  0  0  0  0  0  0  0  0
   62.6043   30.4560   47.6373 H   0  0  0  0  0  0  0  0  0  0  0  0
   61.8000   32.3490   47.8220 O   0  0  0  0  0  0  0  0  0  0  0  0
   61.4700   33.5560   47.1950 C   0  0  0  0  0  0  0  0  0  0  0  0
   62.2730   34.0750   46.3690 O   0  0  0  0  0  0  0  0  0  0  0  0
   60.1760   34.2180   47.5000 C   0  0  0  0  0  0  0  0  0  0  0  0
   59.4690   34.8060   46.5130 C   0  0  0  0  0  0  0  0  0  0  0  0
   59.0524   35.8075   46.6959 H   0  0  0  0  0  0  0  0  0  0  0  0
   59.2210   34.1660   45.1790 C   0  0  0  0  0  0  0  0  0  0  0  0
   58.8272   33.1497   45.3274 H   0  0  0  0  0  0  0  0  0  0  0  0
   58.4895   34.7640   44.6157 H   0  0  0  0  0  0  0  0  0  0  0  0
   60.1645   34.1150   44.6157 H   0  0  0  0  0  0  0  0  0  0  0  0
   59.6460   34.1900   48.9140 C   0  0  0  0  0  0  0  0  0  0  0  0
   60.4869   34.2344   49.6217 H   0  0  0  0  0  0  0  0  0  0  0  0
   58.9851   35.0545   49.0751 H   0  0  0  0  0  0  0  0  0  0  0  0
   59.0799   33.2607   49.0751 H   0  0  0  0  0  0  0  0  0  0  0  0
   60.1870   29.4510   48.1020 C   0  0  0  0  0  0  0  0  0  0  0  0
   60.8356   29.0644   48.9019 H   0  0  0  0  0  0  0  0  0  0  0  0
   58.6040   28.9760   47.7940 S   0  0  0  0  0  0  0  0  0  0  0  0
  1  2  1  0
  2  3  1  0
  3  4  2  0
  4  5  1  0
  4  6  1  0
  6  7  1  0
  6  8  2  0
  8  9  1  0
  8 10  1  0
 10 11  1  0
 10 12  2  0
 12 13  1  0
 13 14  1  0
 14 15  2  0
 14 16  1  0
 16 17  2  0
 17 18  1  0
 18 19  1  0
 19 20  1  0
 20 21  1  0
 20 22  1  0
 20 23  1  0
 23 24  1  0
 24 25  2  0
 24 26  1  0
 26 27  2  3
 27 28  1  0
 27 29  1  0
 29 30  1  0
 29 31  1  0
 29 32  1  0
 26 33  1  0
 33 34  1  0
 33 35  1  0
 33 36  1  0
 19 37  2  0
 37 38  1  0
 37 39  1  0
 12  3  1  0
 39 17  1  0
M  CHG  2  13  -1  18  -1
M  END
>  <UniqueID>  (42) 
39

>  <SMILES>  (42) 
CC=C(C)C(=O)OCc1cs/c(=N\C(=O)[N-]c2ccccc2O)[n-]1

>  <Energy>  (42) 
72.77617240893211

>  <Genealogy>  (42) 
CC=C(C)C(=O)OCc1csc(=NC(=O)[N-]c2ccccc2O)[n-]1 (protonated)
CC=C(C)C(=O)OCc1cs/c(=N\C(=O)[N-]c2ccccc2O)[n-]1 (cis-trans isomerization)
CC=C(C)C(=O)OCc1cs/c(=N\C(=O)[N-]c2ccccc2O)[n-]1 (3D coordinates assigned)
CC=C(C)C(=O)OCc1cs/c(=N\C(=O)[N-]c2ccccc2O)[n-]1 (optimized conformer: 72.77617240893211 kcal/mol)

>  <smiles>  (42) 
CC=C(C)C(=O)OCc1csc(=NC(=O)Nc2ccccc2O)[nH]1

>  <score_type>  (42) 
oracle

>  <origin>  (42) 
adg

>  <m_score__min__energy>  (42) 
-10.56

>  <m_primary>  (42) 
energy

$$$$
42:0
     RDKit          3D

 49 51  0  0  0  0  0  0  0  0999 V2000
   56.3910   28.0290   42.7290 H   0  0  0  0  0  0  0  0  0  0  0  0
   57.3600   28.2750   42.8930 O   0  0  0  0  0  0  0  0  0  0  0  0
   57.8340   28.5630   44.1720 C   0  0  0  0  0  0  0  0  0  0  0  0
   59.2080   28.6870   44.4090 C   0  0  0  0  0  0  0  0  0  0  0  0
   59.9209   28.5548   43.5818 H   0  0  0  0  0  0  0  0  0  0  0  0
   59.6770   28.9780   45.6920 C   0  0  0  0  0  0  0  0  0  0  0  0
   60.7591   29.0640   45.8698 H   0  0  0  0  0  0  0  0  0  0  0  0
   58.7800   29.1620   46.7580 C   0  0  0  0  0  0  0  0  0  0  0  0
   59.3270   29.4590   48.1040 C   0  0  0  0  0  0  0  0  0  0  0  0
   59.5013   28.6175   48.7907 H   0  0  0  0  0  0  0  0  0  0  0  0
   59.6210   30.6950   48.5310 C   0  0  0  0  0  0  0  0  0  0  0  0
   60.2532   31.3378   47.9008 H   0  0  0  0  0  0  0  0  0  0  0  0
   59.1270   31.2230   49.8150 C   0  0  0  0  0  0  0  0  0  0  0  0
   59.1790   32.4580   50.0660 O   0  0  0  0  0  0  0  0  0  0  0  0
   58.5390   30.3150   50.7540 N   0  0  0  0  0  0  0  0  0  0  0  0
   59.2380   29.4530   51.6670 C   0  0  0  0  0  0  0  0  0  0  0  0
   60.4160   28.7850   51.2810 C   0  0  0  0  0  0  0  0  0  0  0  0
   60.8300   28.9447   50.2745 H   0  0  0  0  0  0  0  0  0  0  0  0
   61.0620   27.9210   52.1680 C   0  0  0  0  0  0  0  0  0  0  0  0
   61.9855   27.4084   51.8607 H   0  0  0  0  0  0  0  0  0  0  0  0
   60.5380   27.7070   53.4430 C   0  0  0  0  0  0  0  0  0  0  0  0
   61.0546   27.0342   54.1433 H   0  0  0  0  0  0  0  0  0  0  0  0
   59.3600   28.3450   53.8310 C   0  0  0  0  0  0  0  0  0  0  0  0
   58.9537   28.1760   54.8391 H   0  0  0  0  0  0  0  0  0  0  0  0
   58.6890   29.2020   52.9430 C   0  0  0  0  0  0  0  0  0  0  0  0
   57.4410   29.8690   53.3730 C   0  0  0  0  0  0  0  0  0  0  0  0
   57.5160   30.9060   54.0840 O   0  0  0  0  0  0  0  0  0  0  0  0
   56.1450   29.3890   52.9890 N   0  0  0  0  0  0  0  0  0  0  0  0
   55.2910   29.9730   51.9570 C   0  0  0  0  0  0  0  0  0  0  0  0
   55.2115   31.0579   52.1206 H   0  0  0  0  0  0  0  0  0  0  0  0
   55.7323   29.7766   50.9687 H   0  0  0  0  0  0  0  0  0  0  0  0
   53.8970   29.3480   52.0180 C   0  0  0  0  0  0  0  0  0  0  0  0
   53.7324   28.7418   51.1150 H   0  0  0  0  0  0  0  0  0  0  0  0
   53.8294   28.7168   52.9164 H   0  0  0  0  0  0  0  0  0  0  0  0
   52.8420   30.4180   52.0950 C   0  0  0  0  0  0  0  0  0  0  0  0
   52.3310   30.8250   53.3380 C   0  0  0  0  0  0  0  0  0  0  0  0
   52.6832   30.3405   54.2606 H   0  0  0  0  0  0  0  0  0  0  0  0
   51.3760   31.8440   53.4070 C   0  0  0  0  0  0  0  0  0  0  0  0
   50.9722   32.1525   54.3826 H   0  0  0  0  0  0  0  0  0  0  0  0
   50.9330   32.4720   52.2380 C   0  0  0  0  0  0  0  0  0  0  0  0
   49.9830   33.4840   52.3150 O   0  0  0  0  0  0  0  0  0  0  0  0
   51.4480   32.0810   50.9960 C   0  0  0  0  0  0  0  0  0  0  0  0
   51.0160   32.7060   49.8320 O   0  0  0  0  0  0  0  0  0  0  0  0
   52.4030   31.0610   50.9250 C   0  0  0  0  0  0  0  0  0  0  0  0
   52.8121   30.7610   49.9490 H   0  0  0  0  0  0  0  0  0  0  0  0
   57.3980   29.0190   46.5140 C   0  0  0  0  0  0  0  0  0  0  0  0
   56.6823   29.1387   47.3407 H   0  0  0  0  0  0  0  0  0  0  0  0
   56.9310   28.7260   45.2280 C   0  0  0  0  0  0  0  0  0  0  0  0
   55.5650   28.5940   45.0040 O   0  0  0  0  0  0  0  0  0  0  0  0
  1  2  1  0
  2  3  1  0
  3  4  2  0
  4  5  1  0
  4  6  1  0
  6  7  1  0
  6  8  2  0
  8  9  1  0
  9 10  1  0
  9 11  2  0
 11 12  1  0
 11 13  1  0
 13 14  2  0
 13 15  1  0
 15 16  1  0
 16 17  2  0
 17 18  1  0
 17 19  1  0
 19 20  1  0
 19 21  2  0
 21 22  1  0
 21 23  1  0
 23 24  1  0
 23 25  2  0
 25 26  1  0
 26 27  2  0
 26 28  1  0
 28 29  1  0
 29 30  1  0
 29 31  1  0
 29 32  1  0
 32 33  1  0
 32 34  1  0
 32 35  1  0
 35 36  2  0
 36 37  1  0
 36 38  1  0
 38 39  1  0
 38 40  2  0
 40 41  1  0
 40 42  1  0
 42 43  1  0
 42 44  2  0
 44 45  1  0
  8 46  1  0
 46 47  1  0
 46 48  2  0
 48 49  1  0
 48  3  1  0
 25 16  1  0
 44 35  1  0
M  CHG  5  15  -1  28  -1  41  -1  43  -1  49  -1
M  END
>  <UniqueID>  (43) 
40

>  <SMILES>  (43) 
O=C(/C=C/c1ccc(O)c([O-])c1)[N-]c1ccccc1C(=O)[N-]CCc1ccc([O-])c([O-])c1

>  <Energy>  (43) 
60.833750359216154

>  <Genealogy>  (43) 
O=C(C=Cc1ccc(O)c([O-])c1)[N-]c1ccccc1C(=O)[N-]CCc1ccc([O-])c([O-])c1 (protonated)
O=C(/C=C/c1ccc(O)c([O-])c1)[N-]c1ccccc1C(=O)[N-]CCc1ccc([O-])c([O-])c1 (cis-trans isomerization)
O=C(/C=C/c1ccc(O)c([O-])c1)[N-]c1ccccc1C(=O)[N-]CCc1ccc([O-])c([O-])c1 (3D coordinates assigned)
O=C(/C=C/c1ccc(O)c([O-])c1)[N-]c1ccccc1C(=O)[N-]CCc1ccc([O-])c([O-])c1 (optimized conformer: 60.833750359216154 kcal/mol)

>  <smiles>  (43) 
O=C(C=Cc1ccc(O)c(O)c1)Nc1ccccc1C(=O)NCCc1ccc(O)c(O)c1

>  <score_type>  (43) 
oracle

>  <origin>  (43) 
adg

>  <m_score__min__energy>  (43) 
-22.239999999999998

>  <m_primary>  (43) 
energy

$$$$
43:0
     RDKit          3D

 28 29  0  0  0  0  0  0  0  0999 V2000
   55.1440   27.4650   46.0130 H   0  0  0  0  0  0  0  0  0  0  0  0
   55.1830   26.4210   45.9900 N   0  0  0  0  0  0  0  0  0  0  0  0
   56.8350   25.9730   46.2240 S   0  0  0  0  0  0  0  0  0  0  0  0
   57.3150   25.1770   45.0430 O   0  0  0  0  0  0  0  0  0  0  0  0
   56.9490   25.1230   47.4580 O   0  0  0  0  0  0  0  0  0  0  0  0
   57.8160   27.4230   46.3960 C   0  0  0  0  0  0  0  0  0  0  0  0
   58.2320   27.8440   47.6650 C   0  0  0  0  0  0  0  0  0  0  0  0
   57.9214   27.2828   48.5586 H   0  0  0  0  0  0  0  0  0  0  0  0
   59.0190   28.9450   47.7950 N   0  0  0  0  0  0  0  0  0  0  0  0
   59.4260   29.6670   46.7160 C   0  0  0  0  0  0  0  0  0  0  0  0
   60.5190   31.0690   46.9540 S   0  0  0  0  0  0  0  0  0  0  0  0
   59.5350   32.2220   45.9280 C   0  0  0  0  0  0  0  0  0  0  0  0
   60.0133   33.2125   45.9415 H   0  0  0  0  0  0  0  0  0  0  0  0
   59.4922   31.8272   44.9022 H   0  0  0  0  0  0  0  0  0  0  0  0
   58.1390   32.3470   46.4470 C   0  0  0  0  0  0  0  0  0  0  0  0
   57.9420   32.4230   47.6900 O   0  0  0  0  0  0  0  0  0  0  0  0
   57.0500   32.4080   45.5120 N   0  0  0  0  0  0  0  0  0  0  0  0
   56.7660   31.5420   44.5830 C   0  0  0  0  0  0  0  0  0  0  0  0
   55.9010   30.5290   44.7950 N   0  0  0  0  0  0  0  0  0  0  0  0
   55.7920   29.7230   43.7040 C   0  0  0  0  0  0  0  0  0  0  0  0
   55.1299   28.8448   43.6836 H   0  0  0  0  0  0  0  0  0  0  0  0
   56.5770   30.0890   42.6180 C   0  0  0  0  0  0  0  0  0  0  0  0
   56.6264   29.5664   41.6514 H   0  0  0  0  0  0  0  0  0  0  0  0
   57.4390   31.4710   43.0390 S   0  0  0  0  0  0  0  0  0  0  0  0
   59.0210   29.2900   45.4310 C   0  0  0  0  0  0  0  0  0  0  0  0
   59.3320   29.8780   44.5549 H   0  0  0  0  0  0  0  0  0  0  0  0
   58.2170   28.1580   45.2730 C   0  0  0  0  0  0  0  0  0  0  0  0
   57.8993   27.8444   44.2677 H   0  0  0  0  0  0  0  0  0  0  0  0
  1  2  1  0
  2  3  1  0
  3  4  2  0
  3  5  2  0
  3  6  1  0
  6  7  2  0
  7  8  1  0
  7  9  1  0
  9 10  2  0
 10 11  1  0
 11 12  1  0
 12 13  1  0
 12 14  1  0
 12 15  1  0
 15 16  2  0
 15 17  1  0
 17 18  2  0
 18 19  1  0
 19 20  1  0
 20 21  1  0
 20 22  2  0
 22 23  1  0
 22 24  1  0
 10 25  1  0
 25 26  1  0
 25 27  2  0
 27 28  1  0
 27  6  1  0
 24 18  1  0
M  CHG  2   2  -1  19  -1
M  END
>  <UniqueID>  (44) 
41

>  <SMILES>  (44) 
[NH-]S(=O)(=O)c1ccc(SCC(=O)/N=c2/[n-]ccs2)nc1

>  <Energy>  (44) 
55.742736244715886

>  <Genealogy>  (44) 
[NH-]S(=O)(=O)c1ccc(SCC(=O)N=c2[n-]ccs2)nc1 (protonated)
[NH-]S(=O)(=O)c1ccc(SCC(=O)/N=c2/[n-]ccs2)nc1 (cis-trans isomerization)
[NH-]S(=O)(=O)c1ccc(SCC(=O)/N=c2/[n-]ccs2)nc1 (3D coordinates assigned)
[NH-]S(=O)(=O)c1ccc(SCC(=O)/N=c2/[n-]ccs2)nc1 (optimized conformer: 55.742736244715886 kcal/mol)

>  <smiles>  (44) 
NS(=O)(=O)c1ccc(SCC(=O)N=c2[nH]ccs2)nc1

>  <score_type>  (44) 
oracle

>  <origin>  (44) 
adg

>  <m_score__min__energy>  (44) 
-11.140000000000001

>  <m_primary>  (44) 
energy

$$$$
44:0
     RDKit          3D

 42 43  0  0  0  0  0  0  0  0999 V2000
   63.7760   33.1250   47.2180 C   0  0  0  0  0  0  0  0  0  0  0  0
   62.3000   33.3180   47.6090 C   0  0  0  0  0  0  0  0  0  0  0  0
   62.2480   34.2470   48.8390 C   0  0  0  0  0  0  0  0  0  0  0  0
   61.7120   31.9330   47.9550 C   0  0  0  0  0  0  0  0  0  0  0  0
   61.6390   33.9480   46.4450 N   0  0  0  0  0  0  0  0  0  0  0  0
   59.9220   34.2550   46.5610 S   0  0  0  0  0  0  0  0  0  0  0  0
   59.5570   34.3320   48.0160 O   0  0  0  0  0  0  0  0  0  0  0  0
   59.5900   35.5830   45.9350 O   0  0  0  0  0  0  0  0  0  0  0  0
   58.9560   32.9740   45.8370 C   0  0  0  0  0  0  0  0  0  0  0  0
   59.3420   31.6380   46.0020 C   0  0  0  0  0  0  0  0  0  0  0  0
   58.5890   30.6110   45.4280 C   0  0  0  0  0  0  0  0  0  0  0  0
   57.4380   30.9100   44.6880 C   0  0  0  0  0  0  0  0  0  0  0  0
   56.4810   29.6060   43.9910 S   0  0  0  0  0  0  0  0  0  0  0  0
   57.3510   28.8110   43.0580 O   0  0  0  0  0  0  0  0  0  0  0  0
   55.3110   30.1540   43.2230 O   0  0  0  0  0  0  0  0  0  0  0  0
   55.8970   28.5660   45.2500 N   0  0  0  0  0  0  0  0  0  0  0  0
   56.5550   27.3780   45.7140 C   0  0  0  0  0  0  0  0  0  0  0  0
   57.9560   27.3030   45.8360 C   0  0  0  0  0  0  0  0  0  0  0  0
   58.5620   26.1220   46.2810 C   0  0  0  0  0  0  0  0  0  0  0  0
   60.3090   26.0310   46.4170 Cl  0  0  0  0  0  0  0  0  0  0  0  0
   57.7780   25.0130   46.6090 C   0  0  0  0  0  0  0  0  0  0  0  0
   56.3880   25.0840   46.4970 C   0  0  0  0  0  0  0  0  0  0  0  0
   55.7760   26.2610   46.0530 C   0  0  0  0  0  0  0  0  0  0  0  0
   54.3900   26.3160   45.9480 O   0  0  0  0  0  0  0  0  0  0  0  0
   57.0510   32.2460   44.5190 C   0  0  0  0  0  0  0  0  0  0  0  0
   57.8040   33.2740   45.0940 C   0  0  0  0  0  0  0  0  0  0  0  0
   64.3889   33.0449   48.1279 H   0  0  0  0  0  0  0  0  0  0  0  0
   63.8806   32.2055   46.6233 H   0  0  0  0  0  0  0  0  0  0  0  0
   64.1135   33.9867   46.6233 H   0  0  0  0  0  0  0  0  0  0  0  0
   62.2819   33.6421   49.7571 H   0  0  0  0  0  0  0  0  0  0  0  0
   63.1093   34.9310   48.8186 H   0  0  0  0  0  0  0  0  0  0  0  0
   61.3158   34.8306   48.8186 H   0  0  0  0  0  0  0  0  0  0  0  0
   61.6632   31.8180   49.0479 H   0  0  0  0  0  0  0  0  0  0  0  0
   60.7002   31.8481   47.5318 H   0  0  0  0  0  0  0  0  0  0  0  0
   62.3537   31.1461   47.5318 H   0  0  0  0  0  0  0  0  0  0  0  0
   60.2422   31.3963   46.5862 H   0  0  0  0  0  0  0  0  0  0  0  0
   58.9009   29.5641   45.5576 H   0  0  0  0  0  0  0  0  0  0  0  0
   58.5761   28.1750   45.5809 H   0  0  0  0  0  0  0  0  0  0  0  0
   58.2555   24.0845   46.9553 H   0  0  0  0  0  0  0  0  0  0  0  0
   55.7719   24.2112   46.7589 H   0  0  0  0  0  0  0  0  0  0  0  0
   56.1522   32.4866   43.9323 H   0  0  0  0  0  0  0  0  0  0  0  0
   57.4926   34.3209   44.9636 H   0  0  0  0  0  0  0  0  0  0  0  0
  1  2  1  0
  2  3  1  0
  2  4  1  0
  2  5  1  0
  5  6  1  0
  6  7  2  0
  6  8  2  0
  6  9  1  0
  9 10  2  0
 10 11  1  0
 11 12  2  0
 12 13  1  0
 13 14  2  0
 13 15  2  0
 13 16  1  0
 16 17  1  0
 17 18  2  0
 18 19  1  0
 19 20  1  0
 19 21  2  0
 21 22  1  0
 22 23  2  0
 23 24  1  0
 12 25  1  0
 25 26  2  0
 26  9  1  0
 23 17  1  0
  1 27  1  0
  1 28  1  0
  1 29  1  0
  3 30  1  0
  3 31  1  0
  3 32  1  0
  4 33  1  0
  4 34  1  0
  4 35  1  0
 10 36  1  0
 11 37  1  0
 18 38  1  0
 21 39  1  0
 22 40  1  0
 25 41  1  0
 26 42  1  0
M  CHG  3   5  -1  16  -1  24  -1
M  END
>  <UniqueID>  (45) 
42

>  <SMILES>  (45) 
CC(C)(C)[N-]S(=O)(=O)c1ccc(S(=O)(=O)[N-]c2cc(Cl)ccc2[O-])cc1

>  <Energy>  (45) 
46.14951186696978

>  <Genealogy>  (45) 
CC(C)(C)[N-]S(=O)(=O)c1ccc(S(=O)(=O)[N-]c2cc(Cl)ccc2[O-])cc1 (protonated)
CC(C)(C)[N-]S(=O)(=O)c1ccc(S(=O)(=O)[N-]c2cc(Cl)ccc2[O-])cc1 (3D coordinates assigned)
CC(C)(C)[N-]S(=O)(=O)c1ccc(S(=O)(=O)[N-]c2cc(Cl)ccc2[O-])cc1 (optimized conformer: 46.14951186696978 kcal/mol)

>  <smiles>  (45) 
CC(C)(C)NS(=O)(=O)c1ccc(S(=O)(=O)Nc2cc(Cl)ccc2O)cc1

>  <score_type>  (45) 
oracle

>  <origin>  (45) 
adg

>  <m_score__min__energy>  (45) 
-16.280000000000001

>  <m_primary>  (45) 
energy

$$$$
45:0
     RDKit          3D

 78 82  0  0  0  0  0  0  0  0999 V2000
   61.7640   30.7310   47.3190 H   0  0  0  0  0  0  0  0  0  0  0  0
   61.4830   31.3990   48.0020 O   0  0  0  0  0  0  0  0  0  0  0  0
   60.6680   30.7230   48.9280 C   0  0  2  0  0  0  0  0  0  0  0  0
   61.2738   30.1644   49.6567 H   0  0  0  0  0  0  0  0  0  0  0  0
   59.8070   29.6930   48.1750 C   0  0  0  0  0  0  0  0  0  0  0  0
   59.3740   28.9937   48.9054 H   0  0  0  0  0  0  0  0  0  0  0  0
   59.0259   30.2441   47.6308 H   0  0  0  0  0  0  0  0  0  0  0  0
   60.5880   28.9190   47.1810 N   0  0  0  0  0  0  0  0  0  0  0  0
   60.4240   27.4440   47.2660 C   0  0  0  0  0  0  0  0  0  0  0  0
   61.2990   26.9749   46.7924 H   0  0  0  0  0  0  0  0  0  0  0  0
   60.3280   27.2049   48.3354 H   0  0  0  0  0  0  0  0  0  0  0  0
   59.1760   26.9010   46.5940 C   0  0  0  0  0  0  0  0  0  0  0  0
   58.0060   26.6650   47.3370 C   0  0  0  0  0  0  0  0  0  0  0  0
   57.9927   26.8771   48.4163 H   0  0  0  0  0  0  0  0  0  0  0  0
   56.8620   26.1640   46.7160 C   0  0  0  0  0  0  0  0  0  0  0  0
   55.9588   25.9607   47.3100 H   0  0  0  0  0  0  0  0  0  0  0  0
   56.8620   25.9200   45.3400 C   0  0  0  0  0  0  0  0  0  0  0  0
   55.9608   25.5195   44.8528 H   0  0  0  0  0  0  0  0  0  0  0  0
   58.0040   26.1840   44.5840 C   0  0  0  0  0  0  0  0  0  0  0  0
   57.9983   26.0056   43.4986 H   0  0  0  0  0  0  0  0  0  0  0  0
   59.1550   26.6750   45.2050 C   0  0  0  0  0  0  0  0  0  0  0  0
   60.0516   26.8866   44.6039 H   0  0  0  0  0  0  0  0  0  0  0  0
   60.4210   29.4430   45.8020 C   0  0  0  0  0  0  0  0  0  0  0  0
   61.3996   29.7570   45.4100 H   0  0  0  0  0  0  0  0  0  0  0  0
   60.0009   28.6529   45.1623 H   0  0  0  0  0  0  0  0  0  0  0  0
   59.4700   30.6420   45.8130 C   0  0  0  0  0  0  0  0  0  0  0  0
   59.1334   30.8236   46.8444 H   0  0  0  0  0  0  0  0  0  0  0  0
   60.0084   31.5175   45.4211 H   0  0  0  0  0  0  0  0  0  0  0  0
   58.2670   30.3910   44.9400 C   0  0  0  0  0  0  0  0  0  0  0  0
   58.1400   31.0530   43.7050 C   0  0  0  0  0  0  0  0  0  0  0  0
   58.9485   31.7090   43.3500 H   0  0  0  0  0  0  0  0  0  0  0  0
   56.9900   30.8810   42.9260 C   0  0  0  0  0  0  0  0  0  0  0  0
   56.8955   31.4006   41.9611 H   0  0  0  0  0  0  0  0  0  0  0  0
   55.9620   30.0480   43.3760 C   0  0  0  0  0  0  0  0  0  0  0  0
   55.0591   29.9103   42.7630 H   0  0  0  0  0  0  0  0  0  0  0  0
   56.0790   29.3880   44.6060 C   0  0  0  0  0  0  0  0  0  0  0  0
   55.2683   28.7323   44.9564 H   0  0  0  0  0  0  0  0  0  0  0  0
   57.2240   29.5610   45.3890 C   0  0  0  0  0  0  0  0  0  0  0  0
   57.3095   29.0472   46.3579 H   0  0  0  0  0  0  0  0  0  0  0  0
   59.8410   31.7510   49.7620 C   0  0  2  0  0  0  0  0  0  0  0  0
   60.4411   32.6729   49.7627 H   0  0  0  0  0  0  0  0  0  0  0  0
   59.6940   31.3300   51.1630 N   0  0  0  0  0  0  0  0  0  0  0  0
   59.0170   30.1790   51.6940 C   0  0  0  0  0  0  0  0  0  0  0  0
   59.4240   29.0340   51.3710 O   0  0  0  0  0  0  0  0  0  0  0  0
   57.9390   30.3180   52.6320 N   0  0  0  0  0  0  0  0  0  0  0  0
   56.6620   30.2330   52.3790 C   0  0  0  0  0  0  0  0  0  0  0  0
   56.0540   29.0240   52.5230 N   0  0  0  0  0  0  0  0  0  0  0  0
   54.7100   28.8650   52.3870 C   0  0  0  0  0  0  0  0  0  0  0  0
   54.2641   27.8650   52.4923 H   0  0  0  0  0  0  0  0  0  0  0  0
   53.8890   29.9700   52.1130 C   0  0  0  0  0  0  0  0  0  0  0  0
   52.4170   29.8340   52.0490 C   0  0  0  0  0  0  0  0  0  0  0  0
   51.8780   28.7350   52.3550 O   0  0  0  0  0  0  0  0  0  0  0  0
   51.6140   30.9510   51.6340 N   0  0  0  0  0  0  0  0  0  0  0  0
   51.0870   31.8460   52.4200 C   0  0  0  0  0  0  0  0  0  0  0  0
   50.8550   33.1310   52.0660 N   0  0  0  0  0  0  0  0  0  0  0  0
   50.2840   33.8290   53.0840 C   0  0  0  0  0  0  0  0  0  0  0  0
   50.0134   34.8913   52.9926 H   0  0  0  0  0  0  0  0  0  0  0  0
   50.0670   33.1000   54.2510 C   0  0  0  0  0  0  0  0  0  0  0  0
   49.6211   33.4861   55.1795 H   0  0  0  0  0  0  0  0  0  0  0  0
   50.6060   31.5240   53.9940 S   0  0  0  0  0  0  0  0  0  0  0  0
   54.4950   31.2240   51.9490 C   0  0  0  0  0  0  0  0  0  0  0  0
   53.8753   32.1068   51.7331 H   0  0  0  0  0  0  0  0  0  0  0  0
   55.8780   31.3580   52.0580 C   0  0  0  0  0  0  0  0  0  0  0  0
   56.3540   32.3361   51.8944 H   0  0  0  0  0  0  0  0  0  0  0  0
   58.5020   32.1800   49.1130 C   0  0  0  0  0  0  0  0  0  0  0  0
   57.9519   31.2796   48.8022 H   0  0  0  0  0  0  0  0  0  0  0  0
   57.9296   32.7549   49.8559 H   0  0  0  0  0  0  0  0  0  0  0  0
   58.7230   33.0600   47.9050 C   0  0  0  0  0  0  0  0  0  0  0  0
   59.8850   33.8450   47.8050 C   0  0  0  0  0  0  0  0  0  0  0  0
   60.6403   33.8064   48.6038 H   0  0  0  0  0  0  0  0  0  0  0  0
   60.0880   34.6750   46.6970 C   0  0  0  0  0  0  0  0  0  0  0  0
   60.9984   35.2886   46.6285 H   0  0  0  0  0  0  0  0  0  0  0  0
   59.1340   34.7240   45.6780 C   0  0  0  0  0  0  0  0  0  0  0  0
   59.2961   35.3714   44.8036 H   0  0  0  0  0  0  0  0  0  0  0  0
   57.9740   33.9510   45.7690 C   0  0  0  0  0  0  0  0  0  0  0  0
   57.2190   33.9979   44.9704 H   0  0  0  0  0  0  0  0  0  0  0  0
   57.7710   33.1180   46.8730 C   0  0  0  0  0  0  0  0  0  0  0  0
   56.8603   32.5040   46.9343 H   0  0  0  0  0  0  0  0  0  0  0  0
  1  2  1  0
  2  3  1  0
  3  4  1  1
  3  5  1  0
  5  6  1  0
  5  7  1  0
  5  8  1  0
  8  9  1  0
  9 10  1  0
  9 11  1  0
  9 12  1  0
 12 13  2  0
 13 14  1  0
 13 15  1  0
 15 16  1  0
 15 17  2  0
 17 18  1  0
 17 19  1  0
 19 20  1  0
 19 21  2  0
 21 22  1  0
  8 23  1  0
 23 24  1  0
 23 25  1  0
 23 26  1  0
 26 27  1  0
 26 28  1  0
 26 29  1  0
 29 30  2  0
 30 31  1  0
 30 32  1  0
 32 33  1  0
 32 34  2  0
 34 35  1  0
 34 36  1  0
 36 37  1  0
 36 38  2  0
 38 39  1  0
  3 40  1  0
 40 41  1  1
 40 42  1  0
 42 43  1  0
 43 44  2  0
 43 45  1  0
 45 46  2  0
 46 47  1  0
 47 48  1  0
 48 49  1  0
 48 50  2  0
 50 51  1  0
 51 52  2  0
 51 53  1  0
 53 54  2  0
 54 55  1  0
 55 56  1  0
 56 57  1  0
 56 58  2  0
 58 59  1  0
 58 60  1  0
 50 61  1  0
 61 62  1  0
 61 63  2  0
 63 64  1  0
 40 65  1  0
 65 66  1  0
 65 67  1  0
 65 68  1  0
 68 69  2  0
 69 70  1  0
 69 71  1  0
 71 72  1  0
 71 73  2  0
 73 74  1  0
 73 75  1  0
 75 76  1  0
 75 77  2  0
 77 78  1  0
 21 12  1  0
 38 29  1  0
 63 46  1  0
 77 68  1  0
 60 54  1  0
M  CHG  3  42  -1  47  -1  55  -1
M  END
>  <UniqueID>  (46) 
43

>  <SMILES>  (46) 
O=C(/N=c1\ccc(C(=O)/N=c2\[n-]ccs2)c[n-]1)[N-][C@H](Cc1ccccc1)[C@H](O)CN(CCc1ccccc1)Cc1ccccc1

>  <Energy>  (46) 
127.16516109713434

>  <Genealogy>  (46) 
O=C(N=c1ccc(C(=O)N=c2[n-]ccs2)c[n-]1)[N-]C(Cc1ccccc1)C(O)CN(CCc1ccccc1)Cc1ccccc1 (protonated)
O=C(N=c1ccc(C(=O)N=c2[n-]ccs2)c[n-]1)[N-][C@H](Cc1ccccc1)[C@H](O)CN(CCc1ccccc1)Cc1ccccc1 (chirality)
O=C(/N=c1\ccc(C(=O)/N=c2\[n-]ccs2)c[n-]1)[N-][C@H](Cc1ccccc1)[C@H](O)CN(CCc1ccccc1)Cc1ccccc1 (cis-trans isomerization)
O=C(/N=c1\ccc(C(=O)/N=c2\[n-]ccs2)c[n-]1)[N-][C@H](Cc1ccccc1)[C@H](O)CN(CCc1ccccc1)Cc1ccccc1 (3D coordinates assigned)
O=C(/N=c1\ccc(C(=O)/N=c2\[n-]ccs2)c[n-]1)[N-][C@H](Cc1ccccc1)[C@H](O)CN(CCc1ccccc1)Cc1ccccc1 (optimized conformer: 127.16516109713434 kcal/mol)

>  <smiles>  (46) 
O=C(N=c1ccc(C(=O)N=c2[nH]ccs2)c[nH]1)NC(Cc1ccccc1)C(O)CN(CCc1ccccc1)Cc1ccccc1

>  <score_type>  (46) 
oracle

>  <origin>  (46) 
adg

>  <m_score__min__energy>  (46) 
-14.199999999999999

>  <m_primary>  (46) 
energy

$$$$
46:0
     RDKit          3D

 33 34  0  0  0  0  0  0  0  0999 V2000
   55.2240   29.7320   43.6780 C   0  0  0  0  0  0  0  0  0  0  0  0
   55.4170   28.9710   44.8630 O   0  0  0  0  0  0  0  0  0  0  0  0
   56.6290   28.3430   45.1640 C   0  0  0  0  0  0  0  0  0  0  0  0
   56.6810   27.4270   46.0310 O   0  0  0  0  0  0  0  0  0  0  0  0
   57.8730   28.7640   44.4430 C   0  0  2  0  0  0  0  0  0  0  0  0
   58.9010   27.6640   44.4370 C   0  0  0  0  0  0  0  0  0  0  0  0
   60.0240   28.0030   44.9860 N   0  0  0  0  0  0  0  0  0  0  0  0
   59.8490   29.3380   45.4220 C   0  0  0  0  0  0  0  0  0  0  0  0
   60.7630   30.0150   45.9600 O   0  0  0  0  0  0  0  0  0  0  0  0
   58.5500   29.8350   45.1610 N   0  0  0  0  0  0  0  0  0  0  0  0
   58.1430   31.5120   45.0300 S   0  0  0  0  0  0  0  0  0  0  0  0
   56.6620   31.6880   45.2160 O   0  0  0  0  0  0  0  0  0  0  0  0
   58.5110   32.0140   43.6620 O   0  0  0  0  0  0  0  0  0  0  0  0
   59.0210   32.4210   46.2560 C   0  0  0  0  0  0  0  0  0  0  0  0
   59.6430   33.6310   45.9260 C   0  0  0  0  0  0  0  0  0  0  0  0
   60.3220   34.3640   46.9050 C   0  0  0  0  0  0  0  0  0  0  0  0
   60.3770   33.8940   48.2320 C   0  0  0  0  0  0  0  0  0  0  0  0
   61.0440   34.5920   49.2500 O   0  0  0  0  0  0  0  0  0  0  0  0
   62.3060   34.2130   49.7900 C   0  0  0  0  0  0  0  0  0  0  0  0
   59.7450   32.6880   48.5550 C   0  0  0  0  0  0  0  0  0  0  0  0
   59.0670   31.9550   47.5760 C   0  0  0  0  0  0  0  0  0  0  0  0
   54.9617   30.7663   43.9451 H   0  0  0  0  0  0  0  0  0  0  0  0
   56.1511   29.7301   43.0859 H   0  0  0  0  0  0  0  0  0  0  0  0
   54.4099   29.2885   43.0859 H   0  0  0  0  0  0  0  0  0  0  0  0
   57.5429   29.0513   43.4338 H   0  0  0  0  0  0  0  0  0  0  0  0
   58.7161   26.6683   44.0077 H   0  0  0  0  0  0  0  0  0  0  0  0
   59.5976   34.0067   44.8931 H   0  0  0  0  0  0  0  0  0  0  0  0
   60.8146   35.3105   46.6379 H   0  0  0  0  0  0  0  0  0  0  0  0
   62.2543   34.2285   50.8887 H   0  0  0  0  0  0  0  0  0  0  0  0
   62.5609   33.1987   49.4492 H   0  0  0  0  0  0  0  0  0  0  0  0
   63.0776   34.9191   49.4492 H   0  0  0  0  0  0  0  0  0  0  0  0
   59.7819   32.3132   49.5885 H   0  0  0  0  0  0  0  0  0  0  0  0
   58.5691   31.0111   47.8429 H   0  0  0  0  0  0  0  0  0  0  0  0
  1  2  1  0
  2  3  1  0
  3  4  2  0
  3  5  1  0
  5  6  1  0
  6  7  2  0
  7  8  1  0
  8  9  2  0
  8 10  1  0
 10 11  1  0
 11 12  2  0
 11 13  2  0
 11 14  1  0
 14 15  2  0
 15 16  1  0
 16 17  2  0
 17 18  1  0
 18 19  1  0
 17 20  1  0
 20 21  2  0
 10  5  1  0
 21 14  1  0
  1 22  1  0
  1 23  1  0
  1 24  1  0
  5 25  1  6
  6 26  1  0
 15 27  1  0
 16 28  1  0
 19 29  1  0
 19 30  1  0
 19 31  1  0
 20 32  1  0
 21 33  1  0
M  END
>  <UniqueID>  (47) 
44

>  <SMILES>  (47) 
COC(=O)[C@@H]1C=NC(=O)N1S(=O)(=O)c1ccc(OC)cc1

>  <Energy>  (47) 
49.0390878033822

>  <Genealogy>  (47) 
COC(=O)[C@@H]1C=NC(=O)N1S(=O)(=O)c1ccc(OC)cc1 (chirality)
COC(=O)[C@@H]1C=NC(=O)N1S(=O)(=O)c1ccc(OC)cc1 (3D coordinates assigned)
COC(=O)[C@@H]1C=NC(=O)N1S(=O)(=O)c1ccc(OC)cc1 (nonaromatic ring conformer: 49.0390878033822 kcal/mol)

>  <smiles>  (47) 
COC(=O)C1C=NC(=O)N1S(=O)(=O)c1ccc(OC)cc1

>  <score_type>  (47) 
oracle

>  <origin>  (47) 
adg

>  <m_score__min__energy>  (47) 
-7.0199999999999996

>  <m_primary>  (47) 
energy

$$$$
47:0
     RDKit          3D

 56 60  0  0  0  0  0  0  0  0999 V2000
   60.0089   26.6002   47.6342 H   0  0  0  0  0  0  0  0  0  0  0  0
   59.0120   26.3970   47.2160 C   0  0  0  0  0  0  0  0  0  0  0  0
   58.4260   25.1910   47.4230 N   0  0  0  0  0  0  0  0  0  0  0  0
   57.2010   24.8920   46.9170 C   0  0  0  0  0  0  0  0  0  0  0  0
   56.6380   23.6360   47.1660 C   0  0  0  0  0  0  0  0  0  0  0  0
   57.1866   22.9016   47.7740 H   0  0  0  0  0  0  0  0  0  0  0  0
   55.3830   23.3090   46.6470 C   0  0  0  0  0  0  0  0  0  0  0  0
   54.9435   22.3228   46.8575 H   0  0  0  0  0  0  0  0  0  0  0  0
   54.6810   24.2320   45.8590 C   0  0  0  0  0  0  0  0  0  0  0  0
   53.3260   23.8810   45.3150 C   0  0  0  0  0  0  0  0  0  0  0  0
   52.6315   23.7011   46.1488 H   0  0  0  0  0  0  0  0  0  0  0  0
   52.9518   24.7119   44.6988 H   0  0  0  0  0  0  0  0  0  0  0  0
   53.4022   22.9730   44.6988 H   0  0  0  0  0  0  0  0  0  0  0  0
   55.2270   25.5060   45.6320 C   0  0  0  0  0  0  0  0  0  0  0  0
   54.6584   26.2455   45.0490 H   0  0  0  0  0  0  0  0  0  0  0  0
   56.4980   25.8480   46.1440 C   0  0  0  0  0  0  0  0  0  0  0  0
   57.0860   27.1170   45.9210 C   0  0  0  0  0  0  0  0  0  0  0  0
   56.4260   28.0240   45.2490 N   0  0  0  0  0  0  0  0  0  0  0  0
   56.8950   29.3230   44.8600 C   0  0  0  0  0  0  0  0  0  0  0  0
   56.8180   29.7530   43.5120 C   0  0  0  0  0  0  0  0  0  0  0  0
   56.3832   29.0887   42.7506 H   0  0  0  0  0  0  0  0  0  0  0  0
   57.2940   31.0240   43.1410 C   0  0  0  0  0  0  0  0  0  0  0  0
   57.2501   31.3627   42.0954 H   0  0  0  0  0  0  0  0  0  0  0  0
   57.8230   31.8410   44.1390 C   0  0  0  0  0  0  0  0  0  0  0  0
   57.8730   31.4350   45.4450 C   0  0  0  0  0  0  0  0  0  0  0  0
   57.4030   30.1880   45.8480 C   0  0  0  0  0  0  0  0  0  0  0  0
   57.4278   29.8877   46.9059 H   0  0  0  0  0  0  0  0  0  0  0  0
   58.4710   32.4390   46.1710 C   0  0  0  0  0  0  0  0  0  0  0  0
   58.6726   32.4550   47.2523 H   0  0  0  0  0  0  0  0  0  0  0  0
   58.7650   33.4290   45.2400 C   0  0  0  0  0  0  0  0  0  0  0  0
   59.4810   34.6770   45.5420 C   0  0  0  0  0  0  0  0  0  0  0  0
   59.2760   35.7090   44.8460 O   0  0  0  0  0  0  0  0  0  0  0  0
   60.3930   34.7150   46.6430 N   0  0  0  0  0  0  0  0  0  0  0  0
   61.3580   33.7120   46.9870 C   0  0  0  0  0  0  0  0  0  0  0  0
   62.6970   33.9320   46.6480 C   0  0  0  0  0  0  0  0  0  0  0  0
   62.9723   34.8121   46.0483 H   0  0  0  0  0  0  0  0  0  0  0  0
   63.6880   33.0380   47.0680 C   0  0  0  0  0  0  0  0  0  0  0  0
   64.7342   33.1993   46.7690 H   0  0  0  0  0  0  0  0  0  0  0  0
   63.3530   31.9410   47.8660 C   0  0  0  0  0  0  0  0  0  0  0  0
   64.1363   31.2415   48.1933 H   0  0  0  0  0  0  0  0  0  0  0  0
   62.0210   31.7290   48.2510 C   0  0  0  0  0  0  0  0  0  0  0  0
   61.6610   30.6390   49.1180 N   0  0  0  0  0  0  0  0  0  0  0  0
   62.2420   30.4520   49.9620 H   0  0  0  0  0  0  0  0  0  0  0  0
   60.4840   29.4380   48.6840 S   0  0  0  0  0  0  0  0  0  0  0  0
   60.5490   29.1650   47.2060 O   0  0  0  0  0  0  0  0  0  0  0  0
   59.1120   29.9500   49.0280 O   0  0  0  0  0  0  0  0  0  0  0  0
   60.7580   27.9390   49.6050 C   0  0  0  0  0  0  0  0  0  0  0  0
   60.7180   28.1580   50.6822 H   0  0  0  0  0  0  0  0  0  0  0  0
   59.9791   27.2050   49.3509 H   0  0  0  0  0  0  0  0  0  0  0  0
   61.7462   27.5280   49.3509 H   0  0  0  0  0  0  0  0  0  0  0  0
   61.0250   32.6050   47.7910 C   0  0  0  0  0  0  0  0  0  0  0  0
   59.9741   32.4248   48.0613 H   0  0  0  0  0  0  0  0  0  0  0  0
   58.3630   33.0630   43.9980 N   0  0  0  0  0  0  0  0  0  0  0  0
   58.4580   33.6110   43.1120 H   0  0  0  0  0  0  0  0  0  0  0  0
   58.3560   27.3810   46.4750 C   0  0  0  0  0  0  0  0  0  0  0  0
   58.8293   28.3623   46.3230 H   0  0  0  0  0  0  0  0  0  0  0  0
  1  2  1  0
  2  3  1  0
  3  4  1  0
  4  5  2  0
  5  6  1  0
  5  7  1  0
  7  8  1  0
  7  9  2  0
  9 10  1  0
 10 11  1  0
 10 12  1  0
 10 13  1  0
  9 14  1  0
 14 15  1  0
 14 16  2  0
 16 17  1  0
 17 18  2  0
 18 19  1  0
 19 20  2  0
 20 21  1  0
 20 22  1  0
 22 23  1  0
 22 24  2  0
 24 25  1  0
 25 26  2  0
 26 27  1  0
 25 28  1  0
 28 29  1  0
 28 30  2  0
 30 31  1  0
 31 32  2  0
 31 33  1  0
 33 34  1  0
 34 35  2  0
 35 36  1  0
 35 37  1  0
 37 38  1  0
 37 39  2  0
 39 40  1  0
 39 41  1  0
 41 42  1  0
 42 43  1  0
 42 44  1  0
 44 45  2  0
 44 46  2  0
 44 47  1  0
 47 48  1  0
 47 49  1  0
 47 50  1  0
 41 51  2  0
 51 52  1  0
 30 53  1  0
 53 54  1  0
 17 55  1  0
 55 56  1  0
 55  2  2  0
 16  4  1  0
 26 19  1  0
 51 34  1  0
 53 24  1  0
M  CHG  2   3  -1  33  -1
M  END
>  <UniqueID>  (48) 
45

>  <SMILES>  (48) 
Cc1ccc2[n-]cc/c(=N\c3ccc4[nH]c(C(=O)[N-]c5cccc(NS(C)(=O)=O)c5)cc4c3)c2c1

>  <Energy>  (48) 
112.67476672631649

>  <Genealogy>  (48) 
Cc1ccc2[n-]ccc(=Nc3ccc4[nH]c(C(=O)[N-]c5cccc(NS(C)(=O)=O)c5)cc4c3)c2c1 (protonated)
Cc1ccc2[n-]cc/c(=N\c3ccc4[nH]c(C(=O)[N-]c5cccc(NS(C)(=O)=O)c5)cc4c3)c2c1 (cis-trans isomerization)
Cc1ccc2[n-]cc/c(=N\c3ccc4[nH]c(C(=O)[N-]c5cccc(NS(C)(=O)=O)c5)cc4c3)c2c1 (3D coordinates assigned)
Cc1ccc2[n-]cc/c(=N\c3ccc4[nH]c(C(=O)[N-]c5cccc(NS(C)(=O)=O)c5)cc4c3)c2c1 (optimized conformer: 112.67476672631649 kcal/mol)

>  <smiles>  (48) 
Cc1ccc2[nH]ccc(=Nc3ccc4[nH]c(C(=O)Nc5cccc(NS(C)(=O)=O)c5)cc4c3)c2c1

>  <score_type>  (48) 
oracle

>  <origin>  (48) 
adg

>  <m_score__min__energy>  (48) 
-11.880000000000001

>  <m_primary>  (48) 
energy

$$$$
48:0
     RDKit          3D

 40 42  0  0  0  0  0  0  0  0999 V2000
   54.7710   27.3290   46.0190 H   0  0  0  0  0  0  0  0  0  0  0  0
   54.7560   26.3180   45.9940 O   0  0  0  0  0  0  0  0  0  0  0  0
   55.8760   25.5480   46.2990 C   0  0  0  0  0  0  0  0  0  0  0  0
   55.8390   24.6320   47.3030 N   0  0  0  0  0  0  0  0  0  0  0  0
   57.0210   23.9960   47.4300 C   0  0  0  0  0  0  0  0  0  0  0  0
   57.2300   23.1020   48.2900 O   0  0  0  0  0  0  0  0  0  0  0  0
   58.1620   24.5260   46.3200 S   0  0  0  0  0  0  0  0  0  0  0  0
   57.1050   25.6440   45.6320 C   0  0  0  0  0  0  0  0  0  0  0  0
   57.4350   26.5020   44.4450 C   0  0  0  0  0  0  0  0  0  0  0  0
   58.2533   26.0355   43.8768 H   0  0  0  0  0  0  0  0  0  0  0  0
   56.5403   26.5948   43.8119 H   0  0  0  0  0  0  0  0  0  0  0  0
   57.8620   27.8770   44.8930 C   0  0  0  0  0  0  0  0  0  0  0  0
   59.2280   28.1840   45.0050 C   0  0  0  0  0  0  0  0  0  0  0  0
   59.9809   27.4290   44.7348 H   0  0  0  0  0  0  0  0  0  0  0  0
   59.6380   29.4410   45.4570 C   0  0  0  0  0  0  0  0  0  0  0  0
   60.7108   29.6711   45.5349 H   0  0  0  0  0  0  0  0  0  0  0  0
   58.6860   30.4140   45.8130 C   0  0  0  0  0  0  0  0  0  0  0  0
   59.0430   31.6880   46.2830 O   0  0  0  0  0  0  0  0  0  0  0  0
   58.2500   32.8680   46.1510 C   0  0  0  0  0  0  0  0  0  0  0  0
   57.6149   32.7775   45.2574 H   0  0  0  0  0  0  0  0  0  0  0  0
   57.6295   32.9781   47.0526 H   0  0  0  0  0  0  0  0  0  0  0  0
   59.1200   34.0830   46.0150 C   0  0  0  0  0  0  0  0  0  0  0  0
   59.1200   34.6461   45.0701 H   0  0  0  0  0  0  0  0  0  0  0  0
   59.8960   34.4920   47.0260 C   0  0  0  0  0  0  0  0  0  0  0  0
   59.5338   35.3182   47.6555 H   0  0  0  0  0  0  0  0  0  0  0  0
   61.2160   33.8960   47.3470 C   0  0  0  0  0  0  0  0  0  0  0  0
   61.4010   33.3120   48.6120 C   0  0  0  0  0  0  0  0  0  0  0  0
   60.5762   33.3146   49.3398 H   0  0  0  0  0  0  0  0  0  0  0  0
   62.6240   32.7280   48.9530 C   0  0  0  0  0  0  0  0  0  0  0  0
   62.7607   32.2818   49.9491 H   0  0  0  0  0  0  0  0  0  0  0  0
   63.6730   32.7100   48.0310 C   0  0  0  0  0  0  0  0  0  0  0  0
   64.6365   32.2542   48.3030 H   0  0  0  0  0  0  0  0  0  0  0  0
   63.4990   33.2700   46.7650 C   0  0  0  0  0  0  0  0  0  0  0  0
   64.3240   33.2500   46.0377 H   0  0  0  0  0  0  0  0  0  0  0  0
   62.2770   33.8570   46.4190 C   0  0  0  0  0  0  0  0  0  0  0  0
   62.1431   34.2907   45.4170 H   0  0  0  0  0  0  0  0  0  0  0  0
   57.3260   30.1090   45.6980 C   0  0  0  0  0  0  0  0  0  0  0  0
   56.5746   30.8666   45.9654 H   0  0  0  0  0  0  0  0  0  0  0  0
   56.9100   28.8520   45.2470 C   0  0  0  0  0  0  0  0  0  0  0  0
   55.5480   28.5840   45.1520 O   0  0  0  0  0  0  0  0  0  0  0  0
  1  2  1  0
  2  3  1  0
  3  4  1  0
  4  5  1  0
  5  6  2  0
  5  7  1  0
  7  8  1  0
  8  9  1  0
  9 10  1  0
  9 11  1  0
  9 12  1  0
 12 13  2  0
 13 14  1  0
 13 15  1  0
 15 16  1  0
 15 17  2  0
 17 18  1  0
 18 19  1  0
 19 20  1  0
 19 21  1  0
 19 22  1  0
 22 23  1  0
 22 24  2  0
 24 25  1  0
 24 26  1  0
 26 27  2  0
 27 28  1  0
 27 29  1  0
 29 30  1  0
 29 31  2  0
 31 32  1  0
 31 33  1  0
 33 34  1  0
 33 35  2  0
 35 36  1  0
 17 37  1  0
 37 38  1  0
 37 39  2  0
 39 40  1  0
  8  3  2  0
 39 12  1  0
 35 26  1  0
M  CHG  2   4  -1  40  -1
M  END
>  <UniqueID>  (49) 
46

>  <SMILES>  (49) 
O=c1[n-]c(O)c(Cc2ccc(OC/C=C/c3ccccc3)cc2[O-])s1

>  <Energy>  (49) 
72.71574687933295

>  <Genealogy>  (49) 
O=c1[n-]c(O)c(Cc2ccc(OCC=Cc3ccccc3)cc2[O-])s1 (protonated)
O=c1[n-]c(O)c(Cc2ccc(OC/C=C/c3ccccc3)cc2[O-])s1 (cis-trans isomerization)
O=c1[n-]c(O)c(Cc2ccc(OC/C=C/c3ccccc3)cc2[O-])s1 (3D coordinates assigned)
O=c1[n-]c(O)c(Cc2ccc(OC/C=C/c3ccccc3)cc2[O-])s1 (optimized conformer: 72.71574687933295 kcal/mol)

>  <smiles>  (49) 
O=c1[nH]c(O)c(Cc2ccc(OCC=Cc3ccccc3)cc2O)s1

>  <score_type>  (49) 
oracle

>  <origin>  (49) 
adg

>  <m_score__min__energy>  (49) 
-14.720000000000001

>  <m_primary>  (49) 
energy

$$$$
49:0
     RDKit          3D

 39 41  0  0  0  0  0  0  0  0999 V2000
   56.9930   25.0740   48.0270 O   0  0  0  0  0  0  0  0  0  0  0  0
   57.2090   25.2650   46.7990 C   0  0  0  0  0  0  0  0  0  0  0  0
   57.5410   24.1060   45.9320 C   0  0  0  0  0  0  0  0  0  0  0  0
   58.8110   23.5020   45.9860 C   0  0  0  0  0  0  0  0  0  0  0  0
   59.1090   22.4050   45.1720 C   0  0  0  0  0  0  0  0  0  0  0  0
   60.3670   21.8180   45.2290 O   0  0  0  0  0  0  0  0  0  0  0  0
   58.1410   21.8940   44.3020 C   0  0  0  0  0  0  0  0  0  0  0  0
   56.8720   22.4780   44.2490 C   0  0  0  0  0  0  0  0  0  0  0  0
   55.9100   21.9660   43.3870 O   0  0  0  0  0  0  0  0  0  0  0  0
   56.5710   23.5750   45.0620 C   0  0  0  0  0  0  0  0  0  0  0  0
   57.1270   26.6490   46.2710 C   0  0  0  0  0  0  0  0  0  0  0  0
   55.9290   27.1340   45.7360 C   0  0  0  0  0  0  0  0  0  0  0  0
   54.7880   26.3410   45.7110 O   0  0  0  0  0  0  0  0  0  0  0  0
   55.8690   28.3950   45.2480 N   0  0  0  0  0  0  0  0  0  0  0  0
   56.9490   29.2140   45.2550 C   0  0  0  0  0  0  0  0  0  0  0  0
   56.8310   30.3770   44.7830 O   0  0  0  0  0  0  0  0  0  0  0  0
   58.1480   28.7780   45.7630 N   0  0  0  0  0  0  0  0  0  0  0  0
   59.3390   29.6540   45.7330 C   0  0  0  0  0  0  0  0  0  0  0  0
   59.4220   30.5300   46.9920 C   0  0  0  0  0  0  0  0  0  0  0  0
   59.3390   31.9970   46.6560 C   0  0  0  0  0  0  0  0  0  0  0  0
   60.4880   32.8050   46.7190 C   0  0  0  0  0  0  0  0  0  0  0  0
   60.4180   34.1560   46.3640 C   0  0  0  0  0  0  0  0  0  0  0  0
   59.2050   34.7060   45.9400 C   0  0  0  0  0  0  0  0  0  0  0  0
   58.0600   33.9070   45.8690 C   0  0  0  0  0  0  0  0  0  0  0  0
   58.1270   32.5550   46.2220 C   0  0  0  0  0  0  0  0  0  0  0  0
   58.2490   27.5000   46.2570 C   0  0  0  0  0  0  0  0  0  0  0  0
   59.3580   27.0740   46.6900 O   0  0  0  0  0  0  0  0  0  0  0  0
   59.5744   23.8956   46.6733 H   0  0  0  0  0  0  0  0  0  0  0  0
   58.3779   21.0330   43.6597 H   0  0  0  0  0  0  0  0  0  0  0  0
   55.5686   24.0262   45.0212 H   0  0  0  0  0  0  0  0  0  0  0  0
   60.2419   29.0286   45.6719 H   0  0  0  0  0  0  0  0  0  0  0  0
   59.2614   30.3140   44.8564 H   0  0  0  0  0  0  0  0  0  0  0  0
   58.5898   30.2701   47.6628 H   0  0  0  0  0  0  0  0  0  0  0  0
   60.3916   30.3432   47.4768 H   0  0  0  0  0  0  0  0  0  0  0  0
   61.4446   32.3734   47.0484 H   0  0  0  0  0  0  0  0  0  0  0  0
   61.3180   34.7860   46.4185 H   0  0  0  0  0  0  0  0  0  0  0  0
   59.1512   35.7689   45.6618 H   0  0  0  0  0  0  0  0  0  0  0  0
   57.1061   34.3416   45.5355 H   0  0  0  0  0  0  0  0  0  0  0  0
   57.2261   31.9270   46.1591 H   0  0  0  0  0  0  0  0  0  0  0  0
  1  2  2  0
  2  3  1  0
  3  4  2  0
  4  5  1  0
  5  6  1  0
  5  7  2  0
  7  8  1  0
  8  9  1  0
  8 10  2  0
  2 11  1  0
 11 12  2  0
 12 13  1  0
 12 14  1  0
 14 15  1  0
 15 16  2  0
 15 17  1  0
 17 18  1  0
 18 19  1  0
 19 20  1  0
 20 21  2  0
 21 22  1  0
 22 23  2  0
 23 24  1  0
 24 25  2  0
 17 26  1  0
 26 27  2  0
 10  3  1  0
 26 11  1  0
 25 20  1  0
  4 28  1  0
  7 29  1  0
 10 30  1  0
 18 31  1  0
 18 32  1  0
 19 33  1  0
 19 34  1  0
 21 35  1  0
 22 36  1  0
 23 37  1  0
 24 38  1  0
 25 39  1  0
M  CHG  4   6  -1   9  -1  13  -1  14  -1
M  END
>  <UniqueID>  (50) 
47

>  <SMILES>  (50) 
O=C(c1cc([O-])cc([O-])c1)c1c([O-])[n-]c(=O)n(CCc2ccccc2)c1=O

>  <Energy>  (50) 
51.780622013841665

>  <Genealogy>  (50) 
O=C(c1cc([O-])cc([O-])c1)c1c([O-])[n-]c(=O)n(CCc2ccccc2)c1=O (protonated)
O=C(c1cc([O-])cc([O-])c1)c1c([O-])[n-]c(=O)n(CCc2ccccc2)c1=O (3D coordinates assigned)
O=C(c1cc([O-])cc([O-])c1)c1c([O-])[n-]c(=O)n(CCc2ccccc2)c1=O (optimized conformer: 51.780622013841665 kcal/mol)

>  <smiles>  (50) 
O=C(c1cc(O)cc(O)c1)c1c(O)[nH]c(=O)n(CCc2ccccc2)c1=O

>  <score_type>  (50) 
oracle

>  <origin>  (50) 
adg

>  <m_score__min__energy>  (50) 
-16.41

>  <m_primary>  (50) 
energy

$$$$
50:0
     RDKit          3D

 25 25  0  0  0  0  0  0  0  0999 V2000
   57.2350   31.4570   44.3850 C   0  0  0  0  0  0  0  0  0  0  0  0
   56.0850   30.4730   44.1560 C   0  0  0  0  0  0  0  0  0  0  0  0
   56.2730   29.7300   42.8340 C   0  0  0  0  0  0  0  0  0  0  0  0
   56.0360   29.5200   45.2190 O   0  0  0  0  0  0  0  0  0  0  0  0
   57.1250   28.7320   45.6000 C   0  0  0  0  0  0  0  0  0  0  0  0
   57.9100   29.1110   46.5120 O   0  0  0  0  0  0  0  0  0  0  0  0
   57.3850   27.4460   44.8840 C   0  0  0  0  0  0  0  0  0  0  0  0
   57.2030   26.2850   45.8340 C   0  0  0  0  0  0  0  0  0  0  0  0
   55.9310   25.9550   46.3360 C   0  0  0  0  0  0  0  0  0  0  0  0
   54.8140   26.7090   45.9960 O   0  0  0  0  0  0  0  0  0  0  0  0
   55.7850   24.8860   47.1610 N   0  0  0  0  0  0  0  0  0  0  0  0
   56.8460   24.1170   47.5080 C   0  0  0  0  0  0  0  0  0  0  0  0
   56.6370   22.8390   48.5020 S   0  0  0  0  0  0  0  0  0  0  0  0
   58.0810   24.4020   47.0230 N   0  0  0  0  0  0  0  0  0  0  0  0
   58.2830   25.4590   46.1940 C   0  0  0  0  0  0  0  0  0  0  0  0
   59.4420   25.6850   45.7550 O   0  0  0  0  0  0  0  0  0  0  0  0
   57.3926   31.5918   45.4653 H   0  0  0  0  0  0  0  0  0  0  0  0
   58.1533   31.0607   43.9271 H   0  0  0  0  0  0  0  0  0  0  0  0
   56.9855   32.4256   43.9271 H   0  0  0  0  0  0  0  0  0  0  0  0
   55.1454   31.0441   44.1240 H   0  0  0  0  0  0  0  0  0  0  0  0
   56.5382   28.6819   43.0369 H   0  0  0  0  0  0  0  0  0  0  0  0
   55.3374   29.7663   42.2567 H   0  0  0  0  0  0  0  0  0  0  0  0
   57.0788   30.2069   42.2567 H   0  0  0  0  0  0  0  0  0  0  0  0
   56.6799   27.3458   44.0457 H   0  0  0  0  0  0  0  0  0  0  0  0
   58.4168   27.4449   44.5028 H   0  0  0  0  0  0  0  0  0  0  0  0
  1  2  1  0
  2  3  1  0
  2  4  1  0
  4  5  1  0
  5  6  2  0
  5  7  1  0
  7  8  1  0
  8  9  2  0
  9 10  1  0
  9 11  1  0
 11 12  1  0
 12 13  2  0
 12 14  1  0
 14 15  1  0
 15 16  2  0
 15  8  1  0
  1 17  1  0
  1 18  1  0
  1 19  1  0
  2 20  1  0
  3 21  1  0
  3 22  1  0
  3 23  1  0
  7 24  1  0
  7 25  1  0
M  CHG  3  10  -1  11  -1  14  -1
M  END
>  <UniqueID>  (51) 
48

>  <SMILES>  (51) 
CC(C)OC(=O)Cc1c([O-])[n-]c(=S)[n-]c1=O

>  <Energy>  (51) 
17.381969702405456

>  <Genealogy>  (51) 
CC(C)OC(=O)Cc1c([O-])[n-]c(=S)[n-]c1=O (protonated)
CC(C)OC(=O)Cc1c([O-])[n-]c(=S)[n-]c1=O (3D coordinates assigned)
CC(C)OC(=O)Cc1c([O-])[n-]c(=S)[n-]c1=O (optimized conformer: 17.381969702405456 kcal/mol)

>  <smiles>  (51) 
CC(C)OC(=O)Cc1c(O)[nH]c(=S)[nH]c1=O

>  <score_type>  (51) 
oracle

>  <origin>  (51) 
adg

>  <m_score__min__energy>  (51) 
-13.73

>  <m_primary>  (51) 
energy

$$$$
51:0
     RDKit          3D

 55 58  0  0  0  0  0  0  0  0999 V2000
   57.1960   26.4830   43.4710 H   0  0  0  0  0  0  0  0  0  0  0  0
   57.4050   25.5070   43.3080 O   0  0  0  0  0  0  0  0  0  0  0  0
   56.9330   24.4760   44.1240 C   0  0  0  0  0  0  0  0  0  0  0  0
   57.2320   23.1590   43.7550 C   0  0  0  0  0  0  0  0  0  0  0  0
   57.8613   22.9698   42.8729 H   0  0  0  0  0  0  0  0  0  0  0  0
   56.7390   22.0840   44.4960 C   0  0  0  0  0  0  0  0  0  0  0  0
   56.9802   21.0532   44.1972 H   0  0  0  0  0  0  0  0  0  0  0  0
   55.9400   22.3170   45.6160 C   0  0  0  0  0  0  0  0  0  0  0  0
   55.5415   21.4693   46.1928 H   0  0  0  0  0  0  0  0  0  0  0  0
   55.6460   23.6250   46.0050 C   0  0  0  0  0  0  0  0  0  0  0  0
   55.0145   23.8013   46.8883 H   0  0  0  0  0  0  0  0  0  0  0  0
   56.1490   24.7200   45.2790 C   0  0  0  0  0  0  0  0  0  0  0  0
   55.8870   26.0880   45.7850 C   0  0  0  0  0  0  0  0  0  0  0  0
   54.7900   26.3510   46.3430 O   0  0  0  0  0  0  0  0  0  0  0  0
   56.8100   27.1570   45.5510 N   0  0  0  0  0  0  0  0  0  0  0  0
   57.9830   27.4460   46.3250 C   0  0  0  0  0  0  0  0  0  0  0  0
   58.5490   26.4390   47.1280 C   0  0  0  0  0  0  0  0  0  0  0  0
   58.1278   25.4231   47.1030 H   0  0  0  0  0  0  0  0  0  0  0  0
   59.6360   26.7130   47.9540 C   0  0  0  0  0  0  0  0  0  0  0  0
   60.0821   25.9113   48.5609 H   0  0  0  0  0  0  0  0  0  0  0  0
   60.1570   28.0010   48.0110 C   0  0  0  0  0  0  0  0  0  0  0  0
   61.0064   28.2198   48.6748 H   0  0  0  0  0  0  0  0  0  0  0  0
   59.6060   29.0170   47.2290 C   0  0  0  0  0  0  0  0  0  0  0  0
   60.0180   30.0347   47.2971 H   0  0  0  0  0  0  0  0  0  0  0  0
   58.5280   28.7620   46.3510 C   0  0  0  0  0  0  0  0  0  0  0  0
   57.9880   29.8550   45.4710 C   0  0  0  0  0  0  0  0  0  0  0  0
   57.9510   31.1390   45.9270 N   0  0  0  0  0  0  0  0  0  0  0  0
   57.4680   32.1650   45.1760 C   0  0  0  0  0  0  0  0  0  0  0  0
   57.3980   33.3750   45.6490 N   0  0  0  0  0  0  0  0  0  0  0  0
   58.5050   34.3270   45.7520 C   0  0  0  0  0  0  0  0  0  0  0  0
   58.2023   35.2871   45.3086 H   0  0  0  0  0  0  0  0  0  0  0  0
   59.3771   33.9264   45.2145 H   0  0  0  0  0  0  0  0  0  0  0  0
   58.8760   34.5420   47.2240 C   0  0  0  0  0  0  0  0  0  0  0  0
   58.1889   33.9566   47.8527 H   0  0  0  0  0  0  0  0  0  0  0  0
   58.7953   35.6173   47.4415 H   0  0  0  0  0  0  0  0  0  0  0  0
   60.2970   34.1100   47.5190 C   0  0  0  0  0  0  0  0  0  0  0  0
   61.1720   33.8510   46.4490 C   0  0  0  0  0  0  0  0  0  0  0  0
   60.8120   33.9488   45.4142 H   0  0  0  0  0  0  0  0  0  0  0  0
   62.4930   33.4710   46.6890 C   0  0  0  0  0  0  0  0  0  0  0  0
   63.1718   33.2816   45.8444 H   0  0  0  0  0  0  0  0  0  0  0  0
   62.9540   33.3310   47.9970 C   0  0  0  0  0  0  0  0  0  0  0  0
   63.9960   33.0316   48.1828 H   0  0  0  0  0  0  0  0  0  0  0  0
   62.0960   33.5700   49.0710 C   0  0  0  0  0  0  0  0  0  0  0  0
   62.4641   33.4511   50.1008 H   0  0  0  0  0  0  0  0  0  0  0  0
   60.7600   33.9630   48.8460 C   0  0  0  0  0  0  0  0  0  0  0  0
   59.8780   34.2040   49.9130 O   0  0  0  0  0  0  0  0  0  0  0  0
   59.8130   33.4210   51.1010 C   0  0  0  0  0  0  0  0  0  0  0  0
   59.8678   34.0815   51.9789 H   0  0  0  0  0  0  0  0  0  0  0  0
   58.8654   32.8627   51.1208 H   0  0  0  0  0  0  0  0  0  0  0  0
   60.6556   32.7141   51.1208 H   0  0  0  0  0  0  0  0  0  0  0  0
   57.0150   31.9210   43.9210 N   0  0  0  0  0  0  0  0  0  0  0  0
   57.0100   30.6640   43.4130 C   0  0  0  0  0  0  0  0  0  0  0  0
   56.5690   30.4600   42.2510 O   0  0  0  0  0  0  0  0  0  0  0  0
   57.4800   29.5980   44.1810 C   0  0  0  0  0  0  0  0  0  0  0  0
   57.4546   28.5718   43.7857 H   0  0  0  0  0  0  0  0  0  0  0  0
  1  2  1  0
  2  3  1  0
  3  4  2  0
  4  5  1  0
  4  6  1  0
  6  7  1  0
  6  8  2  0
  8  9  1  0
  8 10  1  0
 10 11  1  0
 10 12  2  0
 12 13  1  0
 13 14  2  0
 13 15  1  0
 15 16  1  0
 16 17  2  0
 17 18  1  0
 17 19  1  0
 19 20  1  0
 19 21  2  0
 21 22  1  0
 21 23  1  0
 23 24  1  0
 23 25  2  0
 25 26  1  0
 26 27  1  0
 27 28  1  0
 28 29  2  0
 29 30  1  0
 30 31  1  0
 30 32  1  0
 30 33  1  0
 33 34  1  0
 33 35  1  0
 33 36  1  0
 36 37  2  0
 37 38  1  0
 37 39  1  0
 39 40  1  0
 39 41  2  0
 41 42  1  0
 41 43  1  0
 43 44  1  0
 43 45  2  0
 45 46  1  0
 46 47  1  0
 47 48  1  0
 47 49  1  0
 47 50  1  0
 28 51  1  0
 51 52  1  0
 52 53  2  0
 52 54  1  0
 54 55  1  0
 12  3  1  0
 25 16  1  0
 54 26  2  0
 45 36  1  0
M  CHG  3  15  -1  27  -1  51  -1
M  END
>  <UniqueID>  (52) 
49

>  <SMILES>  (52) 
COc1ccccc1CC/N=c1\[n-]c(-c2ccccc2[N-]C(=O)c2ccccc2O)cc(=O)[n-]1

>  <Energy>  (52) 
72.00161416480623

>  <Genealogy>  (52) 
COc1ccccc1CCN=c1[n-]c(-c2ccccc2[N-]C(=O)c2ccccc2O)cc(=O)[n-]1 (protonated)
COc1ccccc1CC/N=c1\[n-]c(-c2ccccc2[N-]C(=O)c2ccccc2O)cc(=O)[n-]1 (cis-trans isomerization)
COc1ccccc1CC/N=c1\[n-]c(-c2ccccc2[N-]C(=O)c2ccccc2O)cc(=O)[n-]1 (3D coordinates assigned)
COc1ccccc1CC/N=c1\[n-]c(-c2ccccc2[N-]C(=O)c2ccccc2O)cc(=O)[n-]1 (optimized conformer: 72.00161416480623 kcal/mol)

>  <smiles>  (52) 
COc1ccccc1CCN=c1[nH]c(-c2ccccc2NC(=O)c2ccccc2O)cc(=O)[nH]1

>  <score_type>  (52) 
oracle

>  <origin>  (52) 
adg

>  <m_score__min__energy>  (52) 
-14.18

>  <m_primary>  (52) 
energy

$$$$
52:0
     RDKit          3D

 69 71  0  0  1  0  0  0  0  0999 V2000
   52.5030   31.8950   51.5980 C   0  0  0  0  0  0  0  0  0  0  0  0
   53.1020   30.7820   51.2460 C   0  0  0  0  0  0  0  0  0  0  0  0
   52.3770   29.9210   50.2380 C   0  0  0  0  0  0  0  0  0  0  0  0
   54.3970   30.2860   51.7240 C   0  0  0  0  0  0  0  0  0  0  0  0
   55.3450   31.3340   52.0130 N   0  0  0  0  0  0  0  0  0  0  0  0
   56.7250   30.9340   52.1070 C   0  0  0  0  0  0  0  0  0  0  0  0
   56.9840   29.7160   51.9310 O   0  0  0  0  0  0  0  0  0  0  0  0
   57.7060   31.9210   52.3880 N   0  0  0  0  0  0  0  0  0  0  0  0
   58.6480   32.2810   51.6090 C   0  0  0  0  0  0  0  0  0  0  0  0
   58.3820   32.6410   50.3000 C   0  0  0  0  0  0  0  0  0  0  0  0
   59.4010   33.0310   49.4420 C   0  0  0  0  0  0  0  0  0  0  0  0
   59.1180   33.4000   48.0460 C   0  0  0  0  0  0  0  0  0  0  0  0
   59.5370   34.5980   47.5140 C   0  0  0  0  0  0  0  0  0  0  0  0
   59.2860   34.9860   46.2090 C   0  0  0  0  0  0  0  0  0  0  0  0
   58.5840   34.1280   45.4070 C   0  0  0  0  0  0  0  0  0  0  0  0
   58.1240   32.8870   45.8820 C   0  0  0  0  0  0  0  0  0  0  0  0
   57.4650   32.0860   45.1230 O   0  0  0  0  0  0  0  0  0  0  0  0
   56.7530   31.2090   44.4750 C   0  0  0  0  0  0  0  0  0  0  0  0
   57.4590   29.8730   44.4270 C   0  0  0  0  0  0  0  0  0  0  0  0
   58.3910   29.6030   45.3830 C   0  0  0  0  0  0  0  0  0  0  0  0
   59.0760   28.3940   45.3960 C   0  0  0  0  0  0  0  0  0  0  0  0
   58.7690   27.4730   44.3900 C   0  0  0  0  0  0  0  0  0  0  0  0
   57.8230   27.7490   43.4210 C   0  0  0  0  0  0  0  0  0  0  0  0
   57.1690   28.9600   43.4480 C   0  0  0  0  0  0  0  0  0  0  0  0
   58.4150   32.5580   47.2170 C   0  0  0  0  0  0  0  0  0  0  0  0
   60.6370   33.0330   49.9580 N   0  0  0  0  0  0  0  0  0  0  0  0
   60.8790   32.6800   51.2350 C   0  0  0  0  0  0  0  0  0  0  0  0
   62.0710   32.6960   51.7050 N   0  0  0  0  0  0  0  0  0  0  0  0
   63.2390   32.2810   51.0040 C   0  0  0  0  0  0  0  0  0  0  0  0
   63.7730   33.4330   50.1800 C   0  0  0  0  0  0  0  0  0  0  0  0
   64.0080   32.9840   48.7760 C   0  0  0  0  0  0  0  0  0  0  0  0
   62.8790   33.0990   47.8990 N   0  0  0  0  0  0  0  0  0  0  0  0
   63.2880   33.8210   46.7090 C   0  0  0  0  0  0  0  0  0  0  0  0
   62.4380   31.7910   47.5000 C   0  0  0  0  0  0  0  0  0  0  0  0
   59.9000   32.2980   52.0890 N   0  0  0  0  0  0  0  0  0  0  0  0
   52.9769   32.5675   52.3282 H   0  0  0  0  0  0  0  0  0  0  0  0
   51.5269   32.1556   51.1630 H   0  0  0  0  0  0  0  0  0  0  0  0
   51.7554   29.1828   50.7660 H   0  0  0  0  0  0  0  0  0  0  0  0
   51.7369   30.5552   49.6071 H   0  0  0  0  0  0  0  0  0  0  0  0
   53.1109   29.3982   49.6071 H   0  0  0  0  0  0  0  0  0  0  0  0
   54.2294   29.7053   52.6431 H   0  0  0  0  0  0  0  0  0  0  0  0
   54.8270   29.6754   50.9164 H   0  0  0  0  0  0  0  0  0  0  0  0
   55.1170   32.3350   52.1570 H   0  0  0  0  0  0  0  0  0  0  0  0
   57.3453   32.6178   49.9329 H   0  0  0  0  0  0  0  0  0  0  0  0
   60.1023   35.2849   48.1611 H   0  0  0  0  0  0  0  0  0  0  0  0
   59.6404   35.9552   45.8282 H   0  0  0  0  0  0  0  0  0  0  0  0
   58.3746   34.4158   44.3662 H   0  0  0  0  0  0  0  0  0  0  0  0
   55.7839   31.0867   44.9809 H   0  0  0  0  0  0  0  0  0  0  0  0
   56.6054   31.5666   43.4453 H   0  0  0  0  0  0  0  0  0  0  0  0
   58.6049   30.3543   46.1574 H   0  0  0  0  0  0  0  0  0  0  0  0
   59.8289   28.1708   46.1663 H   0  0  0  0  0  0  0  0  0  0  0  0
   59.2927   26.5059   44.3692 H   0  0  0  0  0  0  0  0  0  0  0  0
   57.5956   27.0104   42.6382 H   0  0  0  0  0  0  0  0  0  0  0  0
   56.4136   29.1944   42.6835 H   0  0  0  0  0  0  0  0  0  0  0  0
   58.0679   31.5922   47.6129 H   0  0  0  0  0  0  0  0  0  0  0  0
   61.4650   33.3110   49.3940 H   0  0  0  0  0  0  0  0  0  0  0  0
   64.0050   31.9613   51.7259 H   0  0  0  0  0  0  0  0  0  0  0  0
   62.9869   31.4420   50.3387 H   0  0  0  0  0  0  0  0  0  0  0  0
   63.0413   34.2543   50.1831 H   0  0  0  0  0  0  0  0  0  0  0  0
   64.7221   33.7807   50.6139 H   0  0  0  0  0  0  0  0  0  0  0  0
   64.8261   33.5891   48.3581 H   0  0  0  0  0  0  0  0  0  0  0  0
   64.2397   31.9103   48.8346 H   0  0  0  0  0  0  0  0  0  0  0  0
   63.8107   34.7437   47.0014 H   0  0  0  0  0  0  0  0  0  0  0  0
   63.9632   33.1907   46.1116 H   0  0  0  0  0  0  0  0  0  0  0  0
   62.4003   34.0761   46.1116 H   0  0  0  0  0  0  0  0  0  0  0  0
   62.2335   31.1843   48.3945 H   0  0  0  0  0  0  0  0  0  0  0  0
   61.5204   31.8806   46.9000 H   0  0  0  0  0  0  0  0  0  0  0  0
   63.2225   31.3067   46.9000 H   0  0  0  0  0  0  0  0  0  0  0  0
   60.1010   32.0290   53.0700 H   0  0  0  0  0  0  0  0  0  0  0  0
  1  2  2  0
  2  3  1  0
  2  4  1  0
  4  5  1  0
  5  6  1  0
  6  7  2  0
  6  8  1  0
  8  9  2  0
  9 10  1  0
 10 11  2  0
 11 12  1  0
 12 13  2  0
 13 14  1  0
 14 15  2  0
 15 16  1  0
 16 17  1  0
 17 18  1  0
 18 19  1  0
 19 20  2  0
 20 21  1  0
 21 22  2  0
 22 23  1  0
 23 24  2  0
 16 25  2  0
 11 26  1  0
 26 27  1  0
 27 28  2  0
 28 29  1  0
 29 30  1  0
 30 31  1  0
 31 32  1  0
 32 33  1  0
 32 34  1  0
 27 35  1  0
 35  9  1  0
 25 12  1  0
 24 19  1  0
  1 36  1  0
  1 37  1  0
  3 38  1  0
  3 39  1  0
  3 40  1  0
  4 41  1  0
  4 42  1  0
  5 43  1  0
 10 44  1  0
 13 45  1  0
 14 46  1  0
 15 47  1  0
 18 48  1  0
 18 49  1  0
 20 50  1  0
 21 51  1  0
 22 52  1  0
 23 53  1  0
 24 54  1  0
 25 55  1  0
 26 56  1  0
 29 57  1  0
 29 58  1  0
 30 59  1  0
 30 60  1  0
 31 61  1  0
 31 62  1  0
 33 63  1  0
 33 64  1  0
 33 65  1  0
 34 66  1  0
 34 67  1  0
 34 68  1  0
 35 69  1  0
M  END
>  <smiles>  (53) 
C=C(C)CNC(=O)N=c1cc(-c2cccc(OCc3ccccc3)c2)[nH]c(=NCCCN(C)C)[nH]1

>  <score_type>  (53) 
oracle

>  <origin>  (53) 
adg

>  <m_score__min__energy>  (53) 
-9.3200000000000003

>  <m_primary>  (53) 
energy

$$$$
53:0
     RDKit          3D

 34 36  0  0  0  0  0  0  0  0999 V2000
   55.5380   28.6900   45.0100 O   0  0  0  0  0  0  0  0  0  0  0  0
   56.2680   27.8560   45.6080 C   0  0  0  0  0  0  0  0  0  0  0  0
   57.7430   28.1300   45.7600 C   0  0  0  0  0  0  0  0  0  0  0  0
   57.9940   29.5070   46.0460 O   0  0  0  0  0  0  0  0  0  0  0  0
   57.9130   30.5590   45.1160 C   0  0  0  0  0  0  0  0  0  0  0  0
   57.5640   30.3460   43.7670 C   0  0  0  0  0  0  0  0  0  0  0  0
   57.4960   31.4180   42.8740 C   0  0  0  0  0  0  0  0  0  0  0  0
   57.7730   32.7170   43.3080 C   0  0  0  0  0  0  0  0  0  0  0  0
   58.1210   32.9470   44.6450 C   0  0  0  0  0  0  0  0  0  0  0  0
   58.4050   34.2390   45.1070 C   0  0  0  0  0  0  0  0  0  0  0  0
   58.7500   34.4380   46.4450 C   0  0  0  0  0  0  0  0  0  0  0  0
   58.8090   33.3420   47.3090 C   0  0  0  0  0  0  0  0  0  0  0  0
   58.5320   32.0930   46.8500 N   0  0  0  0  0  0  0  0  0  0  0  0
   58.1910   31.8640   45.5510 C   0  0  0  0  0  0  0  0  0  0  0  0
   55.6970   26.6050   46.0080 N   0  0  0  0  0  0  0  0  0  0  0  0
   55.9340   25.3360   45.3860 C   0  0  0  0  0  0  0  0  0  0  0  0
   57.1850   25.0220   44.8320 C   0  0  0  0  0  0  0  0  0  0  0  0
   57.4080   23.7640   44.2630 C   0  0  0  0  0  0  0  0  0  0  0  0
   56.3900   22.8050   44.2630 C   0  0  0  0  0  0  0  0  0  0  0  0
   56.6710   21.2270   43.5510 Cl  0  0  0  0  0  0  0  0  0  0  0  0
   55.1520   23.1020   44.8430 C   0  0  0  0  0  0  0  0  0  0  0  0
   54.9280   24.3600   45.4140 C   0  0  0  0  0  0  0  0  0  0  0  0
   53.7260   24.6340   45.9790 F   0  0  0  0  0  0  0  0  0  0  0  0
   58.1373   27.5165   46.5835 H   0  0  0  0  0  0  0  0  0  0  0  0
   58.2398   27.8789   44.8112 H   0  0  0  0  0  0  0  0  0  0  0  0
   57.3435   29.3275   43.4147 H   0  0  0  0  0  0  0  0  0  0  0  0
   57.2230   31.2386   41.8236 H   0  0  0  0  0  0  0  0  0  0  0  0
   57.7178   33.5576   42.6007 H   0  0  0  0  0  0  0  0  0  0  0  0
   58.3562   35.0944   44.4171 H   0  0  0  0  0  0  0  0  0  0  0  0
   58.9735   35.4492   46.8157 H   0  0  0  0  0  0  0  0  0  0  0  0
   59.0806   33.4903   48.3646 H   0  0  0  0  0  0  0  0  0  0  0  0
   57.9930   25.7683   44.8455 H   0  0  0  0  0  0  0  0  0  0  0  0
   58.3848   23.5287   43.8152 H   0  0  0  0  0  0  0  0  0  0  0  0
   54.3534   22.3456   44.8503 H   0  0  0  0  0  0  0  0  0  0  0  0
  1  2  2  0
  2  3  1  0
  3  4  1  0
  4  5  1  0
  5  6  2  0
  6  7  1  0
  7  8  2  0
  8  9  1  0
  9 10  2  0
 10 11  1  0
 11 12  2  0
 12 13  1  0
 13 14  2  0
  2 15  1  0
 15 16  1  0
 16 17  2  0
 17 18  1  0
 18 19  2  0
 19 20  1  0
 19 21  1  0
 21 22  2  0
 22 23  1  0
 14  5  1  0
 22 16  1  0
 14  9  1  0
  3 24  1  0
  3 25  1  0
  6 26  1  0
  7 27  1  0
  8 28  1  0
 10 29  1  0
 11 30  1  0
 12 31  1  0
 17 32  1  0
 18 33  1  0
 21 34  1  0
M  CHG  1  15  -1
M  END
>  <UniqueID>  (54) 
50

>  <SMILES>  (54) 
O=C(COc1cccc2cccnc12)[N-]c1ccc(Cl)cc1F

>  <Energy>  (54) 
46.42387770180416

>  <Genealogy>  (54) 
O=C(COc1cccc2cccnc12)[N-]c1ccc(Cl)cc1F (protonated)
O=C(COc1cccc2cccnc12)[N-]c1ccc(Cl)cc1F (3D coordinates assigned)
O=C(COc1cccc2cccnc12)[N-]c1ccc(Cl)cc1F (optimized conformer: 46.42387770180416 kcal/mol)

>  <smiles>  (54) 
O=C(COc1cccc2cccnc12)Nc1ccc(Cl)cc1F

>  <score_type>  (54) 
oracle

>  <origin>  (54) 
adg

>  <m_score__min__energy>  (54) 
-9.3900000000000006

>  <m_primary>  (54) 
energy

$$$$
54:0
     RDKit          3D

 52 55  0  0  0  0  0  0  0  0999 V2000
   57.6782   31.6501   41.2462 H   0  0  0  0  0  0  0  0  0  0  0  0
   57.4660   31.5930   42.3240 C   0  0  0  0  0  0  0  0  0  0  0  0
   56.9200   30.4660   42.8510 N   0  0  0  0  0  0  0  0  0  0  0  0
   56.6560   30.3710   44.1810 C   0  0  0  0  0  0  0  0  0  0  0  0
   56.1060   29.2900   44.6460 N   0  0  0  0  0  0  0  0  0  0  0  0
   56.9970   27.9380   45.2740 S   0  0  0  0  0  0  0  0  0  0  0  0
   57.6710   27.2300   44.1320 O   0  0  0  0  0  0  0  0  0  0  0  0
   56.0480   26.9880   45.9470 O   0  0  0  0  0  0  0  0  0  0  0  0
   58.1910   28.4800   46.4530 C   0  0  0  0  0  0  0  0  0  0  0  0
   58.5130   27.6810   47.5590 C   0  0  0  0  0  0  0  0  0  0  0  0
   57.9697   26.7405   47.7329 H   0  0  0  0  0  0  0  0  0  0  0  0
   59.5220   28.0760   48.4410 C   0  0  0  0  0  0  0  0  0  0  0  0
   59.7668   27.4452   49.3083 H   0  0  0  0  0  0  0  0  0  0  0  0
   60.2240   29.2690   48.2290 C   0  0  0  0  0  0  0  0  0  0  0  0
   61.2790   29.6110   49.1370 N   0  0  0  0  0  0  0  0  0  0  0  0
   61.3750   31.0760   50.0600 S   0  0  0  0  0  0  0  0  0  0  0  0
   60.4410   32.0940   49.4660 O   0  0  0  0  0  0  0  0  0  0  0  0
   60.9600   30.8160   51.4800 O   0  0  0  0  0  0  0  0  0  0  0  0
   63.0590   31.6540   50.0150 C   0  0  0  0  0  0  0  0  0  0  0  0
   63.4730   32.6680   49.1070 C   0  0  0  0  0  0  0  0  0  0  0  0
   62.5580   33.2900   48.0830 C   0  0  0  0  0  0  0  0  0  0  0  0
   62.2064   34.2629   48.4571 H   0  0  0  0  0  0  0  0  0  0  0  0
   61.7064   32.6145   47.9142 H   0  0  0  0  0  0  0  0  0  0  0  0
   63.2880   33.4970   46.7600 C   0  0  0  0  0  0  0  0  0  0  0  0
   64.3290   33.7922   46.9579 H   0  0  0  0  0  0  0  0  0  0  0  0
   63.2758   32.5600   46.1839 H   0  0  0  0  0  0  0  0  0  0  0  0
   62.7857   34.2881   46.1839 H   0  0  0  0  0  0  0  0  0  0  0  0
   64.7650   33.0930   49.1190 N   0  0  0  0  0  0  0  0  0  0  0  0
   65.6510   32.5750   49.9980 C   0  0  0  0  0  0  0  0  0  0  0  0
   67.2590   33.0240   50.1230 S   0  0  0  0  0  0  0  0  0  0  0  0
   67.5460   31.9570   51.3950 C   0  0  0  0  0  0  0  0  0  0  0  0
   68.5077   31.8203   51.9111 H   0  0  0  0  0  0  0  0  0  0  0  0
   66.3620   31.2740   51.6870 C   0  0  0  0  0  0  0  0  0  0  0  0
   66.2990   30.2470   52.7840 C   0  0  0  0  0  0  0  0  0  0  0  0
   66.3300   30.7516   53.7609 H   0  0  0  0  0  0  0  0  0  0  0  0
   65.3640   29.6741   52.6967 H   0  0  0  0  0  0  0  0  0  0  0  0
   67.1569   29.5641   52.6967 H   0  0  0  0  0  0  0  0  0  0  0  0
   65.2990   31.6280   50.8920 N   0  0  0  0  0  0  0  0  0  0  0  0
   64.0170   31.1490   50.9270 C   0  0  0  0  0  0  0  0  0  0  0  0
   63.6890   30.2680   51.7680 O   0  0  0  0  0  0  0  0  0  0  0  0
   59.8880   30.0780   47.1300 C   0  0  0  0  0  0  0  0  0  0  0  0
   60.4223   31.0248   46.9626 H   0  0  0  0  0  0  0  0  0  0  0  0
   58.8760   29.6830   46.2480 C   0  0  0  0  0  0  0  0  0  0  0  0
   58.6178   30.3208   45.3898 H   0  0  0  0  0  0  0  0  0  0  0  0
   56.9490   31.4160   45.0020 N   0  0  0  0  0  0  0  0  0  0  0  0
   57.4970   32.5620   44.5200 C   0  0  0  0  0  0  0  0  0  0  0  0
   57.7460   33.7110   45.4460 C   0  0  0  0  0  0  0  0  0  0  0  0
   57.6711   33.3654   46.4876 H   0  0  0  0  0  0  0  0  0  0  0  0
   58.7527   34.1159   45.2655 H   0  0  0  0  0  0  0  0  0  0  0  0
   56.9972   34.4963   45.2655 H   0  0  0  0  0  0  0  0  0  0  0  0
   57.7570   32.6770   43.1510 C   0  0  0  0  0  0  0  0  0  0  0  0
   58.1819   33.6026   42.7355 H   0  0  0  0  0  0  0  0  0  0  0  0
  1  2  1  0
  2  3  1  0
  3  4  1  0
  4  5  2  0
  5  6  1  0
  6  7  2  0
  6  8  2  0
  6  9  1  0
  9 10  2  0
 10 11  1  0
 10 12  1  0
 12 13  1  0
 12 14  2  0
 14 15  1  0
 15 16  1  0
 16 17  2  0
 16 18  2  0
 16 19  1  0
 19 20  2  0
 20 21  1  0
 21 22  1  0
 21 23  1  0
 21 24  1  0
 24 25  1  0
 24 26  1  0
 24 27  1  0
 20 28  1  0
 28 29  2  0
 29 30  1  0
 30 31  1  0
 31 32  1  0
 31 33  2  0
 33 34  1  0
 34 35  1  0
 34 36  1  0
 34 37  1  0
 33 38  1  0
 38 39  1  0
 39 40  2  0
 14 41  1  0
 41 42  1  0
 41 43  2  0
 43 44  1  0
  4 45  1  0
 45 46  2  0
 46 47  1  0
 47 48  1  0
 47 49  1  0
 47 50  1  0
 46 51  1  0
 51 52  1  0
 51  2  2  0
 43  9  1  0
 39 19  1  0
 38 29  1  0
M  CHG  2   3  -1  15  -1
M  END
>  <UniqueID>  (55) 
51

>  <SMILES>  (55) 
CCc1nc2scc(C)n2c(=O)c1S(=O)(=O)[N-]c1ccc(S(=O)(=O)/N=c2\nc(C)cc[n-]2)cc1

>  <Energy>  (55) 
100.00826726376347

>  <Genealogy>  (55) 
CCc1nc2scc(C)n2c(=O)c1S(=O)(=O)[N-]c1ccc(S(=O)(=O)N=c2nc(C)cc[n-]2)cc1 (protonated)
CCc1nc2scc(C)n2c(=O)c1S(=O)(=O)[N-]c1ccc(S(=O)(=O)/N=c2\nc(C)cc[n-]2)cc1 (cis-trans isomerization)
CCc1nc2scc(C)n2c(=O)c1S(=O)(=O)[N-]c1ccc(S(=O)(=O)/N=c2\nc(C)cc[n-]2)cc1 (3D coordinates assigned)
CCc1nc2scc(C)n2c(=O)c1S(=O)(=O)[N-]c1ccc(S(=O)(=O)/N=c2\nc(C)cc[n-]2)cc1 (optimized conformer: 100.00826726376347 kcal/mol)

>  <smiles>  (55) 
CCc1nc2scc(C)n2c(=O)c1S(=O)(=O)Nc1ccc(S(=O)(=O)N=c2nc(C)cc[nH]2)cc1

>  <score_type>  (55) 
oracle

>  <origin>  (55) 
adg

>  <m_score__min__energy>  (55) 
-12.720000000000001

>  <m_primary>  (55) 
energy

$$$$
55:0
     RDKit          3D

 49 51  0  0  0  0  0  0  0  0999 V2000
   53.5680   24.8490   45.5920 C   0  0  0  0  0  0  0  0  0  0  0  0
   54.7200   25.6800   45.9060 N   0  0  0  0  0  0  0  0  0  0  0  0
   56.0660   25.1980   45.8410 C   0  0  0  0  0  0  0  0  0  0  0  0
   56.2870   24.0210   45.4440 O   0  0  0  0  0  0  0  0  0  0  0  0
   57.1940   26.0740   46.2350 C   0  0  0  0  0  0  0  0  0  0  0  0
   58.1400   25.6360   47.1810 C   0  0  0  0  0  0  0  0  0  0  0  0
   59.2040   26.4590   47.5530 C   0  0  0  0  0  0  0  0  0  0  0  0
   59.3400   27.7290   46.9890 C   0  0  0  0  0  0  0  0  0  0  0  0
   58.4070   28.1870   46.0480 C   0  0  0  0  0  0  0  0  0  0  0  0
   58.5760   29.5480   45.4250 C   0  0  0  0  0  0  0  0  0  0  0  0
   57.3190   30.3040   45.5010 N   0  0  0  0  0  0  0  0  0  0  0  0
   57.2840   31.3860   44.5090 C   0  0  0  0  0  0  0  0  0  0  0  0
   58.1280   32.5330   44.9900 C   0  0  0  0  0  0  0  0  0  0  0  0
   57.9120   33.8280   44.4970 C   0  0  0  0  0  0  0  0  0  0  0  0
   58.6620   34.9000   44.9850 C   0  0  0  0  0  0  0  0  0  0  0  0
   59.6300   34.6900   45.9710 C   0  0  0  0  0  0  0  0  0  0  0  0
   59.8650   33.3950   46.4710 C   0  0  0  0  0  0  0  0  0  0  0  0
   60.8350   33.1540   47.5060 N   0  0  0  0  0  0  0  0  0  0  0  0
   62.2100   33.5650   47.4270 C   0  0  0  0  0  0  0  0  0  0  0  0
   62.7310   33.7960   46.3010 O   0  0  0  0  0  0  0  0  0  0  0  0
   63.0450   33.6690   48.6490 C   0  0  0  0  0  0  0  0  0  0  0  0
   64.2570   32.9640   48.7450 C   0  0  0  0  0  0  0  0  0  0  0  0
   65.0390   33.0650   49.8970 C   0  0  0  0  0  0  0  0  0  0  0  0
   64.6100   33.8770   50.9470 C   0  0  0  0  0  0  0  0  0  0  0  0
   65.5720   34.0220   52.4040 Cl  0  0  0  0  0  0  0  0  0  0  0  0
   63.4420   34.5640   50.8400 N   0  0  0  0  0  0  0  0  0  0  0  0
   62.6600   34.4820   49.7310 C   0  0  0  0  0  0  0  0  0  0  0  0
   59.0920   32.3270   45.9900 C   0  0  0  0  0  0  0  0  0  0  0  0
   57.3380   27.3560   45.6710 C   0  0  0  0  0  0  0  0  0  0  0  0
   53.0961   24.5086   46.5255 H   0  0  0  0  0  0  0  0  0  0  0  0
   52.8430   25.4334   45.0065 H   0  0  0  0  0  0  0  0  0  0  0  0
   53.8939   23.9766   45.0065 H   0  0  0  0  0  0  0  0  0  0  0  0
   58.0398   24.6371   47.6306 H   0  0  0  0  0  0  0  0  0  0  0  0
   59.9376   26.1061   48.2927 H   0  0  0  0  0  0  0  0  0  0  0  0
   60.1820   28.3724   47.2839 H   0  0  0  0  0  0  0  0  0  0  0  0
   59.3629   30.0977   45.9623 H   0  0  0  0  0  0  0  0  0  0  0  0
   58.8559   29.4252   44.3683 H   0  0  0  0  0  0  0  0  0  0  0  0
   56.5370   29.6430   45.2780 H   0  0  0  0  0  0  0  0  0  0  0  0
   57.6778   31.0176   43.5503 H   0  0  0  0  0  0  0  0  0  0  0  0
   56.2466   31.7255   44.3726 H   0  0  0  0  0  0  0  0  0  0  0  0
   57.1492   33.9998   43.7233 H   0  0  0  0  0  0  0  0  0  0  0  0
   58.4904   35.9130   44.5921 H   0  0  0  0  0  0  0  0  0  0  0  0
   60.2108   35.5402   46.3581 H   0  0  0  0  0  0  0  0  0  0  0  0
   60.5510   32.5430   48.3050 H   0  0  0  0  0  0  0  0  0  0  0  0
   64.5905   32.3306   47.9098 H   0  0  0  0  0  0  0  0  0  0  0  0
   65.9850   32.5093   49.9760 H   0  0  0  0  0  0  0  0  0  0  0  0
   61.7218   35.0539   49.6793 H   0  0  0  0  0  0  0  0  0  0  0  0
   59.2429   31.3178   46.4007 H   0  0  0  0  0  0  0  0  0  0  0  0
   56.6075   27.7103   44.9288 H   0  0  0  0  0  0  0  0  0  0  0  0
  1  2  1  0
  2  3  1  0
  3  4  2  0
  3  5  1  0
  5  6  2  0
  6  7  1  0
  7  8  2  0
  8  9  1  0
  9 10  1  0
 10 11  1  0
 11 12  1  0
 12 13  1  0
 13 14  2  0
 14 15  1  0
 15 16  2  0
 16 17  1  0
 17 18  1  0
 18 19  1  0
 19 20  2  0
 19 21  1  0
 21 22  2  0
 22 23  1  0
 23 24  2  0
 24 25  1  0
 24 26  1  0
 26 27  2  0
 17 28  2  0
  9 29  2  0
 29  5  1  0
 28 13  1  0
 27 21  1  0
  1 30  1  0
  1 31  1  0
  1 32  1  0
  6 33  1  0
  7 34  1  0
  8 35  1  0
 10 36  1  0
 10 37  1  0
 11 38  1  0
 12 39  1  0
 12 40  1  0
 14 41  1  0
 15 42  1  0
 16 43  1  0
 18 44  1  0
 22 45  1  0
 23 46  1  0
 27 47  1  0
 28 48  1  0
 29 49  1  0
M  CHG  1   2  -1
M  END
>  <UniqueID>  (56) 
52

>  <SMILES>  (56) 
C[N-]C(=O)c1cccc(CNCc2cccc(NC(=O)c3ccc(Cl)nc3)c2)c1

>  <Energy>  (56) 
53.70466475186799

>  <Genealogy>  (56) 
C[N-]C(=O)c1cccc(CNCc2cccc(NC(=O)c3ccc(Cl)nc3)c2)c1 (protonated)
C[N-]C(=O)c1cccc(CNCc2cccc(NC(=O)c3ccc(Cl)nc3)c2)c1 (3D coordinates assigned)
C[N-]C(=O)c1cccc(CNCc2cccc(NC(=O)c3ccc(Cl)nc3)c2)c1 (optimized conformer: 53.70466475186799 kcal/mol)

>  <smiles>  (56) 
CNC(=O)c1cccc(CNCc2cccc(NC(=O)c3ccc(Cl)nc3)c2)c1

>  <score_type>  (56) 
oracle

>  <origin>  (56) 
adg

>  <m_score__min__energy>  (56) 
-11.51

>  <m_primary>  (56) 
energy

$$$$
56:0
     RDKit          3D

 62 65  0  0  0  0  0  0  0  0999 V2000
   58.8840   34.1320   47.1810 C   0  0  0  0  0  0  0  0  0  0  0  0
   60.3350   33.9100   47.5010 C   0  0  0  0  0  0  0  0  0  0  0  0
   61.2400   33.5830   46.4760 C   0  0  0  0  0  0  0  0  0  0  0  0
   62.5870   33.3670   46.7660 C   0  0  0  0  0  0  0  0  0  0  0  0
   63.0430   33.4560   48.0820 C   0  0  0  0  0  0  0  0  0  0  0  0
   62.1540   33.7760   49.1070 C   0  0  0  0  0  0  0  0  0  0  0  0
   60.8020   34.0350   48.8240 C   0  0  0  0  0  0  0  0  0  0  0  0
   59.8800   34.3490   49.8800 N   0  0  0  0  0  0  0  0  0  0  0  0
   59.2240   33.4050   50.7380 C   0  0  0  0  0  0  0  0  0  0  0  0
   58.4870   33.8400   51.6630 O   0  0  0  0  0  0  0  0  0  0  0  0
   59.4290   31.9210   50.5760 C   0  0  0  0  0  0  0  0  0  0  0  0
   60.6620   31.4790   51.2190 N   0  0  0  0  0  0  0  0  0  0  0  0
   61.5180   30.4650   50.6710 C   0  0  0  0  0  0  0  0  0  0  0  0
   62.6490   30.2560   51.1890 O   0  0  0  0  0  0  0  0  0  0  0  0
   61.0760   29.6620   49.5080 C   0  0  0  0  0  0  0  0  0  0  0  0
   60.8050   28.2900   49.6500 C   0  0  0  0  0  0  0  0  0  0  0  0
   60.3830   27.5310   48.5540 C   0  0  0  0  0  0  0  0  0  0  0  0
   60.2220   28.1330   47.3010 C   0  0  0  0  0  0  0  0  0  0  0  0
   59.6910   27.1890   45.9150 S   0  0  0  0  0  0  0  0  0  0  0  0
   60.1370   27.8420   44.6360 O   0  0  0  0  0  0  0  0  0  0  0  0
   60.3000   25.8160   45.9830 O   0  0  0  0  0  0  0  0  0  0  0  0
   57.9560   27.0800   45.9270 N   0  0  0  0  0  0  0  0  0  0  0  0
   57.1380   28.2290   46.3180 C   0  0  0  0  0  0  0  0  0  0  0  0
   57.2250   29.3010   45.2670 C   0  0  0  0  0  0  0  0  0  0  0  0
   57.9690   30.4700   45.5040 C   0  0  0  0  0  0  0  0  0  0  0  0
   58.0870   31.4430   44.5080 C   0  0  0  0  0  0  0  0  0  0  0  0
   57.4730   31.2520   43.2670 C   0  0  0  0  0  0  0  0  0  0  0  0
   56.7450   30.0860   43.0190 C   0  0  0  0  0  0  0  0  0  0  0  0
   56.6230   29.1110   44.0140 C   0  0  0  0  0  0  0  0  0  0  0  0
   57.3330   25.8560   45.5160 C   0  0  0  0  0  0  0  0  0  0  0  0
   58.1170   24.8160   44.9980 C   0  0  0  0  0  0  0  0  0  0  0  0
   57.5190   23.6200   44.5930 C   0  0  0  0  0  0  0  0  0  0  0  0
   56.1370   23.4540   44.7060 C   0  0  0  0  0  0  0  0  0  0  0  0
   55.3490   24.4860   45.2230 C   0  0  0  0  0  0  0  0  0  0  0  0
   55.9430   25.6900   45.6240 C   0  0  0  0  0  0  0  0  0  0  0  0
   55.1450   26.7150   46.1180 O   0  0  0  0  0  0  0  0  0  0  0  0
   60.4680   29.5040   47.1560 C   0  0  0  0  0  0  0  0  0  0  0  0
   60.8920   30.2640   48.2480 C   0  0  0  0  0  0  0  0  0  0  0  0
   58.3115   34.2196   48.1162 H   0  0  0  0  0  0  0  0  0  0  0  0
   58.7749   35.0573   46.5963 H   0  0  0  0  0  0  0  0  0  0  0  0
   58.5032   33.2817   46.5963 H   0  0  0  0  0  0  0  0  0  0  0  0
   60.8835   33.4970   45.4389 H   0  0  0  0  0  0  0  0  0  0  0  0
   63.2912   33.1261   45.9560 H   0  0  0  0  0  0  0  0  0  0  0  0
   64.1035   33.2737   48.3104 H   0  0  0  0  0  0  0  0  0  0  0  0
   62.5135   33.8262   50.1454 H   0  0  0  0  0  0  0  0  0  0  0  0
   58.5789   31.3909   51.0302 H   0  0  0  0  0  0  0  0  0  0  0  0
   59.5004   31.6974   49.5013 H   0  0  0  0  0  0  0  0  0  0  0  0
   60.9260   27.8092   50.6319 H   0  0  0  0  0  0  0  0  0  0  0  0
   60.1770   26.4575   48.6771 H   0  0  0  0  0  0  0  0  0  0  0  0
   56.0909   27.9105   46.4283 H   0  0  0  0  0  0  0  0  0  0  0  0
   57.5080   28.6283   47.2738 H   0  0  0  0  0  0  0  0  0  0  0  0
   58.4600   30.6193   46.4769 H   0  0  0  0  0  0  0  0  0  0  0  0
   58.6635   32.3598   44.7008 H   0  0  0  0  0  0  0  0  0  0  0  0
   57.5631   32.0204   42.4851 H   0  0  0  0  0  0  0  0  0  0  0  0
   56.2671   29.9345   42.0399 H   0  0  0  0  0  0  0  0  0  0  0  0
   56.0530   28.1918   43.8136 H   0  0  0  0  0  0  0  0  0  0  0  0
   59.2062   24.9418   44.9101 H   0  0  0  0  0  0  0  0  0  0  0  0
   58.1379   22.8076   44.1844 H   0  0  0  0  0  0  0  0  0  0  0  0
   55.6686   22.5109   44.3881 H   0  0  0  0  0  0  0  0  0  0  0  0
   54.2610   24.3529   45.3152 H   0  0  0  0  0  0  0  0  0  0  0  0
   60.3265   29.9847   46.1768 H   0  0  0  0  0  0  0  0  0  0  0  0
   61.0836   31.3400   48.1234 H   0  0  0  0  0  0  0  0  0  0  0  0
  1  2  1  0
  2  3  2  0
  3  4  1  0
  4  5  2  0
  5  6  1  0
  6  7  2  0
  7  8  1  0
  8  9  1  0
  9 10  2  0
  9 11  1  0
 11 12  1  0
 12 13  1  0
 13 14  2  0
 13 15  1  0
 15 16  2  0
 16 17  1  0
 17 18  2  0
 18 19  1  0
 19 20  2  0
 19 21  2  0
 19 22  1  0
 22 23  1  0
 23 24  1  0
 24 25  2  0
 25 26  1  0
 26 27  2  0
 27 28  1  0
 28 29  2  0
 22 30  1  0
 30 31  2  0
 31 32  1  0
 32 33  2  0
 33 34  1  0
 34 35  2  0
 35 36  1  0
 18 37  1  0
 37 38  2  0
  7  2  1  0
 38 15  1  0
 29 24  1  0
 35 30  1  0
  1 39  1  0
  1 40  1  0
  1 41  1  0
  3 42  1  0
  4 43  1  0
  5 44  1  0
  6 45  1  0
 11 46  1  0
 11 47  1  0
 16 48  1  0
 17 49  1  0
 23 50  1  0
 23 51  1  0
 25 52  1  0
 26 53  1  0
 27 54  1  0
 28 55  1  0
 29 56  1  0
 31 57  1  0
 32 58  1  0
 33 59  1  0
 34 60  1  0
 37 61  1  0
 38 62  1  0
M  CHG  3   8  -1  12  -1  36  -1
M  END
>  <UniqueID>  (57) 
53

>  <SMILES>  (57) 
Cc1ccccc1[N-]C(=O)C[N-]C(=O)c1ccc(S(=O)(=O)N(Cc2ccccc2)c2ccccc2[O-])cc1

>  <Energy>  (57) 
76.06301008896442

>  <Genealogy>  (57) 
Cc1ccccc1[N-]C(=O)C[N-]C(=O)c1ccc(S(=O)(=O)N(Cc2ccccc2)c2ccccc2[O-])cc1 (protonated)
Cc1ccccc1[N-]C(=O)C[N-]C(=O)c1ccc(S(=O)(=O)N(Cc2ccccc2)c2ccccc2[O-])cc1 (3D coordinates assigned)
Cc1ccccc1[N-]C(=O)C[N-]C(=O)c1ccc(S(=O)(=O)N(Cc2ccccc2)c2ccccc2[O-])cc1 (optimized conformer: 76.06301008896442 kcal/mol)

>  <smiles>  (57) 
Cc1ccccc1NC(=O)CNC(=O)c1ccc(S(=O)(=O)N(Cc2ccccc2)c2ccccc2O)cc1

>  <score_type>  (57) 
oracle

>  <origin>  (57) 
adg

>  <m_score__min__energy>  (57) 
-13.9

>  <m_primary>  (57) 
energy

$$$$
57:0
     RDKit          3D

 38 40  0  0  0  0  0  0  0  0999 V2000
   54.8920   24.3520   47.2090 H   0  0  0  0  0  0  0  0  0  0  0  0
   55.8960   24.4880   47.2030 O   0  0  0  0  0  0  0  0  0  0  0  0
   56.4680   25.6920   46.7930 C   0  0  0  0  0  0  0  0  0  0  0  0
   57.7910   26.0030   47.1360 C   0  0  0  0  0  0  0  0  0  0  0  0
   58.3807   25.2930   47.7345 H   0  0  0  0  0  0  0  0  0  0  0  0
   58.3710   27.2160   46.7210 C   0  0  0  0  0  0  0  0  0  0  0  0
   59.7710   27.5470   47.0810 C   0  0  0  0  0  0  0  0  0  0  0  0
   60.6950   27.3560   46.2430 O   0  0  0  0  0  0  0  0  0  0  0  0
   60.0690   28.0840   48.3810 N   0  0  0  0  0  0  0  0  0  0  0  0
   59.7160   29.2520   48.8300 C   0  0  0  0  0  0  0  0  0  0  0  0
   58.6860   29.4640   49.6800 N   0  0  0  0  0  0  0  0  0  0  0  0
   58.5490   30.7830   49.9800 C   0  0  0  0  0  0  0  0  0  0  0  0
   57.7664   31.1598   50.6550 H   0  0  0  0  0  0  0  0  0  0  0  0
   59.4780   31.6200   49.3650 C   0  0  0  0  0  0  0  0  0  0  0  0
   59.5650   33.0780   49.5210 C   0  0  0  0  0  0  0  0  0  0  0  0
   59.6200   33.5770   50.6750 O   0  0  0  0  0  0  0  0  0  0  0  0
   59.6380   33.9130   48.3580 N   0  0  0  0  0  0  0  0  0  0  0  0
   59.1210   33.6100   47.0540 C   0  0  0  0  0  0  0  0  0  0  0  0
   58.1390   32.6240   46.8500 C   0  0  0  0  0  0  0  0  0  0  0  0
   57.7296   32.0725   47.7092 H   0  0  0  0  0  0  0  0  0  0  0  0
   57.6810   32.3420   45.5590 C   0  0  0  0  0  0  0  0  0  0  0  0
   56.9132   31.5690   45.4077 H   0  0  0  0  0  0  0  0  0  0  0  0
   58.1950   33.0390   44.4570 C   0  0  0  0  0  0  0  0  0  0  0  0
   57.7340   32.7090   43.0680 C   0  0  0  0  0  0  0  0  0  0  0  0
   56.8406   32.0694   43.1204 H   0  0  0  0  0  0  0  0  0  0  0  0
   57.4889   33.6381   42.5326 H   0  0  0  0  0  0  0  0  0  0  0  0
   58.5345   32.1775   42.5326 H   0  0  0  0  0  0  0  0  0  0  0  0
   59.2040   33.9930   44.6550 C   0  0  0  0  0  0  0  0  0  0  0  0
   59.6357   34.5218   43.7925 H   0  0  0  0  0  0  0  0  0  0  0  0
   59.6630   34.2740   45.9470 C   0  0  0  0  0  0  0  0  0  0  0  0
   60.4557   35.0223   46.0938 H   0  0  0  0  0  0  0  0  0  0  0  0
   60.5020   30.6770   48.4150 S   0  0  0  0  0  0  0  0  0  0  0  0
   57.6010   28.1120   45.9550 C   0  0  0  0  0  0  0  0  0  0  0  0
   58.0411   29.0637   45.6224 H   0  0  0  0  0  0  0  0  0  0  0  0
   56.2810   27.8010   45.6140 C   0  0  0  0  0  0  0  0  0  0  0  0
   55.5350   28.6970   44.8570 O   0  0  0  0  0  0  0  0  0  0  0  0
   55.7140   26.5930   46.0310 C   0  0  0  0  0  0  0  0  0  0  0  0
   54.4010   26.2860   45.6900 O   0  0  0  0  0  0  0  0  0  0  0  0
  1  2  1  0
  2  3  1  0
  3  4  2  0
  4  5  1  0
  4  6  1  0
  6  7  1  0
  7  8  2  0
  7  9  1  0
  9 10  2  0
 10 11  1  0
 11 12  1  0
 12 13  1  0
 12 14  2  0
 14 15  1  0
 15 16  2  0
 15 17  1  0
 17 18  1  0
 18 19  2  0
 19 20  1  0
 19 21  1  0
 21 22  1  0
 21 23  2  0
 23 24  1  0
 24 25  1  0
 24 26  1  0
 24 27  1  0
 23 28  1  0
 28 29  1  0
 28 30  2  0
 30 31  1  0
 14 32  1  0
  6 33  2  0
 33 34  1  0
 33 35  1  0
 35 36  1  0
 35 37  2  0
 37 38  1  0
 37  3  1  0
 32 10  1  0
 30 18  1  0
M  CHG  4  11  -1  17  -1  36  -1  38  -1
M  END
>  <UniqueID>  (58) 
54

>  <SMILES>  (58) 
Cc1ccc([N-]C(=O)c2c[n-]/c(=N\C(=O)c3cc([O-])c([O-])c(O)c3)s2)cc1

>  <Energy>  (58) 
76.11881298702178

>  <Genealogy>  (58) 
Cc1ccc([N-]C(=O)c2c[n-]c(=NC(=O)c3cc([O-])c([O-])c(O)c3)s2)cc1 (protonated)
Cc1ccc([N-]C(=O)c2c[n-]/c(=N\C(=O)c3cc([O-])c([O-])c(O)c3)s2)cc1 (cis-trans isomerization)
Cc1ccc([N-]C(=O)c2c[n-]/c(=N\C(=O)c3cc([O-])c([O-])c(O)c3)s2)cc1 (3D coordinates assigned)
Cc1ccc([N-]C(=O)c2c[n-]/c(=N\C(=O)c3cc([O-])c([O-])c(O)c3)s2)cc1 (optimized conformer: 76.11881298702178 kcal/mol)

>  <smiles>  (58) 
Cc1ccc(NC(=O)c2c[nH]c(=NC(=O)c3cc(O)c(O)c(O)c3)s2)cc1

>  <score_type>  (58) 
oracle

>  <origin>  (58) 
adg

>  <m_score__min__energy>  (58) 
-18.829999999999998

>  <m_primary>  (58) 
energy

$$$$
58:0
     RDKit          3D

 50 52  0  0  0  0  0  0  0  0999 V2000
   57.1780   32.0660   52.3200 C   0  0  0  0  0  0  0  0  0  0  0  0
   56.5000   30.7090   52.1750 C   0  0  0  0  0  0  0  0  0  0  0  0
   57.4000   29.7580   51.6120 O   0  0  0  0  0  0  0  0  0  0  0  0
   58.6600   29.4770   52.1520 C   0  0  0  0  0  0  0  0  0  0  0  0
   58.7710   28.8850   53.2590 O   0  0  0  0  0  0  0  0  0  0  0  0
   59.8860   29.9370   51.4320 C   0  0  0  0  0  0  0  0  0  0  0  0
   59.6570   29.8900   49.9880 N   0  0  0  0  0  0  0  0  0  0  0  0
   59.8420   28.8480   49.1490 C   0  0  0  0  0  0  0  0  0  0  0  0
   60.3660   27.6090   49.5140 O   0  0  0  0  0  0  0  0  0  0  0  0
   59.4110   29.1950   47.8820 C   0  0  0  0  0  0  0  0  0  0  0  0
   59.4380   28.3000   46.6690 C   0  0  0  0  0  0  0  0  0  0  0  0
   58.1220   27.5840   46.4850 C   0  0  0  0  0  0  0  0  0  0  0  0
   57.0770   28.1860   45.7680 C   0  0  0  0  0  0  0  0  0  0  0  0
   55.9020   27.5290   45.5910 N   0  0  0  0  0  0  0  0  0  0  0  0
   55.7090   26.2900   46.1080 C   0  0  0  0  0  0  0  0  0  0  0  0
   54.6140   25.6980   45.9290 O   0  0  0  0  0  0  0  0  0  0  0  0
   56.6950   25.6910   46.8230 N   0  0  0  0  0  0  0  0  0  0  0  0
   57.8880   26.3060   47.0270 C   0  0  0  0  0  0  0  0  0  0  0  0
   58.7750   25.7220   47.7030 O   0  0  0  0  0  0  0  0  0  0  0  0
   58.9440   30.4670   47.9300 N   0  0  0  0  0  0  0  0  0  0  0  0
   58.3190   31.2510   46.8590 C   0  0  0  0  0  0  0  0  0  0  0  0
   59.0430   32.5700   46.6690 C   0  0  0  0  0  0  0  0  0  0  0  0
   60.3700   32.6700   47.1250 C   0  0  0  0  0  0  0  0  0  0  0  0
   61.0890   33.8560   46.9760 C   0  0  0  0  0  0  0  0  0  0  0  0
   60.4960   34.9600   46.3690 C   0  0  0  0  0  0  0  0  0  0  0  0
   59.1820   34.8830   45.9070 C   0  0  0  0  0  0  0  0  0  0  0  0
   58.4400   33.6950   46.0470 C   0  0  0  0  0  0  0  0  0  0  0  0
   57.0270   33.6560   45.5280 C   0  0  0  0  0  0  0  0  0  0  0  0
   59.0920   30.8450   49.2210 C   0  0  0  0  0  0  0  0  0  0  0  0
   58.7220   31.9660   49.6660 O   0  0  0  0  0  0  0  0  0  0  0  0
   57.2970   32.3042   53.3873 H   0  0  0  0  0  0  0  0  0  0  0  0
   58.1666   32.0352   51.8387 H   0  0  0  0  0  0  0  0  0  0  0  0
   56.5597   32.8381   51.8387 H   0  0  0  0  0  0  0  0  0  0  0  0
   56.1765   30.3584   53.1662 H   0  0  0  0  0  0  0  0  0  0  0  0
   55.6319   30.8150   51.5078 H   0  0  0  0  0  0  0  0  0  0  0  0
   60.1203   30.9692   51.7316 H   0  0  0  0  0  0  0  0  0  0  0  0
   60.7281   29.2775   51.6888 H   0  0  0  0  0  0  0  0  0  0  0  0
   59.9970   26.7440   49.1420 H   0  0  0  0  0  0  0  0  0  0  0  0
   59.6408   28.9114   45.7773 H   0  0  0  0  0  0  0  0  0  0  0  0
   60.2260   27.5459   46.8120 H   0  0  0  0  0  0  0  0  0  0  0  0
   57.2101   29.1938   45.3478 H   0  0  0  0  0  0  0  0  0  0  0  0
   58.3599   30.6781   45.9209 H   0  0  0  0  0  0  0  0  0  0  0  0
   57.2742   31.4571   47.1346 H   0  0  0  0  0  0  0  0  0  0  0  0
   60.8464   31.8024   47.6049 H   0  0  0  0  0  0  0  0  0  0  0  0
   62.1257   33.9192   47.3384 H   0  0  0  0  0  0  0  0  0  0  0  0
   61.0647   35.8945   46.2536 H   0  0  0  0  0  0  0  0  0  0  0  0
   58.7210   35.7596   45.4284 H   0  0  0  0  0  0  0  0  0  0  0  0
   56.3256   33.6366   46.3752 H   0  0  0  0  0  0  0  0  0  0  0  0
   56.8368   34.5492   44.9148 H   0  0  0  0  0  0  0  0  0  0  0  0
   56.8864   32.7536   44.9148 H   0  0  0  0  0  0  0  0  0  0  0  0
  1  2  1  0
  2  3  1  0
  3  4  1  0
  4  5  2  0
  4  6  1  0
  6  7  1  0
  7  8  1  0
  8  9  1  0
  8 10  2  0
 10 11  1  0
 11 12  1  0
 12 13  2  0
 13 14  1  0
 14 15  1  0
 15 16  2  0
 15 17  1  0
 17 18  1  0
 18 19  2  0
 10 20  1  0
 20 21  1  0
 21 22  1  0
 22 23  2  0
 23 24  1  0
 24 25  2  0
 25 26  1  0
 26 27  2  0
 27 28  1  0
 20 29  1  0
 29 30  2  0
 29  7  1  0
 18 12  1  0
 27 22  1  0
  1 31  1  0
  1 32  1  0
  1 33  1  0
  2 34  1  0
  2 35  1  0
  6 36  1  0
  6 37  1  0
  9 38  1  0
 11 39  1  0
 11 40  1  0
 13 41  1  0
 21 42  1  0
 21 43  1  0
 23 44  1  0
 24 45  1  0
 25 46  1  0
 26 47  1  0
 28 48  1  0
 28 49  1  0
 28 50  1  0
M  CHG  2  14  -1  17  -1
M  END
>  <UniqueID>  (59) 
55

>  <SMILES>  (59) 
CCOC(=O)Cn1c(O)c(Cc2c[n-]c(=O)[n-]c2=O)n(Cc2ccccc2C)c1=O

>  <Energy>  (59) 
80.72394189707774

>  <Genealogy>  (59) 
CCOC(=O)Cn1c(O)c(Cc2c[n-]c(=O)[n-]c2=O)n(Cc2ccccc2C)c1=O (protonated)
CCOC(=O)Cn1c(O)c(Cc2c[n-]c(=O)[n-]c2=O)n(Cc2ccccc2C)c1=O (3D coordinates assigned)
CCOC(=O)Cn1c(O)c(Cc2c[n-]c(=O)[n-]c2=O)n(Cc2ccccc2C)c1=O (optimized conformer: 80.72394189707774 kcal/mol)

>  <smiles>  (59) 
CCOC(=O)Cn1c(O)c(Cc2c[nH]c(=O)[nH]c2=O)n(Cc2ccccc2C)c1=O

>  <score_type>  (59) 
oracle

>  <origin>  (59) 
adg

>  <m_score__min__energy>  (59) 
-11.01

>  <m_primary>  (59) 
energy

$$$$
59:0
     RDKit          3D

 53 56  0  0  0  0  0  0  0  0999 V2000
   58.0500   26.1820   47.1420 O   0  0  0  0  0  0  0  0  0  0  0  0
   57.9090   27.1490   46.3450 C   0  0  0  0  0  0  0  0  0  0  0  0
   56.6540   27.5730   46.0370 N   0  0  0  0  0  0  0  0  0  0  0  0
   56.4450   28.5900   45.1660 C   0  0  0  0  0  0  0  0  0  0  0  0
   55.1430   28.9830   44.8690 O   0  0  0  0  0  0  0  0  0  0  0  0
   57.5310   29.2270   44.5620 C   0  0  0  0  0  0  0  0  0  0  0  0
   57.2990   30.3400   43.6080 C   0  0  0  0  0  0  0  0  0  0  0  0
   57.0290   31.6040   43.9700 C   0  0  0  0  0  0  0  0  0  0  0  0
   57.8510   32.3890   44.9130 C   0  0  0  0  0  0  0  0  0  0  0  0
   58.7050   33.4080   44.4580 C   0  0  0  0  0  0  0  0  0  0  0  0
   59.4900   34.1260   45.3630 C   0  0  0  0  0  0  0  0  0  0  0  0
   59.4560   33.8190   46.7260 C   0  0  0  0  0  0  0  0  0  0  0  0
   60.2870   34.5330   47.6000 O   0  0  0  0  0  0  0  0  0  0  0  0
   61.5570   34.1130   48.0260 C   0  0  0  0  0  0  0  0  0  0  0  0
   61.9550   34.1930   49.3750 C   0  0  0  0  0  0  0  0  0  0  0  0
   63.2220   33.7450   49.7610 C   0  0  0  0  0  0  0  0  0  0  0  0
   64.0950   33.2080   48.8110 C   0  0  0  0  0  0  0  0  0  0  0  0
   63.6990   33.1110   47.4750 C   0  0  0  0  0  0  0  0  0  0  0  0
   62.4320   33.5570   47.0850 C   0  0  0  0  0  0  0  0  0  0  0  0
   58.5670   32.8350   47.1900 C   0  0  0  0  0  0  0  0  0  0  0  0
   57.7620   32.1320   46.2880 C   0  0  0  0  0  0  0  0  0  0  0  0
   58.8270   28.8150   44.9250 C   0  0  0  0  0  0  0  0  0  0  0  0
   59.8280   29.4270   44.4570 O   0  0  0  0  0  0  0  0  0  0  0  0
   59.0040   27.7670   45.7930 N   0  0  0  0  0  0  0  0  0  0  0  0
   60.3700   27.2840   46.0880 C   0  0  0  0  0  0  0  0  0  0  0  0
   60.5980   27.1590   47.6020 C   0  0  0  0  0  0  0  0  0  0  0  0
   60.4890   28.4930   48.2920 C   0  0  0  0  0  0  0  0  0  0  0  0
   60.1530   28.5610   49.6540 C   0  0  0  0  0  0  0  0  0  0  0  0
   60.0830   29.7990   50.3010 C   0  0  0  0  0  0  0  0  0  0  0  0
   60.3540   30.9750   49.5960 C   0  0  0  0  0  0  0  0  0  0  0  0
   60.7020   30.9140   48.2440 C   0  0  0  0  0  0  0  0  0  0  0  0
   60.7730   29.6790   47.5940 C   0  0  0  0  0  0  0  0  0  0  0  0
   55.8290   27.0980   46.4710 H   0  0  0  0  0  0  0  0  0  0  0  0
   57.3518   30.1140   42.5328 H   0  0  0  0  0  0  0  0  0  0  0  0
   56.1397   32.0854   43.5371 H   0  0  0  0  0  0  0  0  0  0  0  0
   58.7555   33.6412   43.3842 H   0  0  0  0  0  0  0  0  0  0  0  0
   60.1385   34.9374   45.0010 H   0  0  0  0  0  0  0  0  0  0  0  0
   61.2675   34.6088   50.1263 H   0  0  0  0  0  0  0  0  0  0  0  0
   63.5321   33.8153   50.8140 H   0  0  0  0  0  0  0  0  0  0  0  0
   65.0938   32.8618   49.1153 H   0  0  0  0  0  0  0  0  0  0  0  0
   64.3845   32.6833   46.7286 H   0  0  0  0  0  0  0  0  0  0  0  0
   62.1213   33.4705   46.0333 H   0  0  0  0  0  0  0  0  0  0  0  0
   58.5039   32.6168   48.2663 H   0  0  0  0  0  0  0  0  0  0  0  0
   57.0562   31.3743   46.6591 H   0  0  0  0  0  0  0  0  0  0  0  0
   60.5110   26.2981   45.6209 H   0  0  0  0  0  0  0  0  0  0  0  0
   61.0916   28.0098   45.6850 H   0  0  0  0  0  0  0  0  0  0  0  0
   59.8431   26.4776   48.0214 H   0  0  0  0  0  0  0  0  0  0  0  0
   61.6137   26.7695   47.7655 H   0  0  0  0  0  0  0  0  0  0  0  0
   59.9442   27.6374   50.2138 H   0  0  0  0  0  0  0  0  0  0  0  0
   59.8142   29.8472   51.3666 H   0  0  0  0  0  0  0  0  0  0  0  0
   60.2934   31.9482   50.1052 H   0  0  0  0  0  0  0  0  0  0  0  0
   60.9203   31.8393   47.6907 H   0  0  0  0  0  0  0  0  0  0  0  0
   61.0525   29.6351   46.5310 H   0  0  0  0  0  0  0  0  0  0  0  0
  1  2  2  0
  2  3  1  0
  3  4  1  0
  4  5  1  0
  4  6  2  0
  6  7  1  0
  7  8  2  3
  8  9  1  0
  9 10  2  0
 10 11  1  0
 11 12  2  0
 12 13  1  0
 13 14  1  0
 14 15  2  0
 15 16  1  0
 16 17  2  0
 17 18  1  0
 18 19  2  0
 12 20  1  0
 20 21  2  0
  6 22  1  0
 22 23  2  0
 22 24  1  0
 24 25  1  0
 25 26  1  0
 26 27  1  0
 27 28  2  0
 28 29  1  0
 29 30  2  0
 30 31  1  0
 31 32  2  0
 24  2  1  0
 32 27  1  0
 21  9  1  0
 19 14  1  0
  3 33  1  0
  7 34  1  0
  8 35  1  0
 10 36  1  0
 11 37  1  0
 15 38  1  0
 16 39  1  0
 17 40  1  0
 18 41  1  0
 19 42  1  0
 20 43  1  0
 21 44  1  0
 25 45  1  0
 25 46  1  0
 26 47  1  0
 26 48  1  0
 28 49  1  0
 29 50  1  0
 30 51  1  0
 31 52  1  0
 32 53  1  0
M  CHG  1   5  -1
M  END
>  <UniqueID>  (60) 
56

>  <SMILES>  (60) 
O=c1[nH]c([O-])c(C=Cc2ccc(Oc3ccccc3)cc2)c(=O)n1CCc1ccccc1

>  <Energy>  (60) 
73.89115260104285

>  <Genealogy>  (60) 
O=c1[nH]c([O-])c(C=Cc2ccc(Oc3ccccc3)cc2)c(=O)n1CCc1ccccc1 (protonated)
O=c1[nH]c([O-])c(C=Cc2ccc(Oc3ccccc3)cc2)c(=O)n1CCc1ccccc1 (3D coordinates assigned)
O=c1[nH]c([O-])c(C=Cc2ccc(Oc3ccccc3)cc2)c(=O)n1CCc1ccccc1 (optimized conformer: 73.89115260104285 kcal/mol)

>  <smiles>  (60) 
O=c1[nH]c(O)c(C=Cc2ccc(Oc3ccccc3)cc2)c(=O)n1CCc1ccccc1

>  <score_type>  (60) 
oracle

>  <origin>  (60) 
adg

>  <m_score__min__energy>  (60) 
-12.67

>  <m_primary>  (60) 
energy

$$$$
60:0
     RDKit          3D

 53 55  0  0  0  0  0  0  0  0999 V2000
   56.9910   27.0280   46.1410 C   0  0  0  0  0  0  0  0  0  0  0  0
   58.5110   27.2220   46.0240 C   0  0  1  0  0  0  0  0  0  0  0  0
   58.9320   27.6010   44.5840 C   0  0  0  0  0  0  0  0  0  0  0  0
   58.4040   28.9840   44.1490 C   0  0  0  0  0  0  0  0  0  0  0  0
   58.5800   30.0150   45.2320 C   0  0  0  0  0  0  0  0  0  0  0  0
   58.7820   29.6610   46.5630 C   0  0  0  0  0  0  0  0  0  0  0  0
   58.8240   31.0470   47.5130 S   0  0  0  0  0  0  0  0  0  0  0  0
   58.5720   32.1200   46.2420 C   0  0  0  0  0  0  0  0  0  0  0  0
   58.4130   33.5320   46.4250 N   0  0  0  0  0  0  0  0  0  0  0  0
   59.4540   34.4360   46.8130 C   0  0  0  0  0  0  0  0  0  0  0  0
   59.2710   35.6800   46.7140 O   0  0  0  0  0  0  0  0  0  0  0  0
   60.7570   33.9130   47.2820 C   0  0  0  0  0  0  0  0  0  0  0  0
   60.9140   33.4710   48.6080 C   0  0  0  0  0  0  0  0  0  0  0  0
   62.1390   32.9630   49.0490 C   0  0  0  0  0  0  0  0  0  0  0  0
   63.2320   32.8800   48.1710 C   0  0  0  0  0  0  0  0  0  0  0  0
   64.4870   32.3200   48.6150 N   0  0  0  0  0  0  0  0  0  0  0  0
   64.3800   31.7090   49.9530 C   0  0  0  0  0  0  0  0  0  0  0  0
   65.6100   31.9810   50.8430 C   0  0  0  0  0  0  0  0  0  0  0  0
   66.1990   33.3110   50.5700 N   0  0  0  0  0  0  0  0  0  0  0  0
   67.6700   33.2430   50.4990 C   0  0  0  0  0  0  0  0  0  0  0  0
   65.8030   34.2720   51.6130 C   0  0  0  0  0  0  0  0  0  0  0  0
   63.0820   33.3340   46.8490 C   0  0  0  0  0  0  0  0  0  0  0  0
   61.8570   33.8410   46.4090 C   0  0  0  0  0  0  0  0  0  0  0  0
   58.4270   31.4020   45.0500 C   0  0  0  0  0  0  0  0  0  0  0  0
   58.0440   31.9910   43.7910 C   0  0  0  0  0  0  0  0  0  0  0  0
   57.7390   32.4630   42.7800 N   0  0  0  0  0  0  0  0  0  0  0  0
   59.0290   28.2620   47.0400 C   0  0  0  0  0  0  0  0  0  0  0  0
   56.7067   26.9917   47.2030 H   0  0  0  0  0  0  0  0  0  0  0  0
   56.4755   27.8676   45.6519 H   0  0  0  0  0  0  0  0  0  0  0  0
   56.7029   26.0858   45.6519 H   0  0  0  0  0  0  0  0  0  0  0  0
   58.9766   26.2546   46.2635 H   0  0  0  0  0  0  0  0  0  0  0  0
   60.0307   27.6120   44.5308 H   0  0  0  0  0  0  0  0  0  0  0  0
   58.4971   26.8528   43.9050 H   0  0  0  0  0  0  0  0  0  0  0  0
   58.9543   29.3100   43.2541 H   0  0  0  0  0  0  0  0  0  0  0  0
   57.3285   28.8889   43.9386 H   0  0  0  0  0  0  0  0  0  0  0  0
   60.0645   33.5257   49.3046 H   0  0  0  0  0  0  0  0  0  0  0  0
   62.2478   32.6260   50.0904 H   0  0  0  0  0  0  0  0  0  0  0  0
   64.8460   31.6130   47.9300 H   0  0  0  0  0  0  0  0  0  0  0  0
   65.1950   33.0900   48.6570 H   0  0  0  0  0  0  0  0  0  0  0  0
   63.4890   32.1161   50.4534 H   0  0  0  0  0  0  0  0  0  0  0  0
   64.3120   30.6202   49.8117 H   0  0  0  0  0  0  0  0  0  0  0  0
   65.3033   31.9366   51.8984 H   0  0  0  0  0  0  0  0  0  0  0  0
   66.3698   31.2171   50.6212 H   0  0  0  0  0  0  0  0  0  0  0  0
   68.0857   33.2238   51.5172 H   0  0  0  0  0  0  0  0  0  0  0  0
   67.9694   32.3301   49.9634 H   0  0  0  0  0  0  0  0  0  0  0  0
   68.0524   34.1244   49.9634 H   0  0  0  0  0  0  0  0  0  0  0  0
   65.9843   33.8321   52.6048 H   0  0  0  0  0  0  0  0  0  0  0  0
   66.3949   35.1931   51.5067 H   0  0  0  0  0  0  0  0  0  0  0  0
   64.7340   34.5087   51.5067 H   0  0  0  0  0  0  0  0  0  0  0  0
   63.9353   33.2897   46.1562 H   0  0  0  0  0  0  0  0  0  0  0  0
   61.7519   34.1871   45.3702 H   0  0  0  0  0  0  0  0  0  0  0  0
   60.1103   28.1173   47.1807 H   0  0  0  0  0  0  0  0  0  0  0  0
   58.4899   28.1188   47.9881 H   0  0  0  0  0  0  0  0  0  0  0  0
  1  2  1  0
  2  3  1  0
  3  4  1  0
  4  5  1  0
  5  6  2  0
  6  7  1  0
  7  8  1  0
  8  9  1  0
  9 10  1  0
 10 11  2  0
 10 12  1  0
 12 13  2  0
 13 14  1  0
 14 15  2  0
 15 16  1  0
 16 17  1  0
 17 18  1  0
 18 19  1  0
 19 20  1  0
 19 21  1  0
 15 22  1  0
 22 23  2  0
  8 24  2  0
 24 25  1  0
 25 26  3  0
  6 27  1  0
 27  2  1  0
 24  5  1  0
 23 12  1  0
  1 28  1  0
  1 29  1  0
  1 30  1  0
  2 31  1  1
  3 32  1  0
  3 33  1  0
  4 34  1  0
  4 35  1  0
 13 36  1  0
 14 37  1  0
 16 38  1  0
 16 39  1  0
 17 40  1  0
 17 41  1  0
 18 42  1  0
 18 43  1  0
 20 44  1  0
 20 45  1  0
 20 46  1  0
 21 47  1  0
 21 48  1  0
 21 49  1  0
 22 50  1  0
 23 51  1  0
 27 52  1  0
 27 53  1  0
M  CHG  2   9  -1  16   1
M  END
>  <UniqueID>  (61) 
57

>  <SMILES>  (61) 
C[C@H]1CCc2c(sc([N-]C(=O)c3ccc([NH2+]CCN(C)C)cc3)c2C#N)C1

>  <Energy>  (61) 
83.99526223202068

>  <Genealogy>  (61) 
CC1CCc2c(sc([N-]C(=O)c3ccc([NH2+]CCN(C)C)cc3)c2C#N)C1 (protonated)
C[C@H]1CCc2c(sc([N-]C(=O)c3ccc([NH2+]CCN(C)C)cc3)c2C#N)C1 (chirality)
C[C@H]1CCc2c(sc([N-]C(=O)c3ccc([NH2+]CCN(C)C)cc3)c2C#N)C1 (3D coordinates assigned)
C[C@H]1CCc2c(sc([N-]C(=O)c3ccc([NH2+]CCN(C)C)cc3)c2C#N)C1 (nonaromatic ring conformer: 83.99526223202068 kcal/mol)

>  <smiles>  (61) 
CC1CCc2c(sc(NC(=O)c3ccc(NCCN(C)C)cc3)c2C#N)C1

>  <score_type>  (61) 
oracle

>  <origin>  (61) 
adg

>  <m_score__min__energy>  (61) 
-8.1699999999999999

>  <m_primary>  (61) 
energy

$$$$
61:0
     RDKit          3D

 61 64  0  0  0  0  0  0  0  0999 V2000
   51.4380   32.5750   51.2020 N   0  0  0  0  0  0  0  0  0  0  0  0
   51.7420   30.8860   51.3970 S   0  0  0  0  0  0  0  0  0  0  0  0
   51.6970   30.2100   50.0550 O   0  0  0  0  0  0  0  0  0  0  0  0
   50.6810   30.2860   52.2770 O   0  0  0  0  0  0  0  0  0  0  0  0
   53.3260   30.6580   52.1310 C   0  0  0  0  0  0  0  0  0  0  0  0
   53.4360   30.4010   53.5050 C   0  0  0  0  0  0  0  0  0  0  0  0
   54.6950   30.2380   54.0880 C   0  0  0  0  0  0  0  0  0  0  0  0
   55.8490   30.3260   53.3040 C   0  0  0  0  0  0  0  0  0  0  0  0
   55.7480   30.5690   51.9210 C   0  0  0  0  0  0  0  0  0  0  0  0
   56.8820   30.6310   51.0960 O   0  0  0  0  0  0  0  0  0  0  0  0
   57.8980   31.5900   51.2110 C   0  0  0  0  0  0  0  0  0  0  0  0
   57.6460   32.7260   51.9870 C   0  0  0  0  0  0  0  0  0  0  0  0
   58.6390   33.6870   52.1770 C   0  0  0  0  0  0  0  0  0  0  0  0
   59.8960   33.5210   51.5920 C   0  0  0  0  0  0  0  0  0  0  0  0
   60.1540   32.4090   50.7870 C   0  0  0  0  0  0  0  0  0  0  0  0
   59.1540   31.4460   50.5630 C   0  0  0  0  0  0  0  0  0  0  0  0
   59.4210   30.3370   49.6140 C   0  0  0  0  0  0  0  0  0  0  0  0
   59.7730   29.0630   50.0890 C   0  0  0  0  0  0  0  0  0  0  0  0
   59.9880   28.0100   49.1960 C   0  0  0  0  0  0  0  0  0  0  0  0
   59.8510   28.2170   47.8210 C   0  0  0  0  0  0  0  0  0  0  0  0
   59.4960   29.4820   47.3310 C   0  0  0  0  0  0  0  0  0  0  0  0
   59.3650   29.7170   45.8510 C   0  0  0  0  0  0  0  0  0  0  0  0
   57.7420   29.2390   45.2820 S   0  0  0  0  0  0  0  0  0  0  0  0
   57.0510   28.4540   46.3640 O   0  0  0  0  0  0  0  0  0  0  0  0
   57.8720   28.3960   44.0400 O   0  0  0  0  0  0  0  0  0  0  0  0
   56.8320   30.6720   44.9260 N   0  0  0  0  0  0  0  0  0  0  0  0
   57.3160   32.0070   45.1080 C   0  0  0  0  0  0  0  0  0  0  0  0
   57.4890   32.7270   44.0910 O   0  0  0  0  0  0  0  0  0  0  0  0
   57.6050   32.5260   46.4160 N   0  0  0  0  0  0  0  0  0  0  0  0
   58.0640   33.8980   46.6220 C   0  0  0  0  0  0  0  0  0  0  0  0
   59.4880   33.9040   47.1070 C   0  0  0  0  0  0  0  0  0  0  0  0
   60.4870   33.2070   46.4080 C   0  0  0  0  0  0  0  0  0  0  0  0
   61.8030   33.2000   46.8810 C   0  0  0  0  0  0  0  0  0  0  0  0
   62.1290   33.8880   48.0530 C   0  0  0  0  0  0  0  0  0  0  0  0
   61.1410   34.5830   48.7550 C   0  0  0  0  0  0  0  0  0  0  0  0
   59.8240   34.5930   48.2840 C   0  0  0  0  0  0  0  0  0  0  0  0
   59.3100   30.5430   48.2300 C   0  0  0  0  0  0  0  0  0  0  0  0
   54.4860   30.7590   51.3490 C   0  0  0  0  0  0  0  0  0  0  0  0
   51.0530   32.7060   50.2410 H   0  0  0  0  0  0  0  0  0  0  0  0
   52.5300   30.3276   54.1245 H   0  0  0  0  0  0  0  0  0  0  0  0
   54.7785   30.0399   55.1668 H   0  0  0  0  0  0  0  0  0  0  0  0
   56.8386   30.2051   53.7689 H   0  0  0  0  0  0  0  0  0  0  0  0
   56.6579   32.8625   52.4507 H   0  0  0  0  0  0  0  0  0  0  0  0
   58.4315   34.5773   52.7888 H   0  0  0  0  0  0  0  0  0  0  0  0
   60.6849   34.2677   51.7655 H   0  0  0  0  0  0  0  0  0  0  0  0
   61.1450   32.2859   50.3257 H   0  0  0  0  0  0  0  0  0  0  0  0
   59.8801   28.8931   51.1705 H   0  0  0  0  0  0  0  0  0  0  0  0
   60.2657   27.0159   49.5763 H   0  0  0  0  0  0  0  0  0  0  0  0
   60.0220   27.3857   47.1212 H   0  0  0  0  0  0  0  0  0  0  0  0
   59.5228   30.7847   45.6389 H   0  0  0  0  0  0  0  0  0  0  0  0
   60.1182   29.1103   45.3269 H   0  0  0  0  0  0  0  0  0  0  0  0
   57.4920   31.9250   47.2580 H   0  0  0  0  0  0  0  0  0  0  0  0
   58.0019   34.4482   45.6715 H   0  0  0  0  0  0  0  0  0  0  0  0
   57.4261   34.3794   47.3779 H   0  0  0  0  0  0  0  0  0  0  0  0
   60.2334   32.6647   45.4852 H   0  0  0  0  0  0  0  0  0  0  0  0
   62.5821   32.6526   46.3302 H   0  0  0  0  0  0  0  0  0  0  0  0
   63.1648   33.8823   48.4232 H   0  0  0  0  0  0  0  0  0  0  0  0
   61.3989   35.1224   49.6783 H   0  0  0  0  0  0  0  0  0  0  0  0
   59.0484   35.1426   48.8375 H   0  0  0  0  0  0  0  0  0  0  0  0
   59.0747   31.5467   47.8462 H   0  0  0  0  0  0  0  0  0  0  0  0
   54.4024   30.9896   50.2767 H   0  0  0  0  0  0  0  0  0  0  0  0
  1  2  1  0
  2  3  2  0
  2  4  2  0
  2  5  1  0
  5  6  2  0
  6  7  1  0
  7  8  2  0
  8  9  1  0
  9 10  1  0
 10 11  1  0
 11 12  2  0
 12 13  1  0
 13 14  2  0
 14 15  1  0
 15 16  2  0
 16 17  1  0
 17 18  2  0
 18 19  1  0
 19 20  2  0
 20 21  1  0
 21 22  1  0
 22 23  1  0
 23 24  2  0
 23 25  2  0
 23 26  1  0
 26 27  1  0
 27 28  2  0
 27 29  1  0
 29 30  1  0
 30 31  1  0
 31 32  2  0
 32 33  1  0
 33 34  2  0
 34 35  1  0
 35 36  2  0
 21 37  2  0
  9 38  2  0
 38  5  1  0
 16 11  1  0
 37 17  1  0
 36 31  1  0
  1 39  1  0
  6 40  1  0
  7 41  1  0
  8 42  1  0
 12 43  1  0
 13 44  1  0
 14 45  1  0
 15 46  1  0
 18 47  1  0
 19 48  1  0
 20 49  1  0
 22 50  1  0
 22 51  1  0
 29 52  1  0
 30 53  1  0
 30 54  1  0
 32 55  1  0
 33 56  1  0
 34 57  1  0
 35 58  1  0
 36 59  1  0
 37 60  1  0
 38 61  1  0
M  CHG  2   1  -1  26  -1
M  END
>  <UniqueID>  (62) 
58

>  <SMILES>  (62) 
[NH-]S(=O)(=O)c1cccc(Oc2ccccc2-c2cccc(CS(=O)(=O)[N-]C(=O)NCc3ccccc3)c2)c1

>  <Energy>  (62) 
71.65382215280111

>  <Genealogy>  (62) 
[NH-]S(=O)(=O)c1cccc(Oc2ccccc2-c2cccc(CS(=O)(=O)[N-]C(=O)NCc3ccccc3)c2)c1 (protonated)
[NH-]S(=O)(=O)c1cccc(Oc2ccccc2-c2cccc(CS(=O)(=O)[N-]C(=O)NCc3ccccc3)c2)c1 (3D coordinates assigned)
[NH-]S(=O)(=O)c1cccc(Oc2ccccc2-c2cccc(CS(=O)(=O)[N-]C(=O)NCc3ccccc3)c2)c1 (optimized conformer: 71.65382215280111 kcal/mol)

>  <smiles>  (62) 
NS(=O)(=O)c1cccc(Oc2ccccc2-c2cccc(CS(=O)(=O)NC(=O)NCc3ccccc3)c2)c1

>  <score_type>  (62) 
oracle

>  <origin>  (62) 
adg

>  <m_score__min__energy>  (62) 
-15.449999999999999

>  <m_primary>  (62) 
energy

$$$$
62:0
     RDKit          3D

 55 58  0  0  1  0  0  0  0  0999 V2000
   50.7730   24.6330   43.5510 C   0  0  0  0  0  0  0  0  0  0  0  0
   51.3170   24.0100   44.6990 O   0  0  0  0  0  0  0  0  0  0  0  0
   52.6830   23.8540   44.7920 C   0  0  0  0  0  0  0  0  0  0  0  0
   53.3830   24.0560   45.9830 C   0  0  0  0  0  0  0  0  0  0  0  0
   54.7520   23.8900   46.0370 C   0  0  0  0  0  0  0  0  0  0  0  0
   55.4560   24.0600   47.0950 N   0  0  0  0  0  0  0  0  0  0  0  0
   57.1160   24.4240   47.1680 S   0  0  0  0  0  0  0  0  0  0  0  0
   58.0230   23.3780   46.5870 O   0  0  0  0  0  0  0  0  0  0  0  0
   57.4490   24.3520   48.6620 O   0  0  0  0  0  0  0  0  0  0  0  0
   57.5230   26.0430   46.6840 C   0  0  0  0  0  0  0  0  0  0  0  0
   58.6620   26.7050   47.0880 C   0  0  0  0  0  0  0  0  0  0  0  0
   58.9860   27.9820   46.7060 C   0  0  0  0  0  0  0  0  0  0  0  0
   58.1560   28.6970   45.8660 C   0  0  0  0  0  0  0  0  0  0  0  0
   58.5520   30.0040   45.5150 N   0  0  0  0  0  0  0  0  0  0  0  0
   57.7340   30.9810   44.9020 C   0  0  0  0  0  0  0  0  0  0  0  0
   56.5360   30.8070   44.5900 O   0  0  0  0  0  0  0  0  0  0  0  0
   58.2690   32.2910   44.5940 N   0  0  0  0  0  0  0  0  0  0  0  0
   58.8370   32.9970   45.4450 C   0  0  0  0  0  0  0  0  0  0  0  0
   59.9880   32.9010   46.0920 N   0  0  0  0  0  0  0  0  0  0  0  0
   60.3860   33.7700   46.9530 C   0  0  0  0  0  0  0  0  0  0  0  0
   61.6860   33.6660   47.6860 C   0  0  0  0  0  0  0  0  0  0  0  0
   61.7830   33.9960   49.0150 C   0  0  0  0  0  0  0  0  0  0  0  0
   62.9820   33.9080   49.7210 C   0  0  0  0  0  0  0  0  0  0  0  0
   64.1180   33.4760   49.0740 C   0  0  0  0  0  0  0  0  0  0  0  0
   64.0120   33.1490   47.7520 C   0  0  0  0  0  0  0  0  0  0  0  0
   62.8250   33.2390   47.0590 C   0  0  0  0  0  0  0  0  0  0  0  0
   59.5800   34.8820   47.2400 C   0  0  0  0  0  0  0  0  0  0  0  0
   58.1010   34.5850   46.1120 S   0  0  0  0  0  0  0  0  0  0  0  0
   57.0130   28.0690   45.4450 C   0  0  0  0  0  0  0  0  0  0  0  0
   56.6800   26.7690   45.8320 C   0  0  0  0  0  0  0  0  0  0  0  0
   55.3950   23.5280   44.9180 N   0  0  0  0  0  0  0  0  0  0  0  0
   54.7500   23.3260   43.7570 C   0  0  0  0  0  0  0  0  0  0  0  0
   55.4630   22.9540   42.6320 O   0  0  0  0  0  0  0  0  0  0  0  0
   56.6200   22.1610   42.7930 C   0  0  0  0  0  0  0  0  0  0  0  0
   53.4220   23.4920   43.7220 N   0  0  0  0  0  0  0  0  0  0  0  0
   50.0786   25.4283   43.8597 H   0  0  0  0  0  0  0  0  0  0  0  0
   51.5853   25.0683   42.9504 H   0  0  0  0  0  0  0  0  0  0  0  0
   50.2322   23.8868   42.9504 H   0  0  0  0  0  0  0  0  0  0  0  0
   52.8360   24.3514   46.8905 H   0  0  0  0  0  0  0  0  0  0  0  0
   59.3549   26.1762   47.7590 H   0  0  0  0  0  0  0  0  0  0  0  0
   59.9162   28.4407   47.0725 H   0  0  0  0  0  0  0  0  0  0  0  0
   59.5460   30.3120   45.7150 H   0  0  0  0  0  0  0  0  0  0  0  0
   60.5960   32.0200   45.8450 H   0  0  0  0  0  0  0  0  0  0  0  0
   60.8818   34.3425   49.5421 H   0  0  0  0  0  0  0  0  0  0  0  0
   63.0201   34.1814   50.7858 H   0  0  0  0  0  0  0  0  0  0  0  0
   65.0787   33.3969   49.6039 H   0  0  0  0  0  0  0  0  0  0  0  0
   64.9095   32.8002   47.2201 H   0  0  0  0  0  0  0  0  0  0  0  0
   62.7924   32.9657   45.9940 H   0  0  0  0  0  0  0  0  0  0  0  0
   59.7637   35.7102   47.9402 H   0  0  0  0  0  0  0  0  0  0  0  0
   56.3297   28.6111   44.7747 H   0  0  0  0  0  0  0  0  0  0  0  0
   55.7492   26.3117   45.4653 H   0  0  0  0  0  0  0  0  0  0  0  0
   56.4270   23.3940   44.9220 H   0  0  0  0  0  0  0  0  0  0  0  0
   56.8229   22.0219   43.8651 H   0  0  0  0  0  0  0  0  0  0  0  0
   56.4615   21.1808   42.3196 H   0  0  0  0  0  0  0  0  0  0  0  0
   57.4770   22.6625   42.3196 H   0  0  0  0  0  0  0  0  0  0  0  0
  1  2  1  0
  2  3  1  0
  3  4  2  0
  4  5  1  0
  5  6  2  0
  6  7  1  0
  7  8  2  0
  7  9  2  0
  7 10  1  0
 10 11  2  0
 11 12  1  0
 12 13  2  0
 13 14  1  0
 14 15  1  0
 15 16  2  0
 15 17  1  0
 17 18  2  0
 18 19  1  0
 19 20  1  0
 20 21  1  0
 21 22  2  0
 22 23  1  0
 23 24  2  0
 24 25  1  0
 25 26  2  0
 20 27  2  0
 27 28  1  0
 13 29  1  0
 29 30  2  0
  5 31  1  0
 31 32  1  0
 32 33  1  0
 33 34  1  0
 32 35  2  0
 35  3  1  0
 30 10  1  0
 28 18  1  0
 26 21  1  0
  1 36  1  0
  1 37  1  0
  1 38  1  0
  4 39  1  0
 11 40  1  0
 12 41  1  0
 14 42  1  0
 19 43  1  0
 22 44  1  0
 23 45  1  0
 24 46  1  0
 25 47  1  0
 26 48  1  0
 27 49  1  0
 29 50  1  0
 30 51  1  0
 31 52  1  0
 34 53  1  0
 34 54  1  0
 34 55  1  0
M  END
>  <smiles>  (63) 
COc1cc(=NS(=O)(=O)c2ccc(NC(=O)N=c3[nH]c(-c4ccccc4)cs3)cc2)[nH]c(OC)n1

>  <score_type>  (63) 
oracle

>  <origin>  (63) 
adg

>  <m_score__min__energy>  (63) 
-9.1899999999999995

>  <m_primary>  (63) 
energy

$$$$
63:0
     RDKit          3D

 46 50  0  0  0  0  0  0  0  0999 V2000
   57.0000   29.8870   43.0140 C   0  0  0  0  0  0  0  0  0  0  0  0
   57.2060   29.0360   44.0920 C   0  0  0  0  0  0  0  0  0  0  0  0
   57.5390   29.5570   45.3390 C   0  0  0  0  0  0  0  0  0  0  0  0
   57.6900   30.9480   45.5450 C   0  0  0  0  0  0  0  0  0  0  0  0
   57.4460   31.8280   44.4320 C   0  0  0  0  0  0  0  0  0  0  0  0
   57.1030   31.2660   43.1850 C   0  0  0  0  0  0  0  0  0  0  0  0
   57.3830   33.3480   44.5090 C   0  0  0  0  0  0  0  0  0  0  0  0
   58.4290   33.9240   45.3490 N   0  0  0  0  0  0  0  0  0  0  0  0
   59.3990   34.7830   44.9800 C   0  0  0  0  0  0  0  0  0  0  0  0
   60.1490   35.1330   46.0870 C   0  0  0  0  0  0  0  0  0  0  0  0
   59.6070   34.4600   47.1680 C   0  0  0  0  0  0  0  0  0  0  0  0
   58.5340   33.7470   46.6720 C   0  0  0  0  0  0  0  0  0  0  0  0
   57.7370   32.7200   47.3890 C   0  0  0  0  0  0  0  0  0  0  0  0
   58.1200   31.4090   46.8600 N   0  0  0  0  0  0  0  0  0  0  0  0
   59.0510   30.6070   47.6720 C   0  0  0  0  0  0  0  0  0  0  0  0
   60.3430   31.3410   47.8940 C   0  0  0  0  0  0  0  0  0  0  0  0
   61.4330   31.3260   47.0390 C   0  0  0  0  0  0  0  0  0  0  0  0
   62.4000   32.0680   47.6070 N   0  0  0  0  0  0  0  0  0  0  0  0
   61.9150   32.4760   48.7900 C   0  0  0  0  0  0  0  0  0  0  0  0
   60.6500   32.0620   48.9950 N   0  0  0  0  0  0  0  0  0  0  0  0
   62.7020   33.3460   49.7160 C   0  0  0  0  0  0  0  0  0  0  0  0
   64.1890   33.2960   49.3210 C   0  0  0  0  0  0  0  0  0  0  0  0
   64.3520   33.4470   47.8630 N   0  0  0  0  0  0  0  0  0  0  0  0
   63.7650   32.3000   47.1470 C   0  0  0  0  0  0  0  0  0  0  0  0
   56.7555   29.4723   42.0249 H   0  0  0  0  0  0  0  0  0  0  0  0
   57.1058   27.9485   43.9601 H   0  0  0  0  0  0  0  0  0  0  0  0
   57.6884   28.8700   46.1850 H   0  0  0  0  0  0  0  0  0  0  0  0
   56.9127   31.9303   42.3291 H   0  0  0  0  0  0  0  0  0  0  0  0
   57.4875   33.7544   43.4922 H   0  0  0  0  0  0  0  0  0  0  0  0
   56.4163   33.6131   44.9619 H   0  0  0  0  0  0  0  0  0  0  0  0
   59.5679   35.1490   43.9565 H   0  0  0  0  0  0  0  0  0  0  0  0
   61.0114   35.8156   46.1053 H   0  0  0  0  0  0  0  0  0  0  0  0
   59.9593   34.4876   48.2097 H   0  0  0  0  0  0  0  0  0  0  0  0
   57.9503   32.7657   48.4671 H   0  0  0  0  0  0  0  0  0  0  0  0
   56.6611   32.8954   47.2415 H   0  0  0  0  0  0  0  0  0  0  0  0
   58.5866   30.3939   48.6461 H   0  0  0  0  0  0  0  0  0  0  0  0
   59.2676   29.6718   47.1349 H   0  0  0  0  0  0  0  0  0  0  0  0
   61.4959   30.8033   46.0732 H   0  0  0  0  0  0  0  0  0  0  0  0
   60.0480   32.2560   49.8260 H   0  0  0  0  0  0  0  0  0  0  0  0
   62.3378   34.3816   49.6455 H   0  0  0  0  0  0  0  0  0  0  0  0
   62.5830   32.9869   50.7489 H   0  0  0  0  0  0  0  0  0  0  0  0
   64.7243   34.1114   49.8295 H   0  0  0  0  0  0  0  0  0  0  0  0
   64.5996   32.3207   49.6212 H   0  0  0  0  0  0  0  0  0  0  0  0
   65.3770   33.4660   47.6530 H   0  0  0  0  0  0  0  0  0  0  0  0
   63.7543   32.5115   46.0676 H   0  0  0  0  0  0  0  0  0  0  0  0
   64.3698   31.4030   47.3463 H   0  0  0  0  0  0  0  0  0  0  0  0
  1  2  2  0
  2  3  1  0
  3  4  2  0
  4  5  1  0
  5  6  2  0
  5  7  1  0
  7  8  1  0
  8  9  1  0
  9 10  2  0
 10 11  1  0
 11 12  2  0
 12 13  1  0
 13 14  1  0
 14 15  1  0
 15 16  1  0
 16 17  2  0
 17 18  1  0
 18 19  1  0
 19 20  2  0
 19 21  1  0
 21 22  1  0
 22 23  1  0
 23 24  1  0
  6  1  1  0
 12  8  1  0
 20 16  1  0
 14  4  1  0
 24 18  1  0
  1 25  1  0
  2 26  1  0
  3 27  1  0
  6 28  1  0
  7 29  1  0
  7 30  1  0
  9 31  1  0
 10 32  1  0
 11 33  1  0
 13 34  1  0
 13 35  1  0
 15 36  1  0
 15 37  1  0
 17 38  1  0
 20 39  1  0
 21 40  1  0
 21 41  1  0
 22 42  1  0
 22 43  1  0
 23 44  1  0
 24 45  1  0
 24 46  1  0
M  CHG  1  20   1
M  END
>  <UniqueID>  (64) 
59

>  <SMILES>  (64) 
c1ccc2c(c1)Cn1cccc1CN2Cc1cn2c([nH+]1)CCNC2

>  <Energy>  (64) 
118.70772852426903

>  <Genealogy>  (64) 
c1ccc2c(c1)Cn1cccc1CN2Cc1cn2c([nH+]1)CCNC2 (protonated)
c1ccc2c(c1)Cn1cccc1CN2Cc1cn2c([nH+]1)CCNC2 (3D coordinates assigned)
c1ccc2c(c1)Cn1cccc1CN2Cc1cn2c([nH+]1)CCNC2 (nonaromatic ring conformer: 118.70772852426903 kcal/mol)

>  <smiles>  (64) 
c1ccc2c(c1)Cn1cccc1CN2Cc1cn2c(n1)CCNC2

>  <score_type>  (64) 
oracle

>  <origin>  (64) 
adg

>  <m_score__min__energy>  (64) 
-6.6200000000000001

>  <m_primary>  (64) 
energy

$$$$
64:0
     RDKit          3D

 43 45  0  0  0  0  0  0  0  0999 V2000
   56.7270   30.6010   43.9850 C   0  0  0  0  0  0  0  0  0  0  0  0
   57.0550   31.0920   45.2810 O   0  0  0  0  0  0  0  0  0  0  0  0
   57.7810   32.2700   45.5250 C   0  0  0  0  0  0  0  0  0  0  0  0
   57.8060   33.3350   44.6030 C   0  0  0  0  0  0  0  0  0  0  0  0
   58.5450   34.4890   44.8780 C   0  0  0  0  0  0  0  0  0  0  0  0
   59.2580   34.5940   46.0710 C   0  0  0  0  0  0  0  0  0  0  0  0
   59.2370   33.5470   46.9950 C   0  0  0  0  0  0  0  0  0  0  0  0
   58.5020   32.3770   46.7270 C   0  0  0  0  0  0  0  0  0  0  0  0
   58.4680   31.2780   47.6510 N   0  0  0  0  0  0  0  0  0  0  0  0
   59.5020   29.8880   47.5940 S   0  0  0  0  0  0  0  0  0  0  0  0
   60.9040   30.3280   47.2770 O   0  0  0  0  0  0  0  0  0  0  0  0
   59.4940   29.2140   48.9360 O   0  0  0  0  0  0  0  0  0  0  0  0
   58.9100   28.7520   46.3850 C   0  0  0  0  0  0  0  0  0  0  0  0
   59.4540   28.7690   45.0960 C   0  0  0  0  0  0  0  0  0  0  0  0
   59.0000   27.8670   44.1330 C   0  0  0  0  0  0  0  0  0  0  0  0
   57.9980   26.9440   44.4460 C   0  0  0  0  0  0  0  0  0  0  0  0
   57.5710   26.0940   43.4770 F   0  0  0  0  0  0  0  0  0  0  0  0
   57.4350   26.9170   45.7390 C   0  0  0  0  0  0  0  0  0  0  0  0
   56.3620   25.9470   46.0880 C   0  0  0  0  0  0  0  0  0  0  0  0
   55.1530   26.2910   46.0120 O   0  0  0  0  0  0  0  0  0  0  0  0
   56.6650   24.5860   46.4220 N   0  0  0  0  0  0  0  0  0  0  0  0
   57.0600   23.6270   45.6290 C   0  0  0  0  0  0  0  0  0  0  0  0
   58.1740   22.9300   45.9870 N   0  0  0  0  0  0  0  0  0  0  0  0
   58.6650   21.9000   45.2500 C   0  0  0  0  0  0  0  0  0  0  0  0
   58.0250   21.5180   44.0740 C   0  0  0  0  0  0  0  0  0  0  0  0
   56.8930   22.2160   43.6560 C   0  0  0  0  0  0  0  0  0  0  0  0
   56.4050   23.2890   44.4150 C   0  0  0  0  0  0  0  0  0  0  0  0
   55.3120   24.0130   43.9390 O   0  0  0  0  0  0  0  0  0  0  0  0
   57.9070   27.8280   46.7040 C   0  0  0  0  0  0  0  0  0  0  0  0
   56.1183   29.6898   44.0813 H   0  0  0  0  0  0  0  0  0  0  0  0
   56.1578   31.3659   43.4363 H   0  0  0  0  0  0  0  0  0  0  0  0
   57.6515   30.3681   43.4363 H   0  0  0  0  0  0  0  0  0  0  0  0
   57.2412   33.2579   43.6622 H   0  0  0  0  0  0  0  0  0  0  0  0
   58.5639   35.3153   44.1521 H   0  0  0  0  0  0  0  0  0  0  0  0
   59.8385   35.5035   46.2852 H   0  0  0  0  0  0  0  0  0  0  0  0
   59.7978   33.6372   47.9370 H   0  0  0  0  0  0  0  0  0  0  0  0
   60.2407   29.4945   44.8414 H   0  0  0  0  0  0  0  0  0  0  0  0
   59.4330   27.8824   43.1219 H   0  0  0  0  0  0  0  0  0  0  0  0
   59.5684   21.3676   45.5823 H   0  0  0  0  0  0  0  0  0  0  0  0
   58.4085   20.6745   43.4811 H   0  0  0  0  0  0  0  0  0  0  0  0
   56.3809   21.9239   42.7274 H   0  0  0  0  0  0  0  0  0  0  0  0
   55.0630   24.9150   44.3240 H   0  0  0  0  0  0  0  0  0  0  0  0
   57.4833   27.8136   47.7190 H   0  0  0  0  0  0  0  0  0  0  0  0
  1  2  1  0
  2  3  1  0
  3  4  2  0
  4  5  1  0
  5  6  2  0
  6  7  1  0
  7  8  2  0
  8  9  1  0
  9 10  1  0
 10 11  2  0
 10 12  2  0
 10 13  1  0
 13 14  2  0
 14 15  1  0
 15 16  2  0
 16 17  1  0
 16 18  1  0
 18 19  1  0
 19 20  2  0
 19 21  1  0
 21 22  2  3
 22 23  1  0
 23 24  1  0
 24 25  2  0
 25 26  1  0
 26 27  2  0
 27 28  1  0
 18 29  2  0
  8  3  1  0
 29 13  1  0
 27 22  1  0
  1 30  1  0
  1 31  1  0
  1 32  1  0
  4 33  1  0
  5 34  1  0
  6 35  1  0
  7 36  1  0
 14 37  1  0
 15 38  1  0
 24 39  1  0
 25 40  1  0
 26 41  1  0
 28 42  1  0
 29 43  1  0
M  CHG  2   9  -1  23  -1
M  END
>  <UniqueID>  (65) 
60

>  <SMILES>  (65) 
COc1ccccc1[N-]S(=O)(=O)c1ccc(F)c(C(=O)N=c2[n-]cccc2O)c1

>  <Energy>  (65) 
63.35860774358318

>  <Genealogy>  (65) 
COc1ccccc1[N-]S(=O)(=O)c1ccc(F)c(C(=O)N=c2[n-]cccc2O)c1 (protonated)
COc1ccccc1[N-]S(=O)(=O)c1ccc(F)c(C(=O)N=c2[n-]cccc2O)c1 (3D coordinates assigned)
COc1ccccc1[N-]S(=O)(=O)c1ccc(F)c(C(=O)N=c2[n-]cccc2O)c1 (optimized conformer: 63.35860774358318 kcal/mol)

>  <smiles>  (65) 
COc1ccccc1NS(=O)(=O)c1ccc(F)c(C(=O)N=c2[nH]cccc2O)c1

>  <score_type>  (65) 
oracle

>  <origin>  (65) 
adg

>  <m_score__min__energy>  (65) 
-12.75

>  <m_primary>  (65) 
energy

$$$$
65:0
     RDKit          3D

 23 24  0  0  0  0  0  0  0  0999 V2000
   55.1500   27.4640   45.3260 H   0  0  0  0  0  0  0  0  0  0  0  0
   55.1360   26.7260   46.0180 O   0  0  0  0  0  0  0  0  0  0  0  0
   55.0850   25.3920   45.6300 C   0  0  0  0  0  0  0  0  0  0  0  0
   53.9940   24.6170   45.7550 N   0  0  0  0  0  0  0  0  0  0  0  0
   54.4310   23.4170   45.3150 C   0  0  0  0  0  0  0  0  0  0  0  0
   53.6910   22.4000   45.2760 O   0  0  0  0  0  0  0  0  0  0  0  0
   55.7240   23.3910   44.9280 N   0  0  0  0  0  0  0  0  0  0  0  0
   56.1290   24.6590   45.1120 C   0  0  0  0  0  0  0  0  0  0  0  0
   57.5060   25.1160   44.8630 C   0  0  0  0  0  0  0  0  0  0  0  0
   58.3215   24.3903   44.9982 H   0  0  0  0  0  0  0  0  0  0  0  0
   57.8300   26.3600   44.4820 C   0  0  0  0  0  0  0  0  0  0  0  0
   58.1703   26.5035   43.4459 H   0  0  0  0  0  0  0  0  0  0  0  0
   57.7620   27.5750   45.3690 C   0  0  0  0  0  0  0  0  0  0  0  0
   57.2262   27.3144   46.2936 H   0  0  0  0  0  0  0  0  0  0  0  0
   58.7888   27.8997   45.5933 H   0  0  0  0  0  0  0  0  0  0  0  0
   57.0460   28.7030   44.6910 C   0  0  0  0  0  0  0  0  0  0  0  0
   55.7830   28.9990   44.8940 O   0  0  0  0  0  0  0  0  0  0  0  0
   55.4670   30.0220   44.1340 C   0  0  0  0  0  0  0  0  0  0  0  0
   54.4746   30.4941   44.0877 H   0  0  0  0  0  0  0  0  0  0  0  0
   56.5690   30.4150   43.4020 C   0  0  0  0  0  0  0  0  0  0  0  0
   56.6205   31.2413   42.6777 H   0  0  0  0  0  0  0  0  0  0  0  0
   57.5920   29.5640   43.7610 C   0  0  0  0  0  0  0  0  0  0  0  0
   58.6259   29.5699   43.3854 H   0  0  0  0  0  0  0  0  0  0  0  0
  1  2  1  0
  2  3  1  0
  3  4  1  0
  4  5  1  0
  5  6  2  0
  5  7  1  0
  7  8  1  0
  8  9  1  0
  9 10  1  0
  9 11  2  0
 11 12  1  0
 11 13  1  0
 13 14  1  0
 13 15  1  0
 13 16  1  0
 16 17  1  0
 17 18  1  0
 18 19  1  0
 18 20  2  0
 20 21  1  0
 20 22  1  0
 22 23  1  0
  8  3  2  0
 22 16  2  0
M  CHG  2   4  -1   7  -1
M  END
>  <UniqueID>  (66) 
61

>  <SMILES>  (66) 
O=c1[n-]c(O)c(/C=C\Cc2ccco2)[n-]1

>  <Energy>  (66) 
81.01627801928439

>  <Genealogy>  (66) 
O=c1[n-]c(O)c(C=CCc2ccco2)[n-]1 (protonated)
O=c1[n-]c(O)c(/C=C\Cc2ccco2)[n-]1 (cis-trans isomerization)
O=c1[n-]c(O)c(/C=C\Cc2ccco2)[n-]1 (3D coordinates assigned)
O=c1[n-]c(O)c(/C=C\Cc2ccco2)[n-]1 (optimized conformer: 81.01627801928439 kcal/mol)

>  <smiles>  (66) 
O=c1[nH]c(O)c(C=CCc2ccco2)[nH]1

>  <score_type>  (66) 
oracle

>  <origin>  (66) 
adg

>  <m_score__min__energy>  (66) 
-10.4

>  <m_primary>  (66) 
energy

$$$$
66:0
     RDKit          3D

 45 47  0  0  0  0  0  0  0  0999 V2000
   58.5266   32.6779   43.2146 H   0  0  0  0  0  0  0  0  0  0  0  0
   57.7700   32.1460   43.8100 C   0  0  0  0  0  0  0  0  0  0  0  0
   57.4930   30.9050   43.5470 N   0  0  0  0  0  0  0  0  0  0  0  0
   57.1620   29.9160   44.5340 C   0  0  0  0  0  0  0  0  0  0  0  0
   55.9550   29.7780   44.8670 O   0  0  0  0  0  0  0  0  0  0  0  0
   58.1930   29.0920   45.2060 C   0  0  0  0  0  0  0  0  0  0  0  0
   59.4330   29.6770   45.5160 C   0  0  0  0  0  0  0  0  0  0  0  0
   59.6383   30.7139   45.2115 H   0  0  0  0  0  0  0  0  0  0  0  0
   60.4060   28.9530   46.2070 C   0  0  0  0  0  0  0  0  0  0  0  0
   61.3743   29.4191   46.4417 H   0  0  0  0  0  0  0  0  0  0  0  0
   60.1520   27.6400   46.6000 C   0  0  0  0  0  0  0  0  0  0  0  0
   60.9190   27.0726   47.1475 H   0  0  0  0  0  0  0  0  0  0  0  0
   58.9260   27.0440   46.3000 C   0  0  0  0  0  0  0  0  0  0  0  0
   58.7359   26.0050   46.6070 H   0  0  0  0  0  0  0  0  0  0  0  0
   57.9300   27.7600   45.6080 C   0  0  0  0  0  0  0  0  0  0  0  0
   56.6850   27.1240   45.2690 N   0  0  0  0  0  0  0  0  0  0  0  0
   56.0240   27.5920   44.6100 H   0  0  0  0  0  0  0  0  0  0  0  0
   56.1470   25.6460   46.0010 S   0  0  0  0  0  0  0  0  0  0  0  0
   54.6420   25.6160   45.9900 O   0  0  0  0  0  0  0  0  0  0  0  0
   56.6300   25.5900   47.4230 O   0  0  0  0  0  0  0  0  0  0  0  0
   56.8040   24.2650   45.1300 C   0  0  0  0  0  0  0  0  0  0  0  0
   58.0190   23.6850   45.5240 C   0  0  0  0  0  0  0  0  0  0  0  0
   58.5747   24.1010   46.3773 H   0  0  0  0  0  0  0  0  0  0  0  0
   58.5250   22.5790   44.8340 C   0  0  0  0  0  0  0  0  0  0  0  0
   59.4764   22.1244   45.1473 H   0  0  0  0  0  0  0  0  0  0  0  0
   57.8230   22.0500   43.7460 C   0  0  0  0  0  0  0  0  0  0  0  0
   58.2224   21.1799   43.2043 H   0  0  0  0  0  0  0  0  0  0  0  0
   56.6140   22.6270   43.3470 C   0  0  0  0  0  0  0  0  0  0  0  0
   56.0625   22.2112   42.4908 H   0  0  0  0  0  0  0  0  0  0  0  0
   56.1050   23.7330   44.0360 C   0  0  0  0  0  0  0  0  0  0  0  0
   55.1543   24.1867   43.7192 H   0  0  0  0  0  0  0  0  0  0  0  0
   57.0620   32.8530   44.9210 C   0  0  0  0  0  0  0  0  0  0  0  0
   56.4300   33.6486   44.4996 H   0  0  0  0  0  0  0  0  0  0  0  0
   56.4420   32.1272   45.4677 H   0  0  0  0  0  0  0  0  0  0  0  0
   58.0550   33.4610   45.8730 C   0  0  0  0  0  0  0  0  0  0  0  0
   58.2160   32.9330   47.1650 C   0  0  0  0  0  0  0  0  0  0  0  0
   57.5990   32.0826   47.4910 H   0  0  0  0  0  0  0  0  0  0  0  0
   59.1590   33.4860   48.0380 C   0  0  0  0  0  0  0  0  0  0  0  0
   59.2773   33.0737   49.0509 H   0  0  0  0  0  0  0  0  0  0  0  0
   59.9510   34.5610   47.6260 C   0  0  0  0  0  0  0  0  0  0  0  0
   60.6889   34.9965   48.3159 H   0  0  0  0  0  0  0  0  0  0  0  0
   59.8060   35.0830   46.3380 C   0  0  0  0  0  0  0  0  0  0  0  0
   60.4322   35.9271   46.0134 H   0  0  0  0  0  0  0  0  0  0  0  0
   58.8650   34.5330   45.4610 C   0  0  0  0  0  0  0  0  0  0  0  0
   58.7587   34.9412   44.4451 H   0  0  0  0  0  0  0  0  0  0  0  0
  1  2  1  0
  2  3  2  0
  3  4  1  0
  4  5  2  0
  4  6  1  0
  6  7  2  0
  7  8  1  0
  7  9  1  0
  9 10  1  0
  9 11  2  0
 11 12  1  0
 11 13  1  0
 13 14  1  0
 13 15  2  0
 15 16  1  0
 16 17  1  0
 16 18  1  0
 18 19  2  0
 18 20  2  0
 18 21  1  0
 21 22  2  0
 22 23  1  0
 22 24  1  0
 24 25  1  0
 24 26  2  0
 26 27  1  0
 26 28  1  0
 28 29  1  0
 28 30  2  0
 30 31  1  0
  2 32  1  0
 32 33  1  0
 32 34  1  0
 32 35  1  0
 35 36  2  0
 36 37  1  0
 36 38  1  0
 38 39  1  0
 38 40  2  0
 40 41  1  0
 40 42  1  0
 42 43  1  0
 42 44  2  0
 44 45  1  0
 15  6  1  0
 30 21  1  0
 44 35  1  0
M  END
>  <UniqueID>  (67) 
62

>  <SMILES>  (67) 
O=C(/N=C/Cc1ccccc1)c1ccccc1NS(=O)(=O)c1ccccc1

>  <Energy>  (67) 
55.20920757495725

>  <Genealogy>  (67) 
O=C(/N=C/Cc1ccccc1)c1ccccc1NS(=O)(=O)c1ccccc1 (cis-trans isomerization)
O=C(/N=C/Cc1ccccc1)c1ccccc1NS(=O)(=O)c1ccccc1 (3D coordinates assigned)
O=C(/N=C/Cc1ccccc1)c1ccccc1NS(=O)(=O)c1ccccc1 (optimized conformer: 55.20920757495725 kcal/mol)

>  <smiles>  (67) 
O=C(N=CCc1ccccc1)c1ccccc1NS(=O)(=O)c1ccccc1

>  <score_type>  (67) 
oracle

>  <origin>  (67) 
adg

>  <m_score__min__energy>  (67) 
-10.609999999999999

>  <m_primary>  (67) 
energy

$$$$
67:0
     RDKit          3D

 53 56  0  0  0  0  0  0  0  0999 V2000
   54.6690   26.3310   45.9900 N   0  0  0  0  0  0  0  0  0  0  0  0
   55.3690   25.0880   45.9740 C   0  0  0  0  0  0  0  0  0  0  0  0
   54.7110   24.0140   45.9550 O   0  0  0  0  0  0  0  0  0  0  0  0
   56.8520   25.0680   45.9380 C   0  0  0  0  0  0  0  0  0  0  0  0
   57.5060   23.8640   45.6150 C   0  0  0  0  0  0  0  0  0  0  0  0
   58.8990   23.7810   45.6330 C   0  0  0  0  0  0  0  0  0  0  0  0
   59.6620   24.8970   45.9680 C   0  0  0  0  0  0  0  0  0  0  0  0
   59.0350   26.1050   46.2760 C   0  0  0  0  0  0  0  0  0  0  0  0
   57.6320   26.2090   46.2630 C   0  0  0  0  0  0  0  0  0  0  0  0
   57.0190   27.4910   46.4930 N   0  0  0  0  0  0  0  0  0  0  0  0
   57.5680   28.7240   45.9920 C   0  0  0  0  0  0  0  0  0  0  0  0
   57.0310   29.2980   44.8280 C   0  0  0  0  0  0  0  0  0  0  0  0
   57.5900   30.4640   44.3030 C   0  0  0  0  0  0  0  0  0  0  0  0
   57.1100   30.9790   43.2590 O   0  0  0  0  0  0  0  0  0  0  0  0
   58.6550   31.0430   44.9130 N   0  0  0  0  0  0  0  0  0  0  0  0
   59.2080   30.5240   46.0400 C   0  0  0  0  0  0  0  0  0  0  0  0
   60.3010   31.1670   46.6310 C   0  0  0  0  0  0  0  0  0  0  0  0
   60.8780   30.6640   47.8080 C   0  0  0  0  0  0  0  0  0  0  0  0
   62.0370   31.3500   48.4340 C   0  0  0  0  0  0  0  0  0  0  0  0
   62.4020   31.0680   49.7630 C   0  0  0  0  0  0  0  0  0  0  0  0
   63.4920   31.7130   50.3520 C   0  0  0  0  0  0  0  0  0  0  0  0
   64.2410   32.6580   49.6290 C   0  0  0  0  0  0  0  0  0  0  0  0
   65.4000   33.3300   50.2660 C   0  0  0  0  0  0  0  0  0  0  0  0
   65.2000   34.1350   51.2180 O   0  0  0  0  0  0  0  0  0  0  0  0
   66.7410   33.0970   49.8080 N   0  0  0  0  0  0  0  0  0  0  0  0
   67.8930   33.6320   50.5330 C   0  0  0  0  0  0  0  0  0  0  0  0
   68.2840   32.7170   51.6940 C   0  0  0  0  0  0  0  0  0  0  0  0
   67.1600   32.0300   52.1730 O   0  0  0  0  0  0  0  0  0  0  0  0
   63.8840   32.9300   48.2960 C   0  0  0  0  0  0  0  0  0  0  0  0
   62.7930   32.2850   47.7080 C   0  0  0  0  0  0  0  0  0  0  0  0
   60.3350   29.5060   48.3910 C   0  0  0  0  0  0  0  0  0  0  0  0
   59.2450   28.8550   47.8080 C   0  0  0  0  0  0  0  0  0  0  0  0
   58.6750   29.3470   46.6180 C   0  0  0  0  0  0  0  0  0  0  0  0
   55.1850   27.2380   46.0270 H   0  0  0  0  0  0  0  0  0  0  0  0
   56.9121   22.9782   45.3453 H   0  0  0  0  0  0  0  0  0  0  0  0
   59.3955   22.8320   45.3820 H   0  0  0  0  0  0  0  0  0  0  0  0
   60.7595   24.8261   45.9898 H   0  0  0  0  0  0  0  0  0  0  0  0
   59.6438   26.9848   46.5315 H   0  0  0  0  0  0  0  0  0  0  0  0
   56.1390   27.5240   47.0540 H   0  0  0  0  0  0  0  0  0  0  0  0
   56.1698   28.8285   44.3302 H   0  0  0  0  0  0  0  0  0  0  0  0
   60.7127   32.0763   46.1686 H   0  0  0  0  0  0  0  0  0  0  0  0
   61.8242   30.3334   50.3432 H   0  0  0  0  0  0  0  0  0  0  0  0
   63.7669   31.4794   51.3912 H   0  0  0  0  0  0  0  0  0  0  0  0
   66.8950   32.5730   48.9170 H   0  0  0  0  0  0  0  0  0  0  0  0
   68.7441   33.7193   49.8416 H   0  0  0  0  0  0  0  0  0  0  0  0
   67.6236   34.6179   50.9397 H   0  0  0  0  0  0  0  0  0  0  0  0
   69.0326   31.9898   51.3465 H   0  0  0  0  0  0  0  0  0  0  0  0
   68.7017   33.3294   52.5067 H   0  0  0  0  0  0  0  0  0  0  0  0
   66.4350   32.7010   52.2660 H   0  0  0  0  0  0  0  0  0  0  0  0
   64.4683   33.6562   47.7119 H   0  0  0  0  0  0  0  0  0  0  0  0
   62.5234   32.5117   46.6659 H   0  0  0  0  0  0  0  0  0  0  0  0
   60.7737   29.1074   49.3177 H   0  0  0  0  0  0  0  0  0  0  0  0
   58.8297   27.9530   48.2812 H   0  0  0  0  0  0  0  0  0  0  0  0
  1  2  1  0
  2  3  2  0
  2  4  1  0
  4  5  2  0
  5  6  1  0
  6  7  2  0
  7  8  1  0
  8  9  2  0
  9 10  1  0
 10 11  1  0
 11 12  2  0
 12 13  1  0
 13 14  2  0
 13 15  1  0
 15 16  1  0
 16 17  2  0
 17 18  1  0
 18 19  1  0
 19 20  2  0
 20 21  1  0
 21 22  2  0
 22 23  1  0
 23 24  2  0
 23 25  1  0
 25 26  1  0
 26 27  1  0
 27 28  1  0
 22 29  1  0
 29 30  2  0
 18 31  2  0
 31 32  1  0
 32 33  2  0
  9  4  1  0
 33 11  1  0
 33 16  1  0
 30 19  1  0
  1 34  1  0
  5 35  1  0
  6 36  1  0
  7 37  1  0
  8 38  1  0
 10 39  1  0
 12 40  1  0
 17 41  1  0
 20 42  1  0
 21 43  1  0
 25 44  1  0
 26 45  1  0
 26 46  1  0
 27 47  1  0
 27 48  1  0
 28 49  1  0
 29 50  1  0
 30 51  1  0
 31 52  1  0
 32 53  1  0
M  CHG  2   1  -1  15  -1
M  END
>  <UniqueID>  (68) 
63

>  <SMILES>  (68) 
[NH-]C(=O)c1ccccc1Nc1cc(=O)[n-]c2cc(-c3ccc(C(=O)NCCO)cc3)ccc12

>  <Energy>  (68) 
76.09007430409984

>  <Genealogy>  (68) 
[NH-]C(=O)c1ccccc1Nc1cc(=O)[n-]c2cc(-c3ccc(C(=O)NCCO)cc3)ccc12 (protonated)
[NH-]C(=O)c1ccccc1Nc1cc(=O)[n-]c2cc(-c3ccc(C(=O)NCCO)cc3)ccc12 (3D coordinates assigned)
[NH-]C(=O)c1ccccc1Nc1cc(=O)[n-]c2cc(-c3ccc(C(=O)NCCO)cc3)ccc12 (optimized conformer: 76.09007430409984 kcal/mol)

>  <smiles>  (68) 
NC(=O)c1ccccc1Nc1cc(=O)[nH]c2cc(-c3ccc(C(=O)NCCO)cc3)ccc12

>  <score_type>  (68) 
oracle

>  <origin>  (68) 
adg

>  <m_score__min__energy>  (68) 
-12.33

>  <m_primary>  (68) 
energy

$$$$
68:0
     RDKit          3D

 44 45  0  0  0  0  0  0  0  0999 V2000
   59.6600   35.3450   46.6870 C   0  0  0  0  0  0  0  0  0  0  0  0
   59.8220   34.3400   45.7100 O   0  0  0  0  0  0  0  0  0  0  0  0
   58.6110   34.1360   45.0070 C   0  0  0  0  0  0  0  0  0  0  0  0
   57.8520   32.9410   45.5910 C   0  0  0  0  0  0  0  0  0  0  0  0
   58.6510   31.7040   45.4620 N   0  0  0  0  0  0  0  0  0  0  0  0
   59.5560   31.3480   46.4440 C   0  0  0  0  0  0  0  0  0  0  0  0
   59.7960   32.1710   47.5970 N   0  0  0  0  0  0  0  0  0  0  0  0
   60.2840   30.1620   46.3250 C   0  0  0  0  0  0  0  0  0  0  0  0
   60.1220   29.3760   45.1950 C   0  0  0  0  0  0  0  0  0  0  0  0
   60.7790   28.3080   45.0670 O   0  0  0  0  0  0  0  0  0  0  0  0
   59.2590   29.7640   44.2250 N   0  0  0  0  0  0  0  0  0  0  0  0
   58.5220   30.9030   44.3440 C   0  0  0  0  0  0  0  0  0  0  0  0
   57.3980   31.3120   42.9890 S   0  0  0  0  0  0  0  0  0  0  0  0
   56.5100   29.7110   43.0260 C   0  0  0  0  0  0  0  0  0  0  0  0
   56.1710   29.2860   44.4290 C   0  0  0  0  0  0  0  0  0  0  0  0
   55.1400   29.7550   44.9810 O   0  0  0  0  0  0  0  0  0  0  0  0
   57.0790   28.5080   45.2220 N   0  0  0  0  0  0  0  0  0  0  0  0
   57.1660   27.0780   45.2590 C   0  0  0  0  0  0  0  0  0  0  0  0
   56.5830   26.3870   46.3270 C   0  0  0  0  0  0  0  0  0  0  0  0
   56.6260   24.9900   46.3730 C   0  0  0  0  0  0  0  0  0  0  0  0
   57.2470   24.2670   45.3420 C   0  0  0  0  0  0  0  0  0  0  0  0
   57.2590   22.7680   45.3700 C   0  0  0  0  0  0  0  0  0  0  0  0
   57.7860   24.9570   44.2460 C   0  0  0  0  0  0  0  0  0  0  0  0
   57.7410   26.3530   44.2030 C   0  0  0  0  0  0  0  0  0  0  0  0
   59.7322   34.8972   47.6891 H   0  0  0  0  0  0  0  0  0  0  0  0
   60.4475   36.1036   46.5668 H   0  0  0  0  0  0  0  0  0  0  0  0
   58.6741   35.8177   46.5668 H   0  0  0  0  0  0  0  0  0  0  0  0
   57.9869   35.0380   45.0901 H   0  0  0  0  0  0  0  0  0  0  0  0
   58.8405   33.9324   43.9507 H   0  0  0  0  0  0  0  0  0  0  0  0
   57.6456   33.1288   46.6550 H   0  0  0  0  0  0  0  0  0  0  0  0
   56.9100   32.8142   45.0374 H   0  0  0  0  0  0  0  0  0  0  0  0
   60.1700   33.1400   47.4820 H   0  0  0  0  0  0  0  0  0  0  0  0
   59.5220   31.8940   48.5640 H   0  0  0  0  0  0  0  0  0  0  0  0
   60.9791   29.8548   47.1203 H   0  0  0  0  0  0  0  0  0  0  0  0
   59.1540   29.1700   43.3710 H   0  0  0  0  0  0  0  0  0  0  0  0
   55.5782   29.8085   42.4497 H   0  0  0  0  0  0  0  0  0  0  0  0
   57.1699   28.9466   42.5898 H   0  0  0  0  0  0  0  0  0  0  0  0
   56.0881   26.9458   47.1349 H   0  0  0  0  0  0  0  0  0  0  0  0
   56.1715   24.4555   47.2202 H   0  0  0  0  0  0  0  0  0  0  0  0
   57.2618   22.4208   46.4138 H   0  0  0  0  0  0  0  0  0  0  0  0
   56.3639   22.3845   44.8584 H   0  0  0  0  0  0  0  0  0  0  0  0
   58.1601   22.3989   44.8584 H   0  0  0  0  0  0  0  0  0  0  0  0
   58.2455   24.3974   43.4179 H   0  0  0  0  0  0  0  0  0  0  0  0
   58.1585   26.8871   43.3367 H   0  0  0  0  0  0  0  0  0  0  0  0
  1  2  1  0
  2  3  1  0
  3  4  1  0
  4  5  1  0
  5  6  1  0
  6  7  1  0
  6  8  2  0
  8  9  1  0
  9 10  2  0
  9 11  1  0
 11 12  2  0
 12 13  1  0
 13 14  1  0
 14 15  1  0
 15 16  2  0
 15 17  1  0
 17 18  1  0
 18 19  2  0
 19 20  1  0
 20 21  2  0
 21 22  1  0
 21 23  1  0
 23 24  2  0
 12  5  1  0
 24 18  1  0
  1 25  1  0
  1 26  1  0
  1 27  1  0
  3 28  1  0
  3 29  1  0
  4 30  1  0
  4 31  1  0
  7 32  1  0
  7 33  1  0
  8 34  1  0
 11 35  1  0
 14 36  1  0
 14 37  1  0
 19 38  1  0
 20 39  1  0
 22 40  1  0
 22 41  1  0
 22 42  1  0
 23 43  1  0
 24 44  1  0
M  CHG  2  11   1  17  -1
M  END
>  <UniqueID>  (69) 
64

>  <SMILES>  (69) 
COCCn1c(N)cc(=O)[nH+]c1SCC(=O)[N-]c1ccc(C)cc1

>  <Energy>  (69) 
48.74514329065513

>  <Genealogy>  (69) 
COCCn1c(N)cc(=O)[nH+]c1SCC(=O)[N-]c1ccc(C)cc1 (protonated)
COCCn1c(N)cc(=O)[nH+]c1SCC(=O)[N-]c1ccc(C)cc1 (3D coordinates assigned)
COCCn1c(N)cc(=O)[nH+]c1SCC(=O)[N-]c1ccc(C)cc1 (optimized conformer: 48.74514329065513 kcal/mol)

>  <smiles>  (69) 
COCCn1c(N)cc(=O)nc1SCC(=O)Nc1ccc(C)cc1

>  <score_type>  (69) 
oracle

>  <origin>  (69) 
adg

>  <m_score__min__energy>  (69) 
-6.9900000000000002

>  <m_primary>  (69) 
energy

$$$$
69:0
     RDKit          3D

 26 27  0  0  0  0  0  0  0  0999 V2000
   58.2420   25.3410   46.8450 O   0  0  0  0  0  0  0  0  0  0  0  0
   57.6810   26.1540   46.0610 C   0  0  0  0  0  0  0  0  0  0  0  0
   57.1640   25.6700   44.7430 C   0  0  0  0  0  0  0  0  0  0  0  0
   55.9190   24.8390   44.9450 C   0  0  0  0  0  0  0  0  0  0  0  0
   54.7820   25.3790   45.5720 C   0  0  0  0  0  0  0  0  0  0  0  0
   54.7860   26.6870   46.0450 O   0  0  0  0  0  0  0  0  0  0  0  0
   53.6630   24.6240   45.7160 N   0  0  0  0  0  0  0  0  0  0  0  0
   53.6130   23.3480   45.2580 C   0  0  0  0  0  0  0  0  0  0  0  0
   52.5650   22.6670   45.4060 O   0  0  0  0  0  0  0  0  0  0  0  0
   54.6900   22.8070   44.6350 N   0  0  0  0  0  0  0  0  0  0  0  0
   55.8340   23.5190   44.4630 C   0  0  0  0  0  0  0  0  0  0  0  0
   56.8090   22.9850   43.8720 O   0  0  0  0  0  0  0  0  0  0  0  0
   57.3800   27.4890   46.4880 N   0  0  0  0  0  0  0  0  0  0  0  0
   57.6640   28.6270   45.9130 C   0  0  0  0  0  0  0  0  0  0  0  0
   58.8780   29.1800   46.1840 N   0  0  0  0  0  0  0  0  0  0  0  0
   59.2910   30.3530   45.6350 C   0  0  0  0  0  0  0  0  0  0  0  0
   58.4580   31.0420   44.7580 C   0  0  0  0  0  0  0  0  0  0  0  0
   57.1950   30.5280   44.4740 C   0  0  0  0  0  0  0  0  0  0  0  0
   56.7690   29.3280   45.0610 C   0  0  0  0  0  0  0  0  0  0  0  0
   55.4670   28.8870   44.8330 O   0  0  0  0  0  0  0  0  0  0  0  0
   56.9245   26.5348   44.1068 H   0  0  0  0  0  0  0  0  0  0  0  0
   57.9346   25.0510   44.2603 H   0  0  0  0  0  0  0  0  0  0  0  0
   60.2832   30.7576   45.8837 H   0  0  0  0  0  0  0  0  0  0  0  0
   58.7933   31.9816   44.2946 H   0  0  0  0  0  0  0  0  0  0  0  0
   56.5278   31.0667   43.7851 H   0  0  0  0  0  0  0  0  0  0  0  0
   55.1510   27.9740   45.1380 H   0  0  0  0  0  0  0  0  0  0  0  0
  1  2  2  0
  2  3  1  0
  3  4  1  0
  4  5  2  0
  5  6  1  0
  5  7  1  0
  7  8  1  0
  8  9  2  0
  8 10  1  0
 10 11  1  0
 11 12  2  0
  2 13  1  0
 13 14  2  3
 14 15  1  0
 15 16  1  0
 16 17  2  0
 17 18  1  0
 18 19  2  0
 19 20  1  0
 11  4  1  0
 19 14  1  0
  3 21  1  0
  3 22  1  0
 16 23  1  0
 17 24  1  0
 18 25  1  0
 20 26  1  0
M  CHG  4   6  -1   7  -1  10  -1  15  -1
M  END
>  <UniqueID>  (70) 
65

>  <SMILES>  (70) 
O=C(Cc1c([O-])[n-]c(=O)[n-]c1=O)N=c1[n-]cccc1O

>  <Energy>  (70) 
40.04996431206901

>  <Genealogy>  (70) 
O=C(Cc1c([O-])[n-]c(=O)[n-]c1=O)N=c1[n-]cccc1O (protonated)
O=C(Cc1c([O-])[n-]c(=O)[n-]c1=O)N=c1[n-]cccc1O (3D coordinates assigned)
O=C(Cc1c([O-])[n-]c(=O)[n-]c1=O)N=c1[n-]cccc1O (optimized conformer: 40.04996431206901 kcal/mol)

>  <smiles>  (70) 
O=C(Cc1c(O)[nH]c(=O)[nH]c1=O)N=c1[nH]cccc1O

>  <score_type>  (70) 
oracle

>  <origin>  (70) 
adg

>  <m_score__min__energy>  (70) 
-15.83

>  <m_primary>  (70) 
energy

$$$$
70:0
     RDKit          3D

 36 38  0  0  0  0  0  0  0  0999 V2000
   57.8270   29.9170   44.0140 C   0  0  0  0  0  0  0  0  0  0  0  0
   58.0470   29.5670   45.2910 C   0  0  0  0  0  0  0  0  0  0  0  0
   58.0620   28.2680   45.8280 C   0  0  0  0  0  0  0  0  0  0  0  0
   57.7110   27.0830   45.2900 C   0  0  0  0  0  0  0  0  0  0  0  0
   57.2740   25.8930   46.0450 C   0  0  0  0  0  0  0  0  0  0  0  0
   55.9220   25.7160   46.3670 C   0  0  0  0  0  0  0  0  0  0  0  0
   54.9810   26.6810   46.0260 O   0  0  0  0  0  0  0  0  0  0  0  0
   55.5210   24.5980   47.0270 N   0  0  0  0  0  0  0  0  0  0  0  0
   56.4100   23.6310   47.3710 C   0  0  0  0  0  0  0  0  0  0  0  0
   55.9000   22.3010   48.1670 S   0  0  0  0  0  0  0  0  0  0  0  0
   57.7210   23.7650   47.0440 N   0  0  0  0  0  0  0  0  0  0  0  0
   58.1710   24.8630   46.3850 C   0  0  0  0  0  0  0  0  0  0  0  0
   59.3910   24.9440   46.0780 O   0  0  0  0  0  0  0  0  0  0  0  0
   58.5260   28.3900   47.1270 C   0  0  0  0  0  0  0  0  0  0  0  0
   58.7190   29.7360   47.3590 C   0  0  0  0  0  0  0  0  0  0  0  0
   59.2060   30.3140   48.6530 C   0  0  0  0  0  0  0  0  0  0  0  0
   58.4310   30.4510   46.2490 N   0  0  0  0  0  0  0  0  0  0  0  0
   58.5370   31.8800   46.1200 C   0  0  0  0  0  0  0  0  0  0  0  0
   59.7330   32.5310   46.4580 C   0  0  0  0  0  0  0  0  0  0  0  0
   59.8400   33.9190   46.3250 C   0  0  0  0  0  0  0  0  0  0  0  0
   58.7560   34.6630   45.8510 C   0  0  0  0  0  0  0  0  0  0  0  0
   57.5590   34.0210   45.5090 C   0  0  0  0  0  0  0  0  0  0  0  0
   56.4710   34.7520   45.0380 O   0  0  0  0  0  0  0  0  0  0  0  0
   57.4510   32.6310   45.6430 C   0  0  0  0  0  0  0  0  0  0  0  0
   57.8431   30.9779   43.7239 H   0  0  0  0  0  0  0  0  0  0  0  0
   57.6306   29.1429   43.2576 H   0  0  0  0  0  0  0  0  0  0  0  0
   57.7540   26.9956   44.1943 H   0  0  0  0  0  0  0  0  0  0  0  0
   58.7062   27.5702   47.8380 H   0  0  0  0  0  0  0  0  0  0  0  0
   58.7481   29.7706   49.4927 H   0  0  0  0  0  0  0  0  0  0  0  0
   60.3005   30.2191   48.7081 H   0  0  0  0  0  0  0  0  0  0  0  0
   58.9268   31.3766   48.7081 H   0  0  0  0  0  0  0  0  0  0  0  0
   60.5890   31.9480   46.8287 H   0  0  0  0  0  0  0  0  0  0  0  0
   60.7785   34.4258   46.5938 H   0  0  0  0  0  0  0  0  0  0  0  0
   58.8430   35.7545   45.7463 H   0  0  0  0  0  0  0  0  0  0  0  0
   55.8730   35.2760   45.6660 H   0  0  0  0  0  0  0  0  0  0  0  0
   56.5117   32.1259   45.3735 H   0  0  0  0  0  0  0  0  0  0  0  0
  1  2  2  0
  2  3  1  0
  3  4  2  3
  4  5  1  0
  5  6  2  0
  6  7  1  0
  6  8  1  0
  8  9  1  0
  9 10  2  0
  9 11  1  0
 11 12  1  0
 12 13  2  0
  3 14  1  0
 14 15  2  0
 15 16  1  0
 15 17  1  0
 17 18  1  0
 18 19  2  0
 19 20  1  0
 20 21  2  0
 21 22  1  0
 22 23  1  0
 22 24  2  0
 17  2  1  0
 24 18  1  0
 12  5  1  0
  1 25  1  0
  1 26  1  0
  4 27  1  0
 14 28  1  0
 16 29  1  0
 16 30  1  0
 16 31  1  0
 19 32  1  0
 20 33  1  0
 21 34  1  0
 23 35  1  0
 24 36  1  0
M  CHG  3   7  -1   8  -1  11  -1
M  END
>  <UniqueID>  (71) 
66

>  <SMILES>  (71) 
C=c1c(=Cc2c([O-])[n-]c(=S)[n-]c2=O)cc(C)n1-c1cccc(O)c1

>  <Energy>  (71) 
87.00365523213742

>  <Genealogy>  (71) 
C=c1c(=Cc2c([O-])[n-]c(=S)[n-]c2=O)cc(C)n1-c1cccc(O)c1 (protonated)
C=c1c(=Cc2c([O-])[n-]c(=S)[n-]c2=O)cc(C)n1-c1cccc(O)c1 (3D coordinates assigned)
C=c1c(=Cc2c([O-])[n-]c(=S)[n-]c2=O)cc(C)n1-c1cccc(O)c1 (optimized conformer: 87.00365523213742 kcal/mol)

>  <smiles>  (71) 
C=c1c(=Cc2c(O)[nH]c(=S)[nH]c2=O)cc(C)n1-c1cccc(O)c1

>  <score_type>  (71) 
oracle

>  <origin>  (71) 
adg

>  <m_score__min__energy>  (71) 
-14.83

>  <m_primary>  (71) 
energy

$$$$
71:0
     RDKit          3D

 35 37  0  0  0  0  0  0  0  0999 V2000
   62.3415   34.4977   46.0215 H   0  0  0  0  0  0  0  0  0  0  0  0
   61.5640   33.9590   46.5830 C   0  0  0  0  0  0  0  0  0  0  0  0
   61.8990   33.3960   47.8230 O   0  0  0  0  0  0  0  0  0  0  0  0
   62.6110   32.2030   48.0080 C   0  0  0  0  0  0  0  0  0  0  0  0
   62.0610   31.1900   48.5200 O   0  0  0  0  0  0  0  0  0  0  0  0
   63.9600   32.1170   47.5570 N   0  0  0  0  0  0  0  0  0  0  0  0
   64.4180   32.9420   47.1120 H   0  0  0  0  0  0  0  0  0  0  0  0
   64.5010   31.2310   47.6680 H   0  0  0  0  0  0  0  0  0  0  0  0
   60.3350   33.8680   46.0530 C   0  0  0  0  0  0  0  0  0  0  0  0
   59.8922   34.7672   45.5997 H   0  0  0  0  0  0  0  0  0  0  0  0
   59.5460   32.6150   46.0490 C   0  0  0  0  0  0  0  0  0  0  0  0
   58.4300   32.3680   45.2430 C   0  0  0  0  0  0  0  0  0  0  0  0
   57.7830   33.3530   44.3110 C   0  0  0  0  0  0  0  0  0  0  0  0
   57.2719   34.1311   44.8970 H   0  0  0  0  0  0  0  0  0  0  0  0
   58.5524   33.8176   43.6768 H   0  0  0  0  0  0  0  0  0  0  0  0
   57.0510   32.8314   43.6768 H   0  0  0  0  0  0  0  0  0  0  0  0
   58.0460   31.0530   45.5140 C   0  0  0  0  0  0  0  0  0  0  0  0
   57.0240   30.2200   45.0050 C   0  0  0  0  0  0  0  0  0  0  0  0
   56.1060   30.6530   43.8870 C   0  0  0  0  0  0  0  0  0  0  0  0
   55.3952   31.1855   44.5360 H   0  0  0  0  0  0  0  0  0  0  0  0
   56.7950   30.9440   42.5570 C   0  0  0  0  0  0  0  0  0  0  0  0
   56.4232   31.7536   41.9118 H   0  0  0  0  0  0  0  0  0  0  0  0
   57.8268   31.1726   42.2518 H   0  0  0  0  0  0  0  0  0  0  0  0
   55.9870   29.6760   42.7180 C   0  0  0  0  0  0  0  0  0  0  0  0
   55.0282   29.5649   42.1904 H   0  0  0  0  0  0  0  0  0  0  0  0
   56.1890   28.6037   42.5787 H   0  0  0  0  0  0  0  0  0  0  0  0
   56.8540   28.9530   45.6230 C   0  0  0  0  0  0  0  0  0  0  0  0
   55.8050   28.1190   45.2490 O   0  0  0  0  0  0  0  0  0  0  0  0
   57.7390   28.5190   46.6290 C   0  0  0  0  0  0  0  0  0  0  0  0
   57.6051   27.5248   47.0804 H   0  0  0  0  0  0  0  0  0  0  0  0
   58.7870   29.3400   47.0600 C   0  0  0  0  0  0  0  0  0  0  0  0
   59.4959   28.9952   47.8272 H   0  0  0  0  0  0  0  0  0  0  0  0
   58.9080   30.6040   46.4920 C   0  0  0  0  0  0  0  0  0  0  0  0
   59.8220   31.5330   46.8140 N   0  0  0  0  0  0  0  0  0  0  0  0
   60.5920   31.4150   47.5080 H   0  0  0  0  0  0  0  0  0  0  0  0
  1  2  1  0
  2  3  1  0
  3  4  1  0
  4  5  2  0
  4  6  1  0
  6  7  1  0
  6  8  1  0
  2  9  2  0
  9 10  1  0
  9 11  1  0
 11 12  2  0
 12 13  1  0
 13 14  1  0
 13 15  1  0
 13 16  1  0
 12 17  1  0
 17 18  2  0
 18 19  1  0
 19 20  1  0
 19 21  1  0
 21 22  1  0
 21 23  1  0
 21 24  1  0
 24 25  1  0
 24 26  1  0
 18 27  1  0
 27 28  1  0
 27 29  2  0
 29 30  1  0
 29 31  1  0
 31 32  1  0
 31 33  2  0
 33 34  1  0
 34 35  1  0
 34 11  1  0
 33 17  1  0
 24 19  1  0
M  CHG  1  28  -1
M  END
>  <UniqueID>  (72) 
67

>  <SMILES>  (72) 
Cc1c(/C=C/OC(N)=O)[nH]c2ccc([O-])c(C3CC3)c12

>  <Energy>  (72) 
338.7358913798904

>  <Genealogy>  (72) 
Cc1c(C=COC(N)=O)[nH]c2ccc([O-])c(C3CC3)c12 (protonated)
Cc1c(/C=C/OC(N)=O)[nH]c2ccc([O-])c(C3CC3)c12 (cis-trans isomerization)
Cc1c(/C=C/OC(N)=O)[nH]c2ccc([O-])c(C3CC3)c12 (3D coordinates assigned)
Cc1c(/C=C/OC(N)=O)[nH]c2ccc([O-])c(C3CC3)c12 (nonaromatic ring conformer: 338.7358913798904 kcal/mol)

>  <smiles>  (72) 
Cc1c(C=COC(N)=O)[nH]c2ccc(O)c(C3CC3)c12

>  <score_type>  (72) 
oracle

>  <origin>  (72) 
adg

>  <m_score__min__energy>  (72) 
-9.1300000000000008

>  <m_primary>  (72) 
energy

$$$$
72:0
     RDKit          3D

 66 69  0  0  0  0  0  0  0  0999 V2000
   54.9500   29.6990   43.5140 O   0  0  0  0  0  0  0  0  0  0  0  0
   55.8380   29.5890   44.4030 C   0  0  0  0  0  0  0  0  0  0  0  0
   55.8460   28.4360   45.2470 N   0  0  0  0  0  0  0  0  0  0  0  0
   57.0090   27.5620   45.3400 C   0  0  0  0  0  0  0  0  0  0  0  0
   56.5760   26.2060   45.9080 C   0  0  0  0  0  0  0  0  0  0  0  0
   57.7240   25.4540   46.5950 C   0  0  0  0  0  0  0  0  0  0  0  0
   59.0900   25.8300   45.9940 C   0  0  0  0  0  0  0  0  0  0  0  0
   59.9320   26.6950   46.9410 C   0  0  0  0  0  0  0  0  0  0  0  0
   59.0670   27.5960   47.8310 C   0  0  0  0  0  0  0  0  0  0  0  0
   59.8800   28.6710   48.3850 N   0  0  0  0  0  0  0  0  0  0  0  0
   60.4960   29.6520   47.7040 C   0  0  0  0  0  0  0  0  0  0  0  0
   61.2090   30.3800   48.6380 C   0  0  0  0  0  0  0  0  0  0  0  0
   62.0590   31.5690   48.4070 C   0  0  0  0  0  0  0  0  0  0  0  0
   62.7220   32.1840   49.4830 C   0  0  0  0  0  0  0  0  0  0  0  0
   63.5190   33.3080   49.2660 C   0  0  0  0  0  0  0  0  0  0  0  0
   63.6520   33.8150   47.9740 C   0  0  0  0  0  0  0  0  0  0  0  0
   63.0080   33.2150   46.9380 N   0  0  0  0  0  0  0  0  0  0  0  0
   62.2240   32.1180   47.1220 C   0  0  0  0  0  0  0  0  0  0  0  0
   61.0100   29.8120   49.8480 N   0  0  0  0  0  0  0  0  0  0  0  0
   60.2030   28.7780   49.6650 N   0  0  0  0  0  0  0  0  0  0  0  0
   56.9050   30.6070   44.5190 C   0  0  0  0  0  0  0  0  0  0  0  0
   57.0460   31.6080   43.5410 C   0  0  0  0  0  0  0  0  0  0  0  0
   57.9310   32.6710   43.7380 C   0  0  0  0  0  0  0  0  0  0  0  0
   58.6960   32.7470   44.9100 C   0  0  0  0  0  0  0  0  0  0  0  0
   59.4850   33.9980   45.2220 C   0  0  0  0  0  0  0  0  0  0  0  0
   60.1980   33.8900   46.5040 N   0  0  0  0  0  0  0  0  0  0  0  0
   59.5370   34.6540   47.5730 C   0  0  0  0  0  0  0  0  0  0  0  0
   59.3800   33.7990   48.8000 C   0  0  0  0  0  0  0  0  0  0  0  0
   58.5440   32.6690   48.7700 C   0  0  0  0  0  0  0  0  0  0  0  0
   58.3940   31.8740   49.9080 C   0  0  0  0  0  0  0  0  0  0  0  0
   59.0690   32.2040   51.0870 C   0  0  0  0  0  0  0  0  0  0  0  0
   59.8890   33.3370   51.1290 C   0  0  0  0  0  0  0  0  0  0  0  0
   60.0390   34.1360   49.9920 C   0  0  0  0  0  0  0  0  0  0  0  0
   58.6160   31.7110   45.8490 C   0  0  0  0  0  0  0  0  0  0  0  0
   57.7260   30.6490   45.6560 C   0  0  0  0  0  0  0  0  0  0  0  0
   57.4435   27.4200   44.3395 H   0  0  0  0  0  0  0  0  0  0  0  0
   57.7611   28.0167   46.0015 H   0  0  0  0  0  0  0  0  0  0  0  0
   55.7754   26.3728   46.6437 H   0  0  0  0  0  0  0  0  0  0  0  0
   56.2337   25.5882   45.0647 H   0  0  0  0  0  0  0  0  0  0  0  0
   57.7243   25.7051   47.6660 H   0  0  0  0  0  0  0  0  0  0  0  0
   57.5674   24.3758   46.4433 H   0  0  0  0  0  0  0  0  0  0  0  0
   59.6446   24.9059   45.7738 H   0  0  0  0  0  0  0  0  0  0  0  0
   58.9034   26.4174   45.0829 H   0  0  0  0  0  0  0  0  0  0  0  0
   60.5322   26.0343   47.5838 H   0  0  0  0  0  0  0  0  0  0  0  0
   60.5707   27.3447   46.3245 H   0  0  0  0  0  0  0  0  0  0  0  0
   58.2517   28.0269   47.2314 H   0  0  0  0  0  0  0  0  0  0  0  0
   58.6470   26.9981   48.6533 H   0  0  0  0  0  0  0  0  0  0  0  0
   60.4434   29.8383   46.6212 H   0  0  0  0  0  0  0  0  0  0  0  0
   62.6120   31.7777   50.4993 H   0  0  0  0  0  0  0  0  0  0  0  0
   64.0383   33.7904   50.1072 H   0  0  0  0  0  0  0  0  0  0  0  0
   64.2783   34.7009   47.7929 H   0  0  0  0  0  0  0  0  0  0  0  0
   61.7164   31.6579   46.2614 H   0  0  0  0  0  0  0  0  0  0  0  0
   56.4554   31.5535   42.6146 H   0  0  0  0  0  0  0  0  0  0  0  0
   58.0279   33.4521   42.9696 H   0  0  0  0  0  0  0  0  0  0  0  0
   60.2188   34.1653   44.4197 H   0  0  0  0  0  0  0  0  0  0  0  0
   58.7786   34.8381   45.2940 H   0  0  0  0  0  0  0  0  0  0  0  0
   61.1740   34.2540   46.3790 H   0  0  0  0  0  0  0  0  0  0  0  0
   60.1465   35.5358   47.8199 H   0  0  0  0  0  0  0  0  0  0  0  0
   58.5424   34.9708   47.2261 H   0  0  0  0  0  0  0  0  0  0  0  0
   58.0059   32.4101   47.8462 H   0  0  0  0  0  0  0  0  0  0  0  0
   57.7440   30.9871   49.8769 H   0  0  0  0  0  0  0  0  0  0  0  0
   58.9555   31.5733   51.9811 H   0  0  0  0  0  0  0  0  0  0  0  0
   60.4163   33.5993   52.0581 H   0  0  0  0  0  0  0  0  0  0  0  0
   60.6758   35.0320   50.0318 H   0  0  0  0  0  0  0  0  0  0  0  0
   59.2564   31.7324   46.7431 H   0  0  0  0  0  0  0  0  0  0  0  0
   57.6695   29.8414   46.4007 H   0  0  0  0  0  0  0  0  0  0  0  0
  1  2  2  0
  2  3  1  0
  3  4  1  0
  4  5  1  0
  5  6  1  0
  6  7  1  0
  7  8  1  0
  8  9  1  0
  9 10  1  0
 10 11  1  0
 11 12  2  0
 12 13  1  0
 13 14  2  0
 14 15  1  0
 15 16  2  0
 16 17  1  0
 17 18  2  0
 12 19  1  0
 19 20  2  0
  2 21  1  0
 21 22  2  0
 22 23  1  0
 23 24  2  0
 24 25  1  0
 25 26  1  0
 26 27  1  0
 27 28  1  0
 28 29  2  0
 29 30  1  0
 30 31  2  0
 31 32  1  0
 32 33  2  0
 24 34  1  0
 34 35  2  0
 20 10  1  0
 35 21  1  0
 18 13  1  0
 33 28  1  0
  4 36  1  0
  4 37  1  0
  5 38  1  0
  5 39  1  0
  6 40  1  0
  6 41  1  0
  7 42  1  0
  7 43  1  0
  8 44  1  0
  8 45  1  0
  9 46  1  0
  9 47  1  0
 11 48  1  0
 14 49  1  0
 15 50  1  0
 16 51  1  0
 18 52  1  0
 22 53  1  0
 23 54  1  0
 25 55  1  0
 25 56  1  0
 26 57  1  0
 27 58  1  0
 27 59  1  0
 29 60  1  0
 30 61  1  0
 31 62  1  0
 32 63  1  0
 33 64  1  0
 34 65  1  0
 35 66  1  0
M  CHG  1   3  -1
M  END
>  <UniqueID>  (73) 
68

>  <SMILES>  (73) 
O=C([N-]CCCCCCn1cc(-c2cccnc2)nn1)c1ccc(CNCc2ccccc2)cc1

>  <Energy>  (73) 
103.27234434200916

>  <Genealogy>  (73) 
O=C([N-]CCCCCCn1cc(-c2cccnc2)nn1)c1ccc(CNCc2ccccc2)cc1 (protonated)
O=C([N-]CCCCCCn1cc(-c2cccnc2)nn1)c1ccc(CNCc2ccccc2)cc1 (3D coordinates assigned)
O=C([N-]CCCCCCn1cc(-c2cccnc2)nn1)c1ccc(CNCc2ccccc2)cc1 (optimized conformer: 103.27234434200916 kcal/mol)

>  <smiles>  (73) 
O=C(NCCCCCCn1cc(-c2cccnc2)nn1)c1ccc(CNCc2ccccc2)cc1

>  <score_type>  (73) 
oracle

>  <origin>  (73) 
adg

>  <m_score__min__energy>  (73) 
-12.01

>  <m_primary>  (73) 
energy

$$$$
73:0
     RDKit          3D

 25 26  0  0  0  0  0  0  0  0999 V2000
   55.0860   28.9420   52.6260 O   0  0  0  0  0  0  0  0  0  0  0  0
   55.0220   30.1810   52.3980 C   0  0  0  0  0  0  0  0  0  0  0  0
   53.6940   30.8370   52.2990 C   0  0  0  0  0  0  0  0  0  0  0  0
   52.8470   30.9370   53.4210 C   0  0  0  0  0  0  0  0  0  0  0  0
   51.6020   31.5650   53.3160 C   0  0  0  0  0  0  0  0  0  0  0  0
   51.1900   32.1060   52.0960 C   0  0  0  0  0  0  0  0  0  0  0  0
   49.9520   32.7290   51.9940 O   0  0  0  0  0  0  0  0  0  0  0  0
   52.0240   32.0220   50.9790 C   0  0  0  0  0  0  0  0  0  0  0  0
   53.2700   31.3950   51.0790 C   0  0  0  0  0  0  0  0  0  0  0  0
   56.2830   30.9450   52.2720 C   0  0  0  0  0  0  0  0  0  0  0  0
   56.2420   32.3480   52.3530 C   0  0  0  0  0  0  0  0  0  0  0  0
   57.4190   33.0970   52.2880 C   0  0  0  0  0  0  0  0  0  0  0  0
   58.6490   32.4550   52.1490 C   0  0  0  0  0  0  0  0  0  0  0  0
   58.7060   31.0620   52.0670 C   0  0  0  0  0  0  0  0  0  0  0  0
   57.5330   30.2990   52.1180 C   0  0  0  0  0  0  0  0  0  0  0  0
   57.6420   28.9120   51.9920 O   0  0  0  0  0  0  0  0  0  0  0  0
   53.1676   30.5180   54.3862 H   0  0  0  0  0  0  0  0  0  0  0  0
   50.9457   31.6331   54.1961 H   0  0  0  0  0  0  0  0  0  0  0  0
   51.7002   32.4498   50.0187 H   0  0  0  0  0  0  0  0  0  0  0  0
   53.9241   31.3376   50.1964 H   0  0  0  0  0  0  0  0  0  0  0  0
   55.2752   32.8598   52.4685 H   0  0  0  0  0  0  0  0  0  0  0  0
   57.3757   34.1946   52.3465 H   0  0  0  0  0  0  0  0  0  0  0  0
   59.5754   33.0464   52.1039 H   0  0  0  0  0  0  0  0  0  0  0  0
   59.6794   30.5606   51.9616 H   0  0  0  0  0  0  0  0  0  0  0  0
   57.1210   28.2630   52.5660 H   0  0  0  0  0  0  0  0  0  0  0  0
  1  2  2  0
  2  3  1  0
  3  4  2  0
  4  5  1  0
  5  6  2  0
  6  7  1  0
  6  8  1  0
  8  9  2  0
  2 10  1  0
 10 11  2  0
 11 12  1  0
 12 13  2  0
 13 14  1  0
 14 15  2  0
 15 16  1  0
  9  3  1  0
 15 10  1  0
  4 17  1  0
  5 18  1  0
  8 19  1  0
  9 20  1  0
 11 21  1  0
 12 22  1  0
 13 23  1  0
 14 24  1  0
 16 25  1  0
M  CHG  1   7  -1
M  END
>  <UniqueID>  (74) 
69

>  <SMILES>  (74) 
O=C(c1ccc([O-])cc1)c1ccccc1O

>  <Energy>  (74) 
34.56471912270155

>  <Genealogy>  (74) 
O=C(c1ccc([O-])cc1)c1ccccc1O (protonated)
O=C(c1ccc([O-])cc1)c1ccccc1O (3D coordinates assigned)
O=C(c1ccc([O-])cc1)c1ccccc1O (optimized conformer: 34.56471912270155 kcal/mol)

>  <smiles>  (74) 
O=C(c1ccc(O)cc1)c1ccccc1O

>  <score_type>  (74) 
oracle

>  <origin>  (74) 
adg

>  <m_score__min__energy>  (74) 
-9.1400000000000006

>  <m_primary>  (74) 
energy

$$$$
74:0
     RDKit          3D

 57 60  0  0  0  0  0  0  0  0999 V2000
   57.2222   21.4177   42.4698 H   0  0  0  0  0  0  0  0  0  0  0  0
   57.0860   22.1380   43.2900 C   0  0  0  0  0  0  0  0  0  0  0  0
   56.0620   23.0820   43.2240 C   0  0  0  0  0  0  0  0  0  0  0  0
   55.3754   23.0892   42.3646 H   0  0  0  0  0  0  0  0  0  0  0  0
   55.9080   24.0170   44.2470 C   0  0  0  0  0  0  0  0  0  0  0  0
   55.0976   24.7590   44.1945 H   0  0  0  0  0  0  0  0  0  0  0  0
   56.7870   24.0140   45.3470 C   0  0  0  0  0  0  0  0  0  0  0  0
   56.6630   24.9610   46.4120 N   0  0  0  0  0  0  0  0  0  0  0  0
   56.3120   26.3380   46.2590 C   0  0  0  0  0  0  0  0  0  0  0  0
   55.1230   26.6320   46.0000 O   0  0  0  0  0  0  0  0  0  0  0  0
   57.2990   27.3630   46.4120 N   0  0  0  0  0  0  0  0  0  0  0  0
   57.4470   28.5560   45.6290 C   0  0  0  0  0  0  0  0  0  0  0  0
   56.4150   29.0530   44.8190 C   0  0  0  0  0  0  0  0  0  0  0  0
   55.4919   28.4695   44.6867 H   0  0  0  0  0  0  0  0  0  0  0  0
   56.5570   30.2890   44.1790 C   0  0  0  0  0  0  0  0  0  0  0  0
   55.7503   30.6654   43.5328 H   0  0  0  0  0  0  0  0  0  0  0  0
   57.7220   31.0520   44.3560 C   0  0  0  0  0  0  0  0  0  0  0  0
   57.7880   32.4700   43.8460 C   0  0  0  0  0  0  0  0  0  0  0  0
   57.1133   32.5682   42.9828 H   0  0  0  0  0  0  0  0  0  0  0  0
   58.8302   32.6803   43.5641 H   0  0  0  0  0  0  0  0  0  0  0  0
   57.3720   33.4920   44.9200 C   0  0  0  0  0  0  0  0  0  0  0  0
   57.0472   32.9521   45.8217 H   0  0  0  0  0  0  0  0  0  0  0  0
   56.5524   34.1050   44.5170 H   0  0  0  0  0  0  0  0  0  0  0  0
   58.4850   34.3800   45.2700 N   0  0  0  0  0  0  0  0  0  0  0  0
   59.4050   34.0940   46.1430 C   0  0  0  0  0  0  0  0  0  0  0  0
   60.7170   33.9380   45.8160 N   0  0  0  0  0  0  0  0  0  0  0  0
   61.2880   33.7650   47.0160 C   0  0  0  0  0  0  0  0  0  0  0  0
   62.6300   33.6430   47.3210 C   0  0  0  0  0  0  0  0  0  0  0  0
   63.4900   33.6260   46.3980 O   0  0  0  0  0  0  0  0  0  0  0  0
   62.9960   33.5650   48.6450 N   0  0  0  0  0  0  0  0  0  0  0  0
   64.4270   33.4360   48.9970 C   0  0  0  0  0  0  0  0  0  0  0  0
   64.7190   34.2911   49.6243 H   0  0  0  0  0  0  0  0  0  0  0  0
   65.0106   33.4158   48.0648 H   0  0  0  0  0  0  0  0  0  0  0  0
   64.7040   32.1360   49.7660 C   0  0  0  0  0  0  0  0  0  0  0  0
   64.6882   31.2959   49.0560 H   0  0  0  0  0  0  0  0  0  0  0  0
   63.9248   32.0300   50.5351 H   0  0  0  0  0  0  0  0  0  0  0  0
   66.0570   32.1530   50.4750 C   0  0  0  0  0  0  0  0  0  0  0  0
   65.9004   32.1510   51.5638 H   0  0  0  0  0  0  0  0  0  0  0  0
   66.6337   31.2620   50.1859 H   0  0  0  0  0  0  0  0  0  0  0  0
   66.6111   33.0582   50.1859 H   0  0  0  0  0  0  0  0  0  0  0  0
   62.0260   33.6100   49.6340 C   0  0  0  0  0  0  0  0  0  0  0  0
   62.3680   33.5540   50.8480 O   0  0  0  0  0  0  0  0  0  0  0  0
   60.6890   33.7230   49.3100 N   0  0  0  0  0  0  0  0  0  0  0  0
   59.6640   33.8320   50.3530 C   0  0  0  0  0  0  0  0  0  0  0  0
   60.1412   33.7813   51.3428 H   0  0  0  0  0  0  0  0  0  0  0  0
   59.1359   34.7914   50.2493 H   0  0  0  0  0  0  0  0  0  0  0  0
   58.9460   33.0051   50.2493 H   0  0  0  0  0  0  0  0  0  0  0  0
   60.3590   33.8110   47.9930 C   0  0  0  0  0  0  0  0  0  0  0  0
   59.1360   34.0160   47.4740 N   0  0  0  0  0  0  0  0  0  0  0  0
   58.7660   30.5370   45.1390 C   0  0  0  0  0  0  0  0  0  0  0  0
   59.6990   31.1085   45.2529 H   0  0  0  0  0  0  0  0  0  0  0  0
   58.6250   29.3020   45.7740 C   0  0  0  0  0  0  0  0  0  0  0  0
   59.4454   28.9107   46.3936 H   0  0  0  0  0  0  0  0  0  0  0  0
   57.7760   23.0280   45.4290 C   0  0  0  0  0  0  0  0  0  0  0  0
   58.4286   22.9800   46.3132 H   0  0  0  0  0  0  0  0  0  0  0  0
   57.9390   22.1050   44.3950 C   0  0  0  0  0  0  0  0  0  0  0  0
   58.7389   21.3520   44.4505 H   0  0  0  0  0  0  0  0  0  0  0  0
  1  2  1  0
  2  3  2  0
  3  4  1  0
  3  5  1  0
  5  6  1  0
  5  7  2  0
  7  8  1  0
  8  9  1  0
  9 10  2  0
  9 11  1  0
 11 12  1  0
 12 13  2  0
 13 14  1  0
 13 15  1  0
 15 16  1  0
 15 17  2  0
 17 18  1  0
 18 19  1  0
 18 20  1  0
 18 21  1  0
 21 22  1  0
 21 23  1  0
 21 24  1  0
 24 25  2  0
 25 26  1  0
 26 27  1  0
 27 28  1  0
 28 29  2  0
 28 30  1  0
 30 31  1  0
 31 32  1  0
 31 33  1  0
 31 34  1  0
 34 35  1  0
 34 36  1  0
 34 37  1  0
 37 38  1  0
 37 39  1  0
 37 40  1  0
 30 41  1  0
 41 42  2  0
 41 43  1  0
 43 44  1  0
 44 45  1  0
 44 46  1  0
 44 47  1  0
 43 48  1  0
 48 49  1  0
 17 50  1  0
 50 51  1  0
 50 52  2  0
 52 53  1  0
  7 54  1  0
 54 55  1  0
 54 56  2  0
 56 57  1  0
 56  2  1  0
 52 12  1  0
 49 25  1  0
 48 27  2  0
M  CHG  4   8  -1  11  -1  26  -1  49  -1
M  END
>  <UniqueID>  (75) 
70

>  <SMILES>  (75) 
CCCn1c(=O)c2[n-]/c(=N\CCc3ccc([N-]C(=O)[N-]c4ccccc4)cc3)[n-]c2n(C)c1=O

>  <Energy>  (75) 
99.50616273227502

>  <Genealogy>  (75) 
CCCn1c(=O)c2[n-]c(=NCCc3ccc([N-]C(=O)[N-]c4ccccc4)cc3)[n-]c2n(C)c1=O (protonated)
CCCn1c(=O)c2[n-]/c(=N\CCc3ccc([N-]C(=O)[N-]c4ccccc4)cc3)[n-]c2n(C)c1=O (cis-trans isomerization)
CCCn1c(=O)c2[n-]/c(=N\CCc3ccc([N-]C(=O)[N-]c4ccccc4)cc3)[n-]c2n(C)c1=O (3D coordinates assigned)
CCCn1c(=O)c2[n-]/c(=N\CCc3ccc([N-]C(=O)[N-]c4ccccc4)cc3)[n-]c2n(C)c1=O (optimized conformer: 99.50616273227502 kcal/mol)

>  <smiles>  (75) 
CCCn1c(=O)c2[nH]c(=NCCc3ccc(NC(=O)Nc4ccccc4)cc3)[nH]c2n(C)c1=O

>  <score_type>  (75) 
oracle

>  <origin>  (75) 
adg

>  <m_score__min__energy>  (75) 
-14.18

>  <m_primary>  (75) 
energy

$$$$
75:0
     RDKit          3D

 54 57  0  0  0  0  0  0  0  0999 V2000
   60.7680   29.3970   45.5470 C   0  0  0  0  0  0  0  0  0  0  0  0
   59.6450   28.4120   45.7250 C   0  0  0  0  0  0  0  0  0  0  0  0
   59.9210   27.0360   45.7520 C   0  0  0  0  0  0  0  0  0  0  0  0
   58.8880   26.1110   45.9230 C   0  0  0  0  0  0  0  0  0  0  0  0
   57.5670   26.5470   46.0750 C   0  0  0  0  0  0  0  0  0  0  0  0
   56.2660   25.3840   46.3070 S   0  0  0  0  0  0  0  0  0  0  0  0
   54.7480   26.1410   45.9840 N   0  0  0  0  0  0  0  0  0  0  0  0
   56.2790   24.8780   47.7230 O   0  0  0  0  0  0  0  0  0  0  0  0
   56.4560   24.2180   45.3780 O   0  0  0  0  0  0  0  0  0  0  0  0
   57.2880   27.9180   46.0710 C   0  0  0  0  0  0  0  0  0  0  0  0
   58.3160   28.8550   45.8920 C   0  0  0  0  0  0  0  0  0  0  0  0
   58.0060   30.2530   45.9170 N   0  0  0  0  0  0  0  0  0  0  0  0
   57.2980   30.8740   44.9910 N   0  0  0  0  0  0  0  0  0  0  0  0
   57.1930   32.1510   45.3230 N   0  0  0  0  0  0  0  0  0  0  0  0
   57.8250   32.3770   46.4680 N   0  0  0  0  0  0  0  0  0  0  0  0
   58.3280   31.1830   46.8370 C   0  0  0  0  0  0  0  0  0  0  0  0
   59.0890   30.9540   48.0860 C   0  0  0  0  0  0  0  0  0  0  0  0
   58.4830   30.8530   49.1840 O   0  0  0  0  0  0  0  0  0  0  0  0
   60.5120   30.7800   48.0730 N   0  0  0  0  0  0  0  0  0  0  0  0
   61.4870   31.8260   47.9690 C   0  0  0  0  0  0  0  0  0  0  0  0
   62.4650   31.9380   48.9660 C   0  0  0  0  0  0  0  0  0  0  0  0
   63.4320   32.9590   48.9180 C   0  0  0  0  0  0  0  0  0  0  0  0
   64.4490   33.0600   49.9400 N   0  0  0  0  0  0  0  0  0  0  0  0
   64.2760   33.9620   51.0850 C   0  0  0  0  0  0  0  0  0  0  0  0
   64.9810   33.3870   52.3230 C   0  0  0  0  0  0  0  0  0  0  0  0
   66.4040   33.0200   52.0860 N   0  0  0  0  0  0  0  0  0  0  0  0
   67.3150   33.8980   52.8360 C   0  0  0  0  0  0  0  0  0  0  0  0
   66.8030   32.9690   50.6630 C   0  0  0  0  0  0  0  0  0  0  0  0
   65.7140   32.3270   49.7990 C   0  0  0  0  0  0  0  0  0  0  0  0
   63.3870   33.8870   47.8620 C   0  0  0  0  0  0  0  0  0  0  0  0
   62.3950   33.7980   46.8830 C   0  0  0  0  0  0  0  0  0  0  0  0
   61.4410   32.7800   46.9350 C   0  0  0  0  0  0  0  0  0  0  0  0
   60.4550   32.7520   46.0040 F   0  0  0  0  0  0  0  0  0  0  0  0
   61.1340   29.7180   46.5334 H   0  0  0  0  0  0  0  0  0  0  0  0
   61.5878   28.9214   44.9887 H   0  0  0  0  0  0  0  0  0  0  0  0
   60.4034   30.2718   44.9887 H   0  0  0  0  0  0  0  0  0  0  0  0
   60.9568   26.6838   45.6378 H   0  0  0  0  0  0  0  0  0  0  0  0
   59.1142   25.0346   45.9382 H   0  0  0  0  0  0  0  0  0  0  0  0
   54.7680   27.0750   46.4540 H   0  0  0  0  0  0  0  0  0  0  0  0
   56.2531   28.2641   46.2095 H   0  0  0  0  0  0  0  0  0  0  0  0
   62.4770   31.2180   49.7975 H   0  0  0  0  0  0  0  0  0  0  0  0
   64.7092   34.9438   50.8431 H   0  0  0  0  0  0  0  0  0  0  0  0
   63.2024   34.0685   51.2997 H   0  0  0  0  0  0  0  0  0  0  0  0
   64.9456   34.1403   53.1238 H   0  0  0  0  0  0  0  0  0  0  0  0
   64.4515   32.4614   52.5930 H   0  0  0  0  0  0  0  0  0  0  0  0
   67.1613   33.7499   53.9151 H   0  0  0  0  0  0  0  0  0  0  0  0
   68.3558   33.6537   52.5769 H   0  0  0  0  0  0  0  0  0  0  0  0
   67.1092   34.9471   52.5769 H   0  0  0  0  0  0  0  0  0  0  0  0
   66.9856   33.9932   50.3058 H   0  0  0  0  0  0  0  0  0  0  0  0
   67.7142   32.3582   50.5811 H   0  0  0  0  0  0  0  0  0  0  0  0
   66.0288   32.3470   48.7452 H   0  0  0  0  0  0  0  0  0  0  0  0
   65.5630   31.2886   50.1291 H   0  0  0  0  0  0  0  0  0  0  0  0
   64.1384   34.6885   47.8069 H   0  0  0  0  0  0  0  0  0  0  0  0
   62.3651   34.5342   46.0662 H   0  0  0  0  0  0  0  0  0  0  0  0
  1  2  1  0
  2  3  2  0
  3  4  1  0
  4  5  2  0
  5  6  1  0
  6  7  1  0
  6  8  2  0
  6  9  2  0
  5 10  1  0
 10 11  2  0
 11 12  1  0
 12 13  1  0
 13 14  2  0
 14 15  1  0
 15 16  2  0
 16 17  1  0
 17 18  2  0
 17 19  1  0
 19 20  1  0
 20 21  2  0
 21 22  1  0
 22 23  1  0
 23 24  1  0
 24 25  1  0
 25 26  1  0
 26 27  1  0
 26 28  1  0
 28 29  1  0
 22 30  2  0
 30 31  1  0
 31 32  2  0
 32 33  1  0
 11  2  1  0
 16 12  1  0
 32 20  1  0
 29 23  1  0
  1 34  1  0
  1 35  1  0
  1 36  1  0
  3 37  1  0
  4 38  1  0
  7 39  1  0
 10 40  1  0
 21 41  1  0
 24 42  1  0
 24 43  1  0
 25 44  1  0
 25 45  1  0
 27 46  1  0
 27 47  1  0
 27 48  1  0
 28 49  1  0
 28 50  1  0
 29 51  1  0
 29 52  1  0
 30 53  1  0
 31 54  1  0
M  CHG  2   7  -1  19  -1
M  END
>  <UniqueID>  (76) 
71

>  <SMILES>  (76) 
Cc1ccc(S([NH-])(=O)=O)cc1-n1nnnc1C(=O)[N-]c1cc(N2CCN(C)CC2)ccc1F

>  <Energy>  (76) 
120.13030539081662

>  <Genealogy>  (76) 
Cc1ccc(S([NH-])(=O)=O)cc1-n1nnnc1C(=O)[N-]c1cc(N2CCN(C)CC2)ccc1F (protonated)
Cc1ccc(S([NH-])(=O)=O)cc1-n1nnnc1C(=O)[N-]c1cc(N2CCN(C)CC2)ccc1F (3D coordinates assigned)
Cc1ccc(S([NH-])(=O)=O)cc1-n1nnnc1C(=O)[N-]c1cc(N2CCN(C)CC2)ccc1F (nonaromatic ring conformer: 120.13030539081662 kcal/mol)

>  <smiles>  (76) 
Cc1ccc(S(N)(=O)=O)cc1-n1nnnc1C(=O)Nc1cc(N2CCN(C)CC2)ccc1F

>  <score_type>  (76) 
oracle

>  <origin>  (76) 
adg

>  <m_score__min__energy>  (76) 
-13.65

>  <m_primary>  (76) 
energy

$$$$
76:0
     RDKit          3D

 36 38  0  0  0  0  0  0  0  0999 V2000
   60.0280   33.8840   49.9280 C   0  0  0  0  0  0  0  0  0  0  0  0
   59.3340   33.1830   51.4090 S   0  0  0  0  0  0  0  0  0  0  0  0
   58.4510   34.2120   52.0570 O   0  0  0  0  0  0  0  0  0  0  0  0
   60.4230   32.8060   52.3750 O   0  0  0  0  0  0  0  0  0  0  0  0
   58.3740   31.7890   51.0190 N   0  0  0  0  0  0  0  0  0  0  0  0
   58.2170   30.6400   51.8720 C   0  0  0  0  0  0  0  0  0  0  0  0
   59.2400   29.6880   52.0410 C   0  0  0  0  0  0  0  0  0  0  0  0
   59.0420   28.5800   52.8690 C   0  0  0  0  0  0  0  0  0  0  0  0
   57.8330   28.4150   53.5470 C   0  0  0  0  0  0  0  0  0  0  0  0
   56.8140   29.3630   53.4150 C   0  0  0  0  0  0  0  0  0  0  0  0
   55.6090   29.1580   54.1030 O   0  0  0  0  0  0  0  0  0  0  0  0
   54.4070   29.8370   53.8580 C   0  0  0  0  0  0  0  0  0  0  0  0
   53.5210   30.0370   54.9210 C   0  0  0  0  0  0  0  0  0  0  0  0
   52.3170   30.7180   54.7270 C   0  0  0  0  0  0  0  0  0  0  0  0
   51.9860   31.2240   53.4570 C   0  0  0  0  0  0  0  0  0  0  0  0
   50.7810   31.9160   53.2230 C   0  0  0  0  0  0  0  0  0  0  0  0
   49.9480   32.0990   54.1510 O   0  0  0  0  0  0  0  0  0  0  0  0
   50.5050   32.3940   51.9800 N   0  0  0  0  0  0  0  0  0  0  0  0
   51.3600   32.2310   50.9370 C   0  0  0  0  0  0  0  0  0  0  0  0
   51.0280   32.7410   49.6870 O   0  0  0  0  0  0  0  0  0  0  0  0
   52.5670   31.5550   51.1170 C   0  0  0  0  0  0  0  0  0  0  0  0
   52.8880   31.0440   52.3820 C   0  0  0  0  0  0  0  0  0  0  0  0
   54.0950   30.3590   52.5890 C   0  0  0  0  0  0  0  0  0  0  0  0
   57.0060   30.4660   52.5620 C   0  0  0  0  0  0  0  0  0  0  0  0
   60.7783   34.6418   50.1977 H   0  0  0  0  0  0  0  0  0  0  0  0
   60.5056   33.0899   49.3354 H   0  0  0  0  0  0  0  0  0  0  0  0
   59.2291   34.3536   49.3354 H   0  0  0  0  0  0  0  0  0  0  0  0
   57.9340   31.7770   50.0720 H   0  0  0  0  0  0  0  0  0  0  0  0
   60.1996   29.8169   51.5189 H   0  0  0  0  0  0  0  0  0  0  0  0
   59.8423   27.8346   52.9871 H   0  0  0  0  0  0  0  0  0  0  0  0
   57.6813   27.5344   54.1885 H   0  0  0  0  0  0  0  0  0  0  0  0
   53.7748   29.6541   55.9205 H   0  0  0  0  0  0  0  0  0  0  0  0
   51.6252   30.8591   55.5705 H   0  0  0  0  0  0  0  0  0  0  0  0
   53.2608   31.4242   50.2734 H   0  0  0  0  0  0  0  0  0  0  0  0
   54.8007   30.2294   51.7553 H   0  0  0  0  0  0  0  0  0  0  0  0
   56.1976   31.2009   52.4341 H   0  0  0  0  0  0  0  0  0  0  0  0
  1  2  1  0
  2  3  2  0
  2  4  2  0
  2  5  1  0
  5  6  1  0
  6  7  2  0
  7  8  1  0
  8  9  2  0
  9 10  1  0
 10 11  1  0
 11 12  1  0
 12 13  2  0
 13 14  1  0
 14 15  2  0
 15 16  1  0
 16 17  2  0
 16 18  1  0
 18 19  1  0
 19 20  1  0
 19 21  2  0
 21 22  1  0
 22 23  2  0
 10 24  2  0
 24  6  1  0
 23 12  1  0
 22 15  1  0
  1 25  1  0
  1 26  1  0
  1 27  1  0
  5 28  1  0
  7 29  1  0
  8 30  1  0
  9 31  1  0
 13 32  1  0
 14 33  1  0
 21 34  1  0
 23 35  1  0
 24 36  1  0
M  CHG  2  18  -1  20  -1
M  END
>  <UniqueID>  (77) 
72

>  <SMILES>  (77) 
CS(=O)(=O)Nc1cccc(Oc2ccc3c(=O)[n-]c([O-])cc3c2)c1

>  <Energy>  (77) 
48.95621517701599

>  <Genealogy>  (77) 
CS(=O)(=O)Nc1cccc(Oc2ccc3c(=O)[n-]c([O-])cc3c2)c1 (protonated)
CS(=O)(=O)Nc1cccc(Oc2ccc3c(=O)[n-]c([O-])cc3c2)c1 (3D coordinates assigned)
CS(=O)(=O)Nc1cccc(Oc2ccc3c(=O)[n-]c([O-])cc3c2)c1 (optimized conformer: 48.95621517701599 kcal/mol)

>  <smiles>  (77) 
CS(=O)(=O)Nc1cccc(Oc2ccc3c(=O)[nH]c(O)cc3c2)c1

>  <score_type>  (77) 
oracle

>  <origin>  (77) 
adg

>  <m_score__min__energy>  (77) 
-13.619999999999999

>  <m_primary>  (77) 
energy

$$$$
77:0
     RDKit          3D

 54 57  0  0  0  0  0  0  0  0999 V2000
   55.5860   29.4010   44.8500 C   0  0  0  0  0  0  0  0  0  0  0  0
   56.7160   28.4340   45.1010 C   0  0  0  0  0  0  0  0  0  0  0  0
   58.0390   28.7780   44.7650 C   0  0  0  0  0  0  0  0  0  0  0  0
   58.3350   30.0380   44.1350 N   0  0  0  0  0  0  0  0  0  0  0  0
   58.4060   31.2910   44.8390 C   0  0  0  0  0  0  0  0  0  0  0  0
   57.6850   32.4150   44.4000 C   0  0  0  0  0  0  0  0  0  0  0  0
   57.8010   33.6330   45.0760 C   0  0  0  0  0  0  0  0  0  0  0  0
   58.6360   33.7410   46.1890 C   0  0  0  0  0  0  0  0  0  0  0  0
   59.3610   32.6310   46.6440 C   0  0  0  0  0  0  0  0  0  0  0  0
   60.2370   32.7740   47.7750 N   0  0  0  0  0  0  0  0  0  0  0  0
   61.5880   32.2830   47.8060 C   0  0  0  0  0  0  0  0  0  0  0  0
   61.9350   31.3590   47.0200 O   0  0  0  0  0  0  0  0  0  0  0  0
   62.5690   32.8150   48.7840 C   0  0  0  0  0  0  0  0  0  0  0  0
   62.1880   33.8200   49.6940 C   0  0  0  0  0  0  0  0  0  0  0  0
   63.1070   34.3190   50.6220 C   0  0  0  0  0  0  0  0  0  0  0  0
   64.4110   33.8200   50.6570 C   0  0  0  0  0  0  0  0  0  0  0  0
   64.7970   32.8150   49.7680 C   0  0  0  0  0  0  0  0  0  0  0  0
   63.8840   32.3120   48.8370 C   0  0  0  0  0  0  0  0  0  0  0  0
   59.2590   31.4120   45.9470 C   0  0  0  0  0  0  0  0  0  0  0  0
   59.0630   27.8550   44.9940 C   0  0  0  0  0  0  0  0  0  0  0  0
   58.7750   26.6130   45.5570 C   0  0  0  0  0  0  0  0  0  0  0  0
   59.7240   25.8070   45.7590 O   0  0  0  0  0  0  0  0  0  0  0  0
   57.4820   26.2720   45.8750 N   0  0  0  0  0  0  0  0  0  0  0  0
   57.1870   24.9650   46.4970 C   0  0  0  0  0  0  0  0  0  0  0  0
   57.1460   23.8800   45.4500 C   0  0  0  0  0  0  0  0  0  0  0  0
   56.2870   23.9900   44.3420 C   0  0  0  0  0  0  0  0  0  0  0  0
   56.2340   22.9690   43.3890 C   0  0  0  0  0  0  0  0  0  0  0  0
   57.0310   21.8300   43.5350 C   0  0  0  0  0  0  0  0  0  0  0  0
   57.8850   21.7130   44.6340 C   0  0  0  0  0  0  0  0  0  0  0  0
   57.9430   22.7310   45.5900 C   0  0  0  0  0  0  0  0  0  0  0  0
   56.4580   27.1590   45.6470 C   0  0  0  0  0  0  0  0  0  0  0  0
   55.1460   26.8000   45.9500 O   0  0  0  0  0  0  0  0  0  0  0  0
   55.1802   29.7483   45.8116 H   0  0  0  0  0  0  0  0  0  0  0  0
   55.9608   30.2624   44.2777 H   0  0  0  0  0  0  0  0  0  0  0  0
   54.7929   28.8976   44.2777 H   0  0  0  0  0  0  0  0  0  0  0  0
   58.5390   30.0370   43.1100 H   0  0  0  0  0  0  0  0  0  0  0  0
   57.0274   32.3358   43.5217 H   0  0  0  0  0  0  0  0  0  0  0  0
   57.2326   34.5088   44.7297 H   0  0  0  0  0  0  0  0  0  0  0  0
   58.7258   34.7040   46.7129 H   0  0  0  0  0  0  0  0  0  0  0  0
   59.8330   33.1530   48.6610 H   0  0  0  0  0  0  0  0  0  0  0  0
   61.1614   34.2147   49.6746 H   0  0  0  0  0  0  0  0  0  0  0  0
   62.8022   35.1068   51.3265 H   0  0  0  0  0  0  0  0  0  0  0  0
   65.1334   34.2185   51.3845 H   0  0  0  0  0  0  0  0  0  0  0  0
   65.8224   32.4180   49.8004 H   0  0  0  0  0  0  0  0  0  0  0  0
   64.1940   31.5184   48.1413 H   0  0  0  0  0  0  0  0  0  0  0  0
   59.8535   30.5462   46.2739 H   0  0  0  0  0  0  0  0  0  0  0  0
   60.0998   28.1096   44.7290 H   0  0  0  0  0  0  0  0  0  0  0  0
   57.9700   24.7290   47.2326 H   0  0  0  0  0  0  0  0  0  0  0  0
   56.2062   25.0194   46.9921 H   0  0  0  0  0  0  0  0  0  0  0  0
   55.6547   24.8825   44.2250 H   0  0  0  0  0  0  0  0  0  0  0  0
   55.5635   23.0620   42.5220 H   0  0  0  0  0  0  0  0  0  0  0  0
   56.9857   21.0266   42.7851 H   0  0  0  0  0  0  0  0  0  0  0  0
   58.5135   20.8174   44.7475 H   0  0  0  0  0  0  0  0  0  0  0  0
   58.6150   22.6324   46.4552 H   0  0  0  0  0  0  0  0  0  0  0  0
  1  2  1  0
  2  3  1  0
  3  4  1  0
  4  5  1  0
  5  6  2  0
  6  7  1  0
  7  8  2  0
  8  9  1  0
  9 10  1  0
 10 11  1  0
 11 12  2  0
 11 13  1  0
 13 14  2  0
 14 15  1  0
 15 16  2  0
 16 17  1  0
 17 18  2  0
  9 19  2  0
  3 20  2  0
 20 21  1  0
 21 22  2  0
 21 23  1  0
 23 24  1  0
 24 25  1  0
 25 26  2  0
 26 27  1  0
 27 28  2  0
 28 29  1  0
 29 30  2  0
 23 31  1  0
 31 32  1  0
 31  2  2  0
 19  5  1  0
 30 25  1  0
 18 13  1  0
  1 33  1  0
  1 34  1  0
  1 35  1  0
  4 36  1  0
  6 37  1  0
  7 38  1  0
  8 39  1  0
 10 40  1  0
 14 41  1  0
 15 42  1  0
 16 43  1  0
 17 44  1  0
 18 45  1  0
 19 46  1  0
 20 47  1  0
 24 48  1  0
 24 49  1  0
 26 50  1  0
 27 51  1  0
 28 52  1  0
 29 53  1  0
 30 54  1  0
M  CHG  1  32  -1
M  END
>  <UniqueID>  (78) 
73

>  <SMILES>  (78) 
Cc1c(Nc2cccc(NC(=O)c3ccccc3)c2)cc(=O)n(Cc2ccccc2)c1[O-]

>  <Energy>  (78) 
74.56371029672847

>  <Genealogy>  (78) 
Cc1c(Nc2cccc(NC(=O)c3ccccc3)c2)cc(=O)n(Cc2ccccc2)c1[O-] (protonated)
Cc1c(Nc2cccc(NC(=O)c3ccccc3)c2)cc(=O)n(Cc2ccccc2)c1[O-] (3D coordinates assigned)
Cc1c(Nc2cccc(NC(=O)c3ccccc3)c2)cc(=O)n(Cc2ccccc2)c1[O-] (optimized conformer: 74.56371029672847 kcal/mol)

>  <smiles>  (78) 
Cc1c(Nc2cccc(NC(=O)c3ccccc3)c2)cc(=O)n(Cc2ccccc2)c1O

>  <score_type>  (78) 
oracle

>  <origin>  (78) 
adg

>  <m_score__min__energy>  (78) 
-13.039999999999999

>  <m_primary>  (78) 
energy

$$$$
78:0
     RDKit          3D

 50 52  0  0  0  0  0  0  0  0999 V2000
   63.6330   32.0800   47.7600 N   0  0  0  0  0  0  0  0  0  0  0  0
   62.9000   33.6370   47.6110 S   0  0  0  0  0  0  0  0  0  0  0  0
   62.8210   34.2850   48.9660 O   0  0  0  0  0  0  0  0  0  0  0  0
   63.7340   34.5040   46.7090 O   0  0  0  0  0  0  0  0  0  0  0  0
   61.2850   33.4590   46.9340 C   0  0  0  0  0  0  0  0  0  0  0  0
   60.6150   34.5760   46.4180 C   0  0  0  0  0  0  0  0  0  0  0  0
   59.3360   34.4380   45.8700 C   0  0  0  0  0  0  0  0  0  0  0  0
   58.7110   33.1820   45.8350 C   0  0  0  0  0  0  0  0  0  0  0  0
   57.3440   33.0310   45.2190 C   0  0  0  0  0  0  0  0  0  0  0  0
   57.3130   31.8860   44.2010 C   0  0  0  0  0  0  0  0  0  0  0  0
   56.2730   30.9150   44.5340 N   0  0  0  0  0  0  0  0  0  0  0  0
   56.5000   29.5670   44.9650 C   0  0  0  0  0  0  0  0  0  0  0  0
   55.5190   28.7820   45.0490 O   0  0  0  0  0  0  0  0  0  0  0  0
   57.8560   29.0860   45.3840 C   0  0  0  0  0  0  0  0  0  0  0  0
   58.2370   27.9840   44.5660 O   0  0  0  0  0  0  0  0  0  0  0  0
   57.8070   26.6790   44.8140 C   0  0  0  0  0  0  0  0  0  0  0  0
   57.6940   25.8450   43.8730 O   0  0  0  0  0  0  0  0  0  0  0  0
   57.4330   26.2820   46.2040 C   0  0  0  0  0  0  0  0  0  0  0  0
   56.5250   25.1370   46.1680 N   0  0  0  0  0  0  0  0  0  0  0  0
   56.8380   23.8470   46.4190 C   0  0  0  0  0  0  0  0  0  0  0  0
   58.1210   23.3940   46.7030 O   0  0  0  0  0  0  0  0  0  0  0  0
   55.7050   23.0580   46.3670 C   0  0  0  0  0  0  0  0  0  0  0  0
   54.6560   23.8990   46.0880 C   0  0  0  0  0  0  0  0  0  0  0  0
   55.1870   25.1690   45.9800 C   0  0  0  0  0  0  0  0  0  0  0  0
   54.4600   26.3260   45.7290 O   0  0  0  0  0  0  0  0  0  0  0  0
   53.2340   23.4580   45.9730 C   0  0  0  0  0  0  0  0  0  0  0  0
   53.0930   21.9600   46.1670 C   0  0  0  0  0  0  0  0  0  0  0  0
   54.1260   21.1320   46.4420 C   0  0  0  0  0  0  0  0  0  0  0  0
   55.5630   21.5890   46.5990 C   0  0  0  0  0  0  0  0  0  0  0  0
   59.3920   32.0610   46.3370 C   0  0  0  0  0  0  0  0  0  0  0  0
   60.6710   32.2000   46.8840 C   0  0  0  0  0  0  0  0  0  0  0  0
   64.5070   32.0980   47.1870 H   0  0  0  0  0  0  0  0  0  0  0  0
   61.0966   35.5646   46.4440 H   0  0  0  0  0  0  0  0  0  0  0  0
   58.8169   35.3188   45.4641 H   0  0  0  0  0  0  0  0  0  0  0  0
   56.6139   32.8222   46.0148 H   0  0  0  0  0  0  0  0  0  0  0  0
   57.0946   33.9661   44.6961 H   0  0  0  0  0  0  0  0  0  0  0  0
   57.1123   32.2991   43.2015 H   0  0  0  0  0  0  0  0  0  0  0  0
   58.2871   31.3753   44.2194 H   0  0  0  0  0  0  0  0  0  0  0  0
   58.5868   29.8999   45.2680 H   0  0  0  0  0  0  0  0  0  0  0  0
   57.8263   28.7706   46.4374 H   0  0  0  0  0  0  0  0  0  0  0  0
   58.3409   26.0099   46.7622 H   0  0  0  0  0  0  0  0  0  0  0  0
   56.9309   27.1265   46.6987 H   0  0  0  0  0  0  0  0  0  0  0  0
   52.6377   23.9743   46.7397 H   0  0  0  0  0  0  0  0  0  0  0  0
   52.8785   23.7076   44.9624 H   0  0  0  0  0  0  0  0  0  0  0  0
   52.0886   21.5204   46.0785 H   0  0  0  0  0  0  0  0  0  0  0  0
   53.9102   20.0597   46.5591 H   0  0  0  0  0  0  0  0  0  0  0  0
   55.9019   21.3549   47.6190 H   0  0  0  0  0  0  0  0  0  0  0  0
   56.1734   21.0633   45.8499 H   0  0  0  0  0  0  0  0  0  0  0  0
   58.9170   31.0695   46.2996 H   0  0  0  0  0  0  0  0  0  0  0  0
   61.1976   31.3177   47.2768 H   0  0  0  0  0  0  0  0  0  0  0  0
  1  2  1  0
  2  3  2  0
  2  4  2  0
  2  5  1  0
  5  6  2  0
  6  7  1  0
  7  8  2  0
  8  9  1  0
  9 10  1  0
 10 11  1  0
 11 12  1  0
 12 13  2  0
 12 14  1  0
 14 15  1  0
 15 16  1  0
 16 17  2  0
 16 18  1  0
 18 19  1  0
 19 20  1  0
 20 21  1  0
 20 22  2  0
 22 23  1  0
 23 24  2  0
 24 25  1  0
 23 26  1  0
 26 27  1  0
 27 28  2  0
 28 29  1  0
  8 30  1  0
 30 31  2  0
 31  5  1  0
 24 19  1  0
 29 22  1  0
  1 32  1  0
  6 33  1  0
  7 34  1  0
  9 35  1  0
  9 36  1  0
 10 37  1  0
 10 38  1  0
 14 39  1  0
 14 40  1  0
 18 41  1  0
 18 42  1  0
 26 43  1  0
 26 44  1  0
 27 45  1  0
 28 46  1  0
 29 47  1  0
 29 48  1  0
 30 49  1  0
 31 50  1  0
M  CHG  4   1  -1  11  -1  21  -1  25  -1
M  END
>  <UniqueID>  (79) 
74

>  <SMILES>  (79) 
[NH-]S(=O)(=O)c1ccc(CC[N-]C(=O)COC(=O)Cn2c([O-])c3c(c2[O-])CC=CC3)cc1

>  <Energy>  (79) 
75.26556623401612

>  <Genealogy>  (79) 
[NH-]S(=O)(=O)c1ccc(CC[N-]C(=O)COC(=O)Cn2c([O-])c3c(c2[O-])CC=CC3)cc1 (protonated)
[NH-]S(=O)(=O)c1ccc(CC[N-]C(=O)COC(=O)Cn2c([O-])c3c(c2[O-])CC=CC3)cc1 (3D coordinates assigned)
[NH-]S(=O)(=O)c1ccc(CC[N-]C(=O)COC(=O)Cn2c([O-])c3c(c2[O-])CC=CC3)cc1 (nonaromatic ring conformer: 75.26556623401612 kcal/mol)

>  <smiles>  (79) 
NS(=O)(=O)c1ccc(CCNC(=O)COC(=O)Cn2c(O)c3c(c2O)CC=CC3)cc1

>  <score_type>  (79) 
oracle

>  <origin>  (79) 
adg

>  <m_score__min__energy>  (79) 
-16.100000000000001

>  <m_primary>  (79) 
energy

$$$$
79:0
     RDKit          3D

 30 31  0  0  0  0  0  0  0  0999 V2000
   59.1840   34.5420   46.4410 C   0  0  0  0  0  0  0  0  0  0  0  0
   58.5630   33.3060   45.8610 C   0  0  0  0  0  0  0  0  0  0  0  0
   58.6560   32.0820   46.5420 C   0  0  0  0  0  0  0  0  0  0  0  0
   58.1110   30.9220   45.9840 C   0  0  0  0  0  0  0  0  0  0  0  0
   57.4800   30.9700   44.7330 C   0  0  0  0  0  0  0  0  0  0  0  0
   56.8030   29.5090   44.0210 S   0  0  0  0  0  0  0  0  0  0  0  0
   57.9130   28.7170   43.3900 O   0  0  0  0  0  0  0  0  0  0  0  0
   55.7860   29.8530   42.9690 O   0  0  0  0  0  0  0  0  0  0  0  0
   56.0460   28.5450   45.2480 N   0  0  0  0  0  0  0  0  0  0  0  0
   56.6670   27.4600   45.9520 C   0  0  0  0  0  0  0  0  0  0  0  0
   58.0310   27.4800   46.2970 C   0  0  0  0  0  0  0  0  0  0  0  0
   58.6030   26.4020   46.9750 C   0  0  0  0  0  0  0  0  0  0  0  0
   57.8220   25.2960   47.3200 C   0  0  0  0  0  0  0  0  0  0  0  0
   56.4610   25.2660   46.9860 C   0  0  0  0  0  0  0  0  0  0  0  0
   55.6760   24.1670   47.3270 O   0  0  0  0  0  0  0  0  0  0  0  0
   55.8870   26.3470   46.3030 C   0  0  0  0  0  0  0  0  0  0  0  0
   54.5370   26.3120   45.9720 O   0  0  0  0  0  0  0  0  0  0  0  0
   57.3970   32.1890   44.0470 C   0  0  0  0  0  0  0  0  0  0  0  0
   57.9430   33.3500   44.6040 C   0  0  0  0  0  0  0  0  0  0  0  0
   59.1558   34.4858   47.5392 H   0  0  0  0  0  0  0  0  0  0  0  0
   60.2284   34.6201   46.1046 H   0  0  0  0  0  0  0  0  0  0  0  0
   58.6233   35.4265   46.1046 H   0  0  0  0  0  0  0  0  0  0  0  0
   59.1598   32.0355   47.5187 H   0  0  0  0  0  0  0  0  0  0  0  0
   58.1774   29.9684   46.5282 H   0  0  0  0  0  0  0  0  0  0  0  0
   58.6499   28.3496   46.0311 H   0  0  0  0  0  0  0  0  0  0  0  0
   59.6708   26.4234   47.2382 H   0  0  0  0  0  0  0  0  0  0  0  0
   58.2756   24.4481   47.8542 H   0  0  0  0  0  0  0  0  0  0  0  0
   54.6630   24.2190   47.3320 H   0  0  0  0  0  0  0  0  0  0  0  0
   56.9004   32.2330   43.0665 H   0  0  0  0  0  0  0  0  0  0  0  0
   57.8859   34.3010   44.0541 H   0  0  0  0  0  0  0  0  0  0  0  0
  1  2  1  0
  2  3  2  0
  3  4  1  0
  4  5  2  0
  5  6  1  0
  6  7  2  0
  6  8  2  0
  6  9  1  0
  9 10  1  0
 10 11  2  0
 11 12  1  0
 12 13  2  0
 13 14  1  0
 14 15  1  0
 14 16  2  0
 16 17  1  0
  5 18  1  0
 18 19  2  0
 19  2  1  0
 16 10  1  0
  1 20  1  0
  1 21  1  0
  1 22  1  0
  3 23  1  0
  4 24  1  0
 11 25  1  0
 12 26  1  0
 13 27  1  0
 15 28  1  0
 18 29  1  0
 19 30  1  0
M  CHG  2   9  -1  17  -1
M  END
>  <UniqueID>  (80) 
75

>  <SMILES>  (80) 
Cc1ccc(S(=O)(=O)[N-]c2cccc(O)c2[O-])cc1

>  <Energy>  (80) 
33.0227396637693

>  <Genealogy>  (80) 
Cc1ccc(S(=O)(=O)[N-]c2cccc(O)c2[O-])cc1 (protonated)
Cc1ccc(S(=O)(=O)[N-]c2cccc(O)c2[O-])cc1 (3D coordinates assigned)
Cc1ccc(S(=O)(=O)[N-]c2cccc(O)c2[O-])cc1 (optimized conformer: 33.0227396637693 kcal/mol)

>  <smiles>  (80) 
Cc1ccc(S(=O)(=O)Nc2cccc(O)c2O)cc1

>  <score_type>  (80) 
oracle

>  <origin>  (80) 
adg

>  <m_score__min__energy>  (80) 
-13.08

>  <m_primary>  (80) 
energy

$$$$
80:0
     RDKit          3D

 49 53  0  0  0  0  0  0  0  0999 V2000
   64.5160   33.6560   48.3210 O   0  0  0  0  0  0  0  0  0  0  0  0
   64.3130   32.6850   49.0990 C   0  0  0  0  0  0  0  0  0  0  0  0
   65.3850   32.2810   50.0390 C   0  0  0  0  0  0  0  0  0  0  0  0
   66.5960   32.9960   50.1220 C   0  0  0  0  0  0  0  0  0  0  0  0
   67.5990   32.5910   51.0060 C   0  0  0  0  0  0  0  0  0  0  0  0
   67.4120   31.4630   51.8080 C   0  0  0  0  0  0  0  0  0  0  0  0
   66.2240   30.7340   51.7230 C   0  0  0  0  0  0  0  0  0  0  0  0
   65.2160   31.1370   50.8400 C   0  0  0  0  0  0  0  0  0  0  0  0
   63.0220   31.9720   49.0220 C   0  0  0  0  0  0  0  0  0  0  0  0
   62.3970   31.5700   47.8500 C   0  0  0  0  0  0  0  0  0  0  0  0
   61.2740   30.9250   48.2060 N   0  0  0  0  0  0  0  0  0  0  0  0
   61.2460   30.9420   49.5470 C   0  0  0  0  0  0  0  0  0  0  0  0
   62.3040   31.5700   50.0990 N   0  0  0  0  0  0  0  0  0  0  0  0
   60.1910   30.3370   50.2290 C   0  0  0  0  0  0  0  0  0  0  0  0
   60.1420   30.3440   51.4870 O   0  0  0  0  0  0  0  0  0  0  0  0
   59.2270   29.7460   49.5200 O   0  0  0  0  0  0  0  0  0  0  0  0
   59.2380   29.7130   48.1830 C   0  0  0  0  0  0  0  0  0  0  0  0
   58.2180   29.0620   47.4860 C   0  0  0  0  0  0  0  0  0  0  0  0
   58.2560   28.9880   46.0870 C   0  0  0  0  0  0  0  0  0  0  0  0
   57.0390   28.0380   45.2400 S   0  0  0  0  0  0  0  0  0  0  0  0
   57.6030   27.6000   43.9180 O   0  0  0  0  0  0  0  0  0  0  0  0
   56.6780   26.8140   46.0360 O   0  0  0  0  0  0  0  0  0  0  0  0
   55.6120   28.9960   44.9610 N   0  0  0  0  0  0  0  0  0  0  0  0
   55.6590   29.6620   43.6560 C   0  0  0  0  0  0  0  0  0  0  0  0
   56.6180   30.8230   43.6730 C   0  0  0  0  0  0  0  0  0  0  0  0
   56.8470   31.5340   44.8630 C   0  0  0  0  0  0  0  0  0  0  0  0
   57.7040   32.6390   44.8690 C   0  0  0  0  0  0  0  0  0  0  0  0
   58.3460   33.0360   43.6940 C   0  0  0  0  0  0  0  0  0  0  0  0
   58.1410   32.3210   42.5110 C   0  0  0  0  0  0  0  0  0  0  0  0
   57.2850   31.2150   42.4990 C   0  0  0  0  0  0  0  0  0  0  0  0
   59.2970   29.6130   45.3820 C   0  0  0  0  0  0  0  0  0  0  0  0
   60.3160   30.2820   46.0670 C   0  0  0  0  0  0  0  0  0  0  0  0
   60.2990   30.3250   47.4700 C   0  0  0  0  0  0  0  0  0  0  0  0
   66.7529   33.8797   49.4860 H   0  0  0  0  0  0  0  0  0  0  0  0
   68.5374   33.1613   51.0705 H   0  0  0  0  0  0  0  0  0  0  0  0
   68.2010   31.1486   52.5070 H   0  0  0  0  0  0  0  0  0  0  0  0
   66.0804   29.8422   52.3507 H   0  0  0  0  0  0  0  0  0  0  0  0
   64.2850   30.5552   50.7718 H   0  0  0  0  0  0  0  0  0  0  0  0
   62.7536   31.7461   46.8244 H   0  0  0  0  0  0  0  0  0  0  0  0
   57.3821   28.6059   48.0367 H   0  0  0  0  0  0  0  0  0  0  0  0
   55.9852   28.9379   42.8949 H   0  0  0  0  0  0  0  0  0  0  0  0
   54.6539   30.0430   43.4222 H   0  0  0  0  0  0  0  0  0  0  0  0
   56.3505   31.2204   45.7931 H   0  0  0  0  0  0  0  0  0  0  0  0
   57.8729   33.1970   45.8018 H   0  0  0  0  0  0  0  0  0  0  0  0
   59.0126   33.9110   43.6997 H   0  0  0  0  0  0  0  0  0  0  0  0
   58.6537   32.6285   41.5877 H   0  0  0  0  0  0  0  0  0  0  0  0
   57.1330   30.6498   41.5677 H   0  0  0  0  0  0  0  0  0  0  0  0
   59.3110   29.5761   44.2827 H   0  0  0  0  0  0  0  0  0  0  0  0
   61.1273   30.7724   45.5090 H   0  0  0  0  0  0  0  0  0  0  0  0
  1  2  2  0
  2  3  1  0
  3  4  2  0
  4  5  1  0
  5  6  2  0
  6  7  1  0
  7  8  2  0
  2  9  1  0
  9 10  2  0
 10 11  1  0
 11 12  1  0
 12 13  2  0
 12 14  1  0
 14 15  2  0
 14 16  1  0
 16 17  1  0
 17 18  2  0
 18 19  1  0
 19 20  1  0
 20 21  2  0
 20 22  2  0
 20 23  1  0
 23 24  1  0
 24 25  1  0
 25 26  2  0
 26 27  1  0
 27 28  2  0
 28 29  1  0
 29 30  2  0
 19 31  2  0
 31 32  1  0
 32 33  2  0
  8  3  1  0
 13  9  1  0
 33 17  1  0
 33 11  1  0
 30 25  1  0
  4 34  1  0
  5 35  1  0
  6 36  1  0
  7 37  1  0
  8 38  1  0
 10 39  1  0
 18 40  1  0
 24 41  1  0
 24 42  1  0
 26 43  1  0
 27 44  1  0
 28 45  1  0
 29 46  1  0
 30 47  1  0
 31 48  1  0
 32 49  1  0
M  CHG  1  23  -1
M  END
>  <UniqueID>  (81) 
76

>  <SMILES>  (81) 
O=C(c1ccccc1)c1cn2c(n1)c(=O)oc1cc(S(=O)(=O)[N-]Cc3ccccc3)ccc12

>  <Energy>  (81) 
95.83467882723224

>  <Genealogy>  (81) 
O=C(c1ccccc1)c1cn2c(n1)c(=O)oc1cc(S(=O)(=O)[N-]Cc3ccccc3)ccc12 (protonated)
O=C(c1ccccc1)c1cn2c(n1)c(=O)oc1cc(S(=O)(=O)[N-]Cc3ccccc3)ccc12 (3D coordinates assigned)
O=C(c1ccccc1)c1cn2c(n1)c(=O)oc1cc(S(=O)(=O)[N-]Cc3ccccc3)ccc12 (optimized conformer: 95.83467882723224 kcal/mol)

>  <smiles>  (81) 
O=C(c1ccccc1)c1cn2c(n1)c(=O)oc1cc(S(=O)(=O)NCc3ccccc3)ccc12

>  <score_type>  (81) 
oracle

>  <origin>  (81) 
adg

>  <m_score__min__energy>  (81) 
-11.029999999999999

>  <m_primary>  (81) 
energy

$$$$
81:0
     RDKit          3D

 38 40  0  0  0  0  0  0  0  0999 V2000
   59.7410   34.2410   48.9990 C   0  0  0  0  0  0  0  0  0  0  0  0
   59.5870   33.1870   50.0550 C   0  0  0  0  0  0  0  0  0  0  0  0
   59.6840   31.8330   49.7090 C   0  0  0  0  0  0  0  0  0  0  0  0
   59.5210   30.8410   50.6810 C   0  0  0  0  0  0  0  0  0  0  0  0
   59.2490   31.1850   52.0190 C   0  0  0  0  0  0  0  0  0  0  0  0
   59.0680   30.1120   53.0340 C   0  0  0  0  0  0  0  0  0  0  0  0
   59.6530   30.2070   54.1480 O   0  0  0  0  0  0  0  0  0  0  0  0
   58.2500   28.8760   52.7660 C   0  0  0  0  0  0  0  0  0  0  0  0
   56.8510   29.1050   53.1260 N   0  0  0  0  0  0  0  0  0  0  0  0
   56.2200   28.5380   54.1410 N   0  0  0  0  0  0  0  0  0  0  0  0
   54.9660   29.0340   54.1650 C   0  0  0  0  0  0  0  0  0  0  0  0
   54.7770   29.9190   53.1590 N   0  0  0  0  0  0  0  0  0  0  0  0
   53.5830   30.6690   52.8610 C   0  0  0  0  0  0  0  0  0  0  0  0
   53.3740   31.2130   51.5800 C   0  0  0  0  0  0  0  0  0  0  0  0
   52.2100   31.9340   51.2990 C   0  0  0  0  0  0  0  0  0  0  0  0
   51.2400   32.1170   52.2900 C   0  0  0  0  0  0  0  0  0  0  0  0
   50.0850   32.8370   52.0090 O   0  0  0  0  0  0  0  0  0  0  0  0
   51.4350   31.5760   53.5640 C   0  0  0  0  0  0  0  0  0  0  0  0
   52.5980   30.8540   53.8490 C   0  0  0  0  0  0  0  0  0  0  0  0
   55.9750   29.9400   52.5350 C   0  0  0  0  0  0  0  0  0  0  0  0
   56.2570   30.6730   51.5490 O   0  0  0  0  0  0  0  0  0  0  0  0
   59.1540   32.5480   52.3590 C   0  0  0  0  0  0  0  0  0  0  0  0
   59.3160   33.5380   51.3850 C   0  0  0  0  0  0  0  0  0  0  0  0
   59.8842   35.2211   49.4774 H   0  0  0  0  0  0  0  0  0  0  0  0
   60.6146   34.0076   48.3726 H   0  0  0  0  0  0  0  0  0  0  0  0
   58.8372   34.2673   48.3726 H   0  0  0  0  0  0  0  0  0  0  0  0
   59.8896   31.5485   48.6665 H   0  0  0  0  0  0  0  0  0  0  0  0
   59.6061   29.7816   50.3976 H   0  0  0  0  0  0  0  0  0  0  0  0
   58.3130   28.6239   51.6971 H   0  0  0  0  0  0  0  0  0  0  0  0
   58.6445   28.0475   53.3726 H   0  0  0  0  0  0  0  0  0  0  0  0
   56.6280   27.8370   54.7980 H   0  0  0  0  0  0  0  0  0  0  0  0
   54.1995   28.7563   54.9035 H   0  0  0  0  0  0  0  0  0  0  0  0
   54.1313   31.0699   50.7951 H   0  0  0  0  0  0  0  0  0  0  0  0
   52.0564   32.3586   50.2959 H   0  0  0  0  0  0  0  0  0  0  0  0
   50.6722   31.7185   54.3437 H   0  0  0  0  0  0  0  0  0  0  0  0
   52.7441   30.4276   54.8524 H   0  0  0  0  0  0  0  0  0  0  0  0
   58.9504   32.8367   53.4007 H   0  0  0  0  0  0  0  0  0  0  0  0
   59.2303   34.5986   51.6639 H   0  0  0  0  0  0  0  0  0  0  0  0
  1  2  1  0
  2  3  2  0
  3  4  1  0
  4  5  2  0
  5  6  1  0
  6  7  2  0
  6  8  1  0
  8  9  1  0
  9 10  1  0
 10 11  2  0
 11 12  1  0
 12 13  1  0
 13 14  2  0
 14 15  1  0
 15 16  2  0
 16 17  1  0
 16 18  1  0
 18 19  2  0
 12 20  1  0
 20 21  2  0
  5 22  1  0
 22 23  2  0
 23  2  1  0
 20  9  1  0
 19 13  1  0
  1 24  1  0
  1 25  1  0
  1 26  1  0
  3 27  1  0
  4 28  1  0
  8 29  1  0
  8 30  1  0
 10 31  1  0
 11 32  1  0
 14 33  1  0
 15 34  1  0
 18 35  1  0
 19 36  1  0
 22 37  1  0
 23 38  1  0
M  CHG  2  10   1  17  -1
M  END
>  <UniqueID>  (82) 
77

>  <SMILES>  (82) 
Cc1ccc(C(=O)Cn2[nH+]cn(-c3ccc([O-])cc3)c2=O)cc1

>  <Energy>  (82) 
83.1027621896482

>  <Genealogy>  (82) 
Cc1ccc(C(=O)Cn2[nH+]cn(-c3ccc([O-])cc3)c2=O)cc1 (protonated)
Cc1ccc(C(=O)Cn2[nH+]cn(-c3ccc([O-])cc3)c2=O)cc1 (3D coordinates assigned)
Cc1ccc(C(=O)Cn2[nH+]cn(-c3ccc([O-])cc3)c2=O)cc1 (optimized conformer: 83.1027621896482 kcal/mol)

>  <smiles>  (82) 
Cc1ccc(C(=O)Cn2ncn(-c3ccc(O)cc3)c2=O)cc1

>  <score_type>  (82) 
oracle

>  <origin>  (82) 
adg

>  <m_score__min__energy>  (82) 
-8.8399999999999999

>  <m_primary>  (82) 
energy

$$$$
82:0
     RDKit          3D

 34 35  0  0  0  0  0  0  0  0999 V2000
   58.4910   30.9930   51.1690 C   0  0  0  0  0  0  0  0  0  0  0  0
   59.5260   31.0050   50.1880 O   0  0  0  0  0  0  0  0  0  0  0  0
   59.4060   31.5450   48.9120 N   0  0  0  0  0  0  0  0  0  0  0  0
   58.9000   30.7580   47.8960 C   0  0  0  0  0  0  0  0  0  0  0  0
   58.6570   29.4810   48.0410 N   0  0  0  0  0  0  0  0  0  0  0  0
   58.4530   28.4730   47.0420 C   0  0  0  0  0  0  0  0  0  0  0  0
   57.4400   27.7240   47.0890 O   0  0  0  0  0  0  0  0  0  0  0  0
   59.4950   28.2450   45.9960 C   0  0  0  0  0  0  0  0  0  0  0  0
   59.1600   29.2870   44.5330 S   0  0  0  0  0  0  0  0  0  0  0  0
   57.5150   28.5910   44.1410 C   0  0  0  0  0  0  0  0  0  0  0  0
   56.4350   29.4860   44.6540 C   0  0  0  0  0  0  0  0  0  0  0  0
   56.6710   30.7030   44.8750 O   0  0  0  0  0  0  0  0  0  0  0  0
   55.1600   28.9800   44.8760 O   0  0  0  0  0  0  0  0  0  0  0  0
   58.5890   31.3230   46.6950 N   0  0  0  0  0  0  0  0  0  0  0  0
   58.8440   32.6300   46.4290 C   0  0  0  0  0  0  0  0  0  0  0  0
   58.5320   33.1760   45.1730 C   0  0  0  0  0  0  0  0  0  0  0  0
   58.8180   34.5150   44.8970 C   0  0  0  0  0  0  0  0  0  0  0  0
   59.4170   35.3170   45.8700 C   0  0  0  0  0  0  0  0  0  0  0  0
   59.7310   34.7830   47.1230 C   0  0  0  0  0  0  0  0  0  0  0  0
   59.4430   33.4340   47.4120 C   0  0  0  0  0  0  0  0  0  0  0  0
   59.7260   32.8600   48.6610 C   0  0  0  0  0  0  0  0  0  0  0  0
   60.2930   33.5600   49.5440 O   0  0  0  0  0  0  0  0  0  0  0  0
   58.9383   30.9982   52.1740 H   0  0  0  0  0  0  0  0  0  0  0  0
   57.8578   31.8839   51.0449 H   0  0  0  0  0  0  0  0  0  0  0  0
   57.8786   30.0877   51.0449 H   0  0  0  0  0  0  0  0  0  0  0  0
   60.4832   28.5011   46.4058 H   0  0  0  0  0  0  0  0  0  0  0  0
   59.4756   27.1872   45.6950 H   0  0  0  0  0  0  0  0  0  0  0  0
   57.4146   28.4904   43.0502 H   0  0  0  0  0  0  0  0  0  0  0  0
   57.4206   27.6062   44.6219 H   0  0  0  0  0  0  0  0  0  0  0  0
   58.1640   30.7230   45.9500 H   0  0  0  0  0  0  0  0  0  0  0  0
   58.0606   32.5466   44.4038 H   0  0  0  0  0  0  0  0  0  0  0  0
   58.5710   34.9379   43.9121 H   0  0  0  0  0  0  0  0  0  0  0  0
   59.6423   36.3710   45.6503 H   0  0  0  0  0  0  0  0  0  0  0  0
   60.2046   35.4179   47.8863 H   0  0  0  0  0  0  0  0  0  0  0  0
  1  2  1  0
  2  3  1  0
  3  4  1  0
  4  5  2  3
  5  6  1  0
  6  7  2  0
  6  8  1  0
  8  9  1  0
  9 10  1  0
 10 11  1  0
 11 12  2  0
 11 13  1  0
  4 14  1  0
 14 15  1  0
 15 16  2  0
 16 17  1  0
 17 18  2  0
 18 19  1  0
 19 20  2  0
 20 21  1  0
 21 22  2  0
 21  3  1  0
 20 15  1  0
  1 23  1  0
  1 24  1  0
  1 25  1  0
  8 26  1  0
  8 27  1  0
 10 28  1  0
 10 29  1  0
 14 30  1  0
 16 31  1  0
 17 32  1  0
 18 33  1  0
 19 34  1  0
M  CHG  1  13  -1
M  END
>  <UniqueID>  (83) 
78

>  <SMILES>  (83) 
COn1c(=NC(=O)CSCC(=O)[O-])[nH]c2ccccc2c1=O

>  <Energy>  (83) 
50.79918792652604

>  <Genealogy>  (83) 
COn1c(=NC(=O)CSCC(=O)[O-])[nH]c2ccccc2c1=O (protonated)
COn1c(=NC(=O)CSCC(=O)[O-])[nH]c2ccccc2c1=O (3D coordinates assigned)
COn1c(=NC(=O)CSCC(=O)[O-])[nH]c2ccccc2c1=O (optimized conformer: 50.79918792652604 kcal/mol)

>  <smiles>  (83) 
COn1c(=NC(=O)CSCC(=O)O)[nH]c2ccccc2c1=O

>  <score_type>  (83) 
oracle

>  <origin>  (83) 
adg

>  <m_score__min__energy>  (83) 
-9.8399999999999999

>  <m_primary>  (83) 
energy

$$$$
83:0
     RDKit          3D

 35 37  0  0  0  0  0  0  0  0999 V2000
   55.5090   26.1600   46.0110 O   0  0  0  0  0  0  0  0  0  0  0  0
   56.9530   26.0500   45.6130 S   0  0  0  0  0  0  0  0  0  0  0  0
   57.8130   26.2100   46.8370 O   0  0  0  0  0  0  0  0  0  0  0  0
   57.3340   27.3040   44.4770 N   0  0  0  0  0  0  0  0  0  0  0  0
   57.6470   28.6580   44.8470 C   0  0  0  0  0  0  0  0  0  0  0  0
   58.8500   29.0110   45.4790 C   0  0  0  0  0  0  0  0  0  0  0  0
   59.0940   30.3070   45.8020 N   0  0  0  0  0  0  0  0  0  0  0  0
   58.1930   31.2890   45.5290 C   0  0  0  0  0  0  0  0  0  0  0  0
   58.4770   32.6600   45.8810 N   0  0  0  0  0  0  0  0  0  0  0  0
   58.4780   33.0650   47.2940 C   0  0  0  0  0  0  0  0  0  0  0  0
   59.3130   34.3340   47.4890 C   0  0  0  0  0  0  0  0  0  0  0  0
   58.9230   35.3390   46.5750 O   0  0  0  0  0  0  0  0  0  0  0  0
   59.2340   34.9240   45.2600 C   0  0  0  0  0  0  0  0  0  0  0  0
   58.3900   33.7100   44.8580 C   0  0  0  0  0  0  0  0  0  0  0  0
   57.0190   30.9640   44.9210 N   0  0  0  0  0  0  0  0  0  0  0  0
   56.7310   29.6810   44.5810 C   0  0  0  0  0  0  0  0  0  0  0  0
   57.2220   24.4790   44.8800 C   0  0  0  0  0  0  0  0  0  0  0  0
   56.5170   23.9490   43.8120 C   0  0  0  0  0  0  0  0  0  0  0  0
   56.9490   22.6660   43.4580 C   0  0  0  0  0  0  0  0  0  0  0  0
   57.9900   22.1910   44.2460 C   0  0  0  0  0  0  0  0  0  0  0  0
   58.3750   23.3670   45.3860 S   0  0  0  0  0  0  0  0  0  0  0  0
   57.3850   27.0310   43.4690 H   0  0  0  0  0  0  0  0  0  0  0  0
   59.5956   28.2368   45.7127 H   0  0  0  0  0  0  0  0  0  0  0  0
   57.4441   33.2593   47.6154 H   0  0  0  0  0  0  0  0  0  0  0  0
   58.9168   32.2552   47.8953 H   0  0  0  0  0  0  0  0  0  0  0  0
   59.1705   34.7049   48.5147 H   0  0  0  0  0  0  0  0  0  0  0  0
   60.3709   34.0895   47.3127 H   0  0  0  0  0  0  0  0  0  0  0  0
   59.0310   35.7508   44.5635 H   0  0  0  0  0  0  0  0  0  0  0  0
   60.2967   34.6427   45.2214 H   0  0  0  0  0  0  0  0  0  0  0  0
   57.3405   34.0201   44.7462 H   0  0  0  0  0  0  0  0  0  0  0  0
   58.7718   33.3114   43.9065 H   0  0  0  0  0  0  0  0  0  0  0  0
   55.7731   29.4454   44.0943 H   0  0  0  0  0  0  0  0  0  0  0  0
   55.7035   24.4805   43.2966 H   0  0  0  0  0  0  0  0  0  0  0  0
   56.5061   22.0880   42.6335 H   0  0  0  0  0  0  0  0  0  0  0  0
   58.4798   21.2115   44.1421 H   0  0  0  0  0  0  0  0  0  0  0  0
  1  2  2  0
  2  3  2  0
  2  4  1  0
  4  5  1  0
  5  6  2  0
  6  7  1  0
  7  8  2  0
  8  9  1  0
  9 10  1  0
 10 11  1  0
 11 12  1  0
 12 13  1  0
 13 14  1  0
  8 15  1  0
 15 16  2  0
  2 17  1  0
 17 18  2  0
 18 19  1  0
 19 20  2  0
 20 21  1  0
 16  5  1  0
 21 17  1  0
 14  9  1  0
  4 22  1  0
  6 23  1  0
 10 24  1  0
 10 25  1  0
 11 26  1  0
 11 27  1  0
 13 28  1  0
 13 29  1  0
 14 30  1  0
 14 31  1  0
 16 32  1  0
 18 33  1  0
 19 34  1  0
 20 35  1  0
M  END
>  <UniqueID>  (84) 
79

>  <SMILES>  (84) 
O=S(=O)(Nc1cnc(N2CCOCC2)nc1)c1cccs1

>  <Energy>  (84) 
67.83787666284226

>  <Genealogy>  (84) 
O=S(=O)(Nc1cnc(N2CCOCC2)nc1)c1cccs1 (3D coordinates assigned)
O=S(=O)(Nc1cnc(N2CCOCC2)nc1)c1cccs1 (nonaromatic ring conformer: 67.83787666284226 kcal/mol)

>  <smiles>  (84) 
O=S(=O)(Nc1cnc(N2CCOCC2)nc1)c1cccs1

>  <score_type>  (84) 
oracle

>  <origin>  (84) 
adg

>  <m_score__min__energy>  (84) 
-7.6399999999999997

>  <m_primary>  (84) 
energy

$$$$
84:0
     RDKit          3D

 39 41  0  0  0  0  0  0  0  0999 V2000
   55.8217   28.8202   43.5370 H   0  0  0  0  0  0  0  0  0  0  0  0
   56.2390   29.7880   43.8520 C   0  0  0  0  0  0  0  0  0  0  0  0
   56.6960   30.8480   44.1970 C   0  0  0  0  0  0  0  0  0  0  0  0
   57.2500   32.1370   44.6130 C   0  0  0  0  0  0  0  0  0  0  0  0
   58.0692   32.4214   43.9362 H   0  0  0  0  0  0  0  0  0  0  0  0
   56.4651   32.9068   44.5756 H   0  0  0  0  0  0  0  0  0  0  0  0
   57.7470   32.0240   45.9410 O   0  0  0  0  0  0  0  0  0  0  0  0
   59.0600   32.3350   46.3290 C   0  0  0  0  0  0  0  0  0  0  0  0
   59.5640   33.6500   46.2810 C   0  0  0  0  0  0  0  0  0  0  0  0
   58.9177   34.4721   45.9397 H   0  0  0  0  0  0  0  0  0  0  0  0
   60.8810   33.9140   46.6650 C   0  0  0  0  0  0  0  0  0  0  0  0
   61.2681   34.9429   46.6261 H   0  0  0  0  0  0  0  0  0  0  0  0
   61.7070   32.8750   47.0980 C   0  0  0  0  0  0  0  0  0  0  0  0
   62.7447   33.0857   47.3960 H   0  0  0  0  0  0  0  0  0  0  0  0
   61.2170   31.5690   47.1530 C   0  0  0  0  0  0  0  0  0  0  0  0
   61.8699   30.7527   47.4955 H   0  0  0  0  0  0  0  0  0  0  0  0
   59.8950   31.2940   46.7730 C   0  0  0  0  0  0  0  0  0  0  0  0
   59.3990   29.9450   46.8470 N   0  0  0  0  0  0  0  0  0  0  0  0
   58.9210   29.3390   47.9560 C   0  0  0  0  0  0  0  0  0  0  0  0
   58.7850   29.9880   49.3000 C   0  0  0  0  0  0  0  0  0  0  0  0
   58.9425   29.2365   50.0877 H   0  0  0  0  0  0  0  0  0  0  0  0
   59.5354   30.7861   49.3994 H   0  0  0  0  0  0  0  0  0  0  0  0
   57.7773   30.4177   49.3994 H   0  0  0  0  0  0  0  0  0  0  0  0
   58.5130   28.0530   47.6630 C   0  0  0  0  0  0  0  0  0  0  0  0
   58.0686   27.3292   48.3621 H   0  0  0  0  0  0  0  0  0  0  0  0
   58.7730   27.8510   46.3130 C   0  0  0  0  0  0  0  0  0  0  0  0
   58.4940   26.7400   45.6040 C   0  0  0  0  0  0  0  0  0  0  0  0
   59.1542   26.4835   44.7623 H   0  0  0  0  0  0  0  0  0  0  0  0
   57.3560   25.8480   45.8900 C   0  0  0  0  0  0  0  0  0  0  0  0
   57.5110   24.2580   46.4160 S   0  0  0  0  0  0  0  0  0  0  0  0
   55.8510   24.0580   46.5960 C   0  0  0  0  0  0  0  0  0  0  0  0
   55.1390   22.6790   47.1030 S   0  0  0  0  0  0  0  0  0  0  0  0
   55.1650   25.1820   46.2980 N   0  0  0  0  0  0  0  0  0  0  0  0
   56.0010   26.1830   45.9180 C   0  0  0  0  0  0  0  0  0  0  0  0
   55.5220   27.4550   45.6250 O   0  0  0  0  0  0  0  0  0  0  0  0
   59.3170   29.0480   45.8350 C   0  0  0  0  0  0  0  0  0  0  0  0
   59.6920   29.3050   44.5720 C   0  0  0  0  0  0  0  0  0  0  0  0
   60.1096   30.2888   44.3116 H   0  0  0  0  0  0  0  0  0  0  0  0
   59.5817   28.5318   43.7974 H   0  0  0  0  0  0  0  0  0  0  0  0
  1  2  1  0
  2  3  3  0
  3  4  1  0
  4  5  1  0
  4  6  1  0
  4  7  1  0
  7  8  1  0
  8  9  2  0
  9 10  1  0
  9 11  1  0
 11 12  1  0
 11 13  2  0
 13 14  1  0
 13 15  1  0
 15 16  1  0
 15 17  2  0
 17 18  1  0
 18 19  1  0
 19 20  1  0
 20 21  1  0
 20 22  1  0
 20 23  1  0
 19 24  2  0
 24 25  1  0
 24 26  1  0
 26 27  2  0
 27 28  1  0
 27 29  1  0
 29 30  1  0
 30 31  1  0
 31 32  2  0
 31 33  1  0
 33 34  1  0
 34 35  1  0
 26 36  1  0
 36 37  2  0
 37 38  1  0
 37 39  1  0
 17  8  1  0
 36 18  1  0
 34 29  2  0
M  CHG  2  33  -1  35  -1
M  END
>  <UniqueID>  (85) 
80

>  <SMILES>  (85) 
C#CCOc1ccccc1-n1c(C)c/c(=C\c2sc(=S)[n-]c2[O-])c1=C

>  <Energy>  (85) 
109.87470252122972

>  <Genealogy>  (85) 
C#CCOc1ccccc1-n1c(C)cc(=Cc2sc(=S)[n-]c2[O-])c1=C (protonated)
C#CCOc1ccccc1-n1c(C)c/c(=C\c2sc(=S)[n-]c2[O-])c1=C (cis-trans isomerization)
C#CCOc1ccccc1-n1c(C)c/c(=C\c2sc(=S)[n-]c2[O-])c1=C (3D coordinates assigned)
C#CCOc1ccccc1-n1c(C)c/c(=C\c2sc(=S)[n-]c2[O-])c1=C (optimized conformer: 109.87470252122972 kcal/mol)

>  <smiles>  (85) 
C#CCOc1ccccc1-n1c(C)cc(=Cc2sc(=S)[nH]c2O)c1=C

>  <score_type>  (85) 
oracle

>  <origin>  (85) 
adg

>  <m_score__min__energy>  (85) 
-13.779999999999999

>  <m_primary>  (85) 
energy

$$$$
85:0
     RDKit          3D

 44 46  0  0  0  0  0  0  0  0999 V2000
   52.5260   24.0940   45.1930 C   0  0  0  0  0  0  0  0  0  0  0  0
   53.9710   24.4560   45.2950 C   0  0  0  0  0  0  0  0  0  0  0  0
   54.9940   23.6310   44.8310 C   0  0  0  0  0  0  0  0  0  0  0  0
   56.4620   24.3760   45.1820 S   0  0  0  0  0  0  0  0  0  0  0  0
   55.7290   25.6950   45.9180 C   0  0  0  0  0  0  0  0  0  0  0  0
   56.3910   26.6940   46.4200 N   0  0  0  0  0  0  0  0  0  0  0  0
   57.7050   26.6360   47.0010 C   0  0  0  0  0  0  0  0  0  0  0  0
   57.9960   25.7250   47.8230 O   0  0  0  0  0  0  0  0  0  0  0  0
   58.7290   27.6340   46.5960 C   0  0  0  0  0  0  0  0  0  0  0  0
   59.6150   28.1280   47.5750 C   0  0  0  0  0  0  0  0  0  0  0  0
   60.5930   29.0690   47.2470 C   0  0  0  0  0  0  0  0  0  0  0  0
   60.7060   29.5340   45.9380 C   0  0  0  0  0  0  0  0  0  0  0  0
   59.8450   29.0540   44.9500 C   0  0  0  0  0  0  0  0  0  0  0  0
   58.8620   28.1040   45.2610 C   0  0  0  0  0  0  0  0  0  0  0  0
   57.8440   27.4970   43.9050 S   0  0  0  0  0  0  0  0  0  0  0  0
   57.3090   29.1620   43.3970 C   0  0  0  0  0  0  0  0  0  0  0  0
   56.4410   29.7460   44.4600 C   0  0  0  0  0  0  0  0  0  0  0  0
   55.4270   29.1110   44.8610 O   0  0  0  0  0  0  0  0  0  0  0  0
   56.7940   31.0000   45.0510 N   0  0  0  0  0  0  0  0  0  0  0  0
   57.7950   31.1410   46.1020 C   0  0  0  0  0  0  0  0  0  0  0  0
   58.3960   32.5200   46.0680 C   0  0  0  0  0  0  0  0  0  0  0  0
   58.2690   33.3130   44.9150 C   0  0  0  0  0  0  0  0  0  0  0  0
   58.8070   34.6030   44.8850 C   0  0  0  0  0  0  0  0  0  0  0  0
   59.4720   35.1120   46.0030 C   0  0  0  0  0  0  0  0  0  0  0  0
   59.5960   34.3310   47.1570 C   0  0  0  0  0  0  0  0  0  0  0  0
   59.0610   33.0400   47.1900 C   0  0  0  0  0  0  0  0  0  0  0  0
   54.3810   25.5980   45.9080 N   0  0  0  0  0  0  0  0  0  0  0  0
   52.1024   23.9879   46.2026 H   0  0  0  0  0  0  0  0  0  0  0  0
   51.9873   24.8849   44.6506 H   0  0  0  0  0  0  0  0  0  0  0  0
   52.4238   23.1425   44.6506 H   0  0  0  0  0  0  0  0  0  0  0  0
   54.8648   22.6632   44.3245 H   0  0  0  0  0  0  0  0  0  0  0  0
   59.5348   27.7673   48.6111 H   0  0  0  0  0  0  0  0  0  0  0  0
   61.2759   29.4442   48.0235 H   0  0  0  0  0  0  0  0  0  0  0  0
   61.4739   30.2794   45.6835 H   0  0  0  0  0  0  0  0  0  0  0  0
   59.9385   29.4243   43.9184 H   0  0  0  0  0  0  0  0  0  0  0  0
   58.1911   29.8025   43.2497 H   0  0  0  0  0  0  0  0  0  0  0  0
   56.7448   29.0966   42.4550 H   0  0  0  0  0  0  0  0  0  0  0  0
   57.3199   30.9761   47.0803 H   0  0  0  0  0  0  0  0  0  0  0  0
   58.5910   30.3993   45.9403 H   0  0  0  0  0  0  0  0  0  0  0  0
   57.7444   32.9174   44.0328 H   0  0  0  0  0  0  0  0  0  0  0  0
   58.7064   35.2186   43.9789 H   0  0  0  0  0  0  0  0  0  0  0  0
   59.8977   36.1259   45.9760 H   0  0  0  0  0  0  0  0  0  0  0  0
   60.1151   34.7333   48.0394 H   0  0  0  0  0  0  0  0  0  0  0  0
   59.1614   32.4287   48.0990 H   0  0  0  0  0  0  0  0  0  0  0  0
  1  2  1  0
  2  3  2  0
  3  4  1  0
  4  5  1  0
  5  6  2  3
  6  7  1  0
  7  8  2  0
  7  9  1  0
  9 10  2  0
 10 11  1  0
 11 12  2  0
 12 13  1  0
 13 14  2  0
 14 15  1  0
 15 16  1  0
 16 17  1  0
 17 18  2  0
 17 19  1  0
 19 20  1  0
 20 21  1  0
 21 22  2  0
 22 23  1  0
 23 24  2  0
 24 25  1  0
 25 26  2  0
  5 27  1  0
 27  2  1  0
 14  9  1  0
 26 21  1  0
  1 28  1  0
  1 29  1  0
  1 30  1  0
  3 31  1  0
 10 32  1  0
 11 33  1  0
 12 34  1  0
 13 35  1  0
 16 36  1  0
 16 37  1  0
 20 38  1  0
 20 39  1  0
 22 40  1  0
 23 41  1  0
 24 42  1  0
 25 43  1  0
 26 44  1  0
M  CHG  2  19  -1  27  -1
M  END
>  <UniqueID>  (86) 
81

>  <SMILES>  (86) 
Cc1csc(=NC(=O)c2ccccc2SCC(=O)[N-]Cc2ccccc2)[n-]1

>  <Energy>  (86) 
73.5108431988118

>  <Genealogy>  (86) 
Cc1csc(=NC(=O)c2ccccc2SCC(=O)[N-]Cc2ccccc2)[n-]1 (protonated)
Cc1csc(=NC(=O)c2ccccc2SCC(=O)[N-]Cc2ccccc2)[n-]1 (3D coordinates assigned)
Cc1csc(=NC(=O)c2ccccc2SCC(=O)[N-]Cc2ccccc2)[n-]1 (optimized conformer: 73.5108431988118 kcal/mol)

>  <smiles>  (86) 
Cc1csc(=NC(=O)c2ccccc2SCC(=O)NCc2ccccc2)[nH]1

>  <score_type>  (86) 
oracle

>  <origin>  (86) 
adg

>  <m_score__min__energy>  (86) 
-12.949999999999999

>  <m_primary>  (86) 
energy

$$$$
86:0
     RDKit          3D

 74 77  0  0  0  0  0  0  0  0999 V2000
   63.7760   32.9660   49.2110 C   0  0  0  0  0  0  0  0  0  0  0  0
   62.8840   34.0750   49.1840 O   0  0  0  0  0  0  0  0  0  0  0  0
   61.7620   34.1660   48.3470 C   0  0  0  0  0  0  0  0  0  0  0  0
   60.4950   34.5430   48.8290 C   0  0  0  0  0  0  0  0  0  0  0  0
   59.4050   34.6110   47.9590 C   0  0  0  0  0  0  0  0  0  0  0  0
   59.5540   34.2860   46.6010 C   0  0  0  0  0  0  0  0  0  0  0  0
   58.3630   34.2990   45.6790 C   0  0  0  0  0  0  0  0  0  0  0  0
   58.3710   33.1410   44.7870 N   0  0  0  0  0  0  0  0  0  0  0  0
   57.5600   31.9680   44.9400 C   0  0  0  0  0  0  0  0  0  0  0  0
   56.3390   32.0990   45.2110 O   0  0  0  0  0  0  0  0  0  0  0  0
   58.1000   30.6190   44.7100 C   0  0  0  0  0  0  0  0  0  0  0  0
   57.5030   29.5950   43.9910 C   0  0  0  0  0  0  0  0  0  0  0  0
   56.2120   29.6610   43.2300 C   0  0  0  0  0  0  0  0  0  0  0  0
   58.3180   28.4820   44.1450 C   0  0  0  0  0  0  0  0  0  0  0  0
   58.0560   27.1180   43.5640 C   0  0  0  0  0  0  0  0  0  0  0  0
   57.6850   26.0980   44.6540 C   0  0  0  0  0  0  0  0  0  0  0  0
   56.9800   26.7410   45.8250 C   0  0  0  0  0  0  0  0  0  0  0  0
   55.8780   27.3260   45.6330 O   0  0  0  0  0  0  0  0  0  0  0  0
   57.4880   26.7220   47.1690 N   0  0  0  0  0  0  0  0  0  0  0  0
   58.5480   27.4020   47.8680 C   0  0  0  0  0  0  0  0  0  0  0  0
   59.6550   26.6250   48.2400 C   0  0  0  0  0  0  0  0  0  0  0  0
   60.7130   27.1800   48.9580 C   0  0  0  0  0  0  0  0  0  0  0  0
   60.6770   28.5240   49.3230 C   0  0  0  0  0  0  0  0  0  0  0  0
   59.5850   29.3250   48.9600 C   0  0  0  0  0  0  0  0  0  0  0  0
   59.5400   31.0190   49.4660 S   0  0  0  0  0  0  0  0  0  0  0  0
   58.5620   31.7680   48.6060 O   0  0  0  0  0  0  0  0  0  0  0  0
   60.8970   31.6320   49.2630 O   0  0  0  0  0  0  0  0  0  0  0  0
   59.1030   31.1820   51.1540 N   0  0  0  0  0  0  0  0  0  0  0  0
   58.0570   30.2130   51.5480 C   0  0  0  0  0  0  0  0  0  0  0  0
   56.6830   30.8860   51.7160 C   0  0  0  0  0  0  0  0  0  0  0  0
   56.6850   31.9250   52.6850 O   0  0  0  0  0  0  0  0  0  0  0  0
   57.9070   32.6500   52.7500 C   0  0  0  0  0  0  0  0  0  0  0  0
   58.7480   32.5780   51.4650 C   0  0  0  0  0  0  0  0  0  0  0  0
   58.5290   28.7690   48.2150 C   0  0  0  0  0  0  0  0  0  0  0  0
   59.3710   28.7880   44.9400 N   0  0  0  0  0  0  0  0  0  0  0  0
   60.4210   27.8640   45.3740 C   0  0  0  0  0  0  0  0  0  0  0  0
   59.2570   30.0960   45.2670 C   0  0  0  0  0  0  0  0  0  0  0  0
   60.1990   30.8320   46.1760 C   0  0  0  0  0  0  0  0  0  0  0  0
   60.8190   33.9200   46.1200 C   0  0  0  0  0  0  0  0  0  0  0  0
   61.9150   33.8660   46.9880 C   0  0  0  0  0  0  0  0  0  0  0  0
   63.9934   32.6957   50.2549 H   0  0  0  0  0  0  0  0  0  0  0  0
   63.3121   32.1098   48.6995 H   0  0  0  0  0  0  0  0  0  0  0  0
   64.7118   33.2356   48.6995 H   0  0  0  0  0  0  0  0  0  0  0  0
   60.3628   34.7848   49.8939 H   0  0  0  0  0  0  0  0  0  0  0  0
   58.4212   34.9218   48.3406 H   0  0  0  0  0  0  0  0  0  0  0  0
   57.4429   34.2812   46.2815 H   0  0  0  0  0  0  0  0  0  0  0  0
   58.4080   35.2109   45.0655 H   0  0  0  0  0  0  0  0  0  0  0  0
   55.3710   29.7040   43.9377 H   0  0  0  0  0  0  0  0  0  0  0  0
   56.2050   30.5607   42.5971 H   0  0  0  0  0  0  0  0  0  0  0  0
   56.1133   28.7667   42.5971 H   0  0  0  0  0  0  0  0  0  0  0  0
   57.2262   27.1898   42.8454 H   0  0  0  0  0  0  0  0  0  0  0  0
   58.9761   26.7729   43.0697 H   0  0  0  0  0  0  0  0  0  0  0  0
   57.0217   25.3377   44.2159 H   0  0  0  0  0  0  0  0  0  0  0  0
   58.6178   25.6504   45.0274 H   0  0  0  0  0  0  0  0  0  0  0  0
   59.6887   25.5615   47.9609 H   0  0  0  0  0  0  0  0  0  0  0  0
   61.5759   26.5571   49.2363 H   0  0  0  0  0  0  0  0  0  0  0  0
   61.5082   28.9583   49.8980 H   0  0  0  0  0  0  0  0  0  0  0  0
   57.9803   29.4376   50.7716 H   0  0  0  0  0  0  0  0  0  0  0  0
   58.3436   29.7781   52.5169 H   0  0  0  0  0  0  0  0  0  0  0  0
   56.3810   31.3113   50.7476 H   0  0  0  0  0  0  0  0  0  0  0  0
   55.9808   30.1144   52.0646 H   0  0  0  0  0  0  0  0  0  0  0  0
   57.6722   33.7058   52.9506 H   0  0  0  0  0  0  0  0  0  0  0  0
   58.5073   32.1895   53.5485 H   0  0  0  0  0  0  0  0  0  0  0  0
   58.1684   32.9981   50.6298 H   0  0  0  0  0  0  0  0  0  0  0  0
   59.6732   33.1539   51.6144 H   0  0  0  0  0  0  0  0  0  0  0  0
   57.6858   29.4024   47.9021 H   0  0  0  0  0  0  0  0  0  0  0  0
   60.4532   27.8357   46.4732 H   0  0  0  0  0  0  0  0  0  0  0  0
   60.2059   26.8569   44.9874 H   0  0  0  0  0  0  0  0  0  0  0  0
   61.3926   28.2054   44.9874 H   0  0  0  0  0  0  0  0  0  0  0  0
   59.9343   30.6252   47.2235 H   0  0  0  0  0  0  0  0  0  0  0  0
   61.2293   30.4972   45.9852 H   0  0  0  0  0  0  0  0  0  0  0  0
   60.1234   31.9127   45.9852 H   0  0  0  0  0  0  0  0  0  0  0  0
   60.9504   33.6743   45.0559 H   0  0  0  0  0  0  0  0  0  0  0  0
   62.9051   33.5855   46.5995 H   0  0  0  0  0  0  0  0  0  0  0  0
  1  2  1  0
  2  3  1  0
  3  4  2  0
  4  5  1  0
  5  6  2  0
  6  7  1  0
  7  8  1  0
  8  9  1  0
  9 10  2  0
  9 11  1  0
 11 12  1  0
 12 13  1  0
 12 14  2  0
 14 15  1  0
 15 16  1  0
 16 17  1  0
 17 18  2  0
 17 19  1  0
 19 20  1  0
 20 21  2  0
 21 22  1  0
 22 23  2  0
 23 24  1  0
 24 25  1  0
 25 26  2  0
 25 27  2  0
 25 28  1  0
 28 29  1  0
 29 30  1  0
 30 31  1  0
 31 32  1  0
 32 33  1  0
 24 34  2  0
 14 35  1  0
 35 36  1  0
 35 37  1  0
 37 38  1  0
  6 39  1  0
 39 40  2  0
 40  3  1  0
 37 11  2  0
 34 20  1  0
 33 28  1  0
  1 41  1  0
  1 42  1  0
  1 43  1  0
  4 44  1  0
  5 45  1  0
  7 46  1  0
  7 47  1  0
 13 48  1  0
 13 49  1  0
 13 50  1  0
 15 51  1  0
 15 52  1  0
 16 53  1  0
 16 54  1  0
 21 55  1  0
 22 56  1  0
 23 57  1  0
 29 58  1  0
 29 59  1  0
 30 60  1  0
 30 61  1  0
 32 62  1  0
 32 63  1  0
 33 64  1  0
 33 65  1  0
 34 66  1  0
 36 67  1  0
 36 68  1  0
 36 69  1  0
 38 70  1  0
 38 71  1  0
 38 72  1  0
 39 73  1  0
 40 74  1  0
M  CHG  2   8  -1  19  -1
M  END
>  <UniqueID>  (87) 
82

>  <SMILES>  (87) 
COc1ccc(C[N-]C(=O)c2c(C)c(CCC(=O)[N-]c3cccc(S(=O)(=O)N4CCOCC4)c3)n(C)c2C)cc1

>  <Energy>  (87) 
113.71949515450302

>  <Genealogy>  (87) 
COc1ccc(C[N-]C(=O)c2c(C)c(CCC(=O)[N-]c3cccc(S(=O)(=O)N4CCOCC4)c3)n(C)c2C)cc1 (protonated)
COc1ccc(C[N-]C(=O)c2c(C)c(CCC(=O)[N-]c3cccc(S(=O)(=O)N4CCOCC4)c3)n(C)c2C)cc1 (3D coordinates assigned)
COc1ccc(C[N-]C(=O)c2c(C)c(CCC(=O)[N-]c3cccc(S(=O)(=O)N4CCOCC4)c3)n(C)c2C)cc1 (nonaromatic ring conformer: 113.71949515450302 kcal/mol)

>  <smiles>  (87) 
COc1ccc(CNC(=O)c2c(C)c(CCC(=O)Nc3cccc(S(=O)(=O)N4CCOCC4)c3)n(C)c2C)cc1

>  <score_type>  (87) 
oracle

>  <origin>  (87) 
adg

>  <m_score__min__energy>  (87) 
-13.41

>  <m_primary>  (87) 
energy

$$$$
87:0
     RDKit          3D

 29 30  0  0  0  0  0  0  0  0999 V2000
   55.1470   28.1160   45.2760 H   0  0  0  0  0  0  0  0  0  0  0  0
   55.8180   27.4680   45.6740 O   0  0  0  0  0  0  0  0  0  0  0  0
   57.1910   27.7080   45.6150 C   0  0  0  0  0  0  0  0  0  0  0  0
   58.0880   26.7090   46.0210 C   0  0  0  0  0  0  0  0  0  0  0  0
   57.7057   25.7341   46.3576 H   0  0  0  0  0  0  0  0  0  0  0  0
   59.4640   26.9460   46.0000 C   0  0  0  0  0  0  0  0  0  0  0  0
   60.1628   26.1559   46.3122 H   0  0  0  0  0  0  0  0  0  0  0  0
   59.9530   28.1850   45.5830 C   0  0  0  0  0  0  0  0  0  0  0  0
   61.0365   28.3745   45.5782 H   0  0  0  0  0  0  0  0  0  0  0  0
   59.0690   29.1840   45.1720 C   0  0  0  0  0  0  0  0  0  0  0  0
   59.4607   30.1614   44.8539 H   0  0  0  0  0  0  0  0  0  0  0  0
   57.6820   28.9520   45.1610 C   0  0  0  0  0  0  0  0  0  0  0  0
   56.7740   30.0190   44.6740 C   0  0  0  0  0  0  0  0  0  0  0  0
   55.5310   29.8150   44.6930 O   0  0  0  0  0  0  0  0  0  0  0  0
   57.2590   31.3090   44.1330 C   0  0  0  0  0  0  0  0  0  0  0  0
   57.8255   31.2793   43.1906 H   0  0  0  0  0  0  0  0  0  0  0  0
   57.0650   32.5130   44.6970 C   0  0  0  0  0  0  0  0  0  0  0  0
   56.1282   33.0391   44.4609 H   0  0  0  0  0  0  0  0  0  0  0  0
   58.0130   33.1850   45.6100 C   0  0  0  0  0  0  0  0  0  0  0  0
   58.2730   32.6200   46.8680 C   0  0  0  0  0  0  0  0  0  0  0  0
   57.7748   31.6844   47.1621 H   0  0  0  0  0  0  0  0  0  0  0  0
   59.1630   33.2420   47.7490 C   0  0  0  0  0  0  0  0  0  0  0  0
   59.3505   32.8042   48.7406 H   0  0  0  0  0  0  0  0  0  0  0  0
   59.8150   34.4200   47.3710 C   0  0  0  0  0  0  0  0  0  0  0  0
   60.5081   34.9132   48.0684 H   0  0  0  0  0  0  0  0  0  0  0  0
   59.5860   34.9700   46.1080 C   0  0  0  0  0  0  0  0  0  0  0  0
   60.1055   35.8921   45.8084 H   0  0  0  0  0  0  0  0  0  0  0  0
   58.6980   34.3510   45.2240 C   0  0  0  0  0  0  0  0  0  0  0  0
   58.5344   34.7771   44.2232 H   0  0  0  0  0  0  0  0  0  0  0  0
  1  2  1  0
  2  3  1  0
  3  4  2  0
  4  5  1  0
  4  6  1  0
  6  7  1  0
  6  8  2  0
  8  9  1  0
  8 10  1  0
 10 11  1  0
 10 12  2  0
 12 13  1  0
 13 14  2  0
 13 15  1  0
 15 16  1  0
 15 17  2  0
 17 18  1  0
 17 19  1  0
 19 20  2  0
 20 21  1  0
 20 22  1  0
 22 23  1  0
 22 24  2  0
 24 25  1  0
 24 26  1  0
 26 27  1  0
 26 28  2  0
 28 29  1  0
 12  3  1  0
 28 19  1  0
M  END
>  <UniqueID>  (88) 
83

>  <SMILES>  (88) 
O=C(/C=C\c1ccccc1)c1ccccc1O

>  <Energy>  (88) 
40.821385595337716

>  <Genealogy>  (88) 
O=C(/C=C\c1ccccc1)c1ccccc1O (cis-trans isomerization)
O=C(/C=C\c1ccccc1)c1ccccc1O (3D coordinates assigned)
O=C(/C=C\c1ccccc1)c1ccccc1O (optimized conformer: 40.821385595337716 kcal/mol)

>  <smiles>  (88) 
O=C(C=Cc1ccccc1)c1ccccc1O

>  <score_type>  (88) 
oracle

>  <origin>  (88) 
adg

>  <m_score__min__energy>  (88) 
-8.75

>  <m_primary>  (88) 
energy

$$$$
88:0
     RDKit          3D

 54 57  0  0  0  0  0  0  0  0999 V2000
   57.3850   22.4460   48.2190 H   0  0  0  0  0  0  0  0  0  0  0  0
   57.3670   21.4680   47.8560 N   0  0  0  0  0  0  0  0  0  0  0  0
   56.5580   21.1160   46.7370 C   0  0  0  0  0  0  0  0  0  0  0  0
   55.8490   20.0750   46.7980 O   0  0  0  0  0  0  0  0  0  0  0  0
   56.5770   21.9220   45.4910 C   0  0  0  0  0  0  0  0  0  0  0  0
   56.6860   21.2390   44.2650 C   0  0  0  0  0  0  0  0  0  0  0  0
   56.7468   20.1407   44.2597 H   0  0  0  0  0  0  0  0  0  0  0  0
   56.7180   21.9350   43.0570 C   0  0  0  0  0  0  0  0  0  0  0  0
   56.8075   21.3845   42.1089 H   0  0  0  0  0  0  0  0  0  0  0  0
   56.6370   23.3240   43.0480 C   0  0  0  0  0  0  0  0  0  0  0  0
   56.6699   23.8705   42.0939 H   0  0  0  0  0  0  0  0  0  0  0  0
   56.5140   24.0240   44.2490 C   0  0  0  0  0  0  0  0  0  0  0  0
   56.4482   25.1219   44.2331 H   0  0  0  0  0  0  0  0  0  0  0  0
   56.4730   23.3430   45.4810 C   0  0  0  0  0  0  0  0  0  0  0  0
   56.2480   24.1590   46.7380 C   0  0  0  0  0  0  0  0  0  0  0  0
   57.2104   24.3002   47.2517 H   0  0  0  0  0  0  0  0  0  0  0  0
   55.5407   23.6179   47.3837 H   0  0  0  0  0  0  0  0  0  0  0  0
   55.6790   25.4690   46.4210 N   0  0  0  0  0  0  0  0  0  0  0  0
   56.3570   26.5770   46.3710 C   0  0  0  0  0  0  0  0  0  0  0  0
   55.9010   27.6010   45.6060 N   0  0  0  0  0  0  0  0  0  0  0  0
   56.6070   28.7610   45.5150 C   0  0  0  0  0  0  0  0  0  0  0  0
   56.1770   29.7600   44.8020 N   0  0  0  0  0  0  0  0  0  0  0  0
   56.9310   30.9150   44.3930 C   0  0  0  0  0  0  0  0  0  0  0  0
   57.4110   31.7870   45.3790 C   0  0  0  0  0  0  0  0  0  0  0  0
   57.1858   31.5915   46.4378 H   0  0  0  0  0  0  0  0  0  0  0  0
   58.1750   32.9050   45.0260 C   0  0  0  0  0  0  0  0  0  0  0  0
   58.5339   33.5941   45.8047 H   0  0  0  0  0  0  0  0  0  0  0  0
   58.4820   33.1460   43.6840 C   0  0  0  0  0  0  0  0  0  0  0  0
   59.0745   34.0301   43.4058 H   0  0  0  0  0  0  0  0  0  0  0  0
   58.0370   32.2650   42.6960 C   0  0  0  0  0  0  0  0  0  0  0  0
   58.2883   32.4503   41.6412 H   0  0  0  0  0  0  0  0  0  0  0  0
   57.2720   31.1470   43.0460 C   0  0  0  0  0  0  0  0  0  0  0  0
   56.9358   30.4470   42.2669 H   0  0  0  0  0  0  0  0  0  0  0  0
   57.7620   28.8950   46.2140 N   0  0  0  0  0  0  0  0  0  0  0  0
   58.2210   27.8760   46.9910 C   0  0  0  0  0  0  0  0  0  0  0  0
   59.3360   27.9860   47.6490 N   0  0  0  0  0  0  0  0  0  0  0  0
   60.0660   29.2120   47.8110 C   0  0  0  0  0  0  0  0  0  0  0  0
   60.1090   29.8750   49.0620 C   0  0  0  0  0  0  0  0  0  0  0  0
   59.4030   29.3230   50.2710 C   0  0  0  0  0  0  0  0  0  0  0  0
   59.8873   29.7017   51.1831 H   0  0  0  0  0  0  0  0  0  0  0  0
   58.3496   29.6395   50.2568 H   0  0  0  0  0  0  0  0  0  0  0  0
   59.4560   28.2244   50.2568 H   0  0  0  0  0  0  0  0  0  0  0  0
   60.8030   31.0900   49.1740 C   0  0  0  0  0  0  0  0  0  0  0  0
   60.8122   31.6272   50.1339 H   0  0  0  0  0  0  0  0  0  0  0  0
   61.4810   31.6210   48.0770 C   0  0  0  0  0  0  0  0  0  0  0  0
   62.0219   32.5737   48.1760 H   0  0  0  0  0  0  0  0  0  0  0  0
   61.4760   30.9490   46.8550 C   0  0  0  0  0  0  0  0  0  0  0  0
   62.0215   31.3697   45.9974 H   0  0  0  0  0  0  0  0  0  0  0  0
   60.7790   29.7390   46.7130 C   0  0  0  0  0  0  0  0  0  0  0  0
   60.7590   29.0380   45.3830 C   0  0  0  0  0  0  0  0  0  0  0  0
   60.7280   27.9501   45.5424 H   0  0  0  0  0  0  0  0  0  0  0  0
   59.8694   29.3512   44.8168 H   0  0  0  0  0  0  0  0  0  0  0  0
   61.6650   29.2999   44.8168 H   0  0  0  0  0  0  0  0  0  0  0  0
   57.5180   26.7200   47.0620 N   0  0  0  0  0  0  0  0  0  0  0  0
  1  2  1  0
  2  3  1  0
  3  4  2  0
  3  5  1  0
  5  6  2  0
  6  7  1  0
  6  8  1  0
  8  9  1  0
  8 10  2  0
 10 11  1  0
 10 12  1  0
 12 13  1  0
 12 14  2  0
 14 15  1  0
 15 16  1  0
 15 17  1  0
 15 18  1  0
 18 19  2  3
 19 20  1  0
 20 21  1  0
 21 22  2  3
 22 23  1  0
 23 24  2  0
 24 25  1  0
 24 26  1  0
 26 27  1  0
 26 28  2  0
 28 29  1  0
 28 30  1  0
 30 31  1  0
 30 32  2  0
 32 33  1  0
 21 34  1  0
 34 35  1  0
 35 36  2  0
 36 37  1  0
 37 38  2  0
 38 39  1  0
 39 40  1  0
 39 41  1  0
 39 42  1  0
 38 43  1  0
 43 44  1  0
 43 45  2  0
 45 46  1  0
 45 47  1  0
 47 48  1  0
 47 49  2  0
 49 50  1  0
 50 51  1  0
 50 52  1  0
 50 53  1  0
 35 54  1  0
 14  5  1  0
 54 19  1  0
 32 23  1  0
 49 37  1  0
M  CHG  4   2  -1  20  -1  34  -1  54  -1
M  END
>  <UniqueID>  (89) 
84

>  <SMILES>  (89) 
Cc1cccc(C)c1/N=c1/[n-]c(=NCc2ccccc2C([NH-])=O)[n-]c(=Nc2ccccc2)[n-]1

>  <Energy>  (89) 
77.9881571005341

>  <Genealogy>  (89) 
Cc1cccc(C)c1N=c1[n-]c(=NCc2ccccc2C([NH-])=O)[n-]c(=Nc2ccccc2)[n-]1 (protonated)
Cc1cccc(C)c1/N=c1/[n-]c(=NCc2ccccc2C([NH-])=O)[n-]c(=Nc2ccccc2)[n-]1 (cis-trans isomerization)
Cc1cccc(C)c1/N=c1/[n-]c(=NCc2ccccc2C([NH-])=O)[n-]c(=Nc2ccccc2)[n-]1 (3D coordinates assigned)
Cc1cccc(C)c1/N=c1/[n-]c(=NCc2ccccc2C([NH-])=O)[n-]c(=Nc2ccccc2)[n-]1 (optimized conformer: 77.9881571005341 kcal/mol)

>  <smiles>  (89) 
Cc1cccc(C)c1N=c1[nH]c(=NCc2ccccc2C(N)=O)[nH]c(=Nc2ccccc2)[nH]1

>  <score_type>  (89) 
oracle

>  <origin>  (89) 
adg

>  <m_score__min__energy>  (89) 
-15.5

>  <m_primary>  (89) 
energy

$$$$
89:0
     RDKit          3D

 51 53  0  0  0  0  0  0  0  0999 V2000
   59.2740   35.3260   47.0660 C   0  0  0  0  0  0  0  0  0  0  0  0
   59.0340   34.3960   48.1160 O   0  0  0  0  0  0  0  0  0  0  0  0
   58.8510   33.0160   47.9350 C   0  0  0  0  0  0  0  0  0  0  0  0
   58.4750   32.4780   46.6880 C   0  0  0  0  0  0  0  0  0  0  0  0
   58.3150   31.0920   46.5260 C   0  0  0  0  0  0  0  0  0  0  0  0
   57.9370   30.5180   45.2690 N   0  0  0  0  0  0  0  0  0  0  0  0
   56.6270   30.0950   44.8620 C   0  0  0  0  0  0  0  0  0  0  0  0
   55.9010   30.9090   44.2350 O   0  0  0  0  0  0  0  0  0  0  0  0
   56.1490   28.6780   45.0190 C   0  0  0  0  0  0  0  0  0  0  0  0
   57.2800   27.8010   45.3040 N   0  0  0  0  0  0  0  0  0  0  0  0
   57.2330   26.6230   46.1200 C   0  0  0  0  0  0  0  0  0  0  0  0
   57.7880   26.6500   47.2500 O   0  0  0  0  0  0  0  0  0  0  0  0
   56.5900   25.3710   45.6640 C   0  0  0  0  0  0  0  0  0  0  0  0
   57.3800   24.2580   45.3290 C   0  0  0  0  0  0  0  0  0  0  0  0
   56.7850   23.0620   44.9310 C   0  0  0  0  0  0  0  0  0  0  0  0
   55.3950   22.9530   44.8810 C   0  0  0  0  0  0  0  0  0  0  0  0
   54.5860   24.0450   45.2280 C   0  0  0  0  0  0  0  0  0  0  0  0
   53.0900   23.9190   45.1840 C   0  0  0  0  0  0  0  0  0  0  0  0
   55.1870   25.2540   45.6290 C   0  0  0  0  0  0  0  0  0  0  0  0
   54.3870   26.3410   45.9740 O   0  0  0  0  0  0  0  0  0  0  0  0
   58.6330   30.2380   47.5850 C   0  0  0  0  0  0  0  0  0  0  0  0
   59.0180   30.7600   48.8200 C   0  0  0  0  0  0  0  0  0  0  0  0
   59.0820   32.1420   49.0190 C   0  0  0  0  0  0  0  0  0  0  0  0
   59.4480   32.6280   50.3180 N   0  0  0  0  0  0  0  0  0  0  0  0
   60.5960   33.4350   50.6110 C   0  0  0  0  0  0  0  0  0  0  0  0
   60.5790   34.2130   51.6030 O   0  0  0  0  0  0  0  0  0  0  0  0
   61.8160   33.3210   49.7800 C   0  0  0  0  0  0  0  0  0  0  0  0
   61.9160   34.0060   48.5540 C   0  0  0  0  0  0  0  0  0  0  0  0
   63.0710   33.8980   47.7740 C   0  0  0  0  0  0  0  0  0  0  0  0
   64.1380   33.1080   48.2070 C   0  0  0  0  0  0  0  0  0  0  0  0
   64.0530   32.4240   49.4220 C   0  0  0  0  0  0  0  0  0  0  0  0
   62.9000   32.5290   50.2060 C   0  0  0  0  0  0  0  0  0  0  0  0
   59.5271   36.3066   47.4954 H   0  0  0  0  0  0  0  0  0  0  0  0
   60.1099   34.9707   46.4455 H   0  0  0  0  0  0  0  0  0  0  0  0
   58.3706   35.4196   46.4455 H   0  0  0  0  0  0  0  0  0  0  0  0
   58.3052   33.1497   45.8336 H   0  0  0  0  0  0  0  0  0  0  0  0
   55.4288   28.6258   45.8489 H   0  0  0  0  0  0  0  0  0  0  0  0
   55.6652   28.3535   44.0859 H   0  0  0  0  0  0  0  0  0  0  0  0
   58.4763   24.3313   45.3813 H   0  0  0  0  0  0  0  0  0  0  0  0
   57.4130   22.2019   44.6556 H   0  0  0  0  0  0  0  0  0  0  0  0
   54.9312   22.0060   44.5679 H   0  0  0  0  0  0  0  0  0  0  0  0
   52.6945   23.8857   46.2099 H   0  0  0  0  0  0  0  0  0  0  0  0
   52.6645   24.7845   44.6549 H   0  0  0  0  0  0  0  0  0  0  0  0
   52.8153   22.9945   44.6549 H   0  0  0  0  0  0  0  0  0  0  0  0
   58.5795   29.1484   47.4442 H   0  0  0  0  0  0  0  0  0  0  0  0
   59.2735   30.0780   49.6444 H   0  0  0  0  0  0  0  0  0  0  0  0
   61.0794   34.6305   48.2075 H   0  0  0  0  0  0  0  0  0  0  0  0
   63.1395   34.4364   46.8172 H   0  0  0  0  0  0  0  0  0  0  0  0
   65.0456   33.0243   47.5912 H   0  0  0  0  0  0  0  0  0  0  0  0
   64.8941   31.8021   49.7624 H   0  0  0  0  0  0  0  0  0  0  0  0
   62.8391   31.9891   51.1625 H   0  0  0  0  0  0  0  0  0  0  0  0
  1  2  1  0
  2  3  1  0
  3  4  2  0
  4  5  1  0
  5  6  1  0
  6  7  1  0
  7  8  2  0
  7  9  1  0
  9 10  1  0
 10 11  1  0
 11 12  2  0
 11 13  1  0
 13 14  2  0
 14 15  1  0
 15 16  2  0
 16 17  1  0
 17 18  1  0
 17 19  2  0
 19 20  1  0
  5 21  2  0
 21 22  1  0
 22 23  2  0
 23 24  1  0
 24 25  1  0
 25 26  2  0
 25 27  1  0
 27 28  2  0
 28 29  1  0
 29 30  2  0
 30 31  1  0
 31 32  2  0
 23  3  1  0
 32 27  1  0
 19 13  1  0
  1 33  1  0
  1 34  1  0
  1 35  1  0
  4 36  1  0
  9 37  1  0
  9 38  1  0
 14 39  1  0
 15 40  1  0
 16 41  1  0
 18 42  1  0
 18 43  1  0
 18 44  1  0
 21 45  1  0
 22 46  1  0
 28 47  1  0
 29 48  1  0
 30 49  1  0
 31 50  1  0
 32 51  1  0
M  CHG  4   6  -1  10  -1  20  -1  24  -1
M  END
>  <UniqueID>  (90) 
85

>  <SMILES>  (90) 
COc1cc([N-]C(=O)C[N-]C(=O)c2cccc(C)c2[O-])ccc1[N-]C(=O)c1ccccc1

>  <Energy>  (90) 
62.98371915867128

>  <Genealogy>  (90) 
COc1cc([N-]C(=O)C[N-]C(=O)c2cccc(C)c2[O-])ccc1[N-]C(=O)c1ccccc1 (protonated)
COc1cc([N-]C(=O)C[N-]C(=O)c2cccc(C)c2[O-])ccc1[N-]C(=O)c1ccccc1 (3D coordinates assigned)
COc1cc([N-]C(=O)C[N-]C(=O)c2cccc(C)c2[O-])ccc1[N-]C(=O)c1ccccc1 (optimized conformer: 62.98371915867128 kcal/mol)

>  <smiles>  (90) 
COc1cc(NC(=O)CNC(=O)c2cccc(C)c2O)ccc1NC(=O)c1ccccc1

>  <score_type>  (90) 
oracle

>  <origin>  (90) 
adg

>  <m_score__min__energy>  (90) 
-15.49

>  <m_primary>  (90) 
energy

$$$$
