0:0
     RDKit          3D

 45 49  0  0  0  0  0  0  0  0999 V2000
   59.4410   28.0260   47.4120 C   0  0  0  0  0  0  0  0  0  0  0  0
   59.1180   29.2850   46.7390 N   0  0  0  0  0  0  0  0  0  0  0  0
   59.7080   30.4940   46.9440 C   0  0  0  0  0  0  0  0  0  0  0  0
   61.0220   30.7960   48.1310 S   0  0  0  0  0  0  0  0  0  0  0  0
   59.8730   31.3130   49.4140 C   0  0  0  0  0  0  0  0  0  0  0  0
   58.9820   30.3650   49.9560 C   0  0  0  0  0  0  0  0  0  0  0  0
   58.0960   30.7890   50.9420 C   0  0  0  0  0  0  0  0  0  0  0  0
   58.0760   32.0690   51.3880 C   0  0  0  0  0  0  0  0  0  0  0  0
   58.9430   33.0360   50.8910 C   0  0  0  0  0  0  0  0  0  0  0  0
   59.8590   32.6540   49.8910 C   0  0  0  0  0  0  0  0  0  0  0  0
   61.0680   33.9790   49.2160 Br  0  0  0  0  0  0  0  0  0  0  0  0
   57.1040   32.2020   52.3600 O   0  0  0  0  0  0  0  0  0  0  0  0
   56.4730   30.9260   52.5340 C   0  0  0  0  0  0  0  0  0  0  0  0
   57.1370   30.0530   51.6100 O   0  0  0  0  0  0  0  0  0  0  0  0
   59.1900   31.4870   46.1810 N   0  0  0  0  0  0  0  0  0  0  0  0
   58.2380   30.8590   45.4720 C   0  0  0  0  0  0  0  0  0  0  0  0
   57.3510   31.4390   44.5730 C   0  0  0  0  0  0  0  0  0  0  0  0
   56.3900   30.6010   43.9920 C   0  0  0  0  0  0  0  0  0  0  0  0
   56.3600   29.2670   44.2970 N   0  0  0  0  0  0  0  0  0  0  0  0
   57.2420   28.6880   45.1670 C   0  0  0  0  0  0  0  0  0  0  0  0
   57.1560   27.2360   45.3770 C   0  0  0  0  0  0  0  0  0  0  0  0
   56.9050   26.7820   46.5250 O   0  0  0  0  0  0  0  0  0  0  0  0
   57.4030   26.3460   44.2780 N   0  0  0  0  0  0  0  0  0  0  0  0
   57.5470   24.9220   44.4110 C   0  0  0  0  0  0  0  0  0  0  0  0
   56.8190   24.0310   43.5990 C   0  0  0  0  0  0  0  0  0  0  0  0
   56.9600   22.6490   43.7660 C   0  0  0  0  0  0  0  0  0  0  0  0
   57.8160   22.1460   44.7490 C   0  0  0  0  0  0  0  0  0  0  0  0
   58.5240   23.0220   45.5740 C   0  0  0  0  0  0  0  0  0  0  0  0
   58.3840   24.4040   45.4120 C   0  0  0  0  0  0  0  0  0  0  0  0
   58.1950   29.5280   45.7810 C   0  0  0  0  0  0  0  0  0  0  0  0
   59.4034   28.1725   48.5016 H   0  0  0  0  0  0  0  0  0  0  0  0
   58.7112   27.2565   47.1201 H   0  0  0  0  0  0  0  0  0  0  0  0
   60.4511   27.7028   47.1201 H   0  0  0  0  0  0  0  0  0  0  0  0
   58.9867   29.3209   49.6100 H   0  0  0  0  0  0  0  0  0  0  0  0
   58.9145   34.0691   51.2677 H   0  0  0  0  0  0  0  0  0  0  0  0
   56.6035   30.5679   53.5659 H   0  0  0  0  0  0  0  0  0  0  0  0
   55.3893   30.9732   52.3511 H   0  0  0  0  0  0  0  0  0  0  0  0
   57.4012   32.5102   44.3280 H   0  0  0  0  0  0  0  0  0  0  0  0
   55.6556   31.0175   43.2869 H   0  0  0  0  0  0  0  0  0  0  0  0
   57.3680   26.7470   43.3120 H   0  0  0  0  0  0  0  0  0  0  0  0
   56.1368   24.4231   42.8304 H   0  0  0  0  0  0  0  0  0  0  0  0
   56.3962   21.9576   43.1225 H   0  0  0  0  0  0  0  0  0  0  0  0
   57.9322   21.0592   44.8730 H   0  0  0  0  0  0  0  0  0  0  0  0
   59.1925   22.6248   46.3521 H   0  0  0  0  0  0  0  0  0  0  0  0
   58.9335   25.0899   46.0735 H   0  0  0  0  0  0  0  0  0  0  0  0
  1  2  1  0
  2  3  1  0
  3  4  1  0
  4  5  1  0
  5  6  2  0
  6  7  1  0
  7  8  2  0
  8  9  1  0
  9 10  2  0
 10 11  1  0
  8 12  1  0
 12 13  1  0
 13 14  1  0
  3 15  2  0
 15 16  1  0
 16 17  2  0
 17 18  1  0
 18 19  2  0
 19 20  1  0
 20 21  1  0
 21 22  2  0
 21 23  1  0
 23 24  1  0
 24 25  2  0
 25 26  1  0
 26 27  2  0
 27 28  1  0
 28 29  2  0
 20 30  2  0
 30  2  1  0
 10  5  1  0
 30 16  1  0
 14  7  1  0
 29 24  1  0
  1 31  1  0
  1 32  1  0
  1 33  1  0
  6 34  1  0
  9 35  1  0
 13 36  1  0
 13 37  1  0
 17 38  1  0
 18 39  1  0
 23 40  1  0
 25 41  1  0
 26 42  1  0
 27 43  1  0
 28 44  1  0
 29 45  1  0
M  END
>  <UniqueID>  (1) 
1

>  <SMILES>  (1) 
Cn1c(Sc2cc3c(cc2Br)OCO3)nc2ccnc(C(=O)Nc3ccccc3)c21

>  <Energy>  (1) 
125.50161744879905

>  <Genealogy>  (1) 
Cn1c(Sc2cc3c(cc2Br)OCO3)nc2ccnc(C(=O)Nc3ccccc3)c21 (3D coordinates assigned)
Cn1c(Sc2cc3c(cc2Br)OCO3)nc2ccnc(C(=O)Nc3ccccc3)c21 (nonaromatic ring conformer: 125.50161744879905 kcal/mol)

>  <smiles>  (1) 
Cn1c(Sc2cc3c(cc2Br)OCO3)nc2ccnc(C(=O)Nc3ccccc3)c21

>  <score_type>  (1) 
oracle

>  <origin>  (1) 
adg

>  <m_score__min__energy>  (1) 
-8.6099999999999994

>  <m_primary>  (1) 
energy

$$$$
1:0
     RDKit          3D

 43 45  0  0  0  0  0  0  0  0999 V2000
   50.7550   31.0910   55.3850 C   0  0  0  0  0  0  0  0  0  0  0  0
   50.9810   31.4880   53.9610 C   0  0  0  0  0  0  0  0  0  0  0  0
   52.0710   30.9840   53.2470 C   0  0  0  0  0  0  0  0  0  0  0  0
   52.2460   31.3490   51.9050 C   0  0  0  0  0  0  0  0  0  0  0  0
   53.4060   30.8560   51.1220 C   0  0  0  0  0  0  0  0  0  0  0  0
   54.3500   30.0970   51.6050 N   0  0  0  0  0  0  0  0  0  0  0  0
   55.6270   30.5130   52.1120 C   0  0  0  0  0  0  0  0  0  0  0  0
   56.0690   30.1390   53.3910 C   0  0  0  0  0  0  0  0  0  0  0  0
   57.3340   30.5390   53.8230 C   0  0  0  0  0  0  0  0  0  0  0  0
   58.1580   31.2800   52.9730 C   0  0  0  0  0  0  0  0  0  0  0  0
   57.7100   31.5980   51.6870 C   0  0  0  0  0  0  0  0  0  0  0  0
   58.4860   32.2750   50.8910 N   0  0  0  0  0  0  0  0  0  0  0  0
   59.6870   31.7980   50.2630 C   0  0  0  0  0  0  0  0  0  0  0  0
   60.5450   31.2050   50.9670 O   0  0  0  0  0  0  0  0  0  0  0  0
   59.9420   31.9740   48.8620 N   0  0  0  0  0  0  0  0  0  0  0  0
   59.2040   31.3750   47.7870 C   0  0  0  0  0  0  0  0  0  0  0  0
   58.5090   32.2050   46.9000 C   0  0  0  0  0  0  0  0  0  0  0  0
   57.7710   31.6540   45.8470 C   0  0  0  0  0  0  0  0  0  0  0  0
   57.7360   30.2670   45.6600 C   0  0  0  0  0  0  0  0  0  0  0  0
   56.7930   29.5820   44.3420 S   0  0  0  0  0  0  0  0  0  0  0  0
   55.1640   29.3330   44.8640 N   0  0  0  0  0  0  0  0  0  0  0  0
   56.7870   30.5240   43.1690 O   0  0  0  0  0  0  0  0  0  0  0  0
   57.3970   28.2710   43.9250 O   0  0  0  0  0  0  0  0  0  0  0  0
   58.4440   29.4330   46.5380 C   0  0  0  0  0  0  0  0  0  0  0  0
   59.1830   29.9830   47.5880 C   0  0  0  0  0  0  0  0  0  0  0  0
   56.4620   31.2120   51.2960 N   0  0  0  0  0  0  0  0  0  0  0  0
   51.3360   32.2530   51.3370 C   0  0  0  0  0  0  0  0  0  0  0  0
   51.4640   32.6350   50.1430 O   0  0  0  0  0  0  0  0  0  0  0  0
   50.2970   32.7150   52.0790 N   0  0  0  0  0  0  0  0  0  0  0  0
   50.1210   32.3420   53.3470 N   0  0  0  0  0  0  0  0  0  0  0  0
   51.1881   31.8519   56.0509 H   0  0  0  0  0  0  0  0  0  0  0  0
   49.6748   31.0089   55.5757 H   0  0  0  0  0  0  0  0  0  0  0  0
   51.2359   30.1202   55.5757 H   0  0  0  0  0  0  0  0  0  0  0  0
   52.7867   30.3056   53.7345 H   0  0  0  0  0  0  0  0  0  0  0  0
   53.4741   31.1502   50.0643 H   0  0  0  0  0  0  0  0  0  0  0  0
   55.4237   29.5360   54.0467 H   0  0  0  0  0  0  0  0  0  0  0  0
   57.6818   30.2711   54.8316 H   0  0  0  0  0  0  0  0  0  0  0  0
   59.1508   31.6106   53.3122 H   0  0  0  0  0  0  0  0  0  0  0  0
   58.5432   33.2966   47.0315 H   0  0  0  0  0  0  0  0  0  0  0  0
   57.2160   32.3131   45.1632 H   0  0  0  0  0  0  0  0  0  0  0  0
   55.1970   28.6370   45.6440 H   0  0  0  0  0  0  0  0  0  0  0  0
   58.4171   28.3421   46.3991 H   0  0  0  0  0  0  0  0  0  0  0  0
   59.7508   29.3247   48.2619 H   0  0  0  0  0  0  0  0  0  0  0  0
  1  2  1  0
  2  3  1  0
  3  4  2  0
  4  5  1  0
  5  6  2  3
  6  7  1  0
  7  8  2  0
  8  9  1  0
  9 10  2  0
 10 11  1  0
 11 12  2  3
 12 13  1  0
 13 14  2  0
 13 15  1  0
 15 16  1  0
 16 17  2  0
 17 18  1  0
 18 19  2  0
 19 20  1  0
 20 21  1  0
 20 22  2  0
 20 23  2  0
 19 24  1  0
 24 25  2  0
 11 26  1  0
  4 27  1  0
 27 28  2  0
 27 29  1  0
 29 30  1  0
 30  2  2  0
 26  7  1  0
 25 16  1  0
  1 31  1  0
  1 32  1  0
  1 33  1  0
  3 34  1  0
  5 35  1  0
  8 36  1  0
  9 37  1  0
 10 38  1  0
 17 39  1  0
 18 40  1  0
 21 41  1  0
 24 42  1  0
 25 43  1  0
M  CHG  4  15  -1  21  -1  26  -1  29  -1
M  END
>  <UniqueID>  (2) 
2

>  <SMILES>  (2) 
Cc1cc(C=Nc2cccc(=NC(=O)[N-]c3ccc(S([NH-])(=O)=O)cc3)[n-]2)c(=O)[n-]n1

>  <Energy>  (2) 
65.90500154060804

>  <Genealogy>  (2) 
Cc1cc(C=Nc2cccc(=NC(=O)[N-]c3ccc(S([NH-])(=O)=O)cc3)[n-]2)c(=O)[n-]n1 (protonated)
Cc1cc(C=Nc2cccc(=NC(=O)[N-]c3ccc(S([NH-])(=O)=O)cc3)[n-]2)c(=O)[n-]n1 (3D coordinates assigned)
Cc1cc(C=Nc2cccc(=NC(=O)[N-]c3ccc(S([NH-])(=O)=O)cc3)[n-]2)c(=O)[n-]n1 (optimized conformer: 65.90500154060804 kcal/mol)

>  <smiles>  (2) 
Cc1cc(C=Nc2cccc(=NC(=O)Nc3ccc(S(N)(=O)=O)cc3)[nH]2)c(=O)[nH]n1

>  <score_type>  (2) 
oracle

>  <origin>  (2) 
adg

>  <m_score__min__energy>  (2) 
-16.280000000000001

>  <m_primary>  (2) 
energy

$$$$
2:0
     RDKit          3D

 37 39  0  0  0  0  0  0  0  0999 V2000
   54.3730   25.5380   45.6230 C   0  0  0  0  0  0  0  0  0  0  0  0
   55.2160   26.6310   45.9740 O   0  0  0  0  0  0  0  0  0  0  0  0
   56.6210   26.6010   45.9490 C   0  0  0  0  0  0  0  0  0  0  0  0
   57.3340   25.4640   46.3730 C   0  0  0  0  0  0  0  0  0  0  0  0
   58.7260   25.4570   46.3710 C   0  0  0  0  0  0  0  0  0  0  0  0
   59.4330   26.5800   45.9480 C   0  0  0  0  0  0  0  0  0  0  0  0
   58.7510   27.7280   45.5110 C   0  0  0  0  0  0  0  0  0  0  0  0
   57.3350   27.7410   45.5040 C   0  0  0  0  0  0  0  0  0  0  0  0
   56.6300   28.9740   45.0670 C   0  0  0  0  0  0  0  0  0  0  0  0
   55.3940   28.9580   44.8250 O   0  0  0  0  0  0  0  0  0  0  0  0
   57.4120   30.2140   44.8600 C   0  0  0  0  0  0  0  0  0  0  0  0
   56.9300   31.4110   45.0580 N   0  0  0  0  0  0  0  0  0  0  0  0
   57.4210   32.6710   44.4960 C   0  0  0  0  0  0  0  0  0  0  0  0
   58.2010   33.4550   45.5220 C   0  0  0  0  0  0  0  0  0  0  0  0
   58.9260   34.6000   45.1490 C   0  0  0  0  0  0  0  0  0  0  0  0
   59.6370   35.3280   46.1070 C   0  0  0  0  0  0  0  0  0  0  0  0
   59.6400   34.9130   47.4420 C   0  0  0  0  0  0  0  0  0  0  0  0
   58.9360   33.7660   47.8190 C   0  0  0  0  0  0  0  0  0  0  0  0
   58.2220   33.0360   46.8640 C   0  0  0  0  0  0  0  0  0  0  0  0
   58.8310   30.0790   44.3960 C   0  0  0  0  0  0  0  0  0  0  0  0
   59.5180   28.9190   45.0570 C   0  0  0  0  0  0  0  0  0  0  0  0
   60.7730   28.9450   45.1710 O   0  0  0  0  0  0  0  0  0  0  0  0
   53.9999   25.0542   46.5377 H   0  0  0  0  0  0  0  0  0  0  0  0
   53.5228   25.9063   45.0301 H   0  0  0  0  0  0  0  0  0  0  0  0
   54.9452   24.8093   45.0301 H   0  0  0  0  0  0  0  0  0  0  0  0
   56.7856   24.5717   46.7094 H   0  0  0  0  0  0  0  0  0  0  0  0
   59.2698   24.5610   46.7048 H   0  0  0  0  0  0  0  0  0  0  0  0
   60.5329   26.5680   45.9561 H   0  0  0  0  0  0  0  0  0  0  0  0
   58.0742   32.4517   43.6385 H   0  0  0  0  0  0  0  0  0  0  0  0
   56.5566   33.2729   44.1790 H   0  0  0  0  0  0  0  0  0  0  0  0
   58.9338   34.9246   44.0980 H   0  0  0  0  0  0  0  0  0  0  0  0
   60.1948   36.2284   45.8103 H   0  0  0  0  0  0  0  0  0  0  0  0
   60.1965   35.4893   48.1958 H   0  0  0  0  0  0  0  0  0  0  0  0
   58.9437   33.4371   48.8687 H   0  0  0  0  0  0  0  0  0  0  0  0
   57.6745   32.1302   47.1637 H   0  0  0  0  0  0  0  0  0  0  0  0
   58.8378   29.9251   43.3068 H   0  0  0  0  0  0  0  0  0  0  0  0
   59.3711   30.9988   44.6648 H   0  0  0  0  0  0  0  0  0  0  0  0
  1  2  1  0
  2  3  1  0
  3  4  2  0
  4  5  1  0
  5  6  2  0
  6  7  1  0
  7  8  2  0
  8  9  1  0
  9 10  2  0
  9 11  1  0
 11 12  2  3
 12 13  1  0
 13 14  1  0
 14 15  2  0
 15 16  1  0
 16 17  2  0
 17 18  1  0
 18 19  2  0
 11 20  1  0
 20 21  1  0
 21 22  2  0
  8  3  1  0
 19 14  1  0
 21  7  1  0
  1 23  1  0
  1 24  1  0
  1 25  1  0
  4 26  1  0
  5 27  1  0
  6 28  1  0
 13 29  1  0
 13 30  1  0
 15 31  1  0
 16 32  1  0
 17 33  1  0
 18 34  1  0
 19 35  1  0
 20 36  1  0
 20 37  1  0
M  END
>  <UniqueID>  (3) 
3

>  <SMILES>  (3) 
COc1cccc2c1C(=O)C(=NCc1ccccc1)CC2=O

>  <Energy>  (3) 
46.174081906229084

>  <Genealogy>  (3) 
COc1cccc2c1C(=O)C(=NCc1ccccc1)CC2=O (3D coordinates assigned)
COc1cccc2c1C(=O)C(=NCc1ccccc1)CC2=O (nonaromatic ring conformer: 46.174081906229084 kcal/mol)

>  <smiles>  (3) 
COc1cccc2c1C(=O)C(=NCc1ccccc1)CC2=O

>  <score_type>  (3) 
oracle

>  <origin>  (3) 
adg

>  <m_score__min__energy>  (3) 
-9.2200000000000006

>  <m_primary>  (3) 
energy

$$$$
3:0
     RDKit          3D

 49 52  0  0  0  0  0  0  0  0999 V2000
   60.1570   21.7080   45.5200 N   0  0  0  0  0  0  0  0  0  0  0  0
   58.5360   21.6430   44.9250 S   0  0  0  0  0  0  0  0  0  0  0  0
   57.7990   20.5100   45.5840 O   0  0  0  0  0  0  0  0  0  0  0  0
   58.5570   21.4040   43.4400 O   0  0  0  0  0  0  0  0  0  0  0  0
   57.7230   23.1640   45.2720 C   0  0  0  0  0  0  0  0  0  0  0  0
   56.6160   23.1930   46.1490 C   0  0  0  0  0  0  0  0  0  0  0  0
   55.9500   24.4000   46.4220 C   0  0  0  0  0  0  0  0  0  0  0  0
   56.4000   25.5680   45.8060 C   0  0  0  0  0  0  0  0  0  0  0  0
   55.8400   26.7930   45.9840 N   0  0  0  0  0  0  0  0  0  0  0  0
   56.4870   27.7340   45.2540 C   0  0  0  0  0  0  0  0  0  0  0  0
   56.1180   28.9820   45.2730 N   0  0  0  0  0  0  0  0  0  0  0  0
   55.8430   29.8380   44.1500 C   0  0  0  0  0  0  0  0  0  0  0  0
   54.8280   29.6460   43.4270 O   0  0  0  0  0  0  0  0  0  0  0  0
   56.7620   30.9600   43.8390 C   0  0  0  0  0  0  0  0  0  0  0  0
   57.0930   31.2630   42.5060 C   0  0  0  0  0  0  0  0  0  0  0  0
   57.9620   32.3180   42.2130 C   0  0  0  0  0  0  0  0  0  0  0  0
   58.5070   33.0840   43.2440 C   0  0  0  0  0  0  0  0  0  0  0  0
   58.1840   32.8020   44.5770 C   0  0  0  0  0  0  0  0  0  0  0  0
   58.8760   33.7750   45.8720 S   0  0  0  0  0  0  0  0  0  0  0  0
   59.7330   34.8700   45.2960 O   0  0  0  0  0  0  0  0  0  0  0  0
   57.7620   34.3910   46.6690 O   0  0  0  0  0  0  0  0  0  0  0  0
   59.8410   32.7790   46.9190 N   0  0  0  0  0  0  0  0  0  0  0  0
   58.9860   31.8390   47.6390 C   0  0  0  0  0  0  0  0  0  0  0  0
   59.3400   30.4400   47.2300 C   0  0  0  0  0  0  0  0  0  0  0  0
   59.0200   29.3580   48.0660 C   0  0  0  0  0  0  0  0  0  0  0  0
   59.3790   28.0570   47.7020 C   0  0  0  0  0  0  0  0  0  0  0  0
   60.0720   27.8280   46.5100 C   0  0  0  0  0  0  0  0  0  0  0  0
   60.4090   28.9010   45.6810 C   0  0  0  0  0  0  0  0  0  0  0  0
   60.0510   30.2050   46.0410 C   0  0  0  0  0  0  0  0  0  0  0  0
   57.3180   31.7390   44.8730 C   0  0  0  0  0  0  0  0  0  0  0  0
   57.7780   27.0780   44.3610 S   0  0  0  0  0  0  0  0  0  0  0  0
   57.4830   25.5320   44.9430 C   0  0  0  0  0  0  0  0  0  0  0  0
   58.1620   24.3510   44.6550 C   0  0  0  0  0  0  0  0  0  0  0  0
   60.3930   20.7520   45.8680 H   0  0  0  0  0  0  0  0  0  0  0  0
   60.7770   21.8930   44.7010 H   0  0  0  0  0  0  0  0  0  0  0  0
   56.2719   22.2618   46.6228 H   0  0  0  0  0  0  0  0  0  0  0  0
   55.0905   24.4233   47.1081 H   0  0  0  0  0  0  0  0  0  0  0  0
   56.6648   30.6653   41.6879 H   0  0  0  0  0  0  0  0  0  0  0  0
   58.2167   32.5448   41.1672 H   0  0  0  0  0  0  0  0  0  0  0  0
   59.1923   33.9117   43.0090 H   0  0  0  0  0  0  0  0  0  0  0  0
   59.1401   31.9562   48.7218 H   0  0  0  0  0  0  0  0  0  0  0  0
   57.9313   32.0392   47.3991 H   0  0  0  0  0  0  0  0  0  0  0  0
   58.4849   29.5349   49.0107 H   0  0  0  0  0  0  0  0  0  0  0  0
   59.1156   27.2118   48.3549 H   0  0  0  0  0  0  0  0  0  0  0  0
   60.3520   26.8032   46.2246 H   0  0  0  0  0  0  0  0  0  0  0  0
   60.9564   28.7205   44.7441 H   0  0  0  0  0  0  0  0  0  0  0  0
   60.3270   31.0486   45.3913 H   0  0  0  0  0  0  0  0  0  0  0  0
   57.0710   31.5118   45.9206 H   0  0  0  0  0  0  0  0  0  0  0  0
   59.0181   24.3455   43.9643 H   0  0  0  0  0  0  0  0  0  0  0  0
  1  2  1  0
  2  3  2  0
  2  4  2  0
  2  5  1  0
  5  6  2  0
  6  7  1  0
  7  8  2  0
  8  9  1  0
  9 10  1  0
 10 11  2  3
 11 12  1  0
 12 13  2  0
 12 14  1  0
 14 15  2  0
 15 16  1  0
 16 17  2  0
 17 18  1  0
 18 19  1  0
 19 20  2  0
 19 21  2  0
 19 22  1  0
 22 23  1  0
 23 24  1  0
 24 25  2  0
 25 26  1  0
 26 27  2  0
 27 28  1  0
 28 29  2  0
 18 30  2  0
 10 31  1  0
 31 32  1  0
 32 33  2  0
 33  5  1  0
 32  8  1  0
 30 14  1  0
 29 24  1  0
  1 34  1  0
  1 35  1  0
  6 36  1  0
  7 37  1  0
 15 38  1  0
 16 39  1  0
 17 40  1  0
 23 41  1  0
 23 42  1  0
 25 43  1  0
 26 44  1  0
 27 45  1  0
 28 46  1  0
 29 47  1  0
 30 48  1  0
 33 49  1  0
M  CHG  2   9  -1  22  -1
M  END
>  <UniqueID>  (4) 
4

>  <SMILES>  (4) 
NS(=O)(=O)c1ccc2[n-]c(=NC(=O)c3cccc(S(=O)(=O)[N-]Cc4ccccc4)c3)sc2c1

>  <Energy>  (4) 
89.01326727593585

>  <Genealogy>  (4) 
NS(=O)(=O)c1ccc2[n-]c(=NC(=O)c3cccc(S(=O)(=O)[N-]Cc4ccccc4)c3)sc2c1 (protonated)
NS(=O)(=O)c1ccc2[n-]c(=NC(=O)c3cccc(S(=O)(=O)[N-]Cc4ccccc4)c3)sc2c1 (3D coordinates assigned)
NS(=O)(=O)c1ccc2[n-]c(=NC(=O)c3cccc(S(=O)(=O)[N-]Cc4ccccc4)c3)sc2c1 (optimized conformer: 89.01326727593585 kcal/mol)

>  <smiles>  (4) 
NS(=O)(=O)c1ccc2[nH]c(=NC(=O)c3cccc(S(=O)(=O)NCc4ccccc4)c3)sc2c1

>  <score_type>  (4) 
oracle

>  <origin>  (4) 
adg

>  <m_score__min__energy>  (4) 
-13.56

>  <m_primary>  (4) 
energy

$$$$
4:0
     RDKit          3D

 44 46  0  0  0  0  0  0  0  0999 V2000
   61.6605   32.1954   49.8483 H   0  0  0  0  0  0  0  0  0  0  0  0
   62.0560   32.6560   48.9310 C   0  0  0  0  0  0  0  0  0  0  0  0
   61.1850   33.0170   47.8990 C   0  0  0  0  0  0  0  0  0  0  0  0
   60.1051   32.8384   48.0082 H   0  0  0  0  0  0  0  0  0  0  0  0
   61.6780   33.6050   46.7260 C   0  0  0  0  0  0  0  0  0  0  0  0
   60.7490   33.9660   45.6960 N   0  0  0  0  0  0  0  0  0  0  0  0
   59.0260   34.0370   45.8830 S   0  0  0  0  0  0  0  0  0  0  0  0
   58.7040   34.5580   47.2570 O   0  0  0  0  0  0  0  0  0  0  0  0
   58.4570   34.9770   44.8580 O   0  0  0  0  0  0  0  0  0  0  0  0
   58.3250   32.4400   45.6440 C   0  0  0  0  0  0  0  0  0  0  0  0
   57.3990   32.2290   44.6160 C   0  0  0  0  0  0  0  0  0  0  0  0
   57.1048   33.0645   43.9637 H   0  0  0  0  0  0  0  0  0  0  0  0
   56.8470   30.9620   44.4150 C   0  0  0  0  0  0  0  0  0  0  0  0
   56.1129   30.8077   43.6105 H   0  0  0  0  0  0  0  0  0  0  0  0
   57.2220   29.8840   45.2320 C   0  0  0  0  0  0  0  0  0  0  0  0
   56.6240   28.5950   45.0170 N   0  0  0  0  0  0  0  0  0  0  0  0
   56.2050   28.3950   44.0810 H   0  0  0  0  0  0  0  0  0  0  0  0
   56.6640   27.5180   45.9640 C   0  0  0  0  0  0  0  0  0  0  0  0
   57.4190   27.5850   46.9730 O   0  0  0  0  0  0  0  0  0  0  0  0
   55.8670   26.3490   45.7210 N   0  0  0  0  0  0  0  0  0  0  0  0
   56.2020   25.1230   45.9920 C   0  0  0  0  0  0  0  0  0  0  0  0
   55.8730   24.4670   47.1250 N   0  0  0  0  0  0  0  0  0  0  0  0
   56.3920   23.2530   47.0290 N   0  0  0  0  0  0  0  0  0  0  0  0
   56.2610   22.2340   48.0630 C   0  0  0  0  0  0  0  0  0  0  0  0
   56.3219   22.7074   49.0541 H   0  0  0  0  0  0  0  0  0  0  0  0
   55.2903   21.7273   47.9576 H   0  0  0  0  0  0  0  0  0  0  0  0
   57.0720   21.4983   47.9576 H   0  0  0  0  0  0  0  0  0  0  0  0
   57.0480   23.1290   45.8550 C   0  0  0  0  0  0  0  0  0  0  0  0
   57.7600   21.8970   45.3910 C   0  0  0  0  0  0  0  0  0  0  0  0
   58.0953   21.3168   46.2633 H   0  0  0  0  0  0  0  0  0  0  0  0
   57.0764   21.2850   44.7843 H   0  0  0  0  0  0  0  0  0  0  0  0
   58.6316   22.1838   44.7843 H   0  0  0  0  0  0  0  0  0  0  0  0
   56.9460   24.3160   45.1560 C   0  0  0  0  0  0  0  0  0  0  0  0
   57.3601   24.5602   44.1666 H   0  0  0  0  0  0  0  0  0  0  0  0
   58.1300   30.1070   46.2830 C   0  0  0  0  0  0  0  0  0  0  0  0
   58.4075   29.2785   46.9512 H   0  0  0  0  0  0  0  0  0  0  0  0
   58.6820   31.3770   46.4830 C   0  0  0  0  0  0  0  0  0  0  0  0
   59.3984   31.5410   47.3015 H   0  0  0  0  0  0  0  0  0  0  0  0
   63.0630   33.8230   46.5960 C   0  0  0  0  0  0  0  0  0  0  0  0
   63.4628   34.2791   45.6783 H   0  0  0  0  0  0  0  0  0  0  0  0
   63.9320   33.4610   47.6310 C   0  0  0  0  0  0  0  0  0  0  0  0
   65.0132   33.6341   47.5259 H   0  0  0  0  0  0  0  0  0  0  0  0
   63.4290   32.8800   48.7980 C   0  0  0  0  0  0  0  0  0  0  0  0
   64.2730   32.5290   49.8000 F   0  0  0  0  0  0  0  0  0  0  0  0
  1  2  1  0
  2  3  2  0
  3  4  1  0
  3  5  1  0
  5  6  1  0
  6  7  1  0
  7  8  2  0
  7  9  2  0
  7 10  1  0
 10 11  2  0
 11 12  1  0
 11 13  1  0
 13 14  1  0
 13 15  2  0
 15 16  1  0
 16 17  1  0
 16 18  1  0
 18 19  2  0
 18 20  1  0
 20 21  2  0
 21 22  1  0
 22 23  1  0
 23 24  1  0
 24 25  1  0
 24 26  1  0
 24 27  1  0
 23 28  1  0
 28 29  1  0
 29 30  1  0
 29 31  1  0
 29 32  1  0
 28 33  2  0
 33 34  1  0
 15 35  1  0
 35 36  1  0
 35 37  2  0
 37 38  1  0
  5 39  2  0
 39 40  1  0
 39 41  1  0
 41 42  1  0
 41 43  2  0
 43 44  1  0
 43  2  1  0
 37 10  1  0
 33 21  1  0
M  CHG  2   6  -1  22  -1
M  END
>  <UniqueID>  (5) 
5

>  <SMILES>  (5) 
Cc1c/c(=N/C(=O)Nc2ccc(S(=O)(=O)[N-]c3ccc(F)cc3)cc2)[n-]n1C

>  <Energy>  (5) 
83.0874500152609

>  <Genealogy>  (5) 
Cc1cc(=NC(=O)Nc2ccc(S(=O)(=O)[N-]c3ccc(F)cc3)cc2)[n-]n1C (protonated)
Cc1c/c(=N/C(=O)Nc2ccc(S(=O)(=O)[N-]c3ccc(F)cc3)cc2)[n-]n1C (cis-trans isomerization)
Cc1c/c(=N/C(=O)Nc2ccc(S(=O)(=O)[N-]c3ccc(F)cc3)cc2)[n-]n1C (3D coordinates assigned)
Cc1c/c(=N/C(=O)Nc2ccc(S(=O)(=O)[N-]c3ccc(F)cc3)cc2)[n-]n1C (optimized conformer: 83.0874500152609 kcal/mol)

>  <smiles>  (5) 
Cc1cc(=NC(=O)Nc2ccc(S(=O)(=O)Nc3ccc(F)cc3)cc2)[nH]n1C

>  <score_type>  (5) 
oracle

>  <origin>  (5) 
adg

>  <m_score__min__energy>  (5) 
-11.050000000000001

>  <m_primary>  (5) 
energy

$$$$
5:0
     RDKit          3D

 41 44  0  0  1  0  0  0  0  0999 V2000
   65.3960   32.1980   50.1540 C   0  0  0  0  0  0  0  0  0  0  0  0
   64.8010   33.4150   49.7490 O   0  0  0  0  0  0  0  0  0  0  0  0
   63.7430   33.3740   48.8940 C   0  0  0  0  0  0  0  0  0  0  0  0
   63.9910   33.5480   47.5520 C   0  0  0  0  0  0  0  0  0  0  0  0
   62.8940   33.4960   46.7540 C   0  0  0  0  0  0  0  0  0  0  0  0
   61.6370   33.2880   47.2570 C   0  0  0  0  0  0  0  0  0  0  0  0
   61.3110   33.1080   48.6120 C   0  0  0  0  0  0  0  0  0  0  0  0
   62.4940   33.1680   49.3690 C   0  0  0  0  0  0  0  0  0  0  0  0
   62.1240   32.8330   51.0240 S   0  0  0  0  0  0  0  0  0  0  0  0
   60.3360   32.6210   50.6690 C   0  0  0  0  0  0  0  0  0  0  0  0
   59.3920   32.3330   51.5700 N   0  0  0  0  0  0  0  0  0  0  0  0
   58.1400   32.2320   51.1690 C   0  0  0  0  0  0  0  0  0  0  0  0
   56.9800   31.8760   52.2280 S   0  0  0  0  0  0  0  0  0  0  0  0
   57.8880   32.4350   49.8730 N   0  0  0  0  0  0  0  0  0  0  0  0
   58.8480   32.7320   48.9520 C   0  0  0  0  0  0  0  0  0  0  0  0
   58.4910   33.1020   47.8750 N   0  0  0  0  0  0  0  0  0  0  0  0
   58.4250   32.8650   46.6110 C   0  0  0  0  0  0  0  0  0  0  0  0
   58.8160   33.8420   45.6390 C   0  0  0  0  0  0  0  0  0  0  0  0
   58.5980   33.6500   44.3150 C   0  0  0  0  0  0  0  0  0  0  0  0
   57.9900   32.5040   43.8490 C   0  0  0  0  0  0  0  0  0  0  0  0
   57.7640   32.3190   42.4100 C   0  0  0  0  0  0  0  0  0  0  0  0
   57.5960   31.5360   44.7490 C   0  0  0  0  0  0  0  0  0  0  0  0
   56.9550   30.3170   44.3170 N   0  0  0  0  0  0  0  0  0  0  0  0
   57.6120   29.4150   43.7590 O   0  0  0  0  0  0  0  0  0  0  0  0
   55.6100   30.1030   44.5000 O   0  0  0  0  0  0  0  0  0  0  0  0
   57.7930   31.6800   46.1070 C   0  0  0  0  0  0  0  0  0  0  0  0
   60.2060   32.8320   49.3270 C   0  0  0  0  0  0  0  0  0  0  0  0
   65.4198   32.1493   51.2527 H   0  0  0  0  0  0  0  0  0  0  0  0
   64.8087   31.3545   49.7622 H   0  0  0  0  0  0  0  0  0  0  0  0
   66.4224   32.1434   49.7622 H   0  0  0  0  0  0  0  0  0  0  0  0
   65.0029   33.7167   47.1551 H   0  0  0  0  0  0  0  0  0  0  0  0
   63.0185   33.6250   45.6687 H   0  0  0  0  0  0  0  0  0  0  0  0
   60.8077   33.2593   46.5349 H   0  0  0  0  0  0  0  0  0  0  0  0
   59.6160   32.1870   52.5660 H   0  0  0  0  0  0  0  0  0  0  0  0
   56.8670   32.3440   49.6000 H   0  0  0  0  0  0  0  0  0  0  0  0
   59.3041   34.7689   45.9746 H   0  0  0  0  0  0  0  0  0  0  0  0
   58.9123   34.4235   43.5988 H   0  0  0  0  0  0  0  0  0  0  0  0
   56.9211   31.6290   42.2570 H   0  0  0  0  0  0  0  0  0  0  0  0
   57.5319   33.2897   41.9475 H   0  0  0  0  0  0  0  0  0  0  0  0
   58.6697   31.8997   41.9475 H   0  0  0  0  0  0  0  0  0  0  0  0
   57.4671   30.8901   46.7997 H   0  0  0  0  0  0  0  0  0  0  0  0
  1  2  1  0
  2  3  1  0
  3  4  2  0
  4  5  1  0
  5  6  2  0
  6  7  1  0
  7  8  2  0
  8  9  1  0
  9 10  1  0
 10 11  1  0
 11 12  1  0
 12 13  2  0
 12 14  1  0
 14 15  1  0
 15 16  2  0
 16 17  1  0
 17 18  2  0
 18 19  1  0
 19 20  2  0
 20 21  1  0
 20 22  1  0
 22 23  1  0
 23 24  2  0
 23 25  1  0
 22 26  2  0
 15 27  1  0
  8  3  1  0
 27 10  2  0
 27  7  1  0
 26 17  1  0
  1 28  1  0
  1 29  1  0
  1 30  1  0
  4 31  1  0
  5 32  1  0
  6 33  1  0
 11 34  1  0
 14 35  1  0
 18 36  1  0
 19 37  1  0
 21 38  1  0
 21 39  1  0
 21 40  1  0
 26 41  1  0
M  CHG  2  23   1  25  -1
M  END
>  <smiles>  (6) 
COc1cccc2c1sc1[nH]c(=S)[nH]c(=Nc3ccc(C)c([N+](=O)[O-])c3)c12

>  <score_type>  (6) 
oracle

>  <origin>  (6) 
adg

>  <m_score__min__energy>  (6) 
-8.7599999999999998

>  <m_primary>  (6) 
energy

$$$$
6:0
     RDKit          3D

 39 42  0  0  0  0  0  0  0  0999 V2000
   58.1870   25.6550   46.7620 C   0  0  0  0  0  0  0  0  0  0  0  0
   58.3440   27.0420   46.2140 C   0  0  0  0  0  0  0  0  0  0  0  0
   59.5760   27.7070   46.3160 C   0  0  0  0  0  0  0  0  0  0  0  0
   59.7170   29.0120   45.8390 C   0  0  0  0  0  0  0  0  0  0  0  0
   58.6250   29.6740   45.2710 C   0  0  0  0  0  0  0  0  0  0  0  0
   58.7680   30.9460   44.8110 N   0  0  0  0  0  0  0  0  0  0  0  0
   57.7330   31.6370   44.2640 C   0  0  0  0  0  0  0  0  0  0  0  0
   57.9630   33.0220   43.7430 C   0  0  0  0  0  0  0  0  0  0  0  0
   57.1710   34.2270   44.8560 S   0  0  0  0  0  0  0  0  0  0  0  0
   58.2740   33.8600   46.2160 C   0  0  0  0  0  0  0  0  0  0  0  0
   57.8640   33.4550   47.4310 N   0  0  0  0  0  0  0  0  0  0  0  0
   58.9610   33.2900   48.1520 N   0  0  0  0  0  0  0  0  0  0  0  0
   59.9970   33.5990   47.3470 C   0  0  0  0  0  0  0  0  0  0  0  0
   61.4150   33.5520   47.7540 C   0  0  0  0  0  0  0  0  0  0  0  0
   61.7930   33.8560   49.0740 C   0  0  0  0  0  0  0  0  0  0  0  0
   63.1390   33.8080   49.4500 C   0  0  0  0  0  0  0  0  0  0  0  0
   64.1170   33.4580   48.5160 C   0  0  0  0  0  0  0  0  0  0  0  0
   63.7510   33.1540   47.2030 C   0  0  0  0  0  0  0  0  0  0  0  0
   62.4060   33.1990   46.8210 C   0  0  0  0  0  0  0  0  0  0  0  0
   59.5790   33.9500   46.1540 O   0  0  0  0  0  0  0  0  0  0  0  0
   56.4770   31.0280   44.1420 C   0  0  0  0  0  0  0  0  0  0  0  0
   56.2920   29.7220   44.6050 C   0  0  0  0  0  0  0  0  0  0  0  0
   55.1570   29.1840   44.4990 O   0  0  0  0  0  0  0  0  0  0  0  0
   57.3720   29.0250   45.1780 C   0  0  0  0  0  0  0  0  0  0  0  0
   57.2400   27.7090   45.6590 C   0  0  0  0  0  0  0  0  0  0  0  0
   58.1912   25.6925   47.8614 H   0  0  0  0  0  0  0  0  0  0  0  0
   57.2349   25.2286   46.4133 H   0  0  0  0  0  0  0  0  0  0  0  0
   59.0197   25.0265   46.4133 H   0  0  0  0  0  0  0  0  0  0  0  0
   60.4359   27.1969   46.7746 H   0  0  0  0  0  0  0  0  0  0  0  0
   60.6900   29.5201   45.9105 H   0  0  0  0  0  0  0  0  0  0  0  0
   59.0437   33.2214   43.6956 H   0  0  0  0  0  0  0  0  0  0  0  0
   57.5297   33.1122   42.7360 H   0  0  0  0  0  0  0  0  0  0  0  0
   61.0270   34.1326   49.8135 H   0  0  0  0  0  0  0  0  0  0  0  0
   63.4285   34.0465   50.4841 H   0  0  0  0  0  0  0  0  0  0  0  0
   65.1751   33.4219   48.8146 H   0  0  0  0  0  0  0  0  0  0  0  0
   64.5216   32.8787   46.4679 H   0  0  0  0  0  0  0  0  0  0  0  0
   62.1224   32.9571   45.7861 H   0  0  0  0  0  0  0  0  0  0  0  0
   55.6400   31.5753   43.6838 H   0  0  0  0  0  0  0  0  0  0  0  0
   56.2666   27.2001   45.5999 H   0  0  0  0  0  0  0  0  0  0  0  0
  1  2  1  0
  2  3  2  0
  3  4  1  0
  4  5  2  0
  5  6  1  0
  6  7  1  0
  7  8  1  0
  8  9  1  0
  9 10  1  0
 10 11  2  0
 11 12  1  0
 12 13  2  0
 13 14  1  0
 14 15  2  0
 15 16  1  0
 16 17  2  0
 17 18  1  0
 18 19  2  0
 13 20  1  0
  7 21  2  0
 21 22  1  0
 22 23  2  0
 22 24  1  0
 24 25  2  0
 25  2  1  0
 24  5  1  0
 20 10  1  0
 19 14  1  0
  1 26  1  0
  1 27  1  0
  1 28  1  0
  3 29  1  0
  4 30  1  0
  8 31  1  0
  8 32  1  0
 15 33  1  0
 16 34  1  0
 17 35  1  0
 18 36  1  0
 19 37  1  0
 21 38  1  0
 25 39  1  0
M  CHG  1   6  -1
M  END
>  <UniqueID>  (7) 
6

>  <SMILES>  (7) 
Cc1ccc2[n-]c(CSc3nnc(-c4ccccc4)o3)cc(=O)c2c1

>  <Energy>  (7) 
77.56616780643957

>  <Genealogy>  (7) 
Cc1ccc2[n-]c(CSc3nnc(-c4ccccc4)o3)cc(=O)c2c1 (protonated)
Cc1ccc2[n-]c(CSc3nnc(-c4ccccc4)o3)cc(=O)c2c1 (3D coordinates assigned)
Cc1ccc2[n-]c(CSc3nnc(-c4ccccc4)o3)cc(=O)c2c1 (optimized conformer: 77.56616780643957 kcal/mol)

>  <smiles>  (7) 
Cc1ccc2[nH]c(CSc3nnc(-c4ccccc4)o3)cc(=O)c2c1

>  <score_type>  (7) 
oracle

>  <origin>  (7) 
adg

>  <m_score__min__energy>  (7) 
-10.65

>  <m_primary>  (7) 
energy

$$$$
7:0
     RDKit          3D

 31 32  0  0  0  0  0  0  0  0999 V2000
   58.6100   33.7100   47.2110 C   0  0  0  0  0  0  0  0  0  0  0  0
   59.0170   34.3550   45.5600 S   0  0  0  0  0  0  0  0  0  0  0  0
   58.0580   33.1050   44.7130 C   0  0  0  0  0  0  0  0  0  0  0  0
   58.5220   32.5530   43.6340 N   0  0  0  0  0  0  0  0  0  0  0  0
   57.7300   31.5840   42.8750 C   0  0  0  0  0  0  0  0  0  0  0  0
   56.8270   30.7530   43.8060 C   0  0  1  0  0  0  0  0  0  0  0  0
   57.5890   29.5960   44.4250 C   0  0  0  0  0  0  0  0  0  0  0  0
   58.9950   29.5890   44.5030 C   0  0  0  0  0  0  0  0  0  0  0  0
   59.6680   28.4870   45.0370 C   0  0  0  0  0  0  0  0  0  0  0  0
   58.9530   27.3770   45.4900 C   0  0  0  0  0  0  0  0  0  0  0  0
   57.5550   27.3640   45.4130 C   0  0  0  0  0  0  0  0  0  0  0  0
   56.6490   25.9550   45.9570 S   0  0  0  0  0  0  0  0  0  0  0  0
   56.9160   24.6100   44.8260 C   0  0  0  0  0  0  0  0  0  0  0  0
   55.1830   26.2870   46.0090 O   0  0  0  0  0  0  0  0  0  0  0  0
   57.1010   25.5520   47.3320 O   0  0  0  0  0  0  0  0  0  0  0  0
   56.8790   28.4660   44.8720 C   0  0  0  0  0  0  0  0  0  0  0  0
   56.2310   31.6130   44.8370 N   0  0  0  0  0  0  0  0  0  0  0  0
   56.8070   32.6710   45.2590 N   0  0  0  0  0  0  0  0  0  0  0  0
   59.0304   34.3762   47.9788 H   0  0  0  0  0  0  0  0  0  0  0  0
   57.5172   33.6611   47.3264 H   0  0  0  0  0  0  0  0  0  0  0  0
   59.0363   32.7026   47.3264 H   0  0  0  0  0  0  0  0  0  0  0  0
   57.1006   32.1229   42.1515 H   0  0  0  0  0  0  0  0  0  0  0  0
   58.4185   30.9009   42.3561 H   0  0  0  0  0  0  0  0  0  0  0  0
   56.0139   30.3213   43.2040 H   0  0  0  0  0  0  0  0  0  0  0  0
   59.5669   30.4563   44.1414 H   0  0  0  0  0  0  0  0  0  0  0  0
   60.7661   28.4942   45.1007 H   0  0  0  0  0  0  0  0  0  0  0  0
   59.4884   26.5117   45.9079 H   0  0  0  0  0  0  0  0  0  0  0  0
   57.0996   23.6853   45.3928 H   0  0  0  0  0  0  0  0  0  0  0  0
   56.0259   24.4813   44.1927 H   0  0  0  0  0  0  0  0  0  0  0  0
   57.7878   24.8311   44.1927 H   0  0  0  0  0  0  0  0  0  0  0  0
   55.7818   28.4476   44.7959 H   0  0  0  0  0  0  0  0  0  0  0  0
  1  2  1  0
  2  3  1  0
  3  4  2  0
  4  5  1  0
  5  6  1  0
  6  7  1  0
  7  8  2  0
  8  9  1  0
  9 10  2  0
 10 11  1  0
 11 12  1  0
 12 13  1  0
 12 14  2  0
 12 15  2  0
 11 16  2  0
  6 17  1  0
 17 18  2  0
 18  3  1  0
 16  7  1  0
  1 19  1  0
  1 20  1  0
  1 21  1  0
  5 22  1  0
  5 23  1  0
  6 24  1  6
  8 25  1  0
  9 26  1  0
 10 27  1  0
 13 28  1  0
 13 29  1  0
 13 30  1  0
 16 31  1  0
M  END
>  <UniqueID>  (8) 
7

>  <SMILES>  (8) 
CSC1=NC[C@@H](c2cccc(S(C)(=O)=O)c2)N=N1

>  <Energy>  (8) 
27.759113999484438

>  <Genealogy>  (8) 
CSC1=NC[C@@H](c2cccc(S(C)(=O)=O)c2)N=N1 (chirality)
CSC1=NC[C@@H](c2cccc(S(C)(=O)=O)c2)N=N1 (3D coordinates assigned)
CSC1=NC[C@@H](c2cccc(S(C)(=O)=O)c2)N=N1 (nonaromatic ring conformer: 27.759113999484438 kcal/mol)

>  <smiles>  (8) 
CSC1=NCC(c2cccc(S(C)(=O)=O)c2)N=N1

>  <score_type>  (8) 
oracle

>  <origin>  (8) 
adg

>  <m_score__min__energy>  (8) 
-7.9800000000000004

>  <m_primary>  (8) 
energy

$$$$
8:0
     RDKit          3D

 42 43  0  0  0  0  0  0  0  0999 V2000
   57.0060   22.2300   43.4490 C   0  0  0  0  0  0  0  0  0  0  0  0
   56.3280   23.5930   43.5280 C   0  0  0  0  0  0  0  0  0  0  0  0
   54.9170   23.4460   43.6730 O   0  0  0  0  0  0  0  0  0  0  0  0
   54.2330   23.7290   44.8610 C   0  0  0  0  0  0  0  0  0  0  0  0
   53.2700   23.0050   45.2330 O   0  0  0  0  0  0  0  0  0  0  0  0
   54.6710   24.8620   45.6930 C   0  0  0  0  0  0  0  0  0  0  0  0
   54.0410   25.9500   45.6260 O   0  0  0  0  0  0  0  0  0  0  0  0
   55.8330   24.7870   46.5290 N   0  0  0  0  0  0  0  0  0  0  0  0
   57.0560   25.5170   46.3470 C   0  0  0  0  0  0  0  0  0  0  0  0
   58.2700   24.8630   46.0750 C   0  0  0  0  0  0  0  0  0  0  0  0
   59.4440   25.6020   45.9140 C   0  0  0  0  0  0  0  0  0  0  0  0
   59.4210   26.9920   46.0450 C   0  0  0  0  0  0  0  0  0  0  0  0
   58.2270   27.6570   46.3640 C   0  0  0  0  0  0  0  0  0  0  0  0
   58.2280   29.0900   46.4830 N   0  0  0  0  0  0  0  0  0  0  0  0
   57.4510   29.9630   45.6470 C   0  0  0  0  0  0  0  0  0  0  0  0
   56.4210   29.5240   45.0670 O   0  0  0  0  0  0  0  0  0  0  0  0
   57.8030   31.3980   45.5180 C   0  0  0  0  0  0  0  0  0  0  0  0
   57.6440   32.0320   44.2730 C   0  0  0  0  0  0  0  0  0  0  0  0
   57.9540   33.3840   44.1190 C   0  0  0  0  0  0  0  0  0  0  0  0
   58.4320   34.1190   45.2030 C   0  0  0  0  0  0  0  0  0  0  0  0
   58.6130   33.5020   46.4420 C   0  0  0  0  0  0  0  0  0  0  0  0
   58.3110   32.1340   46.6130 C   0  0  0  0  0  0  0  0  0  0  0  0
   58.5290   31.4830   47.8380 O   0  0  0  0  0  0  0  0  0  0  0  0
   59.5380   31.8390   48.7780 C   0  0  0  0  0  0  0  0  0  0  0  0
   57.0430   26.9080   46.5040 C   0  0  0  0  0  0  0  0  0  0  0  0
   57.1930   21.8540   44.4657 H   0  0  0  0  0  0  0  0  0  0  0  0
   56.3530   21.5262   42.9122 H   0  0  0  0  0  0  0  0  0  0  0  0
   57.9613   22.3262   42.9122 H   0  0  0  0  0  0  0  0  0  0  0  0
   56.7246   24.1440   44.3935 H   0  0  0  0  0  0  0  0  0  0  0  0
   56.5326   24.1444   42.5984 H   0  0  0  0  0  0  0  0  0  0  0  0
   58.2954   23.7667   45.9888 H   0  0  0  0  0  0  0  0  0  0  0  0
   60.3888   25.0880   45.6835 H   0  0  0  0  0  0  0  0  0  0  0  0
   60.3452   27.5698   45.8971 H   0  0  0  0  0  0  0  0  0  0  0  0
   58.7470   29.5170   47.2830 H   0  0  0  0  0  0  0  0  0  0  0  0
   57.2718   31.4569   43.4123 H   0  0  0  0  0  0  0  0  0  0  0  0
   57.8211   33.8702   43.1413 H   0  0  0  0  0  0  0  0  0  0  0  0
   58.6669   35.1868   45.0817 H   0  0  0  0  0  0  0  0  0  0  0  0
   58.9942   34.0869   47.2921 H   0  0  0  0  0  0  0  0  0  0  0  0
   59.1523   31.7029   49.7991 H   0  0  0  0  0  0  0  0  0  0  0  0
   60.4193   31.1976   48.6304 H   0  0  0  0  0  0  0  0  0  0  0  0
   59.8217   32.8915   48.6304 H   0  0  0  0  0  0  0  0  0  0  0  0
   56.0987   27.4208   46.7390 H   0  0  0  0  0  0  0  0  0  0  0  0
  1  2  1  0
  2  3  1  0
  3  4  1  0
  4  5  2  0
  4  6  1  0
  6  7  2  0
  6  8  1  0
  8  9  1  0
  9 10  2  0
 10 11  1  0
 11 12  2  0
 12 13  1  0
 13 14  1  0
 14 15  1  0
 15 16  2  0
 15 17  1  0
 17 18  2  0
 18 19  1  0
 19 20  2  0
 20 21  1  0
 21 22  2  0
 22 23  1  0
 23 24  1  0
 13 25  2  0
 25  9  1  0
 22 17  1  0
  1 26  1  0
  1 27  1  0
  1 28  1  0
  2 29  1  0
  2 30  1  0
 10 31  1  0
 11 32  1  0
 12 33  1  0
 14 34  1  0
 18 35  1  0
 19 36  1  0
 20 37  1  0
 21 38  1  0
 24 39  1  0
 24 40  1  0
 24 41  1  0
 25 42  1  0
M  CHG  1   8  -1
M  END
>  <UniqueID>  (9) 
8

>  <SMILES>  (9) 
CCOC(=O)C(=O)[N-]c1cccc(NC(=O)c2ccccc2OC)c1

>  <Energy>  (9) 
49.408503783199706

>  <Genealogy>  (9) 
CCOC(=O)C(=O)[N-]c1cccc(NC(=O)c2ccccc2OC)c1 (protonated)
CCOC(=O)C(=O)[N-]c1cccc(NC(=O)c2ccccc2OC)c1 (3D coordinates assigned)
CCOC(=O)C(=O)[N-]c1cccc(NC(=O)c2ccccc2OC)c1 (optimized conformer: 49.408503783199706 kcal/mol)

>  <smiles>  (9) 
CCOC(=O)C(=O)Nc1cccc(NC(=O)c2ccccc2OC)c1

>  <score_type>  (9) 
oracle

>  <origin>  (9) 
adg

>  <m_score__min__energy>  (9) 
-9.3599999999999994

>  <m_primary>  (9) 
energy

$$$$
9:0
     RDKit          3D

 47 49  0  0  0  0  0  0  0  0999 V2000
   59.6470   33.5520   50.6520 C   0  0  0  0  0  0  0  0  0  0  0  0
   60.1730   33.5700   49.2470 C   0  0  0  0  0  0  0  0  0  0  0  0
   61.5400   33.3770   49.0030 C   0  0  0  0  0  0  0  0  0  0  0  0
   62.0430   33.4260   47.6950 C   0  0  0  0  0  0  0  0  0  0  0  0
   63.5110   33.2540   47.4420 C   0  0  0  0  0  0  0  0  0  0  0  0
   61.1750   33.7120   46.6320 C   0  0  0  0  0  0  0  0  0  0  0  0
   59.8060   33.9340   46.8640 C   0  0  0  0  0  0  0  0  0  0  0  0
   58.9270   34.2570   45.7660 N   0  0  0  0  0  0  0  0  0  0  0  0
   59.2660   35.3530   44.8540 C   0  0  0  0  0  0  0  0  0  0  0  0
   57.7370   33.4810   45.5150 C   0  0  0  0  0  0  0  0  0  0  0  0
   56.6320   34.0710   45.3620 O   0  0  0  0  0  0  0  0  0  0  0  0
   57.7780   32.0070   45.4130 C   0  0  0  0  0  0  0  0  0  0  0  0
   56.9750   31.2320   44.5820 C   0  0  0  0  0  0  0  0  0  0  0  0
   57.2410   29.8610   44.6680 C   0  0  0  0  0  0  0  0  0  0  0  0
   58.2770   29.5500   45.5450 C   0  0  0  0  0  0  0  0  0  0  0  0
   58.7270   28.1890   45.9070 C   0  0  0  0  0  0  0  0  0  0  0  0
   60.0530   28.0130   46.3290 C   0  0  0  0  0  0  0  0  0  0  0  0
   60.5420   26.7320   46.5700 C   0  0  0  0  0  0  0  0  0  0  0  0
   59.7360   25.6540   46.3990 N   0  0  0  0  0  0  0  0  0  0  0  0
   58.4380   25.7730   46.0090 C   0  0  0  0  0  0  0  0  0  0  0  0
   57.6140   24.5270   45.8720 C   0  0  0  0  0  0  0  0  0  0  0  0
   57.8900   27.0540   45.7670 C   0  0  0  0  0  0  0  0  0  0  0  0
   56.4950   27.1890   45.4490 N   0  0  0  0  0  0  0  0  0  0  0  0
   55.5390   26.7180   46.2850 O   0  0  0  0  0  0  0  0  0  0  0  0
   58.8320   30.9820   46.2360 S   0  0  0  0  0  0  0  0  0  0  0  0
   59.3140   33.8580   48.1770 C   0  0  0  0  0  0  0  0  0  0  0  0
   60.4891   33.5808   51.3592 H   0  0  0  0  0  0  0  0  0  0  0  0
   59.0024   34.4286   50.8135 H   0  0  0  0  0  0  0  0  0  0  0  0
   59.0639   32.6334   50.8135 H   0  0  0  0  0  0  0  0  0  0  0  0
   62.2230   33.1857   49.8438 H   0  0  0  0  0  0  0  0  0  0  0  0
   64.0437   33.1916   48.4024 H   0  0  0  0  0  0  0  0  0  0  0  0
   63.6785   32.3301   46.8690 H   0  0  0  0  0  0  0  0  0  0  0  0
   63.8876   34.1142   46.8690 H   0  0  0  0  0  0  0  0  0  0  0  0
   61.5688   33.7633   45.6062 H   0  0  0  0  0  0  0  0  0  0  0  0
   59.5415   36.2438   45.4377 H   0  0  0  0  0  0  0  0  0  0  0  0
   60.1135   35.0535   44.2199 H   0  0  0  0  0  0  0  0  0  0  0  0
   58.3974   35.5843   44.2199 H   0  0  0  0  0  0  0  0  0  0  0  0
   56.2050   31.6564   43.9209 H   0  0  0  0  0  0  0  0  0  0  0  0
   56.6853   29.1020   44.0978 H   0  0  0  0  0  0  0  0  0  0  0  0
   60.7063   28.8868   46.4695 H   0  0  0  0  0  0  0  0  0  0  0  0
   61.5824   26.5937   46.8992 H   0  0  0  0  0  0  0  0  0  0  0  0
   57.3603   24.1434   46.8713 H   0  0  0  0  0  0  0  0  0  0  0  0
   56.6896   24.7574   45.3221 H   0  0  0  0  0  0  0  0  0  0  0  0
   58.1879   23.7665   45.3221 H   0  0  0  0  0  0  0  0  0  0  0  0
   56.2020   27.5440   44.5110 H   0  0  0  0  0  0  0  0  0  0  0  0
   55.7840   27.0730   47.1780 H   0  0  0  0  0  0  0  0  0  0  0  0
   58.2438   34.0261   48.3680 H   0  0  0  0  0  0  0  0  0  0  0  0
  1  2  1  0
  2  3  2  0
  3  4  1  0
  4  5  1  0
  4  6  2  0
  6  7  1  0
  7  8  1  0
  8  9  1  0
  8 10  1  0
 10 11  2  0
 10 12  1  0
 12 13  2  0
 13 14  1  0
 14 15  2  0
 15 16  1  0
 16 17  2  0
 17 18  1  0
 18 19  2  0
 19 20  1  0
 20 21  1  0
 20 22  2  0
 22 23  1  0
 23 24  1  0
 15 25  1  0
  7 26  2  0
 26  2  1  0
 25 12  1  0
 22 16  1  0
  1 27  1  0
  1 28  1  0
  1 29  1  0
  3 30  1  0
  5 31  1  0
  5 32  1  0
  5 33  1  0
  6 34  1  0
  9 35  1  0
  9 36  1  0
  9 37  1  0
 13 38  1  0
 14 39  1  0
 17 40  1  0
 18 41  1  0
 21 42  1  0
 21 43  1  0
 21 44  1  0
 23 45  1  0
 24 46  1  0
 26 47  1  0
M  END
>  <UniqueID>  (10) 
9

>  <SMILES>  (10) 
Cc1cc(C)cc(N(C)C(=O)c2ccc(-c3ccnc(C)c3NO)s2)c1

>  <Energy>  (10) 
88.72388445925259

>  <Genealogy>  (10) 
Cc1cc(C)cc(N(C)C(=O)c2ccc(-c3ccnc(C)c3NO)s2)c1 (3D coordinates assigned)
Cc1cc(C)cc(N(C)C(=O)c2ccc(-c3ccnc(C)c3NO)s2)c1 (optimized conformer: 88.72388445925259 kcal/mol)

>  <smiles>  (10) 
Cc1cc(C)cc(N(C)C(=O)c2ccc(-c3ccnc(C)c3NO)s2)c1

>  <score_type>  (10) 
oracle

>  <origin>  (10) 
adg

>  <m_score__min__energy>  (10) 
-9.7400000000000002

>  <m_primary>  (10) 
energy

$$$$
10:0
     RDKit          3D

 36 39  0  0  0  0  0  0  0  0999 V2000
   56.4000   26.0970   45.8790 O   0  0  0  0  0  0  0  0  0  0  0  0
   57.2590   25.3610   45.3250 C   0  0  0  0  0  0  0  0  0  0  0  0
   58.6210   25.6540   45.5540 N   0  0  0  0  0  0  0  0  0  0  0  0
   58.9490   26.7660   46.4010 C   0  0  0  0  0  0  0  0  0  0  0  0
   59.4920   26.4560   47.6400 C   0  0  0  0  0  0  0  0  0  0  0  0
   59.8240   27.4820   48.4880 C   0  0  0  0  0  0  0  0  0  0  0  0
   59.6130   28.7800   48.0930 C   0  0  0  0  0  0  0  0  0  0  0  0
   59.0710   29.0930   46.8580 C   0  0  0  0  0  0  0  0  0  0  0  0
   58.8460   30.4860   46.4390 C   0  0  0  0  0  0  0  0  0  0  0  0
   59.7590   31.4760   46.5040 N   0  0  0  0  0  0  0  0  0  0  0  0
   59.2210   32.6270   46.0400 C   0  0  0  0  0  0  0  0  0  0  0  0
   59.7240   33.9120   45.8930 C   0  0  0  0  0  0  0  0  0  0  0  0
   58.8940   34.8870   45.3740 C   0  0  0  0  0  0  0  0  0  0  0  0
   57.5980   34.5860   45.0120 C   0  0  0  0  0  0  0  0  0  0  0  0
   57.1190   33.3000   45.1660 C   0  0  0  0  0  0  0  0  0  0  0  0
   57.9280   32.2910   45.6870 C   0  0  0  0  0  0  0  0  0  0  0  0
   57.7520   31.0150   45.9410 O   0  0  0  0  0  0  0  0  0  0  0  0
   58.7330   28.0720   45.9960 C   0  0  0  0  0  0  0  0  0  0  0  0
   56.9090   24.2410   44.4730 C   0  0  0  0  0  0  0  0  0  0  0  0
   56.8210   22.8970   44.8420 C   0  0  0  0  0  0  0  0  0  0  0  0
   56.4570   22.2330   43.6770 C   0  0  0  0  0  0  0  0  0  0  0  0
   56.2650   20.9960   43.5480 O   0  0  0  0  0  0  0  0  0  0  0  0
   56.3370   23.1370   42.6690 N   0  0  0  0  0  0  0  0  0  0  0  0
   56.6110   24.3450   43.1550 N   0  0  0  0  0  0  0  0  0  0  0  0
   59.4220   25.1280   45.1590 H   0  0  0  0  0  0  0  0  0  0  0  0
   59.6529   25.4089   47.9361 H   0  0  0  0  0  0  0  0  0  0  0  0
   60.2558   27.2665   49.4765 H   0  0  0  0  0  0  0  0  0  0  0  0
   59.8829   29.5964   48.7790 H   0  0  0  0  0  0  0  0  0  0  0  0
   60.7585   34.1486   46.1827 H   0  0  0  0  0  0  0  0  0  0  0  0
   59.2706   35.9129   45.2484 H   0  0  0  0  0  0  0  0  0  0  0  0
   56.9456   35.3703   44.6005 H   0  0  0  0  0  0  0  0  0  0  0  0
   56.0842   33.0683   44.8734 H   0  0  0  0  0  0  0  0  0  0  0  0
   58.3012   28.2901   45.0081 H   0  0  0  0  0  0  0  0  0  0  0  0
   57.0003   22.4604   45.8356 H   0  0  0  0  0  0  0  0  0  0  0  0
   56.0770   22.9520   41.6760 H   0  0  0  0  0  0  0  0  0  0  0  0
   56.6040   25.2380   42.6310 H   0  0  0  0  0  0  0  0  0  0  0  0
  1  2  2  0
  2  3  1  0
  3  4  1  0
  4  5  2  0
  5  6  1  0
  6  7  2  0
  7  8  1  0
  8  9  1  0
  9 10  2  0
 10 11  1  0
 11 12  2  0
 12 13  1  0
 13 14  2  0
 14 15  1  0
 15 16  2  0
 16 17  1  0
  8 18  2  0
  2 19  1  0
 19 20  2  0
 20 21  1  0
 21 22  2  0
 21 23  1  0
 23 24  1  0
 18  4  1  0
 24 19  1  0
 17  9  1  0
 16 11  1  0
  3 25  1  0
  5 26  1  0
  6 27  1  0
  7 28  1  0
 12 29  1  0
 13 30  1  0
 14 31  1  0
 15 32  1  0
 18 33  1  0
 20 34  1  0
 23 35  1  0
 24 36  1  0
M  END
>  <smiles>  (11) 
O=C(Nc1cccc(-c2nc3ccccc3o2)c1)c1cc(=O)[nH][nH]1

>  <score_type>  (11) 
oracle

>  <origin>  (11) 
adg

>  <m_score__min__energy>  (11) 
-7.8200000000000003

>  <m_primary>  (11) 
energy

$$$$
11:0
     RDKit          3D

 40 41  0  0  0  0  0  0  0  0999 V2000
   57.8410   32.2540   43.0690 C   0  0  0  0  0  0  0  0  0  0  0  0
   57.4360   32.5490   44.4820 C   0  0  0  0  0  0  0  0  0  0  0  0
   56.3610   32.0500   44.9140 O   0  0  0  0  0  0  0  0  0  0  0  0
   58.2620   33.4070   45.3750 C   0  0  0  0  0  0  0  0  0  0  0  0
   58.8360   34.6060   44.9100 C   0  0  0  0  0  0  0  0  0  0  0  0
   59.6140   35.3950   45.7580 C   0  0  0  0  0  0  0  0  0  0  0  0
   59.8330   35.0050   47.0800 C   0  0  0  0  0  0  0  0  0  0  0  0
   59.2720   33.8150   47.5720 C   0  0  0  0  0  0  0  0  0  0  0  0
   59.5060   33.3970   48.9750 C   0  0  0  0  0  0  0  0  0  0  0  0
   58.5430   32.9930   49.6830 O   0  0  0  0  0  0  0  0  0  0  0  0
   60.8240   33.4530   49.5340 N   0  0  0  0  0  0  0  0  0  0  0  0
   61.5840   32.2750   49.9350 C   0  0  0  0  0  0  0  0  0  0  0  0
   61.9400   31.4560   48.7350 C   0  0  0  0  0  0  0  0  0  0  0  0
   62.6070   31.9790   47.8040 O   0  0  0  0  0  0  0  0  0  0  0  0
   61.4370   30.1190   48.6200 N   0  0  0  0  0  0  0  0  0  0  0  0
   60.3630   29.6730   47.7800 C   0  0  0  0  0  0  0  0  0  0  0  0
   60.1070   30.3700   46.5930 C   0  0  0  0  0  0  0  0  0  0  0  0
   59.0580   29.9840   45.7550 C   0  0  0  0  0  0  0  0  0  0  0  0
   58.2370   28.9050   46.1060 C   0  0  0  0  0  0  0  0  0  0  0  0
   56.9190   28.4240   45.0410 S   0  0  0  0  0  0  0  0  0  0  0  0
   56.0600   27.0960   45.7400 N   0  0  0  0  0  0  0  0  0  0  0  0
   55.9830   29.5830   44.8500 O   0  0  0  0  0  0  0  0  0  0  0  0
   57.4630   27.9980   43.7060 O   0  0  0  0  0  0  0  0  0  0  0  0
   58.4760   28.2150   47.3010 C   0  0  0  0  0  0  0  0  0  0  0  0
   59.5270   28.6000   48.1400 C   0  0  0  0  0  0  0  0  0  0  0  0
   58.4870   33.0230   46.7120 C   0  0  0  0  0  0  0  0  0  0  0  0
   58.7301   31.6064   43.0700 H   0  0  0  0  0  0  0  0  0  0  0  0
   57.0162   31.7436   42.5501 H   0  0  0  0  0  0  0  0  0  0  0  0
   58.0738   33.1956   42.5501 H   0  0  0  0  0  0  0  0  0  0  0  0
   58.6697   34.9231   43.8699 H   0  0  0  0  0  0  0  0  0  0  0  0
   60.0570   36.3292   45.3826 H   0  0  0  0  0  0  0  0  0  0  0  0
   60.4486   35.6333   47.7406 H   0  0  0  0  0  0  0  0  0  0  0  0
   62.5057   32.5933   50.4440 H   0  0  0  0  0  0  0  0  0  0  0  0
   60.9700   31.6665   50.6152 H   0  0  0  0  0  0  0  0  0  0  0  0
   60.7371   31.2287   46.3180 H   0  0  0  0  0  0  0  0  0  0  0  0
   58.8764   30.5290   44.8169 H   0  0  0  0  0  0  0  0  0  0  0  0
   55.1460   27.4690   46.0820 H   0  0  0  0  0  0  0  0  0  0  0  0
   57.8344   27.3665   47.5811 H   0  0  0  0  0  0  0  0  0  0  0  0
   59.7004   28.0624   49.0839 H   0  0  0  0  0  0  0  0  0  0  0  0
   58.0427   32.0903   47.0897 H   0  0  0  0  0  0  0  0  0  0  0  0
  1  2  1  0
  2  3  2  0
  2  4  1  0
  4  5  2  0
  5  6  1  0
  6  7  2  0
  7  8  1  0
  8  9  1  0
  9 10  2  0
  9 11  1  0
 11 12  1  0
 12 13  1  0
 13 14  2  0
 13 15  1  0
 15 16  1  0
 16 17  2  0
 17 18  1  0
 18 19  2  0
 19 20  1  0
 20 21  1  0
 20 22  2  0
 20 23  2  0
 19 24  1  0
 24 25  2  0
  8 26  2  0
 26  4  1  0
 25 16  1  0
  1 27  1  0
  1 28  1  0
  1 29  1  0
  5 30  1  0
  6 31  1  0
  7 32  1  0
 12 33  1  0
 12 34  1  0
 17 35  1  0
 18 36  1  0
 21 37  1  0
 24 38  1  0
 25 39  1  0
 26 40  1  0
M  CHG  3  11  -1  15  -1  21  -1
M  END
>  <UniqueID>  (12) 
10

>  <SMILES>  (12) 
CC(=O)c1cccc(C(=O)[N-]CC(=O)[N-]c2ccc(S([NH-])(=O)=O)cc2)c1

>  <Energy>  (12) 
41.753954774958764

>  <Genealogy>  (12) 
CC(=O)c1cccc(C(=O)[N-]CC(=O)[N-]c2ccc(S([NH-])(=O)=O)cc2)c1 (protonated)
CC(=O)c1cccc(C(=O)[N-]CC(=O)[N-]c2ccc(S([NH-])(=O)=O)cc2)c1 (3D coordinates assigned)
CC(=O)c1cccc(C(=O)[N-]CC(=O)[N-]c2ccc(S([NH-])(=O)=O)cc2)c1 (optimized conformer: 41.753954774958764 kcal/mol)

>  <smiles>  (12) 
CC(=O)c1cccc(C(=O)NCC(=O)Nc2ccc(S(N)(=O)=O)cc2)c1

>  <score_type>  (12) 
oracle

>  <origin>  (12) 
adg

>  <m_score__min__energy>  (12) 
-13.23

>  <m_primary>  (12) 
energy

$$$$
12:0
     RDKit          3D

 33 34  0  0  0  0  0  0  0  0999 V2000
   54.0310   25.9640   45.6840 N   0  0  0  0  0  0  0  0  0  0  0  0
   54.1280   24.2650   45.3910 S   0  0  0  0  0  0  0  0  0  0  0  0
   53.0950   23.8790   44.3690 O   0  0  0  0  0  0  0  0  0  0  0  0
   53.8650   23.5220   46.6700 O   0  0  0  0  0  0  0  0  0  0  0  0
   55.7570   23.8620   44.7810 C   0  0  0  0  0  0  0  0  0  0  0  0
   56.8370   24.3550   45.7440 C   0  0  0  0  0  0  0  0  0  0  0  0
   56.9450   25.8090   45.6880 N   0  0  0  0  0  0  0  0  0  0  0  0
   57.7760   26.5790   46.5650 C   0  0  0  0  0  0  0  0  0  0  0  0
   58.3490   26.0140   47.5360 O   0  0  0  0  0  0  0  0  0  0  0  0
   57.9530   28.0370   46.3320 C   0  0  0  0  0  0  0  0  0  0  0  0
   59.1060   28.6910   46.7950 C   0  0  0  0  0  0  0  0  0  0  0  0
   59.2710   30.0220   46.5870 N   0  0  0  0  0  0  0  0  0  0  0  0
   58.3380   30.7590   45.9280 C   0  0  0  0  0  0  0  0  0  0  0  0
   58.5440   32.2130   45.7130 C   0  0  0  0  0  0  0  0  0  0  0  0
   59.7020   32.8520   46.1960 C   0  0  0  0  0  0  0  0  0  0  0  0
   59.8940   34.2230   45.9930 C   0  0  0  0  0  0  0  0  0  0  0  0
   58.9350   34.9700   45.3070 C   0  0  0  0  0  0  0  0  0  0  0  0
   57.7820   34.3490   44.8240 C   0  0  0  0  0  0  0  0  0  0  0  0
   57.5840   32.9800   45.0230 C   0  0  0  0  0  0  0  0  0  0  0  0
   57.2120   30.1480   45.4710 N   0  0  0  0  0  0  0  0  0  0  0  0
   56.9960   28.8200   45.6540 C   0  0  0  0  0  0  0  0  0  0  0  0
   55.9350   28.3090   45.2070 O   0  0  0  0  0  0  0  0  0  0  0  0
   54.8690   26.3990   45.2380 H   0  0  0  0  0  0  0  0  0  0  0  0
   55.8415   22.7706   44.6732 H   0  0  0  0  0  0  0  0  0  0  0  0
   55.9006   24.3561   43.8088 H   0  0  0  0  0  0  0  0  0  0  0  0
   56.5755   24.0504   46.7681 H   0  0  0  0  0  0  0  0  0  0  0  0
   57.8020   23.9146   45.4527 H   0  0  0  0  0  0  0  0  0  0  0  0
   59.8803   28.1211   47.3296 H   0  0  0  0  0  0  0  0  0  0  0  0
   60.4616   32.2688   46.7371 H   0  0  0  0  0  0  0  0  0  0  0  0
   60.8020   34.7128   46.3746 H   0  0  0  0  0  0  0  0  0  0  0  0
   59.0878   36.0475   45.1471 H   0  0  0  0  0  0  0  0  0  0  0  0
   57.0265   34.9393   44.2848 H   0  0  0  0  0  0  0  0  0  0  0  0
   56.6730   32.4980   44.6386 H   0  0  0  0  0  0  0  0  0  0  0  0
  1  2  1  0
  2  3  2  0
  2  4  2  0
  2  5  1  0
  5  6  1  0
  6  7  1  0
  7  8  1  0
  8  9  2  0
  8 10  1  0
 10 11  2  0
 11 12  1  0
 12 13  1  0
 13 14  1  0
 14 15  2  0
 15 16  1  0
 16 17  2  0
 17 18  1  0
 18 19  2  0
 13 20  2  0
 20 21  1  0
 21 22  2  0
 21 10  1  0
 19 14  1  0
  1 23  1  0
  5 24  1  0
  5 25  1  0
  6 26  1  0
  6 27  1  0
 11 28  1  0
 15 29  1  0
 16 30  1  0
 17 31  1  0
 18 32  1  0
 19 33  1  0
M  CHG  3   1  -1   7  -1  12  -1
M  END
>  <UniqueID>  (13) 
11

>  <SMILES>  (13) 
[NH-]S(=O)(=O)CC[N-]C(=O)c1c[n-]c(-c2ccccc2)nc1=O

>  <Energy>  (13) 
29.67557873214762

>  <Genealogy>  (13) 
[NH-]S(=O)(=O)CC[N-]C(=O)c1c[n-]c(-c2ccccc2)nc1=O (protonated)
[NH-]S(=O)(=O)CC[N-]C(=O)c1c[n-]c(-c2ccccc2)nc1=O (3D coordinates assigned)
[NH-]S(=O)(=O)CC[N-]C(=O)c1c[n-]c(-c2ccccc2)nc1=O (optimized conformer: 29.67557873214762 kcal/mol)

>  <smiles>  (13) 
NS(=O)(=O)CCNC(=O)c1c[nH]c(-c2ccccc2)nc1=O

>  <score_type>  (13) 
oracle

>  <origin>  (13) 
adg

>  <m_score__min__energy>  (13) 
-13.31

>  <m_primary>  (13) 
energy

$$$$
13:0
     RDKit          3D

 34 36  0  0  0  0  0  0  0  0999 V2000
   54.5870   26.1650   45.9840 N   0  0  0  0  0  0  0  0  0  0  0  0
   56.0540   25.2590   46.0700 S   0  0  0  0  0  0  0  0  0  0  0  0
   56.1030   24.2780   44.9320 O   0  0  0  0  0  0  0  0  0  0  0  0
   56.1000   24.4960   47.3650 O   0  0  0  0  0  0  0  0  0  0  0  0
   57.4300   26.3530   45.9730 C   0  0  0  0  0  0  0  0  0  0  0  0
   58.1750   26.6500   47.1220 C   0  0  0  0  0  0  0  0  0  0  0  0
   59.2590   27.5300   47.0510 C   0  0  0  0  0  0  0  0  0  0  0  0
   59.6190   28.1160   45.8280 C   0  0  0  0  0  0  0  0  0  0  0  0
   60.7220   29.0370   45.7840 N   0  0  0  0  0  0  0  0  0  0  0  0
   60.7680   30.2820   46.4990 C   0  0  0  0  0  0  0  0  0  0  0  0
   59.3980   31.1810   46.6570 S   0  0  0  0  0  0  0  0  0  0  0  0
   62.0470   30.8860   46.7480 N   0  0  0  0  0  0  0  0  0  0  0  0
   62.3010   31.8470   47.7880 C   0  0  0  0  0  0  0  0  0  0  0  0
   62.9970   33.0420   47.4720 C   0  0  0  0  0  0  0  0  0  0  0  0
   63.2860   33.9930   48.4680 C   0  0  0  0  0  0  0  0  0  0  0  0
   62.8790   33.7110   49.7680 C   0  0  0  0  0  0  0  0  0  0  0  0
   63.0580   34.4630   50.8650 N   0  0  0  0  0  0  0  0  0  0  0  0
   62.4830   33.6990   51.8290 C   0  0  0  0  0  0  0  0  0  0  0  0
   62.4380   34.0570   53.0340 O   0  0  0  0  0  0  0  0  0  0  0  0
   61.9620   32.5210   51.4000 N   0  0  0  0  0  0  0  0  0  0  0  0
   62.2280   32.5580   50.0860 C   0  0  0  0  0  0  0  0  0  0  0  0
   61.9250   31.5940   49.1290 C   0  0  0  0  0  0  0  0  0  0  0  0
   58.8500   27.8390   44.6830 C   0  0  0  0  0  0  0  0  0  0  0  0
   57.7670   26.9590   44.7560 C   0  0  0  0  0  0  0  0  0  0  0  0
   54.7770   27.0950   46.4200 H   0  0  0  0  0  0  0  0  0  0  0  0
   57.9058   26.1889   48.0837 H   0  0  0  0  0  0  0  0  0  0  0  0
   59.8332   27.7644   47.9595 H   0  0  0  0  0  0  0  0  0  0  0  0
   61.5480   28.7840   45.1950 H   0  0  0  0  0  0  0  0  0  0  0  0
   62.8470   30.6020   46.1390 H   0  0  0  0  0  0  0  0  0  0  0  0
   63.3148   33.2275   46.4354 H   0  0  0  0  0  0  0  0  0  0  0  0
   63.8152   34.9267   48.2271 H   0  0  0  0  0  0  0  0  0  0  0  0
   61.4087   30.6632   49.4065 H   0  0  0  0  0  0  0  0  0  0  0  0
   59.1025   28.3176   43.7253 H   0  0  0  0  0  0  0  0  0  0  0  0
   57.1766   26.7412   43.8538 H   0  0  0  0  0  0  0  0  0  0  0  0
  1  2  1  0
  2  3  2  0
  2  4  2  0
  2  5  1  0
  5  6  2  0
  6  7  1  0
  7  8  2  0
  8  9  1  0
  9 10  1  0
 10 11  2  0
 10 12  1  0
 12 13  1  0
 13 14  2  0
 14 15  1  0
 15 16  2  0
 16 17  1  0
 17 18  1  0
 18 19  2  0
 18 20  1  0
 20 21  1  0
 21 22  2  0
  8 23  1  0
 23 24  2  0
 24  5  1  0
 22 13  1  0
 21 16  1  0
  1 25  1  0
  6 26  1  0
  7 27  1  0
  9 28  1  0
 12 29  1  0
 14 30  1  0
 15 31  1  0
 22 32  1  0
 23 33  1  0
 24 34  1  0
M  CHG  3   1  -1  17  -1  20  -1
M  END
>  <UniqueID>  (14) 
12

>  <SMILES>  (14) 
[NH-]S(=O)(=O)c1ccc(NC(=S)Nc2ccc3[n-]c(=O)[n-]c3c2)cc1

>  <Energy>  (14) 
81.37528731257396

>  <Genealogy>  (14) 
[NH-]S(=O)(=O)c1ccc(NC(=S)Nc2ccc3[n-]c(=O)[n-]c3c2)cc1 (protonated)
[NH-]S(=O)(=O)c1ccc(NC(=S)Nc2ccc3[n-]c(=O)[n-]c3c2)cc1 (3D coordinates assigned)
[NH-]S(=O)(=O)c1ccc(NC(=S)Nc2ccc3[n-]c(=O)[n-]c3c2)cc1 (optimized conformer: 81.37528731257396 kcal/mol)

>  <smiles>  (14) 
NS(=O)(=O)c1ccc(NC(=S)Nc2ccc3[nH]c(=O)[nH]c3c2)cc1

>  <score_type>  (14) 
oracle

>  <origin>  (14) 
adg

>  <m_score__min__energy>  (14) 
-11.25

>  <m_primary>  (14) 
energy

$$$$
14:0
     RDKit          3D

 28 28  0  0  0  0  0  0  0  0999 V2000
   57.8310   32.5710   43.8370 C   0  0  0  0  0  0  0  0  0  0  0  0
   57.0220   32.5140   44.9900 O   0  0  0  0  0  0  0  0  0  0  0  0
   57.7770   32.8450   46.1410 C   0  0  0  0  0  0  0  0  0  0  0  0
   58.1990   31.5770   46.8780 C   0  0  0  0  0  0  0  0  0  0  0  0
   58.0030   30.4200   46.0140 N   0  0  0  0  0  0  0  0  0  0  0  0
   57.8900   29.0860   46.5160 C   0  0  0  0  0  0  0  0  0  0  0  0
   58.1680   28.8420   47.7220 O   0  0  0  0  0  0  0  0  0  0  0  0
   57.3820   28.0140   45.6270 C   0  0  0  0  0  0  0  0  0  0  0  0
   57.0270   28.2330   44.3900 N   0  0  0  0  0  0  0  0  0  0  0  0
   56.3990   29.4080   43.8650 C   0  0  0  0  0  0  0  0  0  0  0  0
   55.5020   29.9820   44.5350 O   0  0  0  0  0  0  0  0  0  0  0  0
   57.2580   26.6320   46.1590 C   0  0  0  0  0  0  0  0  0  0  0  0
   55.9960   26.0280   46.3120 C   0  0  0  0  0  0  0  0  0  0  0  0
   54.8310   26.7160   45.9890 O   0  0  0  0  0  0  0  0  0  0  0  0
   55.9010   24.7640   46.8000 N   0  0  0  0  0  0  0  0  0  0  0  0
   57.0070   24.0590   47.1450 C   0  0  0  0  0  0  0  0  0  0  0  0
   56.8920   22.8910   47.5960 O   0  0  0  0  0  0  0  0  0  0  0  0
   58.2370   24.6130   47.0020 N   0  0  0  0  0  0  0  0  0  0  0  0
   58.3900   25.8730   46.5170 C   0  0  0  0  0  0  0  0  0  0  0  0
   59.5520   26.3380   46.3770 O   0  0  0  0  0  0  0  0  0  0  0  0
   58.8876   32.6454   44.1338 H   0  0  0  0  0  0  0  0  0  0  0  0
   57.6815   31.6601   43.2388 H   0  0  0  0  0  0  0  0  0  0  0  0
   57.5552   33.4519   43.2388 H   0  0  0  0  0  0  0  0  0  0  0  0
   58.6742   33.4048   45.8383 H   0  0  0  0  0  0  0  0  0  0  0  0
   57.1584   33.4602   46.8110 H   0  0  0  0  0  0  0  0  0  0  0  0
   59.2610   31.6511   47.1550 H   0  0  0  0  0  0  0  0  0  0  0  0
   57.5883   31.4622   47.7857 H   0  0  0  0  0  0  0  0  0  0  0  0
   56.6984   29.8055   42.8840 H   0  0  0  0  0  0  0  0  0  0  0  0
  1  2  1  0
  2  3  1  0
  3  4  1  0
  4  5  1  0
  5  6  1  0
  6  7  2  0
  6  8  1  0
  8  9  2  3
  9 10  1  0
 10 11  2  0
  8 12  1  0
 12 13  2  0
 13 14  1  0
 13 15  1  0
 15 16  1  0
 16 17  2  0
 16 18  1  0
 18 19  1  0
 19 20  2  0
 19 12  1  0
  1 21  1  0
  1 22  1  0
  1 23  1  0
  3 24  1  0
  3 25  1  0
  4 26  1  0
  4 27  1  0
 10 28  1  0
M  CHG  4   5  -1  14  -1  15  -1  18  -1
M  END
>  <UniqueID>  (15) 
13

>  <SMILES>  (15) 
COCC[N-]C(=O)C(=NC=O)c1c([O-])[n-]c(=O)[n-]c1=O

>  <Energy>  (15) 
36.296210660569194

>  <Genealogy>  (15) 
COCC[N-]C(=O)C(=NC=O)c1c([O-])[n-]c(=O)[n-]c1=O (protonated)
COCC[N-]C(=O)C(=NC=O)c1c([O-])[n-]c(=O)[n-]c1=O (3D coordinates assigned)
COCC[N-]C(=O)C(=NC=O)c1c([O-])[n-]c(=O)[n-]c1=O (optimized conformer: 36.296210660569194 kcal/mol)

>  <smiles>  (15) 
COCCNC(=O)C(=NC=O)c1c(O)[nH]c(=O)[nH]c1=O

>  <score_type>  (15) 
oracle

>  <origin>  (15) 
adg

>  <m_score__min__energy>  (15) 
-14.23

>  <m_primary>  (15) 
energy

$$$$
15:0
     RDKit          3D

 48 50  0  0  0  0  0  0  0  0999 V2000
   59.7190   28.6700   49.1560 C   0  0  0  0  0  0  0  0  0  0  0  0
   60.6380   29.6400   48.4940 C   0  0  0  0  0  0  0  0  0  0  0  0
   60.7750   29.7630   47.1600 N   0  0  0  0  0  0  0  0  0  0  0  0
   61.6530   30.7350   46.9670 N   0  0  0  0  0  0  0  0  0  0  0  0
   62.0120   31.1690   48.1910 C   0  0  0  0  0  0  0  0  0  0  0  0
   63.0060   32.2690   48.4400 C   0  0  0  0  0  0  0  0  0  0  0  0
   62.5290   33.6070   48.0140 N   0  0  0  0  0  0  0  0  0  0  0  0
   62.7530   33.8420   46.5780 C   0  0  0  0  0  0  0  0  0  0  0  0
   61.1240   33.8790   48.3910 C   0  0  0  0  0  0  0  0  0  0  0  0
   60.3780   34.6150   47.2690 C   0  0  0  0  0  0  0  0  0  0  0  0
   59.4210   33.7190   46.5980 N   0  0  0  0  0  0  0  0  0  0  0  0
   59.0940   32.5310   47.1920 C   0  0  0  0  0  0  0  0  0  0  0  0
   58.1620   31.6720   46.6080 C   0  0  0  0  0  0  0  0  0  0  0  0
   57.5460   32.0260   45.4090 C   0  0  0  0  0  0  0  0  0  0  0  0
   56.6030   31.1420   44.8570 O   0  0  0  0  0  0  0  0  0  0  0  0
   56.9060   30.0540   43.9830 C   0  0  0  0  0  0  0  0  0  0  0  0
   57.6750   28.9820   44.7070 C   0  0  0  0  0  0  0  0  0  0  0  0
   57.0180   28.1350   45.6150 C   0  0  0  0  0  0  0  0  0  0  0  0
   57.7290   27.1410   46.2940 C   0  0  0  0  0  0  0  0  0  0  0  0
   59.1030   26.9910   46.0790 C   0  0  0  0  0  0  0  0  0  0  0  0
   59.7900   26.0260   46.7370 F   0  0  0  0  0  0  0  0  0  0  0  0
   59.7650   27.8390   45.1870 C   0  0  0  0  0  0  0  0  0  0  0  0
   59.0570   28.8330   44.5050 C   0  0  0  0  0  0  0  0  0  0  0  0
   57.8900   33.2450   44.8040 C   0  0  0  0  0  0  0  0  0  0  0  0
   58.8280   34.0840   45.4140 C   0  0  0  0  0  0  0  0  0  0  0  0
   59.1180   35.1790   44.8600 O   0  0  0  0  0  0  0  0  0  0  0  0
   61.3900   30.5030   49.1340 O   0  0  0  0  0  0  0  0  0  0  0  0
   59.8097   28.7657   50.2481 H   0  0  0  0  0  0  0  0  0  0  0  0
   58.6827   28.8821   48.8541 H   0  0  0  0  0  0  0  0  0  0  0  0
   59.9867   27.6467   48.8541 H   0  0  0  0  0  0  0  0  0  0  0  0
   63.2234   32.3041   49.5177 H   0  0  0  0  0  0  0  0  0  0  0  0
   63.8992   32.0388   47.8407 H   0  0  0  0  0  0  0  0  0  0  0  0
   63.5067   34.6327   46.4491 H   0  0  0  0  0  0  0  0  0  0  0  0
   63.1099   32.9147   46.1060 H   0  0  0  0  0  0  0  0  0  0  0  0
   61.8097   34.1541   46.1060 H   0  0  0  0  0  0  0  0  0  0  0  0
   60.6160   32.9245   48.5930 H   0  0  0  0  0  0  0  0  0  0  0  0
   61.1222   34.5179   49.2864 H   0  0  0  0  0  0  0  0  0  0  0  0
   59.8323   35.4680   47.6987 H   0  0  0  0  0  0  0  0  0  0  0  0
   61.1127   34.9627   46.5279 H   0  0  0  0  0  0  0  0  0  0  0  0
   59.5717   32.2492   48.1420 H   0  0  0  0  0  0  0  0  0  0  0  0
   57.9139   30.7166   47.0935 H   0  0  0  0  0  0  0  0  0  0  0  0
   55.9672   29.6275   43.6000 H   0  0  0  0  0  0  0  0  0  0  0  0
   57.5233   30.4304   43.1540 H   0  0  0  0  0  0  0  0  0  0  0  0
   55.9390   28.2544   45.7926 H   0  0  0  0  0  0  0  0  0  0  0  0
   57.2073   26.4761   46.9981 H   0  0  0  0  0  0  0  0  0  0  0  0
   60.8463   27.7240   45.0210 H   0  0  0  0  0  0  0  0  0  0  0  0
   59.5841   29.5008   43.8077 H   0  0  0  0  0  0  0  0  0  0  0  0
   57.4230   33.5396   43.8526 H   0  0  0  0  0  0  0  0  0  0  0  0
  1  2  1  0
  2  3  2  0
  3  4  1  0
  4  5  2  0
  5  6  1  0
  6  7  1  0
  7  8  1  0
  7  9  1  0
  9 10  1  0
 10 11  1  0
 11 12  1  0
 12 13  2  0
 13 14  1  0
 14 15  1  0
 15 16  1  0
 16 17  1  0
 17 18  2  0
 18 19  1  0
 19 20  2  0
 20 21  1  0
 20 22  1  0
 22 23  2  0
 14 24  2  0
 24 25  1  0
 25 26  2  0
  5 27  1  0
 27  2  1  0
 25 11  1  0
 23 17  1  0
  1 28  1  0
  1 29  1  0
  1 30  1  0
  6 31  1  0
  6 32  1  0
  8 33  1  0
  8 34  1  0
  8 35  1  0
  9 36  1  0
  9 37  1  0
 10 38  1  0
 10 39  1  0
 12 40  1  0
 13 41  1  0
 16 42  1  0
 16 43  1  0
 18 44  1  0
 19 45  1  0
 22 46  1  0
 23 47  1  0
 24 48  1  0
M  END
>  <UniqueID>  (16) 
14

>  <SMILES>  (16) 
Cc1nnc(CN(C)CCn2ccc(OCc3ccc(F)cc3)cc2=O)o1

>  <Energy>  (16) 
85.63089191433968

>  <Genealogy>  (16) 
Cc1nnc(CN(C)CCn2ccc(OCc3ccc(F)cc3)cc2=O)o1 (3D coordinates assigned)
Cc1nnc(CN(C)CCn2ccc(OCc3ccc(F)cc3)cc2=O)o1 (optimized conformer: 85.63089191433968 kcal/mol)

>  <smiles>  (16) 
Cc1nnc(CN(C)CCn2ccc(OCc3ccc(F)cc3)cc2=O)o1

>  <score_type>  (16) 
oracle

>  <origin>  (16) 
adg

>  <m_score__min__energy>  (16) 
-7.1500000000000004

>  <m_primary>  (16) 
energy

$$$$
16:0
     RDKit          3D

 52 55  0  0  0  0  0  0  0  0999 V2000
   56.7420   29.5550   52.1270 O   0  0  0  0  0  0  0  0  0  0  0  0
   55.8070   30.3990   52.0470 C   0  0  0  0  0  0  0  0  0  0  0  0
   56.1160   31.8060   52.0410 N   0  0  0  0  0  0  0  0  0  0  0  0
   57.4060   32.3310   51.6790 C   0  0  0  0  0  0  0  0  0  0  0  0
   58.0310   33.2640   52.5190 C   0  0  0  0  0  0  0  0  0  0  0  0
   59.2900   33.7720   52.1980 C   0  0  0  0  0  0  0  0  0  0  0  0
   59.9420   33.3570   51.0330 C   0  0  0  0  0  0  0  0  0  0  0  0
   59.3220   32.4410   50.1640 C   0  0  0  0  0  0  0  0  0  0  0  0
   59.9670   31.9890   48.9600 N   0  0  0  0  0  0  0  0  0  0  0  0
   60.6210   32.8840   48.0020 C   0  0  0  0  0  0  0  0  0  0  0  0
   59.7310   33.1230   46.8100 C   0  0  0  0  0  0  0  0  0  0  0  0
   59.9810   34.2030   45.9490 C   0  0  0  0  0  0  0  0  0  0  0  0
   59.1370   34.4460   44.8630 C   0  0  0  0  0  0  0  0  0  0  0  0
   58.0400   33.6140   44.6260 C   0  0  0  0  0  0  0  0  0  0  0  0
   57.7830   32.5240   45.4660 C   0  0  0  0  0  0  0  0  0  0  0  0
   56.6480   31.6900   45.1830 N   0  0  0  0  0  0  0  0  0  0  0  0
   56.7250   30.0900   44.5210 S   0  0  0  0  0  0  0  0  0  0  0  0
   55.4640   29.3500   44.8680 O   0  0  0  0  0  0  0  0  0  0  0  0
   56.8310   30.1790   43.0230 O   0  0  0  0  0  0  0  0  0  0  0  0
   58.1000   29.2240   45.2010 C   0  0  0  0  0  0  0  0  0  0  0  0
   57.9460   28.3950   46.3220 C   0  0  0  0  0  0  0  0  0  0  0  0
   59.0430   27.7030   46.8380 C   0  0  0  0  0  0  0  0  0  0  0  0
   60.3010   27.8350   46.2420 C   0  0  0  0  0  0  0  0  0  0  0  0
   60.4600   28.6610   45.1230 C   0  0  0  0  0  0  0  0  0  0  0  0
   59.3610   29.3530   44.6040 C   0  0  0  0  0  0  0  0  0  0  0  0
   58.6390   32.2770   46.5560 C   0  0  0  0  0  0  0  0  0  0  0  0
   58.0470   31.9510   50.4830 C   0  0  0  0  0  0  0  0  0  0  0  0
   54.3920   29.8740   52.0140 C   0  0  0  0  0  0  0  0  0  0  0  0
   53.3220   30.5970   51.2080 C   0  0  0  0  0  0  0  0  0  0  0  0
   53.4040   30.7940   52.7110 C   0  0  0  0  0  0  0  0  0  0  0  0
   55.4460   32.4660   52.4870 H   0  0  0  0  0  0  0  0  0  0  0  0
   57.5251   33.5975   53.4371 H   0  0  0  0  0  0  0  0  0  0  0  0
   59.7719   34.5024   52.8646 H   0  0  0  0  0  0  0  0  0  0  0  0
   60.9424   33.7478   50.7953 H   0  0  0  0  0  0  0  0  0  0  0  0
   60.1040   30.9630   48.8220 H   0  0  0  0  0  0  0  0  0  0  0  0
   60.8349   33.8451   48.4924 H   0  0  0  0  0  0  0  0  0  0  0  0
   61.5559   32.4164   47.6596 H   0  0  0  0  0  0  0  0  0  0  0  0
   60.8444   34.8601   46.1301 H   0  0  0  0  0  0  0  0  0  0  0  0
   59.3366   35.2948   44.1924 H   0  0  0  0  0  0  0  0  0  0  0  0
   57.3742   33.8166   43.7742 H   0  0  0  0  0  0  0  0  0  0  0  0
   56.9587   28.2900   46.7955 H   0  0  0  0  0  0  0  0  0  0  0  0
   58.9175   27.0521   47.7158 H   0  0  0  0  0  0  0  0  0  0  0  0
   61.1645   27.2906   46.6518 H   0  0  0  0  0  0  0  0  0  0  0  0
   61.4486   28.7657   44.6522 H   0  0  0  0  0  0  0  0  0  0  0  0
   59.4871   30.0008   43.7240 H   0  0  0  0  0  0  0  0  0  0  0  0
   58.4513   31.4153   47.2134 H   0  0  0  0  0  0  0  0  0  0  0  0
   57.5412   31.2616   49.7910 H   0  0  0  0  0  0  0  0  0  0  0  0
   54.6994   28.8184   52.0501 H   0  0  0  0  0  0  0  0  0  0  0  0
   53.6037   31.4159   50.5297 H   0  0  0  0  0  0  0  0  0  0  0  0
   52.5342   30.2865   50.5058 H   0  0  0  0  0  0  0  0  0  0  0  0
   53.7443   31.7562   53.1214 H   0  0  0  0  0  0  0  0  0  0  0  0
   52.6990   30.6855   53.5484 H   0  0  0  0  0  0  0  0  0  0  0  0
  1  2  2  0
  2  3  1  0
  3  4  1  0
  4  5  2  0
  5  6  1  0
  6  7  2  0
  7  8  1  0
  8  9  1  0
  9 10  1  0
 10 11  1  0
 11 12  2  0
 12 13  1  0
 13 14  2  0
 14 15  1  0
 15 16  1  0
 16 17  1  0
 17 18  2  0
 17 19  2  0
 17 20  1  0
 20 21  2  0
 21 22  1  0
 22 23  2  0
 23 24  1  0
 24 25  2  0
 15 26  2  0
  8 27  2  0
  2 28  1  0
 28 29  1  0
 29 30  1  0
 27  4  1  0
 30 28  1  0
 26 11  1  0
 25 20  1  0
  3 31  1  0
  5 32  1  0
  6 33  1  0
  7 34  1  0
  9 35  1  0
 10 36  1  0
 10 37  1  0
 12 38  1  0
 13 39  1  0
 14 40  1  0
 21 41  1  0
 22 42  1  0
 23 43  1  0
 24 44  1  0
 25 45  1  0
 26 46  1  0
 27 47  1  0
 28 48  1  0
 29 49  1  0
 29 50  1  0
 30 51  1  0
 30 52  1  0
M  CHG  1  16  -1
M  END
>  <UniqueID>  (17) 
15

>  <SMILES>  (17) 
O=C(Nc1cccc(NCc2cccc([N-]S(=O)(=O)c3ccccc3)c2)c1)C1CC1

>  <Energy>  (17) 
325.6407131559104

>  <Genealogy>  (17) 
O=C(Nc1cccc(NCc2cccc([N-]S(=O)(=O)c3ccccc3)c2)c1)C1CC1 (protonated)
O=C(Nc1cccc(NCc2cccc([N-]S(=O)(=O)c3ccccc3)c2)c1)C1CC1 (3D coordinates assigned)
O=C(Nc1cccc(NCc2cccc([N-]S(=O)(=O)c3ccccc3)c2)c1)C1CC1 (nonaromatic ring conformer: 325.6407131559104 kcal/mol)

>  <smiles>  (17) 
O=C(Nc1cccc(NCc2cccc(NS(=O)(=O)c3ccccc3)c2)c1)C1CC1

>  <score_type>  (17) 
oracle

>  <origin>  (17) 
adg

>  <m_score__min__energy>  (17) 
-11.300000000000001

>  <m_primary>  (17) 
energy

$$$$
17:0
     RDKit          3D

 53 55  0  0  0  0  0  0  0  0999 V2000
   59.5260   35.3300   46.8100 C   0  0  0  0  0  0  0  0  0  0  0  0
   59.3540   34.8290   45.4880 O   0  0  0  0  0  0  0  0  0  0  0  0
   58.7320   33.6100   45.1800 C   0  0  0  0  0  0  0  0  0  0  0  0
   58.4090   32.6540   46.1690 C   0  0  0  0  0  0  0  0  0  0  0  0
   57.7610   31.4710   45.8130 C   0  0  0  0  0  0  0  0  0  0  0  0
   57.4330   31.2210   44.4680 C   0  0  0  0  0  0  0  0  0  0  0  0
   56.4950   29.7850   44.0640 S   0  0  0  0  0  0  0  0  0  0  0  0
   56.1340   29.8360   42.6060 O   0  0  0  0  0  0  0  0  0  0  0  0
   55.2340   29.7130   44.8770 O   0  0  0  0  0  0  0  0  0  0  0  0
   57.4670   28.3820   44.3690 N   0  0  0  0  0  0  0  0  0  0  0  0
   58.2920   28.2100   45.5270 C   0  0  0  0  0  0  0  0  0  0  0  0
   59.5780   28.7610   45.5300 C   0  0  0  0  0  0  0  0  0  0  0  0
   60.3880   28.6660   46.6660 C   0  0  0  0  0  0  0  0  0  0  0  0
   59.9260   27.9930   47.8090 C   0  0  0  0  0  0  0  0  0  0  0  0
   60.7660   27.9370   49.0650 C   0  0  0  0  0  0  0  0  0  0  0  0
   60.3070   28.9130   50.0710 N   0  0  0  0  0  0  0  0  0  0  0  0
   60.3340   30.2950   49.5460 C   0  0  0  0  0  0  0  0  0  0  0  0
   61.5930   31.0890   49.9880 C   0  0  1  0  0  0  0  0  0  0  0  0
   62.5680   30.2620   50.5860 O   0  0  0  0  0  0  0  0  0  0  0  0
   62.1810   31.9310   48.8690 C   0  0  0  0  0  0  0  0  0  0  0  0
   63.5170   32.3720   48.9620 C   0  0  0  0  0  0  0  0  0  0  0  0
   64.0790   33.1610   47.9500 C   0  0  0  0  0  0  0  0  0  0  0  0
   63.3100   33.5310   46.8420 C   0  0  0  0  0  0  0  0  0  0  0  0
   61.9750   33.1190   46.7480 C   0  0  0  0  0  0  0  0  0  0  0  0
   61.4110   32.3250   47.7560 C   0  0  0  0  0  0  0  0  0  0  0  0
   58.6520   27.4110   47.7940 C   0  0  0  0  0  0  0  0  0  0  0  0
   57.8410   27.5160   46.6620 C   0  0  0  0  0  0  0  0  0  0  0  0
   57.7720   32.1570   43.4820 C   0  0  0  0  0  0  0  0  0  0  0  0
   58.4150   33.3440   43.8390 C   0  0  0  0  0  0  0  0  0  0  0  0
   59.2577   34.5485   47.5361 H   0  0  0  0  0  0  0  0  0  0  0  0
   60.5761   35.6226   46.9575 H   0  0  0  0  0  0  0  0  0  0  0  0
   58.8771   36.2059   46.9575 H   0  0  0  0  0  0  0  0  0  0  0  0
   58.6688   32.8428   47.2211 H   0  0  0  0  0  0  0  0  0  0  0  0
   57.5058   30.7315   46.5863 H   0  0  0  0  0  0  0  0  0  0  0  0
   59.9548   29.2727   44.6321 H   0  0  0  0  0  0  0  0  0  0  0  0
   61.3901   29.1197   46.6644 H   0  0  0  0  0  0  0  0  0  0  0  0
   60.7004   26.9259   49.4931 H   0  0  0  0  0  0  0  0  0  0  0  0
   61.8035   28.1839   48.7955 H   0  0  0  0  0  0  0  0  0  0  0  0
   60.9570   28.8540   50.8920 H   0  0  0  0  0  0  0  0  0  0  0  0
   59.3490   28.6520   50.4010 H   0  0  0  0  0  0  0  0  0  0  0  0
   60.3146   30.2526   48.4470 H   0  0  0  0  0  0  0  0  0  0  0  0
   59.4562   30.8181   49.9531 H   0  0  0  0  0  0  0  0  0  0  0  0
   61.2476   31.7912   50.7611 H   0  0  0  0  0  0  0  0  0  0  0  0
   63.2630   30.8310   51.0070 H   0  0  0  0  0  0  0  0  0  0  0  0
   64.1233   32.0941   49.8368 H   0  0  0  0  0  0  0  0  0  0  0  0
   65.1259   33.4898   48.0269 H   0  0  0  0  0  0  0  0  0  0  0  0
   63.7537   34.1454   46.0447 H   0  0  0  0  0  0  0  0  0  0  0  0
   61.3677   33.4191   45.8813 H   0  0  0  0  0  0  0  0  0  0  0  0
   60.3608   32.0073   47.6780 H   0  0  0  0  0  0  0  0  0  0  0  0
   58.2883   26.8682   48.6789 H   0  0  0  0  0  0  0  0  0  0  0  0
   56.8434   27.0526   46.6591 H   0  0  0  0  0  0  0  0  0  0  0  0
   57.5318   31.9569   42.4274 H   0  0  0  0  0  0  0  0  0  0  0  0
   58.6755   34.0775   43.0618 H   0  0  0  0  0  0  0  0  0  0  0  0
  1  2  1  0
  2  3  1  0
  3  4  2  0
  4  5  1  0
  5  6  2  0
  6  7  1  0
  7  8  2  0
  7  9  2  0
  7 10  1  0
 10 11  1  0
 11 12  2  0
 12 13  1  0
 13 14  2  0
 14 15  1  0
 15 16  1  0
 16 17  1  0
 17 18  1  0
 18 19  1  0
 18 20  1  0
 20 21  2  0
 21 22  1  0
 22 23  2  0
 23 24  1  0
 24 25  2  0
 14 26  1  0
 26 27  2  0
  6 28  1  0
 28 29  2  0
 29  3  1  0
 27 11  1  0
 25 20  1  0
  1 30  1  0
  1 31  1  0
  1 32  1  0
  4 33  1  0
  5 34  1  0
 12 35  1  0
 13 36  1  0
 15 37  1  0
 15 38  1  0
 16 39  1  0
 16 40  1  0
 17 41  1  0
 17 42  1  0
 18 43  1  1
 19 44  1  0
 21 45  1  0
 22 46  1  0
 23 47  1  0
 24 48  1  0
 25 49  1  0
 26 50  1  0
 27 51  1  0
 28 52  1  0
 29 53  1  0
M  CHG  2  10  -1  16   1
M  END
>  <UniqueID>  (18) 
16

>  <SMILES>  (18) 
COc1ccc(S(=O)(=O)[N-]c2ccc(C[NH2+]C[C@@H](O)c3ccccc3)cc2)cc1

>  <Energy>  (18) 
60.88532327032806

>  <Genealogy>  (18) 
COc1ccc(S(=O)(=O)[N-]c2ccc(C[NH2+]CC(O)c3ccccc3)cc2)cc1 (protonated)
COc1ccc(S(=O)(=O)[N-]c2ccc(C[NH2+]C[C@@H](O)c3ccccc3)cc2)cc1 (chirality)
COc1ccc(S(=O)(=O)[N-]c2ccc(C[NH2+]C[C@@H](O)c3ccccc3)cc2)cc1 (3D coordinates assigned)
COc1ccc(S(=O)(=O)[N-]c2ccc(C[NH2+]C[C@@H](O)c3ccccc3)cc2)cc1 (optimized conformer: 60.88532327032806 kcal/mol)

>  <smiles>  (18) 
COc1ccc(S(=O)(=O)Nc2ccc(CNCC(O)c3ccccc3)cc2)cc1

>  <score_type>  (18) 
oracle

>  <origin>  (18) 
adg

>  <m_score__min__energy>  (18) 
-8.3699999999999992

>  <m_primary>  (18) 
energy

$$$$
18:0
     RDKit          3D

 55 58  0  0  0  0  0  0  0  0999 V2000
   65.8260   32.6970   49.7950 C   0  0  0  0  0  0  0  0  0  0  0  0
   64.4410   33.2230   49.5530 C   0  0  0  0  0  0  0  0  0  0  0  0
   63.9320   33.3150   48.2490 C   0  0  0  0  0  0  0  0  0  0  0  0
   62.6300   33.7770   48.0310 C   0  0  0  0  0  0  0  0  0  0  0  0
   61.8220   34.1540   49.1120 C   0  0  0  0  0  0  0  0  0  0  0  0
   60.5170   34.6020   48.8570 O   0  0  0  0  0  0  0  0  0  0  0  0
   59.7690   34.2820   47.7140 C   0  0  0  0  0  0  0  0  0  0  0  0
   58.7850   33.2750   47.7310 C   0  0  0  0  0  0  0  0  0  0  0  0
   58.0560   32.9820   46.5760 C   0  0  0  0  0  0  0  0  0  0  0  0
   58.2990   33.6900   45.3890 C   0  0  0  0  0  0  0  0  0  0  0  0
   57.4920   33.4060   44.1560 C   0  0  0  0  0  0  0  0  0  0  0  0
   58.0280   32.2280   43.4880 N   0  0  0  0  0  0  0  0  0  0  0  0
   57.2770   31.0220   43.3210 C   0  0  0  0  0  0  0  0  0  0  0  0
   56.4520   30.9110   42.3730 O   0  0  0  0  0  0  0  0  0  0  0  0
   57.4570   29.9090   44.2610 C   0  0  0  0  0  0  0  0  0  0  0  0
   56.5240   28.9330   44.5570 C   0  0  0  0  0  0  0  0  0  0  0  0
   57.1510   28.1290   45.4900 C   0  0  0  0  0  0  0  0  0  0  0  0
   56.5460   26.9360   46.1170 C   0  0  0  0  0  0  0  0  0  0  0  0
   55.1400   26.7140   46.0060 N   0  0  0  0  0  0  0  0  0  0  0  0
   57.2520   26.1110   46.7500 O   0  0  0  0  0  0  0  0  0  0  0  0
   58.3920   28.6260   45.7200 N   0  0  0  0  0  0  0  0  0  0  0  0
   59.4250   28.1070   46.6200 C   0  0  0  0  0  0  0  0  0  0  0  0
   59.7420   29.0890   47.7220 C   0  0  0  0  0  0  0  0  0  0  0  0
   60.8480   29.9570   47.6230 C   0  0  0  0  0  0  0  0  0  0  0  0
   61.1040   30.8930   48.6310 C   0  0  0  0  0  0  0  0  0  0  0  0
   60.2430   30.9950   49.7280 C   0  0  0  0  0  0  0  0  0  0  0  0
   59.1280   30.1590   49.8180 C   0  0  0  0  0  0  0  0  0  0  0  0
   58.8760   29.2100   48.8190 C   0  0  0  0  0  0  0  0  0  0  0  0
   58.5800   29.7040   44.9740 N   0  0  0  0  0  0  0  0  0  0  0  0
   59.2560   34.7180   45.3830 C   0  0  0  0  0  0  0  0  0  0  0  0
   59.9820   35.0140   46.5410 C   0  0  0  0  0  0  0  0  0  0  0  0
   62.3220   34.0290   50.4210 C   0  0  0  0  0  0  0  0  0  0  0  0
   63.6220   33.5660   50.6400 C   0  0  0  0  0  0  0  0  0  0  0  0
   66.0080   32.6279   50.8776 H   0  0  0  0  0  0  0  0  0  0  0  0
   65.9236   31.6992   49.3423 H   0  0  0  0  0  0  0  0  0  0  0  0
   66.5613   33.3785   49.3423 H   0  0  0  0  0  0  0  0  0  0  0  0
   64.5596   33.0225   47.3943 H   0  0  0  0  0  0  0  0  0  0  0  0
   62.2382   33.8448   47.0054 H   0  0  0  0  0  0  0  0  0  0  0  0
   58.5894   32.7164   48.6582 H   0  0  0  0  0  0  0  0  0  0  0  0
   57.2890   32.1938   46.5970 H   0  0  0  0  0  0  0  0  0  0  0  0
   56.4442   33.2237   44.4370 H   0  0  0  0  0  0  0  0  0  0  0  0
   57.5434   34.2693   43.4762 H   0  0  0  0  0  0  0  0  0  0  0  0
   55.5109   28.8214   44.1432 H   0  0  0  0  0  0  0  0  0  0  0  0
   54.4740   27.1150   46.7030 H   0  0  0  0  0  0  0  0  0  0  0  0
   59.0690   27.1681   47.0692 H   0  0  0  0  0  0  0  0  0  0  0  0
   60.3405   27.9380   46.0341 H   0  0  0  0  0  0  0  0  0  0  0  0
   61.5132   29.8983   46.7489 H   0  0  0  0  0  0  0  0  0  0  0  0
   61.9838   31.5495   48.5604 H   0  0  0  0  0  0  0  0  0  0  0  0
   60.4436   31.7327   50.5189 H   0  0  0  0  0  0  0  0  0  0  0  0
   58.4454   30.2460   50.6762 H   0  0  0  0  0  0  0  0  0  0  0  0
   57.9946   28.5563   48.8951 H   0  0  0  0  0  0  0  0  0  0  0  0
   59.4354   35.2932   44.4627 H   0  0  0  0  0  0  0  0  0  0  0  0
   60.7239   35.8261   46.5295 H   0  0  0  0  0  0  0  0  0  0  0  0
   61.6857   34.2974   51.2772 H   0  0  0  0  0  0  0  0  0  0  0  0
   64.0045   33.4701   51.6669 H   0  0  0  0  0  0  0  0  0  0  0  0
  1  2  1  0
  2  3  2  0
  3  4  1  0
  4  5  2  0
  5  6  1  0
  6  7  1  0
  7  8  2  0
  8  9  1  0
  9 10  2  0
 10 11  1  0
 11 12  1  0
 12 13  1  0
 13 14  2  0
 13 15  1  0
 15 16  1  0
 16 17  2  0
 17 18  1  0
 18 19  1  0
 18 20  2  0
 17 21  1  0
 21 22  1  0
 22 23  1  0
 23 24  2  0
 24 25  1  0
 25 26  2  0
 26 27  1  0
 27 28  2  0
 21 29  1  0
 10 30  1  0
 30 31  2  0
  5 32  1  0
 32 33  2  0
 33  2  1  0
 31  7  1  0
 29 15  2  0
 28 23  1  0
  1 34  1  0
  1 35  1  0
  1 36  1  0
  3 37  1  0
  4 38  1  0
  8 39  1  0
  9 40  1  0
 11 41  1  0
 11 42  1  0
 16 43  1  0
 19 44  1  0
 22 45  1  0
 22 46  1  0
 24 47  1  0
 25 48  1  0
 26 49  1  0
 27 50  1  0
 28 51  1  0
 30 52  1  0
 31 53  1  0
 32 54  1  0
 33 55  1  0
M  CHG  2  12  -1  19  -1
M  END
>  <UniqueID>  (19) 
17

>  <SMILES>  (19) 
Cc1ccc(Oc2ccc(C[N-]C(=O)c3cc(C([NH-])=O)n(Cc4ccccc4)n3)cc2)cc1

>  <Energy>  (19) 
91.04149025973052

>  <Genealogy>  (19) 
Cc1ccc(Oc2ccc(C[N-]C(=O)c3cc(C([NH-])=O)n(Cc4ccccc4)n3)cc2)cc1 (protonated)
Cc1ccc(Oc2ccc(C[N-]C(=O)c3cc(C([NH-])=O)n(Cc4ccccc4)n3)cc2)cc1 (3D coordinates assigned)
Cc1ccc(Oc2ccc(C[N-]C(=O)c3cc(C([NH-])=O)n(Cc4ccccc4)n3)cc2)cc1 (optimized conformer: 91.04149025973052 kcal/mol)

>  <smiles>  (19) 
Cc1ccc(Oc2ccc(CNC(=O)c3cc(C(N)=O)n(Cc4ccccc4)n3)cc2)cc1

>  <score_type>  (19) 
oracle

>  <origin>  (19) 
adg

>  <m_score__min__energy>  (19) 
-13.279999999999999

>  <m_primary>  (19) 
energy

$$$$
19:0
     RDKit          3D

 51 54  0  0  0  0  0  0  0  0999 V2000
   64.8230   33.0690   49.4930 C   0  0  0  0  0  0  0  0  0  0  0  0
   64.3500   33.6520   50.8200 C   0  0  0  0  0  0  0  0  0  0  0  0
   62.8480   33.6100   50.9140 C   0  0  0  0  0  0  0  0  0  0  0  0
   62.2190   33.5530   52.1670 C   0  0  0  0  0  0  0  0  0  0  0  0
   60.8290   33.4600   52.2520 C   0  0  0  0  0  0  0  0  0  0  0  0
   60.0560   33.4230   51.0900 C   0  0  0  0  0  0  0  0  0  0  0  0
   60.6640   33.4930   49.8290 C   0  0  0  0  0  0  0  0  0  0  0  0
   59.8450   33.4280   48.6490 N   0  0  0  0  0  0  0  0  0  0  0  0
   60.1780   32.6580   47.4800 C   0  0  0  0  0  0  0  0  0  0  0  0
   61.2660   32.0250   47.4250 O   0  0  0  0  0  0  0  0  0  0  0  0
   59.2710   32.6450   46.3090 C   0  0  0  0  0  0  0  0  0  0  0  0
   58.7000   31.4290   45.8960 C   0  0  0  0  0  0  0  0  0  0  0  0
   57.8210   31.3860   44.8080 C   0  0  0  0  0  0  0  0  0  0  0  0
   57.0870   29.8540   44.3530 S   0  0  0  0  0  0  0  0  0  0  0  0
   56.9440   29.8010   42.8570 O   0  0  0  0  0  0  0  0  0  0  0  0
   55.7250   29.7010   44.9730 O   0  0  0  0  0  0  0  0  0  0  0  0
   58.1070   28.5600   44.8930 N   0  0  0  0  0  0  0  0  0  0  0  0
   59.5650   28.6140   44.9300 C   0  0  0  0  0  0  0  0  0  0  0  0
   60.0180   27.2990   45.6140 C   0  0  0  0  0  0  0  0  0  0  0  0
   58.7320   26.6140   45.9330 C   0  0  0  0  0  0  0  0  0  0  0  0
   58.5430   25.3840   46.5670 C   0  0  0  0  0  0  0  0  0  0  0  0
   57.2280   24.9310   46.7720 C   0  0  0  0  0  0  0  0  0  0  0  0
   56.1350   25.7100   46.3450 C   0  0  0  0  0  0  0  0  0  0  0  0
   56.3510   26.9430   45.7070 C   0  0  0  0  0  0  0  0  0  0  0  0
   57.6710   27.3670   45.5140 C   0  0  0  0  0  0  0  0  0  0  0  0
   57.5050   32.5650   44.1210 C   0  0  0  0  0  0  0  0  0  0  0  0
   58.0650   33.7790   44.5230 C   0  0  0  0  0  0  0  0  0  0  0  0
   58.9440   33.8310   45.6120 C   0  0  0  0  0  0  0  0  0  0  0  0
   59.6500   35.3890   46.0320 Cl  0  0  0  0  0  0  0  0  0  0  0  0
   62.0670   33.5610   49.7470 C   0  0  0  0  0  0  0  0  0  0  0  0
   65.5055   32.2278   49.6845 H   0  0  0  0  0  0  0  0  0  0  0  0
   63.9549   32.7134   48.9185 H   0  0  0  0  0  0  0  0  0  0  0  0
   65.3499   33.8451   48.9185 H   0  0  0  0  0  0  0  0  0  0  0  0
   64.7801   33.0661   51.6457 H   0  0  0  0  0  0  0  0  0  0  0  0
   64.6794   34.6996   50.8837 H   0  0  0  0  0  0  0  0  0  0  0  0
   62.8236   33.5817   53.0855 H   0  0  0  0  0  0  0  0  0  0  0  0
   60.3413   33.4157   53.2370 H   0  0  0  0  0  0  0  0  0  0  0  0
   58.9618   33.3383   51.1646 H   0  0  0  0  0  0  0  0  0  0  0  0
   59.0000   34.0430   48.6160 H   0  0  0  0  0  0  0  0  0  0  0  0
   58.9466   30.5015   46.4335 H   0  0  0  0  0  0  0  0  0  0  0  0
   59.9722   28.6754   43.9100 H   0  0  0  0  0  0  0  0  0  0  0  0
   59.9241   29.4991   45.4755 H   0  0  0  0  0  0  0  0  0  0  0  0
   60.6292   26.6905   44.9312 H   0  0  0  0  0  0  0  0  0  0  0  0
   60.6447   27.4706   46.5016 H   0  0  0  0  0  0  0  0  0  0  0  0
   59.4031   24.7836   46.8983 H   0  0  0  0  0  0  0  0  0  0  0  0
   57.0521   23.9648   47.2676 H   0  0  0  0  0  0  0  0  0  0  0  0
   55.1084   25.3517   46.5117 H   0  0  0  0  0  0  0  0  0  0  0  0
   55.5050   27.5590   45.3681 H   0  0  0  0  0  0  0  0  0  0  0  0
   56.8154   32.5344   43.2645 H   0  0  0  0  0  0  0  0  0  0  0  0
   57.8138   34.7021   43.9800 H   0  0  0  0  0  0  0  0  0  0  0  0
   62.5561   33.5759   48.7618 H   0  0  0  0  0  0  0  0  0  0  0  0
  1  2  1  0
  2  3  1  0
  3  4  2  0
  4  5  1  0
  5  6  2  0
  6  7  1  0
  7  8  1  0
  8  9  1  0
  9 10  2  0
  9 11  1  0
 11 12  2  0
 12 13  1  0
 13 14  1  0
 14 15  2  0
 14 16  2  0
 14 17  1  0
 17 18  1  0
 18 19  1  0
 19 20  1  0
 20 21  2  0
 21 22  1  0
 22 23  2  0
 23 24  1  0
 24 25  2  0
 13 26  2  0
 26 27  1  0
 27 28  2  0
 28 29  1  0
  7 30  2  0
 30  3  1  0
 28 11  1  0
 25 17  1  0
 25 20  1  0
  1 31  1  0
  1 32  1  0
  1 33  1  0
  2 34  1  0
  2 35  1  0
  4 36  1  0
  5 37  1  0
  6 38  1  0
  8 39  1  0
 12 40  1  0
 18 41  1  0
 18 42  1  0
 19 43  1  0
 19 44  1  0
 21 45  1  0
 22 46  1  0
 23 47  1  0
 24 48  1  0
 26 49  1  0
 27 50  1  0
 30 51  1  0
M  END
>  <UniqueID>  (20) 
18

>  <SMILES>  (20) 
CCc1cccc(NC(=O)c2cc(S(=O)(=O)N3CCc4ccccc43)ccc2Cl)c1

>  <Energy>  (20) 
75.665589064532

>  <Genealogy>  (20) 
CCc1cccc(NC(=O)c2cc(S(=O)(=O)N3CCc4ccccc43)ccc2Cl)c1 (3D coordinates assigned)
CCc1cccc(NC(=O)c2cc(S(=O)(=O)N3CCc4ccccc43)ccc2Cl)c1 (nonaromatic ring conformer: 75.665589064532 kcal/mol)

>  <smiles>  (20) 
CCc1cccc(NC(=O)c2cc(S(=O)(=O)N3CCc4ccccc43)ccc2Cl)c1

>  <score_type>  (20) 
oracle

>  <origin>  (20) 
adg

>  <m_score__min__energy>  (20) 
-10.210000000000001

>  <m_primary>  (20) 
energy

$$$$
20:0
     RDKit          3D

 34 35  0  0  0  0  0  0  0  0999 V2000
   56.6150   20.2600   46.9080 C   0  0  0  0  0  0  0  0  0  0  0  0
   56.6680   21.5900   47.4140 O   0  0  0  0  0  0  0  0  0  0  0  0
   57.0180   22.7160   46.6540 C   0  0  0  0  0  0  0  0  0  0  0  0
   58.1520   22.6400   45.8430 C   0  0  0  0  0  0  0  0  0  0  0  0
   58.5320   23.7250   45.0530 C   0  0  0  0  0  0  0  0  0  0  0  0
   57.7760   24.9010   45.0430 C   0  0  0  0  0  0  0  0  0  0  0  0
   58.1600   25.9120   44.1480 O   0  0  0  0  0  0  0  0  0  0  0  0
   58.4830   27.2320   44.4990 C   0  0  0  0  0  0  0  0  0  0  0  0
   57.7970   28.2370   43.8960 N   0  0  0  0  0  0  0  0  0  0  0  0
   58.0970   29.5410   44.1220 C   0  0  0  0  0  0  0  0  0  0  0  0
   57.1710   30.8210   43.2770 S   0  0  0  0  0  0  0  0  0  0  0  0
   55.5580   30.1020   43.7170 C   0  0  0  0  0  0  0  0  0  0  0  0
   59.1060   29.8700   44.9700 N   0  0  0  0  0  0  0  0  0  0  0  0
   59.8040   28.9070   45.6250 C   0  0  0  0  0  0  0  0  0  0  0  0
   59.4970   27.5540   45.4320 C   0  0  0  0  0  0  0  0  0  0  0  0
   60.1580   26.5560   46.2220 N   0  0  0  0  0  0  0  0  0  0  0  0
   59.5710   26.0380   47.1940 O   0  0  0  0  0  0  0  0  0  0  0  0
   61.5100   26.3470   46.0720 O   0  0  0  0  0  0  0  0  0  0  0  0
   56.6620   25.0210   45.9140 C   0  0  0  0  0  0  0  0  0  0  0  0
   55.9410   26.2980   46.0990 C   0  0  0  0  0  0  0  0  0  0  0  0
   54.6860   26.3400   45.9920 O   0  0  0  0  0  0  0  0  0  0  0  0
   56.6280   27.4530   46.4510 O   0  0  0  0  0  0  0  0  0  0  0  0
   56.2770   23.9110   46.6890 C   0  0  0  0  0  0  0  0  0  0  0  0
   56.5867   19.5493   47.7471 H   0  0  0  0  0  0  0  0  0  0  0  0
   55.7113   20.1374   46.2930 H   0  0  0  0  0  0  0  0  0  0  0  0
   57.5061   20.0659   46.2930 H   0  0  0  0  0  0  0  0  0  0  0  0
   58.7505   21.7172   45.8269 H   0  0  0  0  0  0  0  0  0  0  0  0
   59.4365   23.6546   44.4310 H   0  0  0  0  0  0  0  0  0  0  0  0
   55.4620   30.0592   44.8120 H   0  0  0  0  0  0  0  0  0  0  0  0
   54.7529   30.7264   43.3025 H   0  0  0  0  0  0  0  0  0  0  0  0
   55.4842   29.0858   43.3025 H   0  0  0  0  0  0  0  0  0  0  0  0
   59.3410   30.8730   45.1350 H   0  0  0  0  0  0  0  0  0  0  0  0
   60.6154   29.1910   46.3113 H   0  0  0  0  0  0  0  0  0  0  0  0
   55.3856   23.9789   47.3300 H   0  0  0  0  0  0  0  0  0  0  0  0
  1  2  1  0
  2  3  1  0
  3  4  2  0
  4  5  1  0
  5  6  2  0
  6  7  1  0
  7  8  1  0
  8  9  2  0
  9 10  1  0
 10 11  1  0
 11 12  1  0
 10 13  2  0
 13 14  1  0
 14 15  2  0
 15 16  1  0
 16 17  2  0
 16 18  1  0
  6 19  1  0
 19 20  1  0
 20 21  2  0
 20 22  1  0
 19 23  2  0
 23  3  1  0
 15  8  1  0
  1 24  1  0
  1 25  1  0
  1 26  1  0
  4 27  1  0
  5 28  1  0
 12 29  1  0
 12 30  1  0
 12 31  1  0
 13 32  1  0
 14 33  1  0
 23 34  1  0
M  CHG  4  13   1  16   1  18  -1  22  -1
M  END
>  <UniqueID>  (21) 
19

>  <SMILES>  (21) 
COc1ccc(Oc2nc(SC)[nH+]cc2[N+](=O)[O-])c(C(=O)[O-])c1

>  <Energy>  (21) 
48.4725498003037

>  <Genealogy>  (21) 
COc1ccc(Oc2nc(SC)[nH+]cc2[N+](=O)[O-])c(C(=O)[O-])c1 (protonated)
COc1ccc(Oc2nc(SC)[nH+]cc2[N+](=O)[O-])c(C(=O)[O-])c1 (3D coordinates assigned)
COc1ccc(Oc2nc(SC)[nH+]cc2[N+](=O)[O-])c(C(=O)[O-])c1 (optimized conformer: 48.4725498003037 kcal/mol)

>  <smiles>  (21) 
COc1ccc(Oc2nc(SC)ncc2[N+](=O)[O-])c(C(=O)O)c1

>  <score_type>  (21) 
oracle

>  <origin>  (21) 
adg

>  <m_score__min__energy>  (21) 
-8.5600000000000005

>  <m_primary>  (21) 
energy

$$$$
21:0
     RDKit          3D

 56 59  0  0  0  0  0  0  0  0999 V2000
   56.5534   21.3773   42.6221 H   0  0  0  0  0  0  0  0  0  0  0  0
   56.9060   22.1820   43.2840 C   0  0  0  0  0  0  0  0  0  0  0  0
   57.9810   21.9550   44.1460 C   0  0  0  0  0  0  0  0  0  0  0  0
   58.4759   20.9727   44.1606 H   0  0  0  0  0  0  0  0  0  0  0  0
   58.4290   22.9760   44.9910 C   0  0  0  0  0  0  0  0  0  0  0  0
   59.2827   22.7978   45.6614 H   0  0  0  0  0  0  0  0  0  0  0  0
   57.7920   24.2280   44.9860 C   0  0  0  0  0  0  0  0  0  0  0  0
   58.2940   25.3370   45.8660 C   0  0  0  0  0  0  0  0  0  0  0  0
   59.2051   25.7702   45.4276 H   0  0  0  0  0  0  0  0  0  0  0  0
   58.5239   24.9390   46.8654 H   0  0  0  0  0  0  0  0  0  0  0  0
   57.2670   26.3690   45.9750 N   0  0  0  0  0  0  0  0  0  0  0  0
   57.4530   27.6530   45.8580 C   0  0  0  0  0  0  0  0  0  0  0  0
   56.5020   28.3920   45.2330 N   0  0  0  0  0  0  0  0  0  0  0  0
   56.6360   29.7320   45.0740 C   0  0  0  0  0  0  0  0  0  0  0  0
   55.7260   30.3850   44.4990 O   0  0  0  0  0  0  0  0  0  0  0  0
   57.7790   30.3790   45.5560 C   0  0  0  0  0  0  0  0  0  0  0  0
   57.9490   31.7960   45.3920 N   0  0  0  0  0  0  0  0  0  0  0  0
   58.0000   32.4700   44.2230 C   0  0  0  0  0  0  0  0  0  0  0  0
   57.8520   31.8470   42.8690 C   0  0  0  0  0  0  0  0  0  0  0  0
   57.5991   30.7823   42.9809 H   0  0  0  0  0  0  0  0  0  0  0  0
   57.0503   32.3581   42.3158 H   0  0  0  0  0  0  0  0  0  0  0  0
   58.7979   31.9430   42.3158 H   0  0  0  0  0  0  0  0  0  0  0  0
   58.1880   33.8190   44.4620 C   0  0  0  0  0  0  0  0  0  0  0  0
   58.2591   34.6167   43.7079 H   0  0  0  0  0  0  0  0  0  0  0  0
   58.2690   33.9690   45.8320 C   0  0  0  0  0  0  0  0  0  0  0  0
   58.4286   34.9077   46.3829 H   0  0  0  0  0  0  0  0  0  0  0  0
   58.1100   32.7070   46.3760 C   0  0  0  0  0  0  0  0  0  0  0  0
   58.1640   32.3880   47.8390 C   0  0  0  0  0  0  0  0  0  0  0  0
   58.0082   33.3084   48.4210 H   0  0  0  0  0  0  0  0  0  0  0  0
   57.3762   31.6608   48.0850 H   0  0  0  0  0  0  0  0  0  0  0  0
   59.1473   31.9606   48.0850 H   0  0  0  0  0  0  0  0  0  0  0  0
   58.7610   29.6130   46.1960 C   0  0  0  0  0  0  0  0  0  0  0  0
   59.9180   30.2630   46.6620 O   0  0  0  0  0  0  0  0  0  0  0  0
   60.7650   29.7910   47.7090 C   0  0  0  0  0  0  0  0  0  0  0  0
   60.2668   28.9602   48.2302 H   0  0  0  0  0  0  0  0  0  0  0  0
   61.7146   29.4504   47.2705 H   0  0  0  0  0  0  0  0  0  0  0  0
   61.0580   30.9110   48.7120 C   0  0  0  0  0  0  0  0  0  0  0  0
   60.1085   31.3540   49.0471 H   0  0  0  0  0  0  0  0  0  0  0  0
   61.6027   30.4872   49.5685 H   0  0  0  0  0  0  0  0  0  0  0  0
   61.9070   31.9810   48.0770 C   0  0  0  0  0  0  0  0  0  0  0  0
   61.3580   32.8100   47.0830 C   0  0  0  0  0  0  0  0  0  0  0  0
   60.3041   32.6910   46.7911 H   0  0  0  0  0  0  0  0  0  0  0  0
   62.1460   33.7850   46.4640 C   0  0  0  0  0  0  0  0  0  0  0  0
   61.7090   34.4363   45.6927 H   0  0  0  0  0  0  0  0  0  0  0  0
   63.4880   33.9330   46.8240 C   0  0  0  0  0  0  0  0  0  0  0  0
   64.1056   34.7033   46.3389 H   0  0  0  0  0  0  0  0  0  0  0  0
   64.0460   33.1030   47.8000 C   0  0  0  0  0  0  0  0  0  0  0  0
   65.1037   33.2188   48.0789 H   0  0  0  0  0  0  0  0  0  0  0  0
   63.2640   32.1260   48.4230 C   0  0  0  0  0  0  0  0  0  0  0  0
   63.8280   31.3210   49.3590 F   0  0  0  0  0  0  0  0  0  0  0  0
   58.5760   28.2660   46.3450 N   0  0  0  0  0  0  0  0  0  0  0  0
   59.3030   27.7040   46.8340 H   0  0  0  0  0  0  0  0  0  0  0  0
   56.7210   24.4540   44.1050 C   0  0  0  0  0  0  0  0  0  0  0  0
   56.2299   25.4380   44.0785 H   0  0  0  0  0  0  0  0  0  0  0  0
   56.2780   23.4290   43.2610 C   0  0  0  0  0  0  0  0  0  0  0  0
   55.4337   23.6061   42.5785 H   0  0  0  0  0  0  0  0  0  0  0  0
  1  2  1  0
  2  3  2  0
  3  4  1  0
  3  5  1  0
  5  6  1  0
  5  7  2  0
  7  8  1  0
  8  9  1  0
  8 10  1  0
  8 11  1  0
 11 12  2  0
 12 13  1  0
 13 14  1  0
 14 15  2  0
 14 16  1  0
 16 17  1  0
 17 18  1  0
 18 19  1  0
 19 20  1  0
 19 21  1  0
 19 22  1  0
 18 23  2  0
 23 24  1  0
 23 25  1  0
 25 26  1  0
 25 27  2  0
 27 28  1  0
 28 29  1  0
 28 30  1  0
 28 31  1  0
 16 32  2  0
 32 33  1  0
 33 34  1  0
 34 35  1  0
 34 36  1  0
 34 37  1  0
 37 38  1  0
 37 39  1  0
 37 40  1  0
 40 41  2  0
 41 42  1  0
 41 43  1  0
 43 44  1  0
 43 45  2  0
 45 46  1  0
 45 47  1  0
 47 48  1  0
 47 49  2  0
 49 50  1  0
 32 51  1  0
 51 52  1  0
  7 53  1  0
 53 54  1  0
 53 55  2  0
 55 56  1  0
 55  2  1  0
 51 12  1  0
 27 17  1  0
 49 40  1  0
M  CHG  1  13  -1
M  END
>  <UniqueID>  (22) 
20

>  <SMILES>  (22) 
Cc1ccc(C)n1-c1c(OCCc2ccccc2F)[nH]/c(=N\Cc2ccccc2)[n-]c1=O

>  <Energy>  (22) 
89.22887945171081

>  <Genealogy>  (22) 
Cc1ccc(C)n1-c1c(OCCc2ccccc2F)[nH]c(=NCc2ccccc2)[n-]c1=O (protonated)
Cc1ccc(C)n1-c1c(OCCc2ccccc2F)[nH]/c(=N\Cc2ccccc2)[n-]c1=O (cis-trans isomerization)
Cc1ccc(C)n1-c1c(OCCc2ccccc2F)[nH]/c(=N\Cc2ccccc2)[n-]c1=O (3D coordinates assigned)
Cc1ccc(C)n1-c1c(OCCc2ccccc2F)[nH]/c(=N\Cc2ccccc2)[n-]c1=O (optimized conformer: 89.22887945171081 kcal/mol)

>  <smiles>  (22) 
Cc1ccc(C)n1-c1c(OCCc2ccccc2F)[nH]c(=NCc2ccccc2)[nH]c1=O

>  <score_type>  (22) 
oracle

>  <origin>  (22) 
adg

>  <m_score__min__energy>  (22) 
-11.23

>  <m_primary>  (22) 
energy

$$$$
22:0
     RDKit          3D

 62 65  0  0  0  0  0  0  0  0999 V2000
   53.6450   24.7940   45.5750 C   0  0  0  0  0  0  0  0  0  0  0  0
   54.4550   25.9190   45.8980 O   0  0  0  0  0  0  0  0  0  0  0  0
   55.8470   25.8750   46.0780 C   0  0  0  0  0  0  0  0  0  0  0  0
   56.4980   24.7210   46.5590 C   0  0  0  0  0  0  0  0  0  0  0  0
   57.8910   24.6890   46.6660 C   0  0  0  0  0  0  0  0  0  0  0  0
   58.6480   25.7990   46.2900 C   0  0  0  0  0  0  0  0  0  0  0  0
   58.0150   26.9510   45.8210 C   0  0  0  0  0  0  0  0  0  0  0  0
   56.6170   27.0090   45.7400 C   0  0  0  0  0  0  0  0  0  0  0  0
   56.0060   28.2070   45.2480 N   0  0  0  0  0  0  0  0  0  0  0  0
   56.6550   29.4800   45.1150 C   0  0  0  0  0  0  0  0  0  0  0  0
   55.9600   30.4870   44.8140 O   0  0  0  0  0  0  0  0  0  0  0  0
   58.1460   29.6290   45.2820 C   0  0  0  0  0  0  0  0  0  0  0  0
   58.4600   30.6040   46.3550 N   0  0  0  0  0  0  0  0  0  0  0  0
   58.6970   30.1230   47.6240 C   0  0  0  0  0  0  0  0  0  0  0  0
   58.6670   28.8750   47.8340 O   0  0  0  0  0  0  0  0  0  0  0  0
   58.9690   30.9750   48.6660 N   0  0  0  0  0  0  0  0  0  0  0  0
   59.2040   30.4400   50.0250 C   0  0  0  0  0  0  0  0  0  0  0  0
   60.6300   30.6690   50.4400 C   0  0  0  0  0  0  0  0  0  0  0  0
   61.0630   30.1190   51.4910 O   0  0  0  0  0  0  0  0  0  0  0  0
   61.4900   31.5000   49.6440 N   0  0  0  0  0  0  0  0  0  0  0  0
   62.8910   31.6730   49.9080 C   0  0  0  0  0  0  0  0  0  0  0  0
   63.5280   30.7860   50.7870 C   0  0  0  0  0  0  0  0  0  0  0  0
   64.8890   30.9310   51.0910 C   0  0  0  0  0  0  0  0  0  0  0  0
   65.5740   29.9490   51.9950 C   0  0  0  0  0  0  0  0  0  0  0  0
   65.6210   31.9640   50.4920 C   0  0  0  0  0  0  0  0  0  0  0  0
   64.9910   32.8700   49.6360 C   0  0  0  0  0  0  0  0  0  0  0  0
   63.6170   32.7470   49.3500 C   0  0  0  0  0  0  0  0  0  0  0  0
   62.9450   33.6790   48.5430 O   0  0  0  0  0  0  0  0  0  0  0  0
   61.8630   34.4960   48.9790 C   0  0  0  0  0  0  0  0  0  0  0  0
   58.9830   32.3280   48.4640 C   0  0  0  0  0  0  0  0  0  0  0  0
   59.1850   33.1100   49.4360 O   0  0  0  0  0  0  0  0  0  0  0  0
   58.7840   32.8530   47.1810 C   0  0  0  0  0  0  0  0  0  0  0  0
   58.8340   34.2430   46.9490 C   0  0  0  0  0  0  0  0  0  0  0  0
   58.6780   34.7520   45.6620 C   0  0  0  0  0  0  0  0  0  0  0  0
   58.4790   33.8860   44.5910 C   0  0  0  0  0  0  0  0  0  0  0  0
   58.4180   32.5060   44.8020 C   0  0  0  0  0  0  0  0  0  0  0  0
   58.5470   31.9600   46.1070 C   0  0  0  0  0  0  0  0  0  0  0  0
   53.2988   24.3132   46.5018 H   0  0  0  0  0  0  0  0  0  0  0  0
   52.7762   25.1245   44.9868 H   0  0  0  0  0  0  0  0  0  0  0  0
   54.2340   24.0749   44.9868 H   0  0  0  0  0  0  0  0  0  0  0  0
   55.9064   23.8410   46.8517 H   0  0  0  0  0  0  0  0  0  0  0  0
   58.3916   23.7869   47.0474 H   0  0  0  0  0  0  0  0  0  0  0  0
   59.7451   25.7661   46.3633 H   0  0  0  0  0  0  0  0  0  0  0  0
   58.6169   27.8187   45.5131 H   0  0  0  0  0  0  0  0  0  0  0  0
   58.5791   28.6524   45.5438 H   0  0  0  0  0  0  0  0  0  0  0  0
   58.5723   29.9952   44.3364 H   0  0  0  0  0  0  0  0  0  0  0  0
   58.5342   30.9474   50.7349 H   0  0  0  0  0  0  0  0  0  0  0  0
   59.0031   29.3585   50.0219 H   0  0  0  0  0  0  0  0  0  0  0  0
   61.0490   32.1240   48.9280 H   0  0  0  0  0  0  0  0  0  0  0  0
   62.9533   29.9667   51.2436 H   0  0  0  0  0  0  0  0  0  0  0  0
   65.3839   30.2215   53.0436 H   0  0  0  0  0  0  0  0  0  0  0  0
   65.1835   28.9389   51.8021 H   0  0  0  0  0  0  0  0  0  0  0  0
   66.6568   29.9666   51.8021 H   0  0  0  0  0  0  0  0  0  0  0  0
   66.6973   32.0622   50.6968 H   0  0  0  0  0  0  0  0  0  0  0  0
   65.5721   33.6860   49.1816 H   0  0  0  0  0  0  0  0  0  0  0  0
   61.8378   34.5150   50.0785 H   0  0  0  0  0  0  0  0  0  0  0  0
   61.9990   35.5188   48.5976 H   0  0  0  0  0  0  0  0  0  0  0  0
   60.9165   34.0852   48.5976 H   0  0  0  0  0  0  0  0  0  0  0  0
   58.9976   34.9310   47.7915 H   0  0  0  0  0  0  0  0  0  0  0  0
   58.7121   35.8383   45.4921 H   0  0  0  0  0  0  0  0  0  0  0  0
   58.3692   34.2897   43.5736 H   0  0  0  0  0  0  0  0  0  0  0  0
   58.2679   31.8328   43.9451 H   0  0  0  0  0  0  0  0  0  0  0  0
  1  2  1  0
  2  3  1  0
  3  4  2  0
  4  5  1  0
  5  6  2  0
  6  7  1  0
  7  8  2  0
  8  9  1  0
  9 10  1  0
 10 11  2  0
 10 12  1  0
 12 13  1  0
 13 14  1  0
 14 15  2  0
 14 16  1  0
 16 17  1  0
 17 18  1  0
 18 19  2  0
 18 20  1  0
 20 21  1  0
 21 22  2  0
 22 23  1  0
 23 24  1  0
 23 25  2  0
 25 26  1  0
 26 27  2  0
 27 28  1  0
 28 29  1  0
 16 30  1  0
 30 31  2  0
 30 32  1  0
 32 33  2  0
 33 34  1  0
 34 35  2  0
 35 36  1  0
 36 37  2  0
  8  3  1  0
 37 13  1  0
 27 21  1  0
 37 32  1  0
  1 38  1  0
  1 39  1  0
  1 40  1  0
  4 41  1  0
  5 42  1  0
  6 43  1  0
  7 44  1  0
 12 45  1  0
 12 46  1  0
 17 47  1  0
 17 48  1  0
 20 49  1  0
 22 50  1  0
 24 51  1  0
 24 52  1  0
 24 53  1  0
 25 54  1  0
 26 55  1  0
 29 56  1  0
 29 57  1  0
 29 58  1  0
 33 59  1  0
 34 60  1  0
 35 61  1  0
 36 62  1  0
M  CHG  1   9  -1
M  END
>  <UniqueID>  (23) 
21

>  <SMILES>  (23) 
COc1ccccc1[N-]C(=O)Cn1c(=O)n(CC(=O)Nc2cc(C)ccc2OC)c(=O)c2ccccc21

>  <Energy>  (23) 
90.24570152949092

>  <Genealogy>  (23) 
COc1ccccc1[N-]C(=O)Cn1c(=O)n(CC(=O)Nc2cc(C)ccc2OC)c(=O)c2ccccc21 (protonated)
COc1ccccc1[N-]C(=O)Cn1c(=O)n(CC(=O)Nc2cc(C)ccc2OC)c(=O)c2ccccc21 (3D coordinates assigned)
COc1ccccc1[N-]C(=O)Cn1c(=O)n(CC(=O)Nc2cc(C)ccc2OC)c(=O)c2ccccc21 (optimized conformer: 90.24570152949092 kcal/mol)

>  <smiles>  (23) 
COc1ccc(C)cc1NC(=O)Cn1c(=O)c2ccccc2n(CC(=O)Nc2ccccc2OC)c1=O

>  <score_type>  (23) 
oracle

>  <origin>  (23) 
adg

>  <m_score__min__energy>  (23) 
-11.74

>  <m_primary>  (23) 
energy

$$$$
23:0
     RDKit          3D

 57 60  0  0  1  0  0  0  0  0999 V2000
   60.7780   26.9580   49.3410 C   0  0  0  0  0  0  0  0  0  0  0  0
   60.4990   28.3950   49.2080 N   0  0  0  0  0  0  0  0  0  0  0  0
   59.9860   31.0330   48.9570 C   0  0  0  0  0  0  0  0  0  0  0  0
   61.8490   28.8070   50.9080 O   0  0  0  0  0  0  0  0  0  0  0  0
   60.8390   30.6270   49.9390 N   0  0  0  0  0  0  0  0  0  0  0  0
   61.4800   31.5300   50.8510 C   0  0  0  0  0  0  0  0  0  0  0  0
   62.7890   32.0180   50.3750 C   0  0  0  0  0  0  0  0  0  0  0  0
   63.9550   31.9830   51.1000 C   0  0  0  0  0  0  0  0  0  0  0  0
   65.1660   32.4630   50.6080 C   0  0  0  0  0  0  0  0  0  0  0  0
   65.2470   33.0040   49.3490 C   0  0  0  0  0  0  0  0  0  0  0  0
   64.0960   33.0510   48.6050 C   0  0  0  0  0  0  0  0  0  0  0  0
   62.8900   32.5720   49.0950 C   0  0  0  0  0  0  0  0  0  0  0  0
   61.0700   29.2980   50.0320 C   0  0  0  0  0  0  0  0  0  0  0  0
   59.6970   32.2510   48.7310 N   0  0  0  0  0  0  0  0  0  0  0  0
   59.3910   30.0980   48.0990 C   0  0  0  0  0  0  0  0  0  0  0  0
   58.5260   30.5010   47.1030 C   0  0  0  0  0  0  0  0  0  0  0  0
   58.1300   32.2240   46.8650 S   0  0  0  0  0  0  0  0  0  0  0  0
   58.6050   32.7810   45.2020 C   0  0  0  0  0  0  0  0  0  0  0  0
   57.9060   31.9670   44.1590 C   0  0  0  0  0  0  0  0  0  0  0  0
   58.2060   32.1020   42.9430 O   0  0  0  0  0  0  0  0  0  0  0  0
   56.9130   31.0580   44.6100 N   0  0  0  0  0  0  0  0  0  0  0  0
   56.2260   30.2680   43.6730 C   0  0  0  0  0  0  0  0  0  0  0  0
   55.2190   29.3450   44.1110 N   0  0  0  0  0  0  0  0  0  0  0  0
   56.5100   30.3870   42.4430 O   0  0  0  0  0  0  0  0  0  0  0  0
   57.9580   29.5730   46.2810 N   0  0  0  0  0  0  0  0  0  0  0  0
   58.2160   28.2660   46.4100 C   0  0  0  0  0  0  0  0  0  0  0  0
   57.6260   27.2160   45.5420 C   0  0  1  0  0  0  0  0  0  0  0  0
   58.3210   25.9040   45.6360 C   0  0  0  0  0  0  0  0  0  0  0  0
   57.2610   24.9400   45.1460 C   0  0  0  0  0  0  0  0  0  0  0  0
   56.0220   25.5380   45.7950 C   0  0  0  0  0  0  0  0  0  0  0  0
   56.2500   26.9620   45.8470 N   0  0  0  0  0  0  0  0  0  0  0  0
   59.0630   27.9010   47.3890 N   0  0  0  0  0  0  0  0  0  0  0  0
   59.6510   28.7500   48.2250 C   0  0  0  0  0  0  0  0  0  0  0  0
   60.8297   26.6917   50.4070 H   0  0  0  0  0  0  0  0  0  0  0  0
   59.9749   26.3823   48.8578 H   0  0  0  0  0  0  0  0  0  0  0  0
   61.7382   26.7247   48.8578 H   0  0  0  0  0  0  0  0  0  0  0  0
   60.8202   32.3967   51.0041 H   0  0  0  0  0  0  0  0  0  0  0  0
   61.6617   30.9738   51.7825 H   0  0  0  0  0  0  0  0  0  0  0  0
   63.9312   31.5570   52.1139 H   0  0  0  0  0  0  0  0  0  0  0  0
   66.0679   32.4080   51.2353 H   0  0  0  0  0  0  0  0  0  0  0  0
   66.1993   33.3854   48.9519 H   0  0  0  0  0  0  0  0  0  0  0  0
   64.1300   33.4800   47.5927 H   0  0  0  0  0  0  0  0  0  0  0  0
   61.9922   32.6292   48.4620 H   0  0  0  0  0  0  0  0  0  0  0  0
   59.1460   32.8190   49.3700 H   0  0  0  0  0  0  0  0  0  0  0  0
   58.3285   33.8388   45.0815 H   0  0  0  0  0  0  0  0  0  0  0  0
   59.6914   32.6578   45.0815 H   0  0  0  0  0  0  0  0  0  0  0  0
   56.6650   30.9460   45.6160 H   0  0  0  0  0  0  0  0  0  0  0  0
   54.2310   29.6640   44.2310 H   0  0  0  0  0  0  0  0  0  0  0  0
   55.5500   28.3740   44.2890 H   0  0  0  0  0  0  0  0  0  0  0  0
   57.7392   27.6301   44.5292 H   0  0  0  0  0  0  0  0  0  0  0  0
   59.2116   25.8781   44.9909 H   0  0  0  0  0  0  0  0  0  0  0  0
   58.6919   25.6740   46.6457 H   0  0  0  0  0  0  0  0  0  0  0  0
   57.1860   24.9423   44.0486 H   0  0  0  0  0  0  0  0  0  0  0  0
   57.4477   23.8858   45.3988 H   0  0  0  0  0  0  0  0  0  0  0  0
   55.1292   25.3154   45.1922 H   0  0  0  0  0  0  0  0  0  0  0  0
   55.8501   25.1200   46.7978 H   0  0  0  0  0  0  0  0  0  0  0  0
   55.8850   27.4310   46.6940 H   0  0  0  0  0  0  0  0  0  0  0  0
  1  2  1  0
  2  3  1  0
  3  4  2  0
  3  5  1  0
  5  6  1  0
  6  7  1  0
  7  8  2  0
  8  9  1  0
  9 10  2  0
 10 11  1  0
 11 12  2  0
  5 13  1  0
 13 14  2  3
 13 15  1  0
 15 16  2  0
 16 17  1  0
 17 18  1  0
 18 19  1  0
 19 20  2  0
 19 21  1  0
 21 22  1  0
 22 23  1  0
 22 24  2  0
 16 25  1  0
 25 26  2  0
 26 27  1  0
 27 28  1  0
 28 29  1  0
 29 30  1  0
 30 31  1  0
 26 32  1  0
 32 33  2  0
 33  2  1  0
 12  7  1  0
 33 15  1  0
 31 27  1  0
  1 34  1  0
  1 35  1  0
  1 36  1  0
  6 37  1  0
  6 38  1  0
  8 39  1  0
  9 40  1  0
 10 41  1  0
 11 42  1  0
 12 43  1  0
 14 44  1  0
 18 45  1  0
 18 46  1  0
 21 47  1  0
 23 48  1  0
 23 49  1  0
 27 50  1  6
 28 51  1  0
 28 52  1  0
 29 53  1  0
 29 54  1  0
 30 55  1  0
 30 56  1  0
 31 57  1  0
M  END
>  <smiles>  (24) 
Cn1c(=O)n(Cc2ccccc2)c(=N)c2c(SCC(=O)NC(N)=O)nc(C3CCCN3)nc21

>  <score_type>  (24) 
oracle

>  <origin>  (24) 
adg

>  <m_score__min__energy>  (24) 
-8.5500000000000007

>  <m_primary>  (24) 
energy

$$$$
24:0
     RDKit          3D

 49 51  0  0  0  0  0  0  0  0999 V2000
   58.9720   28.8720   45.3560 C   0  0  0  0  0  0  0  0  0  0  0  0
   57.6740   28.2210   45.5550 N   0  0  0  0  0  0  0  0  0  0  0  0
   56.4920   28.7010   44.8240 C   0  0  0  0  0  0  0  0  0  0  0  0
   56.8220   29.9680   44.0830 C   0  0  0  0  0  0  0  0  0  0  0  0
   57.3540   29.8810   42.9460 O   0  0  0  0  0  0  0  0  0  0  0  0
   56.4320   31.2600   44.5660 N   0  0  0  0  0  0  0  0  0  0  0  0
   57.2640   32.2060   45.2490 C   0  0  0  0  0  0  0  0  0  0  0  0
   57.3870   33.5330   44.8080 C   0  0  0  0  0  0  0  0  0  0  0  0
   58.2080   34.4320   45.4950 C   0  0  0  0  0  0  0  0  0  0  0  0
   58.8920   34.0240   46.6560 C   0  0  0  0  0  0  0  0  0  0  0  0
   59.7390   34.8800   47.3790 O   0  0  0  0  0  0  0  0  0  0  0  0
   60.3120   34.5870   48.6540 C   0  0  0  0  0  0  0  0  0  0  0  0
   61.6570   33.9270   48.4970 C   0  0  0  0  0  0  0  0  0  0  0  0
   62.1700   33.6440   47.2190 C   0  0  0  0  0  0  0  0  0  0  0  0
   63.4150   33.0220   47.0820 C   0  0  0  0  0  0  0  0  0  0  0  0
   64.1530   32.6720   48.2160 C   0  0  0  0  0  0  0  0  0  0  0  0
   63.6440   32.9400   49.4910 C   0  0  0  0  0  0  0  0  0  0  0  0
   62.3990   33.5610   49.6320 C   0  0  0  0  0  0  0  0  0  0  0  0
   58.7290   32.7120   47.1170 C   0  0  0  0  0  0  0  0  0  0  0  0
   57.9100   31.8140   46.4260 C   0  0  0  0  0  0  0  0  0  0  0  0
   57.6200   27.0140   46.3450 C   0  0  0  0  0  0  0  0  0  0  0  0
   58.0880   27.0200   47.5150 O   0  0  0  0  0  0  0  0  0  0  0  0
   57.0100   25.7670   45.8250 C   0  0  0  0  0  0  0  0  0  0  0  0
   57.8260   24.6880   45.4400 C   0  0  0  0  0  0  0  0  0  0  0  0
   57.2600   23.5140   44.9350 C   0  0  0  0  0  0  0  0  0  0  0  0
   55.8750   23.4140   44.7840 C   0  0  0  0  0  0  0  0  0  0  0  0
   55.0560   24.4880   45.1340 C   0  0  0  0  0  0  0  0  0  0  0  0
   55.6140   25.6630   45.6540 C   0  0  0  0  0  0  0  0  0  0  0  0
   54.7720   26.7110   46.0130 O   0  0  0  0  0  0  0  0  0  0  0  0
   59.4226   29.0980   46.3337 H   0  0  0  0  0  0  0  0  0  0  0  0
   59.6364   28.2005   44.7925 H   0  0  0  0  0  0  0  0  0  0  0  0
   58.8311   29.8061   44.7925 H   0  0  0  0  0  0  0  0  0  0  0  0
   56.1715   27.9322   44.1055 H   0  0  0  0  0  0  0  0  0  0  0  0
   55.6828   28.9035   45.5411 H   0  0  0  0  0  0  0  0  0  0  0  0
   56.8346   33.8671   43.9174 H   0  0  0  0  0  0  0  0  0  0  0  0
   58.3201   35.4625   45.1269 H   0  0  0  0  0  0  0  0  0  0  0  0
   60.4334   35.5232   49.2186 H   0  0  0  0  0  0  0  0  0  0  0  0
   59.6425   33.8996   49.1919 H   0  0  0  0  0  0  0  0  0  0  0  0
   61.5901   33.9128   46.3238 H   0  0  0  0  0  0  0  0  0  0  0  0
   63.8142   32.8078   46.0796 H   0  0  0  0  0  0  0  0  0  0  0  0
   65.1337   32.1860   48.1060 H   0  0  0  0  0  0  0  0  0  0  0  0
   64.2236   32.6620   50.3836 H   0  0  0  0  0  0  0  0  0  0  0  0
   61.9990   33.7638   50.6364 H   0  0  0  0  0  0  0  0  0  0  0  0
   59.2492   32.3854   48.0296 H   0  0  0  0  0  0  0  0  0  0  0  0
   57.7728   30.7926   46.8105 H   0  0  0  0  0  0  0  0  0  0  0  0
   58.9187   24.7687   45.5371 H   0  0  0  0  0  0  0  0  0  0  0  0
   57.9057   22.6682   44.6563 H   0  0  0  0  0  0  0  0  0  0  0  0
   55.4301   22.4887   44.3892 H   0  0  0  0  0  0  0  0  0  0  0  0
   53.9667   24.4117   45.0009 H   0  0  0  0  0  0  0  0  0  0  0  0
  1  2  1  0
  2  3  1  0
  3  4  1  0
  4  5  2  0
  4  6  1  0
  6  7  1  0
  7  8  2  0
  8  9  1  0
  9 10  2  0
 10 11  1  0
 11 12  1  0
 12 13  1  0
 13 14  2  0
 14 15  1  0
 15 16  2  0
 16 17  1  0
 17 18  2  0
 10 19  1  0
 19 20  2  0
  2 21  1  0
 21 22  2  0
 21 23  1  0
 23 24  2  0
 24 25  1  0
 25 26  2  0
 26 27  1  0
 27 28  2  0
 28 29  1  0
 20  7  1  0
 28 23  1  0
 18 13  1  0
  1 30  1  0
  1 31  1  0
  1 32  1  0
  3 33  1  0
  3 34  1  0
  8 35  1  0
  9 36  1  0
 12 37  1  0
 12 38  1  0
 14 39  1  0
 15 40  1  0
 16 41  1  0
 17 42  1  0
 18 43  1  0
 19 44  1  0
 20 45  1  0
 24 46  1  0
 25 47  1  0
 26 48  1  0
 27 49  1  0
M  CHG  2   6  -1  29  -1
M  END
>  <UniqueID>  (25) 
22

>  <SMILES>  (25) 
CN(CC(=O)[N-]c1ccc(OCc2ccccc2)cc1)C(=O)c1ccccc1[O-]

>  <Energy>  (25) 
56.49647295978786

>  <Genealogy>  (25) 
CN(CC(=O)[N-]c1ccc(OCc2ccccc2)cc1)C(=O)c1ccccc1[O-] (protonated)
CN(CC(=O)[N-]c1ccc(OCc2ccccc2)cc1)C(=O)c1ccccc1[O-] (3D coordinates assigned)
CN(CC(=O)[N-]c1ccc(OCc2ccccc2)cc1)C(=O)c1ccccc1[O-] (optimized conformer: 56.49647295978786 kcal/mol)

>  <smiles>  (25) 
CN(CC(=O)Nc1ccc(OCc2ccccc2)cc1)C(=O)c1ccccc1O

>  <score_type>  (25) 
oracle

>  <origin>  (25) 
adg

>  <m_score__min__energy>  (25) 
-13.91

>  <m_primary>  (25) 
energy

$$$$
25:0
     RDKit          3D

 74 77  0  0  0  0  0  0  0  0999 V2000
   54.4410   30.7710   51.6220 C   0  0  0  0  0  0  0  0  0  0  0  0
   55.6810   30.8230   52.5300 C   0  0  0  0  0  0  0  0  0  0  0  0
   56.2320   29.4020   52.7430 C   0  0  0  0  0  0  0  0  0  0  0  0
   56.7410   31.7830   51.9270 C   0  0  0  0  0  0  0  0  0  0  0  0
   58.1970   31.3660   52.2310 C   0  0  0  0  0  0  0  0  0  0  0  0
   59.1010   31.6670   51.0950 N   0  0  0  0  0  0  0  0  0  0  0  0
   60.5320   31.5890   51.4860 C   0  0  0  0  0  0  0  0  0  0  0  0
   61.4450   31.0270   50.3810 C   0  0  0  0  0  0  0  0  0  0  0  0
   61.4780   29.4790   50.3050 C   0  0  0  0  0  0  0  0  0  0  0  0
   60.3520   28.9380   49.5110 N   0  0  0  0  0  0  0  0  0  0  0  0
   60.5540   29.0640   48.0460 C   0  0  0  0  0  0  0  0  0  0  0  0
   59.4380   28.4490   47.2160 C   0  0  0  0  0  0  0  0  0  0  0  0
   59.3160   27.0560   47.0940 C   0  0  0  0  0  0  0  0  0  0  0  0
   58.2890   26.5020   46.3220 C   0  0  0  0  0  0  0  0  0  0  0  0
   57.3660   27.3300   45.6780 C   0  0  0  0  0  0  0  0  0  0  0  0
   57.4770   28.7280   45.7900 C   0  0  0  0  0  0  0  0  0  0  0  0
   56.5310   29.6160   45.1660 N   0  0  0  0  0  0  0  0  0  0  0  0
   56.8330   30.6790   44.2550 C   0  0  0  0  0  0  0  0  0  0  0  0
   56.4000   30.5800   43.0730 O   0  0  0  0  0  0  0  0  0  0  0  0
   57.6200   31.8760   44.6620 C   0  0  0  0  0  0  0  0  0  0  0  0
   57.8740   32.1250   46.0230 C   0  0  0  0  0  0  0  0  0  0  0  0
   58.6550   33.2160   46.4270 C   0  0  0  0  0  0  0  0  0  0  0  0
   58.8980   33.3780   47.8010 O   0  0  0  0  0  0  0  0  0  0  0  0
   59.8370   34.2940   48.3540 C   0  0  0  0  0  0  0  0  0  0  0  0
   61.2100   33.7050   48.2030 C   0  0  0  0  0  0  0  0  0  0  0  0
   62.2810   34.1970   48.9670 C   0  0  0  0  0  0  0  0  0  0  0  0
   63.5280   33.5660   48.9180 C   0  0  0  0  0  0  0  0  0  0  0  0
   63.7110   32.4350   48.1210 C   0  0  0  0  0  0  0  0  0  0  0  0
   62.6470   31.9300   47.3680 C   0  0  0  0  0  0  0  0  0  0  0  0
   61.3980   32.5600   47.4100 C   0  0  0  0  0  0  0  0  0  0  0  0
   59.1670   34.0910   45.4530 C   0  0  0  0  0  0  0  0  0  0  0  0
   58.8970   33.8700   44.1010 C   0  0  0  0  0  0  0  0  0  0  0  0
   58.1290   32.7760   43.7020 C   0  0  0  0  0  0  0  0  0  0  0  0
   57.8980   32.5900   42.3770 F   0  0  0  0  0  0  0  0  0  0  0  0
   58.5020   29.2790   46.5710 C   0  0  0  0  0  0  0  0  0  0  0  0
   59.0000   29.3800   49.9510 C   0  0  0  0  0  0  0  0  0  0  0  0
   58.7500   30.9060   49.8690 C   0  0  0  0  0  0  0  0  0  0  0  0
   53.5335   30.7329   52.2425 H   0  0  0  0  0  0  0  0  0  0  0  0
   54.4136   31.6688   50.9870 H   0  0  0  0  0  0  0  0  0  0  0  0
   54.4889   29.8741   50.9870 H   0  0  0  0  0  0  0  0  0  0  0  0
   55.4053   31.2209   53.5177 H   0  0  0  0  0  0  0  0  0  0  0  0
   56.3114   29.1973   53.8209 H   0  0  0  0  0  0  0  0  0  0  0  0
   55.5518   28.6718   52.2802 H   0  0  0  0  0  0  0  0  0  0  0  0
   57.2266   29.3212   52.2802 H   0  0  0  0  0  0  0  0  0  0  0  0
   56.6070   31.8076   50.8355 H   0  0  0  0  0  0  0  0  0  0  0  0
   56.5843   32.7684   52.3900 H   0  0  0  0  0  0  0  0  0  0  0  0
   58.5464   31.9124   53.1194 H   0  0  0  0  0  0  0  0  0  0  0  0
   58.2140   30.2800   52.4050 H   0  0  0  0  0  0  0  0  0  0  0  0
   60.8781   32.6015   51.7411 H   0  0  0  0  0  0  0  0  0  0  0  0
   60.5953   30.8969   52.3387 H   0  0  0  0  0  0  0  0  0  0  0  0
   61.0910   31.4117   49.4132 H   0  0  0  0  0  0  0  0  0  0  0  0
   62.4678   31.3518   50.6227 H   0  0  0  0  0  0  0  0  0  0  0  0
   62.4238   29.1666   49.8384 H   0  0  0  0  0  0  0  0  0  0  0  0
   61.3905   29.0869   51.3290 H   0  0  0  0  0  0  0  0  0  0  0  0
   60.6227   30.1331   47.7963 H   0  0  0  0  0  0  0  0  0  0  0  0
   61.4746   28.5138   47.8017 H   0  0  0  0  0  0  0  0  0  0  0  0
   60.0312   26.3968   47.6078 H   0  0  0  0  0  0  0  0  0  0  0  0
   58.2079   25.4096   46.2216 H   0  0  0  0  0  0  0  0  0  0  0  0
   56.5525   26.8888   45.0834 H   0  0  0  0  0  0  0  0  0  0  0  0
   57.4521   31.4514   46.7835 H   0  0  0  0  0  0  0  0  0  0  0  0
   59.7820   35.2530   47.8180 H   0  0  0  0  0  0  0  0  0  0  0  0
   59.6142   34.4723   49.4163 H   0  0  0  0  0  0  0  0  0  0  0  0
   62.1385   35.0812   49.6057 H   0  0  0  0  0  0  0  0  0  0  0  0
   64.3668   33.9621   49.5092 H   0  0  0  0  0  0  0  0  0  0  0  0
   64.6930   31.9407   48.0853 H   0  0  0  0  0  0  0  0  0  0  0  0
   62.7915   31.0370   46.7422 H   0  0  0  0  0  0  0  0  0  0  0  0
   60.5609   32.1578   46.8205 H   0  0  0  0  0  0  0  0  0  0  0  0
   59.7815   34.9514   45.7566 H   0  0  0  0  0  0  0  0  0  0  0  0
   59.2929   34.5638   43.3448 H   0  0  0  0  0  0  0  0  0  0  0  0
   58.5757   30.3710   46.6810 H   0  0  0  0  0  0  0  0  0  0  0  0
   58.2541   28.8778   49.3174 H   0  0  0  0  0  0  0  0  0  0  0  0
   58.9211   29.1129   51.0152 H   0  0  0  0  0  0  0  0  0  0  0  0
   59.3481   31.3054   49.0367 H   0  0  0  0  0  0  0  0  0  0  0  0
   57.6663   31.0325   49.7287 H   0  0  0  0  0  0  0  0  0  0  0  0
  1  2  1  0
  2  3  1  0
  2  4  1  0
  4  5  1  0
  5  6  1  0
  6  7  1  0
  7  8  1  0
  8  9  1  0
  9 10  1  0
 10 11  1  0
 11 12  1  0
 12 13  2  0
 13 14  1  0
 14 15  2  0
 15 16  1  0
 16 17  1  0
 17 18  1  0
 18 19  2  0
 18 20  1  0
 20 21  2  0
 21 22  1  0
 22 23  1  0
 23 24  1  0
 24 25  1  0
 25 26  2  0
 26 27  1  0
 27 28  2  0
 28 29  1  0
 29 30  2  0
 22 31  2  0
 31 32  1  0
 32 33  2  0
 33 34  1  0
 16 35  2  0
 10 36  1  0
 36 37  1  0
 37  6  1  0
 35 12  1  0
 33 20  1  0
 30 25  1  0
  1 38  1  0
  1 39  1  0
  1 40  1  0
  2 41  1  0
  3 42  1  0
  3 43  1  0
  3 44  1  0
  4 45  1  0
  4 46  1  0
  5 47  1  0
  5 48  1  0
  7 49  1  0
  7 50  1  0
  8 51  1  0
  8 52  1  0
  9 53  1  0
  9 54  1  0
 11 55  1  0
 11 56  1  0
 13 57  1  0
 14 58  1  0
 15 59  1  0
 21 60  1  0
 24 61  1  0
 24 62  1  0
 26 63  1  0
 27 64  1  0
 28 65  1  0
 29 66  1  0
 30 67  1  0
 31 68  1  0
 32 69  1  0
 35 70  1  0
 36 71  1  0
 36 72  1  0
 37 73  1  0
 37 74  1  0
M  CHG  1  17  -1
M  END
>  <UniqueID>  (26) 
23

>  <SMILES>  (26) 
CC(C)CCN1CCCN(Cc2cccc([N-]C(=O)c3cc(OCc4ccccc4)ccc3F)c2)CC1

>  <Energy>  (26) 
99.10176909476299

>  <Genealogy>  (26) 
CC(C)CCN1CCCN(Cc2cccc([N-]C(=O)c3cc(OCc4ccccc4)ccc3F)c2)CC1 (protonated)
CC(C)CCN1CCCN(Cc2cccc([N-]C(=O)c3cc(OCc4ccccc4)ccc3F)c2)CC1 (3D coordinates assigned)
CC(C)CCN1CCCN(Cc2cccc([N-]C(=O)c3cc(OCc4ccccc4)ccc3F)c2)CC1 (nonaromatic ring conformer: 99.10176909476299 kcal/mol)

>  <smiles>  (26) 
CC(C)CCN1CCCN(Cc2cccc(NC(=O)c3cc(OCc4ccccc4)ccc3F)c2)CC1

>  <score_type>  (26) 
oracle

>  <origin>  (26) 
adg

>  <m_score__min__energy>  (26) 
-9.3499999999999996

>  <m_primary>  (26) 
energy

$$$$
26:0
     RDKit          3D

 23 24  0  0  0  0  0  0  0  0999 V2000
   58.8850   29.3740   51.9850 O   0  0  0  0  0  0  0  0  0  0  0  0
   57.6900   29.4480   52.3750 C   0  0  0  0  0  0  0  0  0  0  0  0
   56.9450   30.5420   52.0740 N   0  0  0  0  0  0  0  0  0  0  0  0
   55.6550   30.6420   52.4840 C   0  0  0  0  0  0  0  0  0  0  0  0
   55.0670   29.6070   53.2280 C   0  0  0  0  0  0  0  0  0  0  0  0
   53.7040   29.7210   53.6930 N   0  0  0  0  0  0  0  0  0  0  0  0
   52.8990   30.3760   52.6920 C   0  0  0  0  0  0  0  0  0  0  0  0
   52.8860   29.9020   51.3670 C   0  0  0  0  0  0  0  0  0  0  0  0
   52.1260   30.5530   50.3900 C   0  0  0  0  0  0  0  0  0  0  0  0
   51.3750   31.6840   50.7250 C   0  0  0  0  0  0  0  0  0  0  0  0
   50.6200   32.3290   49.7530 O   0  0  0  0  0  0  0  0  0  0  0  0
   51.3840   32.1660   52.0370 C   0  0  0  0  0  0  0  0  0  0  0  0
   52.1430   31.5170   53.0170 C   0  0  0  0  0  0  0  0  0  0  0  0
   55.8630   28.4880   53.5320 C   0  0  0  0  0  0  0  0  0  0  0  0
   55.3980   27.5290   54.2030 O   0  0  0  0  0  0  0  0  0  0  0  0
   57.1510   28.4340   53.0980 N   0  0  0  0  0  0  0  0  0  0  0  0
   55.0680   31.5376   52.2323 H   0  0  0  0  0  0  0  0  0  0  0  0
   53.3150   28.7700   53.8940 H   0  0  0  0  0  0  0  0  0  0  0  0
   53.6690   30.2520   54.5950 H   0  0  0  0  0  0  0  0  0  0  0  0
   53.4771   29.0142   51.0982 H   0  0  0  0  0  0  0  0  0  0  0  0
   52.1190   30.1750   49.3570 H   0  0  0  0  0  0  0  0  0  0  0  0
   50.7938   33.0564   52.2993 H   0  0  0  0  0  0  0  0  0  0  0  0
   52.1486   31.9012   54.0477 H   0  0  0  0  0  0  0  0  0  0  0  0
  1  2  2  0
  2  3  1  0
  3  4  1  0
  4  5  2  0
  5  6  1  0
  6  7  1  0
  7  8  2  0
  8  9  1  0
  9 10  2  0
 10 11  1  0
 10 12  1  0
 12 13  2  0
  5 14  1  0
 14 15  2  0
 14 16  1  0
 16  2  1  0
 13  7  1  0
  4 17  1  0
  6 18  1  0
  6 19  1  0
  8 20  1  0
  9 21  1  0
 12 22  1  0
 13 23  1  0
M  CHG  4   3  -1   6   1  11  -1  16  -1
M  END
>  <UniqueID>  (27) 
24

>  <SMILES>  (27) 
O=c1[n-]cc([NH2+]c2ccc([O-])cc2)c(=O)[n-]1

>  <Energy>  (27) 
28.082167844041454

>  <Genealogy>  (27) 
O=c1[n-]cc([NH2+]c2ccc([O-])cc2)c(=O)[n-]1 (protonated)
O=c1[n-]cc([NH2+]c2ccc([O-])cc2)c(=O)[n-]1 (3D coordinates assigned)
O=c1[n-]cc([NH2+]c2ccc([O-])cc2)c(=O)[n-]1 (optimized conformer: 28.082167844041454 kcal/mol)

>  <smiles>  (27) 
O=c1[nH]cc(Nc2ccc(O)cc2)c(=O)[nH]1

>  <score_type>  (27) 
oracle

>  <origin>  (27) 
adg

>  <m_score__min__energy>  (27) 
-10.48

>  <m_primary>  (27) 
energy

$$$$
27:0
     RDKit          3D

 42 44  0  0  0  0  0  0  0  0999 V2000
   55.0700   28.8810   53.0510 O   0  0  0  0  0  0  0  0  0  0  0  0
   55.6310   29.7550   52.3390 C   0  0  0  0  0  0  0  0  0  0  0  0
   57.0190   29.5960   52.0230 N   0  0  0  0  0  0  0  0  0  0  0  0
   57.8310   30.5370   51.3080 C   0  0  0  0  0  0  0  0  0  0  0  0
   57.8250   31.8780   51.7070 C   0  0  0  0  0  0  0  0  0  0  0  0
   58.5780   32.8270   51.0090 C   0  0  0  0  0  0  0  0  0  0  0  0
   59.3440   32.4490   49.9000 C   0  0  0  0  0  0  0  0  0  0  0  0
   60.0830   33.4590   49.1980 N   0  0  0  0  0  0  0  0  0  0  0  0
   59.8780   33.8860   47.8430 C   0  0  0  0  0  0  0  0  0  0  0  0
   60.3720   34.9760   47.4430 O   0  0  0  0  0  0  0  0  0  0  0  0
   59.0420   33.0740   46.9280 C   0  0  0  0  0  0  0  0  0  0  0  0
   57.8090   33.5630   46.4640 C   0  0  0  0  0  0  0  0  0  0  0  0
   57.0190   32.7990   45.6010 C   0  0  0  0  0  0  0  0  0  0  0  0
   57.4450   31.5260   45.1820 C   0  0  0  0  0  0  0  0  0  0  0  0
   56.6340   30.7360   44.2930 N   0  0  0  0  0  0  0  0  0  0  0  0
   56.8080   30.7850   43.0580 O   0  0  0  0  0  0  0  0  0  0  0  0
   55.6500   29.9120   44.7910 O   0  0  0  0  0  0  0  0  0  0  0  0
   58.6770   31.0380   45.6440 C   0  0  0  0  0  0  0  0  0  0  0  0
   59.4680   31.8020   46.5080 C   0  0  0  0  0  0  0  0  0  0  0  0
   59.3100   31.1110   49.4660 C   0  0  0  0  0  0  0  0  0  0  0  0
   58.5570   30.1630   50.1650 C   0  0  0  0  0  0  0  0  0  0  0  0
   54.8820   30.8730   51.8270 N   0  0  0  0  0  0  0  0  0  0  0  0
   53.4970   31.1180   52.1190 C   0  0  0  0  0  0  0  0  0  0  0  0
   52.6630   31.6300   51.1130 C   0  0  0  0  0  0  0  0  0  0  0  0
   51.3060   31.8540   51.3640 C   0  0  0  0  0  0  0  0  0  0  0  0
   50.7660   31.5530   52.6170 C   0  0  0  0  0  0  0  0  0  0  0  0
   51.5820   31.0190   53.6180 C   0  0  0  0  0  0  0  0  0  0  0  0
   52.9390   30.7940   53.3710 C   0  0  0  0  0  0  0  0  0  0  0  0
   57.2243   32.1875   52.5750 H   0  0  0  0  0  0  0  0  0  0  0  0
   58.5684   33.8780   51.3336 H   0  0  0  0  0  0  0  0  0  0  0  0
   57.4623   34.5569   46.7833 H   0  0  0  0  0  0  0  0  0  0  0  0
   56.0564   33.1964   45.2467 H   0  0  0  0  0  0  0  0  0  0  0  0
   59.0240   30.0446   45.3234 H   0  0  0  0  0  0  0  0  0  0  0  0
   60.4308   31.4045   46.8616 H   0  0  0  0  0  0  0  0  0  0  0  0
   59.8780   30.8098   48.5734 H   0  0  0  0  0  0  0  0  0  0  0  0
   58.5329   29.1193   49.8184 H   0  0  0  0  0  0  0  0  0  0  0  0
   55.3850   31.5930   51.2640 H   0  0  0  0  0  0  0  0  0  0  0  0
   53.0797   31.8565   50.1205 H   0  0  0  0  0  0  0  0  0  0  0  0
   50.6624   32.2679   50.5737 H   0  0  0  0  0  0  0  0  0  0  0  0
   49.6996   31.7362   52.8154 H   0  0  0  0  0  0  0  0  0  0  0  0
   51.1554   30.7753   54.6022 H   0  0  0  0  0  0  0  0  0  0  0  0
   53.5743   30.3618   54.1581 H   0  0  0  0  0  0  0  0  0  0  0  0
  1  2  2  0
  2  3  1  0
  3  4  1  0
  4  5  2  0
  5  6  1  0
  6  7  2  0
  7  8  1  0
  8  9  1  0
  9 10  2  0
  9 11  1  0
 11 12  2  0
 12 13  1  0
 13 14  2  0
 14 15  1  0
 15 16  2  0
 15 17  1  0
 14 18  1  0
 18 19  2  0
  7 20  1  0
 20 21  2  0
  2 22  1  0
 22 23  1  0
 23 24  2  0
 24 25  1  0
 25 26  2  0
 26 27  1  0
 27 28  2  0
 21  4  1  0
 28 23  1  0
 19 11  1  0
  5 29  1  0
  6 30  1  0
 12 31  1  0
 13 32  1  0
 18 33  1  0
 19 34  1  0
 20 35  1  0
 21 36  1  0
 22 37  1  0
 24 38  1  0
 25 39  1  0
 26 40  1  0
 27 41  1  0
 28 42  1  0
M  CHG  4   3  -1   8  -1  15   1  17  -1
M  END
>  <UniqueID>  (28) 
25

>  <SMILES>  (28) 
O=C([N-]c1ccc([N-]C(=O)c2ccc([N+](=O)[O-])cc2)cc1)Nc1ccccc1

>  <Energy>  (28) 
58.861953368176124

>  <Genealogy>  (28) 
O=C([N-]c1ccc([N-]C(=O)c2ccc([N+](=O)[O-])cc2)cc1)Nc1ccccc1 (protonated)
O=C([N-]c1ccc([N-]C(=O)c2ccc([N+](=O)[O-])cc2)cc1)Nc1ccccc1 (3D coordinates assigned)
O=C([N-]c1ccc([N-]C(=O)c2ccc([N+](=O)[O-])cc2)cc1)Nc1ccccc1 (optimized conformer: 58.861953368176124 kcal/mol)

>  <smiles>  (28) 
O=C(Nc1ccccc1)Nc1ccc(NC(=O)c2ccc([N+](=O)[O-])cc2)cc1

>  <score_type>  (28) 
oracle

>  <origin>  (28) 
adg

>  <m_score__min__energy>  (28) 
-11.029999999999999

>  <m_primary>  (28) 
energy

$$$$
28:0
     RDKit          3D

 42 44  0  0  0  0  0  0  0  0999 V2000
   58.7554   28.9853   48.5431 H   0  0  0  0  0  0  0  0  0  0  0  0
   59.1960   29.8350   48.0010 C   0  0  0  0  0  0  0  0  0  0  0  0
   59.4700   31.0810   48.7410 C   0  0  0  0  0  0  0  0  0  0  0  0
   60.4010   31.0780   49.5890 O   0  0  0  0  0  0  0  0  0  0  0  0
   58.7020   32.2790   48.5600 N   0  0  0  0  0  0  0  0  0  0  0  0
   58.6240   33.0670   47.3640 C   0  0  0  0  0  0  0  0  0  0  0  0
   57.4120   33.2070   46.6650 C   0  0  0  0  0  0  0  0  0  0  0  0
   56.5034   32.7147   47.0420 H   0  0  0  0  0  0  0  0  0  0  0  0
   57.3550   33.9680   45.4940 C   0  0  0  0  0  0  0  0  0  0  0  0
   56.4014   34.0800   44.9573 H   0  0  0  0  0  0  0  0  0  0  0  0
   58.5070   34.5860   45.0050 C   0  0  0  0  0  0  0  0  0  0  0  0
   58.4583   35.1932   44.0891 H   0  0  0  0  0  0  0  0  0  0  0  0
   59.7220   34.4340   45.6780 C   0  0  0  0  0  0  0  0  0  0  0  0
   60.6295   34.9155   45.2849 H   0  0  0  0  0  0  0  0  0  0  0  0
   59.7900   33.6700   46.8530 C   0  0  0  0  0  0  0  0  0  0  0  0
   61.0410   33.5320   47.5430 N   0  0  0  0  0  0  0  0  0  0  0  0
   61.1650   34.0690   48.9020 C   0  0  0  0  0  0  0  0  0  0  0  0
   60.6626   35.0461   48.9550 H   0  0  0  0  0  0  0  0  0  0  0  0
   60.6967   33.3704   49.6109 H   0  0  0  0  0  0  0  0  0  0  0  0
   62.6420   34.2380   49.2640 C   0  0  0  0  0  0  0  0  0  0  0  0
   63.0776   35.0370   48.6462 H   0  0  0  0  0  0  0  0  0  0  0  0
   62.7210   34.4992   50.3296 H   0  0  0  0  0  0  0  0  0  0  0  0
   63.3460   33.0340   49.0330 O   0  0  0  0  0  0  0  0  0  0  0  0
   63.3750   32.7640   47.6440 C   0  0  0  0  0  0  0  0  0  0  0  0
   63.7882   33.6354   47.1149 H   0  0  0  0  0  0  0  0  0  0  0  0
   64.0036   31.8787   47.4678 H   0  0  0  0  0  0  0  0  0  0  0  0
   61.9650   32.4800   47.1210 C   0  0  0  0  0  0  0  0  0  0  0  0
   61.9881   32.4379   46.0220 H   0  0  0  0  0  0  0  0  0  0  0  0
   61.6206   31.5187   47.5300 H   0  0  0  0  0  0  0  0  0  0  0  0
   59.4620   29.6960   46.6950 C   0  0  0  0  0  0  0  0  0  0  0  0
   60.4696   29.3640   46.4043 H   0  0  0  0  0  0  0  0  0  0  0  0
   58.4760   29.9640   45.6170 C   0  0  0  0  0  0  0  0  0  0  0  0
   58.8050   30.9030   44.6220 C   0  0  0  0  0  0  0  0  0  0  0  0
   59.7782   31.4147   44.6550 H   0  0  0  0  0  0  0  0  0  0  0  0
   57.9040   31.1910   43.5910 C   0  0  0  0  0  0  0  0  0  0  0  0
   58.1737   31.9239   42.8163 H   0  0  0  0  0  0  0  0  0  0  0  0
   56.6650   30.5520   43.5420 C   0  0  0  0  0  0  0  0  0  0  0  0
   55.9597   30.7784   42.7288 H   0  0  0  0  0  0  0  0  0  0  0  0
   56.3220   29.6240   44.5280 C   0  0  0  0  0  0  0  0  0  0  0  0
   55.1190   29.0020   44.4820 F   0  0  0  0  0  0  0  0  0  0  0  0
   57.2150   29.3360   45.5660 C   0  0  0  0  0  0  0  0  0  0  0  0
   56.9313   28.6152   46.3470 H   0  0  0  0  0  0  0  0  0  0  0  0
  1  2  1  0
  2  3  1  0
  3  4  2  0
  3  5  1  0
  5  6  1  0
  6  7  2  0
  7  8  1  0
  7  9  1  0
  9 10  1  0
  9 11  2  0
 11 12  1  0
 11 13  1  0
 13 14  1  0
 13 15  2  0
 15 16  1  0
 16 17  1  0
 17 18  1  0
 17 19  1  0
 17 20  1  0
 20 21  1  0
 20 22  1  0
 20 23  1  0
 23 24  1  0
 24 25  1  0
 24 26  1  0
 24 27  1  0
 27 28  1  0
 27 29  1  0
  2 30  2  0
 30 31  1  0
 30 32  1  0
 32 33  2  0
 33 34  1  0
 33 35  1  0
 35 36  1  0
 35 37  2  0
 37 38  1  0
 37 39  1  0
 39 40  1  0
 39 41  2  0
 41 42  1  0
 15  6  1  0
 27 16  1  0
 41 32  1  0
M  CHG  1   5  -1
M  END
>  <UniqueID>  (29) 
26

>  <SMILES>  (29) 
O=C(/C=C/c1cccc(F)c1)[N-]c1ccccc1N1CCOCC1

>  <Energy>  (29) 
57.169324021893416

>  <Genealogy>  (29) 
O=C(C=Cc1cccc(F)c1)[N-]c1ccccc1N1CCOCC1 (protonated)
O=C(/C=C/c1cccc(F)c1)[N-]c1ccccc1N1CCOCC1 (cis-trans isomerization)
O=C(/C=C/c1cccc(F)c1)[N-]c1ccccc1N1CCOCC1 (3D coordinates assigned)
O=C(/C=C/c1cccc(F)c1)[N-]c1ccccc1N1CCOCC1 (nonaromatic ring conformer: 57.169324021893416 kcal/mol)

>  <smiles>  (29) 
O=C(C=Cc1cccc(F)c1)Nc1ccccc1N1CCOCC1

>  <score_type>  (29) 
oracle

>  <origin>  (29) 
adg

>  <m_score__min__energy>  (29) 
-9.3499999999999996

>  <m_primary>  (29) 
energy

$$$$
29:0
     RDKit          3D

 45 47  0  0  0  0  0  0  0  0999 V2000
   52.7820   20.4020   46.4990 C   0  0  0  0  0  0  0  0  0  0  0  0
   53.0130   22.1210   46.0990 S   0  0  0  0  0  0  0  0  0  0  0  0
   51.9180   22.6000   45.1880 O   0  0  0  0  0  0  0  0  0  0  0  0
   52.9700   22.9220   47.3690 O   0  0  0  0  0  0  0  0  0  0  0  0
   54.5580   22.3540   45.3480 N   0  0  0  0  0  0  0  0  0  0  0  0
   55.5380   23.3300   45.7270 C   0  0  0  0  0  0  0  0  0  0  0  0
   56.8330   22.9730   46.1450 C   0  0  0  0  0  0  0  0  0  0  0  0
   57.7600   23.9620   46.4840 C   0  0  0  0  0  0  0  0  0  0  0  0
   57.4060   25.3110   46.4140 C   0  0  0  0  0  0  0  0  0  0  0  0
   56.1120   25.6840   46.0250 C   0  0  0  0  0  0  0  0  0  0  0  0
   55.7840   27.0800   45.9260 N   0  0  0  0  0  0  0  0  0  0  0  0
   56.5990   28.0560   45.2550 C   0  0  0  0  0  0  0  0  0  0  0  0
   57.6650   27.7110   44.6790 O   0  0  0  0  0  0  0  0  0  0  0  0
   56.2350   29.4410   45.2510 N   0  0  0  0  0  0  0  0  0  0  0  0
   56.7380   30.4360   44.3490 C   0  0  0  0  0  0  0  0  0  0  0  0
   56.5140   30.3380   42.9640 C   0  0  0  0  0  0  0  0  0  0  0  0
   57.0310   31.3040   42.0970 C   0  0  0  0  0  0  0  0  0  0  0  0
   57.7810   32.3670   42.6020 C   0  0  0  0  0  0  0  0  0  0  0  0
   58.0310   32.4590   43.9740 C   0  0  0  0  0  0  0  0  0  0  0  0
   57.5320   31.4790   44.8540 C   0  0  0  0  0  0  0  0  0  0  0  0
   57.7580   31.5520   46.2370 O   0  0  0  0  0  0  0  0  0  0  0  0
   58.9050   32.0810   46.8520 C   0  0  0  0  0  0  0  0  0  0  0  0
   58.8720   33.2930   47.5690 C   0  0  0  0  0  0  0  0  0  0  0  0
   60.0370   33.7940   48.1590 C   0  0  0  0  0  0  0  0  0  0  0  0
   59.9980   34.9610   48.8500 F   0  0  0  0  0  0  0  0  0  0  0  0
   61.2440   33.1010   48.0260 C   0  0  0  0  0  0  0  0  0  0  0  0
   61.2880   31.9090   47.2970 C   0  0  0  0  0  0  0  0  0  0  0  0
   60.1230   31.4030   46.7070 C   0  0  0  0  0  0  0  0  0  0  0  0
   60.1770   30.2450   46.0010 F   0  0  0  0  0  0  0  0  0  0  0  0
   55.1890   24.6860   45.6670 C   0  0  0  0  0  0  0  0  0  0  0  0
   52.7655   20.2789   47.5920 H   0  0  0  0  0  0  0  0  0  0  0  0
   51.8288   20.0520   46.0761 H   0  0  0  0  0  0  0  0  0  0  0  0
   53.6090   19.8128   46.0761 H   0  0  0  0  0  0  0  0  0  0  0  0
   57.1167   21.9119   46.2051 H   0  0  0  0  0  0  0  0  0  0  0  0
   58.7721   23.6770   46.8071 H   0  0  0  0  0  0  0  0  0  0  0  0
   58.1463   26.0848   46.6654 H   0  0  0  0  0  0  0  0  0  0  0  0
   54.8730   27.3840   46.3370 H   0  0  0  0  0  0  0  0  0  0  0  0
   55.9294   29.4975   42.5617 H   0  0  0  0  0  0  0  0  0  0  0  0
   56.8467   31.2266   41.0153 H   0  0  0  0  0  0  0  0  0  0  0  0
   58.1760   33.1336   41.9192 H   0  0  0  0  0  0  0  0  0  0  0  0
   58.6199   33.3003   44.3682 H   0  0  0  0  0  0  0  0  0  0  0  0
   57.9268   33.8474   47.6652 H   0  0  0  0  0  0  0  0  0  0  0  0
   62.1585   33.4935   48.4947 H   0  0  0  0  0  0  0  0  0  0  0  0
   62.2392   31.3676   47.1866 H   0  0  0  0  0  0  0  0  0  0  0  0
   54.1801   24.9730   45.3356 H   0  0  0  0  0  0  0  0  0  0  0  0
  1  2  1  0
  2  3  2  0
  2  4  2  0
  2  5  1  0
  5  6  1  0
  6  7  2  0
  7  8  1  0
  8  9  2  0
  9 10  1  0
 10 11  1  0
 11 12  1  0
 12 13  2  0
 12 14  1  0
 14 15  1  0
 15 16  2  0
 16 17  1  0
 17 18  2  0
 18 19  1  0
 19 20  2  0
 20 21  1  0
 21 22  1  0
 22 23  2  0
 23 24  1  0
 24 25  1  0
 24 26  2  0
 26 27  1  0
 27 28  2  0
 28 29  1  0
 10 30  2  0
 30  6  1  0
 20 15  1  0
 28 22  1  0
  1 31  1  0
  1 32  1  0
  1 33  1  0
  7 34  1  0
  8 35  1  0
  9 36  1  0
 11 37  1  0
 16 38  1  0
 17 39  1  0
 18 40  1  0
 19 41  1  0
 23 42  1  0
 26 43  1  0
 27 44  1  0
 30 45  1  0
M  CHG  2   5  -1  14  -1
M  END
>  <UniqueID>  (30) 
27

>  <SMILES>  (30) 
CS(=O)(=O)[N-]c1cccc(NC(=O)[N-]c2ccccc2Oc2cc(F)ccc2F)c1

>  <Energy>  (30) 
61.93838978737069

>  <Genealogy>  (30) 
CS(=O)(=O)[N-]c1cccc(NC(=O)[N-]c2ccccc2Oc2cc(F)ccc2F)c1 (protonated)
CS(=O)(=O)[N-]c1cccc(NC(=O)[N-]c2ccccc2Oc2cc(F)ccc2F)c1 (3D coordinates assigned)
CS(=O)(=O)[N-]c1cccc(NC(=O)[N-]c2ccccc2Oc2cc(F)ccc2F)c1 (optimized conformer: 61.93838978737069 kcal/mol)

>  <smiles>  (30) 
CS(=O)(=O)Nc1cccc(NC(=O)Nc2ccccc2Oc2cc(F)ccc2F)c1

>  <score_type>  (30) 
oracle

>  <origin>  (30) 
adg

>  <m_score__min__energy>  (30) 
-12.1

>  <m_primary>  (30) 
energy

$$$$
30:0
     RDKit          3D

 37 38  0  0  0  0  0  0  0  0999 V2000
   55.1560   28.9710   44.9030 O   0  0  0  0  0  0  0  0  0  0  0  0
   56.3810   28.4190   45.2580 C   0  0  0  0  0  0  0  0  0  0  0  0
   57.5530   29.1570   45.0640 C   0  0  0  0  0  0  0  0  0  0  0  0
   58.7990   28.6200   45.4230 C   0  0  0  0  0  0  0  0  0  0  0  0
   60.0590   29.4010   45.1760 C   0  0  0  0  0  0  0  0  0  0  0  0
   60.5920   29.8840   46.4570 N   0  0  0  0  0  0  0  0  0  0  0  0
   60.2560   31.2940   46.7110 C   0  0  0  0  0  0  0  0  0  0  0  0
   58.8610   31.4590   47.3480 C   0  0  0  0  0  0  0  0  0  0  0  0
   58.1770   32.7100   46.9600 N   0  0  0  0  0  0  0  0  0  0  0  0
   57.4680   32.6860   45.6640 C   0  0  0  0  0  0  0  0  0  0  0  0
   58.2430   33.4210   44.5620 C   0  0  0  0  0  0  0  0  0  0  0  0
   58.6030   34.7170   44.9870 O   0  0  0  0  0  0  0  0  0  0  0  0
   59.5290   34.6140   46.0450 C   0  0  0  0  0  0  0  0  0  0  0  0
   58.8840   33.9670   47.2800 C   0  0  0  0  0  0  0  0  0  0  0  0
   58.8610   27.3220   45.9550 C   0  0  0  0  0  0  0  0  0  0  0  0
   57.6910   26.5840   46.1510 C   0  0  0  0  0  0  0  0  0  0  0  0
   56.4470   27.1260   45.8070 C   0  0  0  0  0  0  0  0  0  0  0  0
   55.2960   26.3690   46.0140 O   0  0  0  0  0  0  0  0  0  0  0  0
   57.4979   30.1650   44.6271 H   0  0  0  0  0  0  0  0  0  0  0  0
   60.8031   28.7531   44.6896 H   0  0  0  0  0  0  0  0  0  0  0  0
   59.8382   30.2582   44.5229 H   0  0  0  0  0  0  0  0  0  0  0  0
   60.2150   29.2890   47.2320 H   0  0  0  0  0  0  0  0  0  0  0  0
   61.0080   31.7195   47.3917 H   0  0  0  0  0  0  0  0  0  0  0  0
   60.2475   31.8170   45.7433 H   0  0  0  0  0  0  0  0  0  0  0  0
   58.2345   30.6097   47.0378 H   0  0  0  0  0  0  0  0  0  0  0  0
   59.0066   31.4959   48.4377 H   0  0  0  0  0  0  0  0  0  0  0  0
   57.3256   31.6390   45.3581 H   0  0  0  0  0  0  0  0  0  0  0  0
   56.5048   33.2001   45.7980 H   0  0  0  0  0  0  0  0  0  0  0  0
   59.1541   32.8536   44.3211 H   0  0  0  0  0  0  0  0  0  0  0  0
   57.6005   33.5054   43.6731 H   0  0  0  0  0  0  0  0  0  0  0  0
   60.3802   33.9980   45.7194 H   0  0  0  0  0  0  0  0  0  0  0  0
   59.8664   35.6255   46.3152 H   0  0  0  0  0  0  0  0  0  0  0  0
   59.6722   33.7501   48.0160 H   0  0  0  0  0  0  0  0  0  0  0  0
   58.1413   34.6748   47.6768 H   0  0  0  0  0  0  0  0  0  0  0  0
   59.8351   26.8843   46.2186 H   0  0  0  0  0  0  0  0  0  0  0  0
   57.7476   25.5718   46.5779 H   0  0  0  0  0  0  0  0  0  0  0  0
   54.3680   26.7550   45.8800 H   0  0  0  0  0  0  0  0  0  0  0  0
  1  2  1  0
  2  3  2  0
  3  4  1  0
  4  5  1  0
  5  6  1  0
  6  7  1  0
  7  8  1  0
  8  9  1  0
  9 10  1  0
 10 11  1  0
 11 12  1  0
 12 13  1  0
 13 14  1  0
  4 15  2  0
 15 16  1  0
 16 17  2  0
 17 18  1  0
 17  2  1  0
 14  9  1  0
  3 19  1  0
  5 20  1  0
  5 21  1  0
  6 22  1  0
  7 23  1  0
  7 24  1  0
  8 25  1  0
  8 26  1  0
 10 27  1  0
 10 28  1  0
 11 29  1  0
 11 30  1  0
 13 31  1  0
 13 32  1  0
 14 33  1  0
 14 34  1  0
 15 35  1  0
 16 36  1  0
 18 37  1  0
M  CHG  1   1  -1
M  END
>  <UniqueID>  (31) 
28

>  <SMILES>  (31) 
[O-]c1cc(CNCCN2CCOCC2)ccc1O

>  <Energy>  (31) 
45.99820326284037

>  <Genealogy>  (31) 
[O-]c1cc(CNCCN2CCOCC2)ccc1O (protonated)
[O-]c1cc(CNCCN2CCOCC2)ccc1O (3D coordinates assigned)
[O-]c1cc(CNCCN2CCOCC2)ccc1O (nonaromatic ring conformer: 45.99820326284037 kcal/mol)

>  <smiles>  (31) 
Oc1ccc(CNCCN2CCOCC2)cc1O

>  <score_type>  (31) 
oracle

>  <origin>  (31) 
adg

>  <m_score__min__energy>  (31) 
-10.529999999999999

>  <m_primary>  (31) 
energy

$$$$
31:0
     RDKit          3D

 69 71  0  0  0  0  0  0  0  0999 V2000
   59.4340   34.2150   48.5380 H   0  0  0  0  0  0  0  0  0  0  0  0
   60.0320   34.1010   47.7350 O   0  0  0  0  0  0  0  0  0  0  0  0
   60.2590   32.8740   47.1150 C   0  0  0  0  0  0  0  0  0  0  0  0
   61.4540   32.1700   47.4470 C   0  0  0  0  0  0  0  0  0  0  0  0
   62.5520   32.8160   48.3440 C   0  0  0  0  0  0  0  0  0  0  0  0
   63.5260   31.7300   48.8690 C   0  0  0  0  0  0  0  0  0  0  0  0
   63.5219   31.7346   49.9690 H   0  0  0  0  0  0  0  0  0  0  0  0
   63.2050   30.7428   48.5053 H   0  0  0  0  0  0  0  0  0  0  0  0
   64.5422   31.9421   48.5053 H   0  0  0  0  0  0  0  0  0  0  0  0
   63.3320   33.8810   47.5380 C   0  0  0  0  0  0  0  0  0  0  0  0
   63.8362   34.5695   48.2321 H   0  0  0  0  0  0  0  0  0  0  0  0
   64.0818   33.3848   46.9044 H   0  0  0  0  0  0  0  0  0  0  0  0
   62.6327   34.4462   46.9044 H   0  0  0  0  0  0  0  0  0  0  0  0
   61.9740   33.5360   49.5940 C   0  0  0  0  0  0  0  0  0  0  0  0
   62.3598   33.0554   50.5051 H   0  0  0  0  0  0  0  0  0  0  0  0
   62.2769   34.5934   49.5809 H   0  0  0  0  0  0  0  0  0  0  0  0
   60.8761   33.4689   49.5809 H   0  0  0  0  0  0  0  0  0  0  0  0
   61.5880   30.8440   46.9810 C   0  0  0  0  0  0  0  0  0  0  0  0
   62.5008   30.2803   47.2239 H   0  0  0  0  0  0  0  0  0  0  0  0
   60.5920   30.2300   46.2200 C   0  0  0  0  0  0  0  0  0  0  0  0
   60.7190   28.8250   45.7580 C   0  0  0  0  0  0  0  0  0  0  0  0
   61.1182   28.6368   44.7504 H   0  0  0  0  0  0  0  0  0  0  0  0
   60.3680   27.7740   46.5160 C   0  0  0  0  0  0  0  0  0  0  0  0
   61.1198   27.3429   47.1935 H   0  0  0  0  0  0  0  0  0  0  0  0
   59.0110   27.1640   46.4840 C   0  0  0  0  0  0  0  0  0  0  0  0
   58.9230   25.8850   47.0260 C   0  0  0  0  0  0  0  0  0  0  0  0
   59.8721   25.4651   47.3905 H   0  0  0  0  0  0  0  0  0  0  0  0
   57.8190   25.0620   47.1750 C   0  0  0  0  0  0  0  0  0  0  0  0
   58.0243   24.0984   47.6641 H   0  0  0  0  0  0  0  0  0  0  0  0
   56.4870   25.2590   46.8040 C   0  0  0  0  0  0  0  0  0  0  0  0
   55.5560   24.0930   47.1170 C   0  0  0  0  0  0  0  0  0  0  0  0
   56.1524   23.2608   47.5193 H   0  0  0  0  0  0  0  0  0  0  0  0
   54.8117   24.4403   47.8487 H   0  0  0  0  0  0  0  0  0  0  0  0
   54.8020   23.6050   45.8690 C   0  0  0  0  0  0  0  0  0  0  0  0
   53.9847   22.9397   46.1843 H   0  0  0  0  0  0  0  0  0  0  0  0
   54.4122   24.4864   45.3387 H   0  0  0  0  0  0  0  0  0  0  0  0
   55.7060   22.8540   44.9270 C   0  0  0  0  0  0  0  0  0  0  0  0
   56.5100   21.8020   45.4000 C   0  0  0  0  0  0  0  0  0  0  0  0
   56.4577   21.5050   46.4578 H   0  0  0  0  0  0  0  0  0  0  0  0
   57.3760   21.1320   44.5300 C   0  0  0  0  0  0  0  0  0  0  0  0
   58.0045   20.3105   44.9043 H   0  0  0  0  0  0  0  0  0  0  0  0
   57.4430   21.5060   43.1850 C   0  0  0  0  0  0  0  0  0  0  0  0
   58.1200   20.9748   42.4998 H   0  0  0  0  0  0  0  0  0  0  0  0
   56.6500   22.5550   42.7100 C   0  0  0  0  0  0  0  0  0  0  0  0
   56.7044   22.8483   41.6512 H   0  0  0  0  0  0  0  0  0  0  0  0
   55.7880   23.2320   43.5780 C   0  0  0  0  0  0  0  0  0  0  0  0
   55.1726   24.0629   43.2026 H   0  0  0  0  0  0  0  0  0  0  0  0
   55.9500   26.3900   46.1510 C   0  0  0  0  0  0  0  0  0  0  0  0
   54.5950   26.3390   45.8160 O   0  0  0  0  0  0  0  0  0  0  0  0
   56.6040   27.5820   45.8010 C   0  0  0  0  0  0  0  0  0  0  0  0
   55.8910   28.4700   45.2570 O   0  0  0  0  0  0  0  0  0  0  0  0
   57.9470   27.9180   45.9810 C   0  0  0  0  0  0  0  0  0  0  0  0
   58.2105   28.9420   45.6779 H   0  0  0  0  0  0  0  0  0  0  0  0
   59.4810   30.9700   45.8230 C   0  0  0  0  0  0  0  0  0  0  0  0
   58.7127   30.4862   45.2021 H   0  0  0  0  0  0  0  0  0  0  0  0
   59.3100   32.3230   46.1930 C   0  0  0  0  0  0  0  0  0  0  0  0
   58.1210   33.1390   45.5960 C   0  0  0  0  0  0  0  0  0  0  0  0
   57.0980   33.4700   46.7020 C   0  0  0  0  0  0  0  0  0  0  0  0
   57.5623   33.3198   47.6878 H   0  0  0  0  0  0  0  0  0  0  0  0
   56.7776   34.5177   46.6035 H   0  0  0  0  0  0  0  0  0  0  0  0
   56.2246   32.8086   46.6035 H   0  0  0  0  0  0  0  0  0  0  0  0
   57.3620   32.3420   44.4930 C   0  0  0  0  0  0  0  0  0  0  0  0
   56.6771   31.6228   44.9660 H   0  0  0  0  0  0  0  0  0  0  0  0
   56.7861   33.0397   43.8672 H   0  0  0  0  0  0  0  0  0  0  0  0
   58.0869   31.8009   43.8672 H   0  0  0  0  0  0  0  0  0  0  0  0
   58.6150   34.4400   44.9050 C   0  0  0  0  0  0  0  0  0  0  0  0
   58.8953   35.1782   45.6708 H   0  0  0  0  0  0  0  0  0  0  0  0
   59.4894   34.2126   44.2775 H   0  0  0  0  0  0  0  0  0  0  0  0
   57.8101   34.8503   44.2775 H   0  0  0  0  0  0  0  0  0  0  0  0
  1  2  1  0
  2  3  1  0
  3  4  2  0
  4  5  1  0
  5  6  1  0
  6  7  1  0
  6  8  1  0
  6  9  1  0
  5 10  1  0
 10 11  1  0
 10 12  1  0
 10 13  1  0
  5 14  1  0
 14 15  1  0
 14 16  1  0
 14 17  1  0
  4 18  1  0
 18 19  1  0
 18 20  2  0
 20 21  1  0
 21 22  1  0
 21 23  2  0
 23 24  1  0
 23 25  1  0
 25 26  1  0
 26 27  1  0
 26 28  2  0
 28 29  1  0
 28 30  1  0
 30 31  1  0
 31 32  1  0
 31 33  1  0
 31 34  1  0
 34 35  1  0
 34 36  1  0
 34 37  1  0
 37 38  2  0
 38 39  1  0
 38 40  1  0
 40 41  1  0
 40 42  2  0
 42 43  1  0
 42 44  1  0
 44 45  1  0
 44 46  2  0
 46 47  1  0
 30 48  2  0
 48 49  1  0
 48 50  1  0
 50 51  2  0
 50 52  1  0
 52 53  1  0
 20 54  1  0
 54 55  1  0
 54 56  2  0
 56 57  1  0
 57 58  1  0
 58 59  1  0
 58 60  1  0
 58 61  1  0
 57 62  1  0
 62 63  1  0
 62 64  1  0
 62 65  1  0
 57 66  1  0
 66 67  1  0
 66 68  1  0
 66 69  1  0
 56  3  1  0
 52 25  2  0
 46 37  1  0
M  CHG  1  49  -1
M  END
>  <UniqueID>  (32) 
29

>  <SMILES>  (32) 
CC(C)(C)c1cc(/C=C/c2ccc(CCc3ccccc3)c([O-])c(=O)c2)cc(C(C)(C)C)c1O

>  <Energy>  (32) 
117.33173106901084

>  <Genealogy>  (32) 
CC(C)(C)c1cc(C=Cc2ccc(CCc3ccccc3)c([O-])c(=O)c2)cc(C(C)(C)C)c1O (protonated)
CC(C)(C)c1cc(/C=C/c2ccc(CCc3ccccc3)c([O-])c(=O)c2)cc(C(C)(C)C)c1O (cis-trans isomerization)
CC(C)(C)c1cc(/C=C/c2ccc(CCc3ccccc3)c([O-])c(=O)c2)cc(C(C)(C)C)c1O (3D coordinates assigned)
CC(C)(C)c1cc(/C=C/c2ccc(CCc3ccccc3)c([O-])c(=O)c2)cc(C(C)(C)C)c1O (optimized conformer: 117.33173106901084 kcal/mol)

>  <smiles>  (32) 
CC(C)(C)c1cc(C=Cc2ccc(CCc3ccccc3)c(O)c(=O)c2)cc(C(C)(C)C)c1O

>  <score_type>  (32) 
oracle

>  <origin>  (32) 
adg

>  <m_score__min__energy>  (32) 
-13.77

>  <m_primary>  (32) 
energy

$$$$
32:0
     RDKit          3D

 44 46  0  0  0  0  0  0  0  0999 V2000
   63.8420   32.3650   49.2650 C   0  0  0  0  0  0  0  0  0  0  0  0
   62.9510   31.5730   48.3640 C   0  0  0  0  0  0  0  0  0  0  0  0
   63.1590   31.5930   47.1210 O   0  0  0  0  0  0  0  0  0  0  0  0
   61.9350   30.7260   48.9240 N   0  0  0  0  0  0  0  0  0  0  0  0
   60.9090   30.0760   48.1540 C   0  0  0  0  0  0  0  0  0  0  0  0
   59.9160   29.3380   48.8150 C   0  0  0  0  0  0  0  0  0  0  0  0
   58.8980   28.7090   48.0920 C   0  0  0  0  0  0  0  0  0  0  0  0
   58.8550   28.8200   46.6960 C   0  0  0  0  0  0  0  0  0  0  0  0
   57.6020   27.9980   45.7710 S   0  0  0  0  0  0  0  0  0  0  0  0
   58.2080   27.1510   44.6860 O   0  0  0  0  0  0  0  0  0  0  0  0
   56.8130   27.1160   46.6970 O   0  0  0  0  0  0  0  0  0  0  0  0
   56.5410   29.1660   45.0520 N   0  0  0  0  0  0  0  0  0  0  0  0
   56.9640   30.3460   44.3560 C   0  0  0  0  0  0  0  0  0  0  0  0
   56.8830   30.3650   42.9590 C   0  0  0  0  0  0  0  0  0  0  0  0
   57.2680   31.5000   42.2430 C   0  0  0  0  0  0  0  0  0  0  0  0
   57.7460   32.6260   42.9170 C   0  0  0  0  0  0  0  0  0  0  0  0
   57.8540   32.6210   44.3180 C   0  0  0  0  0  0  0  0  0  0  0  0
   58.3380   33.8180   45.0470 C   0  0  0  0  0  0  0  0  0  0  0  0
   58.1500   34.9570   44.5360 O   0  0  0  0  0  0  0  0  0  0  0  0
   59.0330   33.7240   46.3530 C   0  0  0  0  0  0  0  0  0  0  0  0
   58.4110   33.1460   47.4720 C   0  0  0  0  0  0  0  0  0  0  0  0
   59.0790   33.0920   48.6970 C   0  0  0  0  0  0  0  0  0  0  0  0
   60.3630   33.6270   48.8000 C   0  0  0  0  0  0  0  0  0  0  0  0
   60.9520   34.1970   47.7140 N   0  0  0  0  0  0  0  0  0  0  0  0
   60.3220   34.2610   46.5110 C   0  0  0  0  0  0  0  0  0  0  0  0
   57.4520   31.4800   45.0320 C   0  0  0  0  0  0  0  0  0  0  0  0
   59.8260   29.5790   46.0320 C   0  0  0  0  0  0  0  0  0  0  0  0
   60.8420   30.2100   46.7550 C   0  0  0  0  0  0  0  0  0  0  0  0
   63.5933   32.1439   50.3134 H   0  0  0  0  0  0  0  0  0  0  0  0
   64.8910   32.0958   49.0724 H   0  0  0  0  0  0  0  0  0  0  0  0
   63.6976   33.4383   49.0724 H   0  0  0  0  0  0  0  0  0  0  0  0
   61.9950   30.5060   49.9440 H   0  0  0  0  0  0  0  0  0  0  0  0
   59.9384   29.2534   49.9115 H   0  0  0  0  0  0  0  0  0  0  0  0
   58.1293   28.1258   48.6202 H   0  0  0  0  0  0  0  0  0  0  0  0
   56.5134   29.4794   42.4213 H   0  0  0  0  0  0  0  0  0  0  0  0
   57.1947   31.5075   41.1455 H   0  0  0  0  0  0  0  0  0  0  0  0
   58.0393   33.5209   42.3485 H   0  0  0  0  0  0  0  0  0  0  0  0
   57.3947   32.7347   47.3830 H   0  0  0  0  0  0  0  0  0  0  0  0
   58.5973   32.6320   49.5724 H   0  0  0  0  0  0  0  0  0  0  0  0
   60.8996   33.5881   49.7595 H   0  0  0  0  0  0  0  0  0  0  0  0
   60.8245   34.7363   45.6557 H   0  0  0  0  0  0  0  0  0  0  0  0
   57.5192   31.4727   46.1299 H   0  0  0  0  0  0  0  0  0  0  0  0
   59.7891   29.6791   44.9372 H   0  0  0  0  0  0  0  0  0  0  0  0
   61.5938   30.8151   46.2271 H   0  0  0  0  0  0  0  0  0  0  0  0
  1  2  1  0
  2  3  2  0
  2  4  1  0
  4  5  1  0
  5  6  2  0
  6  7  1  0
  7  8  2  0
  8  9  1  0
  9 10  2  0
  9 11  2  0
  9 12  1  0
 12 13  1  0
 13 14  2  0
 14 15  1  0
 15 16  2  0
 16 17  1  0
 17 18  1  0
 18 19  2  0
 18 20  1  0
 20 21  2  0
 21 22  1  0
 22 23  2  0
 23 24  1  0
 24 25  2  0
 17 26  2  0
  8 27  1  0
 27 28  2  0
 28  5  1  0
 26 13  1  0
 25 20  1  0
  1 29  1  0
  1 30  1  0
  1 31  1  0
  4 32  1  0
  6 33  1  0
  7 34  1  0
 14 35  1  0
 15 36  1  0
 16 37  1  0
 21 38  1  0
 22 39  1  0
 23 40  1  0
 25 41  1  0
 26 42  1  0
 27 43  1  0
 28 44  1  0
M  CHG  1  12  -1
M  END
>  <UniqueID>  (33) 
30

>  <SMILES>  (33) 
CC(=O)Nc1ccc(S(=O)(=O)[N-]c2cccc(C(=O)c3cccnc3)c2)cc1

>  <Energy>  (33) 
57.918072703250935

>  <Genealogy>  (33) 
CC(=O)Nc1ccc(S(=O)(=O)[N-]c2cccc(C(=O)c3cccnc3)c2)cc1 (protonated)
CC(=O)Nc1ccc(S(=O)(=O)[N-]c2cccc(C(=O)c3cccnc3)c2)cc1 (3D coordinates assigned)
CC(=O)Nc1ccc(S(=O)(=O)[N-]c2cccc(C(=O)c3cccnc3)c2)cc1 (optimized conformer: 57.918072703250935 kcal/mol)

>  <smiles>  (33) 
CC(=O)Nc1ccc(S(=O)(=O)Nc2cccc(C(=O)c3cccnc3)c2)cc1

>  <score_type>  (33) 
oracle

>  <origin>  (33) 
adg

>  <m_score__min__energy>  (33) 
-10.56

>  <m_primary>  (33) 
energy

$$$$
33:0
     RDKit          3D

 41 42  0  0  0  0  0  0  0  0999 V2000
   61.7410   30.5550   48.8370 C   0  0  0  0  0  0  0  0  0  0  0  0
   60.6510   29.9220   48.0250 C   0  0  0  0  0  0  0  0  0  0  0  0
   60.6710   30.0060   46.6240 C   0  0  0  0  0  0  0  0  0  0  0  0
   59.6370   29.4460   45.8700 C   0  0  0  0  0  0  0  0  0  0  0  0
   58.5620   28.8100   46.5050 C   0  0  0  0  0  0  0  0  0  0  0  0
   57.2820   28.0810   45.5400 S   0  0  0  0  0  0  0  0  0  0  0  0
   57.8810   27.3600   44.3650 O   0  0  0  0  0  0  0  0  0  0  0  0
   56.5150   27.0890   46.3680 O   0  0  0  0  0  0  0  0  0  0  0  0
   56.2260   29.3220   44.9570 N   0  0  0  0  0  0  0  0  0  0  0  0
   56.7080   30.3650   44.1080 C   0  0  0  0  0  0  0  0  0  0  0  0
   56.5290   30.2530   42.7240 C   0  0  0  0  0  0  0  0  0  0  0  0
   57.0210   31.2410   41.8700 C   0  0  0  0  0  0  0  0  0  0  0  0
   57.6880   32.3500   42.3960 C   0  0  0  0  0  0  0  0  0  0  0  0
   57.8550   32.4780   43.7770 C   0  0  0  0  0  0  0  0  0  0  0  0
   57.3590   31.4890   44.6490 C   0  0  0  0  0  0  0  0  0  0  0  0
   57.4780   31.5900   46.0430 O   0  0  0  0  0  0  0  0  0  0  0  0
   58.0950   32.9520   46.8760 S   0  0  0  0  0  0  0  0  0  0  0  0
   57.9440   32.7250   48.3550 O   0  0  0  0  0  0  0  0  0  0  0  0
   57.3080   34.1710   46.4840 O   0  0  0  0  0  0  0  0  0  0  0  0
   59.7790   33.1770   46.4730 N   0  0  0  0  0  0  0  0  0  0  0  0
   60.5360   33.4500   47.7010 C   0  0  0  0  0  0  0  0  0  0  0  0
   59.9100   34.3010   45.5390 C   0  0  0  0  0  0  0  0  0  0  0  0
   58.5340   28.7340   47.9050 C   0  0  0  0  0  0  0  0  0  0  0  0
   59.5670   29.2950   48.6610 C   0  0  0  0  0  0  0  0  0  0  0  0
   61.5219   30.4277   49.9074 H   0  0  0  0  0  0  0  0  0  0  0  0
   62.7014   30.0741   48.5997 H   0  0  0  0  0  0  0  0  0  0  0  0
   61.7994   31.6275   48.5997 H   0  0  0  0  0  0  0  0  0  0  0  0
   61.5044   30.5150   46.1177 H   0  0  0  0  0  0  0  0  0  0  0  0
   59.6668   29.5046   44.7720 H   0  0  0  0  0  0  0  0  0  0  0  0
   55.9988   29.3834   42.3084 H   0  0  0  0  0  0  0  0  0  0  0  0
   56.8836   31.1465   40.7827 H   0  0  0  0  0  0  0  0  0  0  0  0
   58.0825   33.1241   41.7213 H   0  0  0  0  0  0  0  0  0  0  0  0
   58.3767   33.3559   44.1858 H   0  0  0  0  0  0  0  0  0  0  0  0
   59.9091   33.2239   48.5761 H   0  0  0  0  0  0  0  0  0  0  0  0
   61.4377   32.8204   47.7235 H   0  0  0  0  0  0  0  0  0  0  0  0
   60.8284   34.5102   47.7235 H   0  0  0  0  0  0  0  0  0  0  0  0
   60.0192   35.2376   46.1054 H   0  0  0  0  0  0  0  0  0  0  0  0
   60.7966   34.1500   44.9057 H   0  0  0  0  0  0  0  0  0  0  0  0
   59.0124   34.3580   44.9057 H   0  0  0  0  0  0  0  0  0  0  0  0
   57.6961   28.2311   48.4099 H   0  0  0  0  0  0  0  0  0  0  0  0
   59.5309   29.2452   49.7593 H   0  0  0  0  0  0  0  0  0  0  0  0
  1  2  1  0
  2  3  2  0
  3  4  1  0
  4  5  2  0
  5  6  1  0
  6  7  2  0
  6  8  2  0
  6  9  1  0
  9 10  1  0
 10 11  2  0
 11 12  1  0
 12 13  2  0
 13 14  1  0
 14 15  2  0
 15 16  1  0
 16 17  1  0
 17 18  2  0
 17 19  2  0
 17 20  1  0
 20 21  1  0
 20 22  1  0
  5 23  1  0
 23 24  2  0
 24  2  1  0
 15 10  1  0
  1 25  1  0
  1 26  1  0
  1 27  1  0
  3 28  1  0
  4 29  1  0
 11 30  1  0
 12 31  1  0
 13 32  1  0
 14 33  1  0
 21 34  1  0
 21 35  1  0
 21 36  1  0
 22 37  1  0
 22 38  1  0
 22 39  1  0
 23 40  1  0
 24 41  1  0
M  CHG  1   9  -1
M  END
>  <UniqueID>  (34) 
31

>  <SMILES>  (34) 
Cc1ccc(S(=O)(=O)[N-]c2ccccc2OS(=O)(=O)N(C)C)cc1

>  <Energy>  (34) 
43.81815902962658

>  <Genealogy>  (34) 
Cc1ccc(S(=O)(=O)[N-]c2ccccc2OS(=O)(=O)N(C)C)cc1 (protonated)
Cc1ccc(S(=O)(=O)[N-]c2ccccc2OS(=O)(=O)N(C)C)cc1 (3D coordinates assigned)
Cc1ccc(S(=O)(=O)[N-]c2ccccc2OS(=O)(=O)N(C)C)cc1 (optimized conformer: 43.81815902962658 kcal/mol)

>  <smiles>  (34) 
Cc1ccc(S(=O)(=O)Nc2ccccc2OS(=O)(=O)N(C)C)cc1

>  <score_type>  (34) 
oracle

>  <origin>  (34) 
adg

>  <m_score__min__energy>  (34) 
-10.25

>  <m_primary>  (34) 
energy

$$$$
34:0
     RDKit          3D

 43 46  0  0  0  0  0  0  0  0999 V2000
   57.0130   34.5950   44.8430 C   0  0  0  0  0  0  0  0  0  0  0  0
   57.7250   33.7830   45.8770 C   0  0  0  0  0  0  0  0  0  0  0  0
   58.5280   34.3230   46.8150 N   0  0  0  0  0  0  0  0  0  0  0  0
   59.0470   33.3330   47.5290 N   0  0  0  0  0  0  0  0  0  0  0  0
   59.9170   33.5570   48.6820 C   0  0  0  0  0  0  0  0  0  0  0  0
   61.3610   33.4770   48.2640 C   0  0  0  0  0  0  0  0  0  0  0  0
   62.3570   33.1360   49.1930 C   0  0  0  0  0  0  0  0  0  0  0  0
   63.6990   33.0910   48.8010 C   0  0  0  0  0  0  0  0  0  0  0  0
   64.0540   33.3880   47.4830 C   0  0  0  0  0  0  0  0  0  0  0  0
   63.0690   33.7340   46.5540 C   0  0  0  0  0  0  0  0  0  0  0  0
   61.7260   33.7790   46.9420 C   0  0  0  0  0  0  0  0  0  0  0  0
   58.5890   32.1470   47.0670 C   0  0  0  0  0  0  0  0  0  0  0  0
   58.8830   30.8040   47.6610 C   0  0  0  0  0  0  0  0  0  0  0  0
   57.7140   32.4030   46.0330 C   0  0  0  0  0  0  0  0  0  0  0  0
   57.0420   31.4160   45.2410 N   0  0  0  0  0  0  0  0  0  0  0  0
   57.6810   30.3570   44.5200 C   0  0  0  0  0  0  0  0  0  0  0  0
   58.1930   30.5860   43.3910 O   0  0  0  0  0  0  0  0  0  0  0  0
   57.6870   28.9830   45.0700 C   0  0  0  0  0  0  0  0  0  0  0  0
   58.9130   28.3610   45.4350 C   0  0  0  0  0  0  0  0  0  0  0  0
   58.9300   27.0540   45.9580 C   0  0  0  0  0  0  0  0  0  0  0  0
   57.7110   26.3990   46.1030 C   0  0  0  0  0  0  0  0  0  0  0  0
   57.4940   25.1630   46.5730 N   0  0  0  0  0  0  0  0  0  0  0  0
   56.1440   25.0480   46.4900 C   0  0  0  0  0  0  0  0  0  0  0  0
   55.5160   26.1450   45.9940 N   0  0  0  0  0  0  0  0  0  0  0  0
   56.5350   26.9840   45.7590 C   0  0  0  0  0  0  0  0  0  0  0  0
   56.4730   28.2740   45.2400 C   0  0  0  0  0  0  0  0  0  0  0  0
   56.3655   35.3334   45.3385 H   0  0  0  0  0  0  0  0  0  0  0  0
   57.7501   35.1166   44.2149 H   0  0  0  0  0  0  0  0  0  0  0  0
   56.3995   33.9324   44.2149 H   0  0  0  0  0  0  0  0  0  0  0  0
   59.7146   34.5532   49.1024 H   0  0  0  0  0  0  0  0  0  0  0  0
   59.7180   32.7838   49.4387 H   0  0  0  0  0  0  0  0  0  0  0  0
   62.0812   32.9035   50.2322 H   0  0  0  0  0  0  0  0  0  0  0  0
   64.4759   32.8214   49.5316 H   0  0  0  0  0  0  0  0  0  0  0  0
   65.1096   33.3495   47.1762 H   0  0  0  0  0  0  0  0  0  0  0  0
   63.3500   33.9710   45.5173 H   0  0  0  0  0  0  0  0  0  0  0  0
   60.9527   34.0520   46.2088 H   0  0  0  0  0  0  0  0  0  0  0  0
   58.8670   30.8770   48.7585 H   0  0  0  0  0  0  0  0  0  0  0  0
   58.1216   30.0822   47.3304 H   0  0  0  0  0  0  0  0  0  0  0  0
   59.8763   30.4663   47.3304 H   0  0  0  0  0  0  0  0  0  0  0  0
   59.8590   28.9076   45.3071 H   0  0  0  0  0  0  0  0  0  0  0  0
   59.8746   26.5673   46.2423 H   0  0  0  0  0  0  0  0  0  0  0  0
   55.6035   24.1412   46.7990 H   0  0  0  0  0  0  0  0  0  0  0  0
   55.5089   28.7296   44.9697 H   0  0  0  0  0  0  0  0  0  0  0  0
  1  2  1  0
  2  3  2  0
  3  4  1  0
  4  5  1  0
  5  6  1  0
  6  7  2  0
  7  8  1  0
  8  9  2  0
  9 10  1  0
 10 11  2  0
  4 12  1  0
 12 13  1  0
 12 14  2  0
 14 15  1  0
 15 16  1  0
 16 17  2  0
 16 18  1  0
 18 19  2  0
 19 20  1  0
 20 21  2  0
 21 22  1  0
 22 23  1  0
 23 24  2  0
 24 25  1  0
 25 26  2  0
 14  2  1  0
 26 18  1  0
 11  6  1  0
 25 21  1  0
  1 27  1  0
  1 28  1  0
  1 29  1  0
  5 30  1  0
  5 31  1  0
  7 32  1  0
  8 33  1  0
  9 34  1  0
 10 35  1  0
 11 36  1  0
 13 37  1  0
 13 38  1  0
 13 39  1  0
 19 40  1  0
 20 41  1  0
 23 42  1  0
 26 43  1  0
M  CHG  2  15  -1  22  -1
M  END
>  <UniqueID>  (35) 
32

>  <SMILES>  (35) 
Cc1nn(Cc2ccccc2)c(C)c1[N-]C(=O)c1ccc2[n-]cnc2c1

>  <Energy>  (35) 
115.47808282592686

>  <Genealogy>  (35) 
Cc1nn(Cc2ccccc2)c(C)c1[N-]C(=O)c1ccc2[n-]cnc2c1 (protonated)
Cc1nn(Cc2ccccc2)c(C)c1[N-]C(=O)c1ccc2[n-]cnc2c1 (3D coordinates assigned)
Cc1nn(Cc2ccccc2)c(C)c1[N-]C(=O)c1ccc2[n-]cnc2c1 (optimized conformer: 115.47808282592686 kcal/mol)

>  <smiles>  (35) 
Cc1nn(Cc2ccccc2)c(C)c1NC(=O)c1ccc2[nH]cnc2c1

>  <score_type>  (35) 
oracle

>  <origin>  (35) 
adg

>  <m_score__min__energy>  (35) 
-11.76

>  <m_primary>  (35) 
energy

$$$$
35:0
     RDKit          3D

 29 30  0  0  0  0  0  0  0  0999 V2000
   54.7680   26.0240   45.9930 N   0  0  0  0  0  0  0  0  0  0  0  0
   56.1130   26.4600   46.1690 C   0  0  0  0  0  0  0  0  0  0  0  0
   56.8630   25.8510   46.9790 O   0  0  0  0  0  0  0  0  0  0  0  0
   56.6090   27.5570   45.3900 N   0  0  0  0  0  0  0  0  0  0  0  0
   57.8800   28.1940   45.6030 C   0  0  0  0  0  0  0  0  0  0  0  0
   58.8990   28.0290   44.6530 C   0  0  0  0  0  0  0  0  0  0  0  0
   60.1350   28.6560   44.8250 C   0  0  0  0  0  0  0  0  0  0  0  0
   60.3630   29.4650   45.9410 C   0  0  0  0  0  0  0  0  0  0  0  0
   59.3490   29.6590   46.8900 C   0  0  0  0  0  0  0  0  0  0  0  0
   59.5700   30.5620   48.0740 C   0  0  0  0  0  0  0  0  0  0  0  0
   58.6730   31.6710   48.0290 O   0  0  0  0  0  0  0  0  0  0  0  0
   58.3320   32.3410   46.8480 C   0  0  0  0  0  0  0  0  0  0  0  0
   57.4000   31.8290   45.9970 N   0  0  0  0  0  0  0  0  0  0  0  0
   57.0630   32.4560   44.8690 N   0  0  0  0  0  0  0  0  0  0  0  0
   57.6360   33.6350   44.5170 C   0  0  0  0  0  0  0  0  0  0  0  0
   58.5970   34.2070   45.3490 C   0  0  0  0  0  0  0  0  0  0  0  0
   58.9520   33.5530   46.5290 C   0  0  0  0  0  0  0  0  0  0  0  0
   60.1580   34.2570   47.5930 Cl  0  0  0  0  0  0  0  0  0  0  0  0
   58.1060   29.0290   46.7130 C   0  0  0  0  0  0  0  0  0  0  0  0
   53.9730   26.5590   46.4050 H   0  0  0  0  0  0  0  0  0  0  0  0
   56.0420   27.8510   44.5620 H   0  0  0  0  0  0  0  0  0  0  0  0
   58.7233   27.4016   43.7667 H   0  0  0  0  0  0  0  0  0  0  0  0
   60.9312   28.5125   44.0797 H   0  0  0  0  0  0  0  0  0  0  0  0
   61.3405   29.9511   46.0756 H   0  0  0  0  0  0  0  0  0  0  0  0
   59.3976   29.9939   49.0001 H   0  0  0  0  0  0  0  0  0  0  0  0
   60.6034   30.9380   48.0476 H   0  0  0  0  0  0  0  0  0  0  0  0
   57.3441   34.1355   43.5819 H   0  0  0  0  0  0  0  0  0  0  0  0
   59.0698   35.1626   45.0784 H   0  0  0  0  0  0  0  0  0  0  0  0
   57.3032   29.1896   47.4476 H   0  0  0  0  0  0  0  0  0  0  0  0
  1  2  1  0
  2  3  2  0
  2  4  1  0
  4  5  1  0
  5  6  2  0
  6  7  1  0
  7  8  2  0
  8  9  1  0
  9 10  1  0
 10 11  1  0
 11 12  1  0
 12 13  2  0
 13 14  1  0
 14 15  2  0
 15 16  1  0
 16 17  2  0
 17 18  1  0
  9 19  2  0
 19  5  1  0
 17 12  1  0
  1 20  1  0
  4 21  1  0
  6 22  1  0
  7 23  1  0
  8 24  1  0
 10 25  1  0
 10 26  1  0
 15 27  1  0
 16 28  1  0
 19 29  1  0
M  CHG  1   1  -1
M  END
>  <UniqueID>  (36) 
33

>  <SMILES>  (36) 
[NH-]C(=O)Nc1cccc(COc2nnccc2Cl)c1

>  <Energy>  (36) 
31.493709859606263

>  <Genealogy>  (36) 
[NH-]C(=O)Nc1cccc(COc2nnccc2Cl)c1 (protonated)
[NH-]C(=O)Nc1cccc(COc2nnccc2Cl)c1 (3D coordinates assigned)
[NH-]C(=O)Nc1cccc(COc2nnccc2Cl)c1 (optimized conformer: 31.493709859606263 kcal/mol)

>  <smiles>  (36) 
NC(=O)Nc1cccc(COc2nnccc2Cl)c1

>  <score_type>  (36) 
oracle

>  <origin>  (36) 
adg

>  <m_score__min__energy>  (36) 
-9.2400000000000002

>  <m_primary>  (36) 
energy

$$$$
36:0
     RDKit          3D

 48 50  0  0  0  0  0  0  0  0999 V2000
   58.8240   29.4400   47.4490 C   0  0  0  0  0  0  0  0  0  0  0  0
   57.8330   28.9070   46.5760 O   0  0  0  0  0  0  0  0  0  0  0  0
   57.3540   29.5550   45.4270 C   0  0  0  0  0  0  0  0  0  0  0  0
   58.0120   30.6660   44.8640 C   0  0  0  0  0  0  0  0  0  0  0  0
   57.4890   31.3060   43.7240 C   0  0  0  0  0  0  0  0  0  0  0  0
   58.1460   32.5130   43.1740 C   0  0  0  0  0  0  0  0  0  0  0  0
   58.2330   32.6740   41.9270 O   0  0  0  0  0  0  0  0  0  0  0  0
   58.6530   33.5230   44.0550 N   0  0  0  0  0  0  0  0  0  0  0  0
   57.7930   34.2970   44.9420 C   0  0  0  0  0  0  0  0  0  0  0  0
   58.2430   34.0720   46.3580 C   0  0  0  0  0  0  0  0  0  0  0  0
   57.6230   33.0920   47.1460 C   0  0  0  0  0  0  0  0  0  0  0  0
   58.1870   32.7100   48.3670 C   0  0  0  0  0  0  0  0  0  0  0  0
   59.3760   33.3070   48.8150 C   0  0  0  0  0  0  0  0  0  0  0  0
   60.0990   32.7330   50.0010 C   0  0  0  0  0  0  0  0  0  0  0  0
   59.1730   31.9020   50.7630 N   0  0  0  0  0  0  0  0  0  0  0  0
   58.1880   32.4380   51.6540 C   0  0  0  0  0  0  0  0  0  0  0  0
   58.2040   33.6640   51.9500 O   0  0  0  0  0  0  0  0  0  0  0  0
   57.2050   31.5750   52.2300 N   0  0  0  0  0  0  0  0  0  0  0  0
   57.3350   30.8690   53.3710 C   0  0  0  0  0  0  0  0  0  0  0  0
   56.2040   30.0990   53.5380 C   0  0  0  0  0  0  0  0  0  0  0  0
   55.4170   30.4010   52.4420 C   0  0  0  0  0  0  0  0  0  0  0  0
   54.1080   29.7710   52.1010 C   0  0  0  0  0  0  0  0  0  0  0  0
   56.0470   31.2930   51.6530 N   0  0  0  0  0  0  0  0  0  0  0  0
   59.9720   34.3180   48.0440 C   0  0  0  0  0  0  0  0  0  0  0  0
   59.4110   34.6950   46.8220 C   0  0  0  0  0  0  0  0  0  0  0  0
   56.3000   30.8210   43.1540 C   0  0  0  0  0  0  0  0  0  0  0  0
   55.6560   29.7110   43.7020 C   0  0  0  0  0  0  0  0  0  0  0  0
   56.1780   29.0800   44.8330 C   0  0  0  0  0  0  0  0  0  0  0  0
   55.5200   27.9810   45.3720 O   0  0  0  0  0  0  0  0  0  0  0  0
   58.5193   29.2761   48.4932 H   0  0  0  0  0  0  0  0  0  0  0  0
   59.7845   28.9368   47.2641 H   0  0  0  0  0  0  0  0  0  0  0  0
   58.9337   30.5188   47.2641 H   0  0  0  0  0  0  0  0  0  0  0  0
   58.9424   31.0368   45.3188 H   0  0  0  0  0  0  0  0  0  0  0  0
   57.8697   35.3658   44.6936 H   0  0  0  0  0  0  0  0  0  0  0  0
   56.7465   33.9794   44.8241 H   0  0  0  0  0  0  0  0  0  0  0  0
   56.6897   32.6221   46.8024 H   0  0  0  0  0  0  0  0  0  0  0  0
   57.6970   31.9385   48.9791 H   0  0  0  0  0  0  0  0  0  0  0  0
   60.9459   32.1214   49.6565 H   0  0  0  0  0  0  0  0  0  0  0  0
   60.4777   33.5473   50.6362 H   0  0  0  0  0  0  0  0  0  0  0  0
   58.1974   30.9018   54.0531 H   0  0  0  0  0  0  0  0  0  0  0  0
   55.9784   29.4016   54.3582 H   0  0  0  0  0  0  0  0  0  0  0  0
   53.5728   29.5134   53.0269 H   0  0  0  0  0  0  0  0  0  0  0  0
   53.5036   30.4769   51.5124 H   0  0  0  0  0  0  0  0  0  0  0  0
   54.2826   28.8583   51.5124 H   0  0  0  0  0  0  0  0  0  0  0  0
   60.8847   34.8152   48.4042 H   0  0  0  0  0  0  0  0  0  0  0  0
   59.8870   35.4837   46.2208 H   0  0  0  0  0  0  0  0  0  0  0  0
   55.8742   31.3192   42.2705 H   0  0  0  0  0  0  0  0  0  0  0  0
   54.7325   29.3311   43.2407 H   0  0  0  0  0  0  0  0  0  0  0  0
  1  2  1  0
  2  3  1  0
  3  4  2  0
  4  5  1  0
  5  6  1  0
  6  7  2  0
  6  8  1  0
  8  9  1  0
  9 10  1  0
 10 11  2  0
 11 12  1  0
 12 13  2  0
 13 14  1  0
 14 15  1  0
 15 16  1  0
 16 17  2  0
 16 18  1  0
 18 19  1  0
 19 20  2  0
 20 21  1  0
 21 22  1  0
 21 23  2  0
 13 24  1  0
 24 25  2  0
  5 26  2  0
 26 27  1  0
 27 28  2  0
 28 29  1  0
 28  3  1  0
 25 10  1  0
 23 18  1  0
  1 30  1  0
  1 31  1  0
  1 32  1  0
  4 33  1  0
  9 34  1  0
  9 35  1  0
 11 36  1  0
 12 37  1  0
 14 38  1  0
 14 39  1  0
 19 40  1  0
 20 41  1  0
 22 42  1  0
 22 43  1  0
 22 44  1  0
 24 45  1  0
 25 46  1  0
 26 47  1  0
 27 48  1  0
M  CHG  3   8  -1  15  -1  29  -1
M  END
>  <UniqueID>  (37) 
34

>  <SMILES>  (37) 
COc1cc(C(=O)[N-]Cc2ccc(C[N-]C(=O)n3ccc(C)n3)cc2)ccc1[O-]

>  <Energy>  (37) 
73.22549162145393

>  <Genealogy>  (37) 
COc1cc(C(=O)[N-]Cc2ccc(C[N-]C(=O)n3ccc(C)n3)cc2)ccc1[O-] (protonated)
COc1cc(C(=O)[N-]Cc2ccc(C[N-]C(=O)n3ccc(C)n3)cc2)ccc1[O-] (3D coordinates assigned)
COc1cc(C(=O)[N-]Cc2ccc(C[N-]C(=O)n3ccc(C)n3)cc2)ccc1[O-] (optimized conformer: 73.22549162145393 kcal/mol)

>  <smiles>  (37) 
COc1cc(C(=O)NCc2ccc(CNC(=O)n3ccc(C)n3)cc2)ccc1O

>  <score_type>  (37) 
oracle

>  <origin>  (37) 
adg

>  <m_score__min__energy>  (37) 
-14.26

>  <m_primary>  (37) 
energy

$$$$
37:0
     RDKit          3D

 52 54  0  0  0  0  0  0  0  0999 V2000
   59.9350   25.2600   46.0110 C   0  0  0  0  0  0  0  0  0  0  0  0
   58.8620   24.3020   45.5620 C   0  0  0  0  0  0  0  0  0  0  0  0
   59.2210   22.9770   45.2560 C   0  0  0  0  0  0  0  0  0  0  0  0
   58.2570   22.0620   44.8250 C   0  0  0  0  0  0  0  0  0  0  0  0
   56.9290   22.4580   44.6910 C   0  0  0  0  0  0  0  0  0  0  0  0
   56.5560   23.7720   44.9800 C   0  0  0  0  0  0  0  0  0  0  0  0
   57.5130   24.7080   45.4080 C   0  0  0  0  0  0  0  0  0  0  0  0
   56.9900   26.3650   45.7590 S   0  0  0  0  0  0  0  0  0  0  0  0
   55.5060   26.3750   45.9940 O   0  0  0  0  0  0  0  0  0  0  0  0
   57.6830   26.8740   46.9920 O   0  0  0  0  0  0  0  0  0  0  0  0
   57.3930   27.3860   44.4160 N   0  0  0  0  0  0  0  0  0  0  0  0
   57.5920   28.8050   44.5290 C   0  0  0  0  0  0  0  0  0  0  0  0
   56.5940   29.6760   44.0670 C   0  0  0  0  0  0  0  0  0  0  0  0
   56.7460   31.0600   44.1900 C   0  0  0  0  0  0  0  0  0  0  0  0
   57.9030   31.5920   44.7740 C   0  0  0  0  0  0  0  0  0  0  0  0
   58.0400   33.0420   44.9840 C   0  0  0  0  0  0  0  0  0  0  0  0
   58.5850   33.7430   44.0910 O   0  0  0  0  0  0  0  0  0  0  0  0
   57.6260   33.6730   46.2050 N   0  0  0  0  0  0  0  0  0  0  0  0
   58.5120   34.2730   47.2020 C   0  0  0  0  0  0  0  0  0  0  0  0
   59.8540   33.5620   47.2610 C   0  0  0  0  0  0  0  0  0  0  0  0
   60.9450   34.1750   46.6420 C   0  0  0  0  0  0  0  0  0  0  0  0
   62.2090   33.6210   46.7770 C   0  0  0  0  0  0  0  0  0  0  0  0
   63.1900   34.2080   46.2420 O   0  0  0  0  0  0  0  0  0  0  0  0
   62.3830   32.4680   47.4900 N   0  0  0  0  0  0  0  0  0  0  0  0
   63.7370   31.9210   47.6910 C   0  0  0  0  0  0  0  0  0  0  0  0
   61.3050   31.8630   48.0870 C   0  0  0  0  0  0  0  0  0  0  0  0
   61.4840   30.8290   48.7920 O   0  0  0  0  0  0  0  0  0  0  0  0
   60.0370   32.3750   47.9360 N   0  0  0  0  0  0  0  0  0  0  0  0
   58.9010   31.6800   48.5710 C   0  0  0  0  0  0  0  0  0  0  0  0
   58.9220   30.7290   45.1980 C   0  0  0  0  0  0  0  0  0  0  0  0
   58.7680   29.3460   45.0830 C   0  0  0  0  0  0  0  0  0  0  0  0
   59.9656   25.2873   47.1102 H   0  0  0  0  0  0  0  0  0  0  0  0
   60.9095   24.9260   45.6253 H   0  0  0  0  0  0  0  0  0  0  0  0
   59.7132   26.2660   45.6253 H   0  0  0  0  0  0  0  0  0  0  0  0
   60.2691   22.6585   45.3568 H   0  0  0  0  0  0  0  0  0  0  0  0
   58.5478   21.0272   44.5912 H   0  0  0  0  0  0  0  0  0  0  0  0
   56.1717   21.7337   44.3566 H   0  0  0  0  0  0  0  0  0  0  0  0
   55.5047   24.0771   44.8718 H   0  0  0  0  0  0  0  0  0  0  0  0
   57.3860   26.9490   43.4670 H   0  0  0  0  0  0  0  0  0  0  0  0
   55.6842   29.2663   43.6040 H   0  0  0  0  0  0  0  0  0  0  0  0
   55.9552   31.7332   43.8274 H   0  0  0  0  0  0  0  0  0  0  0  0
   58.6789   35.3286   46.9415 H   0  0  0  0  0  0  0  0  0  0  0  0
   58.0316   34.1816   48.1873 H   0  0  0  0  0  0  0  0  0  0  0  0
   60.8028   35.0917   46.0509 H   0  0  0  0  0  0  0  0  0  0  0  0
   63.9427   31.8379   48.7684 H   0  0  0  0  0  0  0  0  0  0  0  0
   63.8029   30.9257   47.2273 H   0  0  0  0  0  0  0  0  0  0  0  0
   64.4758   32.5912   47.2273 H   0  0  0  0  0  0  0  0  0  0  0  0
   58.9994   31.7402   49.6649 H   0  0  0  0  0  0  0  0  0  0  0  0
   57.9596   32.1569   48.2608 H   0  0  0  0  0  0  0  0  0  0  0  0
   58.8970   30.6247   48.2608 H   0  0  0  0  0  0  0  0  0  0  0  0
   59.8480   31.1430   45.6236 H   0  0  0  0  0  0  0  0  0  0  0  0
   59.5695   28.6757   45.4270 H   0  0  0  0  0  0  0  0  0  0  0  0
  1  2  1  0
  2  3  2  0
  3  4  1  0
  4  5  2  0
  5  6  1  0
  6  7  2  0
  7  8  1  0
  8  9  2  0
  8 10  2  0
  8 11  1  0
 11 12  1  0
 12 13  2  0
 13 14  1  0
 14 15  2  0
 15 16  1  0
 16 17  2  0
 16 18  1  0
 18 19  1  0
 19 20  1  0
 20 21  2  0
 21 22  1  0
 22 23  2  0
 22 24  1  0
 24 25  1  0
 24 26  1  0
 26 27  2  0
 26 28  1  0
 28 29  1  0
 15 30  1  0
 30 31  2  0
  7  2  1  0
 31 12  1  0
 28 20  1  0
  1 32  1  0
  1 33  1  0
  1 34  1  0
  3 35  1  0
  4 36  1  0
  5 37  1  0
  6 38  1  0
 11 39  1  0
 13 40  1  0
 14 41  1  0
 19 42  1  0
 19 43  1  0
 21 44  1  0
 25 45  1  0
 25 46  1  0
 25 47  1  0
 29 48  1  0
 29 49  1  0
 29 50  1  0
 30 51  1  0
 31 52  1  0
M  CHG  1  18  -1
M  END
>  <UniqueID>  (38) 
35

>  <SMILES>  (38) 
Cc1ccccc1S(=O)(=O)Nc1ccc(C(=O)[N-]Cc2cc(=O)n(C)c(=O)n2C)cc1

>  <Energy>  (38) 
68.67269473727114

>  <Genealogy>  (38) 
Cc1ccccc1S(=O)(=O)Nc1ccc(C(=O)[N-]Cc2cc(=O)n(C)c(=O)n2C)cc1 (protonated)
Cc1ccccc1S(=O)(=O)Nc1ccc(C(=O)[N-]Cc2cc(=O)n(C)c(=O)n2C)cc1 (3D coordinates assigned)
Cc1ccccc1S(=O)(=O)Nc1ccc(C(=O)[N-]Cc2cc(=O)n(C)c(=O)n2C)cc1 (optimized conformer: 68.67269473727114 kcal/mol)

>  <smiles>  (38) 
Cc1ccccc1S(=O)(=O)Nc1ccc(C(=O)NCc2cc(=O)n(C)c(=O)n2C)cc1

>  <score_type>  (38) 
oracle

>  <origin>  (38) 
adg

>  <m_score__min__energy>  (38) 
-11.56

>  <m_primary>  (38) 
energy

$$$$
38:0
     RDKit          3D

 40 42  0  0  0  0  0  0  0  0999 V2000
   55.8860   25.0380   46.7770 O   0  0  0  0  0  0  0  0  0  0  0  0
   56.3630   26.0780   46.2530 C   0  0  0  0  0  0  0  0  0  0  0  0
   55.5330   27.0610   45.8210 N   0  0  0  0  0  0  0  0  0  0  0  0
   56.0220   28.1950   45.2560 C   0  0  0  0  0  0  0  0  0  0  0  0
   55.1370   29.1780   44.8320 O   0  0  0  0  0  0  0  0  0  0  0  0
   57.4100   28.3660   45.1090 C   0  0  0  0  0  0  0  0  0  0  0  0
   57.9740   29.6340   44.5050 C   0  0  0  0  0  0  0  0  0  0  0  0
   58.9890   30.3210   45.4280 C   0  0  0  0  0  0  0  0  0  0  0  0
   58.7820   31.8200   45.4920 C   0  0  0  0  0  0  0  0  0  0  0  0
   58.0340   32.4360   44.4740 C   0  0  0  0  0  0  0  0  0  0  0  0
   57.7990   33.8120   44.4950 C   0  0  0  0  0  0  0  0  0  0  0  0
   58.3100   34.5920   45.5300 C   0  0  0  0  0  0  0  0  0  0  0  0
   59.0490   33.9980   46.5540 C   0  0  0  0  0  0  0  0  0  0  0  0
   59.2740   32.6100   46.5620 C   0  0  0  0  0  0  0  0  0  0  0  0
   60.0530   32.0260   47.6210 N   0  0  0  0  0  0  0  0  0  0  0  0
   59.4930   31.4430   48.8140 C   0  0  0  0  0  0  0  0  0  0  0  0
   58.6670   32.1790   49.6830 C   0  0  0  0  0  0  0  0  0  0  0  0
   58.1150   31.5760   50.8170 C   0  0  0  0  0  0  0  0  0  0  0  0
   58.3640   30.2220   51.1000 C   0  0  0  0  0  0  0  0  0  0  0  0
   57.7880   29.5960   52.2600 N   0  0  0  0  0  0  0  0  0  0  0  0
   56.5630   29.3570   52.3140 O   0  0  0  0  0  0  0  0  0  0  0  0
   58.5780   29.2480   53.3320 O   0  0  0  0  0  0  0  0  0  0  0  0
   59.1800   29.4860   50.2250 C   0  0  0  0  0  0  0  0  0  0  0  0
   59.7360   30.0900   49.0940 C   0  0  0  0  0  0  0  0  0  0  0  0
   58.2470   27.3220   45.5480 C   0  0  0  0  0  0  0  0  0  0  0  0
   59.4980   27.4020   45.4250 O   0  0  0  0  0  0  0  0  0  0  0  0
   57.7060   26.2120   46.1130 N   0  0  0  0  0  0  0  0  0  0  0  0
   58.4724   29.3824   43.5572 H   0  0  0  0  0  0  0  0  0  0  0  0
   57.1378   30.3313   44.3483 H   0  0  0  0  0  0  0  0  0  0  0  0
   58.8843   29.9055   46.4411 H   0  0  0  0  0  0  0  0  0  0  0  0
   59.9941   30.1363   45.0211 H   0  0  0  0  0  0  0  0  0  0  0  0
   57.6294   31.8274   43.6519 H   0  0  0  0  0  0  0  0  0  0  0  0
   57.2096   34.2809   43.6933 H   0  0  0  0  0  0  0  0  0  0  0  0
   58.1308   35.6773   45.5401 H   0  0  0  0  0  0  0  0  0  0  0  0
   59.4592   34.6213   47.3622 H   0  0  0  0  0  0  0  0  0  0  0  0
   61.0930   32.0710   47.5400 H   0  0  0  0  0  0  0  0  0  0  0  0
   58.4539   33.2367   49.4686 H   0  0  0  0  0  0  0  0  0  0  0  0
   57.4801   32.1665   51.4939 H   0  0  0  0  0  0  0  0  0  0  0  0
   59.3832   28.4249   50.4318 H   0  0  0  0  0  0  0  0  0  0  0  0
   60.3702   29.4989   48.4169 H   0  0  0  0  0  0  0  0  0  0  0  0
  1  2  2  0
  2  3  1  0
  3  4  1  0
  4  5  1  0
  4  6  2  0
  6  7  1  0
  7  8  1  0
  8  9  1  0
  9 10  2  0
 10 11  1  0
 11 12  2  0
 12 13  1  0
 13 14  2  0
 14 15  1  0
 15 16  1  0
 16 17  2  0
 17 18  1  0
 18 19  2  0
 19 20  1  0
 20 21  2  0
 20 22  1  0
 19 23  1  0
 23 24  2  0
  6 25  1  0
 25 26  2  0
 25 27  1  0
 27  2  1  0
 14  9  1  0
 24 16  1  0
  7 28  1  0
  7 29  1  0
  8 30  1  0
  8 31  1  0
 10 32  1  0
 11 33  1  0
 12 34  1  0
 13 35  1  0
 15 36  1  0
 17 37  1  0
 18 38  1  0
 23 39  1  0
 24 40  1  0
M  CHG  5   3  -1   5  -1  20   1  22  -1  27  -1
M  END
>  <UniqueID>  (39) 
36

>  <SMILES>  (39) 
O=c1[n-]c([O-])c(CCc2ccccc2Nc2ccc([N+](=O)[O-])cc2)c(=O)[n-]1

>  <Energy>  (39) 
47.658924752591254

>  <Genealogy>  (39) 
O=c1[n-]c([O-])c(CCc2ccccc2Nc2ccc([N+](=O)[O-])cc2)c(=O)[n-]1 (protonated)
O=c1[n-]c([O-])c(CCc2ccccc2Nc2ccc([N+](=O)[O-])cc2)c(=O)[n-]1 (3D coordinates assigned)
O=c1[n-]c([O-])c(CCc2ccccc2Nc2ccc([N+](=O)[O-])cc2)c(=O)[n-]1 (optimized conformer: 47.658924752591254 kcal/mol)

>  <smiles>  (39) 
O=c1[nH]c(O)c(CCc2ccccc2Nc2ccc([N+](=O)[O-])cc2)c(=O)[nH]1

>  <score_type>  (39) 
oracle

>  <origin>  (39) 
adg

>  <m_score__min__energy>  (39) 
-15.44

>  <m_primary>  (39) 
energy

$$$$
39:0
     RDKit          3D

 36 37  0  0  0  0  0  0  0  0999 V2000
   54.7220   25.2150   45.6220 C   0  0  0  0  0  0  0  0  0  0  0  0
   55.2040   26.5100   45.9660 O   0  0  0  0  0  0  0  0  0  0  0  0
   56.5600   26.8720   46.0010 C   0  0  0  0  0  0  0  0  0  0  0  0
   57.5630   25.9710   46.4090 C   0  0  0  0  0  0  0  0  0  0  0  0
   58.8990   26.3750   46.4520 C   0  0  0  0  0  0  0  0  0  0  0  0
   59.2460   27.6790   46.0990 C   0  0  0  0  0  0  0  0  0  0  0  0
   58.2620   28.5810   45.6910 C   0  0  0  0  0  0  0  0  0  0  0  0
   56.9150   28.1770   45.6170 C   0  0  0  0  0  0  0  0  0  0  0  0
   55.8680   29.0800   45.2280 N   0  0  0  0  0  0  0  0  0  0  0  0
   55.5550   29.5620   43.9130 C   0  0  0  0  0  0  0  0  0  0  0  0
   54.4070   29.3980   43.4210 O   0  0  0  0  0  0  0  0  0  0  0  0
   56.5770   30.3410   43.1350 C   0  0  0  0  0  0  0  0  0  0  0  0
   57.5920   30.9200   44.0260 N   0  0  0  0  0  0  0  0  0  0  0  0
   57.7590   32.3630   43.7970 C   0  0  0  0  0  0  0  0  0  0  0  0
   58.2000   33.0120   45.0720 C   0  0  0  0  0  0  0  0  0  0  0  0
   58.9420   34.2010   45.0540 C   0  0  0  0  0  0  0  0  0  0  0  0
   59.2920   34.8060   46.2630 C   0  0  0  0  0  0  0  0  0  0  0  0
   58.8920   34.2310   47.4700 C   0  0  0  0  0  0  0  0  0  0  0  0
   58.1410   33.0540   47.4510 C   0  0  0  0  0  0  0  0  0  0  0  0
   57.8110   32.4790   46.2630 N   0  0  0  0  0  0  0  0  0  0  0  0
   54.5105   24.6467   46.5398 H   0  0  0  0  0  0  0  0  0  0  0  0
   53.7999   25.3122   45.0302 H   0  0  0  0  0  0  0  0  0  0  0  0
   55.4833   24.6856   45.0302 H   0  0  0  0  0  0  0  0  0  0  0  0
   57.2924   24.9439   46.6952 H   0  0  0  0  0  0  0  0  0  0  0  0
   59.6783   25.6643   46.7645 H   0  0  0  0  0  0  0  0  0  0  0  0
   60.2980   27.9974   46.1423 H   0  0  0  0  0  0  0  0  0  0  0  0
   58.5399   29.6118   45.4261 H   0  0  0  0  0  0  0  0  0  0  0  0
   57.0704   29.6694   42.4170 H   0  0  0  0  0  0  0  0  0  0  0  0
   56.0654   31.1606   42.6093 H   0  0  0  0  0  0  0  0  0  0  0  0
   57.2740   30.7870   45.0150 H   0  0  0  0  0  0  0  0  0  0  0  0
   58.5181   32.5272   43.0180 H   0  0  0  0  0  0  0  0  0  0  0  0
   56.8042   32.7998   43.4690 H   0  0  0  0  0  0  0  0  0  0  0  0
   59.2453   34.6527   44.0980 H   0  0  0  0  0  0  0  0  0  0  0  0
   59.8821   35.7343   46.2639 H   0  0  0  0  0  0  0  0  0  0  0  0
   59.1655   34.7002   48.4266 H   0  0  0  0  0  0  0  0  0  0  0  0
   57.8166   32.5923   48.3953 H   0  0  0  0  0  0  0  0  0  0  0  0
  1  2  1  0
  2  3  1  0
  3  4  2  0
  4  5  1  0
  5  6  2  0
  6  7  1  0
  7  8  2  0
  8  9  1  0
  9 10  1  0
 10 11  2  0
 10 12  1  0
 12 13  1  0
 13 14  1  0
 14 15  1  0
 15 16  2  0
 16 17  1  0
 17 18  2  0
 18 19  1  0
 19 20  2  0
  8  3  1  0
 20 15  1  0
  1 21  1  0
  1 22  1  0
  1 23  1  0
  4 24  1  0
  5 25  1  0
  6 26  1  0
  7 27  1  0
 12 28  1  0
 12 29  1  0
 13 30  1  0
 14 31  1  0
 14 32  1  0
 16 33  1  0
 17 34  1  0
 18 35  1  0
 19 36  1  0
M  CHG  1   9  -1
M  END
>  <UniqueID>  (40) 
37

>  <SMILES>  (40) 
COc1ccccc1[N-]C(=O)CNCc1ccccn1

>  <Energy>  (40) 
37.49038748964334

>  <Genealogy>  (40) 
COc1ccccc1[N-]C(=O)CNCc1ccccn1 (protonated)
COc1ccccc1[N-]C(=O)CNCc1ccccn1 (3D coordinates assigned)
COc1ccccc1[N-]C(=O)CNCc1ccccn1 (optimized conformer: 37.49038748964334 kcal/mol)

>  <smiles>  (40) 
COc1ccccc1NC(=O)CNCc1ccccn1

>  <score_type>  (40) 
oracle

>  <origin>  (40) 
adg

>  <m_score__min__energy>  (40) 
-9.2300000000000004

>  <m_primary>  (40) 
energy

$$$$
40:0
     RDKit          3D

 50 53  0  0  0  0  0  0  0  0999 V2000
   60.1020   28.2170   48.6060 C   0  0  0  0  0  0  0  0  0  0  0  0
   59.2650   28.1850   47.3570 C   0  0  0  0  0  0  0  0  0  0  0  0
   58.2480   27.2290   47.2260 C   0  0  0  0  0  0  0  0  0  0  0  0
   57.4420   27.2140   46.0840 C   0  0  0  0  0  0  0  0  0  0  0  0
   56.3310   26.2620   45.9440 C   0  0  0  0  0  0  0  0  0  0  0  0
   55.1530   26.7000   46.0060 O   0  0  0  0  0  0  0  0  0  0  0  0
   56.5400   24.8410   45.8790 N   0  0  0  0  0  0  0  0  0  0  0  0
   56.9180   24.0080   44.7260 C   0  0  1  0  0  0  0  0  0  0  0  0
   57.3800   24.9620   43.6080 C   0  0  0  0  0  0  0  0  0  0  0  0
   58.0970   23.0720   45.1080 C   0  0  0  0  0  0  0  0  0  0  0  0
   58.1310   21.8810   44.1560 C   0  0  0  0  0  0  0  0  0  0  0  0
   56.4480   21.5930   43.7210 S   0  0  0  0  0  0  0  0  0  0  0  0
   56.2920   21.3410   42.2480 O   0  0  0  0  0  0  0  0  0  0  0  0
   55.8740   20.4570   44.5200 O   0  0  0  0  0  0  0  0  0  0  0  0
   55.7420   23.1450   44.1990 C   0  0  0  0  0  0  0  0  0  0  0  0
   57.7050   28.1240   45.0550 C   0  0  0  0  0  0  0  0  0  0  0  0
   58.7040   29.0360   45.1850 N   0  0  0  0  0  0  0  0  0  0  0  0
   59.4610   29.1150   46.3140 C   0  0  0  0  0  0  0  0  0  0  0  0
   60.4320   30.1210   46.4100 O   0  0  0  0  0  0  0  0  0  0  0  0
   60.1490   31.4390   46.7970 C   0  0  0  0  0  0  0  0  0  0  0  0
   60.8640   31.9840   47.8690 C   0  0  0  0  0  0  0  0  0  0  0  0
   60.5980   33.2810   48.3160 C   0  0  0  0  0  0  0  0  0  0  0  0
   59.6260   34.0580   47.6840 C   0  0  0  0  0  0  0  0  0  0  0  0
   58.9250   33.5440   46.5850 C   0  0  0  0  0  0  0  0  0  0  0  0
   57.9710   34.3190   45.9100 C   0  0  0  0  0  0  0  0  0  0  0  0
   57.3160   33.7980   44.7930 C   0  0  0  0  0  0  0  0  0  0  0  0
   57.6230   32.5080   44.3590 C   0  0  0  0  0  0  0  0  0  0  0  0
   58.5380   31.7600   45.0300 N   0  0  0  0  0  0  0  0  0  0  0  0
   59.1880   32.2310   46.1300 C   0  0  0  0  0  0  0  0  0  0  0  0
   59.4454   28.1919   49.4882 H   0  0  0  0  0  0  0  0  0  0  0  0
   60.7707   27.3438   48.6217 H   0  0  0  0  0  0  0  0  0  0  0  0
   60.7021   29.1387   48.6217 H   0  0  0  0  0  0  0  0  0  0  0  0
   58.0840   26.4893   48.0234 H   0  0  0  0  0  0  0  0  0  0  0  0
   57.8180   25.8664   44.0555 H   0  0  0  0  0  0  0  0  0  0  0  0
   58.1343   24.4589   42.9851 H   0  0  0  0  0  0  0  0  0  0  0  0
   56.5176   25.2418   42.9851 H   0  0  0  0  0  0  0  0  0  0  0  0
   59.0440   23.6269   45.0348 H   0  0  0  0  0  0  0  0  0  0  0  0
   57.9605   22.7131   46.1388 H   0  0  0  0  0  0  0  0  0  0  0  0
   58.7259   22.1183   43.2617 H   0  0  0  0  0  0  0  0  0  0  0  0
   58.5943   20.9969   44.6183 H   0  0  0  0  0  0  0  0  0  0  0  0
   55.2689   23.6320   43.3335 H   0  0  0  0  0  0  0  0  0  0  0  0
   54.9645   23.0138   44.9659 H   0  0  0  0  0  0  0  0  0  0  0  0
   57.1005   28.1014   44.1363 H   0  0  0  0  0  0  0  0  0  0  0  0
   58.8700   29.7170   44.4110 H   0  0  0  0  0  0  0  0  0  0  0  0
   61.6429   31.3859   48.3646 H   0  0  0  0  0  0  0  0  0  0  0  0
   61.1572   33.6914   49.1698 H   0  0  0  0  0  0  0  0  0  0  0  0
   59.4104   35.0732   48.0484 H   0  0  0  0  0  0  0  0  0  0  0  0
   57.7393   35.3357   46.2602 H   0  0  0  0  0  0  0  0  0  0  0  0
   56.5646   34.3989   44.2597 H   0  0  0  0  0  0  0  0  0  0  0  0
   57.1227   32.0950   43.4707 H   0  0  0  0  0  0  0  0  0  0  0  0
  1  2  1  0
  2  3  2  0
  3  4  1  0
  4  5  1  0
  5  6  2  0
  5  7  1  0
  8  7  1  1
  8  9  1  0
  8 10  1  0
 10 11  1  0
 11 12  1  0
 12 13  2  0
 12 14  2  0
 12 15  1  0
  4 16  2  0
 16 17  1  0
 17 18  2  0
 18 19  1  0
 19 20  1  0
 20 21  2  0
 21 22  1  0
 22 23  2  0
 23 24  1  0
 24 25  2  0
 25 26  1  0
 26 27  2  0
 27 28  1  0
 28 29  2  0
 18  2  1  0
 29 20  1  0
 15  8  1  0
 29 24  1  0
  1 30  1  0
  1 31  1  0
  1 32  1  0
  3 33  1  0
  9 34  1  0
  9 35  1  0
  9 36  1  0
 10 37  1  0
 10 38  1  0
 11 39  1  0
 11 40  1  0
 15 41  1  0
 15 42  1  0
 16 43  1  0
 17 44  1  0
 21 45  1  0
 22 46  1  0
 23 47  1  0
 25 48  1  0
 26 49  1  0
 27 50  1  0
M  CHG  2   7  -1  17   1
M  END
>  <UniqueID>  (41) 
38

>  <SMILES>  (41) 
Cc1cc(C(=O)[N-][C@@]2(C)CCS(=O)(=O)C2)c[nH+]c1Oc1cccc2cccnc12

>  <Energy>  (41) 
74.37773376840292

>  <Genealogy>  (41) 
Cc1cc(C(=O)[N-]C2(C)CCS(=O)(=O)C2)c[nH+]c1Oc1cccc2cccnc12 (protonated)
Cc1cc(C(=O)[N-][C@@]2(C)CCS(=O)(=O)C2)c[nH+]c1Oc1cccc2cccnc12 (chirality)
Cc1cc(C(=O)[N-][C@@]2(C)CCS(=O)(=O)C2)c[nH+]c1Oc1cccc2cccnc12 (3D coordinates assigned)
Cc1cc(C(=O)[N-][C@@]2(C)CCS(=O)(=O)C2)c[nH+]c1Oc1cccc2cccnc12 (nonaromatic ring conformer: 74.37773376840292 kcal/mol)

>  <smiles>  (41) 
Cc1cc(C(=O)NC2(C)CCS(=O)(=O)C2)cnc1Oc1cccc2cccnc12

>  <score_type>  (41) 
oracle

>  <origin>  (41) 
adg

>  <m_score__min__energy>  (41) 
-9.5500000000000007

>  <m_primary>  (41) 
energy

$$$$
41:0
     RDKit          3D

 37 39  0  0  0  0  0  0  0  0999 V2000
   55.1400   29.6050   44.8660 O   0  0  0  0  0  0  0  0  0  0  0  0
   56.3940   29.6760   44.7770 C   0  0  0  0  0  0  0  0  0  0  0  0
   56.9800   30.9040   44.3240 N   0  0  0  0  0  0  0  0  0  0  0  0
   57.7000   31.8480   45.1310 C   0  0  0  0  0  0  0  0  0  0  0  0
   58.1260   31.5320   46.4350 C   0  0  0  0  0  0  0  0  0  0  0  0
   58.8130   32.4820   47.1990 C   0  0  0  0  0  0  0  0  0  0  0  0
   59.2280   32.1700   48.4510 F   0  0  0  0  0  0  0  0  0  0  0  0
   59.0640   33.7530   46.6750 C   0  0  0  0  0  0  0  0  0  0  0  0
   58.6220   34.0800   45.3890 C   0  0  0  0  0  0  0  0  0  0  0  0
   58.8580   35.3170   44.8860 F   0  0  0  0  0  0  0  0  0  0  0  0
   57.9360   33.1320   44.6240 C   0  0  0  0  0  0  0  0  0  0  0  0
   57.2140   28.4800   45.0870 C   0  0  0  0  0  0  0  0  0  0  0  0
   57.8500   27.7750   44.0510 C   0  0  0  0  0  0  0  0  0  0  0  0
   58.6270   26.6470   44.3350 C   0  0  0  0  0  0  0  0  0  0  0  0
   58.7790   26.2070   45.6570 C   0  0  0  0  0  0  0  0  0  0  0  0
   59.6490   25.0200   45.9660 C   0  0  0  0  0  0  0  0  0  0  0  0
   59.1160   23.8320   45.3080 N   0  0  0  0  0  0  0  0  0  0  0  0
   57.8710   23.6980   44.8100 C   0  0  0  0  0  0  0  0  0  0  0  0
   57.7540   22.4080   44.3450 C   0  0  0  0  0  0  0  0  0  0  0  0
   56.6050   21.8100   43.7390 N   0  0  0  0  0  0  0  0  0  0  0  0
   56.2550   22.1430   42.5880 O   0  0  0  0  0  0  0  0  0  0  0  0
   55.8760   20.8640   44.4210 O   0  0  0  0  0  0  0  0  0  0  0  0
   58.9670   21.7980   44.5980 C   0  0  0  0  0  0  0  0  0  0  0  0
   59.7810   22.6910   45.1950 N   0  0  0  0  0  0  0  0  0  0  0  0
   58.1710   26.9270   46.6970 C   0  0  0  0  0  0  0  0  0  0  0  0
   57.3960   28.0540   46.4140 C   0  0  0  0  0  0  0  0  0  0  0  0
   57.9184   30.5364   46.8542 H   0  0  0  0  0  0  0  0  0  0  0  0
   59.6096   34.4967   47.2744 H   0  0  0  0  0  0  0  0  0  0  0  0
   57.5794   33.3963   43.6175 H   0  0  0  0  0  0  0  0  0  0  0  0
   57.7361   28.1123   43.0102 H   0  0  0  0  0  0  0  0  0  0  0  0
   59.1211   26.1026   43.5168 H   0  0  0  0  0  0  0  0  0  0  0  0
   60.6698   25.2112   45.6036 H   0  0  0  0  0  0  0  0  0  0  0  0
   59.6665   24.8558   47.0535 H   0  0  0  0  0  0  0  0  0  0  0  0
   57.0930   24.4751   44.7806 H   0  0  0  0  0  0  0  0  0  0  0  0
   59.2255   20.7572   44.3532 H   0  0  0  0  0  0  0  0  0  0  0  0
   58.3054   26.6024   47.7394 H   0  0  0  0  0  0  0  0  0  0  0  0
   56.9244   28.6125   47.2360 H   0  0  0  0  0  0  0  0  0  0  0  0
  1  2  2  0
  2  3  1  0
  3  4  1  0
  4  5  2  0
  5  6  1  0
  6  7  1  0
  6  8  2  0
  8  9  1  0
  9 10  1  0
  9 11  2  0
  2 12  1  0
 12 13  2  0
 13 14  1  0
 14 15  2  0
 15 16  1  0
 16 17  1  0
 17 18  1  0
 18 19  2  0
 19 20  1  0
 20 21  2  0
 20 22  1  0
 19 23  1  0
 23 24  2  0
 15 25  1  0
 25 26  2  0
 11  4  1  0
 26 12  1  0
 24 17  1  0
  5 27  1  0
  8 28  1  0
 11 29  1  0
 13 30  1  0
 14 31  1  0
 16 32  1  0
 16 33  1  0
 18 34  1  0
 23 35  1  0
 25 36  1  0
 26 37  1  0
M  CHG  3   3  -1  20   1  22  -1
M  END
>  <UniqueID>  (42) 
39

>  <SMILES>  (42) 
O=C([N-]c1cc(F)cc(F)c1)c1ccc(Cn2cc([N+](=O)[O-])cn2)cc1

>  <Energy>  (42) 
75.63686125808528

>  <Genealogy>  (42) 
O=C([N-]c1cc(F)cc(F)c1)c1ccc(Cn2cc([N+](=O)[O-])cn2)cc1 (protonated)
O=C([N-]c1cc(F)cc(F)c1)c1ccc(Cn2cc([N+](=O)[O-])cn2)cc1 (3D coordinates assigned)
O=C([N-]c1cc(F)cc(F)c1)c1ccc(Cn2cc([N+](=O)[O-])cn2)cc1 (optimized conformer: 75.63686125808528 kcal/mol)

>  <smiles>  (42) 
O=C(Nc1cc(F)cc(F)c1)c1ccc(Cn2cc([N+](=O)[O-])cn2)cc1

>  <score_type>  (42) 
oracle

>  <origin>  (42) 
adg

>  <m_score__min__energy>  (42) 
-9.7799999999999994

>  <m_primary>  (42) 
energy

$$$$
42:0
     RDKit          3D

 46 50  0  0  0  0  0  0  0  0999 V2000
   58.0231   27.0031   47.5463 H   0  0  0  0  0  0  0  0  0  0  0  0
   57.5550   27.0490   46.5520 C   0  0  0  0  0  0  0  0  0  0  0  0
   57.1290   25.7860   45.9220 C   0  0  0  0  0  0  0  0  0  0  0  0
   58.0840   24.9100   45.5120 N   0  0  0  0  0  0  0  0  0  0  0  0
   57.7560   23.7400   44.9070 C   0  0  0  0  0  0  0  0  0  0  0  0
   58.6610   22.9420   44.5480 O   0  0  0  0  0  0  0  0  0  0  0  0
   56.4530   23.4290   44.6870 N   0  0  0  0  0  0  0  0  0  0  0  0
   55.4590   24.2790   45.0550 C   0  0  0  0  0  0  0  0  0  0  0  0
   54.0920   23.9210   44.7890 C   0  0  0  0  0  0  0  0  0  0  0  0
   52.9910   23.6320   44.5740 N   0  0  0  0  0  0  0  0  0  0  0  0
   55.7760   25.4950   45.6720 C   0  0  0  0  0  0  0  0  0  0  0  0
   54.7740   26.4040   46.0030 O   0  0  0  0  0  0  0  0  0  0  0  0
   57.4020   28.2510   45.9770 C   0  0  0  0  0  0  0  0  0  0  0  0
   56.3270   28.7450   45.2390 C   0  0  0  0  0  0  0  0  0  0  0  0
   55.4167   28.1796   44.9905 H   0  0  0  0  0  0  0  0  0  0  0  0
   56.5730   30.0270   44.8740 N   0  0  0  0  0  0  0  0  0  0  0  0
   57.7610   30.3500   45.3600 N   0  0  0  0  0  0  0  0  0  0  0  0
   60.1850   30.5520   46.5420 C   0  0  0  0  0  0  0  0  0  0  0  0
   61.3510   30.6720   47.1020 N   0  0  0  0  0  0  0  0  0  0  0  0
   57.6440   33.8640   45.1910 C   0  0  0  0  0  0  0  0  0  0  0  0
   56.8749   34.1552   44.4605 H   0  0  0  0  0  0  0  0  0  0  0  0
   57.7720   33.8800   46.7030 C   0  0  0  0  0  0  0  0  0  0  0  0
   57.0730   34.4761   47.3080 H   0  0  0  0  0  0  0  0  0  0  0  0
   57.7977   33.1119   47.4899 H   0  0  0  0  0  0  0  0  0  0  0  0
   58.8160   34.5740   45.8430 C   0  0  0  0  0  0  0  0  0  0  0  0
   58.8726   35.6724   45.8256 H   0  0  0  0  0  0  0  0  0  0  0  0
   59.9105   34.5163   45.7495 H   0  0  0  0  0  0  0  0  0  0  0  0
   59.6600   31.6130   45.8600 N   0  0  0  0  0  0  0  0  0  0  0  0
   58.4400   31.5290   45.2590 C   0  0  0  0  0  0  0  0  0  0  0  0
   57.9800   32.5660   44.6170 N   0  0  0  0  0  0  0  0  0  0  0  0
   61.8790   31.9250   47.6320 C   0  0  0  0  0  0  0  0  0  0  0  0
   62.9054   31.7668   47.9946 H   0  0  0  0  0  0  0  0  0  0  0  0
   61.8855   32.6866   46.8383 H   0  0  0  0  0  0  0  0  0  0  0  0
   61.0130   32.3890   48.7660 C   0  0  0  0  0  0  0  0  0  0  0  0
   60.7070   31.5200   49.8260 C   0  0  0  0  0  0  0  0  0  0  0  0
   61.0809   30.4856   49.8114 H   0  0  0  0  0  0  0  0  0  0  0  0
   59.9290   31.9640   50.9000 C   0  0  0  0  0  0  0  0  0  0  0  0
   59.6842   31.2760   51.7226 H   0  0  0  0  0  0  0  0  0  0  0  0
   59.4620   33.2820   50.9290 C   0  0  0  0  0  0  0  0  0  0  0  0
   58.4890   33.8380   52.2790 Cl  0  0  0  0  0  0  0  0  0  0  0  0
   59.7770   34.1580   49.8850 C   0  0  0  0  0  0  0  0  0  0  0  0
   59.4133   35.1958   49.9101 H   0  0  0  0  0  0  0  0  0  0  0  0
   60.5540   33.7160   48.8090 C   0  0  0  0  0  0  0  0  0  0  0  0
   60.8065   34.4099   47.9937 H   0  0  0  0  0  0  0  0  0  0  0  0
   59.4860   29.3820   46.6290 N   0  0  0  0  0  0  0  0  0  0  0  0
   58.2760   29.3130   46.0270 C   0  0  0  0  0  0  0  0  0  0  0  0
  1  2  1  0
  2  3  1  0
  3  4  1  0
  4  5  1  0
  5  6  2  0
  5  7  1  0
  7  8  2  0
  8  9  1  0
  9 10  3  0
  8 11  1  0
 11 12  1  0
  2 13  2  3
 13 14  1  0
 14 15  1  0
 14 16  2  0
 16 17  1  0
 17 18  1  0
 18 19  2  0
 19 20  1  0
 20 21  1  0
 20 22  1  0
 22 23  1  0
 22 24  1  0
 22 25  1  0
 25 26  1  0
 25 27  1  0
 18 28  1  0
 28 29  1  0
 29 30  2  0
 30 31  1  0
 31 32  1  0
 31 33  1  0
 31 34  1  0
 34 35  2  0
 35 36  1  0
 35 37  1  0
 37 38  1  0
 37 39  2  0
 39 40  1  0
 39 41  1  0
 41 42  1  0
 41 43  2  0
 43 44  1  0
 29 45  1  0
 45 46  2  0
 11  3  2  0
 46 13  1  0
 46 17  1  0
 25 20  1  0
 43 34  1  0
M  CHG  3   4  -1  12  -1  28  -1
M  END
>  <UniqueID>  (43) 
40

>  <SMILES>  (43) 
N#Cc1nc(=O)[n-]c(C=c2cnn3/c(=N\C4CC4)[n-]/c(=N/Cc4ccc(Cl)cc4)nc23)c1[O-]

>  <Energy>  (43) 
363.6112900947922

>  <Genealogy>  (43) 
N#Cc1nc(=O)[n-]c(C=c2cnn3c(=NC4CC4)[n-]c(=NCc4ccc(Cl)cc4)nc23)c1[O-] (protonated)
N#Cc1nc(=O)[n-]c(C=c2cnn3/c(=N\C4CC4)[n-]/c(=N/Cc4ccc(Cl)cc4)nc23)c1[O-] (cis-trans isomerization)
N#Cc1nc(=O)[n-]c(C=c2cnn3/c(=N\C4CC4)[n-]/c(=N/Cc4ccc(Cl)cc4)nc23)c1[O-] (3D coordinates assigned)
N#Cc1nc(=O)[n-]c(C=c2cnn3/c(=N\C4CC4)[n-]/c(=N/Cc4ccc(Cl)cc4)nc23)c1[O-] (nonaromatic ring conformer: 363.6112900947922 kcal/mol)

>  <smiles>  (43) 
N#Cc1nc(=O)[nH]c(C=c2cnn3c(=NC4CC4)[nH]c(=NCc4ccc(Cl)cc4)nc23)c1O

>  <score_type>  (43) 
oracle

>  <origin>  (43) 
adg

>  <m_score__min__energy>  (43) 
-14.68

>  <m_primary>  (43) 
energy

$$$$
43:0
     RDKit          3D

 33 35  0  0  0  0  0  0  0  0999 V2000
   59.6350   35.4190   46.3990 C   0  0  0  0  0  0  0  0  0  0  0  0
   58.9770   34.1680   45.8820 C   0  0  0  0  0  0  0  0  0  0  0  0
   58.6280   34.1010   44.5230 C   0  0  0  0  0  0  0  0  0  0  0  0
   58.0490   32.9480   43.9920 C   0  0  0  0  0  0  0  0  0  0  0  0
   57.7860   31.8460   44.8150 C   0  0  0  0  0  0  0  0  0  0  0  0
   57.2240   30.5990   44.2610 C   0  0  0  0  0  0  0  0  0  0  0  0
   57.3110   29.4000   44.8520 C   0  0  0  0  0  0  0  0  0  0  0  0
   56.1990   28.5900   45.0870 O   0  0  0  0  0  0  0  0  0  0  0  0
   56.6520   27.4240   45.7020 C   0  0  0  0  0  0  0  0  0  0  0  0
   58.0200   27.4360   45.8690 C   0  0  0  0  0  0  0  0  0  0  0  0
   58.6990   26.3690   46.4530 C   0  0  0  0  0  0  0  0  0  0  0  0
   57.9450   25.2630   46.8820 C   0  0  0  0  0  0  0  0  0  0  0  0
   56.5430   25.2440   46.7170 C   0  0  0  0  0  0  0  0  0  0  0  0
   55.8140   24.1420   47.1480 O   0  0  0  0  0  0  0  0  0  0  0  0
   55.8820   26.3360   46.1190 C   0  0  0  0  0  0  0  0  0  0  0  0
   54.4990   26.3210   45.9520 O   0  0  0  0  0  0  0  0  0  0  0  0
   58.5080   28.6880   45.3270 C   0  0  0  0  0  0  0  0  0  0  0  0
   59.7120   29.0340   45.2110 O   0  0  0  0  0  0  0  0  0  0  0  0
   58.1460   31.8960   46.1670 C   0  0  0  0  0  0  0  0  0  0  0  0
   58.7150   33.0570   46.7230 C   0  0  0  0  0  0  0  0  0  0  0  0
   59.0230   33.0830   48.1300 N   0  0  0  0  0  0  0  0  0  0  0  0
   60.1490   33.4560   48.5180 O   0  0  0  0  0  0  0  0  0  0  0  0
   58.1540   32.5420   49.0490 O   0  0  0  0  0  0  0  0  0  0  0  0
   59.6295   35.4085   47.4989 H   0  0  0  0  0  0  0  0  0  0  0  0
   60.6731   35.4633   46.0380 H   0  0  0  0  0  0  0  0  0  0  0  0
   59.0833   36.2995   46.0380 H   0  0  0  0  0  0  0  0  0  0  0  0
   58.8132   34.9669   43.8704 H   0  0  0  0  0  0  0  0  0  0  0  0
   57.7979   32.9044   42.9219 H   0  0  0  0  0  0  0  0  0  0  0  0
   56.6977   30.6581   43.2969 H   0  0  0  0  0  0  0  0  0  0  0  0
   59.7920   26.3913   46.5747 H   0  0  0  0  0  0  0  0  0  0  0  0
   58.4512   24.4057   47.3499 H   0  0  0  0  0  0  0  0  0  0  0  0
   53.9210   25.6100   46.3830 H   0  0  0  0  0  0  0  0  0  0  0  0
   57.9817   31.0146   46.8043 H   0  0  0  0  0  0  0  0  0  0  0  0
  1  2  1  0
  2  3  2  0
  3  4  1  0
  4  5  2  0
  5  6  1  0
  6  7  2  3
  7  8  1  0
  8  9  1  0
  9 10  2  0
 10 11  1  0
 11 12  2  0
 12 13  1  0
 13 14  1  0
 13 15  2  0
 15 16  1  0
 10 17  1  0
 17 18  2  0
  5 19  1  0
 19 20  2  0
 20 21  1  0
 21 22  2  0
 21 23  1  0
 20  2  1  0
 17  7  1  0
 15  9  1  0
  1 24  1  0
  1 25  1  0
  1 26  1  0
  3 27  1  0
  4 28  1  0
  6 29  1  0
 11 30  1  0
 12 31  1  0
 16 32  1  0
 19 33  1  0
M  CHG  3  14  -1  21   1  23  -1
M  END
>  <UniqueID>  (44) 
41

>  <SMILES>  (44) 
Cc1ccc(C=C2Oc3c(ccc([O-])c3O)C2=O)cc1[N+](=O)[O-]

>  <Energy>  (44) 
78.52663671488965

>  <Genealogy>  (44) 
Cc1ccc(C=C2Oc3c(ccc([O-])c3O)C2=O)cc1[N+](=O)[O-] (protonated)
Cc1ccc(C=C2Oc3c(ccc([O-])c3O)C2=O)cc1[N+](=O)[O-] (3D coordinates assigned)
Cc1ccc(C=C2Oc3c(ccc([O-])c3O)C2=O)cc1[N+](=O)[O-] (nonaromatic ring conformer: 78.52663671488965 kcal/mol)

>  <smiles>  (44) 
Cc1ccc(C=C2Oc3c(ccc(O)c3O)C2=O)cc1[N+](=O)[O-]

>  <score_type>  (44) 
oracle

>  <origin>  (44) 
adg

>  <m_score__min__energy>  (44) 
-11.539999999999999

>  <m_primary>  (44) 
energy

$$$$
44:0
     RDKit          3D

 32 34  0  0  0  0  0  0  0  0999 V2000
   56.4710   30.6920   53.1530 C   0  0  0  0  0  0  0  0  0  0  0  0
   57.1130   29.7800   54.1630 C   0  0  0  0  0  0  0  0  0  0  0  0
   58.1830   30.2460   54.9460 C   0  0  0  0  0  0  0  0  0  0  0  0
   58.7910   29.4070   55.8820 C   0  0  0  0  0  0  0  0  0  0  0  0
   58.3380   28.0980   56.0460 C   0  0  0  0  0  0  0  0  0  0  0  0
   57.2760   27.6210   55.2740 C   0  0  0  0  0  0  0  0  0  0  0  0
   56.6550   28.4550   54.3220 C   0  0  0  0  0  0  0  0  0  0  0  0
   55.5680   27.9850   53.5100 N   0  0  0  0  0  0  0  0  0  0  0  0
   53.9050   27.9180   53.9950 S   0  0  0  0  0  0  0  0  0  0  0  0
   53.3110   26.6160   53.5350 O   0  0  0  0  0  0  0  0  0  0  0  0
   53.8280   27.9910   55.4940 O   0  0  0  0  0  0  0  0  0  0  0  0
   53.0200   29.2800   53.3140 C   0  0  0  0  0  0  0  0  0  0  0  0
   52.4960   30.2830   54.1640 C   0  0  0  0  0  0  0  0  0  0  0  0
   51.7770   31.3680   53.6310 C   0  0  0  0  0  0  0  0  0  0  0  0
   51.6020   31.4210   52.2490 C   0  0  0  0  0  0  0  0  0  0  0  0
   50.9460   32.3710   51.5570 N   0  0  0  0  0  0  0  0  0  0  0  0
   51.0620   31.9690   50.2700 C   0  0  0  0  0  0  0  0  0  0  0  0
   50.5180   32.6760   49.2050 O   0  0  0  0  0  0  0  0  0  0  0  0
   51.7760   30.7870   50.1370 C   0  0  0  0  0  0  0  0  0  0  0  0
   52.1140   30.4520   51.4250 C   0  0  0  0  0  0  0  0  0  0  0  0
   52.8320   29.3670   51.9200 C   0  0  0  0  0  0  0  0  0  0  0  0
   55.9138   31.4835   53.6756 H   0  0  0  0  0  0  0  0  0  0  0  0
   57.2493   31.1466   52.5225 H   0  0  0  0  0  0  0  0  0  0  0  0
   55.7805   30.1126   52.5225 H   0  0  0  0  0  0  0  0  0  0  0  0
   58.5436   31.2776   54.8208 H   0  0  0  0  0  0  0  0  0  0  0  0
   59.6283   29.7788   56.4908 H   0  0  0  0  0  0  0  0  0  0  0  0
   58.8182   27.4397   56.7850 H   0  0  0  0  0  0  0  0  0  0  0  0
   56.9221   26.5884   55.4097 H   0  0  0  0  0  0  0  0  0  0  0  0
   52.6524   30.2134   55.2506 H   0  0  0  0  0  0  0  0  0  0  0  0
   51.3653   32.1510   54.2848 H   0  0  0  0  0  0  0  0  0  0  0  0
   52.0163   30.2428   49.2117 H   0  0  0  0  0  0  0  0  0  0  0  0
   53.2400   28.6012   51.2440 H   0  0  0  0  0  0  0  0  0  0  0  0
  1  2  1  0
  2  3  2  0
  3  4  1  0
  4  5  2  0
  5  6  1  0
  6  7  2  0
  7  8  1  0
  8  9  1  0
  9 10  2  0
  9 11  2  0
  9 12  1  0
 12 13  2  0
 13 14  1  0
 14 15  2  0
 15 16  1  0
 16 17  1  0
 17 18  1  0
 17 19  2  0
 19 20  1  0
 20 21  2  0
  7  2  1  0
 21 12  1  0
 20 15  1  0
  1 22  1  0
  1 23  1  0
  1 24  1  0
  3 25  1  0
  4 26  1  0
  5 27  1  0
  6 28  1  0
 13 29  1  0
 14 30  1  0
 19 31  1  0
 21 32  1  0
M  CHG  3   8  -1  16  -1  18  -1
M  END
>  <UniqueID>  (45) 
42

>  <SMILES>  (45) 
Cc1ccccc1[N-]S(=O)(=O)c1ccc2[n-]c([O-])cc2c1

>  <Energy>  (45) 
69.65052079975752

>  <Genealogy>  (45) 
Cc1ccccc1[N-]S(=O)(=O)c1ccc2[n-]c([O-])cc2c1 (protonated)
Cc1ccccc1[N-]S(=O)(=O)c1ccc2[n-]c([O-])cc2c1 (3D coordinates assigned)
Cc1ccccc1[N-]S(=O)(=O)c1ccc2[n-]c([O-])cc2c1 (optimized conformer: 69.65052079975752 kcal/mol)

>  <smiles>  (45) 
Cc1ccccc1NS(=O)(=O)c1ccc2[nH]c(O)cc2c1

>  <score_type>  (45) 
oracle

>  <origin>  (45) 
adg

>  <m_score__min__energy>  (45) 
-13.609999999999999

>  <m_primary>  (45) 
energy

$$$$
45:0
     RDKit          3D

 61 64  0  0  0  0  0  0  0  0999 V2000
   56.7160   30.7790   43.5710 C   0  0  0  0  0  0  0  0  0  0  0  0
   56.7690   31.3950   44.8550 O   0  0  0  0  0  0  0  0  0  0  0  0
   57.6490   32.4320   45.2060 C   0  0  0  0  0  0  0  0  0  0  0  0
   57.6900   33.6440   44.4880 C   0  0  0  0  0  0  0  0  0  0  0  0
   58.5740   34.6570   44.8630 C   0  0  0  0  0  0  0  0  0  0  0  0
   59.4190   34.4800   45.9600 C   0  0  0  0  0  0  0  0  0  0  0  0
   59.3930   33.2830   46.6770 C   0  0  0  0  0  0  0  0  0  0  0  0
   58.5220   32.2450   46.3000 C   0  0  0  0  0  0  0  0  0  0  0  0
   58.5250   30.9450   47.0690 C   0  0  0  0  0  0  0  0  0  0  0  0
   58.7550   29.7960   46.1630 N   0  0  0  0  0  0  0  0  0  0  0  0
   57.6920   28.7810   46.3050 C   0  0  0  0  0  0  0  0  0  0  0  0
   57.7870   27.7810   45.1950 C   0  0  0  0  0  0  0  0  0  0  0  0
   58.2640   28.0270   43.9250 C   0  0  0  0  0  0  0  0  0  0  0  0
   58.2160   26.8140   43.2700 C   0  0  0  0  0  0  0  0  0  0  0  0
   57.7220   25.9040   44.1810 C   0  0  0  0  0  0  0  0  0  0  0  0
   57.4850   26.5080   45.3240 O   0  0  0  0  0  0  0  0  0  0  0  0
   60.3270   29.0690   46.4580 S   0  0  0  0  0  0  0  0  0  0  0  0
   61.1110   28.9780   45.1770 O   0  0  0  0  0  0  0  0  0  0  0  0
   60.1560   27.6820   47.0200 O   0  0  0  0  0  0  0  0  0  0  0  0
   61.2320   30.0760   47.5810 C   0  0  0  0  0  0  0  0  0  0  0  0
   61.9320   31.1830   47.0900 C   0  0  0  0  0  0  0  0  0  0  0  0
   62.5020   32.1010   47.9710 C   0  0  0  0  0  0  0  0  0  0  0  0
   62.3950   31.9120   49.3570 C   0  0  0  0  0  0  0  0  0  0  0  0
   62.9540   33.1460   50.4870 S   0  0  0  0  0  0  0  0  0  0  0  0
   64.1290   32.5960   51.2440 O   0  0  0  0  0  0  0  0  0  0  0  0
   63.3910   34.3830   49.7560 O   0  0  0  0  0  0  0  0  0  0  0  0
   61.7210   33.5280   51.6480 N   0  0  0  0  0  0  0  0  0  0  0  0
   60.4420   32.8890   51.7930 C   0  0  0  0  0  0  0  0  0  0  0  0
   60.1610   32.0290   52.8730 C   0  0  0  0  0  0  0  0  0  0  0  0
   58.9020   31.4380   52.9980 C   0  0  0  0  0  0  0  0  0  0  0  0
   57.9080   31.6990   52.0540 C   0  0  0  0  0  0  0  0  0  0  0  0
   58.1710   32.5500   50.9790 C   0  0  0  0  0  0  0  0  0  0  0  0
   59.4320   33.1560   50.8430 C   0  0  0  0  0  0  0  0  0  0  0  0
   59.6950   34.0840   49.6900 C   0  0  0  0  0  0  0  0  0  0  0  0
   61.7600   30.7620   49.8460 C   0  0  0  0  0  0  0  0  0  0  0  0
   61.1740   29.8480   48.9630 C   0  0  0  0  0  0  0  0  0  0  0  0
   56.6223   29.6895   43.6906 H   0  0  0  0  0  0  0  0  0  0  0  0
   55.8476   31.1630   43.0157 H   0  0  0  0  0  0  0  0  0  0  0  0
   57.6373   31.0090   43.0157 H   0  0  0  0  0  0  0  0  0  0  0  0
   57.0215   33.7925   43.6271 H   0  0  0  0  0  0  0  0  0  0  0  0
   58.6049   35.5971   44.2927 H   0  0  0  0  0  0  0  0  0  0  0  0
   60.1062   35.2850   46.2596 H   0  0  0  0  0  0  0  0  0  0  0  0
   60.0583   33.1504   47.5429 H   0  0  0  0  0  0  0  0  0  0  0  0
   59.3249   30.9746   47.8235 H   0  0  0  0  0  0  0  0  0  0  0  0
   57.5451   30.8205   47.5530 H   0  0  0  0  0  0  0  0  0  0  0  0
   57.8068   28.2659   47.2701 H   0  0  0  0  0  0  0  0  0  0  0  0
   56.7111   29.2770   46.2611 H   0  0  0  0  0  0  0  0  0  0  0  0
   58.6103   28.9890   43.5192 H   0  0  0  0  0  0  0  0  0  0  0  0
   58.5122   26.6129   42.2299 H   0  0  0  0  0  0  0  0  0  0  0  0
   57.5522   24.8357   43.9814 H   0  0  0  0  0  0  0  0  0  0  0  0
   62.0332   31.3298   46.0045 H   0  0  0  0  0  0  0  0  0  0  0  0
   63.0380   32.9773   47.5776 H   0  0  0  0  0  0  0  0  0  0  0  0
   60.9386   31.8217   53.6229 H   0  0  0  0  0  0  0  0  0  0  0  0
   58.6933   30.7650   53.8427 H   0  0  0  0  0  0  0  0  0  0  0  0
   56.9165   31.2339   52.1570 H   0  0  0  0  0  0  0  0  0  0  0  0
   57.3865   32.7475   50.2337 H   0  0  0  0  0  0  0  0  0  0  0  0
   59.9760   35.0757   50.0742 H   0  0  0  0  0  0  0  0  0  0  0  0
   60.5148   33.6828   49.0760 H   0  0  0  0  0  0  0  0  0  0  0  0
   58.7866   34.1726   49.0760 H   0  0  0  0  0  0  0  0  0  0  0  0
   61.7221   30.5770   50.9297 H   0  0  0  0  0  0  0  0  0  0  0  0
   60.6687   28.9520   49.3527 H   0  0  0  0  0  0  0  0  0  0  0  0
  1  2  1  0
  2  3  1  0
  3  4  2  0
  4  5  1  0
  5  6  2  0
  6  7  1  0
  7  8  2  0
  8  9  1  0
  9 10  1  0
 10 11  1  0
 11 12  1  0
 12 13  2  0
 13 14  1  0
 14 15  2  0
 15 16  1  0
 10 17  1  0
 17 18  2  0
 17 19  2  0
 17 20  1  0
 20 21  2  0
 21 22  1  0
 22 23  2  0
 23 24  1  0
 24 25  2  0
 24 26  2  0
 24 27  1  0
 27 28  1  0
 28 29  2  0
 29 30  1  0
 30 31  2  0
 31 32  1  0
 32 33  2  0
 33 34  1  0
 23 35  1  0
 35 36  2  0
  8  3  1  0
 16 12  1  0
 36 20  1  0
 33 28  1  0
  1 37  1  0
  1 38  1  0
  1 39  1  0
  4 40  1  0
  5 41  1  0
  6 42  1  0
  7 43  1  0
  9 44  1  0
  9 45  1  0
 11 46  1  0
 11 47  1  0
 13 48  1  0
 14 49  1  0
 15 50  1  0
 21 51  1  0
 22 52  1  0
 29 53  1  0
 30 54  1  0
 31 55  1  0
 32 56  1  0
 34 57  1  0
 34 58  1  0
 34 59  1  0
 35 60  1  0
 36 61  1  0
M  CHG  1  27  -1
M  END
>  <UniqueID>  (46) 
43

>  <SMILES>  (46) 
COc1ccccc1CN(Cc1ccco1)S(=O)(=O)c1ccc(S(=O)(=O)[N-]c2ccccc2C)cc1

>  <Energy>  (46) 
89.98180616178227

>  <Genealogy>  (46) 
COc1ccccc1CN(Cc1ccco1)S(=O)(=O)c1ccc(S(=O)(=O)[N-]c2ccccc2C)cc1 (protonated)
COc1ccccc1CN(Cc1ccco1)S(=O)(=O)c1ccc(S(=O)(=O)[N-]c2ccccc2C)cc1 (3D coordinates assigned)
COc1ccccc1CN(Cc1ccco1)S(=O)(=O)c1ccc(S(=O)(=O)[N-]c2ccccc2C)cc1 (optimized conformer: 89.98180616178227 kcal/mol)

>  <smiles>  (46) 
COc1ccccc1CN(Cc1ccco1)S(=O)(=O)c1ccc(S(=O)(=O)Nc2ccccc2C)cc1

>  <score_type>  (46) 
oracle

>  <origin>  (46) 
adg

>  <m_score__min__energy>  (46) 
-11

>  <m_primary>  (46) 
energy

$$$$
46:0
     RDKit          3D

 57 62  0  0  0  0  0  0  0  0999 V2000
   57.4820   26.6031   44.1103 H   0  0  0  0  0  0  0  0  0  0  0  0
   57.7710   26.5670   45.1710 C   0  0  0  0  0  0  0  0  0  0  0  0
   57.1150   25.5670   46.0290 C   0  0  0  0  0  0  0  0  0  0  0  0
   57.7380   24.4760   46.5060 N   0  0  0  0  0  0  0  0  0  0  0  0
   56.7520   23.8060   47.1420 C   0  0  0  0  0  0  0  0  0  0  0  0
   56.9500   22.7170   47.7410 O   0  0  0  0  0  0  0  0  0  0  0  0
   55.5360   24.3890   47.0750 N   0  0  0  0  0  0  0  0  0  0  0  0
   55.7800   25.4960   46.3570 C   0  0  0  0  0  0  0  0  0  0  0  0
   54.7950   26.3980   45.9740 O   0  0  0  0  0  0  0  0  0  0  0  0
   58.6980   27.4370   45.5980 C   0  0  0  0  0  0  0  0  0  0  0  0
   59.8600   27.1130   46.2830 C   0  0  0  0  0  0  0  0  0  0  0  0
   60.1814   26.0939   46.5442 H   0  0  0  0  0  0  0  0  0  0  0  0
   60.5350   28.2450   46.5790 N   0  0  0  0  0  0  0  0  0  0  0  0
   61.4350   28.2440   47.0920 H   0  0  0  0  0  0  0  0  0  0  0  0
   59.8500   29.2860   46.1190 N   0  0  0  0  0  0  0  0  0  0  0  0
   60.0810   30.6400   46.1980 C   0  0  0  0  0  0  0  0  0  0  0  0
   61.1310   31.1990   46.7370 N   0  0  0  0  0  0  0  0  0  0  0  0
   61.7680   31.0910   48.0480 C   0  0  2  0  0  0  0  0  0  0  0  0
   61.9674   30.0389   48.2998 H   0  0  0  0  0  0  0  0  0  0  0  0
   60.8200   31.6820   49.0740 C   0  0  0  0  0  0  0  0  0  0  0  0
   59.6620   30.9610   49.4160 C   0  0  0  0  0  0  0  0  0  0  0  0
   59.4896   29.9676   48.9762 H   0  0  0  0  0  0  0  0  0  0  0  0
   58.7290   31.4930   50.3080 C   0  0  0  0  0  0  0  0  0  0  0  0
   57.8287   30.9175   50.5694 H   0  0  0  0  0  0  0  0  0  0  0  0
   58.9370   32.7530   50.8680 C   0  0  0  0  0  0  0  0  0  0  0  0
   58.2023   33.1684   51.5734 H   0  0  0  0  0  0  0  0  0  0  0  0
   60.0760   33.4880   50.5350 C   0  0  0  0  0  0  0  0  0  0  0  0
   60.2393   34.4771   50.9879 H   0  0  0  0  0  0  0  0  0  0  0  0
   61.0150   32.9740   49.6260 C   0  0  0  0  0  0  0  0  0  0  0  0
   62.2650   33.7720   49.3470 C   0  0  0  0  0  0  0  0  0  0  0  0
   62.9623   33.6427   50.1879 H   0  0  0  0  0  0  0  0  0  0  0  0
   61.9719   34.8253   49.2265 H   0  0  0  0  0  0  0  0  0  0  0  0
   62.9600   33.3300   48.0600 C   0  0  0  0  0  0  0  0  0  0  0  0
   63.9483   33.8090   47.9985 H   0  0  0  0  0  0  0  0  0  0  0  0
   62.3425   33.6277   47.1997 H   0  0  0  0  0  0  0  0  0  0  0  0
   63.1340   31.8110   48.0450 C   0  0  0  0  0  0  0  0  0  0  0  0
   63.7018   31.5063   48.9365 H   0  0  0  0  0  0  0  0  0  0  0  0
   63.6723   31.5317   47.1272 H   0  0  0  0  0  0  0  0  0  0  0  0
   59.1350   31.4700   45.6820 N   0  0  0  0  0  0  0  0  0  0  0  0
   57.9910   30.9920   45.1120 C   0  0  0  0  0  0  0  0  0  0  0  0
   57.0880   31.8020   44.6470 N   0  0  0  0  0  0  0  0  0  0  0  0
   56.6180   33.0080   45.3300 C   0  0  0  0  0  0  0  0  0  0  0  0
   56.0064   33.6017   44.6347 H   0  0  0  0  0  0  0  0  0  0  0  0
   56.0206   32.7096   46.2041 H   0  0  0  0  0  0  0  0  0  0  0  0
   57.7820   33.8410   45.8000 C   0  0  0  0  0  0  0  0  0  0  0  0
   58.1370   33.8490   47.1590 C   0  0  0  0  0  0  0  0  0  0  0  0
   57.5488   33.2660   47.8830 H   0  0  0  0  0  0  0  0  0  0  0  0
   59.2360   34.5960   47.5940 C   0  0  0  0  0  0  0  0  0  0  0  0
   59.5094   34.6005   48.6595 H   0  0  0  0  0  0  0  0  0  0  0  0
   59.9880   35.3370   46.6780 C   0  0  0  0  0  0  0  0  0  0  0  0
   60.8514   35.9249   47.0230 H   0  0  0  0  0  0  0  0  0  0  0  0
   59.6430   35.3310   45.3240 C   0  0  0  0  0  0  0  0  0  0  0  0
   60.2375   35.9115   44.6032 H   0  0  0  0  0  0  0  0  0  0  0  0
   58.5430   34.5880   44.8840 C   0  0  0  0  0  0  0  0  0  0  0  0
   58.2724   34.5881   43.8178 H   0  0  0  0  0  0  0  0  0  0  0  0
   57.7840   29.6520   45.0390 N   0  0  0  0  0  0  0  0  0  0  0  0
   58.7330   28.8200   45.5280 C   0  0  0  0  0  0  0  0  0  0  0  0
  1  2  1  0
  2  3  1  0
  3  4  1  0
  4  5  1  0
  5  6  2  0
  5  7  1  0
  7  8  1  0
  8  9  1  0
  2 10  2  0
 10 11  1  0
 11 12  1  0
 11 13  2  0
 13 14  1  0
 13 15  1  0
 15 16  1  0
 16 17  2  3
 17 18  1  0
 18 19  1  1
 18 20  1  0
 20 21  2  0
 21 22  1  0
 21 23  1  0
 23 24  1  0
 23 25  2  0
 25 26  1  0
 25 27  1  0
 27 28  1  0
 27 29  2  0
 29 30  1  0
 30 31  1  0
 30 32  1  0
 30 33  1  0
 33 34  1  0
 33 35  1  0
 33 36  1  0
 36 37  1  0
 36 38  1  0
 16 39  1  0
 39 40  1  0
 40 41  2  0
 41 42  1  0
 42 43  1  0
 42 44  1  0
 42 45  1  0
 45 46  2  0
 46 47  1  0
 46 48  1  0
 48 49  1  0
 48 50  2  0
 50 51  1  0
 50 52  1  0
 52 53  1  0
 52 54  2  0
 54 55  1  0
 40 56  1  0
 56 57  2  0
  8  3  2  0
 57 10  1  0
 57 15  1  0
 36 18  1  0
 54 45  1  0
 29 20  1  0
M  CHG  5   4  -1   7  -1   9  -1  13   1  39  -1
M  END
>  <UniqueID>  (47) 
44

>  <SMILES>  (47) 
O=c1[n-]c([O-])c(/C=c2/c[nH+]n3c(=N[C@H]4CCCc5ccccc54)[n-]/c(=N\Cc4ccccc4)nc23)[n-]1

>  <Energy>  (47) 
150.47711403128403

>  <Genealogy>  (47) 
O=c1[n-]c([O-])c(C=c2c[nH+]n3c(=NC4CCCc5ccccc54)[n-]c(=NCc4ccccc4)nc23)[n-]1 (protonated)
O=c1[n-]c([O-])c(C=c2c[nH+]n3c(=N[C@H]4CCCc5ccccc54)[n-]c(=NCc4ccccc4)nc23)[n-]1 (chirality)
O=c1[n-]c([O-])c(/C=c2/c[nH+]n3c(=N[C@H]4CCCc5ccccc54)[n-]/c(=N\Cc4ccccc4)nc23)[n-]1 (cis-trans isomerization)
O=c1[n-]c([O-])c(/C=c2/c[nH+]n3c(=N[C@H]4CCCc5ccccc54)[n-]/c(=N\Cc4ccccc4)nc23)[n-]1 (3D coordinates assigned)
O=c1[n-]c([O-])c(/C=c2/c[nH+]n3c(=N[C@H]4CCCc5ccccc54)[n-]/c(=N\Cc4ccccc4)nc23)[n-]1 (nonaromatic ring conformer: 150.47711403128403 kcal/mol)

>  <smiles>  (47) 
O=c1[nH]c(O)c(C=c2cnn3c(=NC4CCCc5ccccc54)[nH]c(=NCc4ccccc4)nc23)[nH]1

>  <score_type>  (47) 
oracle

>  <origin>  (47) 
adg

>  <m_score__min__energy>  (47) 
-17.460000000000001

>  <m_primary>  (47) 
energy

$$$$
47:0
     RDKit          3D

 53 55  0  0  0  0  0  0  0  0999 V2000
   55.2340   29.9590   43.8990 C   0  0  0  0  0  0  0  0  0  0  0  0
   56.4190   29.5180   44.6320 N   0  0  0  0  0  0  0  0  0  0  0  0
   56.5470   28.4010   45.3710 C   0  0  0  0  0  0  0  0  0  0  0  0
   55.5270   27.4820   45.5940 O   0  0  0  0  0  0  0  0  0  0  0  0
   57.8340   28.3190   45.8620 C   0  0  0  0  0  0  0  0  0  0  0  0
   58.3620   27.2450   46.7750 C   0  0  0  0  0  0  0  0  0  0  0  0
   58.4680   25.9210   46.0730 C   0  0  0  0  0  0  0  0  0  0  0  0
   59.4900   25.2040   46.2470 O   0  0  0  0  0  0  0  0  0  0  0  0
   57.3940   25.4730   45.2290 N   0  0  0  0  0  0  0  0  0  0  0  0
   57.3080   24.1690   44.6270 C   0  0  0  0  0  0  0  0  0  0  0  0
   58.1250   23.1350   45.1160 C   0  0  0  0  0  0  0  0  0  0  0  0
   58.0670   21.8580   44.5520 C   0  0  0  0  0  0  0  0  0  0  0  0
   57.2030   21.6010   43.4850 C   0  0  0  0  0  0  0  0  0  0  0  0
   56.4080   22.6280   42.9700 C   0  0  0  0  0  0  0  0  0  0  0  0
   56.4660   23.9090   43.5280 C   0  0  0  0  0  0  0  0  0  0  0  0
   58.5240   29.3980   45.4180 N   0  0  0  0  0  0  0  0  0  0  0  0
   59.9010   29.7740   45.7600 C   0  0  0  0  0  0  0  0  0  0  0  0
   59.9430   30.4680   47.0870 C   0  0  0  0  0  0  0  0  0  0  0  0
   59.1810   31.4490   47.3070 O   0  0  0  0  0  0  0  0  0  0  0  0
   60.9160   30.0700   48.0580 N   0  0  0  0  0  0  0  0  0  0  0  0
   61.9780   30.8830   48.5760 C   0  0  0  0  0  0  0  0  0  0  0  0
   62.2150   30.8820   49.9550 C   0  0  0  0  0  0  0  0  0  0  0  0
   63.1960   31.7110   50.5070 C   0  0  0  0  0  0  0  0  0  0  0  0
   63.9380   32.5730   49.6860 C   0  0  0  0  0  0  0  0  0  0  0  0
   64.9920   33.4680   50.2790 C   0  0  0  0  0  0  0  0  0  0  0  0
   66.2410   32.6630   50.6450 C   0  0  0  0  0  0  0  0  0  0  0  0
   67.2800   32.9480   49.7490 O   0  0  0  0  0  0  0  0  0  0  0  0
   63.7070   32.5720   48.3020 C   0  0  0  0  0  0  0  0  0  0  0  0
   62.7300   31.7400   47.7500 C   0  0  0  0  0  0  0  0  0  0  0  0
   57.6360   30.1080   44.6740 C   0  0  0  0  0  0  0  0  0  0  0  0
   57.9900   31.5230   43.9150 S   0  0  0  0  0  0  0  0  0  0  0  0
   54.4492   30.2511   44.6123 H   0  0  0  0  0  0  0  0  0  0  0  0
   55.4937   30.8207   43.2665 H   0  0  0  0  0  0  0  0  0  0  0  0
   54.8672   29.1372   43.2665 H   0  0  0  0  0  0  0  0  0  0  0  0
   59.3597   27.5398   47.1324 H   0  0  0  0  0  0  0  0  0  0  0  0
   57.6597   27.1327   47.6141 H   0  0  0  0  0  0  0  0  0  0  0  0
   56.6690   26.1770   44.9580 H   0  0  0  0  0  0  0  0  0  0  0  0
   58.8154   23.3327   45.9492 H   0  0  0  0  0  0  0  0  0  0  0  0
   58.7032   21.0533   44.9491 H   0  0  0  0  0  0  0  0  0  0  0  0
   57.1486   20.5917   43.0509 H   0  0  0  0  0  0  0  0  0  0  0  0
   55.7347   22.4284   42.1234 H   0  0  0  0  0  0  0  0  0  0  0  0
   55.8509   24.7178   43.1066 H   0  0  0  0  0  0  0  0  0  0  0  0
   60.5226   28.8676   45.8060 H   0  0  0  0  0  0  0  0  0  0  0  0
   60.2840   30.4587   44.9890 H   0  0  0  0  0  0  0  0  0  0  0  0
   61.6249   30.2239   50.6098 H   0  0  0  0  0  0  0  0  0  0  0  0
   63.3869   31.6872   51.5900 H   0  0  0  0  0  0  0  0  0  0  0  0
   65.2631   34.2418   49.5457 H   0  0  0  0  0  0  0  0  0  0  0  0
   64.5898   33.9317   51.1918 H   0  0  0  0  0  0  0  0  0  0  0  0
   66.5578   32.9273   51.6647 H   0  0  0  0  0  0  0  0  0  0  0  0
   66.0050   31.5900   50.5914 H   0  0  0  0  0  0  0  0  0  0  0  0
   66.9340   32.7450   48.8400 H   0  0  0  0  0  0  0  0  0  0  0  0
   64.2984   33.2299   47.6482 H   0  0  0  0  0  0  0  0  0  0  0  0
   62.5474   31.7545   46.6654 H   0  0  0  0  0  0  0  0  0  0  0  0
  1  2  1  0
  2  3  1  0
  3  4  1  0
  3  5  2  0
  5  6  1  0
  6  7  1  0
  7  8  2  0
  7  9  1  0
  9 10  1  0
 10 11  2  0
 11 12  1  0
 12 13  2  0
 13 14  1  0
 14 15  2  0
  5 16  1  0
 16 17  1  0
 17 18  1  0
 18 19  2  0
 18 20  1  0
 20 21  1  0
 21 22  2  0
 22 23  1  0
 23 24  2  0
 24 25  1  0
 25 26  1  0
 26 27  1  0
 24 28  1  0
 28 29  2  0
 16 30  1  0
 30 31  2  0
 30  2  1  0
 15 10  1  0
 29 21  1  0
  1 32  1  0
  1 33  1  0
  1 34  1  0
  6 35  1  0
  6 36  1  0
  9 37  1  0
 11 38  1  0
 12 39  1  0
 13 40  1  0
 14 41  1  0
 15 42  1  0
 17 43  1  0
 17 44  1  0
 22 45  1  0
 23 46  1  0
 25 47  1  0
 25 48  1  0
 26 49  1  0
 26 50  1  0
 27 51  1  0
 28 52  1  0
 29 53  1  0
M  CHG  2   4  -1  20  -1
M  END
>  <UniqueID>  (48) 
45

>  <SMILES>  (48) 
Cn1c([O-])c(CC(=O)Nc2ccccc2)n(CC(=O)[N-]c2ccc(CCO)cc2)c1=S

>  <Energy>  (48) 
83.77069748657311

>  <Genealogy>  (48) 
Cn1c([O-])c(CC(=O)Nc2ccccc2)n(CC(=O)[N-]c2ccc(CCO)cc2)c1=S (protonated)
Cn1c([O-])c(CC(=O)Nc2ccccc2)n(CC(=O)[N-]c2ccc(CCO)cc2)c1=S (3D coordinates assigned)
Cn1c([O-])c(CC(=O)Nc2ccccc2)n(CC(=O)[N-]c2ccc(CCO)cc2)c1=S (optimized conformer: 83.77069748657311 kcal/mol)

>  <smiles>  (48) 
Cn1c(O)c(CC(=O)Nc2ccccc2)n(CC(=O)Nc2ccc(CCO)cc2)c1=S

>  <score_type>  (48) 
oracle

>  <origin>  (48) 
adg

>  <m_score__min__energy>  (48) 
-12.32

>  <m_primary>  (48) 
energy

$$$$
48:0
     RDKit          3D

 49 50  0  0  0  0  0  0  0  0999 V2000
   57.0170   28.6210   43.7870 N   0  0  0  0  0  0  0  0  0  0  0  0
   56.4630   29.8880   44.2640 C   0  0  0  0  0  0  0  0  0  0  0  0
   57.5520   30.9450   44.5170 C   0  0  0  0  0  0  0  0  0  0  0  0
   56.9690   32.3160   44.8870 C   0  0  0  0  0  0  0  0  0  0  0  0
   58.0110   33.2840   45.0120 O   0  0  0  0  0  0  0  0  0  0  0  0
   58.8650   33.4220   46.1190 C   0  0  0  0  0  0  0  0  0  0  0  0
   58.7140   34.4450   47.0770 C   0  0  0  0  0  0  0  0  0  0  0  0
   59.5940   34.5310   48.1600 C   0  0  0  0  0  0  0  0  0  0  0  0
   60.6240   33.5990   48.3030 C   0  0  0  0  0  0  0  0  0  0  0  0
   60.7750   32.5730   47.3650 C   0  0  0  0  0  0  0  0  0  0  0  0
   62.0910   31.3680   47.5530 S   0  0  0  0  0  0  0  0  0  0  0  0
   61.0260   29.9880   47.1060 C   0  0  0  0  0  0  0  0  0  0  0  0
   61.0670   29.5140   45.7900 C   0  0  0  0  0  0  0  0  0  0  0  0
   60.2360   28.4680   45.3850 C   0  0  0  0  0  0  0  0  0  0  0  0
   59.3520   27.8680   46.2970 C   0  0  0  0  0  0  0  0  0  0  0  0
   58.4490   26.7680   45.8800 C   0  0  0  0  0  0  0  0  0  0  0  0
   58.2670   26.5540   44.6500 O   0  0  0  0  0  0  0  0  0  0  0  0
   57.7670   25.9550   46.8500 N   0  0  0  0  0  0  0  0  0  0  0  0
   56.9510   24.8030   46.4720 C   0  0  0  0  0  0  0  0  0  0  0  0
   55.5950   25.2420   45.9140 C   0  0  0  0  0  0  0  0  0  0  0  0
   55.5300   26.6980   45.8070 N   0  0  0  0  0  0  0  0  0  0  0  0
   59.3140   28.3420   47.6200 C   0  0  0  0  0  0  0  0  0  0  0  0
   60.1520   29.3890   48.0370 C   0  0  0  0  0  0  0  0  0  0  0  0
   60.1050   29.8190   49.4040 N   0  0  0  0  0  0  0  0  0  0  0  0
   59.9010   32.4910   46.2730 C   0  0  0  0  0  0  0  0  0  0  0  0
   58.0370   28.5820   44.0120 H   0  0  0  0  0  0  0  0  0  0  0  0
   56.5440   27.8280   44.2800 H   0  0  0  0  0  0  0  0  0  0  0  0
   55.7638   30.2749   43.5081 H   0  0  0  0  0  0  0  0  0  0  0  0
   55.9551   29.6936   45.2202 H   0  0  0  0  0  0  0  0  0  0  0  0
   58.1927   30.6003   45.3420 H   0  0  0  0  0  0  0  0  0  0  0  0
   58.1221   31.0661   43.5841 H   0  0  0  0  0  0  0  0  0  0  0  0
   56.2695   32.6363   44.1008 H   0  0  0  0  0  0  0  0  0  0  0  0
   56.4437   32.2317   45.8498 H   0  0  0  0  0  0  0  0  0  0  0  0
   57.9008   35.1783   46.9721 H   0  0  0  0  0  0  0  0  0  0  0  0
   59.4747   35.3349   48.9013 H   0  0  0  0  0  0  0  0  0  0  0  0
   61.3170   33.6720   49.1541 H   0  0  0  0  0  0  0  0  0  0  0  0
   61.7605   29.9699   45.0680 H   0  0  0  0  0  0  0  0  0  0  0  0
   60.2737   28.1114   44.3451 H   0  0  0  0  0  0  0  0  0  0  0  0
   57.8390   26.1830   47.8660 H   0  0  0  0  0  0  0  0  0  0  0  0
   57.4838   24.2228   45.7042 H   0  0  0  0  0  0  0  0  0  0  0  0
   56.7760   24.1916   47.3695 H   0  0  0  0  0  0  0  0  0  0  0  0
   55.4540   24.7996   44.9168 H   0  0  0  0  0  0  0  0  0  0  0  0
   54.8031   24.9008   46.5970 H   0  0  0  0  0  0  0  0  0  0  0  0
   56.1860   26.9900   45.0470 H   0  0  0  0  0  0  0  0  0  0  0  0
   55.9040   27.1090   46.6920 H   0  0  0  0  0  0  0  0  0  0  0  0
   58.6176   27.8861   48.3392 H   0  0  0  0  0  0  0  0  0  0  0  0
   60.7430   30.5540   49.7760 H   0  0  0  0  0  0  0  0  0  0  0  0
   59.4520   29.3620   50.0800 H   0  0  0  0  0  0  0  0  0  0  0  0
   60.0291   31.6894   45.5306 H   0  0  0  0  0  0  0  0  0  0  0  0
  1  2  1  0
  2  3  1  0
  3  4  1  0
  4  5  1  0
  5  6  1  0
  6  7  2  0
  7  8  1  0
  8  9  2  0
  9 10  1  0
 10 11  1  0
 11 12  1  0
 12 13  2  0
 13 14  1  0
 14 15  2  0
 15 16  1  0
 16 17  2  0
 16 18  1  0
 18 19  1  0
 19 20  1  0
 20 21  1  0
 15 22  1  0
 22 23  2  0
 23 24  1  0
 10 25  2  0
 25  6  1  0
 23 12  1  0
  1 26  1  0
  1 27  1  0
  2 28  1  0
  2 29  1  0
  3 30  1  0
  3 31  1  0
  4 32  1  0
  4 33  1  0
  7 34  1  0
  8 35  1  0
  9 36  1  0
 13 37  1  0
 14 38  1  0
 18 39  1  0
 19 40  1  0
 19 41  1  0
 20 42  1  0
 20 43  1  0
 21 44  1  0
 21 45  1  0
 22 46  1  0
 24 47  1  0
 24 48  1  0
 25 49  1  0
M  END
>  <UniqueID>  (49) 
46

>  <SMILES>  (49) 
NCCCOc1cccc(Sc2ccc(C(=O)NCCN)cc2N)c1

>  <Energy>  (49) 
38.41233479605338

>  <Genealogy>  (49) 
NCCCOc1cccc(Sc2ccc(C(=O)NCCN)cc2N)c1 (3D coordinates assigned)
NCCCOc1cccc(Sc2ccc(C(=O)NCCN)cc2N)c1 (optimized conformer: 38.41233479605338 kcal/mol)

>  <smiles>  (49) 
NCCCOc1cccc(Sc2ccc(C(=O)NCCN)cc2N)c1

>  <score_type>  (49) 
oracle

>  <origin>  (49) 
adg

>  <m_score__min__energy>  (49) 
-8.3499999999999996

>  <m_primary>  (49) 
energy

$$$$
49:0
     RDKit          3D

 48 50  0  0  0  0  0  0  0  0999 V2000
   56.2650   20.3080   43.8510 C   0  0  0  0  0  0  0  0  0  0  0  0
   55.9020   21.6200   43.4350 O   0  0  0  0  0  0  0  0  0  0  0  0
   56.3290   22.8000   44.0650 C   0  0  0  0  0  0  0  0  0  0  0  0
   57.6900   23.1450   44.1630 C   0  0  0  0  0  0  0  0  0  0  0  0
   58.0750   24.3240   44.8030 C   0  0  0  0  0  0  0  0  0  0  0  0
   57.1110   25.1820   45.3470 C   0  0  0  0  0  0  0  0  0  0  0  0
   57.5320   26.4360   46.0720 C   0  0  0  0  0  0  0  0  0  0  0  0
   56.6910   27.6350   45.6310 C   0  0  0  0  0  0  0  0  0  0  0  0
   57.2600   28.2210   44.4090 N   0  0  0  0  0  0  0  0  0  0  0  0
   56.8990   29.9180   44.3080 S   0  0  0  0  0  0  0  0  0  0  0  0
   56.9980   30.3660   42.8760 O   0  0  0  0  0  0  0  0  0  0  0  0
   55.5000   30.1790   44.7970 O   0  0  0  0  0  0  0  0  0  0  0  0
   58.0650   30.8130   45.2780 C   0  0  0  0  0  0  0  0  0  0  0  0
   58.0620   32.2120   45.2520 C   0  0  0  0  0  0  0  0  0  0  0  0
   59.0210   32.9330   45.9690 C   0  0  0  0  0  0  0  0  0  0  0  0
   60.0120   32.2640   46.7140 C   0  0  0  0  0  0  0  0  0  0  0  0
   61.0480   32.9860   47.4130 N   0  0  0  0  0  0  0  0  0  0  0  0
   62.3600   33.0490   47.0990 C   0  0  0  0  0  0  0  0  0  0  0  0
   63.0020   33.8170   48.0460 C   0  0  0  0  0  0  0  0  0  0  0  0
   62.0090   34.1970   48.9230 C   0  0  0  0  0  0  0  0  0  0  0  0
   60.8330   33.6810   48.5210 N   0  0  0  0  0  0  0  0  0  0  0  0
   59.9940   30.8570   46.7460 C   0  0  0  0  0  0  0  0  0  0  0  0
   59.0320   30.1380   46.0320 C   0  0  0  0  0  0  0  0  0  0  0  0
   55.7540   24.8350   45.2630 C   0  0  0  0  0  0  0  0  0  0  0  0
   55.3570   23.6460   44.6200 C   0  0  0  0  0  0  0  0  0  0  0  0
   54.0100   23.2640   44.5230 O   0  0  0  0  0  0  0  0  0  0  0  0
   52.9110   24.0680   44.9380 C   0  0  0  0  0  0  0  0  0  0  0  0
   56.2777   20.2622   44.9500 H   0  0  0  0  0  0  0  0  0  0  0  0
   55.5333   19.5845   43.4623 H   0  0  0  0  0  0  0  0  0  0  0  0
   57.2645   20.0635   43.4623 H   0  0  0  0  0  0  0  0  0  0  0  0
   58.4547   22.4816   43.7327 H   0  0  0  0  0  0  0  0  0  0  0  0
   59.1418   24.5808   44.8806 H   0  0  0  0  0  0  0  0  0  0  0  0
   57.4038   26.2857   47.1541 H   0  0  0  0  0  0  0  0  0  0  0  0
   58.5859   26.6412   45.8326 H   0  0  0  0  0  0  0  0  0  0  0  0
   55.6608   27.3048   45.4320 H   0  0  0  0  0  0  0  0  0  0  0  0
   56.6906   28.3913   46.4298 H   0  0  0  0  0  0  0  0  0  0  0  0
   56.8240   27.7570   43.5790 H   0  0  0  0  0  0  0  0  0  0  0  0
   57.3013   32.7469   44.6645 H   0  0  0  0  0  0  0  0  0  0  0  0
   59.0018   34.0327   45.9514 H   0  0  0  0  0  0  0  0  0  0  0  0
   62.8365   32.5677   46.2322 H   0  0  0  0  0  0  0  0  0  0  0  0
   64.0713   34.0708   48.0919 H   0  0  0  0  0  0  0  0  0  0  0  0
   62.1552   34.8252   49.8141 H   0  0  0  0  0  0  0  0  0  0  0  0
   60.7461   30.3171   47.3401 H   0  0  0  0  0  0  0  0  0  0  0  0
   59.0346   29.0384   46.0625 H   0  0  0  0  0  0  0  0  0  0  0  0
   54.9936   25.4970   45.7030 H   0  0  0  0  0  0  0  0  0  0  0  0
   52.8719   24.0966   46.0369 H   0  0  0  0  0  0  0  0  0  0  0  0
   53.0362   25.0892   44.5489 H   0  0  0  0  0  0  0  0  0  0  0  0
   51.9756   23.6395   44.5489 H   0  0  0  0  0  0  0  0  0  0  0  0
  1  2  1  0
  2  3  1  0
  3  4  2  0
  4  5  1  0
  5  6  2  0
  6  7  1  0
  7  8  1  0
  8  9  1  0
  9 10  1  0
 10 11  2  0
 10 12  2  0
 10 13  1  0
 13 14  2  0
 14 15  1  0
 15 16  2  0
 16 17  1  0
 17 18  1  0
 18 19  2  0
 19 20  1  0
 20 21  2  0
 16 22  1  0
 22 23  2  0
  6 24  1  0
 24 25  2  0
 25 26  1  0
 26 27  1  0
 25  3  1  0
 23 13  1  0
 21 17  1  0
  1 28  1  0
  1 29  1  0
  1 30  1  0
  4 31  1  0
  5 32  1  0
  7 33  1  0
  7 34  1  0
  8 35  1  0
  8 36  1  0
  9 37  1  0
 14 38  1  0
 15 39  1  0
 18 40  1  0
 19 41  1  0
 20 42  1  0
 22 43  1  0
 23 44  1  0
 24 45  1  0
 27 46  1  0
 27 47  1  0
 27 48  1  0
M  END
>  <UniqueID>  (50) 
47

>  <SMILES>  (50) 
COc1ccc(CCNS(=O)(=O)c2ccc(-n3cccn3)cc2)cc1OC

>  <Energy>  (50) 
69.41279206441733

>  <Genealogy>  (50) 
COc1ccc(CCNS(=O)(=O)c2ccc(-n3cccn3)cc2)cc1OC (3D coordinates assigned)
COc1ccc(CCNS(=O)(=O)c2ccc(-n3cccn3)cc2)cc1OC (optimized conformer: 69.41279206441733 kcal/mol)

>  <smiles>  (50) 
COc1ccc(CCNS(=O)(=O)c2ccc(-n3cccn3)cc2)cc1OC

>  <score_type>  (50) 
oracle

>  <origin>  (50) 
adg

>  <m_score__min__energy>  (50) 
-8.5500000000000007

>  <m_primary>  (50) 
energy

$$$$
50:0
     RDKit          3D

 53 55  0  0  0  0  0  0  0  0999 V2000
   57.3940   33.1700   47.1830 C   0  0  0  0  0  0  0  0  0  0  0  0
   57.1260   33.9900   45.9270 C   0  0  0  0  0  0  0  0  0  0  0  0
   58.1490   33.7190   44.9070 N   0  0  0  0  0  0  0  0  0  0  0  0
   59.2960   34.6250   44.7690 C   0  0  0  0  0  0  0  0  0  0  0  0
   60.0100   34.7820   46.1060 C   0  0  0  0  0  0  0  0  0  0  0  0
   57.9330   32.6940   43.9210 C   0  0  0  0  0  0  0  0  0  0  0  0
   58.0180   32.9890   42.6970 O   0  0  0  0  0  0  0  0  0  0  0  0
   57.6480   31.2940   44.3170 C   0  0  0  0  0  0  0  0  0  0  0  0
   56.3490   30.7770   44.2220 C   0  0  0  0  0  0  0  0  0  0  0  0
   56.0810   29.4570   44.5880 C   0  0  0  0  0  0  0  0  0  0  0  0
   54.7790   28.9770   44.4900 O   0  0  0  0  0  0  0  0  0  0  0  0
   57.1120   28.6240   45.0610 C   0  0  0  0  0  0  0  0  0  0  0  0
   56.8230   27.3140   45.4390 O   0  0  0  0  0  0  0  0  0  0  0  0
   58.4310   29.1280   45.1470 C   0  0  0  0  0  0  0  0  0  0  0  0
   59.5440   28.3490   45.6340 N   0  0  0  0  0  0  0  0  0  0  0  0
   59.9410   28.2460   47.0020 C   0  0  0  0  0  0  0  0  0  0  0  0
   60.3910   29.1560   47.9370 C   0  0  0  0  0  0  0  0  0  0  0  0
   60.5560   30.5750   47.9550 N   0  0  0  0  0  0  0  0  0  0  0  0
   59.9400   31.3850   48.9660 C   0  0  0  0  0  0  0  0  0  0  0  0
   60.2540   32.7470   49.0600 C   0  0  0  0  0  0  0  0  0  0  0  0
   59.6580   33.5390   50.0480 C   0  0  0  0  0  0  0  0  0  0  0  0
   58.7720   32.9680   50.9660 C   0  0  0  0  0  0  0  0  0  0  0  0
   58.4740   31.6000   50.9010 C   0  0  0  0  0  0  0  0  0  0  0  0
   57.4420   30.8690   52.1280 S   0  0  0  0  0  0  0  0  0  0  0  0
   55.8530   31.5370   52.0080 N   0  0  0  0  0  0  0  0  0  0  0  0
   57.9850   31.1490   53.5000 O   0  0  0  0  0  0  0  0  0  0  0  0
   57.3790   29.3810   51.9240 O   0  0  0  0  0  0  0  0  0  0  0  0
   59.0540   30.8130   49.8960 C   0  0  0  0  0  0  0  0  0  0  0  0
   60.6430   28.1260   48.8200 C   0  0  0  0  0  0  0  0  0  0  0  0
   61.1030   28.0490   49.9890 O   0  0  0  0  0  0  0  0  0  0  0  0
   60.1830   27.2140   47.8900 C   0  0  0  0  0  0  0  0  0  0  0  0
   60.0610   25.9620   47.8560 O   0  0  0  0  0  0  0  0  0  0  0  0
   58.6810   30.4540   44.7590 C   0  0  0  0  0  0  0  0  0  0  0  0
   57.1929   33.7852   48.0724 H   0  0  0  0  0  0  0  0  0  0  0  0
   56.7376   32.2874   47.1917 H   0  0  0  0  0  0  0  0  0  0  0  0
   58.4450   32.8454   47.1917 H   0  0  0  0  0  0  0  0  0  0  0  0
   56.1363   33.7254   45.5263 H   0  0  0  0  0  0  0  0  0  0  0  0
   57.1568   35.0585   46.1865 H   0  0  0  0  0  0  0  0  0  0  0  0
   59.9976   34.2121   44.0293 H   0  0  0  0  0  0  0  0  0  0  0  0
   58.9359   35.6102   44.4379 H   0  0  0  0  0  0  0  0  0  0  0  0
   59.2931   34.6244   46.9253 H   0  0  0  0  0  0  0  0  0  0  0  0
   60.8190   34.0403   46.1789 H   0  0  0  0  0  0  0  0  0  0  0  0
   60.4333   35.7947   46.1789 H   0  0  0  0  0  0  0  0  0  0  0  0
   55.5331   31.4173   43.8556 H   0  0  0  0  0  0  0  0  0  0  0  0
   56.2530   26.6960   44.8740 H   0  0  0  0  0  0  0  0  0  0  0  0
   60.2850   28.0850   44.9460 H   0  0  0  0  0  0  0  0  0  0  0  0
   61.0820   31.0310   47.1760 H   0  0  0  0  0  0  0  0  0  0  0  0
   60.9705   33.1949   48.3558 H   0  0  0  0  0  0  0  0  0  0  0  0
   59.8874   34.6135   50.1023 H   0  0  0  0  0  0  0  0  0  0  0  0
   58.3072   33.5942   51.7418 H   0  0  0  0  0  0  0  0  0  0  0  0
   55.6180   31.5870   50.9910 H   0  0  0  0  0  0  0  0  0  0  0  0
   58.8144   29.7412   49.8347 H   0  0  0  0  0  0  0  0  0  0  0  0
   59.7091   30.8426   44.8025 H   0  0  0  0  0  0  0  0  0  0  0  0
  1  2  1  0
  2  3  1  0
  3  4  1  0
  4  5  1  0
  3  6  1  0
  6  7  2  0
  6  8  1  0
  8  9  2  0
  9 10  1  0
 10 11  1  0
 10 12  2  0
 12 13  1  0
 12 14  1  0
 14 15  1  0
 15 16  1  0
 16 17  2  0
 17 18  1  0
 18 19  1  0
 19 20  2  0
 20 21  1  0
 21 22  2  0
 22 23  1  0
 23 24  1  0
 24 25  1  0
 24 26  2  0
 24 27  2  0
 23 28  2  0
 17 29  1  0
 29 30  2  0
 29 31  1  0
 31 32  2  0
 14 33  2  0
 33  8  1  0
 31 16  1  0
 28 19  1  0
  1 34  1  0
  1 35  1  0
  1 36  1  0
  2 37  1  0
  2 38  1  0
  4 39  1  0
  4 40  1  0
  5 41  1  0
  5 42  1  0
  5 43  1  0
  9 44  1  0
 13 45  1  0
 15 46  1  0
 18 47  1  0
 20 48  1  0
 21 49  1  0
 22 50  1  0
 25 51  1  0
 28 52  1  0
 33 53  1  0
M  CHG  2  11  -1  25  -1
M  END
>  <UniqueID>  (51) 
48

>  <SMILES>  (51) 
CCN(CC)C(=O)c1cc([O-])c(O)c(Nc2c(Nc3cccc(S([NH-])(=O)=O)c3)c(=O)c2=O)c1

>  <Energy>  (51) 
53.02983014373782

>  <Genealogy>  (51) 
CCN(CC)C(=O)c1cc([O-])c(O)c(Nc2c(Nc3cccc(S([NH-])(=O)=O)c3)c(=O)c2=O)c1 (protonated)
CCN(CC)C(=O)c1cc([O-])c(O)c(Nc2c(Nc3cccc(S([NH-])(=O)=O)c3)c(=O)c2=O)c1 (3D coordinates assigned)
CCN(CC)C(=O)c1cc([O-])c(O)c(Nc2c(Nc3cccc(S([NH-])(=O)=O)c3)c(=O)c2=O)c1 (optimized conformer: 53.02983014373782 kcal/mol)

>  <smiles>  (51) 
CCN(CC)C(=O)c1cc(O)c(O)c(Nc2c(Nc3cccc(S(N)(=O)=O)c3)c(=O)c2=O)c1

>  <score_type>  (51) 
oracle

>  <origin>  (51) 
adg

>  <m_score__min__energy>  (51) 
-14.109999999999999

>  <m_primary>  (51) 
energy

$$$$
51:0
     RDKit          3D

 54 57  0  0  1  0  0  0  0  0999 V2000
   58.0930   23.1590   45.9960 C   0  0  0  0  0  0  0  0  0  0  0  0
   57.7500   24.1610   46.9100 O   0  0  0  0  0  0  0  0  0  0  0  0
   57.7880   25.5060   46.5860 C   0  0  0  0  0  0  0  0  0  0  0  0
   58.9930   26.1540   46.7440 C   0  0  0  0  0  0  0  0  0  0  0  0
   59.0120   27.4850   46.4200 C   0  0  0  0  0  0  0  0  0  0  0  0
   60.1760   28.1370   46.5670 N   0  0  0  0  0  0  0  0  0  0  0  0
   60.2660   29.4450   46.2690 C   0  0  0  0  0  0  0  0  0  0  0  0
   61.3590   30.1190   46.3910 N   0  0  0  0  0  0  0  0  0  0  0  0
   61.7530   30.5320   47.7170 C   0  0  0  0  0  0  0  0  0  0  0  0
   61.0130   31.7940   48.0100 C   0  0  0  0  0  0  0  0  0  0  0  0
   59.7300   31.8100   48.5160 C   0  0  0  0  0  0  0  0  0  0  0  0
   59.0370   32.9730   48.7900 C   0  0  0  0  0  0  0  0  0  0  0  0
   59.6640   34.1770   48.5460 C   0  0  0  0  0  0  0  0  0  0  0  0
   60.9550   34.2070   48.0380 C   0  0  0  0  0  0  0  0  0  0  0  0
   61.6390   33.0180   47.7670 C   0  0  0  0  0  0  0  0  0  0  0  0
   63.2850   33.0630   47.1190 Cl  0  0  0  0  0  0  0  0  0  0  0  0
   59.1510   30.0450   45.8270 N   0  0  0  0  0  0  0  0  0  0  0  0
   57.9670   29.4260   45.6670 C   0  0  0  0  0  0  0  0  0  0  0  0
   57.0010   30.0740   45.2530 N   0  0  0  0  0  0  0  0  0  0  0  0
   56.8650   30.8220   44.0620 C   0  0  0  0  0  0  0  0  0  0  0  0
   57.4830   32.1460   44.5180 C   0  0  0  0  0  0  0  0  0  0  0  0
   57.0120   32.7890   45.6430 C   0  0  0  0  0  0  0  0  0  0  0  0
   57.5570   33.9870   46.0460 C   0  0  0  0  0  0  0  0  0  0  0  0
   58.5780   34.4970   45.2780 C   0  0  0  0  0  0  0  0  0  0  0  0
   59.0800   33.8950   44.1520 C   0  0  0  0  0  0  0  0  0  0  0  0
   58.5230   32.7020   43.7670 C   0  0  0  0  0  0  0  0  0  0  0  0
   57.8480   28.0910   45.9640 C   0  0  0  0  0  0  0  0  0  0  0  0
   56.6590   27.4540   45.8090 C   0  0  0  0  0  0  0  0  0  0  0  0
   56.6410   26.0750   46.1440 C   0  0  0  0  0  0  0  0  0  0  0  0
   55.4840   25.3220   46.0250 O   0  0  0  0  0  0  0  0  0  0  0  0
   55.2620   24.3810   45.0010 C   0  0  0  0  0  0  0  0  0  0  0  0
   58.4023   22.2553   46.5416 H   0  0  0  0  0  0  0  0  0  0  0  0
   57.2234   22.9260   45.3639 H   0  0  0  0  0  0  0  0  0  0  0  0
   58.9229   23.5078   45.3639 H   0  0  0  0  0  0  0  0  0  0  0  0
   59.8897   25.6322   47.1097 H   0  0  0  0  0  0  0  0  0  0  0  0
   61.0300   27.6480   46.9120 H   0  0  0  0  0  0  0  0  0  0  0  0
   61.4862   29.7569   48.4505 H   0  0  0  0  0  0  0  0  0  0  0  0
   62.8403   30.6877   47.7764 H   0  0  0  0  0  0  0  0  0  0  0  0
   59.2336   30.8480   48.7112 H   0  0  0  0  0  0  0  0  0  0  0  0
   58.0135   32.9399   49.1917 H   0  0  0  0  0  0  0  0  0  0  0  0
   59.1372   35.1197   48.7555 H   0  0  0  0  0  0  0  0  0  0  0  0
   61.4440   35.1736   47.8470 H   0  0  0  0  0  0  0  0  0  0  0  0
   59.2280   31.0590   45.5980 H   0  0  0  0  0  0  0  0  0  0  0  0
   57.4268   30.3728   43.2298 H   0  0  0  0  0  0  0  0  0  0  0  0
   55.8391   30.8958   43.6720 H   0  0  0  0  0  0  0  0  0  0  0  0
   56.1928   32.3403   46.2241 H   0  0  0  0  0  0  0  0  0  0  0  0
   57.1928   34.5125   46.9411 H   0  0  0  0  0  0  0  0  0  0  0  0
   59.0229   35.4540   45.5882 H   0  0  0  0  0  0  0  0  0  0  0  0
   59.8997   34.3525   43.5786 H   0  0  0  0  0  0  0  0  0  0  0  0
   58.8935   32.1843   42.8700 H   0  0  0  0  0  0  0  0  0  0  0  0
   55.7620   27.9763   45.4450 H   0  0  0  0  0  0  0  0  0  0  0  0
   55.0311   23.4021   45.4464 H   0  0  0  0  0  0  0  0  0  0  0  0
   54.4166   24.7092   44.3784 H   0  0  0  0  0  0  0  0  0  0  0  0
   56.1649   24.2967   44.3784 H   0  0  0  0  0  0  0  0  0  0  0  0
  1  2  1  0
  2  3  1  0
  3  4  2  0
  4  5  1  0
  5  6  1  0
  6  7  1  0
  7  8  2  0
  8  9  1  0
  9 10  1  0
 10 11  2  0
 11 12  1  0
 12 13  2  0
 13 14  1  0
 14 15  2  0
 15 16  1  0
  7 17  1  0
 17 18  1  0
 18 19  2  0
 19 20  1  0
 20 21  1  0
 21 22  2  0
 22 23  1  0
 23 24  2  0
 24 25  1  0
 25 26  2  0
 18 27  1  0
 27 28  1  0
 28 29  2  0
 29 30  1  0
 30 31  1  0
 29  3  1  0
 27  5  2  0
 15 10  1  0
 26 21  1  0
  1 32  1  0
  1 33  1  0
  1 34  1  0
  4 35  1  0
  6 36  1  0
  9 37  1  0
  9 38  1  0
 11 39  1  0
 12 40  1  0
 13 41  1  0
 14 42  1  0
 17 43  1  0
 20 44  1  0
 20 45  1  0
 22 46  1  0
 23 47  1  0
 24 48  1  0
 25 49  1  0
 26 50  1  0
 28 51  1  0
 31 52  1  0
 31 53  1  0
 31 54  1  0
M  END
>  <smiles>  (52) 
COc1cc2[nH]c(=NCc3ccccc3Cl)[nH]c(=NCc3ccccc3)c2cc1OC

>  <score_type>  (52) 
oracle

>  <origin>  (52) 
adg

>  <m_score__min__energy>  (52) 
-8.4700000000000006

>  <m_primary>  (52) 
energy

$$$$
52:0
     RDKit          3D

 32 35  0  0  0  0  0  0  0  0999 V2000
   58.8548   25.0462   47.5296 H   0  0  0  0  0  0  0  0  0  0  0  0
   58.2340   25.7860   47.0030 C   0  0  0  0  0  0  0  0  0  0  0  0
   56.9080   25.4840   46.6800 C   0  0  0  0  0  0  0  0  0  0  0  0
   56.4821   24.5100   46.9628 H   0  0  0  0  0  0  0  0  0  0  0  0
   56.1220   26.4180   45.9980 C   0  0  0  0  0  0  0  0  0  0  0  0
   55.0748   26.1818   45.7581 H   0  0  0  0  0  0  0  0  0  0  0  0
   56.6660   27.6600   45.6170 C   0  0  0  0  0  0  0  0  0  0  0  0
   55.8830   28.6630   44.9480 N   0  0  0  0  0  0  0  0  0  0  0  0
   56.3320   29.7000   44.3030 C   0  0  0  0  0  0  0  0  0  0  0  0
   56.9010   30.7440   44.9830 N   0  0  0  0  0  0  0  0  0  0  0  0
   57.3290   31.7140   44.1510 C   0  0  0  0  0  0  0  0  0  0  0  0
   57.9850   32.9050   44.6160 N   0  0  0  0  0  0  0  0  0  0  0  0
   58.4780   33.1650   45.7930 C   0  0  0  0  0  0  0  0  0  0  0  0
   59.4900   34.4660   46.2090 S   0  0  0  0  0  0  0  0  0  0  0  0
   59.5700   33.9910   47.8190 C   0  0  0  0  0  0  0  0  0  0  0  0
   60.2580   34.5910   48.8710 C   0  0  0  0  0  0  0  0  0  0  0  0
   60.8539   35.5018   48.7119 H   0  0  0  0  0  0  0  0  0  0  0  0
   60.1680   33.9980   50.1410 C   0  0  0  0  0  0  0  0  0  0  0  0
   60.6996   34.4469   50.9930 H   0  0  0  0  0  0  0  0  0  0  0  0
   59.4010   32.8320   50.3300 C   0  0  0  0  0  0  0  0  0  0  0  0
   59.3366   32.3771   51.3295 H   0  0  0  0  0  0  0  0  0  0  0  0
   58.7170   32.2450   49.2510 C   0  0  0  0  0  0  0  0  0  0  0  0
   58.1184   31.3334   49.3951 H   0  0  0  0  0  0  0  0  0  0  0  0
   58.8130   32.8430   47.9920 C   0  0  0  0  0  0  0  0  0  0  0  0
   58.2050   32.3840   46.8670 N   0  0  0  0  0  0  0  0  0  0  0  0
   57.6000   31.5330   46.8330 H   0  0  0  0  0  0  0  0  0  0  0  0
   57.0110   31.2410   42.5860 S   0  0  0  0  0  0  0  0  0  0  0  0
   56.3030   29.7820   42.9410 N   0  0  0  0  0  0  0  0  0  0  0  0
   57.9860   27.9650   45.9740 C   0  0  0  0  0  0  0  0  0  0  0  0
   58.4086   28.9473   45.7161 H   0  0  0  0  0  0  0  0  0  0  0  0
   58.7700   27.0290   46.6560 C   0  0  0  0  0  0  0  0  0  0  0  0
   59.8100   27.2716   46.9196 H   0  0  0  0  0  0  0  0  0  0  0  0
  1  2  1  0
  2  3  2  0
  3  4  1  0
  3  5  1  0
  5  6  1  0
  5  7  2  0
  7  8  1  0
  8  9  2  0
  9 10  1  0
 10 11  2  0
 11 12  1  0
 12 13  2  0
 13 14  1  0
 14 15  1  0
 15 16  2  0
 16 17  1  0
 16 18  1  0
 18 19  1  0
 18 20  2  0
 20 21  1  0
 20 22  1  0
 22 23  1  0
 22 24  2  0
 24 25  1  0
 25 26  1  0
 11 27  1  0
 27 28  1  0
  7 29  1  0
 29 30  1  0
 29 31  2  0
 31 32  1  0
 31  2  1  0
 28  9  1  0
 25 13  1  0
 24 15  1  0
M  CHG  1  28  -1
M  END
>  <UniqueID>  (53) 
49

>  <SMILES>  (53) 
c1ccc(/N=c2/nc(/N=c3/[nH]c4ccccc4s3)s[n-]2)cc1

>  <Energy>  (53) 
120.48086142325405

>  <Genealogy>  (53) 
c1ccc(N=c2nc(N=c3[nH]c4ccccc4s3)s[n-]2)cc1 (protonated)
c1ccc(/N=c2/nc(/N=c3/[nH]c4ccccc4s3)s[n-]2)cc1 (cis-trans isomerization)
c1ccc(/N=c2/nc(/N=c3/[nH]c4ccccc4s3)s[n-]2)cc1 (3D coordinates assigned)
c1ccc(/N=c2/nc(/N=c3/[nH]c4ccccc4s3)s[n-]2)cc1 (optimized conformer: 120.48086142325405 kcal/mol)

>  <smiles>  (53) 
c1ccc(N=c2nc(N=c3[nH]c4ccccc4s3)s[nH]2)cc1

>  <score_type>  (53) 
oracle

>  <origin>  (53) 
adg

>  <m_score__min__energy>  (53) 
-9.75

>  <m_primary>  (53) 
energy

$$$$
53:0
     RDKit          3D

 30 31  0  0  0  0  0  0  0  0999 V2000
   54.6870   25.9520   45.9890 N   0  0  0  0  0  0  0  0  0  0  0  0
   56.2600   25.2650   46.1870 S   0  0  0  0  0  0  0  0  0  0  0  0
   56.4290   24.1160   45.2330 O   0  0  0  0  0  0  0  0  0  0  0  0
   56.4110   24.7520   47.5910 O   0  0  0  0  0  0  0  0  0  0  0  0
   57.4780   26.4930   45.8650 C   0  0  0  0  0  0  0  0  0  0  0  0
   58.8060   26.2900   46.2620 C   0  0  0  0  0  0  0  0  0  0  0  0
   59.7720   27.2650   46.0060 C   0  0  0  0  0  0  0  0  0  0  0  0
   59.4210   28.4420   45.3390 C   0  0  0  0  0  0  0  0  0  0  0  0
   58.0960   28.6450   44.9110 C   0  0  0  0  0  0  0  0  0  0  0  0
   57.7020   29.8170   44.2490 O   0  0  0  0  0  0  0  0  0  0  0  0
   58.0850   31.1180   44.6020 C   0  0  0  0  0  0  0  0  0  0  0  0
   58.0910   32.1680   43.6710 C   0  0  0  0  0  0  0  0  0  0  0  0
   58.4650   33.4480   44.0810 C   0  0  0  0  0  0  0  0  0  0  0  0
   58.8300   33.6880   45.4150 C   0  0  0  0  0  0  0  0  0  0  0  0
   59.2230   35.0510   45.8490 C   0  0  0  0  0  0  0  0  0  0  0  0
   59.1940   35.4360   47.2260 N   0  0  0  0  0  0  0  0  0  0  0  0
   59.6050   35.8930   44.9920 O   0  0  0  0  0  0  0  0  0  0  0  0
   58.7810   32.6140   46.3200 C   0  0  0  0  0  0  0  0  0  0  0  0
   58.4110   31.3750   45.8960 N   0  0  0  0  0  0  0  0  0  0  0  0
   57.1290   27.6720   45.1900 C   0  0  0  0  0  0  0  0  0  0  0  0
   54.7740   26.7180   45.2820 H   0  0  0  0  0  0  0  0  0  0  0  0
   59.0885   25.3599   46.7768 H   0  0  0  0  0  0  0  0  0  0  0  0
   60.8112   27.1065   46.3299 H   0  0  0  0  0  0  0  0  0  0  0  0
   60.1829   29.2121   45.1480 H   0  0  0  0  0  0  0  0  0  0  0  0
   57.8029   31.9832   42.6256 H   0  0  0  0  0  0  0  0  0  0  0  0
   58.4739   34.2740   43.3546 H   0  0  0  0  0  0  0  0  0  0  0  0
   59.4200   36.4190   47.4970 H   0  0  0  0  0  0  0  0  0  0  0  0
   59.0380   34.7420   47.9890 H   0  0  0  0  0  0  0  0  0  0  0  0
   59.0430   32.7756   47.3761 H   0  0  0  0  0  0  0  0  0  0  0  0
   56.0868   27.8334   44.8773 H   0  0  0  0  0  0  0  0  0  0  0  0
  1  2  1  0
  2  3  2  0
  2  4  2  0
  2  5  1  0
  5  6  2  0
  6  7  1  0
  7  8  2  0
  8  9  1  0
  9 10  1  0
 10 11  1  0
 11 12  2  0
 12 13  1  0
 13 14  2  0
 14 15  1  0
 15 16  1  0
 15 17  2  0
 14 18  1  0
 18 19  2  0
  9 20  2  0
 20  5  1  0
 19 11  1  0
  1 21  1  0
  6 22  1  0
  7 23  1  0
  8 24  1  0
 12 25  1  0
 13 26  1  0
 16 27  1  0
 16 28  1  0
 18 29  1  0
 20 30  1  0
M  CHG  1   1  -1
M  END
>  <UniqueID>  (54) 
50

>  <SMILES>  (54) 
[NH-]S(=O)(=O)c1cccc(Oc2ccc(C(N)=O)cn2)c1

>  <Energy>  (54) 
39.1343581122789

>  <Genealogy>  (54) 
[NH-]S(=O)(=O)c1cccc(Oc2ccc(C(N)=O)cn2)c1 (protonated)
[NH-]S(=O)(=O)c1cccc(Oc2ccc(C(N)=O)cn2)c1 (3D coordinates assigned)
[NH-]S(=O)(=O)c1cccc(Oc2ccc(C(N)=O)cn2)c1 (optimized conformer: 39.1343581122789 kcal/mol)

>  <smiles>  (54) 
NC(=O)c1ccc(Oc2cccc(S(N)(=O)=O)c2)nc1

>  <score_type>  (54) 
oracle

>  <origin>  (54) 
adg

>  <m_score__min__energy>  (54) 
-10.359999999999999

>  <m_primary>  (54) 
energy

$$$$
54:0
     RDKit          3D

 46 48  0  0  0  0  0  0  0  0999 V2000
   65.2620   31.1680   51.1250 C   0  0  0  0  0  0  0  0  0  0  0  0
   65.0520   32.8340   50.5360 S   0  0  0  0  0  0  0  0  0  0  0  0
   66.0250   33.0770   49.4150 O   0  0  0  0  0  0  0  0  0  0  0  0
   65.3270   33.7950   51.6600 O   0  0  0  0  0  0  0  0  0  0  0  0
   63.4120   33.0690   49.9500 C   0  0  0  0  0  0  0  0  0  0  0  0
   62.9290   32.3000   48.8860 C   0  0  0  0  0  0  0  0  0  0  0  0
   61.6250   32.5020   48.4340 C   0  0  0  0  0  0  0  0  0  0  0  0
   60.8170   33.4840   49.0320 C   0  0  0  0  0  0  0  0  0  0  0  0
   59.5020   33.7290   48.6110 O   0  0  0  0  0  0  0  0  0  0  0  0
   59.0790   33.7900   47.2740 C   0  0  0  0  0  0  0  0  0  0  0  0
   59.6940   34.7050   46.4120 C   0  0  0  0  0  0  0  0  0  0  0  0
   59.3120   34.7770   45.0700 C   0  0  0  0  0  0  0  0  0  0  0  0
   58.3110   33.9330   44.5790 C   0  0  0  0  0  0  0  0  0  0  0  0
   57.6810   33.0180   45.4290 C   0  0  0  0  0  0  0  0  0  0  0  0
   56.6640   32.1560   44.8950 N   0  0  0  0  0  0  0  0  0  0  0  0
   56.7460   30.7270   44.8400 C   0  0  0  0  0  0  0  0  0  0  0  0
   55.7570   30.0510   44.4440 O   0  0  0  0  0  0  0  0  0  0  0  0
   57.9830   30.0800   45.1640 N   0  0  0  0  0  0  0  0  0  0  0  0
   58.1220   28.6590   45.3550 C   0  0  0  0  0  0  0  0  0  0  0  0
   59.4020   28.0960   45.3920 C   0  0  0  0  0  0  0  0  0  0  0  0
   59.5630   26.7250   45.5930 C   0  0  0  0  0  0  0  0  0  0  0  0
   58.4510   25.8960   45.7690 C   0  0  0  0  0  0  0  0  0  0  0  0
   58.7330   24.1760   46.0280 Cl  0  0  0  0  0  0  0  0  0  0  0  0
   57.1490   26.4460   45.7500 C   0  0  0  0  0  0  0  0  0  0  0  0
   55.9350   25.5630   45.9550 C   0  0  0  0  0  0  0  0  0  0  0  0
   54.7900   26.3380   45.9510 F   0  0  0  0  0  0  0  0  0  0  0  0
   55.9890   24.8830   47.1600 F   0  0  0  0  0  0  0  0  0  0  0  0
   55.8610   24.6350   44.9330 F   0  0  0  0  0  0  0  0  0  0  0  0
   57.0020   27.8340   45.5610 C   0  0  0  0  0  0  0  0  0  0  0  0
   58.0930   32.9250   46.7690 C   0  0  0  0  0  0  0  0  0  0  0  0
   61.3340   34.2110   50.1080 C   0  0  0  0  0  0  0  0  0  0  0  0
   62.6080   33.9960   50.5340 N   0  0  0  0  0  0  0  0  0  0  0  0
   65.2623   31.1653   52.2250 H   0  0  0  0  0  0  0  0  0  0  0  0
   64.4356   30.5421   50.7570 H   0  0  0  0  0  0  0  0  0  0  0  0
   66.2178   30.7667   50.7570 H   0  0  0  0  0  0  0  0  0  0  0  0
   63.5710   31.5437   48.4107 H   0  0  0  0  0  0  0  0  0  0  0  0
   61.2288   31.8921   47.6087 H   0  0  0  0  0  0  0  0  0  0  0  0
   60.4822   35.3710   46.7930 H   0  0  0  0  0  0  0  0  0  0  0  0
   59.7996   35.4990   44.3984 H   0  0  0  0  0  0  0  0  0  0  0  0
   58.0179   33.9888   43.5202 H   0  0  0  0  0  0  0  0  0  0  0  0
   58.8440   30.6720   45.2020 H   0  0  0  0  0  0  0  0  0  0  0  0
   60.2860   28.7376   45.2619 H   0  0  0  0  0  0  0  0  0  0  0  0
   60.5741   26.2922   45.6132 H   0  0  0  0  0  0  0  0  0  0  0  0
   55.9962   28.2792   45.5747 H   0  0  0  0  0  0  0  0  0  0  0  0
   57.6404   32.1694   47.4280 H   0  0  0  0  0  0  0  0  0  0  0  0
   60.7075   34.9609   50.6130 H   0  0  0  0  0  0  0  0  0  0  0  0
  1  2  1  0
  2  3  2  0
  2  4  2  0
  2  5  1  0
  5  6  2  0
  6  7  1  0
  7  8  2  0
  8  9  1  0
  9 10  1  0
 10 11  2  0
 11 12  1  0
 12 13  2  0
 13 14  1  0
 14 15  1  0
 15 16  1  0
 16 17  2  0
 16 18  1  0
 18 19  1  0
 19 20  2  0
 20 21  1  0
 21 22  2  0
 22 23  1  0
 22 24  1  0
 24 25  1  0
 25 26  1  0
 25 27  1  0
 25 28  1  0
 24 29  2  0
 14 30  2  0
  8 31  1  0
 31 32  2  0
 32  5  1  0
 30 10  1  0
 29 19  1  0
  1 33  1  0
  1 34  1  0
  1 35  1  0
  6 36  1  0
  7 37  1  0
 11 38  1  0
 12 39  1  0
 13 40  1  0
 18 41  1  0
 20 42  1  0
 21 43  1  0
 29 44  1  0
 30 45  1  0
 31 46  1  0
M  CHG  1  15  -1
M  END
>  <UniqueID>  (55) 
51

>  <SMILES>  (55) 
CS(=O)(=O)c1ccc(Oc2cccc([N-]C(=O)Nc3ccc(Cl)c(C(F)(F)F)c3)c2)cn1

>  <Energy>  (55) 
61.046136642414446

>  <Genealogy>  (55) 
CS(=O)(=O)c1ccc(Oc2cccc([N-]C(=O)Nc3ccc(Cl)c(C(F)(F)F)c3)c2)cn1 (protonated)
CS(=O)(=O)c1ccc(Oc2cccc([N-]C(=O)Nc3ccc(Cl)c(C(F)(F)F)c3)c2)cn1 (3D coordinates assigned)
CS(=O)(=O)c1ccc(Oc2cccc([N-]C(=O)Nc3ccc(Cl)c(C(F)(F)F)c3)c2)cn1 (optimized conformer: 61.046136642414446 kcal/mol)

>  <smiles>  (55) 
CS(=O)(=O)c1ccc(Oc2cccc(NC(=O)Nc3ccc(Cl)c(C(F)(F)F)c3)c2)cn1

>  <score_type>  (55) 
oracle

>  <origin>  (55) 
adg

>  <m_score__min__energy>  (55) 
-9.9700000000000006

>  <m_primary>  (55) 
energy

$$$$
55:0
     RDKit          3D

 32 34  0  0  0  0  0  0  0  0999 V2000
   56.6250   34.6500   44.9910 N   0  0  0  0  0  0  0  0  0  0  0  0
   58.1290   33.8430   44.7250 S   0  0  0  0  0  0  0  0  0  0  0  0
   59.2330   34.8590   44.6350 O   0  0  0  0  0  0  0  0  0  0  0  0
   58.0710   33.0810   43.4300 O   0  0  0  0  0  0  0  0  0  0  0  0
   58.4440   32.7330   46.0530 C   0  0  0  0  0  0  0  0  0  0  0  0
   58.2990   33.1660   47.3930 C   0  0  0  0  0  0  0  0  0  0  0  0
   58.5360   32.2810   48.4610 C   0  0  0  0  0  0  0  0  0  0  0  0
   58.9160   30.9760   48.1590 C   0  0  0  0  0  0  0  0  0  0  0  0
   59.1770   29.9910   49.0410 N   0  0  0  0  0  0  0  0  0  0  0  0
   59.4920   28.9300   48.2620 C   0  0  0  0  0  0  0  0  0  0  0  0
   59.8250   27.6850   48.7800 O   0  0  0  0  0  0  0  0  0  0  0  0
   59.4340   29.2350   46.9100 C   0  0  0  0  0  0  0  0  0  0  0  0
   59.7790   28.1450   45.5280 S   0  0  0  0  0  0  0  0  0  0  0  0
   58.4680   26.9970   45.9760 C   0  0  0  0  0  0  0  0  0  0  0  0
   58.8250   25.7680   46.5500 C   0  0  0  0  0  0  0  0  0  0  0  0
   57.8430   24.8590   46.9420 C   0  0  0  0  0  0  0  0  0  0  0  0
   56.4940   25.1650   46.7590 C   0  0  0  0  0  0  0  0  0  0  0  0
   56.1220   26.3770   46.1700 C   0  0  0  0  0  0  0  0  0  0  0  0
   54.7710   26.6520   45.9870 O   0  0  0  0  0  0  0  0  0  0  0  0
   57.1040   27.3020   45.7660 C   0  0  0  0  0  0  0  0  0  0  0  0
   56.7080   28.5290   45.1350 N   0  0  0  0  0  0  0  0  0  0  0  0
   59.0550   30.5540   46.8610 C   0  0  0  0  0  0  0  0  0  0  0  0
   58.8210   31.4020   45.7790 C   0  0  0  0  0  0  0  0  0  0  0  0
   56.2560   34.3110   45.9080 H   0  0  0  0  0  0  0  0  0  0  0  0
   57.9984   34.2035   47.6012 H   0  0  0  0  0  0  0  0  0  0  0  0
   58.4243   32.6107   49.5045 H   0  0  0  0  0  0  0  0  0  0  0  0
   59.8871   25.5195   46.6919 H   0  0  0  0  0  0  0  0  0  0  0  0
   58.1321   23.8997   47.3960 H   0  0  0  0  0  0  0  0  0  0  0  0
   55.7212   24.4506   47.0790 H   0  0  0  0  0  0  0  0  0  0  0  0
   57.2450   29.4130   45.2610 H   0  0  0  0  0  0  0  0  0  0  0  0
   55.8830   28.5640   44.4950 H   0  0  0  0  0  0  0  0  0  0  0  0
   58.9271   31.0440   44.7443 H   0  0  0  0  0  0  0  0  0  0  0  0
  1  2  1  0
  2  3  2  0
  2  4  2  0
  2  5  1  0
  5  6  2  0
  6  7  1  0
  7  8  2  0
  8  9  1  0
  9 10  1  0
 10 11  1  0
 10 12  2  0
 12 13  1  0
 13 14  1  0
 14 15  2  0
 15 16  1  0
 16 17  2  0
 17 18  1  0
 18 19  1  0
 18 20  2  0
 20 21  1  0
 12 22  1  0
 22 23  2  0
 23  5  1  0
 22  8  1  0
 20 14  1  0
  1 24  1  0
  6 25  1  0
  7 26  1  0
 15 27  1  0
 16 28  1  0
 17 29  1  0
 21 30  1  0
 21 31  1  0
 23 32  1  0
M  CHG  4   1  -1   9  -1  11  -1  19  -1
M  END
>  <UniqueID>  (56) 
52

>  <SMILES>  (56) 
[NH-]S(=O)(=O)c1ccc2[n-]c([O-])c(Sc3cccc([O-])c3N)c2c1

>  <Energy>  (56) 
64.2462391203128

>  <Genealogy>  (56) 
[NH-]S(=O)(=O)c1ccc2[n-]c([O-])c(Sc3cccc([O-])c3N)c2c1 (protonated)
[NH-]S(=O)(=O)c1ccc2[n-]c([O-])c(Sc3cccc([O-])c3N)c2c1 (3D coordinates assigned)
[NH-]S(=O)(=O)c1ccc2[n-]c([O-])c(Sc3cccc([O-])c3N)c2c1 (optimized conformer: 64.2462391203128 kcal/mol)

>  <smiles>  (56) 
Nc1c(O)cccc1Sc1c(O)[nH]c2ccc(S(N)(=O)=O)cc12

>  <score_type>  (56) 
oracle

>  <origin>  (56) 
adg

>  <m_score__min__energy>  (56) 
-13.300000000000001

>  <m_primary>  (56) 
energy

$$$$
56:0
     RDKit          3D

 55 58  0  0  0  0  0  0  0  0999 V2000
   61.6682   29.0298   46.1594 H   0  0  0  0  0  0  0  0  0  0  0  0
   60.8640   29.2530   46.8760 C   0  0  0  0  0  0  0  0  0  0  0  0
   61.1940   29.6140   48.0780 N   0  0  0  0  0  0  0  0  0  0  0  0
   60.5820   30.6510   48.7530 O   0  0  0  0  0  0  0  0  0  0  0  0
   61.1950   31.9290   48.8180 C   0  0  0  0  0  0  0  0  0  0  0  0
   61.1366   32.3076   49.8491 H   0  0  0  0  0  0  0  0  0  0  0  0
   62.2469   31.8379   48.5096 H   0  0  0  0  0  0  0  0  0  0  0  0
   60.4910   32.8960   47.8900 C   0  0  0  0  0  0  0  0  0  0  0  0
   61.2200   33.6370   46.9310 C   0  0  0  0  0  0  0  0  0  0  0  0
   62.9560   33.4470   46.7230 Cl  0  0  0  0  0  0  0  0  0  0  0  0
   60.5650   34.5650   46.1130 C   0  0  0  0  0  0  0  0  0  0  0  0
   61.1386   35.1337   45.3663 H   0  0  0  0  0  0  0  0  0  0  0  0
   59.1930   34.7750   46.2360 C   0  0  0  0  0  0  0  0  0  0  0  0
   58.6856   35.5008   45.5835 H   0  0  0  0  0  0  0  0  0  0  0  0
   58.4650   34.0630   47.1880 C   0  0  0  0  0  0  0  0  0  0  0  0
   57.3826   34.2326   47.2867 H   0  0  0  0  0  0  0  0  0  0  0  0
   59.1020   33.1330   48.0200 C   0  0  0  0  0  0  0  0  0  0  0  0
   58.1230   32.3120   49.2390 Cl  0  0  0  0  0  0  0  0  0  0  0  0
   59.4620   29.1260   46.4190 C   0  0  0  0  0  0  0  0  0  0  0  0
   58.8390   30.1120   45.6310 C   0  0  0  0  0  0  0  0  0  0  0  0
   59.3915   31.0226   45.3562 H   0  0  0  0  0  0  0  0  0  0  0  0
   57.5220   29.9400   45.1960 C   0  0  0  0  0  0  0  0  0  0  0  0
   57.0455   30.7108   44.5724 H   0  0  0  0  0  0  0  0  0  0  0  0
   56.8080   28.7910   45.5510 C   0  0  0  0  0  0  0  0  0  0  0  0
   55.5180   28.6180   45.0630 O   0  0  0  0  0  0  0  0  0  0  0  0
   57.4140   27.8110   46.3620 C   0  0  0  0  0  0  0  0  0  0  0  0
   56.7160   26.6370   46.7990 N   0  0  0  0  0  0  0  0  0  0  0  0
   55.9290   25.7500   45.9910 C   0  0  0  0  0  0  0  0  0  0  0  0
   54.7290   26.0610   45.7560 O   0  0  0  0  0  0  0  0  0  0  0  0
   56.4660   24.4930   45.4110 C   0  0  0  0  0  0  0  0  0  0  0  0
   57.8510   24.4250   45.1840 C   0  0  0  0  0  0  0  0  0  0  0  0
   58.4901   25.2733   45.4702 H   0  0  0  0  0  0  0  0  0  0  0  0
   58.4260   23.2970   44.6010 C   0  0  0  0  0  0  0  0  0  0  0  0
   59.5114   23.2614   44.4260 H   0  0  0  0  0  0  0  0  0  0  0  0
   57.6270   22.2150   44.2400 C   0  0  0  0  0  0  0  0  0  0  0  0
   58.0808   21.3308   43.7686 H   0  0  0  0  0  0  0  0  0  0  0  0
   56.2520   22.2500   44.4750 C   0  0  0  0  0  0  0  0  0  0  0  0
   55.6292   21.3902   44.1869 H   0  0  0  0  0  0  0  0  0  0  0  0
   55.6530   23.3720   45.0760 C   0  0  0  0  0  0  0  0  0  0  0  0
   54.1970   23.3110   45.3680 C   0  0  0  0  0  0  0  0  0  0  0  0
   53.2610   23.8740   44.4890 C   0  0  0  0  0  0  0  0  0  0  0  0
   53.6040   24.3883   43.5791 H   0  0  0  0  0  0  0  0  0  0  0  0
   51.8920   23.7840   44.7650 C   0  0  0  0  0  0  0  0  0  0  0  0
   51.1636   24.2106   44.0597 H   0  0  0  0  0  0  0  0  0  0  0  0
   51.4420   23.1540   45.9340 C   0  0  0  0  0  0  0  0  0  0  0  0
   49.9740   22.9880   46.1950 C   0  0  0  0  0  0  0  0  0  0  0  0
   49.7945   22.9677   47.2801 H   0  0  0  0  0  0  0  0  0  0  0  0
   49.4246   23.8298   45.7482 H   0  0  0  0  0  0  0  0  0  0  0  0
   49.6265   22.0448   45.7482 H   0  0  0  0  0  0  0  0  0  0  0  0
   52.3760   22.6080   46.8200 C   0  0  0  0  0  0  0  0  0  0  0  0
   52.0323   22.1072   47.7371 H   0  0  0  0  0  0  0  0  0  0  0  0
   53.7420   22.6950   46.5470 C   0  0  0  0  0  0  0  0  0  0  0  0
   54.4685   22.2782   47.2601 H   0  0  0  0  0  0  0  0  0  0  0  0
   58.7530   27.9630   46.7430 C   0  0  0  0  0  0  0  0  0  0  0  0
   59.2534   27.1595   47.3032 H   0  0  0  0  0  0  0  0  0  0  0  0
  1  2  1  0
  2  3  2  0
  3  4  1  0
  4  5  1  0
  5  6  1  0
  5  7  1  0
  5  8  1  0
  8  9  2  0
  9 10  1  0
  9 11  1  0
 11 12  1  0
 11 13  2  0
 13 14  1  0
 13 15  1  0
 15 16  1  0
 15 17  2  0
 17 18  1  0
  2 19  1  0
 19 20  2  0
 20 21  1  0
 20 22  1  0
 22 23  1  0
 22 24  2  0
 24 25  1  0
 24 26  1  0
 26 27  1  0
 27 28  1  0
 28 29  2  0
 28 30  1  0
 30 31  2  0
 31 32  1  0
 31 33  1  0
 33 34  1  0
 33 35  2  0
 35 36  1  0
 35 37  1  0
 37 38  1  0
 37 39  2  0
 39 40  1  0
 40 41  2  0
 41 42  1  0
 41 43  1  0
 43 44  1  0
 43 45  2  0
 45 46  1  0
 46 47  1  0
 46 48  1  0
 46 49  1  0
 45 50  1  0
 50 51  1  0
 50 52  2  0
 52 53  1  0
 26 54  2  0
 54 55  1  0
 17  8  1  0
 54 19  1  0
 39 30  1  0
 52 40  1  0
M  CHG  2  25  -1  27  -1
M  END
>  <UniqueID>  (57) 
53

>  <SMILES>  (57) 
Cc1ccc(-c2ccccc2C(=O)[N-]c2cc(/C=N\OCc3c(Cl)cccc3Cl)ccc2[O-])cc1

>  <Energy>  (57) 
73.89897552214163

>  <Genealogy>  (57) 
Cc1ccc(-c2ccccc2C(=O)[N-]c2cc(C=NOCc3c(Cl)cccc3Cl)ccc2[O-])cc1 (protonated)
Cc1ccc(-c2ccccc2C(=O)[N-]c2cc(/C=N\OCc3c(Cl)cccc3Cl)ccc2[O-])cc1 (cis-trans isomerization)
Cc1ccc(-c2ccccc2C(=O)[N-]c2cc(/C=N\OCc3c(Cl)cccc3Cl)ccc2[O-])cc1 (3D coordinates assigned)
Cc1ccc(-c2ccccc2C(=O)[N-]c2cc(/C=N\OCc3c(Cl)cccc3Cl)ccc2[O-])cc1 (optimized conformer: 73.89897552214163 kcal/mol)

>  <smiles>  (57) 
Cc1ccc(-c2ccccc2C(=O)Nc2cc(C=NOCc3c(Cl)cccc3Cl)ccc2O)cc1

>  <score_type>  (57) 
oracle

>  <origin>  (57) 
adg

>  <m_score__min__energy>  (57) 
-14.880000000000001

>  <m_primary>  (57) 
energy

$$$$
57:0
     RDKit          3D

 46 48  0  0  0  0  0  0  0  0999 V2000
   55.5270   31.1770   44.7130 O   0  0  0  0  0  0  0  0  0  0  0  0
   55.9640   30.0730   44.2890 C   0  0  0  0  0  0  0  0  0  0  0  0
   56.9900   30.0470   43.2010 C   0  0  0  0  0  0  0  0  0  0  0  0
   57.6250   31.4030   43.0360 C   0  0  0  0  0  0  0  0  0  0  0  0
   57.6720   31.8970   41.8760 O   0  0  0  0  0  0  0  0  0  0  0  0
   58.1620   32.1830   44.1870 C   0  0  0  0  0  0  0  0  0  0  0  0
   58.3700   31.5480   45.4280 C   0  0  0  0  0  0  0  0  0  0  0  0
   58.8840   32.2610   46.5160 C   0  0  0  0  0  0  0  0  0  0  0  0
   59.1970   33.6140   46.3820 C   0  0  0  0  0  0  0  0  0  0  0  0
   58.9960   34.2590   45.1600 C   0  0  0  0  0  0  0  0  0  0  0  0
   59.3080   35.6070   45.0290 O   0  0  0  0  0  0  0  0  0  0  0  0
   58.4800   33.5520   44.0680 C   0  0  0  0  0  0  0  0  0  0  0  0
   55.5320   28.8440   44.8870 N   0  0  0  0  0  0  0  0  0  0  0  0
   56.3940   27.8740   45.4970 C   0  0  0  0  0  0  0  0  0  0  0  0
   57.7730   28.1220   45.5160 C   0  0  0  0  0  0  0  0  0  0  0  0
   58.6550   27.1980   46.0910 C   0  0  0  0  0  0  0  0  0  0  0  0
   60.3800   27.5560   46.1480 S   0  0  0  0  0  0  0  0  0  0  0  0
   61.1720   26.2780   46.0950 O   0  0  0  0  0  0  0  0  0  0  0  0
   60.7390   28.3920   44.9510 O   0  0  0  0  0  0  0  0  0  0  0  0
   60.7570   28.4320   47.6120 N   0  0  0  0  0  0  0  0  0  0  0  0
   60.9910   29.8540   47.3010 C   0  0  0  0  0  0  0  0  0  0  0  0
   60.8100   30.7210   48.5570 C   0  0  0  0  0  0  0  0  0  0  0  0
   59.5130   30.6420   49.1380 O   0  0  0  0  0  0  0  0  0  0  0  0
   58.8020   29.4630   48.7920 C   0  0  0  0  0  0  0  0  0  0  0  0
   59.7090   28.2290   48.6390 C   0  0  0  0  0  0  0  0  0  0  0  0
   58.1540   26.0140   46.6450 C   0  0  0  0  0  0  0  0  0  0  0  0
   56.7850   25.7440   46.6000 C   0  0  0  0  0  0  0  0  0  0  0  0
   55.9030   26.6580   46.0150 C   0  0  0  0  0  0  0  0  0  0  0  0
   54.5540   26.3350   45.9270 O   0  0  0  0  0  0  0  0  0  0  0  0
   57.7681   29.3124   43.4558 H   0  0  0  0  0  0  0  0  0  0  0  0
   56.4979   29.7695   42.2572 H   0  0  0  0  0  0  0  0  0  0  0  0
   58.1258   30.4815   45.5420 H   0  0  0  0  0  0  0  0  0  0  0  0
   59.0418   31.7539   47.4793 H   0  0  0  0  0  0  0  0  0  0  0  0
   59.6020   34.1725   47.2388 H   0  0  0  0  0  0  0  0  0  0  0  0
   58.3212   34.0679   43.1095 H   0  0  0  0  0  0  0  0  0  0  0  0
   58.1663   29.0501   45.0757 H   0  0  0  0  0  0  0  0  0  0  0  0
   62.0163   29.9769   46.9219 H   0  0  0  0  0  0  0  0  0  0  0  0
   60.2627   30.1747   46.5416 H   0  0  0  0  0  0  0  0  0  0  0  0
   61.5451   30.3973   49.3086 H   0  0  0  0  0  0  0  0  0  0  0  0
   60.9531   31.7656   48.2436 H   0  0  0  0  0  0  0  0  0  0  0  0
   58.0623   29.2573   49.5797 H   0  0  0  0  0  0  0  0  0  0  0  0
   58.3281   29.6426   47.8157 H   0  0  0  0  0  0  0  0  0  0  0  0
   60.1938   28.0231   49.6047 H   0  0  0  0  0  0  0  0  0  0  0  0
   59.0809   27.3843   48.3198 H   0  0  0  0  0  0  0  0  0  0  0  0
   58.8402   25.2951   47.1166 H   0  0  0  0  0  0  0  0  0  0  0  0
   56.3980   24.8071   47.0271 H   0  0  0  0  0  0  0  0  0  0  0  0
  1  2  2  0
  2  3  1  0
  3  4  1  0
  4  5  2  0
  4  6  1  0
  6  7  2  0
  7  8  1  0
  8  9  2  0
  9 10  1  0
 10 11  1  0
 10 12  2  0
  2 13  1  0
 13 14  1  0
 14 15  2  0
 15 16  1  0
 16 17  1  0
 17 18  2  0
 17 19  2  0
 17 20  1  0
 20 21  1  0
 21 22  1  0
 22 23  1  0
 23 24  1  0
 24 25  1  0
 16 26  2  0
 26 27  1  0
 27 28  2  0
 28 29  1  0
 12  6  1  0
 28 14  1  0
 25 20  1  0
  3 30  1  0
  3 31  1  0
  7 32  1  0
  8 33  1  0
  9 34  1  0
 12 35  1  0
 15 36  1  0
 21 37  1  0
 21 38  1  0
 22 39  1  0
 22 40  1  0
 24 41  1  0
 24 42  1  0
 25 43  1  0
 25 44  1  0
 26 45  1  0
 27 46  1  0
M  CHG  3  11  -1  13  -1  29  -1
M  END
>  <UniqueID>  (58) 
54

>  <SMILES>  (58) 
O=C(CC(=O)c1cccc([O-])c1)[N-]c1cc(S(=O)(=O)N2CCOCC2)ccc1[O-]

>  <Energy>  (58) 
64.74759168732706

>  <Genealogy>  (58) 
O=C(CC(=O)c1cccc([O-])c1)[N-]c1cc(S(=O)(=O)N2CCOCC2)ccc1[O-] (protonated)
O=C(CC(=O)c1cccc([O-])c1)[N-]c1cc(S(=O)(=O)N2CCOCC2)ccc1[O-] (3D coordinates assigned)
O=C(CC(=O)c1cccc([O-])c1)[N-]c1cc(S(=O)(=O)N2CCOCC2)ccc1[O-] (nonaromatic ring conformer: 64.74759168732706 kcal/mol)

>  <smiles>  (58) 
O=C(CC(=O)c1cccc(O)c1)Nc1cc(S(=O)(=O)N2CCOCC2)ccc1O

>  <score_type>  (58) 
oracle

>  <origin>  (58) 
adg

>  <m_score__min__energy>  (58) 
-16.02

>  <m_primary>  (58) 
energy

$$$$
58:0
     RDKit          3D

 66 70  0  0  0  0  0  0  0  0999 V2000
   67.4899   32.2303   52.3305 H   0  0  0  0  0  0  0  0  0  0  0  0
   66.7280   32.3090   51.5410 C   0  0  0  0  0  0  0  0  0  0  0  0
   66.2030   33.7340   50.8120 S   0  0  0  0  0  0  0  0  0  0  0  0
   65.1200   32.9360   49.7950 C   0  0  0  0  0  0  0  0  0  0  0  0
   64.3850   33.4810   48.8730 N   0  0  0  0  0  0  0  0  0  0  0  0
   63.1170   32.9970   48.4060 C   0  0  0  0  0  0  0  0  0  0  0  0
   62.3410   33.8120   47.5800 C   0  0  0  0  0  0  0  0  0  0  0  0
   62.6837   34.8251   47.3230 H   0  0  0  0  0  0  0  0  0  0  0  0
   61.1300   33.3350   47.0830 C   0  0  0  0  0  0  0  0  0  0  0  0
   60.5116   33.9781   46.4396 H   0  0  0  0  0  0  0  0  0  0  0  0
   60.6940   32.0370   47.3990 C   0  0  0  0  0  0  0  0  0  0  0  0
   59.4420   31.5280   46.8790 N   0  0  0  0  0  0  0  0  0  0  0  0
   58.5520   32.4180   46.1150 C   0  0  0  0  0  0  0  0  0  0  0  0
   57.6624   32.6322   46.7255 H   0  0  0  0  0  0  0  0  0  0  0  0
   59.1201   33.3308   45.8825 H   0  0  0  0  0  0  0  0  0  0  0  0
   58.0920   31.8050   44.7720 C   0  0  0  0  0  0  0  0  0  0  0  0
   57.4682   32.5500   44.2563 H   0  0  0  0  0  0  0  0  0  0  0  0
   59.0130   31.5432   44.2305 H   0  0  0  0  0  0  0  0  0  0  0  0
   57.3140   30.5530   44.8730 N   0  0  0  0  0  0  0  0  0  0  0  0
   56.0280   30.5390   44.1560 C   0  0  0  0  0  0  0  0  0  0  0  0
   55.2028   30.5300   44.8833 H   0  0  0  0  0  0  0  0  0  0  0  0
   55.9505   31.4364   43.5245 H   0  0  0  0  0  0  0  0  0  0  0  0
   55.9700   29.6402   43.5245 H   0  0  0  0  0  0  0  0  0  0  0  0
   58.0530   29.2740   44.9140 C   0  0  0  0  0  0  0  0  0  0  0  0
   57.3385   28.4797   45.1759 H   0  0  0  0  0  0  0  0  0  0  0  0
   58.5054   29.1584   43.9180 H   0  0  0  0  0  0  0  0  0  0  0  0
   59.2210   29.2070   45.9140 C   0  0  0  0  0  0  0  0  0  0  0  0
   59.3089   28.1696   46.2692 H   0  0  0  0  0  0  0  0  0  0  0  0
   60.1132   29.5564   45.3737 H   0  0  0  0  0  0  0  0  0  0  0  0
   59.0700   30.1210   47.1390 C   0  0  0  0  0  0  0  0  0  0  0  0
   58.0199   30.0939   47.4654 H   0  0  0  0  0  0  0  0  0  0  0  0
   59.7583   29.7431   47.9093 H   0  0  0  0  0  0  0  0  0  0  0  0
   61.5260   31.2380   48.2050 C   0  0  0  0  0  0  0  0  0  0  0  0
   61.2196   30.2119   48.4563 H   0  0  0  0  0  0  0  0  0  0  0  0
   62.7060   31.7240   48.6760 N   0  0  0  0  0  0  0  0  0  0  0  0
   63.3130   31.0860   49.2340 H   0  0  0  0  0  0  0  0  0  0  0  0
   65.1430   31.6020   49.9930 N   0  0  0  0  0  0  0  0  0  0  0  0
   66.0270   31.2440   50.9680 C   0  0  0  0  0  0  0  0  0  0  0  0
   66.2020   29.8320   51.3840 C   0  0  0  0  0  0  0  0  0  0  0  0
   67.2470   29.0600   50.8390 C   0  0  0  0  0  0  0  0  0  0  0  0
   67.9284   29.5081   50.1008 H   0  0  0  0  0  0  0  0  0  0  0  0
   67.4250   27.7310   51.2280 C   0  0  0  0  0  0  0  0  0  0  0  0
   68.2395   27.1349   50.7906 H   0  0  0  0  0  0  0  0  0  0  0  0
   66.5710   27.1580   52.1710 C   0  0  0  0  0  0  0  0  0  0  0  0
   66.7138   26.1111   52.4769 H   0  0  0  0  0  0  0  0  0  0  0  0
   65.5350   27.9120   52.7270 C   0  0  0  0  0  0  0  0  0  0  0  0
   64.8672   27.4583   53.4741 H   0  0  0  0  0  0  0  0  0  0  0  0
   65.3430   29.2440   52.3370 C   0  0  0  0  0  0  0  0  0  0  0  0
   64.3010   30.0030   52.9490 N   0  0  0  0  0  0  0  0  0  0  0  0
   62.7860   30.2270   52.1470 S   0  0  0  0  0  0  0  0  0  0  0  0
   61.7550   29.3170   52.7530 O   0  0  0  0  0  0  0  0  0  0  0  0
   62.9510   29.8880   50.6910 O   0  0  0  0  0  0  0  0  0  0  0  0
   62.2760   31.9330   52.2970 C   0  0  0  0  0  0  0  0  0  0  0  0
   62.0986   32.1660   53.3573 H   0  0  0  0  0  0  0  0  0  0  0  0
   63.0705   32.5789   51.8950 H   0  0  0  0  0  0  0  0  0  0  0  0
   61.0140   32.1740   51.5200 C   0  0  0  0  0  0  0  0  0  0  0  0
   60.7550   33.4350   50.9580 C   0  0  0  0  0  0  0  0  0  0  0  0
   61.4653   34.2603   51.1140 H   0  0  0  0  0  0  0  0  0  0  0  0
   59.5980   33.6460   50.2010 C   0  0  0  0  0  0  0  0  0  0  0  0
   59.3974   34.6369   49.7676 H   0  0  0  0  0  0  0  0  0  0  0  0
   58.6960   32.5970   49.9950 C   0  0  0  0  0  0  0  0  0  0  0  0
   57.7849   32.7637   49.4016 H   0  0  0  0  0  0  0  0  0  0  0  0
   58.9520   31.3370   50.5430 C   0  0  0  0  0  0  0  0  0  0  0  0
   58.2432   30.5122   50.3779 H   0  0  0  0  0  0  0  0  0  0  0  0
   60.1080   31.1230   51.3010 C   0  0  0  0  0  0  0  0  0  0  0  0
   60.3082   30.1287   51.7269 H   0  0  0  0  0  0  0  0  0  0  0  0
  1  2  1  0
  2  3  1  0
  3  4  1  0
  4  5  2  0
  5  6  1  0
  6  7  2  0
  7  8  1  0
  7  9  1  0
  9 10  1  0
  9 11  2  0
 11 12  1  0
 12 13  1  0
 13 14  1  0
 13 15  1  0
 13 16  1  0
 16 17  1  0
 16 18  1  0
 16 19  1  0
 19 20  1  0
 20 21  1  0
 20 22  1  0
 20 23  1  0
 19 24  1  0
 24 25  1  0
 24 26  1  0
 24 27  1  0
 27 28  1  0
 27 29  1  0
 27 30  1  0
 30 31  1  0
 30 32  1  0
 11 33  1  0
 33 34  1  0
 33 35  2  0
 35 36  1  0
  4 37  1  0
 37 38  1  0
 38 39  1  0
 39 40  2  0
 40 41  1  0
 40 42  1  0
 42 43  1  0
 42 44  2  0
 44 45  1  0
 44 46  1  0
 46 47  1  0
 46 48  2  0
 48 49  1  0
 49 50  1  0
 50 51  2  0
 50 52  2  0
 50 53  1  0
 53 54  1  0
 53 55  1  0
 53 56  1  0
 56 57  2  0
 57 58  1  0
 57 59  1  0
 59 60  1  0
 59 61  2  0
 61 62  1  0
 61 63  1  0
 63 64  1  0
 63 65  2  0
 65 66  1  0
 38  2  2  0
 48 39  1  0
 65 56  1  0
 35  6  1  0
 30 12  1  0
M  CHG  3  35   1  37  -1  49  -1
M  END
>  <UniqueID>  (59) 
55

>  <SMILES>  (59) 
CN1CCCN(c2ccc(/N=c3/[n-]c(-c4ccccc4[N-]S(=O)(=O)Cc4ccccc4)cs3)[nH+]c2)CC1

>  <Energy>  (59) 
135.8421504356769

>  <Genealogy>  (59) 
CN1CCCN(c2ccc(N=c3[n-]c(-c4ccccc4[N-]S(=O)(=O)Cc4ccccc4)cs3)[nH+]c2)CC1 (protonated)
CN1CCCN(c2ccc(/N=c3/[n-]c(-c4ccccc4[N-]S(=O)(=O)Cc4ccccc4)cs3)[nH+]c2)CC1 (cis-trans isomerization)
CN1CCCN(c2ccc(/N=c3/[n-]c(-c4ccccc4[N-]S(=O)(=O)Cc4ccccc4)cs3)[nH+]c2)CC1 (3D coordinates assigned)
CN1CCCN(c2ccc(/N=c3/[n-]c(-c4ccccc4[N-]S(=O)(=O)Cc4ccccc4)cs3)[nH+]c2)CC1 (nonaromatic ring conformer: 135.8421504356769 kcal/mol)

>  <smiles>  (59) 
CN1CCCN(c2ccc(N=c3[nH]c(-c4ccccc4NS(=O)(=O)Cc4ccccc4)cs3)nc2)CC1

>  <score_type>  (59) 
oracle

>  <origin>  (59) 
adg

>  <m_score__min__energy>  (59) 
-8.3699999999999992

>  <m_primary>  (59) 
energy

$$$$
59:0
     RDKit          3D

 63 66  0  0  0  0  0  0  0  0999 V2000
   57.9110   32.0810   42.0540 C   0  0  0  0  0  0  0  0  0  0  0  0
   57.8750   33.0820   43.0630 O   0  0  0  0  0  0  0  0  0  0  0  0
   58.2030   32.8640   44.4110 C   0  0  0  0  0  0  0  0  0  0  0  0
   59.2470   33.5630   45.0500 C   0  0  0  0  0  0  0  0  0  0  0  0
   59.5440   33.3270   46.4010 C   0  0  0  0  0  0  0  0  0  0  0  0
   60.6650   33.9990   47.0020 N   0  0  0  0  0  0  0  0  0  0  0  0
   60.7030   34.4300   48.3730 C   0  0  0  0  0  0  0  0  0  0  0  0
   59.6480   34.4570   49.0610 O   0  0  0  0  0  0  0  0  0  0  0  0
   61.9400   34.8080   48.9920 N   0  0  0  0  0  0  0  0  0  0  0  0
   62.9070   33.9060   49.5490 C   0  0  0  0  0  0  0  0  0  0  0  0
   64.0090   33.4650   48.7980 C   0  0  0  0  0  0  0  0  0  0  0  0
   64.9540   32.6080   49.3700 C   0  0  0  0  0  0  0  0  0  0  0  0
   64.8200   32.1990   50.7080 C   0  0  0  0  0  0  0  0  0  0  0  0
   66.0250   31.1450   51.4400 S   0  0  0  0  0  0  0  0  0  0  0  0
   66.2110   31.5530   53.1070 N   0  0  0  0  0  0  0  0  0  0  0  0
   65.5850   29.7120   51.3230 O   0  0  0  0  0  0  0  0  0  0  0  0
   67.3430   31.3050   50.7340 O   0  0  0  0  0  0  0  0  0  0  0  0
   63.7410   32.6670   51.4680 C   0  0  0  0  0  0  0  0  0  0  0  0
   62.7930   33.5230   50.8910 C   0  0  0  0  0  0  0  0  0  0  0  0
   58.8010   32.3680   47.1120 C   0  0  0  0  0  0  0  0  0  0  0  0
   57.7690   31.6720   46.4840 C   0  0  0  0  0  0  0  0  0  0  0  0
   57.4560   31.9230   45.1380 C   0  0  0  0  0  0  0  0  0  0  0  0
   56.4350   31.1690   44.4690 N   0  0  0  0  0  0  0  0  0  0  0  0
   56.2800   29.7450   44.5050 C   0  0  0  0  0  0  0  0  0  0  0  0
   55.1800   29.2620   44.8830 O   0  0  0  0  0  0  0  0  0  0  0  0
   57.4270   28.8130   44.2230 C   0  0  0  0  0  0  0  0  0  0  0  0
   57.9310   28.2500   45.4790 N   0  0  0  0  0  0  0  0  0  0  0  0
   58.8520   28.9370   46.1610 N   0  0  0  0  0  0  0  0  0  0  0  0
   59.3960   28.4860   47.3250 C   0  0  0  0  0  0  0  0  0  0  0  0
   60.3770   29.2930   48.0160 N   0  0  0  0  0  0  0  0  0  0  0  0
   61.2860   30.1830   47.2800 C   0  0  0  0  0  0  0  0  0  0  0  0
   61.7860   31.3130   48.1860 C   0  0  0  0  0  0  0  0  0  0  0  0
   62.3010   30.7960   49.3980 O   0  0  0  0  0  0  0  0  0  0  0  0
   61.2570   30.1910   50.1340 C   0  0  0  0  0  0  0  0  0  0  0  0
   60.7320   28.9530   49.4030 C   0  0  0  0  0  0  0  0  0  0  0  0
   58.9680   27.2480   47.8260 C   0  0  0  0  0  0  0  0  0  0  0  0
   58.0160   26.5190   47.1210 C   0  0  0  0  0  0  0  0  0  0  0  0
   57.5010   27.0310   45.9330 C   0  0  0  0  0  0  0  0  0  0  0  0
   56.6440   26.3670   45.2890 O   0  0  0  0  0  0  0  0  0  0  0  0
   57.9467   31.0873   42.5244 H   0  0  0  0  0  0  0  0  0  0  0  0
   57.0095   32.1583   41.4285 H   0  0  0  0  0  0  0  0  0  0  0  0
   58.8046   32.2229   41.4285 H   0  0  0  0  0  0  0  0  0  0  0  0
   59.8347   34.3008   44.4840 H   0  0  0  0  0  0  0  0  0  0  0  0
   61.4910   34.1840   46.3890 H   0  0  0  0  0  0  0  0  0  0  0  0
   64.1290   33.7952   47.7556 H   0  0  0  0  0  0  0  0  0  0  0  0
   65.8053   32.2526   48.7708 H   0  0  0  0  0  0  0  0  0  0  0  0
   66.6130   30.7160   53.5810 H   0  0  0  0  0  0  0  0  0  0  0  0
   63.6372   32.3622   52.5198 H   0  0  0  0  0  0  0  0  0  0  0  0
   61.9539   33.8964   51.4964 H   0  0  0  0  0  0  0  0  0  0  0  0
   59.0349   32.1661   48.1677 H   0  0  0  0  0  0  0  0  0  0  0  0
   57.1957   30.9207   47.0469 H   0  0  0  0  0  0  0  0  0  0  0  0
   57.0827   27.9977   43.5698 H   0  0  0  0  0  0  0  0  0  0  0  0
   58.2341   29.3711   43.7260 H   0  0  0  0  0  0  0  0  0  0  0  0
   62.1471   29.6016   46.9187 H   0  0  0  0  0  0  0  0  0  0  0  0
   60.7411   30.6234   46.4320 H   0  0  0  0  0  0  0  0  0  0  0  0
   62.5798   31.8683   47.6649 H   0  0  0  0  0  0  0  0  0  0  0  0
   60.9413   31.9784   48.4178 H   0  0  0  0  0  0  0  0  0  0  0  0
   61.6365   29.8936   51.1227 H   0  0  0  0  0  0  0  0  0  0  0  0
   60.4351   30.9136   50.2445 H   0  0  0  0  0  0  0  0  0  0  0  0
   61.5109   28.1763   49.3985 H   0  0  0  0  0  0  0  0  0  0  0  0
   59.8354   28.5834   49.9222 H   0  0  0  0  0  0  0  0  0  0  0  0
   59.3812   26.8572   48.7675 H   0  0  0  0  0  0  0  0  0  0  0  0
   57.6724   25.5449   47.4993 H   0  0  0  0  0  0  0  0  0  0  0  0
  1  2  1  0
  2  3  1  0
  3  4  2  0
  4  5  1  0
  5  6  1  0
  6  7  1  0
  7  8  2  0
  7  9  1  0
  9 10  1  0
 10 11  2  0
 11 12  1  0
 12 13  2  0
 13 14  1  0
 14 15  1  0
 14 16  2  0
 14 17  2  0
 13 18  1  0
 18 19  2  0
  5 20  2  0
 20 21  1  0
 21 22  2  0
 22 23  1  0
 23 24  1  0
 24 25  2  0
 24 26  1  0
 26 27  1  0
 27 28  1  0
 28 29  2  0
 29 30  1  0
 30 31  1  0
 31 32  1  0
 32 33  1  0
 33 34  1  0
 34 35  1  0
 29 36  1  0
 36 37  2  0
 37 38  1  0
 38 39  2  0
 22  3  1  0
 38 27  1  0
 19 10  1  0
 35 30  1  0
  1 40  1  0
  1 41  1  0
  1 42  1  0
  4 43  1  0
  6 44  1  0
 11 45  1  0
 12 46  1  0
 15 47  1  0
 18 48  1  0
 19 49  1  0
 20 50  1  0
 21 51  1  0
 26 52  1  0
 26 53  1  0
 31 54  1  0
 31 55  1  0
 32 56  1  0
 32 57  1  0
 34 58  1  0
 34 59  1  0
 35 60  1  0
 35 61  1  0
 36 62  1  0
 37 63  1  0
M  CHG  3   9  -1  15  -1  23  -1
M  END
>  <UniqueID>  (60) 
56

>  <SMILES>  (60) 
COc1cc(NC(=O)[N-]c2ccc(S([NH-])(=O)=O)cc2)ccc1[N-]C(=O)Cn1nc(N2CCOCC2)ccc1=O

>  <Energy>  (60) 
84.16497424078776

>  <Genealogy>  (60) 
COc1cc(NC(=O)[N-]c2ccc(S([NH-])(=O)=O)cc2)ccc1[N-]C(=O)Cn1nc(N2CCOCC2)ccc1=O (protonated)
COc1cc(NC(=O)[N-]c2ccc(S([NH-])(=O)=O)cc2)ccc1[N-]C(=O)Cn1nc(N2CCOCC2)ccc1=O (3D coordinates assigned)
COc1cc(NC(=O)[N-]c2ccc(S([NH-])(=O)=O)cc2)ccc1[N-]C(=O)Cn1nc(N2CCOCC2)ccc1=O (nonaromatic ring conformer: 84.16497424078776 kcal/mol)

>  <smiles>  (60) 
COc1cc(NC(=O)Nc2ccc(S(N)(=O)=O)cc2)ccc1NC(=O)Cn1nc(N2CCOCC2)ccc1=O

>  <score_type>  (60) 
oracle

>  <origin>  (60) 
adg

>  <m_score__min__energy>  (60) 
-13.210000000000001

>  <m_primary>  (60) 
energy

$$$$
60:0
     RDKit          3D

 48 50  0  0  0  0  0  0  0  0999 V2000
   63.3520   33.8910   50.0920 C   0  0  0  0  0  0  0  0  0  0  0  0
   64.3850   33.0340   49.3610 C   0  0  0  0  0  0  0  0  0  0  0  0
   63.7540   32.1610   48.2680 C   0  0  0  0  0  0  0  0  0  0  0  0
   62.7260   32.9140   47.4750 C   0  0  0  0  0  0  0  0  0  0  0  0
   63.1050   33.7650   46.6250 O   0  0  0  0  0  0  0  0  0  0  0  0
   61.3270   32.7150   47.7370 N   0  0  0  0  0  0  0  0  0  0  0  0
   60.2710   33.1510   46.8630 C   0  0  0  0  0  0  0  0  0  0  0  0
   59.9410   34.5110   46.8110 C   0  0  0  0  0  0  0  0  0  0  0  0
   58.8880   34.9520   46.0090 C   0  0  0  0  0  0  0  0  0  0  0  0
   58.1440   34.0390   45.2580 C   0  0  0  0  0  0  0  0  0  0  0  0
   58.4490   32.6640   45.2960 C   0  0  0  0  0  0  0  0  0  0  0  0
   57.6530   31.6550   44.5390 C   0  0  0  0  0  0  0  0  0  0  0  0
   57.4100   31.7560   43.1580 C   0  0  0  0  0  0  0  0  0  0  0  0
   56.6450   30.7690   42.5370 C   0  0  0  0  0  0  0  0  0  0  0  0
   56.1590   29.7270   43.2590 N   0  0  0  0  0  0  0  0  0  0  0  0
   56.4000   29.6280   44.5910 C   0  0  0  0  0  0  0  0  0  0  0  0
   55.9540   28.5960   45.2470 N   0  0  0  0  0  0  0  0  0  0  0  0
   56.7360   27.4990   45.7510 C   0  0  0  0  0  0  0  0  0  0  0  0
   58.1000   27.7020   45.9940 C   0  0  0  0  0  0  0  0  0  0  0  0
   58.8930   26.6640   46.4880 C   0  0  0  0  0  0  0  0  0  0  0  0
   58.3340   25.4060   46.7280 C   0  0  0  0  0  0  0  0  0  0  0  0
   56.9770   25.1760   46.4600 C   0  0  0  0  0  0  0  0  0  0  0  0
   56.2630   23.5890   46.7300 S   0  0  0  0  0  0  0  0  0  0  0  0
   57.2140   22.7070   47.8730 N   0  0  0  0  0  0  0  0  0  0  0  0
   56.2180   22.8140   45.4440 O   0  0  0  0  0  0  0  0  0  0  0  0
   54.8640   23.7520   47.2540 O   0  0  0  0  0  0  0  0  0  0  0  0
   56.1860   26.2170   45.9530 C   0  0  0  0  0  0  0  0  0  0  0  0
   57.1480   30.5830   45.2070 N   0  0  0  0  0  0  0  0  0  0  0  0
   59.5120   32.2330   46.1160 C   0  0  0  0  0  0  0  0  0  0  0  0
   63.4859   33.7799   51.1781 H   0  0  0  0  0  0  0  0  0  0  0  0
   63.4868   34.9462   49.8120 H   0  0  0  0  0  0  0  0  0  0  0  0
   62.3398   33.5637   49.8120 H   0  0  0  0  0  0  0  0  0  0  0  0
   65.1295   33.6976   48.8969 H   0  0  0  0  0  0  0  0  0  0  0  0
   64.8474   32.3633   50.1002 H   0  0  0  0  0  0  0  0  0  0  0  0
   64.5459   31.8159   47.5870 H   0  0  0  0  0  0  0  0  0  0  0  0
   63.2534   31.3119   48.7563 H   0  0  0  0  0  0  0  0  0  0  0  0
   61.0610   32.2640   48.6410 H   0  0  0  0  0  0  0  0  0  0  0  0
   60.5156   35.2360   47.4062 H   0  0  0  0  0  0  0  0  0  0  0  0
   58.6426   36.0235   45.9679 H   0  0  0  0  0  0  0  0  0  0  0  0
   57.3132   34.3964   44.6318 H   0  0  0  0  0  0  0  0  0  0  0  0
   57.8158   32.5980   42.5780 H   0  0  0  0  0  0  0  0  0  0  0  0
   56.4348   30.8349   41.4593 H   0  0  0  0  0  0  0  0  0  0  0  0
   58.5499   28.6857   45.7944 H   0  0  0  0  0  0  0  0  0  0  0  0
   59.9606   26.8372   46.6887 H   0  0  0  0  0  0  0  0  0  0  0  0
   58.9597   24.5945   47.1280 H   0  0  0  0  0  0  0  0  0  0  0  0
   57.8110   23.3990   48.3800 H   0  0  0  0  0  0  0  0  0  0  0  0
   55.1290   26.0318   45.7113 H   0  0  0  0  0  0  0  0  0  0  0  0
   59.7514   31.1608   46.1722 H   0  0  0  0  0  0  0  0  0  0  0  0
  1  2  1  0
  2  3  1  0
  3  4  1  0
  4  5  2  0
  4  6  1  0
  6  7  1  0
  7  8  2  0
  8  9  1  0
  9 10  2  0
 10 11  1  0
 11 12  1  0
 12 13  1  0
 13 14  2  0
 14 15  1  0
 15 16  1  0
 16 17  2  3
 17 18  1  0
 18 19  2  0
 19 20  1  0
 20 21  2  0
 21 22  1  0
 22 23  1  0
 23 24  1  0
 23 25  2  0
 23 26  2  0
 22 27  2  0
 16 28  1  0
 11 29  2  0
 29  7  1  0
 28 12  2  0
 27 18  1  0
  1 30  1  0
  1 31  1  0
  1 32  1  0
  2 33  1  0
  2 34  1  0
  3 35  1  0
  3 36  1  0
  6 37  1  0
  8 38  1  0
  9 39  1  0
 10 40  1  0
 13 41  1  0
 14 42  1  0
 19 43  1  0
 20 44  1  0
 21 45  1  0
 24 46  1  0
 27 47  1  0
 29 48  1  0
M  CHG  2  15  -1  24  -1
M  END
>  <UniqueID>  (61) 
57

>  <SMILES>  (61) 
CCCC(=O)Nc1cccc(-c2cc[n-]c(=Nc3cccc(S([NH-])(=O)=O)c3)n2)c1

>  <Energy>  (61) 
56.09125558580126

>  <Genealogy>  (61) 
CCCC(=O)Nc1cccc(-c2cc[n-]c(=Nc3cccc(S([NH-])(=O)=O)c3)n2)c1 (protonated)
CCCC(=O)Nc1cccc(-c2cc[n-]c(=Nc3cccc(S([NH-])(=O)=O)c3)n2)c1 (3D coordinates assigned)
CCCC(=O)Nc1cccc(-c2cc[n-]c(=Nc3cccc(S([NH-])(=O)=O)c3)n2)c1 (optimized conformer: 56.09125558580126 kcal/mol)

>  <smiles>  (61) 
CCCC(=O)Nc1cccc(-c2cc[nH]c(=Nc3cccc(S(N)(=O)=O)c3)n2)c1

>  <score_type>  (61) 
oracle

>  <origin>  (61) 
adg

>  <m_score__min__energy>  (61) 
-13.84

>  <m_primary>  (61) 
energy

$$$$
61:0
     RDKit          3D

 51 54  0  0  0  0  0  0  0  0999 V2000
   58.3850   29.2660   47.7000 O   0  0  0  0  0  0  0  0  0  0  0  0
   59.6250   29.4760   47.5970 C   0  0  0  0  0  0  0  0  0  0  0  0
   60.3350   29.1210   46.3300 C   0  0  0  0  0  0  0  0  0  0  0  0
   59.4430   27.7870   45.4620 S   0  0  0  0  0  0  0  0  0  0  0  0
   58.1760   28.8820   44.8320 C   0  0  0  0  0  0  0  0  0  0  0  0
   56.8670   28.5320   44.9370 N   0  0  0  0  0  0  0  0  0  0  0  0
   55.8880   29.3470   44.4660 C   0  0  0  0  0  0  0  0  0  0  0  0
   56.2220   30.5610   43.8660 C   0  0  0  0  0  0  0  0  0  0  0  0
   57.5720   30.9050   43.7690 C   0  0  0  0  0  0  0  0  0  0  0  0
   58.0590   32.4620   43.0330 S   0  0  0  0  0  0  0  0  0  0  0  0
   58.4260   33.2090   44.6220 C   0  0  0  0  0  0  0  0  0  0  0  0
   57.8480   32.6920   45.7880 C   0  0  0  0  0  0  0  0  0  0  0  0
   58.1220   33.2810   47.0260 C   0  0  0  0  0  0  0  0  0  0  0  0
   58.9750   34.3880   47.1010 C   0  0  0  0  0  0  0  0  0  0  0  0
   59.2350   34.9620   48.3010 F   0  0  0  0  0  0  0  0  0  0  0  0
   59.5540   34.9050   45.9370 C   0  0  0  0  0  0  0  0  0  0  0  0
   59.2800   34.3170   44.6980 C   0  0  0  0  0  0  0  0  0  0  0  0
   58.5210   30.0620   44.2520 N   0  0  0  0  0  0  0  0  0  0  0  0
   60.3620   30.0840   48.6660 N   0  0  0  0  0  0  0  0  0  0  0  0
   59.9480   31.1640   49.5160 C   0  0  0  0  0  0  0  0  0  0  0  0
   58.8300   31.0480   50.3650 C   0  0  0  0  0  0  0  0  0  0  0  0
   58.4400   32.1200   51.1720 C   0  0  0  0  0  0  0  0  0  0  0  0
   59.1680   33.3100   51.1540 C   0  0  0  0  0  0  0  0  0  0  0  0
   60.2960   33.4290   50.3400 C   0  0  0  0  0  0  0  0  0  0  0  0
   60.7010   32.3590   49.5270 C   0  0  0  0  0  0  0  0  0  0  0  0
   61.8740   32.5110   48.7040 N   0  0  0  0  0  0  0  0  0  0  0  0
   61.7340   32.6790   47.2560 C   0  0  0  0  0  0  0  0  0  0  0  0
   62.8600   33.5760   46.7360 C   0  0  0  0  0  0  0  0  0  0  0  0
   64.1230   33.0940   47.1610 O   0  0  0  0  0  0  0  0  0  0  0  0
   64.2230   33.1840   48.5700 C   0  0  0  0  0  0  0  0  0  0  0  0
   63.2110   32.2530   49.2450 C   0  0  0  0  0  0  0  0  0  0  0  0
   60.3849   30.0074   45.6806 H   0  0  0  0  0  0  0  0  0  0  0  0
   61.3510   28.7757   46.5720 H   0  0  0  0  0  0  0  0  0  0  0  0
   54.8328   29.0500   44.5576 H   0  0  0  0  0  0  0  0  0  0  0  0
   55.4408   31.2314   43.4785 H   0  0  0  0  0  0  0  0  0  0  0  0
   57.1778   31.8217   45.7298 H   0  0  0  0  0  0  0  0  0  0  0  0
   57.6671   32.8743   47.9412 H   0  0  0  0  0  0  0  0  0  0  0  0
   60.2252   35.7745   45.9964 H   0  0  0  0  0  0  0  0  0  0  0  0
   59.7350   34.7245   43.7832 H   0  0  0  0  0  0  0  0  0  0  0  0
   58.2603   30.1074   50.3929 H   0  0  0  0  0  0  0  0  0  0  0  0
   57.5579   32.0255   51.8223 H   0  0  0  0  0  0  0  0  0  0  0  0
   58.8527   34.1560   51.7823 H   0  0  0  0  0  0  0  0  0  0  0  0
   60.8707   34.3669   50.3358 H   0  0  0  0  0  0  0  0  0  0  0  0
   61.7918   31.6962   46.7654 H   0  0  0  0  0  0  0  0  0  0  0  0
   60.7621   33.1433   47.0327 H   0  0  0  0  0  0  0  0  0  0  0  0
   62.8308   33.5909   45.6365 H   0  0  0  0  0  0  0  0  0  0  0  0
   62.7165   34.5905   47.1361 H   0  0  0  0  0  0  0  0  0  0  0  0
   65.2391   32.8976   48.8789 H   0  0  0  0  0  0  0  0  0  0  0  0
   64.0091   34.2192   48.8744 H   0  0  0  0  0  0  0  0  0  0  0  0
   63.4893   31.2066   49.0513 H   0  0  0  0  0  0  0  0  0  0  0  0
   63.2097   32.4372   50.3295 H   0  0  0  0  0  0  0  0  0  0  0  0
  1  2  2  0
  2  3  1  0
  3  4  1  0
  4  5  1  0
  5  6  2  0
  6  7  1  0
  7  8  2  0
  8  9  1  0
  9 10  1  0
 10 11  1  0
 11 12  2  0
 12 13  1  0
 13 14  2  0
 14 15  1  0
 14 16  1  0
 16 17  2  0
  9 18  2  0
  2 19  1  0
 19 20  1  0
 20 21  2  0
 21 22  1  0
 22 23  2  0
 23 24  1  0
 24 25  2  0
 25 26  1  0
 26 27  1  0
 27 28  1  0
 28 29  1  0
 29 30  1  0
 30 31  1  0
 18  5  1  0
 25 20  1  0
 31 26  1  0
 17 11  1  0
  3 32  1  0
  3 33  1  0
  7 34  1  0
  8 35  1  0
 12 36  1  0
 13 37  1  0
 16 38  1  0
 17 39  1  0
 21 40  1  0
 22 41  1  0
 23 42  1  0
 24 43  1  0
 27 44  1  0
 27 45  1  0
 28 46  1  0
 28 47  1  0
 30 48  1  0
 30 49  1  0
 31 50  1  0
 31 51  1  0
M  CHG  1  19  -1
M  END
>  <UniqueID>  (62) 
58

>  <SMILES>  (62) 
O=C(CSc1nccc(Sc2ccc(F)cc2)n1)[N-]c1ccccc1N1CCOCC1

>  <Energy>  (62) 
56.66714128108026

>  <Genealogy>  (62) 
O=C(CSc1nccc(Sc2ccc(F)cc2)n1)[N-]c1ccccc1N1CCOCC1 (protonated)
O=C(CSc1nccc(Sc2ccc(F)cc2)n1)[N-]c1ccccc1N1CCOCC1 (3D coordinates assigned)
O=C(CSc1nccc(Sc2ccc(F)cc2)n1)[N-]c1ccccc1N1CCOCC1 (nonaromatic ring conformer: 56.66714128108026 kcal/mol)

>  <smiles>  (62) 
O=C(CSc1nccc(Sc2ccc(F)cc2)n1)Nc1ccccc1N1CCOCC1

>  <score_type>  (62) 
oracle

>  <origin>  (62) 
adg

>  <m_score__min__energy>  (62) 
-11.16

>  <m_primary>  (62) 
energy

$$$$
62:0
     RDKit          3D

 41 42  0  0  0  0  0  0  0  0999 V2000
   57.3530   34.2000   45.3590 C   0  0  0  0  0  0  0  0  0  0  0  0
   58.7000   34.6530   45.4040 O   0  0  0  0  0  0  0  0  0  0  0  0
   59.6640   34.0780   46.2350 C   0  0  0  0  0  0  0  0  0  0  0  0
   60.8910   34.2590   46.0020 O   0  0  0  0  0  0  0  0  0  0  0  0
   59.2610   33.2610   47.3930 C   0  0  0  0  0  0  0  0  0  0  0  0
   59.3850   33.7660   48.9960 S   0  0  0  0  0  0  0  0  0  0  0  0
   58.7510   32.3310   49.6140 C   0  0  0  0  0  0  0  0  0  0  0  0
   58.5670   32.0320   50.8670 N   0  0  0  0  0  0  0  0  0  0  0  0
   57.4710   32.4060   51.7170 C   0  0  0  0  0  0  0  0  0  0  0  0
   57.5700   33.4590   52.4000 O   0  0  0  0  0  0  0  0  0  0  0  0
   56.2920   31.6000   51.8170 N   0  0  0  0  0  0  0  0  0  0  0  0
   56.1140   30.5260   52.7910 C   0  0  2  0  0  0  0  0  0  0  0  0
   57.4110   29.7050   52.8500 C   0  0  0  0  0  0  0  0  0  0  0  0
   57.8380   29.3750   51.5560 O   0  0  0  0  0  0  0  0  0  0  0  0
   54.8960   29.6680   52.3880 C   0  0  0  0  0  0  0  0  0  0  0  0
   53.6270   30.4760   52.2850 C   0  0  0  0  0  0  0  0  0  0  0  0
   53.2390   31.0260   51.0520 C   0  0  0  0  0  0  0  0  0  0  0  0
   52.0710   31.7890   50.9570 C   0  0  0  0  0  0  0  0  0  0  0  0
   51.2840   32.0110   52.0920 C   0  0  0  0  0  0  0  0  0  0  0  0
   50.1260   32.7730   51.9960 O   0  0  0  0  0  0  0  0  0  0  0  0
   51.6660   31.4690   53.3230 C   0  0  0  0  0  0  0  0  0  0  0  0
   52.8320   30.7040   53.4220 C   0  0  0  0  0  0  0  0  0  0  0  0
   58.4460   31.4620   48.6260 N   0  0  0  0  0  0  0  0  0  0  0  0
   58.7230   31.9660   47.3910 C   0  0  0  0  0  0  0  0  0  0  0  0
   58.4600   31.1600   46.1580 C   0  0  0  0  0  0  0  0  0  0  0  0
   56.9745   34.0727   46.3840 H   0  0  0  0  0  0  0  0  0  0  0  0
   56.7349   34.9397   44.8291 H   0  0  0  0  0  0  0  0  0  0  0  0
   57.3075   33.2371   44.8291 H   0  0  0  0  0  0  0  0  0  0  0  0
   55.9141   30.9271   53.7956 H   0  0  0  0  0  0  0  0  0  0  0  0
   58.1922   30.2963   53.3500 H   0  0  0  0  0  0  0  0  0  0  0  0
   57.2222   28.7781   53.4114 H   0  0  0  0  0  0  0  0  0  0  0  0
   57.7610   30.2080   51.0200 H   0  0  0  0  0  0  0  0  0  0  0  0
   55.0990   29.2046   51.4112 H   0  0  0  0  0  0  0  0  0  0  0  0
   54.7469   28.9114   53.1724 H   0  0  0  0  0  0  0  0  0  0  0  0
   53.8564   30.8558   50.1577 H   0  0  0  0  0  0  0  0  0  0  0  0
   51.7706   32.2152   49.9884 H   0  0  0  0  0  0  0  0  0  0  0  0
   51.0477   31.6449   54.2156 H   0  0  0  0  0  0  0  0  0  0  0  0
   53.1283   30.2792   54.3924 H   0  0  0  0  0  0  0  0  0  0  0  0
   58.1305   30.1501   46.4435 H   0  0  0  0  0  0  0  0  0  0  0  0
   57.6743   31.6473   45.5621 H   0  0  0  0  0  0  0  0  0  0  0  0
   59.3819   31.0901   45.5621 H   0  0  0  0  0  0  0  0  0  0  0  0
  1  2  1  0
  2  3  1  0
  3  4  2  0
  3  5  1  0
  5  6  1  0
  6  7  1  0
  7  8  2  3
  8  9  1  0
  9 10  2  0
  9 11  1  0
 11 12  1  0
 12 13  1  0
 13 14  1  0
 12 15  1  0
 15 16  1  0
 16 17  2  0
 17 18  1  0
 18 19  2  0
 19 20  1  0
 19 21  1  0
 21 22  2  0
  7 23  1  0
 23 24  1  0
 24 25  1  0
 24  5  2  0
 22 16  1  0
  1 26  1  0
  1 27  1  0
  1 28  1  0
 12 29  1  1
 13 30  1  0
 13 31  1  0
 14 32  1  0
 15 33  1  0
 15 34  1  0
 17 35  1  0
 18 36  1  0
 21 37  1  0
 22 38  1  0
 25 39  1  0
 25 40  1  0
 25 41  1  0
M  CHG  3  11  -1  20  -1  23  -1
M  END
>  <UniqueID>  (63) 
59

>  <SMILES>  (63) 
COC(=O)c1sc(=NC(=O)[N-][C@H](CO)Cc2ccc([O-])cc2)[n-]c1C

>  <Energy>  (63) 
66.4936429864456

>  <Genealogy>  (63) 
COC(=O)c1sc(=NC(=O)[N-]C(CO)Cc2ccc([O-])cc2)[n-]c1C (protonated)
COC(=O)c1sc(=NC(=O)[N-][C@H](CO)Cc2ccc([O-])cc2)[n-]c1C (chirality)
COC(=O)c1sc(=NC(=O)[N-][C@H](CO)Cc2ccc([O-])cc2)[n-]c1C (3D coordinates assigned)
COC(=O)c1sc(=NC(=O)[N-][C@H](CO)Cc2ccc([O-])cc2)[n-]c1C (optimized conformer: 66.4936429864456 kcal/mol)

>  <smiles>  (63) 
COC(=O)c1sc(=NC(=O)NC(CO)Cc2ccc(O)cc2)[nH]c1C

>  <score_type>  (63) 
oracle

>  <origin>  (63) 
adg

>  <m_score__min__energy>  (63) 
-11.49

>  <m_primary>  (63) 
energy

$$$$
63:0
     RDKit          3D

 38 40  0  0  0  0  0  0  0  0999 V2000
   66.8980   32.9430   49.7720 N   0  0  0  0  0  0  0  0  0  0  0  0
   66.5980   31.7000   50.4780 C   0  0  0  0  0  0  0  0  0  0  0  0
   65.1390   31.6740   50.9380 C   0  0  0  0  0  0  0  0  0  0  0  0
   64.2120   32.0750   49.8300 C   0  0  0  0  0  0  0  0  0  0  0  0
   62.8830   31.7010   49.7160 C   0  0  0  0  0  0  0  0  0  0  0  0
   62.4010   32.3170   48.6290 N   0  0  0  0  0  0  0  0  0  0  0  0
   61.1590   32.2800   48.0870 C   0  0  0  0  0  0  0  0  0  0  0  0
   60.9110   33.0360   46.9210 C   0  0  0  0  0  0  0  0  0  0  0  0
   59.5700   33.0310   46.2840 C   0  0  0  0  0  0  0  0  0  0  0  0
   58.8310   34.2220   46.1680 C   0  0  0  0  0  0  0  0  0  0  0  0
   57.5710   34.2170   45.5630 C   0  0  0  0  0  0  0  0  0  0  0  0
   57.0340   33.0250   45.0700 C   0  0  0  0  0  0  0  0  0  0  0  0
   57.7530   31.8290   45.1850 C   0  0  0  0  0  0  0  0  0  0  0  0
   57.0840   30.3260   44.5590 S   0  0  0  0  0  0  0  0  0  0  0  0
   57.3180   30.2640   42.8470 N   0  0  0  0  0  0  0  0  0  0  0  0
   57.7740   29.1570   45.2060 O   0  0  0  0  0  0  0  0  0  0  0  0
   55.6150   30.2490   44.8650 O   0  0  0  0  0  0  0  0  0  0  0  0
   59.0190   31.8360   45.7860 C   0  0  0  0  0  0  0  0  0  0  0  0
   61.9710   33.8010   46.3730 C   0  0  0  0  0  0  0  0  0  0  0  0
   63.2400   33.8060   46.9760 C   0  0  0  0  0  0  0  0  0  0  0  0
   63.4150   33.0360   48.1220 C   0  0  0  0  0  0  0  0  0  0  0  0
   64.5560   32.9260   48.8320 N   0  0  0  0  0  0  0  0  0  0  0  0
   66.7440   32.7740   48.7510 H   0  0  0  0  0  0  0  0  0  0  0  0
   66.1980   33.6630   50.0640 H   0  0  0  0  0  0  0  0  0  0  0  0
   66.7786   30.8498   49.8037 H   0  0  0  0  0  0  0  0  0  0  0  0
   67.2476   31.6320   51.3631 H   0  0  0  0  0  0  0  0  0  0  0  0
   64.8850   30.6555   51.2670 H   0  0  0  0  0  0  0  0  0  0  0  0
   65.0225   32.3901   51.7648 H   0  0  0  0  0  0  0  0  0  0  0  0
   62.3305   31.0282   50.3883 H   0  0  0  0  0  0  0  0  0  0  0  0
   60.3629   31.6748   48.5452 H   0  0  0  0  0  0  0  0  0  0  0  0
   59.2473   35.1634   46.5559 H   0  0  0  0  0  0  0  0  0  0  0  0
   57.0009   35.1536   45.4748 H   0  0  0  0  0  0  0  0  0  0  0  0
   56.0441   33.0262   44.5904 H   0  0  0  0  0  0  0  0  0  0  0  0
   58.1650   30.8360   42.6340 H   0  0  0  0  0  0  0  0  0  0  0  0
   57.5530   29.2750   42.6060 H   0  0  0  0  0  0  0  0  0  0  0  0
   59.5875   30.8980   45.8692 H   0  0  0  0  0  0  0  0  0  0  0  0
   61.7981   34.3976   45.4652 H   0  0  0  0  0  0  0  0  0  0  0  0
   64.0668   34.3982   46.5567 H   0  0  0  0  0  0  0  0  0  0  0  0
  1  2  1  0
  2  3  1  0
  3  4  1  0
  4  5  2  0
  5  6  1  0
  6  7  1  0
  7  8  2  0
  8  9  1  0
  9 10  2  0
 10 11  1  0
 11 12  2  0
 12 13  1  0
 13 14  1  0
 14 15  1  0
 14 16  2  0
 14 17  2  0
 13 18  2  0
  8 19  1  0
 19 20  2  0
 20 21  1  0
 21 22  2  0
 22  4  1  0
 21  6  1  0
 18  9  1  0
  1 23  1  0
  1 24  1  0
  2 25  1  0
  2 26  1  0
  3 27  1  0
  3 28  1  0
  5 29  1  0
  7 30  1  0
 10 31  1  0
 11 32  1  0
 12 33  1  0
 15 34  1  0
 15 35  1  0
 18 36  1  0
 19 37  1  0
 20 38  1  0
M  END
>  <UniqueID>  (64) 
60

>  <SMILES>  (64) 
NCCc1cn2cc(-c3cccc(S(N)(=O)=O)c3)ccc2n1

>  <Energy>  (64) 
73.69721937819595

>  <Genealogy>  (64) 
NCCc1cn2cc(-c3cccc(S(N)(=O)=O)c3)ccc2n1 (3D coordinates assigned)
NCCc1cn2cc(-c3cccc(S(N)(=O)=O)c3)ccc2n1 (optimized conformer: 73.69721937819595 kcal/mol)

>  <smiles>  (64) 
NCCc1cn2cc(-c3cccc(S(N)(=O)=O)c3)ccc2n1

>  <score_type>  (64) 
oracle

>  <origin>  (64) 
adg

>  <m_score__min__energy>  (64) 
-8.3100000000000005

>  <m_primary>  (64) 
energy

$$$$
64:0
     RDKit          3D

 40 42  0  0  0  0  0  0  0  0999 V2000
   58.1450   32.6120   47.8060 C   0  0  0  0  0  0  0  0  0  0  0  0
   58.0390   32.4850   46.3150 C   0  0  0  0  0  0  0  0  0  0  0  0
   57.9550   33.6300   45.5100 C   0  0  0  0  0  0  0  0  0  0  0  0
   57.8220   33.5090   44.1250 C   0  0  0  0  0  0  0  0  0  0  0  0
   57.7620   32.2450   43.5340 C   0  0  0  0  0  0  0  0  0  0  0  0
   57.8320   31.0840   44.3260 C   0  0  0  0  0  0  0  0  0  0  0  0
   57.7820   29.7800   43.7110 N   0  0  0  0  0  0  0  0  0  0  0  0
   57.6760   28.7630   44.7290 C   0  0  0  0  0  0  0  0  0  0  0  0
   56.4640   28.1780   44.9440 N   0  0  0  0  0  0  0  0  0  0  0  0
   56.2840   27.1850   45.8500 C   0  0  0  0  0  0  0  0  0  0  0  0
   55.1420   26.6810   46.0070 O   0  0  0  0  0  0  0  0  0  0  0  0
   57.3610   26.7260   46.6060 C   0  0  0  0  0  0  0  0  0  0  0  0
   58.6270   27.3020   46.4370 C   0  0  0  0  0  0  0  0  0  0  0  0
   59.7510   26.7930   47.2590 C   0  0  0  0  0  0  0  0  0  0  0  0
   60.3460   25.7480   46.8830 O   0  0  0  0  0  0  0  0  0  0  0  0
   60.1710   27.4570   48.5190 C   0  0  0  0  0  0  0  0  0  0  0  0
   60.0190   28.8490   48.6680 C   0  0  0  0  0  0  0  0  0  0  0  0
   60.4140   29.4810   49.8490 C   0  0  0  0  0  0  0  0  0  0  0  0
   60.9740   28.7370   50.8910 C   0  0  0  0  0  0  0  0  0  0  0  0
   61.1440   27.3580   50.7500 C   0  0  0  0  0  0  0  0  0  0  0  0
   61.6940   26.6370   51.7580 F   0  0  0  0  0  0  0  0  0  0  0  0
   60.7470   26.7190   49.5710 C   0  0  0  0  0  0  0  0  0  0  0  0
   58.7990   28.3240   45.4720 C   0  0  0  0  0  0  0  0  0  0  0  0
   60.1100   28.8830   45.2230 C   0  0  0  0  0  0  0  0  0  0  0  0
   61.1600   29.3300   45.0280 N   0  0  0  0  0  0  0  0  0  0  0  0
   57.9590   31.2150   45.7210 C   0  0  0  0  0  0  0  0  0  0  0  0
   57.5104   31.8517   48.2848 H   0  0  0  0  0  0  0  0  0  0  0  0
   59.1907   32.4632   48.1133 H   0  0  0  0  0  0  0  0  0  0  0  0
   57.8116   33.6142   48.1133 H   0  0  0  0  0  0  0  0  0  0  0  0
   57.9940   34.6278   45.9713 H   0  0  0  0  0  0  0  0  0  0  0  0
   57.7644   34.4112   43.4983 H   0  0  0  0  0  0  0  0  0  0  0  0
   57.6594   32.1565   42.4424 H   0  0  0  0  0  0  0  0  0  0  0  0
   58.6610   29.6280   43.1630 H   0  0  0  0  0  0  0  0  0  0  0  0
   56.9920   29.7110   43.0280 H   0  0  0  0  0  0  0  0  0  0  0  0
   57.2175   25.9135   47.3336 H   0  0  0  0  0  0  0  0  0  0  0  0
   59.5864   29.4423   47.8489 H   0  0  0  0  0  0  0  0  0  0  0  0
   60.2840   30.5677   49.9594 H   0  0  0  0  0  0  0  0  0  0  0  0
   61.2806   29.2371   51.8215 H   0  0  0  0  0  0  0  0  0  0  0  0
   60.8856   25.6329   49.4647 H   0  0  0  0  0  0  0  0  0  0  0  0
   57.9960   30.3147   46.3520 H   0  0  0  0  0  0  0  0  0  0  0  0
  1  2  1  0
  2  3  2  0
  3  4  1  0
  4  5  2  0
  5  6  1  0
  6  7  1  0
  7  8  1  0
  8  9  1  0
  9 10  1  0
 10 11  2  0
 10 12  1  0
 12 13  2  0
 13 14  1  0
 14 15  2  0
 14 16  1  0
 16 17  2  0
 17 18  1  0
 18 19  2  0
 19 20  1  0
 20 21  1  0
 20 22  2  0
 13 23  1  0
 23 24  1  0
 24 25  3  0
  6 26  2  0
 26  2  1  0
 23  8  2  0
 22 16  1  0
  1 27  1  0
  1 28  1  0
  1 29  1  0
  3 30  1  0
  4 31  1  0
  5 32  1  0
  7 33  1  0
  7 34  1  0
 12 35  1  0
 17 36  1  0
 18 37  1  0
 19 38  1  0
 22 39  1  0
 26 40  1  0
M  CHG  2   7   1   9  -1
M  END
>  <UniqueID>  (65) 
61

>  <SMILES>  (65) 
Cc1cccc([NH2+]c2[n-]c(=O)cc(C(=O)c3cccc(F)c3)c2C#N)c1

>  <Energy>  (65) 
53.733575325202764

>  <Genealogy>  (65) 
Cc1cccc([NH2+]c2[n-]c(=O)cc(C(=O)c3cccc(F)c3)c2C#N)c1 (protonated)
Cc1cccc([NH2+]c2[n-]c(=O)cc(C(=O)c3cccc(F)c3)c2C#N)c1 (3D coordinates assigned)
Cc1cccc([NH2+]c2[n-]c(=O)cc(C(=O)c3cccc(F)c3)c2C#N)c1 (optimized conformer: 53.733575325202764 kcal/mol)

>  <smiles>  (65) 
Cc1cccc(Nc2[nH]c(=O)cc(C(=O)c3cccc(F)c3)c2C#N)c1

>  <score_type>  (65) 
oracle

>  <origin>  (65) 
adg

>  <m_score__min__energy>  (65) 
-7.9199999999999999

>  <m_primary>  (65) 
energy

$$$$
65:0
     RDKit          3D

 42 44  0  0  0  0  0  0  0  0999 V2000
   56.1970   19.6240   45.5540 C   0  0  0  0  0  0  0  0  0  0  0  0
   56.6120   21.0260   45.2400 C   0  0  0  0  0  0  0  0  0  0  0  0
   57.7810   21.3510   44.6600 N   0  0  0  0  0  0  0  0  0  0  0  0
   57.8110   22.6370   44.4940 O   0  0  0  0  0  0  0  0  0  0  0  0
   56.7070   23.1890   44.9390 C   0  0  0  0  0  0  0  0  0  0  0  0
   56.5090   24.4730   44.8400 N   0  0  0  0  0  0  0  0  0  0  0  0
   56.4450   25.6910   46.0750 S   0  0  0  0  0  0  0  0  0  0  0  0
   55.1460   26.4400   45.9650 O   0  0  0  0  0  0  0  0  0  0  0  0
   56.4830   25.0070   47.4130 O   0  0  0  0  0  0  0  0  0  0  0  0
   57.8490   26.7600   45.9840 C   0  0  0  0  0  0  0  0  0  0  0  0
   59.1270   26.2100   46.1610 C   0  0  0  0  0  0  0  0  0  0  0  0
   60.2630   27.0170   46.0850 C   0  0  0  0  0  0  0  0  0  0  0  0
   60.1330   28.3830   45.8350 C   0  0  0  0  0  0  0  0  0  0  0  0
   58.8670   28.9470   45.6780 C   0  0  0  0  0  0  0  0  0  0  0  0
   57.7120   28.1490   45.7750 C   0  0  0  0  0  0  0  0  0  0  0  0
   56.4060   28.7250   45.6190 N   0  0  0  0  0  0  0  0  0  0  0  0
   56.0000   29.6380   44.5900 C   0  0  0  0  0  0  0  0  0  0  0  0
   54.9000   29.4400   44.0090 O   0  0  0  0  0  0  0  0  0  0  0  0
   56.8060   30.8290   44.2340 C   0  0  0  0  0  0  0  0  0  0  0  0
   57.3830   31.6240   45.2420 C   0  0  0  0  0  0  0  0  0  0  0  0
   58.1550   32.7400   44.9090 C   0  0  0  0  0  0  0  0  0  0  0  0
   58.3530   33.0770   43.5680 C   0  0  0  0  0  0  0  0  0  0  0  0
   57.7700   32.3070   42.5590 C   0  0  0  0  0  0  0  0  0  0  0  0
   56.9940   31.1910   42.8850 C   0  0  0  0  0  0  0  0  0  0  0  0
   56.4550   30.4490   41.8850 F   0  0  0  0  0  0  0  0  0  0  0  0
   55.8780   22.1840   45.4620 C   0  0  0  0  0  0  0  0  0  0  0  0
   54.4780   22.2290   46.0020 C   0  0  0  0  0  0  0  0  0  0  0  0
   56.1571   19.4891   46.6450 H   0  0  0  0  0  0  0  0  0  0  0  0
   55.2031   19.4308   45.1240 H   0  0  0  0  0  0  0  0  0  0  0  0
   56.9256   18.9209   45.1240 H   0  0  0  0  0  0  0  0  0  0  0  0
   58.5420   20.6960   44.3700 H   0  0  0  0  0  0  0  0  0  0  0  0
   59.2348   25.1338   46.3614 H   0  0  0  0  0  0  0  0  0  0  0  0
   61.2612   26.5757   46.2223 H   0  0  0  0  0  0  0  0  0  0  0  0
   61.0296   29.0160   45.7616 H   0  0  0  0  0  0  0  0  0  0  0  0
   58.7707   30.0241   45.4768 H   0  0  0  0  0  0  0  0  0  0  0  0
   57.2251   31.3649   46.2993 H   0  0  0  0  0  0  0  0  0  0  0  0
   58.6068   33.3531   45.7028 H   0  0  0  0  0  0  0  0  0  0  0  0
   58.9689   33.9500   43.3062 H   0  0  0  0  0  0  0  0  0  0  0  0
   57.9220   32.5797   41.5042 H   0  0  0  0  0  0  0  0  0  0  0  0
   54.5089   22.2280   47.1016 H   0  0  0  0  0  0  0  0  0  0  0  0
   53.9785   23.1437   45.6501 H   0  0  0  0  0  0  0  0  0  0  0  0
   53.9208   21.3483   45.6501 H   0  0  0  0  0  0  0  0  0  0  0  0
  1  2  1  0
  2  3  1  0
  3  4  1  0
  4  5  1  0
  5  6  2  3
  6  7  1  0
  7  8  2  0
  7  9  2  0
  7 10  1  0
 10 11  2  0
 11 12  1  0
 12 13  2  0
 13 14  1  0
 14 15  2  0
 15 16  1  0
 16 17  1  0
 17 18  2  0
 17 19  1  0
 19 20  2  0
 20 21  1  0
 21 22  2  0
 22 23  1  0
 23 24  2  0
 24 25  1  0
  5 26  1  0
 26 27  1  0
 26  2  2  0
 15 10  1  0
 24 19  1  0
  1 28  1  0
  1 29  1  0
  1 30  1  0
  3 31  1  0
 11 32  1  0
 12 33  1  0
 13 34  1  0
 14 35  1  0
 20 36  1  0
 21 37  1  0
 22 38  1  0
 23 39  1  0
 27 40  1  0
 27 41  1  0
 27 42  1  0
M  CHG  1  16  -1
M  END
>  <UniqueID>  (66) 
62

>  <SMILES>  (66) 
Cc1[nH]oc(=NS(=O)(=O)c2ccccc2[N-]C(=O)c2ccccc2F)c1C

>  <Energy>  (66) 
93.1616524264032

>  <Genealogy>  (66) 
Cc1[nH]oc(=NS(=O)(=O)c2ccccc2[N-]C(=O)c2ccccc2F)c1C (protonated)
Cc1[nH]oc(=NS(=O)(=O)c2ccccc2[N-]C(=O)c2ccccc2F)c1C (3D coordinates assigned)
Cc1[nH]oc(=NS(=O)(=O)c2ccccc2[N-]C(=O)c2ccccc2F)c1C (optimized conformer: 93.1616524264032 kcal/mol)

>  <smiles>  (66) 
Cc1[nH]oc(=NS(=O)(=O)c2ccccc2NC(=O)c2ccccc2F)c1C

>  <score_type>  (66) 
oracle

>  <origin>  (66) 
adg

>  <m_score__min__energy>  (66) 
-11.609999999999999

>  <m_primary>  (66) 
energy

$$$$
66:0
     RDKit          3D

 55 58  0  0  0  0  0  0  0  0999 V2000
   55.6730   30.4440   54.0920 C   0  0  0  0  0  0  0  0  0  0  0  0
   56.7660   31.0410   53.2450 C   0  0  0  0  0  0  0  0  0  0  0  0
   56.6580   30.9880   51.8470 C   0  0  0  0  0  0  0  0  0  0  0  0
   57.6560   31.5270   51.0330 C   0  0  0  0  0  0  0  0  0  0  0  0
   58.7870   32.1370   51.5990 C   0  0  0  0  0  0  0  0  0  0  0  0
   59.8580   32.7140   50.7520 C   0  0  0  0  0  0  0  0  0  0  0  0
   59.7460   33.9060   50.3520 O   0  0  0  0  0  0  0  0  0  0  0  0
   61.0170   31.9440   50.3860 N   0  0  0  0  0  0  0  0  0  0  0  0
   62.0780   32.4620   49.5670 C   0  0  0  0  0  0  0  0  0  0  0  0
   63.3580   32.6690   50.1110 C   0  0  0  0  0  0  0  0  0  0  0  0
   64.3710   33.2410   49.3380 C   0  0  0  0  0  0  0  0  0  0  0  0
   64.1140   33.6250   48.0220 C   0  0  0  0  0  0  0  0  0  0  0  0
   62.8440   33.4370   47.4720 C   0  0  0  0  0  0  0  0  0  0  0  0
   61.8190   32.8560   48.2360 C   0  0  0  0  0  0  0  0  0  0  0  0
   60.5290   32.6360   47.6400 N   0  0  0  0  0  0  0  0  0  0  0  0
   59.7100   33.7930   47.2560 C   0  0  0  0  0  0  0  0  0  0  0  0
   58.3220   33.3570   46.7760 C   0  0  0  0  0  0  0  0  0  0  0  0
   58.4490   32.2530   45.8170 N   0  0  0  0  0  0  0  0  0  0  0  0
   57.8450   32.3650   44.5190 C   0  0  0  0  0  0  0  0  0  0  0  0
   58.0360   33.4040   43.8330 O   0  0  0  0  0  0  0  0  0  0  0  0
   57.0010   31.2930   43.9700 C   0  0  0  0  0  0  0  0  0  0  0  0
   57.0220   30.8100   42.6760 C   0  0  0  0  0  0  0  0  0  0  0  0
   56.0820   29.8030   42.6400 C   0  0  0  0  0  0  0  0  0  0  0  0
   55.5500   29.7300   43.9100 C   0  0  0  0  0  0  0  0  0  0  0  0
   56.1200   30.6270   44.6810 O   0  0  0  0  0  0  0  0  0  0  0  0
   59.3490   31.1240   46.1000 C   0  0  0  0  0  0  0  0  0  0  0  0
   60.0210   31.2690   47.4710 C   0  0  0  0  0  0  0  0  0  0  0  0
   58.9090   32.1720   52.9990 C   0  0  0  0  0  0  0  0  0  0  0  0
   57.9150   31.6250   53.8280 C   0  0  0  0  0  0  0  0  0  0  0  0
   58.0790   31.6970   55.3250 C   0  0  0  0  0  0  0  0  0  0  0  0
   55.9188   30.5782   55.1558 H   0  0  0  0  0  0  0  0  0  0  0  0
   54.7205   30.9471   53.8694 H   0  0  0  0  0  0  0  0  0  0  0  0
   55.5815   29.3706   53.8694 H   0  0  0  0  0  0  0  0  0  0  0  0
   55.7770   30.5164   51.3872 H   0  0  0  0  0  0  0  0  0  0  0  0
   57.5554   31.4734   49.9389 H   0  0  0  0  0  0  0  0  0  0  0  0
   61.1280   30.9720   50.7510 H   0  0  0  0  0  0  0  0  0  0  0  0
   63.5629   32.3786   51.1520 H   0  0  0  0  0  0  0  0  0  0  0  0
   65.3728   33.3888   49.7677 H   0  0  0  0  0  0  0  0  0  0  0  0
   64.9132   34.0768   47.4160 H   0  0  0  0  0  0  0  0  0  0  0  0
   62.6457   33.7457   46.4350 H   0  0  0  0  0  0  0  0  0  0  0  0
   59.5963   34.4563   48.1261 H   0  0  0  0  0  0  0  0  0  0  0  0
   60.2143   34.3171   46.4307 H   0  0  0  0  0  0  0  0  0  0  0  0
   57.7257   33.0242   47.6384 H   0  0  0  0  0  0  0  0  0  0  0  0
   57.8247   34.2070   46.2859 H   0  0  0  0  0  0  0  0  0  0  0  0
   57.6567   31.1569   41.8472 H   0  0  0  0  0  0  0  0  0  0  0  0
   55.8108   29.1826   41.7731 H   0  0  0  0  0  0  0  0  0  0  0  0
   54.7666   29.0267   44.2290 H   0  0  0  0  0  0  0  0  0  0  0  0
   58.7670   30.1907   46.0844 H   0  0  0  0  0  0  0  0  0  0  0  0
   60.1352   31.1090   45.3308 H   0  0  0  0  0  0  0  0  0  0  0  0
   59.2867   31.0531   48.2611 H   0  0  0  0  0  0  0  0  0  0  0  0
   60.8605   30.5613   47.5379 H   0  0  0  0  0  0  0  0  0  0  0  0
   59.7974   32.6353   53.4531 H   0  0  0  0  0  0  0  0  0  0  0  0
   57.1760   31.3006   55.8123 H   0  0  0  0  0  0  0  0  0  0  0  0
   58.9514   31.0991   55.6275 H   0  0  0  0  0  0  0  0  0  0  0  0
   58.2293   32.7439   55.6275 H   0  0  0  0  0  0  0  0  0  0  0  0
  1  2  1  0
  2  3  2  0
  3  4  1  0
  4  5  2  0
  5  6  1  0
  6  7  2  0
  6  8  1  0
  8  9  1  0
  9 10  2  0
 10 11  1  0
 11 12  2  0
 12 13  1  0
 13 14  2  0
 14 15  1  0
 15 16  1  0
 16 17  1  0
 17 18  1  0
 18 19  1  0
 19 20  2  0
 19 21  1  0
 21 22  2  0
 22 23  1  0
 23 24  2  0
 24 25  1  0
 18 26  1  0
 26 27  1  0
  5 28  1  0
 28 29  2  0
 29 30  1  0
 29  2  1  0
 14  9  1  0
 27 15  1  0
 25 21  1  0
  1 31  1  0
  1 32  1  0
  1 33  1  0
  3 34  1  0
  4 35  1  0
  8 36  1  0
 10 37  1  0
 11 38  1  0
 12 39  1  0
 13 40  1  0
 16 41  1  0
 16 42  1  0
 17 43  1  0
 17 44  1  0
 22 45  1  0
 23 46  1  0
 24 47  1  0
 26 48  1  0
 26 49  1  0
 27 50  1  0
 27 51  1  0
 28 52  1  0
 30 53  1  0
 30 54  1  0
 30 55  1  0
M  END
>  <UniqueID>  (67) 
63

>  <SMILES>  (67) 
Cc1ccc(C(=O)Nc2ccccc2N2CCN(C(=O)c3ccco3)CC2)cc1C

>  <Energy>  (67) 
99.57135788354252

>  <Genealogy>  (67) 
Cc1ccc(C(=O)Nc2ccccc2N2CCN(C(=O)c3ccco3)CC2)cc1C (3D coordinates assigned)
Cc1ccc(C(=O)Nc2ccccc2N2CCN(C(=O)c3ccco3)CC2)cc1C (nonaromatic ring conformer: 99.57135788354252 kcal/mol)

>  <smiles>  (67) 
Cc1ccc(C(=O)Nc2ccccc2N2CCN(C(=O)c3ccco3)CC2)cc1C

>  <score_type>  (67) 
oracle

>  <origin>  (67) 
adg

>  <m_score__min__energy>  (67) 
-8.1699999999999999

>  <m_primary>  (67) 
energy

$$$$
67:0
     RDKit          3D

 27 28  0  0  0  0  0  0  0  0999 V2000
   55.1850   29.8360   44.7810 N   0  0  0  0  0  0  0  0  0  0  0  0
   56.8580   30.1860   44.5320 S   0  0  0  0  0  0  0  0  0  0  0  0
   57.2200   31.4670   45.2310 O   0  0  0  0  0  0  0  0  0  0  0  0
   57.1170   30.3420   43.0590 O   0  0  0  0  0  0  0  0  0  0  0  0
   57.8350   28.8760   45.1650 C   0  0  0  0  0  0  0  0  0  0  0  0
   58.9180   29.0220   46.0200 C   0  0  0  0  0  0  0  0  0  0  0  0
   59.5120   27.8020   46.3610 C   0  0  0  0  0  0  0  0  0  0  0  0
   58.8820   26.7050   45.7810 C   0  0  0  0  0  0  0  0  0  0  0  0
   59.3250   25.2810   45.9050 C   0  0  0  0  0  0  0  0  0  0  0  0
   58.1700   24.3960   46.0180 N   0  0  0  0  0  0  0  0  0  0  0  0
   57.0800   24.7340   46.6370 C   0  0  0  0  0  0  0  0  0  0  0  0
   55.7410   24.3550   46.1190 C   0  0  0  0  0  0  0  0  0  0  0  0
   54.8010   25.3570   45.8150 C   0  0  0  0  0  0  0  0  0  0  0  0
   55.1090   26.7010   45.9940 O   0  0  0  0  0  0  0  0  0  0  0  0
   53.5750   25.0210   45.3380 N   0  0  0  0  0  0  0  0  0  0  0  0
   53.2280   23.7240   45.1460 C   0  0  0  0  0  0  0  0  0  0  0  0
   51.7450   23.3540   44.5730 S   0  0  0  0  0  0  0  0  0  0  0  0
   54.1110   22.7360   45.4300 N   0  0  0  0  0  0  0  0  0  0  0  0
   55.3510   23.0130   45.9080 C   0  0  0  0  0  0  0  0  0  0  0  0
   56.1360   22.0590   46.1540 O   0  0  0  0  0  0  0  0  0  0  0  0
   57.6050   27.2450   44.8270 S   0  0  0  0  0  0  0  0  0  0  0  0
   55.1380   28.9700   45.3630 H   0  0  0  0  0  0  0  0  0  0  0  0
   59.2725   29.9950   46.3909 H   0  0  0  0  0  0  0  0  0  0  0  0
   60.3882   27.7184   47.0207 H   0  0  0  0  0  0  0  0  0  0  0  0
   59.9079   25.0040   45.0142 H   0  0  0  0  0  0  0  0  0  0  0  0
   59.9432   25.1774   46.8089 H   0  0  0  0  0  0  0  0  0  0  0  0
   57.1501   25.3155   47.5681 H   0  0  0  0  0  0  0  0  0  0  0  0
  1  2  1  0
  2  3  2  0
  2  4  2  0
  2  5  1  0
  5  6  2  0
  6  7  1  0
  7  8  2  0
  8  9  1  0
  9 10  1  0
 10 11  2  3
 11 12  1  0
 12 13  2  0
 13 14  1  0
 13 15  1  0
 15 16  1  0
 16 17  2  0
 16 18  1  0
 18 19  1  0
 19 20  2  0
  8 21  1  0
 21  5  1  0
 19 12  1  0
  1 22  1  0
  6 23  1  0
  7 24  1  0
  9 25  1  0
  9 26  1  0
 11 27  1  0
M  CHG  4   1  -1  14  -1  15  -1  18  -1
M  END
>  <UniqueID>  (68) 
64

>  <SMILES>  (68) 
[NH-]S(=O)(=O)c1ccc(CN=Cc2c([O-])[n-]c(=S)[n-]c2=O)s1

>  <Energy>  (68) 
53.96953112672682

>  <Genealogy>  (68) 
[NH-]S(=O)(=O)c1ccc(CN=Cc2c([O-])[n-]c(=S)[n-]c2=O)s1 (protonated)
[NH-]S(=O)(=O)c1ccc(CN=Cc2c([O-])[n-]c(=S)[n-]c2=O)s1 (3D coordinates assigned)
[NH-]S(=O)(=O)c1ccc(CN=Cc2c([O-])[n-]c(=S)[n-]c2=O)s1 (optimized conformer: 53.96953112672682 kcal/mol)

>  <smiles>  (68) 
NS(=O)(=O)c1ccc(CN=Cc2c(O)[nH]c(=S)[nH]c2=O)s1

>  <score_type>  (68) 
oracle

>  <origin>  (68) 
adg

>  <m_score__min__energy>  (68) 
-16.190000000000001

>  <m_primary>  (68) 
energy

$$$$
68:0
     RDKit          3D

 42 44  0  0  0  0  0  0  0  0999 V2000
   57.8660   34.4200   46.7410 O   0  0  0  0  0  0  0  0  0  0  0  0
   58.6420   33.5390   46.2780 C   0  0  0  0  0  0  0  0  0  0  0  0
   59.8820   33.2640   46.9490 N   0  0  0  0  0  0  0  0  0  0  0  0
   60.2260   33.8730   48.2320 C   0  0  0  0  0  0  0  0  0  0  0  0
   61.6700   33.6240   48.5530 C   0  0  0  0  0  0  0  0  0  0  0  0
   62.2290   34.0710   49.7610 C   0  0  0  0  0  0  0  0  0  0  0  0
   63.5820   33.8340   50.0170 C   0  0  0  0  0  0  0  0  0  0  0  0
   64.3610   33.1610   49.0730 C   0  0  0  0  0  0  0  0  0  0  0  0
   63.7720   32.7330   47.8800 C   0  0  0  0  0  0  0  0  0  0  0  0
   62.4530   32.9710   47.6490 N   0  0  0  0  0  0  0  0  0  0  0  0
   58.2640   32.8160   45.0400 C   0  0  0  0  0  0  0  0  0  0  0  0
   58.5290   33.3890   43.7840 C   0  0  0  0  0  0  0  0  0  0  0  0
   58.1740   32.7220   42.6090 C   0  0  0  0  0  0  0  0  0  0  0  0
   57.5390   31.4810   42.6730 C   0  0  0  0  0  0  0  0  0  0  0  0
   57.2490   30.9050   43.9160 C   0  0  0  0  0  0  0  0  0  0  0  0
   56.4330   29.3460   44.0000 S   0  0  0  0  0  0  0  0  0  0  0  0
   54.9670   29.4900   43.6980 O   0  0  0  0  0  0  0  0  0  0  0  0
   57.0500   28.4290   42.9820 O   0  0  0  0  0  0  0  0  0  0  0  0
   56.6260   28.6450   45.5760 N   0  0  0  0  0  0  0  0  0  0  0  0
   57.1110   27.3310   45.8890 C   0  0  0  0  0  0  0  0  0  0  0  0
   58.4980   27.1550   45.9850 C   0  0  0  0  0  0  0  0  0  0  0  0
   59.0390   25.9020   46.2860 C   0  0  0  0  0  0  0  0  0  0  0  0
   58.1970   24.8100   46.4990 C   0  0  0  0  0  0  0  0  0  0  0  0
   56.8140   24.9670   46.3960 C   0  0  0  0  0  0  0  0  0  0  0  0
   56.2640   26.2170   46.0890 C   0  0  0  0  0  0  0  0  0  0  0  0
   54.9190   26.3080   45.9710 F   0  0  0  0  0  0  0  0  0  0  0  0
   57.6160   31.5680   45.0950 C   0  0  0  0  0  0  0  0  0  0  0  0
   60.5980   32.6530   46.4960 H   0  0  0  0  0  0  0  0  0  0  0  0
   60.0472   34.9571   48.1792 H   0  0  0  0  0  0  0  0  0  0  0  0
   59.6011   33.4273   49.0199 H   0  0  0  0  0  0  0  0  0  0  0  0
   61.6085   34.6020   50.4979 H   0  0  0  0  0  0  0  0  0  0  0  0
   64.0327   34.1767   50.9601 H   0  0  0  0  0  0  0  0  0  0  0  0
   65.4268   32.9698   49.2665 H   0  0  0  0  0  0  0  0  0  0  0  0
   64.3753   32.2036   47.1278 H   0  0  0  0  0  0  0  0  0  0  0  0
   59.0203   34.3715   43.7259 H   0  0  0  0  0  0  0  0  0  0  0  0
   58.3954   33.1758   41.6317 H   0  0  0  0  0  0  0  0  0  0  0  0
   57.2661   30.9549   41.7464 H   0  0  0  0  0  0  0  0  0  0  0  0
   59.1679   28.0121   45.8217 H   0  0  0  0  0  0  0  0  0  0  0  0
   60.1296   25.7766   46.3550 H   0  0  0  0  0  0  0  0  0  0  0  0
   58.6226   23.8267   46.7478 H   0  0  0  0  0  0  0  0  0  0  0  0
   56.1522   24.1032   46.5571 H   0  0  0  0  0  0  0  0  0  0  0  0
   57.3959   31.1095   46.0704 H   0  0  0  0  0  0  0  0  0  0  0  0
  1  2  2  0
  2  3  1  0
  3  4  1  0
  4  5  1  0
  5  6  2  0
  6  7  1  0
  7  8  2  0
  8  9  1  0
  9 10  2  0
  2 11  1  0
 11 12  2  0
 12 13  1  0
 13 14  2  0
 14 15  1  0
 15 16  1  0
 16 17  2  0
 16 18  2  0
 16 19  1  0
 19 20  1  0
 20 21  2  0
 21 22  1  0
 22 23  2  0
 23 24  1  0
 24 25  2  0
 25 26  1  0
 15 27  2  0
 10  5  1  0
 27 11  1  0
 25 20  1  0
  3 28  1  0
  4 29  1  0
  4 30  1  0
  6 31  1  0
  7 32  1  0
  8 33  1  0
  9 34  1  0
 12 35  1  0
 13 36  1  0
 14 37  1  0
 21 38  1  0
 22 39  1  0
 23 40  1  0
 24 41  1  0
 27 42  1  0
M  CHG  1  19  -1
M  END
>  <UniqueID>  (69) 
65

>  <SMILES>  (69) 
O=C(NCc1ccccn1)c1cccc(S(=O)(=O)[N-]c2ccccc2F)c1

>  <Energy>  (69) 
50.91616752313274

>  <Genealogy>  (69) 
O=C(NCc1ccccn1)c1cccc(S(=O)(=O)[N-]c2ccccc2F)c1 (protonated)
O=C(NCc1ccccn1)c1cccc(S(=O)(=O)[N-]c2ccccc2F)c1 (3D coordinates assigned)
O=C(NCc1ccccn1)c1cccc(S(=O)(=O)[N-]c2ccccc2F)c1 (optimized conformer: 50.91616752313274 kcal/mol)

>  <smiles>  (69) 
O=C(NCc1ccccn1)c1cccc(S(=O)(=O)Nc2ccccc2F)c1

>  <score_type>  (69) 
oracle

>  <origin>  (69) 
adg

>  <m_score__min__energy>  (69) 
-10.289999999999999

>  <m_primary>  (69) 
energy

$$$$
69:0
     RDKit          3D

 39 41  0  0  0  0  0  0  0  0999 V2000
   57.3490   29.9320   44.2460 O   0  0  0  0  0  0  0  0  0  0  0  0
   58.1200   30.3700   45.1440 C   0  0  0  0  0  0  0  0  0  0  0  0
   58.9680   29.4560   45.8610 N   0  0  0  0  0  0  0  0  0  0  0  0
   58.7170   28.0420   45.9510 C   0  0  0  0  0  0  0  0  0  0  0  0
   57.4090   27.5450   46.1070 C   0  0  0  0  0  0  0  0  0  0  0  0
   57.1720   26.1630   46.2180 C   0  0  0  0  0  0  0  0  0  0  0  0
   55.8290   25.6640   46.3730 N   0  0  0  0  0  0  0  0  0  0  0  0
   54.8510   26.3400   45.9930 O   0  0  0  0  0  0  0  0  0  0  0  0
   55.6010   24.4370   46.9520 O   0  0  0  0  0  0  0  0  0  0  0  0
   58.2650   25.2800   46.1840 C   0  0  0  0  0  0  0  0  0  0  0  0
   59.5660   25.7680   46.0500 C   0  0  0  0  0  0  0  0  0  0  0  0
   59.7940   27.1420   45.9410 C   0  0  0  0  0  0  0  0  0  0  0  0
   61.0670   27.5940   45.8090 F   0  0  0  0  0  0  0  0  0  0  0  0
   58.1760   31.8270   45.4110 C   0  0  0  0  0  0  0  0  0  0  0  0
   57.0550   32.6470   45.1830 C   0  0  0  0  0  0  0  0  0  0  0  0
   57.1240   34.0220   45.4190 C   0  0  0  0  0  0  0  0  0  0  0  0
   58.3070   34.5960   45.8880 C   0  0  0  0  0  0  0  0  0  0  0  0
   59.4300   33.8000   46.1310 C   0  0  0  0  0  0  0  0  0  0  0  0
   60.6050   34.4160   46.5860 O   0  0  0  0  0  0  0  0  0  0  0  0
   61.6240   33.7860   47.3160 C   0  0  0  0  0  0  0  0  0  0  0  0
   61.3830   33.4510   48.6550 C   0  0  0  0  0  0  0  0  0  0  0  0
   62.3680   32.8080   49.4110 C   0  0  0  0  0  0  0  0  0  0  0  0
   63.5970   32.4850   48.8300 C   0  0  0  0  0  0  0  0  0  0  0  0
   63.8400   32.7970   47.4900 C   0  0  0  0  0  0  0  0  0  0  0  0
   62.8550   33.4390   46.7310 C   0  0  0  0  0  0  0  0  0  0  0  0
   59.3670   32.4180   45.8720 C   0  0  0  0  0  0  0  0  0  0  0  0
   59.8700   29.8200   46.2400 H   0  0  0  0  0  0  0  0  0  0  0  0
   56.5621   28.2460   46.1425 H   0  0  0  0  0  0  0  0  0  0  0  0
   58.0940   24.1963   46.2636 H   0  0  0  0  0  0  0  0  0  0  0  0
   60.4145   25.0683   46.0302 H   0  0  0  0  0  0  0  0  0  0  0  0
   56.1182   32.2020   44.8165 H   0  0  0  0  0  0  0  0  0  0  0  0
   56.2432   34.6547   45.2347 H   0  0  0  0  0  0  0  0  0  0  0  0
   58.3556   35.6802   46.0672 H   0  0  0  0  0  0  0  0  0  0  0  0
   60.4136   33.6952   49.1140 H   0  0  0  0  0  0  0  0  0  0  0  0
   62.1751   32.5562   50.4643 H   0  0  0  0  0  0  0  0  0  0  0  0
   64.3733   31.9850   49.4277 H   0  0  0  0  0  0  0  0  0  0  0  0
   64.8057   32.5380   47.0315 H   0  0  0  0  0  0  0  0  0  0  0  0
   63.0443   33.6731   45.6730 H   0  0  0  0  0  0  0  0  0  0  0  0
   60.2582   31.7933   46.0316 H   0  0  0  0  0  0  0  0  0  0  0  0
  1  2  2  0
  2  3  1  0
  3  4  1  0
  4  5  2  0
  5  6  1  0
  6  7  1  0
  7  8  2  0
  7  9  1  0
  6 10  2  0
 10 11  1  0
 11 12  2  0
 12 13  1  0
  2 14  1  0
 14 15  2  0
 15 16  1  0
 16 17  2  0
 17 18  1  0
 18 19  1  0
 19 20  1  0
 20 21  2  0
 21 22  1  0
 22 23  2  0
 23 24  1  0
 24 25  2  0
 18 26  2  0
 12  4  1  0
 26 14  1  0
 25 20  1  0
  3 27  1  0
  5 28  1  0
 10 29  1  0
 11 30  1  0
 15 31  1  0
 16 32  1  0
 17 33  1  0
 21 34  1  0
 22 35  1  0
 23 36  1  0
 24 37  1  0
 25 38  1  0
 26 39  1  0
M  CHG  2   7   1   9  -1
M  END
>  <UniqueID>  (70) 
66

>  <SMILES>  (70) 
O=C(Nc1cc([N+](=O)[O-])ccc1F)c1cccc(Oc2ccccc2)c1

>  <Energy>  (70) 
55.64707033251659

>  <Genealogy>  (70) 
O=C(Nc1cc([N+](=O)[O-])ccc1F)c1cccc(Oc2ccccc2)c1 (3D coordinates assigned)
O=C(Nc1cc([N+](=O)[O-])ccc1F)c1cccc(Oc2ccccc2)c1 (optimized conformer: 55.64707033251659 kcal/mol)

>  <smiles>  (70) 
O=C(Nc1cc([N+](=O)[O-])ccc1F)c1cccc(Oc2ccccc2)c1

>  <score_type>  (70) 
oracle

>  <origin>  (70) 
adg

>  <m_score__min__energy>  (70) 
-9.5199999999999996

>  <m_primary>  (70) 
energy

$$$$
70:0
     RDKit          3D

 50 53  0  0  0  0  0  0  0  0999 V2000
   60.0020   32.8990   46.0260 O   0  0  0  0  0  0  0  0  0  0  0  0
   60.3850   31.8660   46.6250 C   0  0  0  0  0  0  0  0  0  0  0  0
   59.8190   30.5860   46.2910 N   0  0  0  0  0  0  0  0  0  0  0  0
   58.7480   30.4010   45.3510 C   0  0  0  0  0  0  0  0  0  0  0  0
   57.7770   31.4030   45.1300 C   0  0  0  0  0  0  0  0  0  0  0  0
   56.7440   31.1920   44.2120 C   0  0  0  0  0  0  0  0  0  0  0  0
   56.6570   29.9750   43.5270 C   0  0  0  0  0  0  0  0  0  0  0  0
   55.6640   29.7790   42.6290 F   0  0  0  0  0  0  0  0  0  0  0  0
   57.5800   28.9620   43.7780 C   0  0  0  0  0  0  0  0  0  0  0  0
   58.6120   29.1700   44.6940 C   0  0  0  0  0  0  0  0  0  0  0  0
   61.4580   31.9690   47.6410 C   0  0  0  0  0  0  0  0  0  0  0  0
   61.4580   31.1410   48.7750 C   0  0  0  0  0  0  0  0  0  0  0  0
   62.4220   31.3440   49.7790 C   0  0  0  0  0  0  0  0  0  0  0  0
   62.3990   30.6100   50.9740 O   0  0  0  0  0  0  0  0  0  0  0  0
   62.0010   29.2730   51.0670 C   0  0  0  0  0  0  0  0  0  0  0  0
   62.4880   28.5020   52.1270 C   0  0  0  0  0  0  0  0  0  0  0  0
   62.1710   27.1460   52.2060 C   0  0  0  0  0  0  0  0  0  0  0  0
   61.4000   26.5420   51.2210 C   0  0  0  0  0  0  0  0  0  0  0  0
   60.8920   27.3030   50.1600 C   0  0  0  0  0  0  0  0  0  0  0  0
   60.1800   26.6390   49.1110 N   0  0  0  0  0  0  0  0  0  0  0  0
   59.5870   27.4240   47.6810 S   0  0  0  0  0  0  0  0  0  0  0  0
   58.9680   28.7320   48.0820 O   0  0  0  0  0  0  0  0  0  0  0  0
   60.7440   27.7120   46.7630 O   0  0  0  0  0  0  0  0  0  0  0  0
   58.3590   26.4710   46.8500 C   0  0  0  0  0  0  0  0  0  0  0  0
   58.7010   25.2690   46.2140 C   0  0  0  0  0  0  0  0  0  0  0  0
   57.7400   24.5640   45.4840 C   0  0  0  0  0  0  0  0  0  0  0  0
   56.4240   25.0290   45.4130 C   0  0  0  0  0  0  0  0  0  0  0  0
   55.2300   24.1050   44.5130 Cl  0  0  0  0  0  0  0  0  0  0  0  0
   56.0740   26.2260   46.0540 C   0  0  0  0  0  0  0  0  0  0  0  0
   54.7740   26.7050   45.9800 O   0  0  0  0  0  0  0  0  0  0  0  0
   57.0420   26.9460   46.7650 C   0  0  0  0  0  0  0  0  0  0  0  0
   61.1870   28.6740   50.0870 C   0  0  0  0  0  0  0  0  0  0  0  0
   63.3870   32.3310   49.6080 C   0  0  0  0  0  0  0  0  0  0  0  0
   63.3910   33.1010   48.4440 C   0  0  0  0  0  0  0  0  0  0  0  0
   62.4300   32.9120   47.5030 N   0  0  0  0  0  0  0  0  0  0  0  0
   60.2710   29.7230   46.6860 H   0  0  0  0  0  0  0  0  0  0  0  0
   57.8339   32.3526   45.6822 H   0  0  0  0  0  0  0  0  0  0  0  0
   56.0005   31.9817   44.0284 H   0  0  0  0  0  0  0  0  0  0  0  0
   57.4953   27.9984   43.2542 H   0  0  0  0  0  0  0  0  0  0  0  0
   59.3261   28.3598   44.9027 H   0  0  0  0  0  0  0  0  0  0  0  0
   60.7106   30.3405   48.8774 H   0  0  0  0  0  0  0  0  0  0  0  0
   63.1210   28.9648   52.8984 H   0  0  0  0  0  0  0  0  0  0  0  0
   62.5347   26.5497   53.0558 H   0  0  0  0  0  0  0  0  0  0  0  0
   61.1879   25.4640   51.2741 H   0  0  0  0  0  0  0  0  0  0  0  0
   59.7273   24.8803   46.2897 H   0  0  0  0  0  0  0  0  0  0  0  0
   58.0212   23.6374   44.9621 H   0  0  0  0  0  0  0  0  0  0  0  0
   56.7680   27.8895   47.2597 H   0  0  0  0  0  0  0  0  0  0  0  0
   60.7818   29.2803   49.2635 H   0  0  0  0  0  0  0  0  0  0  0  0
   64.1440   32.5040   50.3871 H   0  0  0  0  0  0  0  0  0  0  0  0
   64.1717   33.8602   48.2888 H   0  0  0  0  0  0  0  0  0  0  0  0
  1  2  2  0
  2  3  1  0
  3  4  1  0
  4  5  2  0
  5  6  1  0
  6  7  2  0
  7  8  1  0
  7  9  1  0
  9 10  2  0
  2 11  1  0
 11 12  2  0
 12 13  1  0
 13 14  1  0
 14 15  1  0
 15 16  2  0
 16 17  1  0
 17 18  2  0
 18 19  1  0
 19 20  1  0
 20 21  1  0
 21 22  2  0
 21 23  2  0
 21 24  1  0
 24 25  2  0
 25 26  1  0
 26 27  2  0
 27 28  1  0
 27 29  1  0
 29 30  1  0
 29 31  2  0
 19 32  2  0
 13 33  2  0
 33 34  1  0
 34 35  2  0
 10  4  1  0
 35 11  1  0
 32 15  1  0
 31 24  1  0
  3 36  1  0
  5 37  1  0
  6 38  1  0
  9 39  1  0
 10 40  1  0
 12 41  1  0
 16 42  1  0
 17 43  1  0
 18 44  1  0
 25 45  1  0
 26 46  1  0
 31 47  1  0
 32 48  1  0
 33 49  1  0
 34 50  1  0
M  CHG  2  20  -1  30  -1
M  END
>  <UniqueID>  (71) 
67

>  <SMILES>  (71) 
O=C(Nc1ccc(F)cc1)c1cc(Oc2cccc([N-]S(=O)(=O)c3ccc(Cl)c([O-])c3)c2)ccn1

>  <Energy>  (71) 
71.85912256111355

>  <Genealogy>  (71) 
O=C(Nc1ccc(F)cc1)c1cc(Oc2cccc([N-]S(=O)(=O)c3ccc(Cl)c([O-])c3)c2)ccn1 (protonated)
O=C(Nc1ccc(F)cc1)c1cc(Oc2cccc([N-]S(=O)(=O)c3ccc(Cl)c([O-])c3)c2)ccn1 (3D coordinates assigned)
O=C(Nc1ccc(F)cc1)c1cc(Oc2cccc([N-]S(=O)(=O)c3ccc(Cl)c([O-])c3)c2)ccn1 (optimized conformer: 71.85912256111355 kcal/mol)

>  <smiles>  (71) 
O=C(Nc1ccc(F)cc1)c1cc(Oc2cccc(NS(=O)(=O)c3ccc(Cl)c(O)c3)c2)ccn1

>  <score_type>  (71) 
oracle

>  <origin>  (71) 
adg

>  <m_score__min__energy>  (71) 
-14.5

>  <m_primary>  (71) 
energy

$$$$
71:0
     RDKit          3D

 57 60  0  0  0  0  0  0  0  0999 V2000
   60.0990   29.6550   53.3300 C   0  0  0  0  0  0  0  0  0  0  0  0
   59.3840   30.3210   54.5050 C   0  0  0  0  0  0  0  0  0  0  0  0
   57.9650   29.7710   54.7360 C   0  0  0  0  0  0  0  0  0  0  0  0
   57.4130   28.9250   53.5750 C   0  0  0  0  0  0  0  0  0  0  0  0
   56.0450   29.3710   53.1420 C   0  0  0  0  0  0  0  0  0  0  0  0
   54.9810   28.5240   53.1430 N   0  0  0  0  0  0  0  0  0  0  0  0
   53.9810   29.2910   52.6770 C   0  0  0  0  0  0  0  0  0  0  0  0
   52.6560   28.9200   52.4830 C   0  0  0  0  0  0  0  0  0  0  0  0
   51.7660   29.8890   51.9880 C   0  0  0  0  0  0  0  0  0  0  0  0
   52.2140   31.2050   51.6960 C   0  0  0  0  0  0  0  0  0  0  0  0
   51.2720   32.2210   51.1750 C   0  0  0  0  0  0  0  0  0  0  0  0
   51.0230   32.2900   49.9430 O   0  0  0  0  0  0  0  0  0  0  0  0
   50.6540   33.1190   52.0390 O   0  0  0  0  0  0  0  0  0  0  0  0
   53.5720   31.5400   51.9070 C   0  0  0  0  0  0  0  0  0  0  0  0
   54.4250   30.5500   52.4030 C   0  0  0  0  0  0  0  0  0  0  0  0
   55.7390   30.6210   52.6900 N   0  0  0  0  0  0  0  0  0  0  0  0
   56.6180   31.7960   52.6030 C   0  0  0  0  0  0  0  0  0  0  0  0
   57.6940   31.5820   51.5700 C   0  0  0  0  0  0  0  0  0  0  0  0
   57.7610   30.3740   50.8570 C   0  0  0  0  0  0  0  0  0  0  0  0
   58.7530   30.1750   49.8950 C   0  0  0  0  0  0  0  0  0  0  0  0
   59.6890   31.1880   49.6230 C   0  0  0  0  0  0  0  0  0  0  0  0
   60.7200   31.0130   48.6390 N   0  0  0  0  0  0  0  0  0  0  0  0
   60.5030   30.7970   47.2390 C   0  0  0  0  0  0  0  0  0  0  0  0
   61.1400   31.5050   46.4130 O   0  0  0  0  0  0  0  0  0  0  0  0
   59.5200   29.8030   46.7420 C   0  0  0  0  0  0  0  0  0  0  0  0
   59.7450   28.4300   46.9370 C   0  0  0  0  0  0  0  0  0  0  0  0
   58.8210   27.4910   46.4730 C   0  0  0  0  0  0  0  0  0  0  0  0
   57.6640   27.9100   45.8110 C   0  0  0  0  0  0  0  0  0  0  0  0
   57.4230   29.2790   45.5990 C   0  0  0  0  0  0  0  0  0  0  0  0
   56.1930   29.7300   44.9090 C   0  0  0  0  0  0  0  0  0  0  0  0
   55.1890   28.9690   44.8240 O   0  0  0  0  0  0  0  0  0  0  0  0
   56.1220   31.0110   44.3630 O   0  0  0  0  0  0  0  0  0  0  0  0
   58.3630   30.2190   46.0600 C   0  0  0  0  0  0  0  0  0  0  0  0
   59.6430   32.3810   50.3550 C   0  0  0  0  0  0  0  0  0  0  0  0
   58.6510   32.5790   51.3180 C   0  0  0  0  0  0  0  0  0  0  0  0
   60.8540   28.9517   53.7112 H   0  0  0  0  0  0  0  0  0  0  0  0
   59.3666   29.1097   52.7165 H   0  0  0  0  0  0  0  0  0  0  0  0
   60.5910   30.4242   52.7165 H   0  0  0  0  0  0  0  0  0  0  0  0
   59.9771   30.1543   55.4163 H   0  0  0  0  0  0  0  0  0  0  0  0
   59.2875   31.3907   54.2677 H   0  0  0  0  0  0  0  0  0  0  0  0
   57.9820   29.1446   55.6401 H   0  0  0  0  0  0  0  0  0  0  0  0
   57.3022   30.6437   54.8306 H   0  0  0  0  0  0  0  0  0  0  0  0
   58.0992   29.0086   52.7194 H   0  0  0  0  0  0  0  0  0  0  0  0
   57.3317   27.8857   53.9260 H   0  0  0  0  0  0  0  0  0  0  0  0
   52.3140   27.8994   52.7098 H   0  0  0  0  0  0  0  0  0  0  0  0
   50.7106   29.6252   51.8249 H   0  0  0  0  0  0  0  0  0  0  0  0
   53.9461   32.5508   51.6870 H   0  0  0  0  0  0  0  0  0  0  0  0
   56.0188   32.6751   52.3233 H   0  0  0  0  0  0  0  0  0  0  0  0
   57.0944   31.9541   53.5818 H   0  0  0  0  0  0  0  0  0  0  0  0
   57.0272   29.5795   51.0578 H   0  0  0  0  0  0  0  0  0  0  0  0
   58.8024   29.2220   49.3478 H   0  0  0  0  0  0  0  0  0  0  0  0
   60.6534   28.0928   47.4577 H   0  0  0  0  0  0  0  0  0  0  0  0
   59.0048   26.4178   46.6293 H   0  0  0  0  0  0  0  0  0  0  0  0
   56.9379   27.1649   45.4538 H   0  0  0  0  0  0  0  0  0  0  0  0
   58.1908   31.2912   45.8849 H   0  0  0  0  0  0  0  0  0  0  0  0
   60.3915   33.1657   50.1707 H   0  0  0  0  0  0  0  0  0  0  0  0
   58.6189   33.5222   51.8831 H   0  0  0  0  0  0  0  0  0  0  0  0
  1  2  1  0
  2  3  1  0
  3  4  1  0
  4  5  1  0
  5  6  2  0
  6  7  1  0
  7  8  2  0
  8  9  1  0
  9 10  2  0
 10 11  1  0
 11 12  2  0
 11 13  1  0
 10 14  1  0
 14 15  2  0
 15 16  1  0
 16 17  1  0
 17 18  1  0
 18 19  2  0
 19 20  1  0
 20 21  2  0
 21 22  1  0
 22 23  1  0
 23 24  2  0
 23 25  1  0
 25 26  2  0
 26 27  1  0
 27 28  2  0
 28 29  1  0
 29 30  1  0
 30 31  2  0
 30 32  1  0
 29 33  2  0
 21 34  1  0
 34 35  2  0
 16  5  1  0
 35 18  1  0
 15  7  1  0
 33 25  1  0
  1 36  1  0
  1 37  1  0
  1 38  1  0
  2 39  1  0
  2 40  1  0
  3 41  1  0
  3 42  1  0
  4 43  1  0
  4 44  1  0
  8 45  1  0
  9 46  1  0
 14 47  1  0
 17 48  1  0
 17 49  1  0
 19 50  1  0
 20 51  1  0
 26 52  1  0
 27 53  1  0
 28 54  1  0
 33 55  1  0
 34 56  1  0
 35 57  1  0
M  CHG  3  13  -1  22  -1  32  -1
M  END
>  <UniqueID>  (72) 
68

>  <SMILES>  (72) 
CCCCc1nc2ccc(C(=O)[O-])cc2n1Cc1ccc([N-]C(=O)c2cccc(C(=O)[O-])c2)cc1

>  <Energy>  (72) 
98.52203141842259

>  <Genealogy>  (72) 
CCCCc1nc2ccc(C(=O)[O-])cc2n1Cc1ccc([N-]C(=O)c2cccc(C(=O)[O-])c2)cc1 (protonated)
CCCCc1nc2ccc(C(=O)[O-])cc2n1Cc1ccc([N-]C(=O)c2cccc(C(=O)[O-])c2)cc1 (3D coordinates assigned)
CCCCc1nc2ccc(C(=O)[O-])cc2n1Cc1ccc([N-]C(=O)c2cccc(C(=O)[O-])c2)cc1 (optimized conformer: 98.52203141842259 kcal/mol)

>  <smiles>  (72) 
CCCCc1nc2ccc(C(=O)O)cc2n1Cc1ccc(NC(=O)c2cccc(C(=O)O)c2)cc1

>  <score_type>  (72) 
oracle

>  <origin>  (72) 
adg

>  <m_score__min__energy>  (72) 
-17.43

>  <m_primary>  (72) 
energy

$$$$
72:0
     RDKit          3D

 33 32  0  0  0  0  0  0  0  0999 V2000
   56.4691   28.5064   42.6329 H   0  0  0  0  0  0  0  0  0  0  0  0
   57.1990   28.9840   43.3030 C   0  0  0  0  0  0  0  0  0  0  0  0
   57.4180   30.2600   43.1500 N   0  0  0  0  0  0  0  0  0  0  0  0
   57.0490   31.3340   44.0290 C   0  0  0  0  0  0  0  0  0  0  0  0
   56.0850   31.2200   44.8320 O   0  0  0  0  0  0  0  0  0  0  0  0
   59.3780   30.6430   46.6460 C   0  0  0  0  0  0  0  0  0  0  0  0
   58.4871   30.3907   46.0522 H   0  0  0  0  0  0  0  0  0  0  0  0
   60.2826   30.4452   46.0522 H   0  0  0  0  0  0  0  0  0  0  0  0
   59.3340   32.0920   47.0210 C   0  0  0  0  0  0  0  0  0  0  0  0
   60.2861   32.6011   47.2318 H   0  0  0  0  0  0  0  0  0  0  0  0
   58.2040   32.8050   47.1150 C   0  0  0  0  0  0  0  0  0  0  0  0
   57.5236   32.5949   47.9534 H   0  0  0  0  0  0  0  0  0  0  0  0
   57.8220   33.8620   46.1490 C   0  0  0  0  0  0  0  0  0  0  0  0
   58.0098   34.9096   46.4271 H   0  0  0  0  0  0  0  0  0  0  0  0
   57.2610   33.6170   44.9560 C   0  0  0  0  0  0  0  0  0  0  0  0
   56.3495   34.1756   44.6969 H   0  0  0  0  0  0  0  0  0  0  0  0
   57.7870   32.6340   43.9460 C   0  0  0  0  0  0  0  0  0  0  0  0
   57.6636   33.0541   42.9369 H   0  0  0  0  0  0  0  0  0  0  0  0
   58.8502   32.4480   44.1582 H   0  0  0  0  0  0  0  0  0  0  0  0
   59.3967   30.0286   47.5582 H   0  0  0  0  0  0  0  0  0  0  0  0
   57.8760   28.1170   44.3340 C   0  0  0  0  0  0  0  0  0  0  0  0
   57.8772   27.0768   43.9763 H   0  0  0  0  0  0  0  0  0  0  0  0
   58.9000   28.4942   44.4723 H   0  0  0  0  0  0  0  0  0  0  0  0
   57.1680   28.1710   45.6910 C   0  0  0  0  0  0  0  0  0  0  0  0
   57.8075   27.7013   46.4528 H   0  0  0  0  0  0  0  0  0  0  0  0
   56.9784   29.2222   45.9539 H   0  0  0  0  0  0  0  0  0  0  0  0
   55.8950   27.4610   45.6270 N   0  0  0  0  0  0  0  0  0  0  0  0
   55.7370   26.0810   45.9740 C   0  0  0  0  0  0  0  0  0  0  0  0
   54.5860   25.5710   45.9460 O   0  0  0  0  0  0  0  0  0  0  0  0
   56.9050   25.2410   46.3880 C   0  0  0  0  0  0  0  0  0  0  0  0
   56.9582   25.2027   47.4860 H   0  0  0  0  0  0  0  0  0  0  0  0
   56.7831   24.2224   45.9911 H   0  0  0  0  0  0  0  0  0  0  0  0
   57.8319   25.6807   45.9911 H   0  0  0  0  0  0  0  0  0  0  0  0
  1  2  1  0
  2  3  2  3
  3  4  1  0
  4  5  2  0
  4  6  1  0
  6  7  1  0
  6  8  1  0
  6  9  1  0
  9 10  1  0
  9 11  2  0
 11 12  1  0
 11 13  1  0
 13 14  1  0
 13 15  2  3
 15 16  1  0
 15 17  1  0
 17 18  1  0
 17 19  1  0
 17 20  1  0
  2 21  1  0
 21 22  1  0
 21 23  1  0
 21 24  1  0
 24 25  1  0
 24 26  1  0
 24 27  1  0
 27 28  1  0
 28 29  2  0
 28 30  1  0
 30 31  1  0
 30 32  1  0
 30 33  1  0
M  CHG  1  27  -1
M  END
>  <UniqueID>  (73) 
69

>  <SMILES>  (73) 
CC=C/C=C\CC(=O)N=CCC[N-]C(C)=O

>  <Energy>  (73) 
18.314492485989735

>  <Genealogy>  (73) 
CC=CC=CCC(=O)N=CCC[N-]C(C)=O (protonated)
CC=C/C=C\CC(=O)N=CCC[N-]C(C)=O (cis-trans isomerization)
CC=C/C=C\CC(=O)N=CCC[N-]C(C)=O (3D coordinates assigned)
CC=C/C=C\CC(=O)N=CCC[N-]C(C)=O (optimized conformer: 18.314492485989735 kcal/mol)

>  <smiles>  (73) 
CC=CC=CCC(=O)N=CCCNC(C)=O

>  <score_type>  (73) 
oracle

>  <origin>  (73) 
adg

>  <m_score__min__energy>  (73) 
-7.9400000000000004

>  <m_primary>  (73) 
energy

$$$$
73:0
     RDKit          3D

 51 53  0  0  1  0  0  0  0  0999 V2000
   59.3200   34.9140   45.7380 C   0  0  0  0  0  0  0  0  0  0  0  0
   58.8780   33.6360   46.3580 C   0  0  0  0  0  0  0  0  0  0  0  0
   58.0040   32.8900   45.8440 O   0  0  0  0  0  0  0  0  0  0  0  0
   59.4960   33.2890   47.5820 O   0  0  0  0  0  0  0  0  0  0  0  0
   60.8400   32.9740   47.4870 C   0  0  0  0  0  0  0  0  0  0  0  0
   61.7220   34.0360   47.7180 C   0  0  0  0  0  0  0  0  0  0  0  0
   63.0860   33.8570   47.6510 C   0  0  0  0  0  0  0  0  0  0  0  0
   63.5300   32.5880   47.3460 C   0  0  0  0  0  0  0  0  0  0  0  0
   62.6610   31.5480   47.1210 C   0  0  0  0  0  0  0  0  0  0  0  0
   61.2700   31.7070   47.1840 C   0  0  0  0  0  0  0  0  0  0  0  0
   60.4400   30.5610   46.9610 C   0  0  0  0  0  0  0  0  0  0  0  0
   61.0330   29.4380   46.7900 O   0  0  0  0  0  0  0  0  0  0  0  0
   59.0430   30.5130   46.9060 N   0  0  0  0  0  0  0  0  0  0  0  0
   58.3910   29.2820   46.6690 C   0  0  0  0  0  0  0  0  0  0  0  0
   58.5380   28.2990   47.6380 C   0  0  0  0  0  0  0  0  0  0  0  0
   57.9330   27.0690   47.4790 C   0  0  0  0  0  0  0  0  0  0  0  0
   57.1610   26.7740   46.3530 C   0  0  0  0  0  0  0  0  0  0  0  0
   56.3990   25.2110   46.1640 S   0  0  0  0  0  0  0  0  0  0  0  0
   57.1820   24.2540   45.3490 O   0  0  0  0  0  0  0  0  0  0  0  0
   56.3060   24.6240   47.5660 O   0  0  0  0  0  0  0  0  0  0  0  0
   54.7740   25.4010   45.6280 N   0  0  0  0  0  0  0  0  0  0  0  0
   53.9740   24.3910   45.6000 C   0  0  0  0  0  0  0  0  0  0  0  0
   52.6620   24.4860   45.1950 C   0  0  0  0  0  0  0  0  0  0  0  0
   51.9020   23.3400   45.2060 C   0  0  0  0  0  0  0  0  0  0  0  0
   50.4890   23.4290   44.7730 C   0  0  0  0  0  0  0  0  0  0  0  0
   52.4450   22.1740   45.6050 N   0  0  0  0  0  0  0  0  0  0  0  0
   53.7380   22.0840   46.0040 C   0  0  0  0  0  0  0  0  0  0  0  0
   54.3150   20.7710   46.4420 C   0  0  0  0  0  0  0  0  0  0  0  0
   54.4790   23.2070   45.9910 N   0  0  0  0  0  0  0  0  0  0  0  0
   57.0230   27.7660   45.3930 C   0  0  0  0  0  0  0  0  0  0  0  0
   57.6320   29.0160   45.5460 C   0  0  0  0  0  0  0  0  0  0  0  0
   59.5702   35.6375   46.5279 H   0  0  0  0  0  0  0  0  0  0  0  0
   60.2071   34.7312   45.1138 H   0  0  0  0  0  0  0  0  0  0  0  0
   58.5095   35.3183   45.1138 H   0  0  0  0  0  0  0  0  0  0  0  0
   61.3187   35.0310   47.9572 H   0  0  0  0  0  0  0  0  0  0  0  0
   63.7865   34.6856   47.8319 H   0  0  0  0  0  0  0  0  0  0  0  0
   64.6123   32.4026   47.2809 H   0  0  0  0  0  0  0  0  0  0  0  0
   63.0714   30.5556   46.8830 H   0  0  0  0  0  0  0  0  0  0  0  0
   58.4810   31.3510   47.0400 H   0  0  0  0  0  0  0  0  0  0  0  0
   59.1394   28.5014   48.5365 H   0  0  0  0  0  0  0  0  0  0  0  0
   58.0618   26.3026   48.2575 H   0  0  0  0  0  0  0  0  0  0  0  0
   52.2353   25.4474   44.8730 H   0  0  0  0  0  0  0  0  0  0  0  0
   49.8363   23.4701   45.6575 H   0  0  0  0  0  0  0  0  0  0  0  0
   50.3469   24.3379   44.1699 H   0  0  0  0  0  0  0  0  0  0  0  0
   50.2340   22.5451   44.1699 H   0  0  0  0  0  0  0  0  0  0  0  0
   54.3342   20.7273   47.5410 H   0  0  0  0  0  0  0  0  0  0  0  0
   53.6948   19.9500   46.0532 H   0  0  0  0  0  0  0  0  0  0  0  0
   55.3393   20.6726   46.0532 H   0  0  0  0  0  0  0  0  0  0  0  0
   55.4770   23.1390   46.2980 H   0  0  0  0  0  0  0  0  0  0  0  0
   56.4226   27.5656   44.4934 H   0  0  0  0  0  0  0  0  0  0  0  0
   57.5064   29.7873   44.7718 H   0  0  0  0  0  0  0  0  0  0  0  0
  1  2  1  0
  2  3  2  0
  2  4  1  0
  4  5  1  0
  5  6  2  0
  6  7  1  0
  7  8  2  0
  8  9  1  0
  9 10  2  0
 10 11  1  0
 11 12  2  0
 11 13  1  0
 13 14  1  0
 14 15  2  0
 15 16  1  0
 16 17  2  0
 17 18  1  0
 18 19  2  0
 18 20  2  0
 18 21  1  0
 21 22  2  0
 22 23  1  0
 23 24  2  0
 24 25  1  0
 24 26  1  0
 26 27  2  0
 27 28  1  0
 27 29  1  0
 17 30  1  0
 30 31  2  0
 10  5  1  0
 31 14  1  0
 29 22  1  0
  1 32  1  0
  1 33  1  0
  1 34  1  0
  6 35  1  0
  7 36  1  0
  8 37  1  0
  9 38  1  0
 13 39  1  0
 15 40  1  0
 16 41  1  0
 23 42  1  0
 25 43  1  0
 25 44  1  0
 25 45  1  0
 28 46  1  0
 28 47  1  0
 28 48  1  0
 29 49  1  0
 30 50  1  0
 31 51  1  0
M  END
>  <smiles>  (74) 
CC(=O)Oc1ccccc1C(=O)Nc1ccc(S(=O)(=O)N=c2cc(C)nc(C)[nH]2)cc1

>  <score_type>  (74) 
oracle

>  <origin>  (74) 
adg

>  <m_score__min__energy>  (74) 
-8.8599999999999994

>  <m_primary>  (74) 
energy

$$$$
74:0
     RDKit          3D

 51 54  0  0  0  0  0  0  0  0999 V2000
   57.0160   33.7480   45.5630 C   0  0  0  0  0  0  0  0  0  0  0  0
   58.0420   32.7070   45.8750 C   0  0  0  0  0  0  0  0  0  0  0  0
   59.2790   33.0700   46.4110 C   0  0  0  0  0  0  0  0  0  0  0  0
   60.2290   32.0690   46.6640 C   0  0  0  0  0  0  0  0  0  0  0  0
   61.5620   32.4210   47.2160 C   0  0  0  0  0  0  0  0  0  0  0  0
   62.2540   33.5500   46.7400 C   0  0  0  0  0  0  0  0  0  0  0  0
   63.5090   33.8810   47.2580 C   0  0  0  0  0  0  0  0  0  0  0  0
   64.0870   33.0920   48.2540 C   0  0  0  0  0  0  0  0  0  0  0  0
   63.4100   31.9680   48.7350 C   0  0  0  0  0  0  0  0  0  0  0  0
   62.1540   31.6330   48.2210 C   0  0  0  0  0  0  0  0  0  0  0  0
   59.9190   30.7690   46.3830 N   0  0  0  0  0  0  0  0  0  0  0  0
   58.7010   30.4300   45.8680 C   0  0  0  0  0  0  0  0  0  0  0  0
   58.3890   29.0560   45.5760 N   0  0  0  0  0  0  0  0  0  0  0  0
   57.6110   28.7250   44.3830 C   0  0  0  0  0  0  0  0  0  0  0  0
   58.0640   27.3760   43.8130 C   0  0  0  0  0  0  0  0  0  0  0  0
   58.1780   26.3230   44.8430 N   0  0  0  0  0  0  0  0  0  0  0  0
   57.0270   25.4090   44.9930 C   0  0  0  0  0  0  0  0  0  0  0  0
   57.2670   24.0290   44.4320 C   0  0  0  0  0  0  0  0  0  0  0  0
   58.2960   23.2210   44.9480 C   0  0  0  0  0  0  0  0  0  0  0  0
   58.5090   21.9390   44.4360 C   0  0  0  0  0  0  0  0  0  0  0  0
   57.6890   21.4440   43.4180 C   0  0  0  0  0  0  0  0  0  0  0  0
   56.6490   22.2310   42.9160 C   0  0  0  0  0  0  0  0  0  0  0  0
   56.4320   23.5150   43.4250 C   0  0  0  0  0  0  0  0  0  0  0  0
   58.8920   26.7060   46.0780 C   0  0  0  0  0  0  0  0  0  0  0  0
   58.4270   28.0530   46.6410 C   0  0  0  0  0  0  0  0  0  0  0  0
   57.7850   31.4010   45.6090 N   0  0  0  0  0  0  0  0  0  0  0  0
   56.6123   34.1576   46.5007 H   0  0  0  0  0  0  0  0  0  0  0  0
   57.4799   34.5568   44.9793 H   0  0  0  0  0  0  0  0  0  0  0  0
   56.2006   33.2958   44.9793 H   0  0  0  0  0  0  0  0  0  0  0  0
   59.5051   34.1237   46.6314 H   0  0  0  0  0  0  0  0  0  0  0  0
   61.8043   34.1760   45.9552 H   0  0  0  0  0  0  0  0  0  0  0  0
   64.0427   34.7654   46.8800 H   0  0  0  0  0  0  0  0  0  0  0  0
   65.0749   33.3549   48.6601 H   0  0  0  0  0  0  0  0  0  0  0  0
   63.8662   31.3460   49.5192 H   0  0  0  0  0  0  0  0  0  0  0  0
   61.6249   30.7480   48.6043 H   0  0  0  0  0  0  0  0  0  0  0  0
   60.6240   30.0210   46.5580 H   0  0  0  0  0  0  0  0  0  0  0  0
   56.5451   28.6677   44.6487 H   0  0  0  0  0  0  0  0  0  0  0  0
   57.7675   29.5060   43.6243 H   0  0  0  0  0  0  0  0  0  0  0  0
   57.3324   27.0507   43.0587 H   0  0  0  0  0  0  0  0  0  0  0  0
   59.0643   27.5214   43.3790 H   0  0  0  0  0  0  0  0  0  0  0  0
   56.7983   25.3126   46.0646 H   0  0  0  0  0  0  0  0  0  0  0  0
   56.1946   25.8462   44.4220 H   0  0  0  0  0  0  0  0  0  0  0  0
   58.9359   23.6003   45.7584 H   0  0  0  0  0  0  0  0  0  0  0  0
   59.3241   21.3174   44.8349 H   0  0  0  0  0  0  0  0  0  0  0  0
   57.8621   20.4362   43.0125 H   0  0  0  0  0  0  0  0  0  0  0  0
   55.9999   21.8395   42.1189 H   0  0  0  0  0  0  0  0  0  0  0  0
   55.6041   24.1257   43.0356 H   0  0  0  0  0  0  0  0  0  0  0  0
   58.7203   25.9296   46.8381 H   0  0  0  0  0  0  0  0  0  0  0  0
   59.9585   26.8033   45.8266 H   0  0  0  0  0  0  0  0  0  0  0  0
   57.4207   27.9401   47.0707 H   0  0  0  0  0  0  0  0  0  0  0  0
   59.1314   28.3807   47.4197 H   0  0  0  0  0  0  0  0  0  0  0  0
  1  2  1  0
  2  3  2  0
  3  4  1  0
  4  5  1  0
  5  6  2  0
  6  7  1  0
  7  8  2  0
  8  9  1  0
  9 10  2  0
  4 11  2  0
 11 12  1  0
 12 13  1  0
 13 14  1  0
 14 15  1  0
 15 16  1  0
 16 17  1  0
 17 18  1  0
 18 19  2  0
 19 20  1  0
 20 21  2  0
 21 22  1  0
 22 23  2  0
 16 24  1  0
 24 25  1  0
 12 26  2  0
 26  2  1  0
 10  5  1  0
 25 13  1  0
 23 18  1  0
  1 27  1  0
  1 28  1  0
  1 29  1  0
  3 30  1  0
  6 31  1  0
  7 32  1  0
  8 33  1  0
  9 34  1  0
 10 35  1  0
 11 36  1  0
 14 37  1  0
 14 38  1  0
 15 39  1  0
 15 40  1  0
 17 41  1  0
 17 42  1  0
 19 43  1  0
 20 44  1  0
 21 45  1  0
 22 46  1  0
 23 47  1  0
 24 48  1  0
 24 49  1  0
 25 50  1  0
 25 51  1  0
M  CHG  1  11   1
M  END
>  <UniqueID>  (75) 
70

>  <SMILES>  (75) 
Cc1cc(-c2ccccc2)[nH+]c(N2CCN(Cc3ccccc3)CC2)n1

>  <Energy>  (75) 
69.50481576985877

>  <Genealogy>  (75) 
Cc1cc(-c2ccccc2)[nH+]c(N2CCN(Cc3ccccc3)CC2)n1 (protonated)
Cc1cc(-c2ccccc2)[nH+]c(N2CCN(Cc3ccccc3)CC2)n1 (3D coordinates assigned)
Cc1cc(-c2ccccc2)[nH+]c(N2CCN(Cc3ccccc3)CC2)n1 (nonaromatic ring conformer: 69.50481576985877 kcal/mol)

>  <smiles>  (75) 
Cc1cc(-c2ccccc2)nc(N2CCN(Cc3ccccc3)CC2)n1

>  <score_type>  (75) 
oracle

>  <origin>  (75) 
adg

>  <m_score__min__energy>  (75) 
-7.0499999999999998

>  <m_primary>  (75) 
energy

$$$$
75:0
     RDKit          3D

 40 42  0  0  0  0  0  0  0  0999 V2000
   56.3100   30.4800   42.2960 O   0  0  0  0  0  0  0  0  0  0  0  0
   56.9180   30.4960   43.3980 C   0  0  0  0  0  0  0  0  0  0  0  0
   57.3320   31.7070   43.9520 C   0  0  0  0  0  0  0  0  0  0  0  0
   58.0090   31.6870   45.1790 C   0  0  0  0  0  0  0  0  0  0  0  0
   58.4480   32.9060   45.8080 N   0  0  0  0  0  0  0  0  0  0  0  0
   58.2790   33.0950   47.2540 C   0  0  0  0  0  0  0  0  0  0  0  0
   59.2870   34.1290   47.7640 C   0  0  0  0  0  0  0  0  0  0  0  0
   59.2090   35.3220   47.0070 O   0  0  0  0  0  0  0  0  0  0  0  0
   59.6040   35.0670   45.6720 C   0  0  0  0  0  0  0  0  0  0  0  0
   58.6230   34.1090   44.9880 C   0  0  0  0  0  0  0  0  0  0  0  0
   58.2210   30.4930   45.7980 N   0  0  0  0  0  0  0  0  0  0  0  0
   57.8120   29.3170   45.2480 C   0  0  0  0  0  0  0  0  0  0  0  0
   58.0660   28.0340   45.9490 C   0  0  0  0  0  0  0  0  0  0  0  0
   59.3610   27.7090   46.3980 C   0  0  0  0  0  0  0  0  0  0  0  0
   59.5990   26.5030   47.0580 C   0  0  0  0  0  0  0  0  0  0  0  0
   58.5540   25.6050   47.2800 C   0  0  0  0  0  0  0  0  0  0  0  0
   57.2590   25.9040   46.8440 C   0  0  0  0  0  0  0  0  0  0  0  0
   56.2170   24.9510   47.0950 N   0  0  0  0  0  0  0  0  0  0  0  0
   54.9790   24.5020   45.9670 S   0  0  0  0  0  0  0  0  0  0  0  0
   54.1440   25.7040   45.6230 O   0  0  0  0  0  0  0  0  0  0  0  0
   54.1100   23.4290   46.5620 O   0  0  0  0  0  0  0  0  0  0  0  0
   55.7440   23.8800   44.4860 C   0  0  0  0  0  0  0  0  0  0  0  0
   56.6230   24.8230   43.9880 F   0  0  0  0  0  0  0  0  0  0  0  0
   56.4330   22.7180   44.7760 F   0  0  0  0  0  0  0  0  0  0  0  0
   54.7730   23.6130   43.5400 F   0  0  0  0  0  0  0  0  0  0  0  0
   57.0180   27.1210   46.1790 C   0  0  0  0  0  0  0  0  0  0  0  0
   57.1660   29.3320   44.0500 N   0  0  0  0  0  0  0  0  0  0  0  0
   57.1314   32.6579   43.4368 H   0  0  0  0  0  0  0  0  0  0  0  0
   57.2578   33.4487   47.4590 H   0  0  0  0  0  0  0  0  0  0  0  0
   58.4500   32.1374   47.7676 H   0  0  0  0  0  0  0  0  0  0  0  0
   59.0691   34.3558   48.8181 H   0  0  0  0  0  0  0  0  0  0  0  0
   60.3004   33.7131   47.6636 H   0  0  0  0  0  0  0  0  0  0  0  0
   59.6288   36.0157   45.1158 H   0  0  0  0  0  0  0  0  0  0  0  0
   60.6012   34.6029   45.6818 H   0  0  0  0  0  0  0  0  0  0  0  0
   57.6516   34.6096   44.8626 H   0  0  0  0  0  0  0  0  0  0  0  0
   59.0227   33.8222   44.0042 H   0  0  0  0  0  0  0  0  0  0  0  0
   60.1905   28.4110   46.2271 H   0  0  0  0  0  0  0  0  0  0  0  0
   60.6141   26.2591   47.4046 H   0  0  0  0  0  0  0  0  0  0  0  0
   58.7500   24.6563   47.8010 H   0  0  0  0  0  0  0  0  0  0  0  0
   56.0011   27.3616   45.8354 H   0  0  0  0  0  0  0  0  0  0  0  0
  1  2  2  0
  2  3  1  0
  3  4  2  0
  4  5  1  0
  5  6  1  0
  6  7  1  0
  7  8  1  0
  8  9  1  0
  9 10  1  0
  4 11  1  0
 11 12  1  0
 12 13  1  0
 13 14  2  0
 14 15  1  0
 15 16  2  0
 16 17  1  0
 17 18  1  0
 18 19  1  0
 19 20  2  0
 19 21  2  0
 19 22  1  0
 22 23  1  0
 22 24  1  0
 22 25  1  0
 17 26  2  0
 12 27  2  0
 27  2  1  0
 10  5  1  0
 26 13  1  0
  3 28  1  0
  6 29  1  0
  6 30  1  0
  7 31  1  0
  7 32  1  0
  9 33  1  0
  9 34  1  0
 10 35  1  0
 10 36  1  0
 14 37  1  0
 15 38  1  0
 16 39  1  0
 26 40  1  0
M  CHG  2  11  -1  18  -1
M  END
>  <UniqueID>  (76) 
71

>  <SMILES>  (76) 
O=c1cc(N2CCOCC2)[n-]c(-c2cccc([N-]S(=O)(=O)C(F)(F)F)c2)n1

>  <Energy>  (76) 
46.985622415715056

>  <Genealogy>  (76) 
O=c1cc(N2CCOCC2)[n-]c(-c2cccc([N-]S(=O)(=O)C(F)(F)F)c2)n1 (protonated)
O=c1cc(N2CCOCC2)[n-]c(-c2cccc([N-]S(=O)(=O)C(F)(F)F)c2)n1 (3D coordinates assigned)
O=c1cc(N2CCOCC2)[n-]c(-c2cccc([N-]S(=O)(=O)C(F)(F)F)c2)n1 (nonaromatic ring conformer: 46.985622415715056 kcal/mol)

>  <smiles>  (76) 
O=c1cc(N2CCOCC2)[nH]c(-c2cccc(NS(=O)(=O)C(F)(F)F)c2)n1

>  <score_type>  (76) 
oracle

>  <origin>  (76) 
adg

>  <m_score__min__energy>  (76) 
-10.68

>  <m_primary>  (76) 
energy

$$$$
76:0
     RDKit          3D

 67 70  0  0  0  0  0  0  0  0999 V2000
   57.7830   33.8110   46.6600 N   0  0  0  0  0  0  0  0  0  0  0  0
   57.8320   34.0560   44.9490 S   0  0  0  0  0  0  0  0  0  0  0  0
   56.8680   35.1470   44.5720 O   0  0  0  0  0  0  0  0  0  0  0  0
   59.2160   34.4750   44.5410 O   0  0  0  0  0  0  0  0  0  0  0  0
   57.3930   32.5620   44.1270 C   0  0  0  0  0  0  0  0  0  0  0  0
   57.6070   32.4280   42.7500 C   0  0  0  0  0  0  0  0  0  0  0  0
   57.2970   31.2280   42.1060 C   0  0  0  0  0  0  0  0  0  0  0  0
   56.7690   30.1560   42.8310 C   0  0  0  0  0  0  0  0  0  0  0  0
   56.5330   30.2850   44.2130 C   0  0  0  0  0  0  0  0  0  0  0  0
   56.0260   29.2010   45.0060 N   0  0  0  0  0  0  0  0  0  0  0  0
   56.7820   28.1270   45.5800 C   0  0  0  0  0  0  0  0  0  0  0  0
   56.2150   27.0650   45.9520 O   0  0  0  0  0  0  0  0  0  0  0  0
   58.2670   28.2740   45.7270 C   0  0  0  0  0  0  0  0  0  0  0  0
   58.5910   29.2220   46.7890 N   0  0  0  0  0  0  0  0  0  0  0  0
   58.5140   28.9890   48.1140 C   0  0  0  0  0  0  0  0  0  0  0  0
   58.9630   30.0980   48.8030 C   0  0  0  0  0  0  0  0  0  0  0  0
   59.0350   30.2530   50.5540 S   0  0  0  0  0  0  0  0  0  0  0  0
   60.2180   29.4840   51.0740 O   0  0  0  0  0  0  0  0  0  0  0  0
   57.7780   29.6760   51.1430 O   0  0  0  0  0  0  0  0  0  0  0  0
   59.1920   31.9360   50.9960 N   0  0  0  0  0  0  0  0  0  0  0  0
   60.3900   32.1580   51.8450 C   0  0  0  0  0  0  0  0  0  0  0  0
   60.0470   32.3440   53.3310 C   0  0  0  0  0  0  0  0  0  0  0  0
   59.0890   33.5300   53.5340 C   0  0  0  0  0  0  0  0  0  0  0  0
   58.1300   33.7320   52.3450 C   0  0  0  0  0  0  0  0  0  0  0  0
   57.9230   32.4230   51.5780 C   0  0  0  0  0  0  0  0  0  0  0  0
   59.3290   31.0370   47.8510 C   0  0  0  0  0  0  0  0  0  0  0  0
   60.0160   32.6330   48.1160 S   0  0  0  0  0  0  0  0  0  0  0  0
   60.3030   33.2610   46.7820 O   0  0  0  0  0  0  0  0  0  0  0  0
   59.0150   33.4820   48.8480 O   0  0  0  0  0  0  0  0  0  0  0  0
   61.4840   32.4890   49.0610 N   0  0  0  0  0  0  0  0  0  0  0  0
   62.3200   31.3610   48.6100 C   0  0  0  0  0  0  0  0  0  0  0  0
   63.0120   31.6390   47.2640 C   0  0  0  0  0  0  0  0  0  0  0  0
   63.5360   33.0810   47.1410 C   0  0  0  0  0  0  0  0  0  0  0  0
   63.5870   33.7920   48.4920 C   0  0  0  0  0  0  0  0  0  0  0  0
   62.2060   33.7830   49.1710 C   0  0  0  0  0  0  0  0  0  0  0  0
   59.0960   30.4620   46.6190 C   0  0  0  0  0  0  0  0  0  0  0  0
   56.8680   31.4840   44.8540 C   0  0  0  0  0  0  0  0  0  0  0  0
   58.1540   32.8510   46.8390 H   0  0  0  0  0  0  0  0  0  0  0  0
   58.4660   34.4800   47.0820 H   0  0  0  0  0  0  0  0  0  0  0  0
   58.0200   33.2693   42.1742 H   0  0  0  0  0  0  0  0  0  0  0  0
   57.4690   31.1262   41.0243 H   0  0  0  0  0  0  0  0  0  0  0  0
   56.5373   29.2095   42.3207 H   0  0  0  0  0  0  0  0  0  0  0  0
   58.7039   27.2947   45.9720 H   0  0  0  0  0  0  0  0  0  0  0  0
   58.6797   28.6509   44.7796 H   0  0  0  0  0  0  0  0  0  0  0  0
   58.1498   28.0592   48.5753 H   0  0  0  0  0  0  0  0  0  0  0  0
   61.0562   31.2884   51.7453 H   0  0  0  0  0  0  0  0  0  0  0  0
   60.8705   33.0854   51.4998 H   0  0  0  0  0  0  0  0  0  0  0  0
   59.5687   31.4275   53.7067 H   0  0  0  0  0  0  0  0  0  0  0  0
   60.9773   32.5482   53.8813 H   0  0  0  0  0  0  0  0  0  0  0  0
   58.4923   33.3489   54.4402 H   0  0  0  0  0  0  0  0  0  0  0  0
   59.7014   34.4393   53.6242 H   0  0  0  0  0  0  0  0  0  0  0  0
   57.1589   34.0853   52.7222 H   0  0  0  0  0  0  0  0  0  0  0  0
   58.5707   34.4726   51.6614 H   0  0  0  0  0  0  0  0  0  0  0  0
   57.5295   31.6618   52.2677 H   0  0  0  0  0  0  0  0  0  0  0  0
   57.2134   32.6089   50.7583 H   0  0  0  0  0  0  0  0  0  0  0  0
   63.0917   31.1685   49.3698 H   0  0  0  0  0  0  0  0  0  0  0  0
   61.6605   30.4914   48.4725 H   0  0  0  0  0  0  0  0  0  0  0  0
   63.8610   30.9477   47.1575 H   0  0  0  0  0  0  0  0  0  0  0  0
   62.2613   31.4942   46.4731 H   0  0  0  0  0  0  0  0  0  0  0  0
   64.5501   33.0546   46.7157 H   0  0  0  0  0  0  0  0  0  0  0  0
   62.8447   33.6379   46.4914 H   0  0  0  0  0  0  0  0  0  0  0  0
   64.3110   33.2786   49.1418 H   0  0  0  0  0  0  0  0  0  0  0  0
   63.8905   34.8364   48.3277 H   0  0  0  0  0  0  0  0  0  0  0  0
   62.3443   34.0118   50.2380 H   0  0  0  0  0  0  0  0  0  0  0  0
   61.5923   34.5337   48.6514 H   0  0  0  0  0  0  0  0  0  0  0  0
   59.2916   30.9403   45.6479 H   0  0  0  0  0  0  0  0  0  0  0  0
   56.7177   31.5813   45.9393 H   0  0  0  0  0  0  0  0  0  0  0  0
  1  2  1  0
  2  3  2  0
  2  4  2  0
  2  5  1  0
  5  6  2  0
  6  7  1  0
  7  8  2  0
  8  9  1  0
  9 10  1  0
 10 11  1  0
 11 12  2  0
 11 13  1  0
 13 14  1  0
 14 15  1  0
 15 16  2  0
 16 17  1  0
 17 18  2  0
 17 19  2  0
 17 20  1  0
 20 21  1  0
 21 22  1  0
 22 23  1  0
 23 24  1  0
 24 25  1  0
 16 26  1  0
 26 27  1  0
 27 28  2  0
 27 29  2  0
 27 30  1  0
 30 31  1  0
 31 32  1  0
 32 33  1  0
 33 34  1  0
 34 35  1  0
 26 36  2  0
  9 37  2  0
 37  5  1  0
 36 14  1  0
 25 20  1  0
 35 30  1  0
  1 38  1  0
  1 39  1  0
  6 40  1  0
  7 41  1  0
  8 42  1  0
 13 43  1  0
 13 44  1  0
 15 45  1  0
 21 46  1  0
 21 47  1  0
 22 48  1  0
 22 49  1  0
 23 50  1  0
 23 51  1  0
 24 52  1  0
 24 53  1  0
 25 54  1  0
 25 55  1  0
 31 56  1  0
 31 57  1  0
 32 58  1  0
 32 59  1  0
 33 60  1  0
 33 61  1  0
 34 62  1  0
 34 63  1  0
 35 64  1  0
 35 65  1  0
 36 66  1  0
 37 67  1  0
M  CHG  1  10  -1
M  END
>  <UniqueID>  (77) 
72

>  <SMILES>  (77) 
NS(=O)(=O)c1cccc([N-]C(=O)Cn2cc(S(=O)(=O)N3CCCCC3)c(S(=O)(=O)N3CCCCC3)c2)c1

>  <Energy>  (77) 
104.75859010099191

>  <Genealogy>  (77) 
NS(=O)(=O)c1cccc([N-]C(=O)Cn2cc(S(=O)(=O)N3CCCCC3)c(S(=O)(=O)N3CCCCC3)c2)c1 (protonated)
NS(=O)(=O)c1cccc([N-]C(=O)Cn2cc(S(=O)(=O)N3CCCCC3)c(S(=O)(=O)N3CCCCC3)c2)c1 (3D coordinates assigned)
NS(=O)(=O)c1cccc([N-]C(=O)Cn2cc(S(=O)(=O)N3CCCCC3)c(S(=O)(=O)N3CCCCC3)c2)c1 (nonaromatic ring conformer: 104.75859010099191 kcal/mol)

>  <smiles>  (77) 
NS(=O)(=O)c1cccc(NC(=O)Cn2cc(S(=O)(=O)N3CCCCC3)c(S(=O)(=O)N3CCCCC3)c2)c1

>  <score_type>  (77) 
oracle

>  <origin>  (77) 
adg

>  <m_score__min__energy>  (77) 
-11.82

>  <m_primary>  (77) 
energy

$$$$
77:0
     RDKit          3D

 54 57  0  0  0  0  0  0  0  0999 V2000
   60.9760   30.0260   45.9420 O   0  0  0  0  0  0  0  0  0  0  0  0
   60.8410   30.0510   47.1980 C   0  0  0  0  0  0  0  0  0  0  0  0
   60.8690   31.2490   47.8600 N   0  0  0  0  0  0  0  0  0  0  0  0
   61.0960   32.5070   47.1180 C   0  0  0  0  0  0  0  0  0  0  0  0
   59.8040   33.0110   46.5260 C   0  0  0  0  0  0  0  0  0  0  0  0
   58.5820   32.4010   46.8610 C   0  0  0  0  0  0  0  0  0  0  0  0
   57.3820   32.8900   46.3360 C   0  0  0  0  0  0  0  0  0  0  0  0
   57.3910   33.9930   45.4780 C   0  0  0  0  0  0  0  0  0  0  0  0
   58.5990   34.6080   45.1440 C   0  0  0  0  0  0  0  0  0  0  0  0
   59.8020   34.1220   45.6660 C   0  0  0  0  0  0  0  0  0  0  0  0
   60.7170   31.2690   49.2200 C   0  0  0  0  0  0  0  0  0  0  0  0
   60.7380   32.3710   49.8370 O   0  0  0  0  0  0  0  0  0  0  0  0
   60.5420   30.1040   49.9180 N   0  0  0  0  0  0  0  0  0  0  0  0
   60.3140   30.1380   51.3790 C   0  0  0  0  0  0  0  0  0  0  0  0
   58.8420   30.2730   51.6770 C   0  0  0  0  0  0  0  0  0  0  0  0
   58.1420   31.4250   51.2850 C   0  0  0  0  0  0  0  0  0  0  0  0
   56.7890   31.5710   51.6000 C   0  0  0  0  0  0  0  0  0  0  0  0
   56.1100   30.5710   52.3170 C   0  0  0  0  0  0  0  0  0  0  0  0
   54.7160   30.7260   52.6420 N   0  0  0  0  0  0  0  0  0  0  0  0
   54.3000   30.4890   53.7950 O   0  0  0  0  0  0  0  0  0  0  0  0
   53.8170   31.1420   51.6860 O   0  0  0  0  0  0  0  0  0  0  0  0
   56.8160   29.4190   52.7110 C   0  0  0  0  0  0  0  0  0  0  0  0
   58.1690   29.2750   52.3950 C   0  0  0  0  0  0  0  0  0  0  0  0
   60.5200   28.9140   49.2450 C   0  0  0  0  0  0  0  0  0  0  0  0
   60.3670   27.8350   49.8850 O   0  0  0  0  0  0  0  0  0  0  0  0
   60.6660   28.8800   47.8850 N   0  0  0  0  0  0  0  0  0  0  0  0
   60.5730   27.5950   47.1590 C   0  0  0  0  0  0  0  0  0  0  0  0
   59.1320   27.2670   46.8570 C   0  0  0  0  0  0  0  0  0  0  0  0
   58.3430   28.1580   46.1100 C   0  0  0  0  0  0  0  0  0  0  0  0
   56.9960   27.8740   45.8650 C   0  0  0  0  0  0  0  0  0  0  0  0
   56.4210   26.7040   46.3700 C   0  0  0  0  0  0  0  0  0  0  0  0
   55.0770   26.4340   46.1200 O   0  0  0  0  0  0  0  0  0  0  0  0
   57.2000   25.8130   47.1200 C   0  0  0  0  0  0  0  0  0  0  0  0
   58.5480   26.0940   47.3640 C   0  0  0  0  0  0  0  0  0  0  0  0
   61.4993   33.2651   47.8055 H   0  0  0  0  0  0  0  0  0  0  0  0
   61.8101   32.3159   46.3034 H   0  0  0  0  0  0  0  0  0  0  0  0
   58.5702   31.5351   47.5393 H   0  0  0  0  0  0  0  0  0  0  0  0
   56.4298   32.4060   46.5986 H   0  0  0  0  0  0  0  0  0  0  0  0
   56.4461   34.3767   45.0657 H   0  0  0  0  0  0  0  0  0  0  0  0
   58.6046   35.4765   44.4690 H   0  0  0  0  0  0  0  0  0  0  0  0
   60.7509   34.6118   45.4021 H   0  0  0  0  0  0  0  0  0  0  0  0
   60.6907   29.2065   51.8266 H   0  0  0  0  0  0  0  0  0  0  0  0
   60.8453   31.0025   51.8036 H   0  0  0  0  0  0  0  0  0  0  0  0
   58.6620   32.2173   50.7265 H   0  0  0  0  0  0  0  0  0  0  0  0
   56.2503   32.4765   51.2841 H   0  0  0  0  0  0  0  0  0  0  0  0
   56.2987   28.6265   53.2717 H   0  0  0  0  0  0  0  0  0  0  0  0
   58.7104   28.3715   52.7121 H   0  0  0  0  0  0  0  0  0  0  0  0
   61.1334   27.6700   46.2155 H   0  0  0  0  0  0  0  0  0  0  0  0
   60.9972   26.7978   47.7871 H   0  0  0  0  0  0  0  0  0  0  0  0
   58.7874   29.0838   45.7159 H   0  0  0  0  0  0  0  0  0  0  0  0
   56.3870   28.5732   45.2732 H   0  0  0  0  0  0  0  0  0  0  0  0
   54.3510   27.1060   46.3450 H   0  0  0  0  0  0  0  0  0  0  0  0
   56.7505   24.8910   47.5175 H   0  0  0  0  0  0  0  0  0  0  0  0
   59.1544   25.3928   47.9561 H   0  0  0  0  0  0  0  0  0  0  0  0
  1  2  2  0
  2  3  1  0
  3  4  1  0
  4  5  1  0
  5  6  2  0
  6  7  1  0
  7  8  2  0
  8  9  1  0
  9 10  2  0
  3 11  1  0
 11 12  2  0
 11 13  1  0
 13 14  1  0
 14 15  1  0
 15 16  2  0
 16 17  1  0
 17 18  2  0
 18 19  1  0
 19 20  2  0
 19 21  1  0
 18 22  1  0
 22 23  2  0
 13 24  1  0
 24 25  2  0
 24 26  1  0
 26 27  1  0
 27 28  1  0
 28 29  2  0
 29 30  1  0
 30 31  2  0
 31 32  1  0
 31 33  1  0
 33 34  2  0
 26  2  1  0
 34 28  1  0
 10  5  1  0
 23 15  1  0
  4 35  1  0
  4 36  1  0
  6 37  1  0
  7 38  1  0
  8 39  1  0
  9 40  1  0
 10 41  1  0
 14 42  1  0
 14 43  1  0
 16 44  1  0
 17 45  1  0
 22 46  1  0
 23 47  1  0
 27 48  1  0
 27 49  1  0
 29 50  1  0
 30 51  1  0
 32 52  1  0
 33 53  1  0
 34 54  1  0
M  CHG  2  19   1  21  -1
M  END
>  <UniqueID>  (78) 
73

>  <SMILES>  (78) 
O=c1n(Cc2ccccc2)c(=O)n(Cc2ccc([N+](=O)[O-])cc2)c(=O)n1Cc1ccc(O)cc1

>  <Energy>  (78) 
68.3032678052772

>  <Genealogy>  (78) 
O=c1n(Cc2ccccc2)c(=O)n(Cc2ccc([N+](=O)[O-])cc2)c(=O)n1Cc1ccc(O)cc1 (3D coordinates assigned)
O=c1n(Cc2ccccc2)c(=O)n(Cc2ccc([N+](=O)[O-])cc2)c(=O)n1Cc1ccc(O)cc1 (optimized conformer: 68.3032678052772 kcal/mol)

>  <smiles>  (78) 
O=c1n(Cc2ccccc2)c(=O)n(Cc2ccc([N+](=O)[O-])cc2)c(=O)n1Cc1ccc(O)cc1

>  <score_type>  (78) 
oracle

>  <origin>  (78) 
adg

>  <m_score__min__energy>  (78) 
-9.0600000000000005

>  <m_primary>  (78) 
energy

$$$$
78:0
     RDKit          3D

 32 34  0  0  0  0  0  0  0  0999 V2000
   56.7730   26.3890   46.2970 O   0  0  0  0  0  0  0  0  0  0  0  0
   56.8660   27.6170   46.0410 C   0  0  0  0  0  0  0  0  0  0  0  0
   57.9170   28.3680   46.5700 C   0  0  0  0  0  0  0  0  0  0  0  0
   57.9900   29.7260   46.2560 C   0  0  0  0  0  0  0  0  0  0  0  0
   59.0340   30.4990   46.7810 O   0  0  0  0  0  0  0  0  0  0  0  0
   59.2750   30.6710   48.1510 C   0  0  0  0  0  0  0  0  0  0  0  0
   60.1810   29.8110   48.7820 C   0  0  0  0  0  0  0  0  0  0  0  0
   60.4430   29.9350   50.1490 C   0  0  0  0  0  0  0  0  0  0  0  0
   61.5660   28.8390   50.9320 Cl  0  0  0  0  0  0  0  0  0  0  0  0
   59.8110   30.9360   50.8920 C   0  0  0  0  0  0  0  0  0  0  0  0
   58.9270   31.8190   50.2670 C   0  0  0  0  0  0  0  0  0  0  0  0
   58.6530   31.6960   48.8940 C   0  0  0  0  0  0  0  0  0  0  0  0
   57.8300   32.6250   48.2380 O   0  0  0  0  0  0  0  0  0  0  0  0
   58.1990   33.3910   47.1230 C   0  0  0  0  0  0  0  0  0  0  0  0
   59.3880   34.1290   47.1800 C   0  0  0  0  0  0  0  0  0  0  0  0
   59.8030   34.8870   46.0800 C   0  0  0  0  0  0  0  0  0  0  0  0
   59.0370   34.9020   44.9110 C   0  0  0  0  0  0  0  0  0  0  0  0
   57.8570   34.1550   44.8390 C   0  0  0  0  0  0  0  0  0  0  0  0
   57.4390   33.3980   45.9380 C   0  0  0  0  0  0  0  0  0  0  0  0
   57.0330   30.2860   45.4670 N   0  0  0  0  0  0  0  0  0  0  0  0
   56.0180   29.5400   44.9590 C   0  0  0  0  0  0  0  0  0  0  0  0
   55.1500   30.0770   44.2230 O   0  0  0  0  0  0  0  0  0  0  0  0
   55.9390   28.2140   45.2460 N   0  0  0  0  0  0  0  0  0  0  0  0
   58.6710   27.8999   47.2199 H   0  0  0  0  0  0  0  0  0  0  0  0
   60.6909   29.0312   48.1972 H   0  0  0  0  0  0  0  0  0  0  0  0
   60.0098   31.0287   51.9699 H   0  0  0  0  0  0  0  0  0  0  0  0
   58.4429   32.6146   50.8525 H   0  0  0  0  0  0  0  0  0  0  0  0
   59.9988   34.1125   48.0947 H   0  0  0  0  0  0  0  0  0  0  0  0
   60.7330   35.4718   46.1351 H   0  0  0  0  0  0  0  0  0  0  0  0
   59.3623   35.5013   44.0478 H   0  0  0  0  0  0  0  0  0  0  0  0
   57.2571   34.1629   43.9170 H   0  0  0  0  0  0  0  0  0  0  0  0
   56.5137   32.8063   45.8764 H   0  0  0  0  0  0  0  0  0  0  0  0
  1  2  2  0
  2  3  1  0
  3  4  2  0
  4  5  1  0
  5  6  1  0
  6  7  2  0
  7  8  1  0
  8  9  1  0
  8 10  2  0
 10 11  1  0
 11 12  2  0
 12 13  1  0
 13 14  1  0
 14 15  2  0
 15 16  1  0
 16 17  2  0
 17 18  1  0
 18 19  2  0
  4 20  1  0
 20 21  1  0
 21 22  2  0
 21 23  1  0
 23  2  1  0
 12  6  1  0
 19 14  1  0
  3 24  1  0
  7 25  1  0
 10 26  1  0
 11 27  1  0
 15 28  1  0
 16 29  1  0
 17 30  1  0
 18 31  1  0
 19 32  1  0
M  CHG  2  20  -1  23  -1
M  END
>  <UniqueID>  (79) 
74

>  <SMILES>  (79) 
O=c1cc(Oc2cc(Cl)ccc2Oc2ccccc2)[n-]c(=O)[n-]1

>  <Energy>  (79) 
47.645387832635315

>  <Genealogy>  (79) 
O=c1cc(Oc2cc(Cl)ccc2Oc2ccccc2)[n-]c(=O)[n-]1 (protonated)
O=c1cc(Oc2cc(Cl)ccc2Oc2ccccc2)[n-]c(=O)[n-]1 (3D coordinates assigned)
O=c1cc(Oc2cc(Cl)ccc2Oc2ccccc2)[n-]c(=O)[n-]1 (optimized conformer: 47.645387832635315 kcal/mol)

>  <smiles>  (79) 
O=c1cc(Oc2cc(Cl)ccc2Oc2ccccc2)[nH]c(=O)[nH]1

>  <score_type>  (79) 
oracle

>  <origin>  (79) 
adg

>  <m_score__min__energy>  (79) 
-11.4

>  <m_primary>  (79) 
energy

$$$$
79:0
     RDKit          3D

 42 44  0  0  0  0  0  0  0  0999 V2000
   55.1250   26.3390   46.7830 H   0  0  0  0  0  0  0  0  0  0  0  0
   55.9450   25.8970   46.3890 O   0  0  0  0  0  0  0  0  0  0  0  0
   56.7870   26.5360   45.4990 N   0  0  0  0  0  0  0  0  0  0  0  0
   56.5180   26.5120   44.4900 H   0  0  0  0  0  0  0  0  0  0  0  0
   57.9070   27.1100   45.8470 C   0  0  0  0  0  0  0  0  0  0  0  0
   58.0540   28.5810   45.9000 C   0  0  0  0  0  0  0  0  0  0  0  0
   58.3320   29.2250   47.1110 C   0  0  0  0  0  0  0  0  0  0  0  0
   58.4690   28.6300   48.0260 H   0  0  0  0  0  0  0  0  0  0  0  0
   58.4370   30.6170   47.1680 C   0  0  0  0  0  0  0  0  0  0  0  0
   58.6675   31.1054   48.1263 H   0  0  0  0  0  0  0  0  0  0  0  0
   58.2510   31.4050   46.0110 C   0  0  0  0  0  0  0  0  0  0  0  0
   58.3490   32.8280   46.0350 C   0  0  0  0  0  0  0  0  0  0  0  0
   58.6450   33.5870   47.3210 C   0  0  0  0  0  0  0  0  0  0  0  0
   58.3849   34.6463   47.1785 H   0  0  0  0  0  0  0  0  0  0  0  0
   58.0467   33.1415   48.1295 H   0  0  0  0  0  0  0  0  0  0  0  0
   60.1020   33.4870   47.7010 C   0  0  0  0  0  0  0  0  0  0  0  0
   60.5080   33.6970   49.0300 C   0  0  0  0  0  0  0  0  0  0  0  0
   59.7600   33.9472   49.7967 H   0  0  0  0  0  0  0  0  0  0  0  0
   61.8560   33.5900   49.3840 C   0  0  0  0  0  0  0  0  0  0  0  0
   62.1659   33.7658   50.4247 H   0  0  0  0  0  0  0  0  0  0  0  0
   62.8110   33.2600   48.4180 C   0  0  0  0  0  0  0  0  0  0  0  0
   64.5020   33.1250   48.8640 Cl  0  0  0  0  0  0  0  0  0  0  0  0
   62.4150   33.0300   47.0960 C   0  0  0  0  0  0  0  0  0  0  0  0
   63.1647   32.7648   46.3360 H   0  0  0  0  0  0  0  0  0  0  0  0
   61.0670   33.1370   46.7400 C   0  0  0  0  0  0  0  0  0  0  0  0
   60.7594   32.9461   45.7013 H   0  0  0  0  0  0  0  0  0  0  0  0
   58.1290   33.5580   44.8410 C   0  0  0  0  0  0  0  0  0  0  0  0
   58.2050   34.9630   44.8730 O   0  0  0  0  0  0  0  0  0  0  0  0
   59.4150   35.7130   44.8840 C   0  0  0  0  0  0  0  0  0  0  0  0
   59.7198   35.9019   45.9239 H   0  0  0  0  0  0  0  0  0  0  0  0
   60.2032   35.1449   44.3683 H   0  0  0  0  0  0  0  0  0  0  0  0
   59.2569   36.6717   44.3683 H   0  0  0  0  0  0  0  0  0  0  0  0
   57.8330   32.8760   43.6490 C   0  0  0  0  0  0  0  0  0  0  0  0
   57.6688   33.4467   42.7231 H   0  0  0  0  0  0  0  0  0  0  0  0
   57.7450   31.4890   43.6250 C   0  0  0  0  0  0  0  0  0  0  0  0
   57.5138   30.9728   42.6816 H   0  0  0  0  0  0  0  0  0  0  0  0
   57.9480   30.7460   44.7900 C   0  0  0  0  0  0  0  0  0  0  0  0
   57.8480   29.3460   44.7470 C   0  0  0  0  0  0  0  0  0  0  0  0
   57.6054   28.8461   43.7977 H   0  0  0  0  0  0  0  0  0  0  0  0
   59.0410   26.2980   46.1740 N   0  0  0  0  0  0  0  0  0  0  0  0
   59.9550   26.7360   46.4230 H   0  0  0  0  0  0  0  0  0  0  0  0
   58.9780   25.2550   46.1600 H   0  0  0  0  0  0  0  0  0  0  0  0
  1  2  1  0
  2  3  1  0
  3  4  1  0
  3  5  2  0
  5  6  1  0
  6  7  2  0
  7  8  1  0
  7  9  1  0
  9 10  1  0
  9 11  2  0
 11 12  1  0
 12 13  1  0
 13 14  1  0
 13 15  1  0
 13 16  1  0
 16 17  2  0
 17 18  1  0
 17 19  1  0
 19 20  1  0
 19 21  2  0
 21 22  1  0
 21 23  1  0
 23 24  1  0
 23 25  2  0
 25 26  1  0
 12 27  2  0
 27 28  1  0
 28 29  1  0
 29 30  1  0
 29 31  1  0
 29 32  1  0
 27 33  1  0
 33 34  1  0
 33 35  2  0
 35 36  1  0
 35 37  1  0
 37 38  2  0
 38 39  1  0
  5 40  1  0
 40 41  1  0
 40 42  1  0
 38  6  1  0
 37 11  1  0
 25 16  1  0
M  CHG  1   3   1
M  END
>  <UniqueID>  (80) 
75

>  <SMILES>  (80) 
COc1ccc2cc(/C(N)=[NH+]\O)ccc2c1Cc1ccc(Cl)cc1

>  <Energy>  (80) 
56.161813324813885

>  <Genealogy>  (80) 
COc1ccc2cc(C(N)=[NH+]O)ccc2c1Cc1ccc(Cl)cc1 (protonated)
COc1ccc2cc(/C(N)=[NH+]\O)ccc2c1Cc1ccc(Cl)cc1 (cis-trans isomerization)
COc1ccc2cc(/C(N)=[NH+]\O)ccc2c1Cc1ccc(Cl)cc1 (3D coordinates assigned)
COc1ccc2cc(/C(N)=[NH+]\O)ccc2c1Cc1ccc(Cl)cc1 (optimized conformer: 56.161813324813885 kcal/mol)

>  <smiles>  (80) 
COc1ccc2cc(C(N)=NO)ccc2c1Cc1ccc(Cl)cc1

>  <score_type>  (80) 
oracle

>  <origin>  (80) 
adg

>  <m_score__min__energy>  (80) 
-6.9100000000000001

>  <m_primary>  (80) 
energy

$$$$
80:0
     RDKit          3D

 47 49  0  0  0  0  0  0  0  0999 V2000
   56.6950   29.8250   42.8120 C   0  0  0  0  0  0  0  0  0  0  0  0
   57.3910   29.9030   44.1860 C   0  0  0  0  0  0  0  0  0  0  0  0
   57.6720   31.3920   44.4990 C   0  0  0  0  0  0  0  0  0  0  0  0
   58.7200   29.1020   44.1190 C   0  0  0  0  0  0  0  0  0  0  0  0
   58.5510   27.6300   44.4120 C   0  0  0  0  0  0  0  0  0  0  0  0
   57.5890   26.8850   43.8060 N   0  0  0  0  0  0  0  0  0  0  0  0
   57.7610   25.6660   44.3430 C   0  0  0  0  0  0  0  0  0  0  0  0
   57.0360   24.5100   44.0620 C   0  0  0  0  0  0  0  0  0  0  0  0
   57.3920   23.3270   44.7400 C   0  0  0  0  0  0  0  0  0  0  0  0
   56.5260   21.8300   44.4110 S   0  0  0  0  0  0  0  0  0  0  0  0
   57.4430   20.4870   44.9980 N   0  0  0  0  0  0  0  0  0  0  0  0
   55.1850   21.8580   45.0900 O   0  0  0  0  0  0  0  0  0  0  0  0
   56.3110   21.6810   42.9300 O   0  0  0  0  0  0  0  0  0  0  0  0
   58.4650   23.3350   45.6640 C   0  0  0  0  0  0  0  0  0  0  0  0
   59.1760   24.5200   45.9240 C   0  0  0  0  0  0  0  0  0  0  0  0
   58.7890   25.6760   45.2390 C   0  0  0  0  0  0  0  0  0  0  0  0
   59.3020   26.9190   45.3010 N   0  0  0  0  0  0  0  0  0  0  0  0
   60.4630   27.3710   46.0780 C   0  0  0  0  0  0  0  0  0  0  0  0
   60.0810   28.5080   46.9930 C   0  0  0  0  0  0  0  0  0  0  0  0
   59.3180   28.2630   48.1480 C   0  0  0  0  0  0  0  0  0  0  0  0
   58.9640   29.3160   48.9960 C   0  0  0  0  0  0  0  0  0  0  0  0
   59.3590   30.6230   48.6940 C   0  0  0  0  0  0  0  0  0  0  0  0
   60.1080   30.8770   47.5430 C   0  0  0  0  0  0  0  0  0  0  0  0
   60.4660   29.8260   46.6920 C   0  0  0  0  0  0  0  0  0  0  0  0
   56.4650   29.2920   45.2250 C   0  0  0  0  0  0  0  0  0  0  0  0
   55.2120   29.3440   45.0940 O   0  0  0  0  0  0  0  0  0  0  0  0
   56.9990   28.6930   46.3610 O   0  0  0  0  0  0  0  0  0  0  0  0
   55.6113   29.7036   42.9563 H   0  0  0  0  0  0  0  0  0  0  0  0
   56.8886   30.7505   42.2498 H   0  0  0  0  0  0  0  0  0  0  0  0
   57.0887   28.9654   42.2498 H   0  0  0  0  0  0  0  0  0  0  0  0
   57.6997   31.5387   45.5888 H   0  0  0  0  0  0  0  0  0  0  0  0
   58.6406   31.6814   44.0653 H   0  0  0  0  0  0  0  0  0  0  0  0
   56.8755   32.0145   44.0653 H   0  0  0  0  0  0  0  0  0  0  0  0
   59.1411   29.2099   43.1085 H   0  0  0  0  0  0  0  0  0  0  0  0
   59.3847   29.5121   44.8936 H   0  0  0  0  0  0  0  0  0  0  0  0
   56.2116   24.5204   43.3338 H   0  0  0  0  0  0  0  0  0  0  0  0
   58.4500   20.7130   44.8360 H   0  0  0  0  0  0  0  0  0  0  0  0
   57.2140   19.6720   44.3870 H   0  0  0  0  0  0  0  0  0  0  0  0
   58.7447   22.4063   46.1828 H   0  0  0  0  0  0  0  0  0  0  0  0
   60.0089   24.5370   46.6423 H   0  0  0  0  0  0  0  0  0  0  0  0
   60.8421   26.5332   46.6816 H   0  0  0  0  0  0  0  0  0  0  0  0
   61.2397   27.7218   45.3825 H   0  0  0  0  0  0  0  0  0  0  0  0
   58.9981   27.2377   48.3854 H   0  0  0  0  0  0  0  0  0  0  0  0
   58.3737   29.1164   49.9025 H   0  0  0  0  0  0  0  0  0  0  0  0
   59.0799   31.4506   49.3627 H   0  0  0  0  0  0  0  0  0  0  0  0
   60.4171   31.9055   47.3051 H   0  0  0  0  0  0  0  0  0  0  0  0
   61.0512   30.0318   45.7836 H   0  0  0  0  0  0  0  0  0  0  0  0
  1  2  1  0
  2  3  1  0
  2  4  1  0
  4  5  1  0
  5  6  2  0
  6  7  1  0
  7  8  2  0
  8  9  1  0
  9 10  1  0
 10 11  1  0
 10 12  2  0
 10 13  2  0
  9 14  2  0
 14 15  1  0
 15 16  2  0
 16 17  1  0
 17 18  1  0
 18 19  1  0
 19 20  2  0
 20 21  1  0
 21 22  2  0
 22 23  1  0
 23 24  2  0
  2 25  1  0
 25 26  2  0
 25 27  1  0
 17  5  1  0
 24 19  1  0
 16  7  1  0
  1 28  1  0
  1 29  1  0
  1 30  1  0
  3 31  1  0
  3 32  1  0
  3 33  1  0
  4 34  1  0
  4 35  1  0
  8 36  1  0
 11 37  1  0
 11 38  1  0
 14 39  1  0
 15 40  1  0
 18 41  1  0
 18 42  1  0
 20 43  1  0
 21 44  1  0
 22 45  1  0
 23 46  1  0
 24 47  1  0
M  CHG  1  27  -1
M  END
>  <UniqueID>  (81) 
76

>  <SMILES>  (81) 
CC(C)(Cc1nc2cc(S(N)(=O)=O)ccc2n1Cc1ccccc1)C(=O)[O-]

>  <Energy>  (81) 
80.9776466425193

>  <Genealogy>  (81) 
CC(C)(Cc1nc2cc(S(N)(=O)=O)ccc2n1Cc1ccccc1)C(=O)[O-] (protonated)
CC(C)(Cc1nc2cc(S(N)(=O)=O)ccc2n1Cc1ccccc1)C(=O)[O-] (3D coordinates assigned)
CC(C)(Cc1nc2cc(S(N)(=O)=O)ccc2n1Cc1ccccc1)C(=O)[O-] (optimized conformer: 80.9776466425193 kcal/mol)

>  <smiles>  (81) 
CC(C)(Cc1nc2cc(S(N)(=O)=O)ccc2n1Cc1ccccc1)C(=O)O

>  <score_type>  (81) 
oracle

>  <origin>  (81) 
adg

>  <m_score__min__energy>  (81) 
-10.84

>  <m_primary>  (81) 
energy

$$$$
81:0
     RDKit          3D

 45 47  0  0  0  0  0  0  0  0999 V2000
   58.8150   34.4717   50.3542 H   0  0  0  0  0  0  0  0  0  0  0  0
   59.6440   34.2530   49.6650 C   0  0  0  0  0  0  0  0  0  0  0  0
   60.8670   33.9330   50.1600 N   0  0  0  0  0  0  0  0  0  0  0  0
   61.9170   33.6490   49.3480 C   0  0  0  0  0  0  0  0  0  0  0  0
   63.1650   33.3490   49.9060 C   0  0  0  0  0  0  0  0  0  0  0  0
   63.2862   33.3295   50.9991 H   0  0  0  0  0  0  0  0  0  0  0  0
   64.2580   33.0740   49.0790 C   0  0  0  0  0  0  0  0  0  0  0  0
   65.8260   32.7210   49.7830 Cl  0  0  0  0  0  0  0  0  0  0  0  0
   64.1050   33.0840   47.6900 C   0  0  0  0  0  0  0  0  0  0  0  0
   64.9659   32.8627   47.0420 H   0  0  0  0  0  0  0  0  0  0  0  0
   62.8630   33.3740   47.1220 C   0  0  0  0  0  0  0  0  0  0  0  0
   62.7490   33.3707   46.0279 H   0  0  0  0  0  0  0  0  0  0  0  0
   61.7540   33.6710   47.9400 C   0  0  0  0  0  0  0  0  0  0  0  0
   60.4910   34.0150   47.4020 C   0  0  0  0  0  0  0  0  0  0  0  0
   60.3410   34.0850   46.1060 N   0  0  0  0  0  0  0  0  0  0  0  0
   59.4200   34.9560   45.3750 C   0  0  0  0  0  0  0  0  0  0  0  0
   59.9194   35.3354   44.4713 H   0  0  0  0  0  0  0  0  0  0  0  0
   59.1288   35.7946   46.0246 H   0  0  0  0  0  0  0  0  0  0  0  0
   58.1640   34.1800   44.9700 C   0  0  0  0  0  0  0  0  0  0  0  0
   57.6538   34.7164   44.1564 H   0  0  0  0  0  0  0  0  0  0  0  0
   57.5009   34.0961   45.8436 H   0  0  0  0  0  0  0  0  0  0  0  0
   58.5160   32.8380   44.5140 N   0  0  0  0  0  0  0  0  0  0  0  0
   58.1190   31.6520   45.2140 C   0  0  0  0  0  0  0  0  0  0  0  0
   57.0350   31.0840   44.9110 O   0  0  0  0  0  0  0  0  0  0  0  0
   58.9440   31.1300   46.3280 C   0  0  0  0  0  0  0  0  0  0  0  0
   60.2130   30.5890   46.0850 C   0  0  0  0  0  0  0  0  0  0  0  0
   60.5753   30.4885   45.0513 H   0  0  0  0  0  0  0  0  0  0  0  0
   61.0200   30.1770   47.1450 C   0  0  0  0  0  0  0  0  0  0  0  0
   62.0134   29.7524   46.9376 H   0  0  0  0  0  0  0  0  0  0  0  0
   60.5810   30.2970   48.4750 C   0  0  0  0  0  0  0  0  0  0  0  0
   61.5230   29.9050   49.5800 C   0  0  0  0  0  0  0  0  0  0  0  0
   61.0492   30.1022   50.5529 H   0  0  0  0  0  0  0  0  0  0  0  0
   61.7593   28.8338   49.4976 H   0  0  0  0  0  0  0  0  0  0  0  0
   62.4495   30.4923   49.4976 H   0  0  0  0  0  0  0  0  0  0  0  0
   59.3010   30.8500   48.7330 C   0  0  0  0  0  0  0  0  0  0  0  0
   58.6960   31.1130   50.3820 S   0  0  0  0  0  0  0  0  0  0  0  0
   57.5440   32.0780   50.3580 O   0  0  0  0  0  0  0  0  0  0  0  0
   58.2080   29.8160   50.9650 O   0  0  0  0  0  0  0  0  0  0  0  0
   59.9400   31.7810   51.3810 N   0  0  0  0  0  0  0  0  0  0  0  0
   60.8140   31.8250   50.8120 H   0  0  0  0  0  0  0  0  0  0  0  0
   59.6670   32.7640   51.6070 H   0  0  0  0  0  0  0  0  0  0  0  0
   58.4930   31.2420   47.6530 C   0  0  0  0  0  0  0  0  0  0  0  0
   57.4881   31.6443   47.8489 H   0  0  0  0  0  0  0  0  0  0  0  0
   59.4330   34.3060   48.2870 C   0  0  0  0  0  0  0  0  0  0  0  0
   58.4423   34.5745   47.8915 H   0  0  0  0  0  0  0  0  0  0  0  0
  1  2  1  0
  2  3  1  0
  3  4  1  0
  4  5  2  0
  5  6  1  0
  5  7  1  0
  7  8  1  0
  7  9  2  0
  9 10  1  0
  9 11  1  0
 11 12  1  0
 11 13  2  0
 13 14  1  0
 14 15  2  0
 15 16  1  0
 16 17  1  0
 16 18  1  0
 16 19  1  0
 19 20  1  0
 19 21  1  0
 19 22  1  0
 22 23  1  0
 23 24  2  0
 23 25  1  0
 25 26  2  0
 26 27  1  0
 26 28  1  0
 28 29  1  0
 28 30  2  0
 30 31  1  0
 31 32  1  0
 31 33  1  0
 31 34  1  0
 30 35  1  0
 35 36  1  0
 36 37  2  0
 36 38  2  0
 36 39  1  0
 39 40  1  0
 39 41  1  0
 35 42  2  0
 42 43  1  0
 14 44  1  0
 44 45  1  0
 44  2  2  0
 13  4  1  0
 42 25  1  0
M  CHG  2   3  -1  22  -1
M  END
>  <UniqueID>  (82) 
77

>  <SMILES>  (82) 
Cc1ccc(C(=O)[N-]CC/N=c2\cc[n-]c3cc(Cl)ccc23)cc1S(N)(=O)=O

>  <Energy>  (82) 
51.03060121513833

>  <Genealogy>  (82) 
Cc1ccc(C(=O)[N-]CCN=c2cc[n-]c3cc(Cl)ccc23)cc1S(N)(=O)=O (protonated)
Cc1ccc(C(=O)[N-]CC/N=c2\cc[n-]c3cc(Cl)ccc23)cc1S(N)(=O)=O (cis-trans isomerization)
Cc1ccc(C(=O)[N-]CC/N=c2\cc[n-]c3cc(Cl)ccc23)cc1S(N)(=O)=O (3D coordinates assigned)
Cc1ccc(C(=O)[N-]CC/N=c2\cc[n-]c3cc(Cl)ccc23)cc1S(N)(=O)=O (optimized conformer: 51.03060121513833 kcal/mol)

>  <smiles>  (82) 
Cc1ccc(C(=O)NCCN=c2cc[nH]c3cc(Cl)ccc23)cc1S(N)(=O)=O

>  <score_type>  (82) 
oracle

>  <origin>  (82) 
adg

>  <m_score__min__energy>  (82) 
-12.300000000000001

>  <m_primary>  (82) 
energy

$$$$
82:0
     RDKit          3D

 37 39  0  0  0  0  0  0  0  0999 V2000
   64.5790   32.5000   46.9410 H   0  0  0  0  0  0  0  0  0  0  0  0
   64.2000   33.4260   47.2390 N   0  0  0  0  0  0  0  0  0  0  0  0
   63.0190   33.5370   47.7560 C   0  0  0  0  0  0  0  0  0  0  0  0
   61.9380   33.0830   47.0700 N   0  0  0  0  0  0  0  0  0  0  0  0
   60.6770   33.1850   47.5770 C   0  0  0  0  0  0  0  0  0  0  0  0
   59.5300   32.6680   46.7860 C   0  0  0  0  0  0  0  0  0  0  0  0
   58.4720   33.5080   46.3910 C   0  0  0  0  0  0  0  0  0  0  0  0
   58.4841   34.5707   46.6748 H   0  0  0  0  0  0  0  0  0  0  0  0
   57.4060   33.0030   45.6410 C   0  0  0  0  0  0  0  0  0  0  0  0
   56.5907   33.6737   45.3320 H   0  0  0  0  0  0  0  0  0  0  0  0
   57.3670   31.6520   45.2800 C   0  0  0  0  0  0  0  0  0  0  0  0
   56.2630   31.1810   44.4930 N   0  0  0  0  0  0  0  0  0  0  0  0
   55.9630   29.8170   44.1780 C   0  0  0  0  0  0  0  0  0  0  0  0
   55.8960   29.4380   42.9780 O   0  0  0  0  0  0  0  0  0  0  0  0
   55.8450   28.8710   45.2460 N   0  0  0  0  0  0  0  0  0  0  0  0
   56.6870   27.7320   45.4740 C   0  0  0  0  0  0  0  0  0  0  0  0
   58.0280   27.8020   45.0810 C   0  0  0  0  0  0  0  0  0  0  0  0
   58.4088   28.7132   44.5966 H   0  0  0  0  0  0  0  0  0  0  0  0
   58.8860   26.7220   45.3000 C   0  0  0  0  0  0  0  0  0  0  0  0
   59.9357   26.7808   44.9766 H   0  0  0  0  0  0  0  0  0  0  0  0
   58.4140   25.5670   45.9290 C   0  0  0  0  0  0  0  0  0  0  0  0
   59.0930   24.7169   46.0912 H   0  0  0  0  0  0  0  0  0  0  0  0
   57.0770   25.4840   46.3560 C   0  0  0  0  0  0  0  0  0  0  0  0
   56.5910   24.3030   47.0220 N   0  0  0  0  0  0  0  0  0  0  0  0
   57.3880   23.4760   47.5120 O   0  0  0  0  0  0  0  0  0  0  0  0
   55.2400   24.0650   47.1270 O   0  0  0  0  0  0  0  0  0  0  0  0
   56.2190   26.5780   46.1300 C   0  0  0  0  0  0  0  0  0  0  0  0
   55.1737   26.5300   46.4693 H   0  0  0  0  0  0  0  0  0  0  0  0
   58.4360   30.8150   45.6410 C   0  0  0  0  0  0  0  0  0  0  0  0
   58.4321   29.7588   45.3337 H   0  0  0  0  0  0  0  0  0  0  0  0
   59.5050   31.3180   46.3890 C   0  0  0  0  0  0  0  0  0  0  0  0
   60.3343   30.6522   46.6698 H   0  0  0  0  0  0  0  0  0  0  0  0
   60.5010   33.7610   48.8450 C   0  0  0  0  0  0  0  0  0  0  0  0
   59.4975   33.8474   49.2871 H   0  0  0  0  0  0  0  0  0  0  0  0
   61.6240   34.2220   49.5340 C   0  0  0  0  0  0  0  0  0  0  0  0
   61.5097   34.6811   50.5271 H   0  0  0  0  0  0  0  0  0  0  0  0
   62.8570   34.1040   48.9790 N   0  0  0  0  0  0  0  0  0  0  0  0
  1  2  1  0
  2  3  2  0
  3  4  1  0
  4  5  2  0
  5  6  1  0
  6  7  2  0
  7  8  1  0
  7  9  1  0
  9 10  1  0
  9 11  2  0
 11 12  1  0
 12 13  1  0
 13 14  2  0
 13 15  1  0
 15 16  1  0
 16 17  2  0
 17 18  1  0
 17 19  1  0
 19 20  1  0
 19 21  2  0
 21 22  1  0
 21 23  1  0
 23 24  1  0
 24 25  2  0
 24 26  1  0
 23 27  2  0
 27 28  1  0
 11 29  1  0
 29 30  1  0
 29 31  2  0
 31 32  1  0
  5 33  1  0
 33 34  1  0
 33 35  2  0
 35 36  1  0
 35 37  1  0
 37  3  1  0
 31  6  1  0
 27 16  1  0
M  CHG  5  12  -1  15  -1  24   1  26  -1  37  -1
M  END
>  <UniqueID>  (83) 
78

>  <SMILES>  (83) 
[H]/N=c1/nc(-c2ccc([N-]C(=O)[N-]c3cccc([N+](=O)[O-])c3)cc2)cc[n-]1

>  <Energy>  (83) 
52.65221398488222

>  <Genealogy>  (83) 
N=c1nc(-c2ccc([N-]C(=O)[N-]c3cccc([N+](=O)[O-])c3)cc2)cc[n-]1 (protonated)
[H]/N=c1/nc(-c2ccc([N-]C(=O)[N-]c3cccc([N+](=O)[O-])c3)cc2)cc[n-]1 (cis-trans isomerization)
[H]/N=c1/nc(-c2ccc([N-]C(=O)[N-]c3cccc([N+](=O)[O-])c3)cc2)cc[n-]1 (3D coordinates assigned)
[H]/N=c1/nc(-c2ccc([N-]C(=O)[N-]c3cccc([N+](=O)[O-])c3)cc2)cc[n-]1 (optimized conformer: 52.65221398488222 kcal/mol)

>  <smiles>  (83) 
N=c1nc(-c2ccc(NC(=O)Nc3cccc([N+](=O)[O-])c3)cc2)cc[nH]1

>  <score_type>  (83) 
oracle

>  <origin>  (83) 
adg

>  <m_score__min__energy>  (83) 
-12.32

>  <m_primary>  (83) 
energy

$$$$
83:0
     RDKit          3D

 54 56  0  0  0  0  0  0  0  0999 V2000
   57.0350   34.1630   45.0000 C   0  0  0  0  0  0  0  0  0  0  0  0
   57.9670   33.5190   45.9880 C   0  0  0  0  0  0  0  0  0  0  0  0
   58.8800   34.3080   46.7070 C   0  0  0  0  0  0  0  0  0  0  0  0
   59.7540   33.7240   47.6350 C   0  0  0  0  0  0  0  0  0  0  0  0
   60.7150   34.5750   48.4250 C   0  0  0  0  0  0  0  0  0  0  0  0
   61.9340   33.8110   48.7670 N   0  0  0  0  0  0  0  0  0  0  0  0
   62.1540   33.4030   50.0630 C   0  0  0  0  0  0  0  0  0  0  0  0
   61.2280   33.7200   51.1120 N   0  0  0  0  0  0  0  0  0  0  0  0
   60.0500   32.9430   51.3900 C   0  0  0  0  0  0  0  0  0  0  0  0
   58.8730   33.5380   51.8720 C   0  0  0  0  0  0  0  0  0  0  0  0
   57.7400   32.7610   52.1300 C   0  0  0  0  0  0  0  0  0  0  0  0
   57.7550   31.3680   51.9120 C   0  0  0  0  0  0  0  0  0  0  0  0
   56.5780   30.5610   52.1770 N   0  0  0  0  0  0  0  0  0  0  0  0
   55.2350   31.0880   51.9080 C   0  0  0  0  0  0  0  0  0  0  0  0
   56.7120   29.2040   52.7240 C   0  0  0  0  0  0  0  0  0  0  0  0
   58.9420   30.7810   51.4300 C   0  0  0  0  0  0  0  0  0  0  0  0
   60.0730   31.5600   51.1770 C   0  0  0  0  0  0  0  0  0  0  0  0
   63.2710   32.6290   50.3780 C   0  0  0  0  0  0  0  0  0  0  0  0
   64.1660   32.3000   49.3680 C   0  0  0  0  0  0  0  0  0  0  0  0
   65.1870   31.6100   49.6310 O   0  0  0  0  0  0  0  0  0  0  0  0
   63.9360   32.7200   48.0980 N   0  0  0  0  0  0  0  0  0  0  0  0
   62.8360   33.4600   47.7890 C   0  0  0  0  0  0  0  0  0  0  0  0
   62.6550   33.8120   46.5910 O   0  0  0  0  0  0  0  0  0  0  0  0
   59.7210   32.3370   47.8290 C   0  0  0  0  0  0  0  0  0  0  0  0
   58.8240   31.5430   47.1120 C   0  0  0  0  0  0  0  0  0  0  0  0
   57.9400   32.1250   46.1830 C   0  0  0  0  0  0  0  0  0  0  0  0
   57.0240   31.3570   45.4420 O   0  0  0  0  0  0  0  0  0  0  0  0
   57.3610   30.4350   44.4060 C   0  0  0  0  0  0  0  0  0  0  0  0
   56.1420   29.7140   43.9250 C   0  0  0  0  0  0  0  0  0  0  0  0
   56.0180   29.4180   42.7070 O   0  0  0  0  0  0  0  0  0  0  0  0
   55.1550   29.3380   44.8270 O   0  0  0  0  0  0  0  0  0  0  0  0
   56.2469   34.7076   45.5406 H   0  0  0  0  0  0  0  0  0  0  0  0
   57.5986   34.8652   44.3682 H   0  0  0  0  0  0  0  0  0  0  0  0
   56.5775   33.3874   44.3682 H   0  0  0  0  0  0  0  0  0  0  0  0
   58.9096   35.3949   46.5404 H   0  0  0  0  0  0  0  0  0  0  0  0
   60.9962   35.4531   47.8251 H   0  0  0  0  0  0  0  0  0  0  0  0
   60.2230   34.8897   49.3572 H   0  0  0  0  0  0  0  0  0  0  0  0
   61.3840   34.6110   51.6360 H   0  0  0  0  0  0  0  0  0  0  0  0
   58.8423   34.6234   52.0478 H   0  0  0  0  0  0  0  0  0  0  0  0
   56.8257   33.2421   52.5076 H   0  0  0  0  0  0  0  0  0  0  0  0
   54.7225   31.2891   52.8603 H   0  0  0  0  0  0  0  0  0  0  0  0
   55.3160   32.0210   51.3310 H   0  0  0  0  0  0  0  0  0  0  0  0
   54.6599   30.3489   51.3310 H   0  0  0  0  0  0  0  0  0  0  0  0
   56.7075   29.2496   53.8230 H   0  0  0  0  0  0  0  0  0  0  0  0
   55.8706   28.5850   52.3792 H   0  0  0  0  0  0  0  0  0  0  0  0
   57.6582   28.7615   52.3792 H   0  0  0  0  0  0  0  0  0  0  0  0
   58.9781   29.6963   51.2509 H   0  0  0  0  0  0  0  0  0  0  0  0
   60.9916   31.0816   50.8064 H   0  0  0  0  0  0  0  0  0  0  0  0
   63.4402   32.2850   51.4090 H   0  0  0  0  0  0  0  0  0  0  0  0
   64.6130   32.4650   47.3430 H   0  0  0  0  0  0  0  0  0  0  0  0
   60.4067   31.8702   48.5514 H   0  0  0  0  0  0  0  0  0  0  0  0
   58.8076   30.4551   47.2739 H   0  0  0  0  0  0  0  0  0  0  0  0
   57.8111   30.9841   43.5659 H   0  0  0  0  0  0  0  0  0  0  0  0
   58.0739   29.6985   44.8052 H   0  0  0  0  0  0  0  0  0  0  0  0
  1  2  1  0
  2  3  2  0
  3  4  1  0
  4  5  1  0
  5  6  1  0
  6  7  1  0
  7  8  1  0
  8  9  1  0
  9 10  2  0
 10 11  1  0
 11 12  2  0
 12 13  1  0
 13 14  1  0
 13 15  1  0
 12 16  1  0
 16 17  2  0
  7 18  2  0
 18 19  1  0
 19 20  2  0
 19 21  1  0
 21 22  1  0
 22 23  2  0
  4 24  2  0
 24 25  1  0
 25 26  2  0
 26 27  1  0
 27 28  1  0
 28 29  1  0
 29 30  2  0
 29 31  1  0
 26  2  1  0
 22  6  1  0
 17  9  1  0
  1 32  1  0
  1 33  1  0
  1 34  1  0
  3 35  1  0
  5 36  1  0
  5 37  1  0
  8 38  1  0
 10 39  1  0
 11 40  1  0
 14 41  1  0
 14 42  1  0
 14 43  1  0
 15 44  1  0
 15 45  1  0
 15 46  1  0
 16 47  1  0
 17 48  1  0
 18 49  1  0
 21 50  1  0
 24 51  1  0
 25 52  1  0
 28 53  1  0
 28 54  1  0
M  CHG  1  31  -1
M  END
>  <UniqueID>  (84) 
79

>  <SMILES>  (84) 
Cc1cc(Cn2c(Nc3ccc(N(C)C)cc3)cc(=O)[nH]c2=O)ccc1OCC(=O)[O-]

>  <Energy>  (84) 
66.51364193385581

>  <Genealogy>  (84) 
Cc1cc(Cn2c(Nc3ccc(N(C)C)cc3)cc(=O)[nH]c2=O)ccc1OCC(=O)[O-] (protonated)
Cc1cc(Cn2c(Nc3ccc(N(C)C)cc3)cc(=O)[nH]c2=O)ccc1OCC(=O)[O-] (3D coordinates assigned)
Cc1cc(Cn2c(Nc3ccc(N(C)C)cc3)cc(=O)[nH]c2=O)ccc1OCC(=O)[O-] (optimized conformer: 66.51364193385581 kcal/mol)

>  <smiles>  (84) 
Cc1cc(Cn2c(Nc3ccc(N(C)C)cc3)cc(=O)[nH]c2=O)ccc1OCC(=O)O

>  <score_type>  (84) 
oracle

>  <origin>  (84) 
adg

>  <m_score__min__energy>  (84) 
-11.18

>  <m_primary>  (84) 
energy

$$$$
84:0
     RDKit          3D

 54 56  0  0  0  0  0  0  0  0999 V2000
   56.3660   30.0500   43.8320 C   0  0  0  0  0  0  0  0  0  0  0  0
   56.0670   31.2750   44.4950 O   0  0  0  0  0  0  0  0  0  0  0  0
   57.0170   32.2540   44.8250 C   0  0  0  0  0  0  0  0  0  0  0  0
   57.0140   32.7720   46.1250 C   0  0  0  0  0  0  0  0  0  0  0  0
   57.9420   33.7460   46.5040 C   0  0  0  0  0  0  0  0  0  0  0  0
   58.8850   34.2240   45.5810 C   0  0  0  0  0  0  0  0  0  0  0  0
   59.9150   35.2330   46.0040 C   0  0  0  0  0  0  0  0  0  0  0  0
   60.8750   34.6050   46.9670 C   0  0  0  0  0  0  0  0  0  0  0  0
   60.5440   34.4840   48.1780 O   0  0  0  0  0  0  0  0  0  0  0  0
   62.1330   34.0940   46.5030 N   0  0  0  0  0  0  0  0  0  0  0  0
   63.0730   33.3980   47.3790 C   0  0  0  0  0  0  0  0  0  0  0  0
   62.4460   32.1490   47.9400 C   0  0  0  0  0  0  0  0  0  0  0  0
   62.6930   31.7720   49.2700 C   0  0  0  0  0  0  0  0  0  0  0  0
   62.0860   30.6300   49.8050 C   0  0  0  0  0  0  0  0  0  0  0  0
   61.2140   29.8630   49.0220 C   0  0  0  0  0  0  0  0  0  0  0  0
   60.4310   28.4420   49.7100 S   0  0  0  0  0  0  0  0  0  0  0  0
   61.1570   28.0510   50.9670 O   0  0  0  0  0  0  0  0  0  0  0  0
   59.0040   28.7560   50.0720 O   0  0  0  0  0  0  0  0  0  0  0  0
   60.4500   27.1000   48.6110 N   0  0  0  0  0  0  0  0  0  0  0  0
   59.6500   27.0480   47.4260 C   0  0  0  0  0  0  0  0  0  0  0  0
   60.0440   27.7140   46.2540 C   0  0  0  0  0  0  0  0  0  0  0  0
   59.2480   27.6460   45.1090 C   0  0  0  0  0  0  0  0  0  0  0  0
   58.0540   26.9130   45.1240 C   0  0  0  0  0  0  0  0  0  0  0  0
   57.6560   26.2350   46.2880 C   0  0  0  0  0  0  0  0  0  0  0  0
   56.1620   25.2990   46.3070 S   0  0  0  0  0  0  0  0  0  0  0  0
   54.8210   26.3440   45.9910 N   0  0  0  0  0  0  0  0  0  0  0  0
   55.9830   24.6490   47.6510 O   0  0  0  0  0  0  0  0  0  0  0  0
   56.2230   24.2260   45.2580 O   0  0  0  0  0  0  0  0  0  0  0  0
   58.4680   26.2910   47.4300 C   0  0  0  0  0  0  0  0  0  0  0  0
   60.9650   30.2380   47.6940 C   0  0  0  0  0  0  0  0  0  0  0  0
   61.5790   31.3720   47.1550 C   0  0  0  0  0  0  0  0  0  0  0  0
   58.8980   33.6980   44.2780 C   0  0  0  0  0  0  0  0  0  0  0  0
   57.9680   32.7250   43.8990 C   0  0  0  0  0  0  0  0  0  0  0  0
   56.5574   29.2658   44.5793 H   0  0  0  0  0  0  0  0  0  0  0  0
   55.5132   29.7562   43.2024 H   0  0  0  0  0  0  0  0  0  0  0  0
   57.2583   30.1821   43.2024 H   0  0  0  0  0  0  0  0  0  0  0  0
   56.2750   32.4095   46.8548 H   0  0  0  0  0  0  0  0  0  0  0  0
   57.9332   34.1399   47.5310 H   0  0  0  0  0  0  0  0  0  0  0  0
   60.4644   35.5869   45.1192 H   0  0  0  0  0  0  0  0  0  0  0  0
   59.4132   36.0812   46.4926 H   0  0  0  0  0  0  0  0  0  0  0  0
   62.3730   34.1820   45.4880 H   0  0  0  0  0  0  0  0  0  0  0  0
   63.9701   33.1256   46.8037 H   0  0  0  0  0  0  0  0  0  0  0  0
   63.3438   34.0645   48.2111 H   0  0  0  0  0  0  0  0  0  0  0  0
   63.3668   32.3772   49.8943 H   0  0  0  0  0  0  0  0  0  0  0  0
   62.2944   30.3339   50.8437 H   0  0  0  0  0  0  0  0  0  0  0  0
   60.9810   28.2900   46.2381 H   0  0  0  0  0  0  0  0  0  0  0  0
   59.5590   28.1692   44.1928 H   0  0  0  0  0  0  0  0  0  0  0  0
   57.4265   26.8684   44.2216 H   0  0  0  0  0  0  0  0  0  0  0  0
   55.1500   27.3240   46.1480 H   0  0  0  0  0  0  0  0  0  0  0  0
   58.1766   25.7379   48.3351 H   0  0  0  0  0  0  0  0  0  0  0  0
   60.2836   29.6372   47.0738 H   0  0  0  0  0  0  0  0  0  0  0  0
   61.3821   31.6571   46.1110 H   0  0  0  0  0  0  0  0  0  0  0  0
   59.6440   34.0537   43.5521 H   0  0  0  0  0  0  0  0  0  0  0  0
   57.9792   32.3260   42.8740 H   0  0  0  0  0  0  0  0  0  0  0  0
  1  2  1  0
  2  3  1  0
  3  4  2  0
  4  5  1  0
  5  6  2  0
  6  7  1  0
  7  8  1  0
  8  9  2  0
  8 10  1  0
 10 11  1  0
 11 12  1  0
 12 13  2  0
 13 14  1  0
 14 15  2  0
 15 16  1  0
 16 17  2  0
 16 18  2  0
 16 19  1  0
 19 20  1  0
 20 21  2  0
 21 22  1  0
 22 23  2  0
 23 24  1  0
 24 25  1  0
 25 26  1  0
 25 27  2  0
 25 28  2  0
 24 29  2  0
 15 30  1  0
 30 31  2  0
  6 32  1  0
 32 33  2  0
 33  3  1  0
 31 12  1  0
 29 20  1  0
  1 34  1  0
  1 35  1  0
  1 36  1  0
  4 37  1  0
  5 38  1  0
  7 39  1  0
  7 40  1  0
 10 41  1  0
 11 42  1  0
 11 43  1  0
 13 44  1  0
 14 45  1  0
 21 46  1  0
 22 47  1  0
 23 48  1  0
 26 49  1  0
 29 50  1  0
 30 51  1  0
 31 52  1  0
 32 53  1  0
 33 54  1  0
M  CHG  2  19  -1  26  -1
M  END
>  <UniqueID>  (85) 
80

>  <SMILES>  (85) 
COc1ccc(CC(=O)NCc2ccc(S(=O)(=O)[N-]c3cccc(S([NH-])(=O)=O)c3)cc2)cc1

>  <Energy>  (85) 
58.465955462753314

>  <Genealogy>  (85) 
COc1ccc(CC(=O)NCc2ccc(S(=O)(=O)[N-]c3cccc(S([NH-])(=O)=O)c3)cc2)cc1 (protonated)
COc1ccc(CC(=O)NCc2ccc(S(=O)(=O)[N-]c3cccc(S([NH-])(=O)=O)c3)cc2)cc1 (3D coordinates assigned)
COc1ccc(CC(=O)NCc2ccc(S(=O)(=O)[N-]c3cccc(S([NH-])(=O)=O)c3)cc2)cc1 (optimized conformer: 58.465955462753314 kcal/mol)

>  <smiles>  (85) 
COc1ccc(CC(=O)NCc2ccc(S(=O)(=O)Nc3cccc(S(N)(=O)=O)c3)cc2)cc1

>  <score_type>  (85) 
oracle

>  <origin>  (85) 
adg

>  <m_score__min__energy>  (85) 
-14.66

>  <m_primary>  (85) 
energy

$$$$
85:0
     RDKit          3D

 42 44  0  0  1  0  0  0  0  0999 V2000
   55.8900   25.9380   46.3460 N   0  0  0  0  0  0  0  0  0  0  0  0
   56.7090   26.8500   45.9840 C   0  0  0  0  0  0  0  0  0  0  0  0
   58.0500   26.6570   45.9590 N   0  0  0  0  0  0  0  0  0  0  0  0
   58.8860   27.6350   45.5730 C   0  0  0  0  0  0  0  0  0  0  0  0
   58.3840   28.8610   45.1940 C   0  0  0  0  0  0  0  0  0  0  0  0
   57.0170   29.0510   45.2220 C   0  0  0  0  0  0  0  0  0  0  0  0
   56.4530   30.1690   44.8850 N   0  0  0  0  0  0  0  0  0  0  0  0
   57.2620   31.3460   44.8270 C   0  0  0  0  0  0  0  0  0  0  0  0
   57.5980   31.8430   43.5650 C   0  0  0  0  0  0  0  0  0  0  0  0
   58.3730   32.9690   43.4700 C   0  0  0  0  0  0  0  0  0  0  0  0
   58.8060   33.5920   44.6240 C   0  0  0  0  0  0  0  0  0  0  0  0
   59.5710   34.7050   44.4920 F   0  0  0  0  0  0  0  0  0  0  0  0
   58.4780   33.1070   45.8920 C   0  0  0  0  0  0  0  0  0  0  0  0
   59.0000   33.8530   47.0490 C   0  0  0  0  0  0  0  0  0  0  0  0
   60.3390   33.4560   47.4340 N   0  0  0  0  0  0  0  0  0  0  0  0
   61.2600   34.1920   46.6210 C   0  0  0  0  0  0  0  0  0  0  0  0
   62.6660   33.7560   46.6690 C   0  0  0  0  0  0  0  0  0  0  0  0
   63.0380   32.3370   47.6080 S   0  0  0  0  0  0  0  0  0  0  0  0
   63.7730   31.3090   46.7570 O   0  0  0  0  0  0  0  0  0  0  0  0
   64.0000   32.6440   48.7440 O   0  0  0  0  0  0  0  0  0  0  0  0
   61.5720   31.5700   48.2010 C   0  0  0  0  0  0  0  0  0  0  0  0
   60.4330   32.0400   47.3240 C   0  0  0  0  0  0  0  0  0  0  0  0
   57.6980   31.9730   45.9850 C   0  0  0  0  0  0  0  0  0  0  0  0
   56.1990   28.0420   45.6180 N   0  0  0  0  0  0  0  0  0  0  0  0
   55.5180   25.8150   47.3110 H   0  0  0  0  0  0  0  0  0  0  0  0
   58.4620   25.7520   46.2340 H   0  0  0  0  0  0  0  0  0  0  0  0
   59.9714   27.4572   45.5595 H   0  0  0  0  0  0  0  0  0  0  0  0
   59.0577   29.6704   44.8762 H   0  0  0  0  0  0  0  0  0  0  0  0
   57.2436   31.3349   42.6560 H   0  0  0  0  0  0  0  0  0  0  0  0
   58.6476   33.3727   42.4843 H   0  0  0  0  0  0  0  0  0  0  0  0
   59.0130   34.9235   46.7964 H   0  0  0  0  0  0  0  0  0  0  0  0
   58.3393   33.6343   47.9008 H   0  0  0  0  0  0  0  0  0  0  0  0
   60.9209   34.1155   45.5774 H   0  0  0  0  0  0  0  0  0  0  0  0
   61.2562   35.2147   47.0262 H   0  0  0  0  0  0  0  0  0  0  0  0
   62.9852   33.5594   45.6348 H   0  0  0  0  0  0  0  0  0  0  0  0
   63.1954   34.5749   47.1781 H   0  0  0  0  0  0  0  0  0  0  0  0
   61.6680   30.4759   48.1393 H   0  0  0  0  0  0  0  0  0  0  0  0
   61.3902   31.8373   49.2524 H   0  0  0  0  0  0  0  0  0  0  0  0
   60.6289   31.7604   46.2783 H   0  0  0  0  0  0  0  0  0  0  0  0
   59.4904   31.5717   47.6437 H   0  0  0  0  0  0  0  0  0  0  0  0
   57.4237   31.5688   46.9706 H   0  0  0  0  0  0  0  0  0  0  0  0
   55.1630   28.1830   45.6400 H   0  0  0  0  0  0  0  0  0  0  0  0
  1  2  2  3
  2  3  1  0
  3  4  1  0
  4  5  2  0
  5  6  1  0
  6  7  2  0
  7  8  1  0
  8  9  2  0
  9 10  1  0
 10 11  2  0
 11 12  1  0
 11 13  1  0
 13 14  1  0
 14 15  1  0
 15 16  1  0
 16 17  1  0
 17 18  1  0
 18 19  2  0
 18 20  2  0
 18 21  1  0
 21 22  1  0
 13 23  2  0
  6 24  1  0
 24  2  1  0
 23  8  1  0
 22 15  1  0
  1 25  1  0
  3 26  1  0
  4 27  1  0
  5 28  1  0
  9 29  1  0
 10 30  1  0
 14 31  1  0
 14 32  1  0
 16 33  1  0
 16 34  1  0
 17 35  1  0
 17 36  1  0
 21 37  1  0
 21 38  1  0
 22 39  1  0
 22 40  1  0
 23 41  1  0
 24 42  1  0
M  END
>  <smiles>  (86) 
N=c1[nH]ccc(=Nc2ccc(F)c(CN3CCS(=O)(=O)CC3)c2)[nH]1

>  <score_type>  (86) 
oracle

>  <origin>  (86) 
adg

>  <m_score__min__energy>  (86) 
-8.7699999999999996

>  <m_primary>  (86) 
energy

$$$$
86:0
     RDKit          3D

 50 52  0  0  0  0  0  0  0  0999 V2000
   54.7740   26.1150   45.9970 N   0  0  0  0  0  0  0  0  0  0  0  0
   56.3520   25.4650   46.2780 S   0  0  0  0  0  0  0  0  0  0  0  0
   56.4190   24.9130   47.6730 O   0  0  0  0  0  0  0  0  0  0  0  0
   56.5950   24.3600   45.2880 O   0  0  0  0  0  0  0  0  0  0  0  0
   57.5740   26.7220   46.0860 C   0  0  0  0  0  0  0  0  0  0  0  0
   57.4530   27.6670   45.0570 C   0  0  0  0  0  0  0  0  0  0  0  0
   58.4340   28.6620   44.8750 C   0  0  0  0  0  0  0  0  0  0  0  0
   58.3580   29.6230   43.8020 N   0  0  0  0  0  0  0  0  0  0  0  0
   58.2190   31.0700   43.9850 C   0  0  0  0  0  0  0  0  0  0  0  0
   57.0090   31.4080   44.8060 C   0  0  0  0  0  0  0  0  0  0  0  0
   56.0430   30.6000   44.8310 O   0  0  0  0  0  0  0  0  0  0  0  0
   56.9100   32.6830   45.4560 N   0  0  0  0  0  0  0  0  0  0  0  0
   57.9300   33.3460   46.2150 C   0  0  0  0  0  0  0  0  0  0  0  0
   58.6900   34.3410   45.5880 C   0  0  0  0  0  0  0  0  0  0  0  0
   59.6970   35.0090   46.2890 C   0  0  0  0  0  0  0  0  0  0  0  0
   59.9640   34.6750   47.6190 C   0  0  0  0  0  0  0  0  0  0  0  0
   59.2310   33.6630   48.2520 C   0  0  0  0  0  0  0  0  0  0  0  0
   59.5740   33.2310   49.9290 S   0  0  0  0  0  0  0  0  0  0  0  0
   59.4260   34.4500   50.7960 O   0  0  0  0  0  0  0  0  0  0  0  0
   60.9970   32.7560   50.0330 O   0  0  0  0  0  0  0  0  0  0  0  0
   58.5040   31.9780   50.5070 N   0  0  0  0  0  0  0  0  0  0  0  0
   57.7550   32.4390   51.6850 C   0  0  0  0  0  0  0  0  0  0  0  0
   56.7920   31.3300   52.1610 C   0  0  0  0  0  0  0  0  0  0  0  0
   57.0100   30.1020   51.4870 O   0  0  0  0  0  0  0  0  0  0  0  0
   58.3750   29.7410   51.5730 C   0  0  0  0  0  0  0  0  0  0  0  0
   59.2660   30.7600   50.8340 C   0  0  0  0  0  0  0  0  0  0  0  0
   58.2220   32.9920   47.5450 C   0  0  0  0  0  0  0  0  0  0  0  0
   59.5240   28.7080   45.7570 C   0  0  0  0  0  0  0  0  0  0  0  0
   59.6360   27.7830   46.7970 C   0  0  0  0  0  0  0  0  0  0  0  0
   58.6670   26.7920   46.9650 C   0  0  0  0  0  0  0  0  0  0  0  0
   58.7930   25.9070   47.9860 F   0  0  0  0  0  0  0  0  0  0  0  0
   54.7790   27.0960   46.3570 H   0  0  0  0  0  0  0  0  0  0  0  0
   56.5830   27.6311   44.3848 H   0  0  0  0  0  0  0  0  0  0  0  0
   58.4280   29.2760   42.8180 H   0  0  0  0  0  0  0  0  0  0  0  0
   59.1151   31.4533   44.4949 H   0  0  0  0  0  0  0  0  0  0  0  0
   58.1034   31.5332   42.9940 H   0  0  0  0  0  0  0  0  0  0  0  0
   58.4929   34.5983   44.5368 H   0  0  0  0  0  0  0  0  0  0  0  0
   60.2803   35.7989   45.7932 H   0  0  0  0  0  0  0  0  0  0  0  0
   60.7522   35.2083   48.1707 H   0  0  0  0  0  0  0  0  0  0  0  0
   58.4600   32.6819   52.4936 H   0  0  0  0  0  0  0  0  0  0  0  0
   57.1738   33.3339   51.4178 H   0  0  0  0  0  0  0  0  0  0  0  0
   56.9395   31.1725   53.2396 H   0  0  0  0  0  0  0  0  0  0  0  0
   55.7656   31.6578   51.9394 H   0  0  0  0  0  0  0  0  0  0  0  0
   58.6714   29.7059   52.6317 H   0  0  0  0  0  0  0  0  0  0  0  0
   58.5063   28.7556   51.1020 H   0  0  0  0  0  0  0  0  0  0  0  0
   60.1172   31.0284   51.4770 H   0  0  0  0  0  0  0  0  0  0  0  0
   59.6228   30.3045   49.8985 H   0  0  0  0  0  0  0  0  0  0  0  0
   57.6561   32.1848   48.0331 H   0  0  0  0  0  0  0  0  0  0  0  0
   60.2973   29.4796   45.6281 H   0  0  0  0  0  0  0  0  0  0  0  0
   60.4912   27.8353   47.4868 H   0  0  0  0  0  0  0  0  0  0  0  0
  1  2  1  0
  2  3  2  0
  2  4  2  0
  2  5  1  0
  5  6  2  0
  6  7  1  0
  7  8  1  0
  8  9  1  0
  9 10  1  0
 10 11  2  0
 10 12  1  0
 12 13  1  0
 13 14  2  0
 14 15  1  0
 15 16  2  0
 16 17  1  0
 17 18  1  0
 18 19  2  0
 18 20  2  0
 18 21  1  0
 21 22  1  0
 22 23  1  0
 23 24  1  0
 24 25  1  0
 25 26  1  0
 17 27  2  0
  7 28  2  0
 28 29  1  0
 29 30  2  0
 30 31  1  0
 30  5  1  0
 27 13  1  0
 26 21  1  0
  1 32  1  0
  6 33  1  0
  8 34  1  0
  9 35  1  0
  9 36  1  0
 14 37  1  0
 15 38  1  0
 16 39  1  0
 22 40  1  0
 22 41  1  0
 23 42  1  0
 23 43  1  0
 25 44  1  0
 25 45  1  0
 26 46  1  0
 26 47  1  0
 27 48  1  0
 28 49  1  0
 29 50  1  0
M  CHG  2   1  -1  12  -1
M  END
>  <UniqueID>  (87) 
81

>  <SMILES>  (87) 
[NH-]S(=O)(=O)c1cc(NCC(=O)[N-]c2cccc(S(=O)(=O)N3CCOCC3)c2)ccc1F

>  <Energy>  (87) 
60.49429794473405

>  <Genealogy>  (87) 
[NH-]S(=O)(=O)c1cc(NCC(=O)[N-]c2cccc(S(=O)(=O)N3CCOCC3)c2)ccc1F (protonated)
[NH-]S(=O)(=O)c1cc(NCC(=O)[N-]c2cccc(S(=O)(=O)N3CCOCC3)c2)ccc1F (3D coordinates assigned)
[NH-]S(=O)(=O)c1cc(NCC(=O)[N-]c2cccc(S(=O)(=O)N3CCOCC3)c2)ccc1F (nonaromatic ring conformer: 60.49429794473405 kcal/mol)

>  <smiles>  (87) 
NS(=O)(=O)c1cc(NCC(=O)Nc2cccc(S(=O)(=O)N3CCOCC3)c2)ccc1F

>  <score_type>  (87) 
oracle

>  <origin>  (87) 
adg

>  <m_score__min__energy>  (87) 
-14.609999999999999

>  <m_primary>  (87) 
energy

$$$$
87:0
     RDKit          3D

 45 47  0  0  0  0  0  0  0  0999 V2000
   55.1480   29.0400   44.8280 N   0  0  0  0  0  0  0  0  0  0  0  0
   56.5000   29.4600   45.0080 C   0  0  0  0  0  0  0  0  0  0  0  0
   57.2080   28.8850   45.8760 O   0  0  0  0  0  0  0  0  0  0  0  0
   57.0500   30.5780   44.1980 C   0  0  0  0  0  0  0  0  0  0  0  0
   56.9030   30.5410   42.7980 C   0  0  0  0  0  0  0  0  0  0  0  0
   57.3760   31.5880   42.0040 C   0  0  0  0  0  0  0  0  0  0  0  0
   57.9930   32.6880   42.5930 C   0  0  0  0  0  0  0  0  0  0  0  0
   58.1590   32.7380   43.9780 C   0  0  0  0  0  0  0  0  0  0  0  0
   57.7200   31.6770   44.7930 C   0  0  0  0  0  0  0  0  0  0  0  0
   57.9260   31.7060   46.2150 N   0  0  0  0  0  0  0  0  0  0  0  0
   58.1020   32.8680   47.0400 C   0  0  0  0  0  0  0  0  0  0  0  0
   57.5920   33.9720   46.7150 O   0  0  0  0  0  0  0  0  0  0  0  0
   58.8880   32.7930   48.2320 N   0  0  0  0  0  0  0  0  0  0  0  0
   60.3200   32.7180   48.2730 C   0  0  0  0  0  0  0  0  0  0  0  0
   61.0490   33.8980   48.0920 C   0  0  0  0  0  0  0  0  0  0  0  0
   62.4420   33.8930   48.1900 C   0  0  0  0  0  0  0  0  0  0  0  0
   63.1320   32.7080   48.4630 C   0  0  0  0  0  0  0  0  0  0  0  0
   64.5280   32.7670   48.5750 O   0  0  0  0  0  0  0  0  0  0  0  0
   65.3920   32.6830   50.0510 S   0  0  0  0  0  0  0  0  0  0  0  0
   67.0720   32.9700   49.7640 N   0  0  0  0  0  0  0  0  0  0  0  0
   65.2180   31.3140   50.6450 O   0  0  0  0  0  0  0  0  0  0  0  0
   64.8610   33.7100   51.0100 O   0  0  0  0  0  0  0  0  0  0  0  0
   62.4060   31.5110   48.6070 C   0  0  0  0  0  0  0  0  0  0  0  0
   61.0120   31.4990   48.4770 C   0  0  0  0  0  0  0  0  0  0  0  0
   60.3550   30.2640   48.5670 O   0  0  0  0  0  0  0  0  0  0  0  0
   60.1770   29.3660   47.5060 C   0  0  0  0  0  0  0  0  0  0  0  0
   60.4490   29.8070   46.2040 C   0  0  0  0  0  0  0  0  0  0  0  0
   60.2910   28.9420   45.1170 C   0  0  0  0  0  0  0  0  0  0  0  0
   59.8460   27.6330   45.3230 C   0  0  0  0  0  0  0  0  0  0  0  0
   59.5550   27.1890   46.6170 C   0  0  0  0  0  0  0  0  0  0  0  0
   59.7140   28.0510   47.7060 C   0  0  0  0  0  0  0  0  0  0  0  0
   54.4000   29.3410   45.4910 H   0  0  0  0  0  0  0  0  0  0  0  0
   56.4106   29.6786   42.3249 H   0  0  0  0  0  0  0  0  0  0  0  0
   57.2607   31.5433   40.9110 H   0  0  0  0  0  0  0  0  0  0  0  0
   58.3501   33.5186   41.9664 H   0  0  0  0  0  0  0  0  0  0  0  0
   58.6377   33.6153   44.4375 H   0  0  0  0  0  0  0  0  0  0  0  0
   60.5209   34.8372   47.8707 H   0  0  0  0  0  0  0  0  0  0  0  0
   63.0015   34.8299   48.0512 H   0  0  0  0  0  0  0  0  0  0  0  0
   67.2030   32.9910   48.7270 H   0  0  0  0  0  0  0  0  0  0  0  0
   62.9399   30.5741   48.8242 H   0  0  0  0  0  0  0  0  0  0  0  0
   60.7888   30.8397   46.0362 H   0  0  0  0  0  0  0  0  0  0  0  0
   60.5170   29.2918   44.0989 H   0  0  0  0  0  0  0  0  0  0  0  0
   59.7247   26.9522   44.4676 H   0  0  0  0  0  0  0  0  0  0  0  0
   59.2006   26.1602   46.7780 H   0  0  0  0  0  0  0  0  0  0  0  0
   59.4769   27.7014   48.7216 H   0  0  0  0  0  0  0  0  0  0  0  0
  1  2  1  0
  2  3  2  0
  2  4  1  0
  4  5  2  0
  5  6  1  0
  6  7  2  0
  7  8  1  0
  8  9  2  0
  9 10  1  0
 10 11  1  0
 11 12  2  0
 11 13  1  0
 13 14  1  0
 14 15  2  0
 15 16  1  0
 16 17  2  0
 17 18  1  0
 18 19  1  0
 19 20  1  0
 19 21  2  0
 19 22  2  0
 17 23  1  0
 23 24  2  0
 24 25  1  0
 25 26  1  0
 26 27  2  0
 27 28  1  0
 28 29  2  0
 29 30  1  0
 30 31  2  0
  9  4  1  0
 24 14  1  0
 31 26  1  0
  1 32  1  0
  5 33  1  0
  6 34  1  0
  7 35  1  0
  8 36  1  0
 15 37  1  0
 16 38  1  0
 20 39  1  0
 23 40  1  0
 27 41  1  0
 28 42  1  0
 29 43  1  0
 30 44  1  0
 31 45  1  0
M  CHG  4   1  -1  10  -1  13  -1  20  -1
M  END
>  <UniqueID>  (88) 
82

>  <SMILES>  (88) 
[NH-]C(=O)c1ccccc1[N-]C(=O)[N-]c1ccc(OS([NH-])(=O)=O)cc1Oc1ccccc1

>  <Energy>  (88) 
62.65242755069994

>  <Genealogy>  (88) 
[NH-]C(=O)c1ccccc1[N-]C(=O)[N-]c1ccc(OS([NH-])(=O)=O)cc1Oc1ccccc1 (protonated)
[NH-]C(=O)c1ccccc1[N-]C(=O)[N-]c1ccc(OS([NH-])(=O)=O)cc1Oc1ccccc1 (3D coordinates assigned)
[NH-]C(=O)c1ccccc1[N-]C(=O)[N-]c1ccc(OS([NH-])(=O)=O)cc1Oc1ccccc1 (optimized conformer: 62.65242755069994 kcal/mol)

>  <smiles>  (88) 
NC(=O)c1ccccc1NC(=O)Nc1ccc(OS(N)(=O)=O)cc1Oc1ccccc1

>  <score_type>  (88) 
oracle

>  <origin>  (88) 
adg

>  <m_score__min__energy>  (88) 
-15.91

>  <m_primary>  (88) 
energy

$$$$
88:0
     RDKit          3D

 59 62  0  0  0  0  0  0  0  0999 V2000
   58.6590   26.3990   47.9360 O   0  0  0  0  0  0  0  0  0  0  0  0
   59.0150   27.6110   47.9050 C   0  0  0  0  0  0  0  0  0  0  0  0
   59.3060   28.2800   49.1400 N   0  0  0  0  0  0  0  0  0  0  0  0
   60.6440   28.5000   49.6840 C   0  0  0  0  0  0  0  0  0  0  0  0
   60.7970   29.9400   50.2630 C   0  0  1  0  0  0  0  0  0  0  0  0
   61.6200   30.8440   49.3600 C   0  0  0  0  0  0  0  0  0  0  0  0
   62.7630   31.5250   49.8260 C   0  0  0  0  0  0  0  0  0  0  0  0
   63.5330   32.3000   48.9550 C   0  0  0  0  0  0  0  0  0  0  0  0
   63.1820   32.3990   47.6050 C   0  0  0  0  0  0  0  0  0  0  0  0
   63.9310   33.1490   46.7610 F   0  0  0  0  0  0  0  0  0  0  0  0
   62.0620   31.7150   47.1260 C   0  0  0  0  0  0  0  0  0  0  0  0
   61.2900   30.9370   47.9940 C   0  0  0  0  0  0  0  0  0  0  0  0
   59.5190   30.6290   50.6030 N   0  0  0  0  0  0  0  0  0  0  0  0
   59.6940   32.0600   50.9200 C   0  0  0  0  0  0  0  0  0  0  0  0
   58.3520   32.6920   51.3430 C   0  0  0  0  0  0  0  0  0  0  0  0
   57.2660   31.8760   50.9500 O   0  0  0  0  0  0  0  0  0  0  0  0
   57.2930   30.6560   51.6700 C   0  0  0  0  0  0  0  0  0  0  0  0
   58.6720   29.9630   51.6090 C   0  0  0  0  0  0  0  0  0  0  0  0
   59.1430   28.2900   46.6000 C   0  0  0  0  0  0  0  0  0  0  0  0
   60.3760   28.3180   45.9290 C   0  0  0  0  0  0  0  0  0  0  0  0
   60.4950   28.9760   44.7010 C   0  0  0  0  0  0  0  0  0  0  0  0
   59.3890   29.6220   44.1450 C   0  0  0  0  0  0  0  0  0  0  0  0
   58.1570   29.6150   44.8120 C   0  0  0  0  0  0  0  0  0  0  0  0
   56.7940   30.4950   44.1240 S   0  0  0  0  0  0  0  0  0  0  0  0
   55.5130   30.1440   44.8290 O   0  0  0  0  0  0  0  0  0  0  0  0
   56.6590   30.1230   42.6750 O   0  0  0  0  0  0  0  0  0  0  0  0
   57.0870   32.2000   44.2600 N   0  0  0  0  0  0  0  0  0  0  0  0
   57.8640   32.7750   45.3250 C   0  0  0  0  0  0  0  0  0  0  0  0
   58.7160   33.8580   45.0520 C   0  0  0  0  0  0  0  0  0  0  0  0
   59.4980   34.4180   46.0680 C   0  0  0  0  0  0  0  0  0  0  0  0
   59.4340   33.9040   47.3670 C   0  0  0  0  0  0  0  0  0  0  0  0
   60.4410   34.5860   48.6310 Cl  0  0  0  0  0  0  0  0  0  0  0  0
   58.5720   32.8400   47.6540 C   0  0  0  0  0  0  0  0  0  0  0  0
   57.7830   32.2830   46.6420 C   0  0  0  0  0  0  0  0  0  0  0  0
   58.0380   28.9510   46.0420 C   0  0  0  0  0  0  0  0  0  0  0  0
   60.8276   27.7708   50.4868 H   0  0  0  0  0  0  0  0  0  0  0  0
   61.3721   28.3771   48.8687 H   0  0  0  0  0  0  0  0  0  0  0  0
   61.3286   29.7684   51.2106 H   0  0  0  0  0  0  0  0  0  0  0  0
   63.0512   31.4455   50.8846 H   0  0  0  0  0  0  0  0  0  0  0  0
   64.4178   32.8337   49.3322 H   0  0  0  0  0  0  0  0  0  0  0  0
   61.7869   31.7887   46.0635 H   0  0  0  0  0  0  0  0  0  0  0  0
   60.4165   30.3923   47.6063 H   0  0  0  0  0  0  0  0  0  0  0  0
   60.4166   32.1619   51.7431 H   0  0  0  0  0  0  0  0  0  0  0  0
   60.0624   32.5789   50.0227 H   0  0  0  0  0  0  0  0  0  0  0  0
   58.3376   32.8093   52.4366 H   0  0  0  0  0  0  0  0  0  0  0  0
   58.2531   33.6710   50.8513 H   0  0  0  0  0  0  0  0  0  0  0  0
   57.0481   30.8621   52.7224 H   0  0  0  0  0  0  0  0  0  0  0  0
   56.5585   29.9795   51.2086 H   0  0  0  0  0  0  0  0  0  0  0  0
   59.1567   30.0259   52.5945 H   0  0  0  0  0  0  0  0  0  0  0  0
   58.5371   28.9075   51.3303 H   0  0  0  0  0  0  0  0  0  0  0  0
   61.2518   27.8204   46.3711 H   0  0  0  0  0  0  0  0  0  0  0  0
   61.4599   28.9847   44.1729 H   0  0  0  0  0  0  0  0  0  0  0  0
   59.4855   30.1388   43.1788 H   0  0  0  0  0  0  0  0  0  0  0  0
   56.8520   32.7900   43.4290 H   0  0  0  0  0  0  0  0  0  0  0  0
   58.7687   34.2684   44.0328 H   0  0  0  0  0  0  0  0  0  0  0  0
   60.1644   35.2642   45.8446 H   0  0  0  0  0  0  0  0  0  0  0  0
   58.5146   32.4407   48.6774 H   0  0  0  0  0  0  0  0  0  0  0  0
   57.0959   31.4565   46.8761 H   0  0  0  0  0  0  0  0  0  0  0  0
   57.0739   28.9485   46.5716 H   0  0  0  0  0  0  0  0  0  0  0  0
  1  2  2  0
  2  3  1  0
  3  4  1  0
  4  5  1  0
  5  6  1  0
  6  7  2  0
  7  8  1  0
  8  9  2  0
  9 10  1  0
  9 11  1  0
 11 12  2  0
  5 13  1  0
 13 14  1  0
 14 15  1  0
 15 16  1  0
 16 17  1  0
 17 18  1  0
  2 19  1  0
 19 20  2  0
 20 21  1  0
 21 22  2  0
 22 23  1  0
 23 24  1  0
 24 25  2  0
 24 26  2  0
 24 27  1  0
 27 28  1  0
 28 29  2  0
 29 30  1  0
 30 31  2  0
 31 32  1  0
 31 33  1  0
 33 34  2  0
 23 35  2  0
 12  6  1  0
 18 13  1  0
 35 19  1  0
 34 28  1  0
  4 36  1  0
  4 37  1  0
  5 38  1  1
  7 39  1  0
  8 40  1  0
 11 41  1  0
 12 42  1  0
 14 43  1  0
 14 44  1  0
 15 45  1  0
 15 46  1  0
 17 47  1  0
 17 48  1  0
 18 49  1  0
 18 50  1  0
 20 51  1  0
 21 52  1  0
 22 53  1  0
 27 54  1  0
 29 55  1  0
 30 56  1  0
 33 57  1  0
 34 58  1  0
 35 59  1  0
M  CHG  1   3  -1
M  END
>  <UniqueID>  (89) 
83

>  <SMILES>  (89) 
O=C([N-]C[C@@H](c1ccc(F)cc1)N1CCOCC1)c1cccc(S(=O)(=O)Nc2ccc(Cl)cc2)c1

>  <Energy>  (89) 
84.84072464748715

>  <Genealogy>  (89) 
O=C([N-]CC(c1ccc(F)cc1)N1CCOCC1)c1cccc(S(=O)(=O)Nc2ccc(Cl)cc2)c1 (protonated)
O=C([N-]C[C@@H](c1ccc(F)cc1)N1CCOCC1)c1cccc(S(=O)(=O)Nc2ccc(Cl)cc2)c1 (chirality)
O=C([N-]C[C@@H](c1ccc(F)cc1)N1CCOCC1)c1cccc(S(=O)(=O)Nc2ccc(Cl)cc2)c1 (3D coordinates assigned)
O=C([N-]C[C@@H](c1ccc(F)cc1)N1CCOCC1)c1cccc(S(=O)(=O)Nc2ccc(Cl)cc2)c1 (nonaromatic ring conformer: 84.84072464748715 kcal/mol)

>  <smiles>  (89) 
O=C(NCC(c1ccc(F)cc1)N1CCOCC1)c1cccc(S(=O)(=O)Nc2ccc(Cl)cc2)c1

>  <score_type>  (89) 
oracle

>  <origin>  (89) 
adg

>  <m_score__min__energy>  (89) 
-12.48

>  <m_primary>  (89) 
energy

$$$$
89:0
     RDKit          3D

 29 30  0  0  0  0  0  0  0  0999 V2000
   54.8010   26.3240   45.9840 N   0  0  0  0  0  0  0  0  0  0  0  0
   56.1320   25.9430   45.6370 C   0  0  0  0  0  0  0  0  0  0  0  0
   56.3070   24.8730   44.9950 O   0  0  0  0  0  0  0  0  0  0  0  0
   57.2850   26.8040   46.0210 C   0  0  0  0  0  0  0  0  0  0  0  0
   58.4180   26.2060   46.6100 C   0  0  0  0  0  0  0  0  0  0  0  0
   59.5200   26.9760   46.9860 C   0  0  0  0  0  0  0  0  0  0  0  0
   59.5170   28.3520   46.7710 C   0  0  0  0  0  0  0  0  0  0  0  0
   58.4100   28.9660   46.1870 C   0  0  0  0  0  0  0  0  0  0  0  0
   57.2780   28.2110   45.8260 C   0  0  0  0  0  0  0  0  0  0  0  0
   56.1580   28.8480   45.1880 N   0  0  0  0  0  0  0  0  0  0  0  0
   56.2200   29.9540   44.2820 C   0  0  0  0  0  0  0  0  0  0  0  0
   56.3390   29.7250   43.0500 O   0  0  0  0  0  0  0  0  0  0  0  0
   56.1430   31.3000   44.7700 N   0  0  0  0  0  0  0  0  0  0  0  0
   57.2360   32.2130   44.9540 C   0  0  0  0  0  0  0  0  0  0  0  0
   57.8170   32.9090   43.8790 C   0  0  0  0  0  0  0  0  0  0  0  0
   58.8660   33.8070   44.1080 C   0  0  0  0  0  0  0  0  0  0  0  0
   59.3300   34.0280   45.4070 C   0  0  0  0  0  0  0  0  0  0  0  0
   58.7400   33.3570   46.4830 C   0  0  0  0  0  0  0  0  0  0  0  0
   59.3110   33.6450   48.1160 Cl  0  0  0  0  0  0  0  0  0  0  0  0
   57.6900   32.4590   46.2570 C   0  0  0  0  0  0  0  0  0  0  0  0
   54.0380   26.3240   45.2710 H   0  0  0  0  0  0  0  0  0  0  0  0
   58.4337   25.1186   46.7754 H   0  0  0  0  0  0  0  0  0  0  0  0
   60.3922   26.4951   47.4529 H   0  0  0  0  0  0  0  0  0  0  0  0
   60.3894   28.9553   47.0624 H   0  0  0  0  0  0  0  0  0  0  0  0
   58.4212   30.0510   46.0065 H   0  0  0  0  0  0  0  0  0  0  0  0
   57.4463   32.7474   42.8560 H   0  0  0  0  0  0  0  0  0  0  0  0
   59.3262   34.3400   43.2630 H   0  0  0  0  0  0  0  0  0  0  0  0
   60.1589   34.7293   45.5835 H   0  0  0  0  0  0  0  0  0  0  0  0
   57.2187   31.9436   47.1068 H   0  0  0  0  0  0  0  0  0  0  0  0
  1  2  1  0
  2  3  2  0
  2  4  1  0
  4  5  2  0
  5  6  1  0
  6  7  2  0
  7  8  1  0
  8  9  2  0
  9 10  1  0
 10 11  1  0
 11 12  2  0
 11 13  1  0
 13 14  1  0
 14 15  2  0
 15 16  1  0
 16 17  2  0
 17 18  1  0
 18 19  1  0
 18 20  2  0
  9  4  1  0
 20 14  1  0
  1 21  1  0
  5 22  1  0
  6 23  1  0
  7 24  1  0
  8 25  1  0
 15 26  1  0
 16 27  1  0
 17 28  1  0
 20 29  1  0
M  CHG  3   1  -1  10  -1  13  -1
M  END
>  <UniqueID>  (90) 
84

>  <SMILES>  (90) 
[NH-]C(=O)c1ccccc1[N-]C(=O)[N-]c1cccc(Cl)c1

>  <Energy>  (90) 
39.51438879201127

>  <Genealogy>  (90) 
[NH-]C(=O)c1ccccc1[N-]C(=O)[N-]c1cccc(Cl)c1 (protonated)
[NH-]C(=O)c1ccccc1[N-]C(=O)[N-]c1cccc(Cl)c1 (3D coordinates assigned)
[NH-]C(=O)c1ccccc1[N-]C(=O)[N-]c1cccc(Cl)c1 (optimized conformer: 39.51438879201127 kcal/mol)

>  <smiles>  (90) 
NC(=O)c1ccccc1NC(=O)Nc1cccc(Cl)c1

>  <score_type>  (90) 
oracle

>  <origin>  (90) 
adg

>  <m_score__min__energy>  (90) 
-14.16

>  <m_primary>  (90) 
energy

$$$$
90:0
     RDKit          3D

 50 53  0  0  0  0  0  0  0  0999 V2000
   64.2530   30.0360   52.0780 S   0  0  0  0  0  0  0  0  0  0  0  0
   62.7910   30.3850   51.4300 C   0  0  0  0  0  0  0  0  0  0  0  0
   62.0720   29.3560   50.7300 N   0  0  0  0  0  0  0  0  0  0  0  0
   61.1460   29.6140   49.6620 C   0  0  0  0  0  0  0  0  0  0  0  0
   61.4860   30.4580   48.5910 C   0  0  0  0  0  0  0  0  0  0  0  0
   60.5450   30.7540   47.6020 C   0  0  0  0  0  0  0  0  0  0  0  0
   59.2550   30.2020   47.6640 C   0  0  0  0  0  0  0  0  0  0  0  0
   58.2810   30.4960   46.7000 O   0  0  0  0  0  0  0  0  0  0  0  0
   58.1410   31.7310   46.0490 C   0  0  0  0  0  0  0  0  0  0  0  0
   58.0620   32.8960   46.8220 C   0  0  0  0  0  0  0  0  0  0  0  0
   57.9390   34.1450   46.2070 C   0  0  0  0  0  0  0  0  0  0  0  0
   57.9060   34.2410   44.8140 C   0  0  0  0  0  0  0  0  0  0  0  0
   58.0040   33.0860   44.0330 C   0  0  0  0  0  0  0  0  0  0  0  0
   58.1270   31.8350   44.6450 C   0  0  0  0  0  0  0  0  0  0  0  0
   58.9410   29.3060   48.6920 C   0  0  0  0  0  0  0  0  0  0  0  0
   59.8790   29.0140   49.6870 C   0  0  0  0  0  0  0  0  0  0  0  0
   62.2580   31.7130   51.5790 N   0  0  0  0  0  0  0  0  0  0  0  0
   60.8510   32.0020   51.6330 C   0  0  0  0  0  0  0  0  0  0  0  0
   59.9620   31.1030   52.2490 C   0  0  0  0  0  0  0  0  0  0  0  0
   58.5870   31.3480   52.2390 C   0  0  0  0  0  0  0  0  0  0  0  0
   58.0850   32.4940   51.6190 C   0  0  0  0  0  0  0  0  0  0  0  0
   58.9570   33.4040   51.0200 C   0  0  0  0  0  0  0  0  0  0  0  0
   60.3390   33.1750   51.0350 C   0  0  0  0  0  0  0  0  0  0  0  0
   61.1810   34.0970   50.4060 O   0  0  0  0  0  0  0  0  0  0  0  0
   61.7690   33.8940   49.1490 C   0  0  0  0  0  0  0  0  0  0  0  0
   61.0440   34.0350   47.9490 C   0  0  0  0  0  0  0  0  0  0  0  0
   61.6750   33.8240   46.7190 C   0  0  0  0  0  0  0  0  0  0  0  0
   63.0260   33.4690   46.6750 C   0  0  0  0  0  0  0  0  0  0  0  0
   63.7480   33.3200   47.8630 C   0  0  0  0  0  0  0  0  0  0  0  0
   63.1200   33.5300   49.0940 C   0  0  0  0  0  0  0  0  0  0  0  0
   62.2190   28.3650   51.0270 H   0  0  0  0  0  0  0  0  0  0  0  0
   62.4971   30.8872   48.5313 H   0  0  0  0  0  0  0  0  0  0  0  0
   60.8154   31.4222   46.7711 H   0  0  0  0  0  0  0  0  0  0  0  0
   58.0969   32.8277   47.9193 H   0  0  0  0  0  0  0  0  0  0  0  0
   57.8680   35.0546   46.8215 H   0  0  0  0  0  0  0  0  0  0  0  0
   57.8030   35.2245   44.3321 H   0  0  0  0  0  0  0  0  0  0  0  0
   57.9843   33.1614   42.9358 H   0  0  0  0  0  0  0  0  0  0  0  0
   58.2131   30.9288   44.0274 H   0  0  0  0  0  0  0  0  0  0  0  0
   57.9504   28.8285   48.7175 H   0  0  0  0  0  0  0  0  0  0  0  0
   59.6219   28.3107   50.4927 H   0  0  0  0  0  0  0  0  0  0  0  0
   62.9390   32.4980   51.6750 H   0  0  0  0  0  0  0  0  0  0  0  0
   60.3524   30.2005   52.7422 H   0  0  0  0  0  0  0  0  0  0  0  0
   57.8988   30.6374   52.7201 H   0  0  0  0  0  0  0  0  0  0  0  0
   57.0009   32.6797   51.6027 H   0  0  0  0  0  0  0  0  0  0  0  0
   58.5571   34.3059   50.5335 H   0  0  0  0  0  0  0  0  0  0  0  0
   59.9798   34.3115   47.9798 H   0  0  0  0  0  0  0  0  0  0  0  0
   61.1067   33.9377   45.7840 H   0  0  0  0  0  0  0  0  0  0  0  0
   63.5211   33.3069   45.7062 H   0  0  0  0  0  0  0  0  0  0  0  0
   64.8105   33.0374   47.8289 H   0  0  0  0  0  0  0  0  0  0  0  0
   63.6912   33.4084   50.0262 H   0  0  0  0  0  0  0  0  0  0  0  0
  1  2  2  0
  2  3  1  0
  3  4  1  0
  4  5  2  0
  5  6  1  0
  6  7  2  0
  7  8  1  0
  8  9  1  0
  9 10  2  0
 10 11  1  0
 11 12  2  0
 12 13  1  0
 13 14  2  0
  7 15  1  0
 15 16  2  0
  2 17  1  0
 17 18  1  0
 18 19  2  0
 19 20  1  0
 20 21  2  0
 21 22  1  0
 22 23  2  0
 23 24  1  0
 24 25  1  0
 25 26  2  0
 26 27  1  0
 27 28  2  0
 28 29  1  0
 29 30  2  0
 16  4  1  0
 23 18  1  0
 30 25  1  0
 14  9  1  0
  3 31  1  0
  5 32  1  0
  6 33  1  0
 10 34  1  0
 11 35  1  0
 12 36  1  0
 13 37  1  0
 14 38  1  0
 15 39  1  0
 16 40  1  0
 17 41  1  0
 19 42  1  0
 20 43  1  0
 21 44  1  0
 22 45  1  0
 26 46  1  0
 27 47  1  0
 28 48  1  0
 29 49  1  0
 30 50  1  0
M  END
>  <UniqueID>  (91) 
85

>  <SMILES>  (91) 
S=C(Nc1ccc(Oc2ccccc2)cc1)Nc1ccccc1Oc1ccccc1

>  <Energy>  (91) 
75.0529719640178

>  <Genealogy>  (91) 
S=C(Nc1ccc(Oc2ccccc2)cc1)Nc1ccccc1Oc1ccccc1 (3D coordinates assigned)
S=C(Nc1ccc(Oc2ccccc2)cc1)Nc1ccccc1Oc1ccccc1 (optimized conformer: 75.0529719640178 kcal/mol)

>  <smiles>  (91) 
S=C(Nc1ccc(Oc2ccccc2)cc1)Nc1ccccc1Oc1ccccc1

>  <score_type>  (91) 
oracle

>  <origin>  (91) 
adg

>  <m_score__min__energy>  (91) 
-8.8499999999999996

>  <m_primary>  (91) 
energy

$$$$
91:0
     RDKit          3D

 50 53  0  0  0  0  0  0  0  0999 V2000
   55.8360   30.1050   44.5120 O   0  0  0  0  0  0  0  0  0  0  0  0
   56.7490   29.5380   45.1690 C   0  0  0  0  0  0  0  0  0  0  0  0
   56.7540   28.1090   45.2450 N   0  0  0  0  0  0  0  0  0  0  0  0
   57.8930   27.3240   45.6180 C   0  0  0  0  0  0  0  0  0  0  0  0
   59.1590   27.9210   45.5680 C   0  0  0  0  0  0  0  0  0  0  0  0
   60.2970   27.1980   45.9290 C   0  0  0  0  0  0  0  0  0  0  0  0
   60.1790   25.8770   46.3610 C   0  0  0  0  0  0  0  0  0  0  0  0
   58.9210   25.2760   46.4400 C   0  0  0  0  0  0  0  0  0  0  0  0
   57.7630   25.9860   46.0710 C   0  0  0  0  0  0  0  0  0  0  0  0
   56.4130   25.3350   46.2730 C   0  0  0  0  0  0  0  0  0  0  0  0
   56.3910   23.9090   45.7080 C   0  0  0  0  0  0  0  0  0  0  0  0
   57.3110   23.7940   44.5520 N   0  0  0  0  0  0  0  0  0  0  0  0
   58.0510   22.5170   44.5530 C   0  0  0  0  0  0  0  0  0  0  0  0
   57.1330   21.3230   44.2020 C   0  0  0  0  0  0  0  0  0  0  0  0
   55.9020   21.7180   43.6230 O   0  0  0  0  0  0  0  0  0  0  0  0
   56.1280   22.6920   42.6250 C   0  0  0  0  0  0  0  0  0  0  0  0
   56.6250   24.0100   43.2550 C   0  0  0  0  0  0  0  0  0  0  0  0
   57.7760   30.3150   45.8100 N   0  0  0  0  0  0  0  0  0  0  0  0
   57.8730   31.7440   45.7010 C   0  0  0  0  0  0  0  0  0  0  0  0
   57.4120   32.4410   44.5620 C   0  0  0  0  0  0  0  0  0  0  0  0
   57.4950   33.8500   44.5000 C   0  0  0  0  0  0  0  0  0  0  0  0
   58.0310   34.5810   45.5740 C   0  0  0  0  0  0  0  0  0  0  0  0
   58.4640   33.8730   46.6930 C   0  0  0  0  0  0  0  0  0  0  0  0
   59.0040   34.3750   47.8140 N   0  0  0  0  0  0  0  0  0  0  0  0
   59.2750   33.3120   48.6050 C   0  0  0  0  0  0  0  0  0  0  0  0
   58.9020   32.1270   47.9800 C   0  0  0  0  0  0  0  0  0  0  0  0
   58.3830   32.5060   46.7580 C   0  0  0  0  0  0  0  0  0  0  0  0
   59.2571   28.9670   45.2419 H   0  0  0  0  0  0  0  0  0  0  0  0
   61.2886   27.6708   45.8727 H   0  0  0  0  0  0  0  0  0  0  0  0
   61.0781   25.3079   46.6398 H   0  0  0  0  0  0  0  0  0  0  0  0
   58.8342   24.2381   46.7939 H   0  0  0  0  0  0  0  0  0  0  0  0
   56.1911   25.2971   47.3497 H   0  0  0  0  0  0  0  0  0  0  0  0
   55.6573   25.9309   45.7403 H   0  0  0  0  0  0  0  0  0  0  0  0
   56.7051   23.2042   46.4920 H   0  0  0  0  0  0  0  0  0  0  0  0
   55.3695   23.6746   45.3741 H   0  0  0  0  0  0  0  0  0  0  0  0
   58.8610   22.5739   43.8110 H   0  0  0  0  0  0  0  0  0  0  0  0
   58.4528   22.3546   45.5640 H   0  0  0  0  0  0  0  0  0  0  0  0
   57.6619   20.6727   43.4897 H   0  0  0  0  0  0  0  0  0  0  0  0
   56.9001   20.8017   45.1422 H   0  0  0  0  0  0  0  0  0  0  0  0
   56.8867   22.3191   41.9212 H   0  0  0  0  0  0  0  0  0  0  0  0
   55.1822   22.8855   42.0977 H   0  0  0  0  0  0  0  0  0  0  0  0
   57.3284   24.4908   42.5592 H   0  0  0  0  0  0  0  0  0  0  0  0
   55.7460   24.6442   43.4424 H   0  0  0  0  0  0  0  0  0  0  0  0
   58.5650   29.8140   46.2750 H   0  0  0  0  0  0  0  0  0  0  0  0
   56.9849   31.8820   43.7163 H   0  0  0  0  0  0  0  0  0  0  0  0
   57.1374   34.3789   43.6043 H   0  0  0  0  0  0  0  0  0  0  0  0
   58.1063   35.6776   45.5324 H   0  0  0  0  0  0  0  0  0  0  0  0
   59.1860   35.3810   48.0340 H   0  0  0  0  0  0  0  0  0  0  0  0
   59.7282   33.3759   49.6053 H   0  0  0  0  0  0  0  0  0  0  0  0
   58.9997   31.1051   48.3752 H   0  0  0  0  0  0  0  0  0  0  0  0
  1  2  2  0
  2  3  1  0
  3  4  1  0
  4  5  2  0
  5  6  1  0
  6  7  2  0
  7  8  1  0
  8  9  2  0
  9 10  1  0
 10 11  1  0
 11 12  1  0
 12 13  1  0
 13 14  1  0
 14 15  1  0
 15 16  1  0
 16 17  1  0
  2 18  1  0
 18 19  1  0
 19 20  2  0
 20 21  1  0
 21 22  2  0
 22 23  1  0
 23 24  1  0
 24 25  1  0
 25 26  2  0
 26 27  1  0
  9  4  1  0
 17 12  1  0
 27 19  1  0
 27 23  2  0
  5 28  1  0
  6 29  1  0
  7 30  1  0
  8 31  1  0
 10 32  1  0
 10 33  1  0
 11 34  1  0
 11 35  1  0
 13 36  1  0
 13 37  1  0
 14 38  1  0
 14 39  1  0
 16 40  1  0
 16 41  1  0
 17 42  1  0
 17 43  1  0
 18 44  1  0
 20 45  1  0
 21 46  1  0
 22 47  1  0
 24 48  1  0
 25 49  1  0
 26 50  1  0
M  CHG  1   3  -1
M  END
>  <UniqueID>  (92) 
86

>  <SMILES>  (92) 
O=C([N-]c1ccccc1CCN1CCOCC1)Nc1cccc2[nH]ccc12

>  <Energy>  (92) 
106.16086895200677

>  <Genealogy>  (92) 
O=C([N-]c1ccccc1CCN1CCOCC1)Nc1cccc2[nH]ccc12 (protonated)
O=C([N-]c1ccccc1CCN1CCOCC1)Nc1cccc2[nH]ccc12 (3D coordinates assigned)
O=C([N-]c1ccccc1CCN1CCOCC1)Nc1cccc2[nH]ccc12 (nonaromatic ring conformer: 106.16086895200677 kcal/mol)

>  <smiles>  (92) 
O=C(Nc1ccccc1CCN1CCOCC1)Nc1cccc2[nH]ccc12

>  <score_type>  (92) 
oracle

>  <origin>  (92) 
adg

>  <m_score__min__energy>  (92) 
-9.9399999999999995

>  <m_primary>  (92) 
energy

$$$$
92:0
     RDKit          3D

 30 31  0  0  0  0  0  0  0  0999 V2000
   57.2850   28.8600   43.4140 C   0  0  0  0  0  0  0  0  0  0  0  0
   56.7400   28.9440   44.8060 C   0  0  0  0  0  0  0  0  0  0  0  0
   55.5470   29.3190   44.9660 O   0  0  0  0  0  0  0  0  0  0  0  0
   57.5530   28.6070   45.9950 C   0  0  0  0  0  0  0  0  0  0  0  0
   58.1510   29.5140   46.8460 C   0  0  0  0  0  0  0  0  0  0  0  0
   58.8020   28.8530   47.8210 N   0  0  0  0  0  0  0  0  0  0  0  0
   58.6460   27.5520   47.6300 N   0  0  0  0  0  0  0  0  0  0  0  0
   57.8930   27.3720   46.5290 C   0  0  0  0  0  0  0  0  0  0  0  0
   57.5200   26.0380   46.0260 C   0  0  0  0  0  0  0  0  0  0  0  0
   58.5180   25.0670   45.7780 C   0  0  0  0  0  0  0  0  0  0  0  0
   59.9720   25.3640   46.0360 C   0  0  0  0  0  0  0  0  0  0  0  0
   58.1460   23.8020   45.2950 C   0  0  0  0  0  0  0  0  0  0  0  0
   56.8020   23.5010   45.0380 C   0  0  0  0  0  0  0  0  0  0  0  0
   56.4130   22.1330   44.5590 C   0  0  0  0  0  0  0  0  0  0  0  0
   55.8180   24.4640   45.2920 C   0  0  0  0  0  0  0  0  0  0  0  0
   56.1660   25.7290   45.7740 C   0  0  0  0  0  0  0  0  0  0  0  0
   55.1450   26.6550   46.0000 O   0  0  0  0  0  0  0  0  0  0  0  0
   58.3714   28.6926   43.4551 H   0  0  0  0  0  0  0  0  0  0  0  0
   56.8052   28.0252   42.8821 H   0  0  0  0  0  0  0  0  0  0  0  0
   57.0788   29.8005   42.8821 H   0  0  0  0  0  0  0  0  0  0  0  0
   58.1030   30.6081   46.7433 H   0  0  0  0  0  0  0  0  0  0  0  0
   60.1519   25.4007   47.1206 H   0  0  0  0  0  0  0  0  0  0  0  0
   60.5927   24.5741   45.5879 H   0  0  0  0  0  0  0  0  0  0  0  0
   60.2332   26.3340   45.5879 H   0  0  0  0  0  0  0  0  0  0  0  0
   58.9181   23.0392   45.1165 H   0  0  0  0  0  0  0  0  0  0  0  0
   56.2274   21.4804   45.4248 H   0  0  0  0  0  0  0  0  0  0  0  0
   55.4993   22.2036   43.9505 H   0  0  0  0  0  0  0  0  0  0  0  0
   57.2271   21.7123   43.9505 H   0  0  0  0  0  0  0  0  0  0  0  0
   54.7603   24.2226   45.1104 H   0  0  0  0  0  0  0  0  0  0  0  0
   55.1470   27.5840   45.5990 H   0  0  0  0  0  0  0  0  0  0  0  0
  1  2  1  0
  2  3  2  0
  2  4  1  0
  4  5  1  0
  5  6  2  0
  6  7  1  0
  7  8  1  0
  8  9  1  0
  9 10  2  0
 10 11  1  0
 10 12  1  0
 12 13  2  0
 13 14  1  0
 13 15  1  0
 15 16  2  0
 16 17  1  0
  8  4  2  0
 16  9  1  0
  1 18  1  0
  1 19  1  0
  1 20  1  0
  5 21  1  0
 11 22  1  0
 11 23  1  0
 11 24  1  0
 12 25  1  0
 14 26  1  0
 14 27  1  0
 14 28  1  0
 15 29  1  0
 17 30  1  0
M  CHG  1   7  -1
M  END
>  <UniqueID>  (93) 
87

>  <SMILES>  (93) 
CC(=O)c1cn[n-]c1-c1c(C)cc(C)cc1O

>  <Energy>  (93) 
66.5873804606316

>  <Genealogy>  (93) 
CC(=O)c1cn[n-]c1-c1c(C)cc(C)cc1O (protonated)
CC(=O)c1cn[n-]c1-c1c(C)cc(C)cc1O (3D coordinates assigned)
CC(=O)c1cn[n-]c1-c1c(C)cc(C)cc1O (optimized conformer: 66.5873804606316 kcal/mol)

>  <smiles>  (93) 
CC(=O)c1cn[nH]c1-c1c(C)cc(C)cc1O

>  <score_type>  (93) 
oracle

>  <origin>  (93) 
adg

>  <m_score__min__energy>  (93) 
-9.2599999999999998

>  <m_primary>  (93) 
energy

$$$$
