0:0
     RDKit          3D

 50 52  0  0  0  0  0  0  0  0999 V2000
   54.6400   25.9780   45.7740 N   0  0  0  0  0  0  0  0  0  0  0  0
   54.6350   24.2610   45.5760 S   0  0  0  0  0  0  0  0  0  0  0  0
   53.8780   23.9060   44.3270 O   0  0  0  0  0  0  0  0  0  0  0  0
   53.9520   23.6200   46.7520 O   0  0  0  0  0  0  0  0  0  0  0  0
   56.2920   23.6770   45.4620 C   0  0  0  0  0  0  0  0  0  0  0  0
   56.5580   22.4000   44.9610 C   0  0  0  0  0  0  0  0  0  0  0  0
   57.8730   21.9430   44.8700 C   0  0  0  0  0  0  0  0  0  0  0  0
   58.9400   22.7570   45.2760 C   0  0  0  0  0  0  0  0  0  0  0  0
   60.2430   22.2690   45.1820 O   0  0  0  0  0  0  0  0  0  0  0  0
   58.6860   24.0550   45.7770 C   0  0  0  0  0  0  0  0  0  0  0  0
   59.7850   24.9450   46.2400 C   0  0  0  0  0  0  0  0  0  0  0  0
   60.9430   24.8360   45.7550 O   0  0  0  0  0  0  0  0  0  0  0  0
   59.5320   25.9340   47.2450 N   0  0  0  0  0  0  0  0  0  0  0  0
   60.1950   27.2320   47.2890 C   0  0  0  0  0  0  0  0  0  0  0  0
   59.4110   28.2420   46.4970 C   0  0  0  0  0  0  0  0  0  0  0  0
   58.1050   27.9570   46.0720 C   0  0  0  0  0  0  0  0  0  0  0  0
   57.3950   28.8860   45.3060 C   0  0  0  0  0  0  0  0  0  0  0  0
   57.9810   30.1100   44.9580 C   0  0  0  0  0  0  0  0  0  0  0  0
   57.0830   31.2460   43.9570 S   0  0  0  0  0  0  0  0  0  0  0  0
   56.9650   30.6800   42.5710 O   0  0  0  0  0  0  0  0  0  0  0  0
   55.6990   31.4560   44.5080 O   0  0  0  0  0  0  0  0  0  0  0  0
   57.9440   32.7580   43.8830 N   0  0  0  0  0  0  0  0  0  0  0  0
   57.4540   33.7090   44.8840 C   0  0  0  0  0  0  0  0  0  0  0  0
   58.3450   33.7430   46.0980 C   0  0  0  0  0  0  0  0  0  0  0  0
   59.4930   34.5530   46.1160 C   0  0  0  0  0  0  0  0  0  0  0  0
   60.3090   34.5930   47.2490 C   0  0  0  0  0  0  0  0  0  0  0  0
   59.9900   33.8230   48.3690 C   0  0  0  0  0  0  0  0  0  0  0  0
   58.8540   33.0110   48.3600 C   0  0  0  0  0  0  0  0  0  0  0  0
   58.0340   32.9660   47.2280 C   0  0  0  0  0  0  0  0  0  0  0  0
   59.2860   30.3960   45.3810 C   0  0  0  0  0  0  0  0  0  0  0  0
   60.0010   29.4650   46.1390 C   0  0  0  0  0  0  0  0  0  0  0  0
   57.3520   24.5020   45.8580 C   0  0  0  0  0  0  0  0  0  0  0  0
   53.6430   26.2770   45.8670 H   0  0  0  0  0  0  0  0  0  0  0  0
   55.7288   21.7536   44.6376 H   0  0  0  0  0  0  0  0  0  0  0  0
   58.0744   20.9357   44.4765 H   0  0  0  0  0  0  0  0  0  0  0  0
   61.0140   22.8570   44.8920 H   0  0  0  0  0  0  0  0  0  0  0  0
   60.2686   27.5673   48.3341 H   0  0  0  0  0  0  0  0  0  0  0  0
   61.2008   27.1366   46.8539 H   0  0  0  0  0  0  0  0  0  0  0  0
   57.6377   26.9987   46.3426 H   0  0  0  0  0  0  0  0  0  0  0  0
   56.3717   28.6550   44.9750 H   0  0  0  0  0  0  0  0  0  0  0  0
   57.4215   34.7134   44.4366 H   0  0  0  0  0  0  0  0  0  0  0  0
   56.4509   33.3884   45.2018 H   0  0  0  0  0  0  0  0  0  0  0  0
   59.7502   35.1582   45.2342 H   0  0  0  0  0  0  0  0  0  0  0  0
   61.2042   35.2321   47.2588 H   0  0  0  0  0  0  0  0  0  0  0  0
   60.6345   33.8560   49.2598 H   0  0  0  0  0  0  0  0  0  0  0  0
   58.6039   32.4062   49.2441 H   0  0  0  0  0  0  0  0  0  0  0  0
   57.1431   32.3209   47.2216 H   0  0  0  0  0  0  0  0  0  0  0  0
   59.7495   31.3575   45.1152 H   0  0  0  0  0  0  0  0  0  0  0  0
   61.0297   29.6909   46.4564 H   0  0  0  0  0  0  0  0  0  0  0  0
   57.1405   25.5126   46.2374 H   0  0  0  0  0  0  0  0  0  0  0  0
  1  2  1  0
  2  3  2  0
  2  4  2  0
  2  5  1  0
  5  6  2  0
  6  7  1  0
  7  8  2  0
  8  9  1  0
  8 10  1  0
 10 11  1  0
 11 12  2  0
 11 13  1  0
 13 14  1  0
 14 15  1  0
 15 16  2  0
 16 17  1  0
 17 18  2  0
 18 19  1  0
 19 20  2  0
 19 21  2  0
 19 22  1  0
 22 23  1  0
 23 24  1  0
 24 25  2  0
 25 26  1  0
 26 27  2  0
 27 28  1  0
 28 29  2  0
 18 30  1  0
 30 31  2  0
 10 32  2  0
 32  5  1  0
 31 15  1  0
 29 24  1  0
  1 33  1  0
  6 34  1  0
  7 35  1  0
  9 36  1  0
 14 37  1  0
 14 38  1  0
 16 39  1  0
 17 40  1  0
 23 41  1  0
 23 42  1  0
 25 43  1  0
 26 44  1  0
 27 45  1  0
 28 46  1  0
 29 47  1  0
 30 48  1  0
 31 49  1  0
 32 50  1  0
M  CHG  3   1  -1  13  -1  22  -1
M  END
>  <UniqueID>  (1) 
1

>  <SMILES>  (1) 
[NH-]S(=O)(=O)c1ccc(O)c(C(=O)[N-]Cc2ccc(S(=O)(=O)[N-]Cc3ccccc3)cc2)c1

>  <Energy>  (1) 
45.032501090550504

>  <Genealogy>  (1) 
[NH-]S(=O)(=O)c1ccc(O)c(C(=O)[N-]Cc2ccc(S(=O)(=O)[N-]Cc3ccccc3)cc2)c1 (protonated)
[NH-]S(=O)(=O)c1ccc(O)c(C(=O)[N-]Cc2ccc(S(=O)(=O)[N-]Cc3ccccc3)cc2)c1 (3D coordinates assigned)
[NH-]S(=O)(=O)c1ccc(O)c(C(=O)[N-]Cc2ccc(S(=O)(=O)[N-]Cc3ccccc3)cc2)c1 (optimized conformer: 45.032501090550504 kcal/mol)

>  <smiles>  (1) 
NS(=O)(=O)c1ccc(O)c(C(=O)NCc2ccc(S(=O)(=O)NCc3ccccc3)cc2)c1

>  <score_type>  (1) 
oracle

>  <origin>  (1) 
adg

>  <m_score__min__energy>  (1) 
-15.039999999999999

>  <m_primary>  (1) 
energy

$$$$
1:0
     RDKit          3D

 41 42  0  0  0  0  0  0  0  0999 V2000
   57.2730   22.4400   44.1980 C   0  0  0  0  0  0  0  0  0  0  0  0
   56.8250   23.6780   44.9100 C   0  0  0  0  0  0  0  0  0  0  0  0
   55.4740   24.0480   44.9040 C   0  0  0  0  0  0  0  0  0  0  0  0
   55.0910   25.1850   45.6190 C   0  0  0  0  0  0  0  0  0  0  0  0
   53.8870   25.5390   45.6480 O   0  0  0  0  0  0  0  0  0  0  0  0
   56.0220   25.9060   46.2950 N   0  0  0  0  0  0  0  0  0  0  0  0
   57.3310   25.5350   46.2910 C   0  0  0  0  0  0  0  0  0  0  0  0
   58.5340   26.4910   47.2140 S   0  0  0  0  0  0  0  0  0  0  0  0
   58.2810   28.0590   46.2960 C   0  0  0  0  0  0  0  0  0  0  0  0
   58.1670   27.8070   44.7850 C   0  0  0  0  0  0  0  0  0  0  0  0
   57.9730   29.0570   44.0530 N   0  0  0  0  0  0  0  0  0  0  0  0
   56.7750   29.8370   44.1830 C   0  0  0  0  0  0  0  0  0  0  0  0
   55.8150   29.4200   44.8910 O   0  0  0  0  0  0  0  0  0  0  0  0
   56.6820   31.1850   43.5410 C   0  0  0  0  0  0  0  0  0  0  0  0
   57.8550   31.9380   43.8410 O   0  0  0  0  0  0  0  0  0  0  0  0
   58.2850   32.2700   45.1350 C   0  0  0  0  0  0  0  0  0  0  0  0
   59.1150   31.4160   45.8870 C   0  0  0  0  0  0  0  0  0  0  0  0
   59.5380   31.7870   47.1650 C   0  0  0  0  0  0  0  0  0  0  0  0
   59.1330   33.0040   47.7120 C   0  0  0  0  0  0  0  0  0  0  0  0
   59.6650   33.4670   49.3200 Cl  0  0  0  0  0  0  0  0  0  0  0  0
   58.3100   33.8610   46.9740 C   0  0  0  0  0  0  0  0  0  0  0  0
   57.8730   33.4960   45.6900 C   0  0  0  0  0  0  0  0  0  0  0  0
   57.0190   34.4380   44.8900 C   0  0  0  0  0  0  0  0  0  0  0  0
   57.7220   24.4200   45.6140 N   0  0  0  0  0  0  0  0  0  0  0  0
   57.5506   21.6728   44.9358 H   0  0  0  0  0  0  0  0  0  0  0  0
   56.4543   22.0631   43.5675 H   0  0  0  0  0  0  0  0  0  0  0  0
   58.1434   22.6743   43.5675 H   0  0  0  0  0  0  0  0  0  0  0  0
   54.7314   23.4563   44.3486 H   0  0  0  0  0  0  0  0  0  0  0  0
   57.3559   28.5370   46.6507 H   0  0  0  0  0  0  0  0  0  0  0  0
   59.1485   28.7111   46.4755 H   0  0  0  0  0  0  0  0  0  0  0  0
   59.0898   27.3238   44.4314 H   0  0  0  0  0  0  0  0  0  0  0  0
   57.2961   27.1596   44.6050 H   0  0  0  0  0  0  0  0  0  0  0  0
   58.7170   29.3890   43.4010 H   0  0  0  0  0  0  0  0  0  0  0  0
   56.5916   31.0663   42.4512 H   0  0  0  0  0  0  0  0  0  0  0  0
   55.7986   31.7143   43.9275 H   0  0  0  0  0  0  0  0  0  0  0  0
   59.4319   30.4509   45.4650 H   0  0  0  0  0  0  0  0  0  0  0  0
   60.1926   31.1172   47.7419 H   0  0  0  0  0  0  0  0  0  0  0  0
   58.0031   34.8268   47.4018 H   0  0  0  0  0  0  0  0  0  0  0  0
   56.4396   35.0771   45.5725 H   0  0  0  0  0  0  0  0  0  0  0  0
   57.6614   35.0666   44.2558 H   0  0  0  0  0  0  0  0  0  0  0  0
   56.3306   33.8601   44.2558 H   0  0  0  0  0  0  0  0  0  0  0  0
  1  2  1  0
  2  3  2  0
  3  4  1  0
  4  5  2  0
  4  6  1  0
  6  7  1  0
  7  8  1  0
  8  9  1  0
  9 10  1  0
 10 11  1  0
 11 12  1  0
 12 13  2  0
 12 14  1  0
 14 15  1  0
 15 16  1  0
 16 17  2  0
 17 18  1  0
 18 19  2  0
 19 20  1  0
 19 21  1  0
 21 22  2  0
 22 23  1  0
  7 24  2  0
 24  2  1  0
 22 16  1  0
  1 25  1  0
  1 26  1  0
  1 27  1  0
  3 28  1  0
  9 29  1  0
  9 30  1  0
 10 31  1  0
 10 32  1  0
 11 33  1  0
 14 34  1  0
 14 35  1  0
 17 36  1  0
 18 37  1  0
 21 38  1  0
 23 39  1  0
 23 40  1  0
 23 41  1  0
M  CHG  1   6  -1
M  END
>  <UniqueID>  (2) 
2

>  <SMILES>  (2) 
Cc1cc(=O)[n-]c(SCCNC(=O)COc2ccc(Cl)cc2C)n1

>  <Energy>  (2) 
29.298704835377745

>  <Genealogy>  (2) 
Cc1cc(=O)[n-]c(SCCNC(=O)COc2ccc(Cl)cc2C)n1 (protonated)
Cc1cc(=O)[n-]c(SCCNC(=O)COc2ccc(Cl)cc2C)n1 (3D coordinates assigned)
Cc1cc(=O)[n-]c(SCCNC(=O)COc2ccc(Cl)cc2C)n1 (optimized conformer: 29.298704835377745 kcal/mol)

>  <smiles>  (2) 
Cc1cc(=O)[nH]c(SCCNC(=O)COc2ccc(Cl)cc2C)n1

>  <score_type>  (2) 
oracle

>  <origin>  (2) 
adg

>  <m_score__min__energy>  (2) 
-10.380000000000001

>  <m_primary>  (2) 
energy

$$$$
2:0
     RDKit          3D

 48 51  0  0  1  0  0  0  0  0999 V2000
   67.6690   32.6890   51.3040 C   0  0  0  0  0  0  0  0  0  0  0  0
   66.5740   33.4890   50.7830 N   0  0  0  0  0  0  0  0  0  0  0  0
   65.9510   32.7180   49.7550 C   0  0  0  0  0  0  0  0  0  0  0  0
   64.6500   32.1470   50.3360 C   0  0  0  0  0  0  0  0  0  0  0  0
   63.8140   33.3110   50.5330 N   0  0  0  0  0  0  0  0  0  0  0  0
   62.5540   33.5050   49.9260 C   0  0  0  0  0  0  0  0  0  0  0  0
   61.3530   33.4530   50.5910 C   0  0  0  0  0  0  0  0  0  0  0  0
   60.1440   33.6560   49.9180 C   0  0  0  0  0  0  0  0  0  0  0  0
   60.1420   33.9120   48.5600 C   0  0  0  0  0  0  0  0  0  0  0  0
   58.9380   34.1190   47.8620 N   0  0  0  0  0  0  0  0  0  0  0  0
   58.6700   33.6480   46.6870 C   0  0  0  0  0  0  0  0  0  0  0  0
   58.6100   32.3140   46.5170 N   0  0  0  0  0  0  0  0  0  0  0  0
   58.3330   31.7650   45.3030 C   0  0  0  0  0  0  0  0  0  0  0  0
   58.2770   30.3150   45.1610 C   0  0  0  0  0  0  0  0  0  0  0  0
   59.4860   29.6460   45.1260 C   0  0  0  0  0  0  0  0  0  0  0  0
   59.4900   28.2600   44.9910 C   0  0  0  0  0  0  0  0  0  0  0  0
   58.2940   27.5690   44.8950 C   0  0  0  0  0  0  0  0  0  0  0  0
   57.0840   28.2340   44.9310 C   0  0  0  0  0  0  0  0  0  0  0  0
   57.1030   29.6050   45.0640 C   0  0  0  0  0  0  0  0  0  0  0  0
   58.1160   32.6340   44.2570 C   0  0  0  0  0  0  0  0  0  0  0  0
   57.7550   32.0010   42.6720 Cl  0  0  0  0  0  0  0  0  0  0  0  0
   58.1880   34.0070   44.4750 C   0  0  0  0  0  0  0  0  0  0  0  0
   58.4640   34.5260   45.6860 N   0  0  0  0  0  0  0  0  0  0  0  0
   61.3190   33.9590   47.9190 N   0  0  0  0  0  0  0  0  0  0  0  0
   62.4870   33.7650   48.5600 C   0  0  0  0  0  0  0  0  0  0  0  0
   64.3440   34.3380   51.4310 C   0  0  0  0  0  0  0  0  0  0  0  0
   65.7320   33.9280   51.8440 C   0  0  0  0  0  0  0  0  0  0  0  0
   67.6450   32.7065   52.4036 H   0  0  0  0  0  0  0  0  0  0  0  0
   67.5657   31.6522   50.9514 H   0  0  0  0  0  0  0  0  0  0  0  0
   68.6254   33.1026   50.9514 H   0  0  0  0  0  0  0  0  0  0  0  0
   65.7272   33.3575   48.8884 H   0  0  0  0  0  0  0  0  0  0  0  0
   66.6155   31.9082   49.4194 H   0  0  0  0  0  0  0  0  0  0  0  0
   64.1821   31.4444   49.6307 H   0  0  0  0  0  0  0  0  0  0  0  0
   64.8138   31.5813   51.2651 H   0  0  0  0  0  0  0  0  0  0  0  0
   61.3421   33.2481   51.6717 H   0  0  0  0  0  0  0  0  0  0  0  0
   59.1937   33.6118   50.4702 H   0  0  0  0  0  0  0  0  0  0  0  0
   60.4325   30.2011   45.2038 H   0  0  0  0  0  0  0  0  0  0  0  0
   60.4442   27.7136   44.9606 H   0  0  0  0  0  0  0  0  0  0  0  0
   58.3077   26.4743   44.7885 H   0  0  0  0  0  0  0  0  0  0  0  0
   56.1336   27.6853   44.8557 H   0  0  0  0  0  0  0  0  0  0  0  0
   56.1479   30.1498   45.0936 H   0  0  0  0  0  0  0  0  0  0  0  0
   58.0137   34.6899   43.6304 H   0  0  0  0  0  0  0  0  0  0  0  0
   58.5210   35.5520   45.8720 H   0  0  0  0  0  0  0  0  0  0  0  0
   63.4224   33.8137   47.9833 H   0  0  0  0  0  0  0  0  0  0  0  0
   64.3809   35.3059   50.9097 H   0  0  0  0  0  0  0  0  0  0  0  0
   63.6982   34.4405   52.3155 H   0  0  0  0  0  0  0  0  0  0  0  0
   66.2133   34.7921   52.3255 H   0  0  0  0  0  0  0  0  0  0  0  0
   65.6092   33.0645   52.5143 H   0  0  0  0  0  0  0  0  0  0  0  0
  1  2  1  0
  2  3  1  0
  3  4  1  0
  4  5  1  0
  5  6  1  0
  6  7  2  0
  7  8  1  0
  8  9  2  0
  9 10  1  0
 10 11  2  0
 11 12  1  0
 12 13  2  0
 13 14  1  0
 14 15  2  0
 15 16  1  0
 16 17  2  0
 17 18  1  0
 18 19  2  0
 13 20  1  0
 20 21  1  0
 20 22  2  0
 22 23  1  0
  9 24  1  0
 24 25  2  0
  5 26  1  0
 26 27  1  0
 27  2  1  0
 25  6  1  0
 23 11  1  0
 19 14  1  0
  1 28  1  0
  1 29  1  0
  1 30  1  0
  3 31  1  0
  3 32  1  0
  4 33  1  0
  4 34  1  0
  7 35  1  0
  8 36  1  0
 15 37  1  0
 16 38  1  0
 17 39  1  0
 18 40  1  0
 19 41  1  0
 22 42  1  0
 23 43  1  0
 25 44  1  0
 26 45  1  0
 26 46  1  0
 27 47  1  0
 27 48  1  0
M  END
>  <smiles>  (3) 
CN1CCN(c2ccc(N=c3nc(-c4ccccc4)c(Cl)c[nH]3)nc2)CC1

>  <score_type>  (3) 
oracle

>  <origin>  (3) 
adg

>  <m_score__min__energy>  (3) 
-8.0199999999999996

>  <m_primary>  (3) 
energy

$$$$
3:0
     RDKit          3D

 59 62  0  0  0  0  0  0  0  0999 V2000
   56.5932   32.6190   43.7413 H   0  0  0  0  0  0  0  0  0  0  0  0
   57.3860   32.5830   44.5030 C   0  0  0  0  0  0  0  0  0  0  0  0
   57.9840   33.7420   44.8270 C   0  0  0  0  0  0  0  0  0  0  0  0
   57.7191   34.6326   44.2382 H   0  0  0  0  0  0  0  0  0  0  0  0
   58.9720   33.9110   45.9160 C   0  0  0  0  0  0  0  0  0  0  0  0
   58.5220   34.2540   47.2000 C   0  0  0  0  0  0  0  0  0  0  0  0
   57.4457   34.3862   47.3845 H   0  0  0  0  0  0  0  0  0  0  0  0
   59.4330   34.4290   48.2470 C   0  0  0  0  0  0  0  0  0  0  0  0
   59.0715   34.7167   49.2453 H   0  0  0  0  0  0  0  0  0  0  0  0
   60.8060   34.2390   48.0290 C   0  0  0  0  0  0  0  0  0  0  0  0
   61.7300   34.4210   49.0700 C   0  0  0  0  0  0  0  0  0  0  0  0
   61.3802   34.7247   50.0677 H   0  0  0  0  0  0  0  0  0  0  0  0
   63.0940   34.2170   48.8410 C   0  0  0  0  0  0  0  0  0  0  0  0
   63.8151   34.3606   49.6592 H   0  0  0  0  0  0  0  0  0  0  0  0
   63.5440   33.8310   47.5750 C   0  0  0  0  0  0  0  0  0  0  0  0
   64.6181   33.6691   47.4014 H   0  0  0  0  0  0  0  0  0  0  0  0
   62.6350   33.6500   46.5290 C   0  0  0  0  0  0  0  0  0  0  0  0
   62.9954   33.3463   45.5351 H   0  0  0  0  0  0  0  0  0  0  0  0
   61.2630   33.8550   46.7440 C   0  0  0  0  0  0  0  0  0  0  0  0
   60.3440   33.6860   45.6990 C   0  0  0  0  0  0  0  0  0  0  0  0
   60.6971   33.3760   44.7044 H   0  0  0  0  0  0  0  0  0  0  0  0
   57.7070   31.2640   45.0870 C   0  0  0  0  0  0  0  0  0  0  0  0
   56.8020   30.2600   44.9620 N   0  0  0  0  0  0  0  0  0  0  0  0
   57.0290   29.0090   45.4470 C   0  0  0  0  0  0  0  0  0  0  0  0
   56.0430   27.9820   45.2880 N   0  0  0  0  0  0  0  0  0  0  0  0
   55.1320   28.2010   44.8290 H   0  0  0  0  0  0  0  0  0  0  0  0
   56.3260   26.3530   45.8060 S   0  0  0  0  0  0  0  0  0  0  0  0
   57.0400   26.3730   47.1300 O   0  0  0  0  0  0  0  0  0  0  0  0
   55.0120   25.6400   45.9710 O   0  0  0  0  0  0  0  0  0  0  0  0
   57.3380   25.5050   44.6130 C   0  0  0  0  0  0  0  0  0  0  0  0
   58.0795   24.8837   45.1367 H   0  0  0  0  0  0  0  0  0  0  0  0
   56.7032   24.8651   43.9824 H   0  0  0  0  0  0  0  0  0  0  0  0
   57.8569   26.2420   43.9824 H   0  0  0  0  0  0  0  0  0  0  0  0
   58.2370   28.7280   46.1010 C   0  0  0  0  0  0  0  0  0  0  0  0
   58.4297   27.7198   46.4966 H   0  0  0  0  0  0  0  0  0  0  0  0
   59.2020   29.7420   46.2490 C   0  0  0  0  0  0  0  0  0  0  0  0
   60.3460   29.5450   46.8440 N   0  0  0  0  0  0  0  0  0  0  0  0
   61.0590   30.4750   47.6700 C   0  0  0  0  0  0  0  0  0  0  0  0
   62.2830   30.6770   47.4530 O   0  0  0  0  0  0  0  0  0  0  0  0
   60.3350   31.3440   48.6610 C   0  0  0  0  0  0  0  0  0  0  0  0
   60.9945   32.1668   48.9743 H   0  0  0  0  0  0  0  0  0  0  0  0
   59.4286   31.7517   48.1897 H   0  0  0  0  0  0  0  0  0  0  0  0
   59.9430   30.5320   49.8670 C   0  0  0  0  0  0  0  0  0  0  0  0
   60.9000   29.7430   50.5220 C   0  0  0  0  0  0  0  0  0  0  0  0
   61.9389   29.7276   50.1609 H   0  0  0  0  0  0  0  0  0  0  0  0
   60.5360   28.9760   51.6330 C   0  0  0  0  0  0  0  0  0  0  0  0
   61.2902   28.3617   52.1465 H   0  0  0  0  0  0  0  0  0  0  0  0
   59.2180   28.9880   52.0920 C   0  0  0  0  0  0  0  0  0  0  0  0
   58.9428   28.3915   52.9743 H   0  0  0  0  0  0  0  0  0  0  0  0
   58.2430   29.7520   51.4400 C   0  0  0  0  0  0  0  0  0  0  0  0
   56.9320   29.7150   51.9420 O   0  0  0  0  0  0  0  0  0  0  0  0
   56.1800   30.8490   52.3730 C   0  0  0  0  0  0  0  0  0  0  0  0
   54.9700   30.9070   51.7010 F   0  0  0  0  0  0  0  0  0  0  0  0
   55.9610   30.7830   53.7390 F   0  0  0  0  0  0  0  0  0  0  0  0
   56.9000   31.9940   52.0920 F   0  0  0  0  0  0  0  0  0  0  0  0
   58.6120   30.5230   50.3180 C   0  0  0  0  0  0  0  0  0  0  0  0
   57.8530   31.1212   49.7925 H   0  0  0  0  0  0  0  0  0  0  0  0
   58.9430   31.0040   45.7040 C   0  0  0  0  0  0  0  0  0  0  0  0
   59.7071   31.7935   45.7583 H   0  0  0  0  0  0  0  0  0  0  0  0
  1  2  1  0
  2  3  2  3
  3  4  1  0
  3  5  1  0
  5  6  2  0
  6  7  1  0
  6  8  1  0
  8  9  1  0
  8 10  2  0
 10 11  1  0
 11 12  1  0
 11 13  2  0
 13 14  1  0
 13 15  1  0
 15 16  1  0
 15 17  2  0
 17 18  1  0
 17 19  1  0
 19 20  2  0
 20 21  1  0
  2 22  1  0
 22 23  1  0
 23 24  1  0
 24 25  1  0
 25 26  1  0
 25 27  1  0
 27 28  2  0
 27 29  2  0
 27 30  1  0
 30 31  1  0
 30 32  1  0
 30 33  1  0
 24 34  2  0
 34 35  1  0
 34 36  1  0
 36 37  2  0
 37 38  1  0
 38 39  2  0
 38 40  1  0
 40 41  1  0
 40 42  1  0
 40 43  1  0
 43 44  2  0
 44 45  1  0
 44 46  1  0
 46 47  1  0
 46 48  2  0
 48 49  1  0
 48 50  1  0
 50 51  1  0
 51 52  1  0
 52 53  1  0
 52 54  1  0
 52 55  1  0
 50 56  2  0
 56 57  1  0
 36 58  1  0
 58 59  1  0
 20  5  1  0
 58 22  2  0
 19 10  1  0
 56 43  1  0
M  CHG  1  23  -1
M  END
>  <UniqueID>  (4) 
3

>  <SMILES>  (4) 
CS(=O)(=O)Nc1c/c(=N\C(=O)Cc2cccc(OC(F)(F)F)c2)cc(C=Cc2ccc3ccccc3c2)[n-]1

>  <Energy>  (4) 
77.76766277537924

>  <Genealogy>  (4) 
CS(=O)(=O)Nc1cc(=NC(=O)Cc2cccc(OC(F)(F)F)c2)cc(C=Cc2ccc3ccccc3c2)[n-]1 (protonated)
CS(=O)(=O)Nc1c/c(=N\C(=O)Cc2cccc(OC(F)(F)F)c2)cc(C=Cc2ccc3ccccc3c2)[n-]1 (cis-trans isomerization)
CS(=O)(=O)Nc1c/c(=N\C(=O)Cc2cccc(OC(F)(F)F)c2)cc(C=Cc2ccc3ccccc3c2)[n-]1 (3D coordinates assigned)
CS(=O)(=O)Nc1c/c(=N\C(=O)Cc2cccc(OC(F)(F)F)c2)cc(C=Cc2ccc3ccccc3c2)[n-]1 (optimized conformer: 77.76766277537924 kcal/mol)

>  <smiles>  (4) 
CS(=O)(=O)Nc1cc(=NC(=O)Cc2cccc(OC(F)(F)F)c2)cc(C=Cc2ccc3ccccc3c2)[nH]1

>  <score_type>  (4) 
oracle

>  <origin>  (4) 
adg

>  <m_score__min__energy>  (4) 
-12.619999999999999

>  <m_primary>  (4) 
energy

$$$$
4:0
     RDKit          3D

 55 58  0  0  0  0  0  0  0  0999 V2000
   66.5040   26.6510   51.1950 C   0  0  0  0  0  0  0  0  0  0  0  0
   67.1390   27.9230   51.2810 O   0  0  0  0  0  0  0  0  0  0  0  0
   66.4570   29.1490   51.3050 C   0  0  0  0  0  0  0  0  0  0  0  0
   65.1000   29.2510   51.6660 C   0  0  0  0  0  0  0  0  0  0  0  0
   64.4630   30.4970   51.6690 C   0  0  0  0  0  0  0  0  0  0  0  0
   65.1670   31.6550   51.3060 C   0  0  0  0  0  0  0  0  0  0  0  0
   64.4910   33.0010   51.3400 C   0  0  0  0  0  0  0  0  0  0  0  0
   63.7460   33.2290   50.0900 N   0  0  0  0  0  0  0  0  0  0  0  0
   64.3890   33.0460   48.8960 C   0  0  0  0  0  0  0  0  0  0  0  0
   63.7470   33.2700   47.7220 N   0  0  0  0  0  0  0  0  0  0  0  0
   62.4580   33.6830   47.6930 C   0  0  0  0  0  0  0  0  0  0  0  0
   61.8200   33.9010   46.4660 C   0  0  0  0  0  0  0  0  0  0  0  0
   60.4840   34.3140   46.4210 C   0  0  0  0  0  0  0  0  0  0  0  0
   59.8920   34.5050   45.1610 O   0  0  0  0  0  0  0  0  0  0  0  0
   58.4890   34.6240   44.9170 C   0  0  0  0  0  0  0  0  0  0  0  0
   57.7700   33.3450   45.2220 C   0  0  0  0  0  0  0  0  0  0  0  0
   56.8580   33.3250   46.0940 O   0  0  0  0  0  0  0  0  0  0  0  0
   58.1280   32.1540   44.5080 N   0  0  0  0  0  0  0  0  0  0  0  0
   57.8450   30.8030   44.9070 C   0  0  0  0  0  0  0  0  0  0  0  0
   56.6410   30.2190   44.4930 C   0  0  0  0  0  0  0  0  0  0  0  0
   56.3300   28.9040   44.8530 C   0  0  0  0  0  0  0  0  0  0  0  0
   57.2290   28.1520   45.6170 C   0  0  0  0  0  0  0  0  0  0  0  0
   56.8380   26.4920   46.0660 S   0  0  0  0  0  0  0  0  0  0  0  0
   55.1220   26.2820   46.0710 N   0  0  0  0  0  0  0  0  0  0  0  0
   57.4560   25.5430   45.0800 O   0  0  0  0  0  0  0  0  0  0  0  0
   57.3830   26.1890   47.4330 O   0  0  0  0  0  0  0  0  0  0  0  0
   58.4430   28.7250   46.0190 C   0  0  0  0  0  0  0  0  0  0  0  0
   58.7580   30.0380   45.6570 C   0  0  0  0  0  0  0  0  0  0  0  0
   59.7860   34.5200   47.6270 C   0  0  0  0  0  0  0  0  0  0  0  0
   60.4210   34.3110   48.8560 C   0  0  0  0  0  0  0  0  0  0  0  0
   61.7610   33.8900   48.8980 C   0  0  0  0  0  0  0  0  0  0  0  0
   62.4420   33.6560   50.1070 C   0  0  0  0  0  0  0  0  0  0  0  0
   61.8450   33.8350   51.2060 O   0  0  0  0  0  0  0  0  0  0  0  0
   66.5220   31.5530   50.9560 C   0  0  0  0  0  0  0  0  0  0  0  0
   67.1590   30.3080   50.9550 C   0  0  0  0  0  0  0  0  0  0  0  0
   66.3126   26.2675   52.2081 H   0  0  0  0  0  0  0  0  0  0  0  0
   65.5509   26.7527   50.6553 H   0  0  0  0  0  0  0  0  0  0  0  0
   67.1581   25.9504   50.6553 H   0  0  0  0  0  0  0  0  0  0  0  0
   64.5383   28.3478   51.9468 H   0  0  0  0  0  0  0  0  0  0  0  0
   63.4040   30.5689   51.9577 H   0  0  0  0  0  0  0  0  0  0  0  0
   63.7935   33.0357   52.1899 H   0  0  0  0  0  0  0  0  0  0  0  0
   65.2561   33.7837   51.4491 H   0  0  0  0  0  0  0  0  0  0  0  0
   65.4376   32.7137   48.8880 H   0  0  0  0  0  0  0  0  0  0  0  0
   62.3743   33.7461   45.5286 H   0  0  0  0  0  0  0  0  0  0  0  0
   58.0818   35.4238   45.5530 H   0  0  0  0  0  0  0  0  0  0  0  0
   58.3416   34.8583   43.8524 H   0  0  0  0  0  0  0  0  0  0  0  0
   55.9351   30.7989   43.8803 H   0  0  0  0  0  0  0  0  0  0  0  0
   55.3756   28.4595   44.5345 H   0  0  0  0  0  0  0  0  0  0  0  0
   54.7620   26.6890   45.1780 H   0  0  0  0  0  0  0  0  0  0  0  0
   59.1516   28.1387   46.6224 H   0  0  0  0  0  0  0  0  0  0  0  0
   59.7216   30.4743   45.9590 H   0  0  0  0  0  0  0  0  0  0  0  0
   58.7360   34.8470   47.6024 H   0  0  0  0  0  0  0  0  0  0  0  0
   59.8692   34.4769   49.7930 H   0  0  0  0  0  0  0  0  0  0  0  0
   67.0859   32.4566   50.6811 H   0  0  0  0  0  0  0  0  0  0  0  0
   68.2210   30.2391   50.6767 H   0  0  0  0  0  0  0  0  0  0  0  0
  1  2  1  0
  2  3  1  0
  3  4  2  0
  4  5  1  0
  5  6  2  0
  6  7  1  0
  7  8  1  0
  8  9  1  0
  9 10  2  0
 10 11  1  0
 11 12  2  0
 12 13  1  0
 13 14  1  0
 14 15  1  0
 15 16  1  0
 16 17  2  0
 16 18  1  0
 18 19  1  0
 19 20  2  0
 20 21  1  0
 21 22  2  0
 22 23  1  0
 23 24  1  0
 23 25  2  0
 23 26  2  0
 22 27  1  0
 27 28  2  0
 13 29  2  0
 29 30  1  0
 30 31  2  0
 31 32  1  0
 32 33  2  0
  6 34  1  0
 34 35  2  0
 35  3  1  0
 32  8  1  0
 31 11  1  0
 28 19  1  0
  1 36  1  0
  1 37  1  0
  1 38  1  0
  4 39  1  0
  5 40  1  0
  7 41  1  0
  7 42  1  0
  9 43  1  0
 12 44  1  0
 15 45  1  0
 15 46  1  0
 20 47  1  0
 21 48  1  0
 24 49  1  0
 27 50  1  0
 28 51  1  0
 29 52  1  0
 30 53  1  0
 34 54  1  0
 35 55  1  0
M  CHG  2  18  -1  24  -1
M  END
>  <UniqueID>  (5) 
4

>  <SMILES>  (5) 
COc1ccc(Cn2cnc3cc(OCC(=O)[N-]c4ccc(S([NH-])(=O)=O)cc4)ccc3c2=O)cc1

>  <Energy>  (5) 
67.68983431750142

>  <Genealogy>  (5) 
COc1ccc(Cn2cnc3cc(OCC(=O)[N-]c4ccc(S([NH-])(=O)=O)cc4)ccc3c2=O)cc1 (protonated)
COc1ccc(Cn2cnc3cc(OCC(=O)[N-]c4ccc(S([NH-])(=O)=O)cc4)ccc3c2=O)cc1 (3D coordinates assigned)
COc1ccc(Cn2cnc3cc(OCC(=O)[N-]c4ccc(S([NH-])(=O)=O)cc4)ccc3c2=O)cc1 (optimized conformer: 67.68983431750142 kcal/mol)

>  <smiles>  (5) 
COc1ccc(Cn2cnc3cc(OCC(=O)Nc4ccc(S(N)(=O)=O)cc4)ccc3c2=O)cc1

>  <score_type>  (5) 
oracle

>  <origin>  (5) 
adg

>  <m_score__min__energy>  (5) 
-12.57

>  <m_primary>  (5) 
energy

$$$$
5:0
     RDKit          3D

 40 42  0  0  0  0  0  0  0  0999 V2000
   60.0900   29.4270   47.4020 C   0  0  0  0  0  0  0  0  0  0  0  0
   60.0230   29.4070   45.8790 C   0  0  0  0  0  0  0  0  0  0  0  0
   58.6290   29.4420   45.4260 N   0  0  0  0  0  0  0  0  0  0  0  0
   57.7860   30.4980   45.2640 C   0  0  0  0  0  0  0  0  0  0  0  0
   58.0770   31.9190   45.5800 C   0  0  0  0  0  0  0  0  0  0  0  0
   58.0080   32.8990   44.5740 C   0  0  0  0  0  0  0  0  0  0  0  0
   58.2810   34.2320   44.8880 C   0  0  0  0  0  0  0  0  0  0  0  0
   58.6210   34.5830   46.1940 C   0  0  0  0  0  0  0  0  0  0  0  0
   58.6830   33.5890   47.1710 C   0  0  0  0  0  0  0  0  0  0  0  0
   58.4130   32.2970   46.8450 N   0  0  0  0  0  0  0  0  0  0  0  0
   56.6050   30.1000   44.7420 N   0  0  0  0  0  0  0  0  0  0  0  0
   56.6910   28.7930   44.5620 N   0  0  0  0  0  0  0  0  0  0  0  0
   57.9060   28.3970   44.9680 C   0  0  0  0  0  0  0  0  0  0  0  0
   58.4870   26.6990   44.8580 S   0  0  0  0  0  0  0  0  0  0  0  0
   57.7270   26.1700   46.4310 C   0  0  0  0  0  0  0  0  0  0  0  0
   56.2500   25.9670   46.2570 C   0  0  0  0  0  0  0  0  0  0  0  0
   55.5270   26.9340   45.8970 O   0  0  0  0  0  0  0  0  0  0  0  0
   55.6680   24.6590   46.3590 N   0  0  0  0  0  0  0  0  0  0  0  0
   55.7510   23.6990   45.4810 C   0  0  0  0  0  0  0  0  0  0  0  0
   55.7700   24.0360   44.1210 C   0  0  0  0  0  0  0  0  0  0  0  0
   55.8520   23.0290   43.1570 C   0  0  0  0  0  0  0  0  0  0  0  0
   55.9010   21.7250   43.5350 N   0  0  0  0  0  0  0  0  0  0  0  0
   55.8690   21.3620   44.8440 C   0  0  0  0  0  0  0  0  0  0  0  0
   55.7880   22.3370   45.8420 C   0  0  0  0  0  0  0  0  0  0  0  0
   59.1134   29.1355   47.8158 H   0  0  0  0  0  0  0  0  0  0  0  0
   60.8594   28.7194   47.7445 H   0  0  0  0  0  0  0  0  0  0  0  0
   60.3456   30.4406   47.7445 H   0  0  0  0  0  0  0  0  0  0  0  0
   60.5549   30.2840   45.4817 H   0  0  0  0  0  0  0  0  0  0  0  0
   60.4925   28.4815   45.5143 H   0  0  0  0  0  0  0  0  0  0  0  0
   57.7404   32.6171   43.5450 H   0  0  0  0  0  0  0  0  0  0  0  0
   58.2279   35.0040   44.1062 H   0  0  0  0  0  0  0  0  0  0  0  0
   58.8376   35.6305   46.4507 H   0  0  0  0  0  0  0  0  0  0  0  0
   58.9504   33.8507   48.2054 H   0  0  0  0  0  0  0  0  0  0  0  0
   55.9360   28.1950   44.1570 H   0  0  0  0  0  0  0  0  0  0  0  0
   58.1868   25.2250   46.7558 H   0  0  0  0  0  0  0  0  0  0  0  0
   57.8929   26.9511   47.1876 H   0  0  0  0  0  0  0  0  0  0  0  0
   55.7205   25.0910   43.8136 H   0  0  0  0  0  0  0  0  0  0  0  0
   55.8770   23.2922   42.0892 H   0  0  0  0  0  0  0  0  0  0  0  0
   55.9070   20.2976   45.1190 H   0  0  0  0  0  0  0  0  0  0  0  0
   55.7534   22.0436   46.9016 H   0  0  0  0  0  0  0  0  0  0  0  0
  1  2  1  0
  2  3  1  0
  3  4  1  0
  4  5  1  0
  5  6  2  0
  6  7  1  0
  7  8  2  0
  8  9  1  0
  9 10  2  0
  4 11  2  0
 11 12  1  0
 12 13  2  0
 13 14  1  0
 14 15  1  0
 15 16  1  0
 16 17  2  0
 16 18  1  0
 18 19  2  3
 19 20  1  0
 20 21  2  0
 21 22  1  0
 22 23  1  0
 23 24  2  0
 13  3  1  0
 24 19  1  0
 10  5  1  0
  1 25  1  0
  1 26  1  0
  1 27  1  0
  2 28  1  0
  2 29  1  0
  6 30  1  0
  7 31  1  0
  8 32  1  0
  9 33  1  0
 12 34  1  0
 15 35  1  0
 15 36  1  0
 20 37  1  0
 21 38  1  0
 23 39  1  0
 24 40  1  0
M  CHG  2  12   1  22  -1
M  END
>  <UniqueID>  (6) 
5

>  <SMILES>  (6) 
CCn1c(-c2ccccn2)n[nH+]c1SCC(=O)N=c1cc[n-]cc1

>  <Energy>  (6) 
83.97955941049777

>  <Genealogy>  (6) 
CCn1c(-c2ccccn2)n[nH+]c1SCC(=O)N=c1cc[n-]cc1 (protonated)
CCn1c(-c2ccccn2)n[nH+]c1SCC(=O)N=c1cc[n-]cc1 (3D coordinates assigned)
CCn1c(-c2ccccn2)n[nH+]c1SCC(=O)N=c1cc[n-]cc1 (optimized conformer: 83.97955941049777 kcal/mol)

>  <smiles>  (6) 
CCn1c(SCC(=O)N=c2cc[nH]cc2)nnc1-c1ccccn1

>  <score_type>  (6) 
oracle

>  <origin>  (6) 
adg

>  <m_score__min__energy>  (6) 
-8.7200000000000006

>  <m_primary>  (6) 
energy

$$$$
6:0
     RDKit          3D

 37 39  0  0  0  0  0  0  0  0999 V2000
   55.5730   26.2500   45.6410 N   0  0  0  0  0  0  0  0  0  0  0  0
   56.5540   25.8510   46.6010 C   0  0  0  0  0  0  0  0  0  0  0  0
   56.2900   24.8900   47.3690 O   0  0  0  0  0  0  0  0  0  0  0  0
   57.8620   26.5520   46.6920 C   0  0  0  0  0  0  0  0  0  0  0  0
   58.7360   26.2400   47.7520 C   0  0  0  0  0  0  0  0  0  0  0  0
   59.9430   26.9240   47.9090 C   0  0  0  0  0  0  0  0  0  0  0  0
   60.2940   27.9370   47.0190 C   0  0  0  0  0  0  0  0  0  0  0  0
   59.4480   28.2550   45.9560 C   0  0  0  0  0  0  0  0  0  0  0  0
   58.2510   27.5520   45.7630 C   0  0  0  0  0  0  0  0  0  0  0  0
   57.4220   27.9180   44.6540 N   0  0  0  0  0  0  0  0  0  0  0  0
   56.6000   29.0940   44.6100 C   0  0  0  0  0  0  0  0  0  0  0  0
   55.4560   29.0530   45.1340 O   0  0  0  0  0  0  0  0  0  0  0  0
   57.0440   30.3370   43.9390 C   0  0  0  0  0  0  0  0  0  0  0  0
   56.9250   30.4670   42.6090 C   0  0  0  0  0  0  0  0  0  0  0  0
   57.3610   31.6890   41.9150 C   0  0  0  0  0  0  0  0  0  0  0  0
   57.8800   32.7170   42.5900 C   0  0  0  0  0  0  0  0  0  0  0  0
   58.0450   32.6570   44.0210 N   0  0  0  0  0  0  0  0  0  0  0  0
   58.3610   33.9020   44.7380 C   0  0  0  0  0  0  0  0  0  0  0  0
   59.3530   33.6610   45.8660 C   0  0  0  0  0  0  0  0  0  0  0  0
   58.6590   32.4650   46.9680 S   0  0  0  0  0  0  0  0  0  0  0  0
   59.7490   31.8260   47.7800 O   0  0  0  0  0  0  0  0  0  0  0  0
   57.6530   33.1160   47.8740 O   0  0  0  0  0  0  0  0  0  0  0  0
   57.8820   31.2760   45.9870 N   0  0  0  0  0  0  0  0  0  0  0  0
   57.6680   31.4370   44.7140 C   0  0  0  0  0  0  0  0  0  0  0  0
   55.7910   26.9470   44.8950 H   0  0  0  0  0  0  0  0  0  0  0  0
   54.6380   25.7860   45.6240 H   0  0  0  0  0  0  0  0  0  0  0  0
   58.4641   25.4476   48.4648 H   0  0  0  0  0  0  0  0  0  0  0  0
   60.6183   26.6626   48.7371 H   0  0  0  0  0  0  0  0  0  0  0  0
   61.2377   28.4858   47.1544 H   0  0  0  0  0  0  0  0  0  0  0  0
   59.7228   29.0643   45.2636 H   0  0  0  0  0  0  0  0  0  0  0  0
   56.4920   29.6419   42.0245 H   0  0  0  0  0  0  0  0  0  0  0  0
   57.2576   31.7565   40.8220 H   0  0  0  0  0  0  0  0  0  0  0  0
   58.1862   33.6230   42.0466 H   0  0  0  0  0  0  0  0  0  0  0  0
   58.7947   34.6224   44.0288 H   0  0  0  0  0  0  0  0  0  0  0  0
   57.4306   34.2935   45.1752 H   0  0  0  0  0  0  0  0  0  0  0  0
   60.3000   33.2821   45.4541 H   0  0  0  0  0  0  0  0  0  0  0  0
   59.5530   34.6002   46.4025 H   0  0  0  0  0  0  0  0  0  0  0  0
  1  2  1  0
  2  3  2  0
  2  4  1  0
  4  5  2  0
  5  6  1  0
  6  7  2  0
  7  8  1  0
  8  9  2  0
  9 10  1  0
 10 11  1  0
 11 12  2  0
 11 13  1  0
 13 14  2  0
 14 15  1  0
 15 16  2  0
 16 17  1  0
 17 18  1  0
 18 19  1  0
 19 20  1  0
 20 21  2  0
 20 22  2  0
 20 23  1  0
 23 24  2  0
  9  4  1  0
 24 13  1  0
 24 17  1  0
  1 25  1  0
  1 26  1  0
  5 27  1  0
  6 28  1  0
  7 29  1  0
  8 30  1  0
 14 31  1  0
 15 32  1  0
 16 33  1  0
 18 34  1  0
 18 35  1  0
 19 36  1  0
 19 37  1  0
M  CHG  1  10  -1
M  END
>  <UniqueID>  (7) 
6

>  <SMILES>  (7) 
NC(=O)c1ccccc1[N-]C(=O)C1=CC=CN2CCS(=O)(=O)N=C12

>  <Energy>  (7) 
53.97274880223428

>  <Genealogy>  (7) 
NC(=O)c1ccccc1[N-]C(=O)C1=CC=CN2CCS(=O)(=O)N=C12 (protonated)
NC(=O)c1ccccc1[N-]C(=O)C1=CC=CN2CCS(=O)(=O)N=C12 (3D coordinates assigned)
NC(=O)c1ccccc1[N-]C(=O)C1=CC=CN2CCS(=O)(=O)N=C12 (nonaromatic ring conformer: 53.97274880223428 kcal/mol)

>  <smiles>  (7) 
NC(=O)c1ccccc1NC(=O)C1=CC=CN2CCS(=O)(=O)N=C12

>  <score_type>  (7) 
oracle

>  <origin>  (7) 
adg

>  <m_score__min__energy>  (7) 
-11.56

>  <m_primary>  (7) 
energy

$$$$
7:0
     RDKit          3D

 38 40  0  0  0  0  0  0  0  0999 V2000
   60.6610   29.6570   49.0480 C   0  0  0  0  0  0  0  0  0  0  0  0
   60.4030   30.7700   48.1400 N   0  0  0  0  0  0  0  0  0  0  0  0
   59.2030   31.1120   47.6140 C   0  0  0  0  0  0  0  0  0  0  0  0
   59.3280   32.2600   46.8380 C   0  0  0  0  0  0  0  0  0  0  0  0
   58.2060   32.9990   46.1650 C   0  0  0  0  0  0  0  0  0  0  0  0
   57.8590   32.3670   44.8110 C   0  0  0  0  0  0  0  0  0  0  0  0
   57.2280   31.0570   44.9750 N   0  0  0  0  0  0  0  0  0  0  0  0
   57.9770   29.8430   44.8410 C   0  0  0  0  0  0  0  0  0  0  0  0
   59.1310   29.8720   44.3330 O   0  0  0  0  0  0  0  0  0  0  0  0
   57.4010   28.5460   45.2640 C   0  0  0  0  0  0  0  0  0  0  0  0
   58.2490   27.5250   45.7230 C   0  0  0  0  0  0  0  0  0  0  0  0
   57.7220   26.2940   46.1130 C   0  0  0  0  0  0  0  0  0  0  0  0
   56.3420   26.0910   46.0540 C   0  0  0  0  0  0  0  0  0  0  0  0
   55.8500   24.9860   46.3970 O   0  0  0  0  0  0  0  0  0  0  0  0
   55.5270   27.0920   45.6300 N   0  0  0  0  0  0  0  0  0  0  0  0
   56.0120   28.3030   45.2440 C   0  0  0  0  0  0  0  0  0  0  0  0
   55.1160   29.2950   44.8630 O   0  0  0  0  0  0  0  0  0  0  0  0
   60.6600   32.6290   46.9210 C   0  0  0  0  0  0  0  0  0  0  0  0
   61.3540   33.7110   46.3760 C   0  0  0  0  0  0  0  0  0  0  0  0
   62.7220   33.8320   46.6720 C   0  0  0  0  0  0  0  0  0  0  0  0
   63.3630   32.8830   47.4980 C   0  0  0  0  0  0  0  0  0  0  0  0
   62.6400   31.8030   48.0350 C   0  0  0  0  0  0  0  0  0  0  0  0
   61.2830   31.7030   47.7220 C   0  0  0  0  0  0  0  0  0  0  0  0
   60.5801   30.0060   50.0880 H   0  0  0  0  0  0  0  0  0  0  0  0
   59.9237   28.8602   48.8702 H   0  0  0  0  0  0  0  0  0  0  0  0
   61.6736   29.2659   48.8702 H   0  0  0  0  0  0  0  0  0  0  0  0
   58.2647   30.5615   47.7768 H   0  0  0  0  0  0  0  0  0  0  0  0
   57.3175   32.9697   46.8129 H   0  0  0  0  0  0  0  0  0  0  0  0
   58.5265   34.0371   45.9929 H   0  0  0  0  0  0  0  0  0  0  0  0
   57.1671   33.0319   44.2733 H   0  0  0  0  0  0  0  0  0  0  0  0
   58.7923   32.2314   44.2448 H   0  0  0  0  0  0  0  0  0  0  0  0
   56.2020   30.9960   45.1590 H   0  0  0  0  0  0  0  0  0  0  0  0
   59.3342   27.6970   45.7752 H   0  0  0  0  0  0  0  0  0  0  0  0
   58.3871   25.4910   46.4636 H   0  0  0  0  0  0  0  0  0  0  0  0
   60.8454   34.4459   45.7347 H   0  0  0  0  0  0  0  0  0  0  0  0
   63.2981   34.6723   46.2572 H   0  0  0  0  0  0  0  0  0  0  0  0
   64.4345   32.9892   47.7228 H   0  0  0  0  0  0  0  0  0  0  0  0
   63.1287   31.0596   48.6820 H   0  0  0  0  0  0  0  0  0  0  0  0
  1  2  1  0
  2  3  1  0
  3  4  2  0
  4  5  1  0
  5  6  1  0
  6  7  1  0
  7  8  1  0
  8  9  2  0
  8 10  1  0
 10 11  1  0
 11 12  2  0
 12 13  1  0
 13 14  2  0
 13 15  1  0
 15 16  1  0
 16 17  1  0
  4 18  1  0
 18 19  2  0
 19 20  1  0
 20 21  2  0
 21 22  1  0
 22 23  2  0
 23  2  1  0
 16 10  2  0
 23 18  1  0
  1 24  1  0
  1 25  1  0
  1 26  1  0
  3 27  1  0
  5 28  1  0
  5 29  1  0
  6 30  1  0
  6 31  1  0
  7 32  1  0
 11 33  1  0
 12 34  1  0
 19 35  1  0
 20 36  1  0
 21 37  1  0
 22 38  1  0
M  CHG  2  15  -1  17  -1
M  END
>  <UniqueID>  (8) 
7

>  <SMILES>  (8) 
Cn1cc(CCNC(=O)c2ccc(=O)[n-]c2[O-])c2ccccc21

>  <Energy>  (8) 
72.95547135493298

>  <Genealogy>  (8) 
Cn1cc(CCNC(=O)c2ccc(=O)[n-]c2[O-])c2ccccc21 (protonated)
Cn1cc(CCNC(=O)c2ccc(=O)[n-]c2[O-])c2ccccc21 (3D coordinates assigned)
Cn1cc(CCNC(=O)c2ccc(=O)[n-]c2[O-])c2ccccc21 (optimized conformer: 72.95547135493298 kcal/mol)

>  <smiles>  (8) 
Cn1cc(CCNC(=O)c2ccc(=O)[nH]c2O)c2ccccc21

>  <score_type>  (8) 
oracle

>  <origin>  (8) 
adg

>  <m_score__min__energy>  (8) 
-14.58

>  <m_primary>  (8) 
energy

$$$$
8:0
     RDKit          3D

 42 44  0  0  0  0  0  0  0  0999 V2000
   59.2810   34.6040   45.4130 C   0  0  0  0  0  0  0  0  0  0  0  0
   58.6040   33.3030   45.0690 C   0  0  0  0  0  0  0  0  0  0  0  0
   58.1500   33.1140   43.7520 C   0  0  0  0  0  0  0  0  0  0  0  0
   57.5000   31.9390   43.3820 C   0  0  0  0  0  0  0  0  0  0  0  0
   57.2910   30.9240   44.3190 C   0  0  0  0  0  0  0  0  0  0  0  0
   56.4790   29.4290   43.8440 S   0  0  0  0  0  0  0  0  0  0  0  0
   55.2390   29.7670   43.0670 O   0  0  0  0  0  0  0  0  0  0  0  0
   57.3700   28.6050   42.9590 O   0  0  0  0  0  0  0  0  0  0  0  0
   55.9850   28.5270   45.2440 N   0  0  0  0  0  0  0  0  0  0  0  0
   56.6030   27.3540   45.7960 C   0  0  0  0  0  0  0  0  0  0  0  0
   57.9910   27.2550   46.0080 C   0  0  0  0  0  0  0  0  0  0  0  0
   58.5410   26.0920   46.5580 C   0  0  0  0  0  0  0  0  0  0  0  0
   57.7170   25.0150   46.8870 C   0  0  0  0  0  0  0  0  0  0  0  0
   56.3400   25.1020   46.6780 C   0  0  0  0  0  0  0  0  0  0  0  0
   55.7820   26.2660   46.1380 C   0  0  0  0  0  0  0  0  0  0  0  0
   54.4080   26.3350   45.9430 O   0  0  0  0  0  0  0  0  0  0  0  0
   57.7450   31.0950   45.6300 C   0  0  0  0  0  0  0  0  0  0  0  0
   58.4090   32.2710   46.0270 C   0  0  0  0  0  0  0  0  0  0  0  0
   58.8740   32.3710   47.4360 C   0  0  0  0  0  0  0  0  0  0  0  0
   58.1770   32.9760   48.2960 O   0  0  0  0  0  0  0  0  0  0  0  0
   60.1460   31.8050   47.7970 N   0  0  0  0  0  0  0  0  0  0  0  0
   61.2960   32.4120   47.8520 C   0  0  0  0  0  0  0  0  0  0  0  0
   62.3650   31.9680   47.1320 N   0  0  0  0  0  0  0  0  0  0  0  0
   63.5740   32.5870   47.1760 C   0  0  0  0  0  0  0  0  0  0  0  0
   63.7500   33.7170   47.9760 C   0  0  0  0  0  0  0  0  0  0  0  0
   62.6730   34.2030   48.7170 C   0  0  0  0  0  0  0  0  0  0  0  0
   61.4370   33.5500   48.6620 C   0  0  0  0  0  0  0  0  0  0  0  0
   60.3560   34.0220   49.4030 O   0  0  0  0  0  0  0  0  0  0  0  0
   59.3365   34.7106   46.5064 H   0  0  0  0  0  0  0  0  0  0  0  0
   60.2972   34.6111   44.9919 H   0  0  0  0  0  0  0  0  0  0  0  0
   58.7037   35.4403   44.9919 H   0  0  0  0  0  0  0  0  0  0  0  0
   58.3102   33.9044   43.0039 H   0  0  0  0  0  0  0  0  0  0  0  0
   57.1496   31.8096   42.3474 H   0  0  0  0  0  0  0  0  0  0  0  0
   58.6468   28.0965   45.7398 H   0  0  0  0  0  0  0  0  0  0  0  0
   59.6253   26.0265   46.7314 H   0  0  0  0  0  0  0  0  0  0  0  0
   58.1525   24.0981   47.3108 H   0  0  0  0  0  0  0  0  0  0  0  0
   55.6912   24.2528   46.9386 H   0  0  0  0  0  0  0  0  0  0  0  0
   57.5801   30.2945   46.3662 H   0  0  0  0  0  0  0  0  0  0  0  0
   64.4135   32.1976   46.5814 H   0  0  0  0  0  0  0  0  0  0  0  0
   64.7277   34.2190   48.0216 H   0  0  0  0  0  0  0  0  0  0  0  0
   62.7953   35.0986   49.3439 H   0  0  0  0  0  0  0  0  0  0  0  0
   59.4490   33.5700   49.3670 H   0  0  0  0  0  0  0  0  0  0  0  0
  1  2  1  0
  2  3  2  0
  3  4  1  0
  4  5  2  0
  5  6  1  0
  6  7  2  0
  6  8  2  0
  6  9  1  0
  9 10  1  0
 10 11  2  0
 11 12  1  0
 12 13  2  0
 13 14  1  0
 14 15  2  0
 15 16  1  0
  5 17  1  0
 17 18  2  0
 18 19  1  0
 19 20  2  0
 19 21  1  0
 21 22  2  3
 22 23  1  0
 23 24  1  0
 24 25  2  0
 25 26  1  0
 26 27  2  0
 27 28  1  0
 18  2  1  0
 27 22  1  0
 15 10  1  0
  1 29  1  0
  1 30  1  0
  1 31  1  0
  3 32  1  0
  4 33  1  0
 11 34  1  0
 12 35  1  0
 13 36  1  0
 14 37  1  0
 17 38  1  0
 24 39  1  0
 25 40  1  0
 26 41  1  0
 28 42  1  0
M  CHG  3   9  -1  16  -1  23  -1
M  END
>  <UniqueID>  (9) 
8

>  <SMILES>  (9) 
Cc1ccc(S(=O)(=O)[N-]c2ccccc2[O-])cc1C(=O)N=c1[n-]cccc1O

>  <Energy>  (9) 
56.97548275993842

>  <Genealogy>  (9) 
Cc1ccc(S(=O)(=O)[N-]c2ccccc2[O-])cc1C(=O)N=c1[n-]cccc1O (protonated)
Cc1ccc(S(=O)(=O)[N-]c2ccccc2[O-])cc1C(=O)N=c1[n-]cccc1O (3D coordinates assigned)
Cc1ccc(S(=O)(=O)[N-]c2ccccc2[O-])cc1C(=O)N=c1[n-]cccc1O (optimized conformer: 56.97548275993842 kcal/mol)

>  <smiles>  (9) 
Cc1ccc(S(=O)(=O)Nc2ccccc2O)cc1C(=O)N=c1[nH]cccc1O

>  <score_type>  (9) 
oracle

>  <origin>  (9) 
adg

>  <m_score__min__energy>  (9) 
-15.470000000000001

>  <m_primary>  (9) 
energy

$$$$
9:0
     RDKit          3D

 44 46  0  0  0  0  0  0  0  0999 V2000
   58.7800   30.6750   48.3490 N   0  0  0  0  0  0  0  0  0  0  0  0
   58.7750   31.5560   47.5990 C   0  0  0  0  0  0  0  0  0  0  0  0
   58.7700   32.6530   46.6640 C   0  0  0  0  0  0  0  0  0  0  0  0
   59.5920   33.7640   46.9040 C   0  0  0  0  0  0  0  0  0  0  0  0
   59.6030   34.8350   46.0090 C   0  0  0  0  0  0  0  0  0  0  0  0
   58.7940   34.8050   44.8720 C   0  0  0  0  0  0  0  0  0  0  0  0
   57.9720   33.7020   44.6260 C   0  0  0  0  0  0  0  0  0  0  0  0
   57.9540   32.6110   45.5180 C   0  0  0  0  0  0  0  0  0  0  0  0
   57.1440   31.4810   45.3040 O   0  0  0  0  0  0  0  0  0  0  0  0
   56.6610   31.0430   44.0340 C   0  0  0  0  0  0  0  0  0  0  0  0
   55.8530   29.7840   44.1870 C   0  0  0  0  0  0  0  0  0  0  0  0
   54.8990   29.5720   43.3930 O   0  0  0  0  0  0  0  0  0  0  0  0
   56.0950   28.8480   45.2450 N   0  0  0  0  0  0  0  0  0  0  0  0
   57.3510   28.2370   45.5750 C   0  0  0  0  0  0  0  0  0  0  0  0
   58.5270   29.0080   45.6490 C   0  0  0  0  0  0  0  0  0  0  0  0
   59.7530   28.4020   45.9290 C   0  0  0  0  0  0  0  0  0  0  0  0
   59.8220   27.0220   46.1250 C   0  0  0  0  0  0  0  0  0  0  0  0
   58.6680   26.2430   46.0280 C   0  0  0  0  0  0  0  0  0  0  0  0
   57.4310   26.8370   45.7320 C   0  0  0  0  0  0  0  0  0  0  0  0
   56.2180   25.9950   45.6490 C   0  0  0  0  0  0  0  0  0  0  0  0
   55.1950   26.3350   46.3040 O   0  0  0  0  0  0  0  0  0  0  0  0
   56.1820   24.8070   44.8390 N   0  0  0  0  0  0  0  0  0  0  0  0
   57.1100   24.5340   43.7520 C   0  0  0  0  0  0  0  0  0  0  0  0
   56.6610   23.2110   43.1490 C   0  0  0  0  0  0  0  0  0  0  0  0
   55.2400   22.9770   43.6540 C   0  0  0  0  0  0  0  0  0  0  0  0
   55.0800   23.8610   44.8840 C   0  0  0  0  0  0  0  0  0  0  0  0
   60.2296   33.7913   47.7999 H   0  0  0  0  0  0  0  0  0  0  0  0
   60.2501   35.7038   46.2000 H   0  0  0  0  0  0  0  0  0  0  0  0
   58.8035   35.6507   44.1687 H   0  0  0  0  0  0  0  0  0  0  0  0
   57.3345   33.6852   43.7298 H   0  0  0  0  0  0  0  0  0  0  0  0
   56.0282   31.8290   43.5960 H   0  0  0  0  0  0  0  0  0  0  0  0
   57.5190   30.8390   43.3766 H   0  0  0  0  0  0  0  0  0  0  0  0
   58.4793   30.0947   45.4851 H   0  0  0  0  0  0  0  0  0  0  0  0
   60.6655   29.0127   45.9952 H   0  0  0  0  0  0  0  0  0  0  0  0
   60.7871   26.5476   46.3562 H   0  0  0  0  0  0  0  0  0  0  0  0
   58.7282   25.1559   46.1846 H   0  0  0  0  0  0  0  0  0  0  0  0
   57.0640   25.3341   42.9985 H   0  0  0  0  0  0  0  0  0  0  0  0
   58.1495   24.4854   44.1085 H   0  0  0  0  0  0  0  0  0  0  0  0
   56.6712   23.2690   42.0506 H   0  0  0  0  0  0  0  0  0  0  0  0
   57.3314   22.3887   43.4393 H   0  0  0  0  0  0  0  0  0  0  0  0
   54.5088   23.2599   42.8824 H   0  0  0  0  0  0  0  0  0  0  0  0
   55.0675   21.9175   43.8944 H   0  0  0  0  0  0  0  0  0  0  0  0
   54.1175   24.3926   44.8509 H   0  0  0  0  0  0  0  0  0  0  0  0
   55.0923   23.2696   45.8114 H   0  0  0  0  0  0  0  0  0  0  0  0
  1  2  3  0
  2  3  1  0
  3  4  2  0
  4  5  1  0
  5  6  2  0
  6  7  1  0
  7  8  2  0
  8  9  1  0
  9 10  1  0
 10 11  1  0
 11 12  2  0
 11 13  1  0
 13 14  1  0
 14 15  2  0
 15 16  1  0
 16 17  2  0
 17 18  1  0
 18 19  2  0
 19 20  1  0
 20 21  2  0
 20 22  1  0
 22 23  1  0
 23 24  1  0
 24 25  1  0
 25 26  1  0
  8  3  1  0
 19 14  1  0
 26 22  1  0
  4 27  1  0
  5 28  1  0
  6 29  1  0
  7 30  1  0
 10 31  1  0
 10 32  1  0
 15 33  1  0
 16 34  1  0
 17 35  1  0
 18 36  1  0
 23 37  1  0
 23 38  1  0
 24 39  1  0
 24 40  1  0
 25 41  1  0
 25 42  1  0
 26 43  1  0
 26 44  1  0
M  CHG  1  13  -1
M  END
>  <UniqueID>  (10) 
9

>  <SMILES>  (10) 
N#Cc1ccccc1OCC(=O)[N-]c1ccccc1C(=O)N1CCCC1

>  <Energy>  (10) 
54.011750275287994

>  <Genealogy>  (10) 
N#Cc1ccccc1OCC(=O)[N-]c1ccccc1C(=O)N1CCCC1 (protonated)
N#Cc1ccccc1OCC(=O)[N-]c1ccccc1C(=O)N1CCCC1 (3D coordinates assigned)
N#Cc1ccccc1OCC(=O)[N-]c1ccccc1C(=O)N1CCCC1 (nonaromatic ring conformer: 54.011750275287994 kcal/mol)

>  <smiles>  (10) 
N#Cc1ccccc1OCC(=O)Nc1ccccc1C(=O)N1CCCC1

>  <score_type>  (10) 
oracle

>  <origin>  (10) 
adg

>  <m_score__min__energy>  (10) 
-11.4

>  <m_primary>  (10) 
energy

$$$$
10:0
     RDKit          3D

 64 67  0  0  0  0  0  0  0  0999 V2000
   65.8560   33.0690   52.2410 C   0  0  0  0  0  0  0  0  0  0  0  0
   65.5940   32.3020   50.6500 S   0  0  0  0  0  0  0  0  0  0  0  0
   66.7430   32.6590   49.7500 O   0  0  0  0  0  0  0  0  0  0  0  0
   65.5690   30.8110   50.8340 O   0  0  0  0  0  0  0  0  0  0  0  0
   64.0980   32.8140   49.9050 N   0  0  0  0  0  0  0  0  0  0  0  0
   63.7800   34.2050   50.2790 C   0  0  0  0  0  0  0  0  0  0  0  0
   62.3440   34.5420   49.8580 C   0  0  0  0  0  0  0  0  0  0  0  0
   62.0070   33.8750   48.5960 N   0  0  0  0  0  0  0  0  0  0  0  0
   60.6310   33.7390   48.2060 C   0  0  0  0  0  0  0  0  0  0  0  0
   60.1320   34.4880   47.1290 C   0  0  0  0  0  0  0  0  0  0  0  0
   58.8010   34.3420   46.7280 C   0  0  0  0  0  0  0  0  0  0  0  0
   57.9580   33.4590   47.4070 C   0  0  0  0  0  0  0  0  0  0  0  0
   58.4430   32.7190   48.4880 C   0  0  0  0  0  0  0  0  0  0  0  0
   59.7850   32.8450   48.8890 C   0  0  0  0  0  0  0  0  0  0  0  0
   60.2900   32.1450   50.0340 N   0  0  0  0  0  0  0  0  0  0  0  0
   61.2210   31.0560   50.0100 C   0  0  0  0  0  0  0  0  0  0  0  0
   62.2510   31.0780   50.7360 O   0  0  0  0  0  0  0  0  0  0  0  0
   60.9000   29.8360   49.1860 C   0  0  0  0  0  0  0  0  0  0  0  0
   59.4660   29.3330   49.4710 C   0  0  0  0  0  0  0  0  0  0  0  0
   58.8960   28.6070   48.2490 C   0  0  0  0  0  0  0  0  0  0  0  0
   58.7590   29.5190   47.0920 N   0  0  0  0  0  0  0  0  0  0  0  0
   58.6020   28.5930   45.6170 S   0  0  0  0  0  0  0  0  0  0  0  0
   57.6650   27.4380   45.8500 O   0  0  0  0  0  0  0  0  0  0  0  0
   59.9470   28.0590   45.2090 O   0  0  0  0  0  0  0  0  0  0  0  0
   57.9900   29.6130   44.3170 C   0  0  0  0  0  0  0  0  0  0  0  0
   56.9840   29.1460   43.4560 C   0  0  0  0  0  0  0  0  0  0  0  0
   56.5010   29.9670   42.4310 C   0  0  0  0  0  0  0  0  0  0  0  0
   57.0200   31.2530   42.2590 C   0  0  0  0  0  0  0  0  0  0  0  0
   58.0280   31.7180   43.1090 C   0  0  0  0  0  0  0  0  0  0  0  0
   58.5160   30.8980   44.1320 C   0  0  0  0  0  0  0  0  0  0  0  0
   59.8420   30.5270   46.9730 C   0  0  0  0  0  0  0  0  0  0  0  0
   61.1380   30.1070   47.6830 C   0  0  0  0  0  0  0  0  0  0  0  0
   63.0760   33.4470   47.6870 C   0  0  0  0  0  0  0  0  0  0  0  0
   64.1650   32.6460   48.4360 C   0  0  0  0  0  0  0  0  0  0  0  0
   65.6111   32.3520   53.0385 H   0  0  0  0  0  0  0  0  0  0  0  0
   66.9091   33.3734   52.3323 H   0  0  0  0  0  0  0  0  0  0  0  0
   65.2092   33.9541   52.3323 H   0  0  0  0  0  0  0  0  0  0  0  0
   63.3490   32.1840   50.2790 H   0  0  0  0  0  0  0  0  0  0  0  0
   63.8778   34.3215   51.3684 H   0  0  0  0  0  0  0  0  0  0  0  0
   64.4769   34.8862   49.7688 H   0  0  0  0  0  0  0  0  0  0  0  0
   61.6490   34.2058   50.6416 H   0  0  0  0  0  0  0  0  0  0  0  0
   62.2612   35.6299   49.7177 H   0  0  0  0  0  0  0  0  0  0  0  0
   60.7903   35.1920   46.5989 H   0  0  0  0  0  0  0  0  0  0  0  0
   58.4169   34.9231   45.8767 H   0  0  0  0  0  0  0  0  0  0  0  0
   56.9107   33.3462   47.0900 H   0  0  0  0  0  0  0  0  0  0  0  0
   57.7722   32.0346   49.0280 H   0  0  0  0  0  0  0  0  0  0  0  0
   61.5861   29.0285   49.4813 H   0  0  0  0  0  0  0  0  0  0  0  0
   59.4891   28.6399   50.3249 H   0  0  0  0  0  0  0  0  0  0  0  0
   58.8260   30.1979   49.6998 H   0  0  0  0  0  0  0  0  0  0  0  0
   59.5708   27.7823   47.9762 H   0  0  0  0  0  0  0  0  0  0  0  0
   57.8973   28.2260   48.5085 H   0  0  0  0  0  0  0  0  0  0  0  0
   56.5750   28.1334   43.5874 H   0  0  0  0  0  0  0  0  0  0  0  0
   55.7112   29.5994   41.7593 H   0  0  0  0  0  0  0  0  0  0  0  0
   56.6359   31.8988   41.4557 H   0  0  0  0  0  0  0  0  0  0  0  0
   58.4378   32.7297   42.9732 H   0  0  0  0  0  0  0  0  0  0  0  0
   59.3154   31.2635   44.7933 H   0  0  0  0  0  0  0  0  0  0  0  0
   60.0614   30.6805   45.9061 H   0  0  0  0  0  0  0  0  0  0  0  0
   59.4867   31.4484   47.4576 H   0  0  0  0  0  0  0  0  0  0  0  0
   61.5228   29.1907   47.2114 H   0  0  0  0  0  0  0  0  0  0  0  0
   61.8628   30.9294   47.5918 H   0  0  0  0  0  0  0  0  0  0  0  0
   62.6435   32.8129   46.8990 H   0  0  0  0  0  0  0  0  0  0  0  0
   63.5422   34.3441   47.2536 H   0  0  0  0  0  0  0  0  0  0  0  0
   64.0408   31.5790   48.1991 H   0  0  0  0  0  0  0  0  0  0  0  0
   65.1417   33.0288   48.1049 H   0  0  0  0  0  0  0  0  0  0  0  0
  1  2  1  0
  2  3  2  0
  2  4  2  0
  2  5  1  0
  5  6  1  0
  6  7  1  0
  7  8  1  0
  8  9  1  0
  9 10  2  0
 10 11  1  0
 11 12  2  0
 12 13  1  0
 13 14  2  0
 14 15  1  0
 15 16  1  0
 16 17  2  0
 16 18  1  0
 18 19  1  0
 19 20  1  0
 20 21  1  0
 21 22  1  0
 22 23  2  0
 22 24  2  0
 22 25  1  0
 25 26  2  0
 26 27  1  0
 27 28  2  0
 28 29  1  0
 29 30  2  0
 21 31  1  0
 31 32  1  0
  8 33  1  0
 33 34  1  0
 34  5  1  0
 14  9  1  0
 32 18  1  0
 30 25  1  0
  1 35  1  0
  1 36  1  0
  1 37  1  0
  5 38  1  0
  6 39  1  0
  6 40  1  0
  7 41  1  0
  7 42  1  0
 10 43  1  0
 11 44  1  0
 12 45  1  0
 13 46  1  0
 18 47  1  0
 19 48  1  0
 19 49  1  0
 20 50  1  0
 20 51  1  0
 26 52  1  0
 27 53  1  0
 28 54  1  0
 29 55  1  0
 30 56  1  0
 31 57  1  0
 31 58  1  0
 32 59  1  0
 32 60  1  0
 33 61  1  0
 33 62  1  0
 34 63  1  0
 34 64  1  0
M  CHG  2   5   1  15  -1
M  END
>  <UniqueID>  (11) 
10

>  <SMILES>  (11) 
CS(=O)(=O)[NH+]1CCN(c2ccccc2[N-]C(=O)C2CCN(S(=O)(=O)c3ccccc3)CC2)CC1

>  <Energy>  (11) 
79.45899286531343

>  <Genealogy>  (11) 
CS(=O)(=O)[NH+]1CCN(c2ccccc2[N-]C(=O)C2CCN(S(=O)(=O)c3ccccc3)CC2)CC1 (protonated)
CS(=O)(=O)[NH+]1CCN(c2ccccc2[N-]C(=O)C2CCN(S(=O)(=O)c3ccccc3)CC2)CC1 (3D coordinates assigned)
CS(=O)(=O)[NH+]1CCN(c2ccccc2[N-]C(=O)C2CCN(S(=O)(=O)c3ccccc3)CC2)CC1 (nonaromatic ring conformer: 79.45899286531343 kcal/mol)

>  <smiles>  (11) 
CS(=O)(=O)N1CCN(c2ccccc2NC(=O)C2CCN(S(=O)(=O)c3ccccc3)CC2)CC1

>  <score_type>  (11) 
oracle

>  <origin>  (11) 
adg

>  <m_score__min__energy>  (11) 
-10.26

>  <m_primary>  (11) 
energy

$$$$
11:0
     RDKit          3D

 51 54  0  0  0  0  0  0  0  0999 V2000
   55.1103   32.0431   51.3347 H   0  0  0  0  0  0  0  0  0  0  0  0
   55.8270   31.2630   51.6310 C   0  0  0  0  0  0  0  0  0  0  0  0
   57.1460   31.3130   51.3000 N   0  0  0  0  0  0  0  0  0  0  0  0
   57.8190   30.2440   51.7840 C   0  0  0  0  0  0  0  0  0  0  0  0
   59.0920   30.0410   51.6150 N   0  0  0  0  0  0  0  0  0  0  0  0
   59.6930   29.2020   50.6160 C   0  0  0  0  0  0  0  0  0  0  0  0
   60.0210   28.0150   50.8810 O   0  0  0  0  0  0  0  0  0  0  0  0
   59.8750   29.6870   49.2810 N   0  0  0  0  0  0  0  0  0  0  0  0
   59.4230   29.0400   48.0850 C   0  0  0  0  0  0  0  0  0  0  0  0
   59.7730   27.7110   47.7850 C   0  0  0  0  0  0  0  0  0  0  0  0
   60.4289   27.1495   48.4665 H   0  0  0  0  0  0  0  0  0  0  0  0
   59.2900   27.1020   46.6240 C   0  0  0  0  0  0  0  0  0  0  0  0
   59.5825   26.0691   46.3842 H   0  0  0  0  0  0  0  0  0  0  0  0
   58.4380   27.8000   45.7680 C   0  0  0  0  0  0  0  0  0  0  0  0
   58.0708   27.3203   44.8487 H   0  0  0  0  0  0  0  0  0  0  0  0
   58.0480   29.1120   46.0760 C   0  0  0  0  0  0  0  0  0  0  0  0
   57.1200   29.8430   45.1950 C   0  0  0  0  0  0  0  0  0  0  0  0
   55.9940   29.3420   44.9340 O   0  0  0  0  0  0  0  0  0  0  0  0
   57.4800   31.0930   44.5910 N   0  0  0  0  0  0  0  0  0  0  0  0
   57.0050   32.4000   45.0360 C   0  0  0  0  0  0  0  0  0  0  0  0
   56.8133   33.0345   44.1582 H   0  0  0  0  0  0  0  0  0  0  0  0
   56.0787   32.2662   45.6139 H   0  0  0  0  0  0  0  0  0  0  0  0
   58.0380   33.0620   45.9120 C   0  0  0  0  0  0  0  0  0  0  0  0
   58.9470   33.9940   45.3770 C   0  0  0  0  0  0  0  0  0  0  0  0
   58.9275   34.2230   44.3013 H   0  0  0  0  0  0  0  0  0  0  0  0
   59.8750   34.6300   46.2080 C   0  0  0  0  0  0  0  0  0  0  0  0
   60.5815   35.3598   45.7859 H   0  0  0  0  0  0  0  0  0  0  0  0
   59.9050   34.3380   47.5770 C   0  0  0  0  0  0  0  0  0  0  0  0
   60.8060   34.9550   48.3830 F   0  0  0  0  0  0  0  0  0  0  0  0
   59.0050   33.4120   48.1160 C   0  0  0  0  0  0  0  0  0  0  0  0
   59.0306   33.1832   49.1916 H   0  0  0  0  0  0  0  0  0  0  0  0
   58.0730   32.7770   47.2890 C   0  0  0  0  0  0  0  0  0  0  0  0
   57.3648   32.0521   47.7168 H   0  0  0  0  0  0  0  0  0  0  0  0
   58.5510   29.7290   47.2320 C   0  0  0  0  0  0  0  0  0  0  0  0
   58.2581   30.7622   47.4702 H   0  0  0  0  0  0  0  0  0  0  0  0
   56.8210   29.1920   52.6330 S   0  0  0  0  0  0  0  0  0  0  0  0
   55.4570   30.1450   52.3750 C   0  0  0  0  0  0  0  0  0  0  0  0
   54.0770   29.8360   52.8680 C   0  0  0  0  0  0  0  0  0  0  0  0
   53.9320   28.7457   52.8793 H   0  0  0  0  0  0  0  0  0  0  0  0
   53.9616   30.2437   53.8831 H   0  0  0  0  0  0  0  0  0  0  0  0
   53.0450   30.4640   51.9700 C   0  0  0  0  0  0  0  0  0  0  0  0
   52.7750   29.9100   50.7080 C   0  0  0  0  0  0  0  0  0  0  0  0
   53.3355   29.0277   50.3653 H   0  0  0  0  0  0  0  0  0  0  0  0
   51.7950   30.4770   49.8850 C   0  0  0  0  0  0  0  0  0  0  0  0
   51.5886   30.0394   48.8971 H   0  0  0  0  0  0  0  0  0  0  0  0
   51.0780   31.5970   50.3140 C   0  0  0  0  0  0  0  0  0  0  0  0
   50.3131   32.0442   49.6621 H   0  0  0  0  0  0  0  0  0  0  0  0
   51.3340   32.1480   51.5720 C   0  0  0  0  0  0  0  0  0  0  0  0
   50.6210   33.2640   51.9980 O   0  0  0  0  0  0  0  0  0  0  0  0
   52.3080   31.5790   52.4020 C   0  0  0  0  0  0  0  0  0  0  0  0
   52.4968   32.0075   53.3974 H   0  0  0  0  0  0  0  0  0  0  0  0
  1  2  1  0
  2  3  1  0
  3  4  1  0
  4  5  2  0
  5  6  1  0
  6  7  2  0
  6  8  1  0
  8  9  1  0
  9 10  2  0
 10 11  1  0
 10 12  1  0
 12 13  1  0
 12 14  2  0
 14 15  1  0
 14 16  1  0
 16 17  1  0
 17 18  2  0
 17 19  1  0
 19 20  1  0
 20 21  1  0
 20 22  1  0
 20 23  1  0
 23 24  2  0
 24 25  1  0
 24 26  1  0
 26 27  1  0
 26 28  2  0
 28 29  1  0
 28 30  1  0
 30 31  1  0
 30 32  2  0
 32 33  1  0
 16 34  2  0
 34 35  1  0
  4 36  1  0
 36 37  1  0
 37 38  1  0
 38 39  1  0
 38 40  1  0
 38 41  1  0
 41 42  2  0
 42 43  1  0
 42 44  1  0
 44 45  1  0
 44 46  2  0
 46 47  1  0
 46 48  1  0
 48 49  1  0
 48 50  2  0
 50 51  1  0
 37  2  2  0
 50 41  1  0
 34  9  1  0
 32 23  1  0
M  CHG  4   3  -1   8  -1  19  -1  49  -1
M  END
>  <UniqueID>  (12) 
11

>  <SMILES>  (12) 
O=C(/N=c1\[n-]cc(Cc2cccc([O-])c2)s1)[N-]c1cccc(C(=O)[N-]Cc2ccc(F)cc2)c1

>  <Energy>  (12) 
91.92564720303288

>  <Genealogy>  (12) 
O=C(N=c1[n-]cc(Cc2cccc([O-])c2)s1)[N-]c1cccc(C(=O)[N-]Cc2ccc(F)cc2)c1 (protonated)
O=C(/N=c1\[n-]cc(Cc2cccc([O-])c2)s1)[N-]c1cccc(C(=O)[N-]Cc2ccc(F)cc2)c1 (cis-trans isomerization)
O=C(/N=c1\[n-]cc(Cc2cccc([O-])c2)s1)[N-]c1cccc(C(=O)[N-]Cc2ccc(F)cc2)c1 (3D coordinates assigned)
O=C(/N=c1\[n-]cc(Cc2cccc([O-])c2)s1)[N-]c1cccc(C(=O)[N-]Cc2ccc(F)cc2)c1 (optimized conformer: 91.92564720303288 kcal/mol)

>  <smiles>  (12) 
O=C(N=c1[nH]cc(Cc2cccc(O)c2)s1)Nc1cccc(C(=O)NCc2ccc(F)cc2)c1

>  <score_type>  (12) 
oracle

>  <origin>  (12) 
adg

>  <m_score__min__energy>  (12) 
-17.030000000000001

>  <m_primary>  (12) 
energy

$$$$
12:0
     RDKit          3D

 60 63  0  0  0  0  0  0  0  0999 V2000
   55.1920   29.7650   43.7310 C   0  0  0  0  0  0  0  0  0  0  0  0
   55.4450   29.0270   44.9230 O   0  0  0  0  0  0  0  0  0  0  0  0
   56.6780   28.4340   45.2460 C   0  0  0  0  0  0  0  0  0  0  0  0
   56.8260   27.0410   45.3770 C   0  0  0  0  0  0  0  0  0  0  0  0
   58.0690   26.4770   45.7100 C   0  0  0  0  0  0  0  0  0  0  0  0
   58.2430   25.0560   45.8610 N   0  0  0  0  0  0  0  0  0  0  0  0
   56.9470   23.9460   46.2070 S   0  0  0  0  0  0  0  0  0  0  0  0
   56.4320   23.1060   44.7190 C   0  0  0  0  0  0  0  0  0  0  0  0
   55.7770   24.7260   46.7420 O   0  0  0  0  0  0  0  0  0  0  0  0
   57.3810   22.9570   47.2520 O   0  0  0  0  0  0  0  0  0  0  0  0
   59.1750   27.3210   45.8730 C   0  0  0  0  0  0  0  0  0  0  0  0
   59.0400   28.7030   45.7350 C   0  0  0  0  0  0  0  0  0  0  0  0
   57.7860   29.2700   45.4470 C   0  0  0  0  0  0  0  0  0  0  0  0
   57.6170   30.6900   45.2850 N   0  0  0  0  0  0  0  0  0  0  0  0
   58.2640   31.6360   45.8980 C   0  0  0  0  0  0  0  0  0  0  0  0
   58.9200   31.3430   47.0610 N   0  0  0  0  0  0  0  0  0  0  0  0
   59.6210   32.3230   47.6840 C   0  0  0  0  0  0  0  0  0  0  0  0
   59.6990   33.5780   47.1660 C   0  0  0  0  0  0  0  0  0  0  0  0
   59.0490   33.8900   45.9830 C   0  0  0  0  0  0  0  0  0  0  0  0
   58.3410   32.9010   45.3690 N   0  0  0  0  0  0  0  0  0  0  0  0
   60.5230   34.3140   47.9800 C   0  0  0  0  0  0  0  0  0  0  0  0
   60.9250   33.4290   48.9790 C   0  0  0  0  0  0  0  0  0  0  0  0
   61.8650   33.8140   50.0440 C   0  0  0  0  0  0  0  0  0  0  0  0
   61.4000   34.2030   51.1490 O   0  0  0  0  0  0  0  0  0  0  0  0
   63.2930   33.8280   49.8220 N   0  0  0  0  0  0  0  0  0  0  0  0
   64.1820   34.1930   50.9280 C   0  0  0  0  0  0  0  0  0  0  0  0
   63.8500   33.4690   48.5160 C   0  0  0  0  0  0  0  0  0  0  0  0
   60.3510   32.1970   48.8100 N   0  0  0  0  0  0  0  0  0  0  0  0
   60.5600   30.9260   49.5350 C   0  0  0  0  0  0  0  0  0  0  0  0
   60.8140   29.7380   48.6030 C   0  0  0  0  0  0  0  0  0  0  0  0
   59.6400   28.7680   48.7650 C   0  0  0  0  0  0  0  0  0  0  0  0
   58.6400   29.4090   49.7260 C   0  0  0  0  0  0  0  0  0  0  0  0
   59.3590   30.5640   50.4080 C   0  0  0  0  0  0  0  0  0  0  0  0
   54.8455   30.7758   43.9921 H   0  0  0  0  0  0  0  0  0  0  0  0
   56.1172   29.8358   43.1402 H   0  0  0  0  0  0  0  0  0  0  0  0
   54.4180   29.2533   43.1402 H   0  0  0  0  0  0  0  0  0  0  0  0
   55.9576   26.3852   45.2167 H   0  0  0  0  0  0  0  0  0  0  0  0
   59.2150   24.6690   45.9280 H   0  0  0  0  0  0  0  0  0  0  0  0
   55.8742   22.1962   44.9859 H   0  0  0  0  0  0  0  0  0  0  0  0
   55.7865   23.7715   44.1270 H   0  0  0  0  0  0  0  0  0  0  0  0
   57.3179   22.8326   44.1270 H   0  0  0  0  0  0  0  0  0  0  0  0
   60.1587   26.8905   46.1119 H   0  0  0  0  0  0  0  0  0  0  0  0
   59.9199   29.3527   45.8522 H   0  0  0  0  0  0  0  0  0  0  0  0
   59.1027   34.9015   45.5541 H   0  0  0  0  0  0  0  0  0  0  0  0
   60.8047   35.3714   47.8684 H   0  0  0  0  0  0  0  0  0  0  0  0
   63.6803   33.9870   51.8850 H   0  0  0  0  0  0  0  0  0  0  0  0
   65.1077   33.6022   50.8647 H   0  0  0  0  0  0  0  0  0  0  0  0
   64.4254   35.2639   50.8647 H   0  0  0  0  0  0  0  0  0  0  0  0
   64.7668   32.8781   48.6583 H   0  0  0  0  0  0  0  0  0  0  0  0
   63.1142   32.8747   47.9544 H   0  0  0  0  0  0  0  0  0  0  0  0
   64.0873   34.3846   47.9544 H   0  0  0  0  0  0  0  0  0  0  0  0
   61.4519   31.1051   50.1534 H   0  0  0  0  0  0  0  0  0  0  0  0
   60.8742   30.0843   47.5607 H   0  0  0  0  0  0  0  0  0  0  0  0
   61.7635   29.2433   48.8552 H   0  0  0  0  0  0  0  0  0  0  0  0
   59.1625   28.5909   47.7900 H   0  0  0  0  0  0  0  0  0  0  0  0
   59.9888   27.8018   49.1584 H   0  0  0  0  0  0  0  0  0  0  0  0
   57.7673   29.7823   49.1701 H   0  0  0  0  0  0  0  0  0  0  0  0
   58.2807   28.6779   50.4652 H   0  0  0  0  0  0  0  0  0  0  0  0
   58.6841   31.4279   50.4978 H   0  0  0  0  0  0  0  0  0  0  0  0
   59.6829   30.2798   51.4201 H   0  0  0  0  0  0  0  0  0  0  0  0
  1  2  1  0
  2  3  1  0
  3  4  2  0
  4  5  1  0
  5  6  1  0
  6  7  1  0
  7  8  1  0
  7  9  2  0
  7 10  2  0
  5 11  2  0
 11 12  1  0
 12 13  2  0
 13 14  1  0
 14 15  2  3
 15 16  1  0
 16 17  2  0
 17 18  1  0
 18 19  2  0
 19 20  1  0
 18 21  1  0
 21 22  2  0
 22 23  1  0
 23 24  2  0
 23 25  1  0
 25 26  1  0
 25 27  1  0
 22 28  1  0
 28 29  1  0
 29 30  1  0
 30 31  1  0
 31 32  1  0
 32 33  1  0
 13  3  1  0
 20 15  1  0
 33 29  1  0
 28 17  1  0
  1 34  1  0
  1 35  1  0
  1 36  1  0
  4 37  1  0
  6 38  1  0
  8 39  1  0
  8 40  1  0
  8 41  1  0
 11 42  1  0
 12 43  1  0
 19 44  1  0
 21 45  1  0
 26 46  1  0
 26 47  1  0
 26 48  1  0
 27 49  1  0
 27 50  1  0
 27 51  1  0
 29 52  1  0
 30 53  1  0
 30 54  1  0
 31 55  1  0
 31 56  1  0
 32 57  1  0
 32 58  1  0
 33 59  1  0
 33 60  1  0
M  CHG  1  20  -1
M  END
>  <UniqueID>  (13) 
12

>  <SMILES>  (13) 
COc1cc(NS(C)(=O)=O)ccc1N=c1nc2c(c[n-]1)cc(C(=O)N(C)C)n2C1CCCC1

>  <Energy>  (13) 
111.44992648363679

>  <Genealogy>  (13) 
COc1cc(NS(C)(=O)=O)ccc1N=c1nc2c(c[n-]1)cc(C(=O)N(C)C)n2C1CCCC1 (protonated)
COc1cc(NS(C)(=O)=O)ccc1N=c1nc2c(c[n-]1)cc(C(=O)N(C)C)n2C1CCCC1 (3D coordinates assigned)
COc1cc(NS(C)(=O)=O)ccc1N=c1nc2c(c[n-]1)cc(C(=O)N(C)C)n2C1CCCC1 (nonaromatic ring conformer: 111.44992648363679 kcal/mol)

>  <smiles>  (13) 
COc1cc(NS(C)(=O)=O)ccc1N=c1nc2c(c[nH]1)cc(C(=O)N(C)C)n2C1CCCC1

>  <score_type>  (13) 
oracle

>  <origin>  (13) 
adg

>  <m_score__min__energy>  (13) 
-9.7100000000000009

>  <m_primary>  (13) 
energy

$$$$
13:0
     RDKit          3D

 47 49  0  0  0  0  0  0  0  0999 V2000
   58.9470   29.3840   49.0610 C   0  0  0  0  0  0  0  0  0  0  0  0
   60.5690   28.9290   48.4830 S   0  0  0  0  0  0  0  0  0  0  0  0
   61.0730   27.7620   49.2840 O   0  0  0  0  0  0  0  0  0  0  0  0
   61.5010   30.0940   48.6680 O   0  0  0  0  0  0  0  0  0  0  0  0
   60.5150   28.4960   46.7510 C   0  0  0  0  0  0  0  0  0  0  0  0
   59.1040   28.5490   46.2340 C   0  0  0  0  0  0  0  0  0  0  0  0
   58.6340   29.6990   45.5840 C   0  0  0  0  0  0  0  0  0  0  0  0
   57.3170   29.7610   45.1330 C   0  0  0  0  0  0  0  0  0  0  0  0
   56.4460   28.6830   45.3300 C   0  0  0  0  0  0  0  0  0  0  0  0
   55.1460   28.7890   44.8510 O   0  0  0  0  0  0  0  0  0  0  0  0
   56.8960   27.5180   45.9950 C   0  0  0  0  0  0  0  0  0  0  0  0
   56.0020   26.3550   46.2390 C   0  0  0  0  0  0  0  0  0  0  0  0
   54.7770   26.4360   45.9500 O   0  0  0  0  0  0  0  0  0  0  0  0
   56.5320   25.1200   46.7380 N   0  0  0  0  0  0  0  0  0  0  0  0
   57.3220   24.1660   46.0110 C   0  0  0  0  0  0  0  0  0  0  0  0
   58.7270   24.2380   45.9950 C   0  0  0  0  0  0  0  0  0  0  0  0
   59.4720   23.3220   45.2490 C   0  0  0  0  0  0  0  0  0  0  0  0
   58.8250   22.3350   44.5020 C   0  0  0  0  0  0  0  0  0  0  0  0
   57.4290   22.2650   44.4900 C   0  0  0  0  0  0  0  0  0  0  0  0
   56.6430   21.0140   43.5380 Cl  0  0  0  0  0  0  0  0  0  0  0  0
   56.6720   23.1830   45.2400 C   0  0  0  0  0  0  0  0  0  0  0  0
   55.2390   23.1080   45.2200 N   0  0  0  0  0  0  0  0  0  0  0  0
   54.4930   23.7230   44.1210 C   0  0  0  0  0  0  0  0  0  0  0  0
   53.0850   24.0870   44.6020 C   0  0  0  0  0  0  0  0  0  0  0  0
   52.4550   22.9700   45.2020 O   0  0  0  0  0  0  0  0  0  0  0  0
   53.1470   22.6030   46.3810 C   0  0  0  0  0  0  0  0  0  0  0  0
   54.5620   22.1170   46.0540 C   0  0  0  0  0  0  0  0  0  0  0  0
   58.2320   27.4690   46.4410 C   0  0  0  0  0  0  0  0  0  0  0  0
   58.9371   29.3868   50.1610 H   0  0  0  0  0  0  0  0  0  0  0  0
   58.6936   30.3879   48.6895 H   0  0  0  0  0  0  0  0  0  0  0  0
   58.2085   28.6584   48.6895 H   0  0  0  0  0  0  0  0  0  0  0  0
   61.1349   29.2045   46.1821 H   0  0  0  0  0  0  0  0  0  0  0  0
   60.8978   27.4719   46.6302 H   0  0  0  0  0  0  0  0  0  0  0  0
   59.3072   30.5551   45.4296 H   0  0  0  0  0  0  0  0  0  0  0  0
   56.9588   30.6645   44.6179 H   0  0  0  0  0  0  0  0  0  0  0  0
   59.2414   25.0198   46.5731 H   0  0  0  0  0  0  0  0  0  0  0  0
   60.5706   23.3780   45.2498 H   0  0  0  0  0  0  0  0  0  0  0  0
   59.4156   21.6109   43.9216 H   0  0  0  0  0  0  0  0  0  0  0  0
   55.0137   24.6330   43.7881 H   0  0  0  0  0  0  0  0  0  0  0  0
   54.4228   23.0141   43.2829 H   0  0  0  0  0  0  0  0  0  0  0  0
   53.1546   24.9008   45.3388 H   0  0  0  0  0  0  0  0  0  0  0  0
   52.4874   24.4058   43.7353 H   0  0  0  0  0  0  0  0  0  0  0  0
   53.2108   23.4755   47.0478 H   0  0  0  0  0  0  0  0  0  0  0  0
   52.5984   21.7850   46.8709 H   0  0  0  0  0  0  0  0  0  0  0  0
   55.1263   21.9772   46.9879 H   0  0  0  0  0  0  0  0  0  0  0  0
   54.5045   21.1612   45.5126 H   0  0  0  0  0  0  0  0  0  0  0  0
   58.5970   26.5702   46.9595 H   0  0  0  0  0  0  0  0  0  0  0  0
  1  2  1  0
  2  3  2  0
  2  4  2  0
  2  5  1  0
  5  6  1  0
  6  7  2  0
  7  8  1  0
  8  9  2  0
  9 10  1  0
  9 11  1  0
 11 12  1  0
 12 13  2  0
 12 14  1  0
 14 15  1  0
 15 16  2  0
 16 17  1  0
 17 18  2  0
 18 19  1  0
 19 20  1  0
 19 21  2  0
 21 22  1  0
 22 23  1  0
 23 24  1  0
 24 25  1  0
 25 26  1  0
 26 27  1  0
 11 28  2  0
 28  6  1  0
 21 15  1  0
 27 22  1  0
  1 29  1  0
  1 30  1  0
  1 31  1  0
  5 32  1  0
  5 33  1  0
  7 34  1  0
  8 35  1  0
 16 36  1  0
 17 37  1  0
 18 38  1  0
 23 39  1  0
 23 40  1  0
 24 41  1  0
 24 42  1  0
 26 43  1  0
 26 44  1  0
 27 45  1  0
 27 46  1  0
 28 47  1  0
M  CHG  2  10  -1  14  -1
M  END
>  <UniqueID>  (14) 
13

>  <SMILES>  (14) 
CS(=O)(=O)Cc1ccc([O-])c(C(=O)[N-]c2cccc(Cl)c2N2CCOCC2)c1

>  <Energy>  (14) 
52.432206419055284

>  <Genealogy>  (14) 
CS(=O)(=O)Cc1ccc([O-])c(C(=O)[N-]c2cccc(Cl)c2N2CCOCC2)c1 (protonated)
CS(=O)(=O)Cc1ccc([O-])c(C(=O)[N-]c2cccc(Cl)c2N2CCOCC2)c1 (3D coordinates assigned)
CS(=O)(=O)Cc1ccc([O-])c(C(=O)[N-]c2cccc(Cl)c2N2CCOCC2)c1 (nonaromatic ring conformer: 52.432206419055284 kcal/mol)

>  <smiles>  (14) 
CS(=O)(=O)Cc1ccc(O)c(C(=O)Nc2cccc(Cl)c2N2CCOCC2)c1

>  <score_type>  (14) 
oracle

>  <origin>  (14) 
adg

>  <m_score__min__energy>  (14) 
-12.449999999999999

>  <m_primary>  (14) 
energy

$$$$
14:0
     RDKit          3D

 34 36  0  0  0  0  0  0  0  0999 V2000
   54.7510   26.3460   45.9670 O   0  0  0  0  0  0  0  0  0  0  0  0
   55.8690   25.9100   46.3460 C   0  0  0  0  0  0  0  0  0  0  0  0
   55.9260   24.6560   46.9450 O   0  0  0  0  0  0  0  0  0  0  0  0
   57.1060   26.7110   46.1630 C   0  0  0  0  0  0  0  0  0  0  0  0
   57.1240   27.7420   45.2060 C   0  0  0  0  0  0  0  0  0  0  0  0
   58.2700   28.5270   45.0040 C   0  0  0  0  0  0  0  0  0  0  0  0
   58.2370   29.5760   44.0180 N   0  0  0  0  0  0  0  0  0  0  0  0
   57.4390   31.1000   44.2490 S   0  0  0  0  0  0  0  0  0  0  0  0
   57.2970   31.7870   42.9200 O   0  0  0  0  0  0  0  0  0  0  0  0
   56.0710   30.8600   44.8240 O   0  0  0  0  0  0  0  0  0  0  0  0
   58.3580   32.0950   45.3740 C   0  0  0  0  0  0  0  0  0  0  0  0
   57.9360   33.4030   45.6500 C   0  0  0  0  0  0  0  0  0  0  0  0
   58.6480   34.2000   46.5530 C   0  0  0  0  0  0  0  0  0  0  0  0
   59.7900   33.6950   47.1840 C   0  0  0  0  0  0  0  0  0  0  0  0
   60.4830   34.4670   48.0630 N   0  0  0  0  0  0  0  0  0  0  0  0
   61.5960   34.0090   48.6930 C   0  0  0  0  0  0  0  0  0  0  0  0
   62.2110   34.7540   49.5010 O   0  0  0  0  0  0  0  0  0  0  0  0
   62.0590   32.7110   48.4470 C   0  0  0  0  0  0  0  0  0  0  0  0
   61.3690   31.8950   47.5490 C   0  0  0  0  0  0  0  0  0  0  0  0
   60.2230   32.3790   46.9050 C   0  0  0  0  0  0  0  0  0  0  0  0
   59.5050   31.5850   46.0000 C   0  0  0  0  0  0  0  0  0  0  0  0
   59.4210   28.2630   45.7660 C   0  0  0  0  0  0  0  0  0  0  0  0
   59.4160   27.2440   46.7170 C   0  0  0  0  0  0  0  0  0  0  0  0
   58.2720   26.4680   46.9220 C   0  0  0  0  0  0  0  0  0  0  0  0
   58.3110   25.4620   47.8830 O   0  0  0  0  0  0  0  0  0  0  0  0
   56.2235   27.9366   44.6050 H   0  0  0  0  0  0  0  0  0  0  0  0
   58.6440   29.3960   43.0720 H   0  0  0  0  0  0  0  0  0  0  0  0
   57.0402   33.8049   45.1540 H   0  0  0  0  0  0  0  0  0  0  0  0
   58.3096   35.2245   46.7670 H   0  0  0  0  0  0  0  0  0  0  0  0
   62.9590   32.3372   48.9571 H   0  0  0  0  0  0  0  0  0  0  0  0
   61.7245   30.8737   47.3474 H   0  0  0  0  0  0  0  0  0  0  0  0
   59.8414   30.5610   45.7805 H   0  0  0  0  0  0  0  0  0  0  0  0
   60.3298   28.8632   45.6112 H   0  0  0  0  0  0  0  0  0  0  0  0
   60.3207   27.0489   47.3115 H   0  0  0  0  0  0  0  0  0  0  0  0
  1  2  2  0
  2  3  1  0
  2  4  1  0
  4  5  2  0
  5  6  1  0
  6  7  1  0
  7  8  1  0
  8  9  2  0
  8 10  2  0
  8 11  1  0
 11 12  2  0
 12 13  1  0
 13 14  2  0
 14 15  1  0
 15 16  1  0
 16 17  2  0
 16 18  1  0
 18 19  2  0
 19 20  1  0
 20 21  2  0
  6 22  2  0
 22 23  1  0
 23 24  2  0
 24 25  1  0
 24  4  1  0
 21 11  1  0
 20 14  1  0
  5 26  1  0
  7 27  1  0
 12 28  1  0
 13 29  1  0
 18 30  1  0
 19 31  1  0
 21 32  1  0
 22 33  1  0
 23 34  1  0
M  CHG  3   3  -1  15  -1  25  -1
M  END
>  <UniqueID>  (15) 
14

>  <SMILES>  (15) 
O=C([O-])c1cc(NS(=O)(=O)c2ccc3[n-]c(=O)ccc3c2)ccc1[O-]

>  <Energy>  (15) 
45.32865719949602

>  <Genealogy>  (15) 
O=C([O-])c1cc(NS(=O)(=O)c2ccc3[n-]c(=O)ccc3c2)ccc1[O-] (protonated)
O=C([O-])c1cc(NS(=O)(=O)c2ccc3[n-]c(=O)ccc3c2)ccc1[O-] (3D coordinates assigned)
O=C([O-])c1cc(NS(=O)(=O)c2ccc3[n-]c(=O)ccc3c2)ccc1[O-] (optimized conformer: 45.32865719949602 kcal/mol)

>  <smiles>  (15) 
O=C(O)c1cc(NS(=O)(=O)c2ccc3[nH]c(=O)ccc3c2)ccc1O

>  <score_type>  (15) 
oracle

>  <origin>  (15) 
adg

>  <m_score__min__energy>  (15) 
-16.27

>  <m_primary>  (15) 
energy

$$$$
15:0
     RDKit          3D

 48 50  0  0  0  0  0  0  0  0999 V2000
   57.3930   30.6300   43.1260 O   0  0  0  0  0  0  0  0  0  0  0  0
   56.9340   30.3520   44.5290 S   0  0  0  0  0  0  0  0  0  0  0  0
   55.4620   30.0460   44.4960 O   0  0  0  0  0  0  0  0  0  0  0  0
   57.1990   31.7590   45.5200 N   0  0  0  0  0  0  0  0  0  0  0  0
   58.6110   32.1560   45.5400 C   0  0  0  0  0  0  0  0  0  0  0  0
   59.1580   32.1280   46.9680 C   0  0  0  0  0  0  0  0  0  0  0  0
   60.6450   32.3640   46.9870 C   0  0  0  0  0  0  0  0  0  0  0  0
   61.5220   31.3550   47.4220 C   0  0  0  0  0  0  0  0  0  0  0  0
   62.8980   31.5950   47.4780 C   0  0  0  0  0  0  0  0  0  0  0  0
   63.4080   32.8420   47.1070 C   0  0  0  0  0  0  0  0  0  0  0  0
   62.5420   33.8530   46.6790 C   0  0  0  0  0  0  0  0  0  0  0  0
   61.1660   33.6170   46.6200 C   0  0  0  0  0  0  0  0  0  0  0  0
   57.7930   28.9560   45.1800 C   0  0  0  0  0  0  0  0  0  0  0  0
   59.1610   29.0450   45.4590 C   0  0  0  0  0  0  0  0  0  0  0  0
   59.8540   27.9250   45.9280 C   0  0  0  0  0  0  0  0  0  0  0  0
   59.1870   26.7100   46.1040 C   0  0  0  0  0  0  0  0  0  0  0  0
   57.8180   26.6090   45.8150 C   0  0  0  0  0  0  0  0  0  0  0  0
   56.9820   25.0620   45.9790 S   0  0  0  0  0  0  0  0  0  0  0  0
   57.3930   24.4110   47.2700 O   0  0  0  0  0  0  0  0  0  0  0  0
   55.4990   25.3070   46.0320 O   0  0  0  0  0  0  0  0  0  0  0  0
   57.3430   23.9900   44.6450 N   0  0  0  0  0  0  0  0  0  0  0  0
   56.2800   24.0600   43.6260 C   0  0  0  0  0  0  0  0  0  0  0  0
   56.3080   22.8130   42.7270 C   0  0  0  0  0  0  0  0  0  0  0  0
   56.1210   21.5880   43.4250 O   0  0  0  0  0  0  0  0  0  0  0  0
   56.4400   21.6600   44.8080 C   0  0  0  0  0  0  0  0  0  0  0  0
   57.6140   22.6110   45.1080 C   0  0  0  0  0  0  0  0  0  0  0  0
   57.1220   27.7400   45.3680 C   0  0  0  0  0  0  0  0  0  0  0  0
   59.1912   31.4595   44.9169 H   0  0  0  0  0  0  0  0  0  0  0  0
   58.6970   33.1799   45.1474 H   0  0  0  0  0  0  0  0  0  0  0  0
   58.6626   32.9137   47.5573 H   0  0  0  0  0  0  0  0  0  0  0  0
   58.9576   31.1356   47.3980 H   0  0  0  0  0  0  0  0  0  0  0  0
   61.1241   30.3735   47.7193 H   0  0  0  0  0  0  0  0  0  0  0  0
   63.5806   30.8008   47.8147 H   0  0  0  0  0  0  0  0  0  0  0  0
   64.4912   33.0284   47.1517 H   0  0  0  0  0  0  0  0  0  0  0  0
   62.9442   34.8348   46.3886 H   0  0  0  0  0  0  0  0  0  0  0  0
   60.4874   34.4153   46.2849 H   0  0  0  0  0  0  0  0  0  0  0  0
   59.6917   29.9968   45.3093 H   0  0  0  0  0  0  0  0  0  0  0  0
   60.9268   28.0005   46.1590 H   0  0  0  0  0  0  0  0  0  0  0  0
   59.7368   25.8304   46.4701 H   0  0  0  0  0  0  0  0  0  0  0  0
   55.3027   24.1224   44.1270 H   0  0  0  0  0  0  0  0  0  0  0  0
   56.4457   24.9505   43.0018 H   0  0  0  0  0  0  0  0  0  0  0  0
   55.5079   22.9092   41.9782 H   0  0  0  0  0  0  0  0  0  0  0  0
   57.3103   22.7705   42.2758 H   0  0  0  0  0  0  0  0  0  0  0  0
   55.5534   22.0150   45.3539 H   0  0  0  0  0  0  0  0  0  0  0  0
   56.7439   20.6523   45.1277 H   0  0  0  0  0  0  0  0  0  0  0  0
   57.7879   22.6288   46.1940 H   0  0  0  0  0  0  0  0  0  0  0  0
   58.4982   22.2395   44.5693 H   0  0  0  0  0  0  0  0  0  0  0  0
   56.0432   27.6731   45.1636 H   0  0  0  0  0  0  0  0  0  0  0  0
  1  2  2  0
  2  3  2  0
  2  4  1  0
  4  5  1  0
  5  6  1  0
  6  7  1  0
  7  8  2  0
  8  9  1  0
  9 10  2  0
 10 11  1  0
 11 12  2  0
  2 13  1  0
 13 14  2  0
 14 15  1  0
 15 16  2  0
 16 17  1  0
 17 18  1  0
 18 19  2  0
 18 20  2  0
 18 21  1  0
 21 22  1  0
 22 23  1  0
 23 24  1  0
 24 25  1  0
 25 26  1  0
 17 27  2  0
 12  7  1  0
 27 13  1  0
 26 21  1  0
  5 28  1  0
  5 29  1  0
  6 30  1  0
  6 31  1  0
  8 32  1  0
  9 33  1  0
 10 34  1  0
 11 35  1  0
 12 36  1  0
 14 37  1  0
 15 38  1  0
 16 39  1  0
 22 40  1  0
 22 41  1  0
 23 42  1  0
 23 43  1  0
 25 44  1  0
 25 45  1  0
 26 46  1  0
 26 47  1  0
 27 48  1  0
M  CHG  1   4  -1
M  END
>  <UniqueID>  (16) 
15

>  <SMILES>  (16) 
O=S(=O)([N-]CCc1ccccc1)c1cccc(S(=O)(=O)N2CCOCC2)c1

>  <Energy>  (16) 
55.68025420597866

>  <Genealogy>  (16) 
O=S(=O)([N-]CCc1ccccc1)c1cccc(S(=O)(=O)N2CCOCC2)c1 (protonated)
O=S(=O)([N-]CCc1ccccc1)c1cccc(S(=O)(=O)N2CCOCC2)c1 (3D coordinates assigned)
O=S(=O)([N-]CCc1ccccc1)c1cccc(S(=O)(=O)N2CCOCC2)c1 (nonaromatic ring conformer: 55.68025420597866 kcal/mol)

>  <smiles>  (16) 
O=S(=O)(NCCc1ccccc1)c1cccc(S(=O)(=O)N2CCOCC2)c1

>  <score_type>  (16) 
oracle

>  <origin>  (16) 
adg

>  <m_score__min__energy>  (16) 
-11.9

>  <m_primary>  (16) 
energy

$$$$
16:0
     RDKit          3D

 27 28  0  0  0  0  0  0  0  0999 V2000
   59.1900   34.7550   44.8660 C   0  0  0  0  0  0  0  0  0  0  0  0
   58.6540   33.3590   44.9860 C   0  0  0  0  0  0  0  0  0  0  0  0
   57.9980   32.7590   43.9020 C   0  0  0  0  0  0  0  0  0  0  0  0
   57.4640   31.4720   44.0230 C   0  0  0  0  0  0  0  0  0  0  0  0
   57.5730   30.7650   45.2360 C   0  0  0  0  0  0  0  0  0  0  0  0
   57.0100   29.4020   45.3890 C   0  0  0  0  0  0  0  0  0  0  0  0
   55.8610   29.1630   44.9280 O   0  0  0  0  0  0  0  0  0  0  0  0
   57.7530   28.3570   46.0440 N   0  0  0  0  0  0  0  0  0  0  0  0
   57.2290   27.0400   46.2930 C   0  0  0  0  0  0  0  0  0  0  0  0
   55.8950   26.7130   46.0030 C   0  0  0  0  0  0  0  0  0  0  0  0
   55.4220   25.4710   46.2820 N   0  0  0  0  0  0  0  0  0  0  0  0
   56.2210   24.5300   46.8470 C   0  0  0  0  0  0  0  0  0  0  0  0
   55.6270   23.0440   47.1680 S   0  0  0  0  0  0  0  0  0  0  0  0
   57.5090   24.8270   47.1570 N   0  0  0  0  0  0  0  0  0  0  0  0
   58.0250   26.0570   46.9000 C   0  0  0  0  0  0  0  0  0  0  0  0
   59.2240   26.3000   47.2010 O   0  0  0  0  0  0  0  0  0  0  0  0
   58.2030   31.3870   46.3280 C   0  0  0  0  0  0  0  0  0  0  0  0
   58.7370   32.6730   46.2050 C   0  0  0  0  0  0  0  0  0  0  0  0
   59.3507   35.1736   45.8704 H   0  0  0  0  0  0  0  0  0  0  0  0
   60.1446   34.7356   44.3198 H   0  0  0  0  0  0  0  0  0  0  0  0
   58.4677   35.3794   44.3198 H   0  0  0  0  0  0  0  0  0  0  0  0
   57.9027   33.3035   42.9510 H   0  0  0  0  0  0  0  0  0  0  0  0
   56.9553   31.0088   43.1647 H   0  0  0  0  0  0  0  0  0  0  0  0
   58.7410   28.5350   46.3290 H   0  0  0  0  0  0  0  0  0  0  0  0
   55.2318   27.4640   45.5490 H   0  0  0  0  0  0  0  0  0  0  0  0
   58.2765   30.8565   47.2888 H   0  0  0  0  0  0  0  0  0  0  0  0
   59.2245   33.1485   47.0689 H   0  0  0  0  0  0  0  0  0  0  0  0
  1  2  1  0
  2  3  2  0
  3  4  1  0
  4  5  2  0
  5  6  1  0
  6  7  2  0
  6  8  1  0
  8  9  1  0
  9 10  2  0
 10 11  1  0
 11 12  1  0
 12 13  2  0
 12 14  1  0
 14 15  1  0
 15 16  2  0
  5 17  1  0
 17 18  2  0
 18  2  1  0
 15  9  1  0
  1 19  1  0
  1 20  1  0
  1 21  1  0
  3 22  1  0
  4 23  1  0
  8 24  1  0
 10 25  1  0
 17 26  1  0
 18 27  1  0
M  CHG  2  11  -1  14  -1
M  END
>  <UniqueID>  (17) 
16

>  <SMILES>  (17) 
Cc1ccc(C(=O)Nc2c[n-]c(=S)[n-]c2=O)cc1

>  <Energy>  (17) 
35.472773468969564

>  <Genealogy>  (17) 
Cc1ccc(C(=O)Nc2c[n-]c(=S)[n-]c2=O)cc1 (protonated)
Cc1ccc(C(=O)Nc2c[n-]c(=S)[n-]c2=O)cc1 (3D coordinates assigned)
Cc1ccc(C(=O)Nc2c[n-]c(=S)[n-]c2=O)cc1 (optimized conformer: 35.472773468969564 kcal/mol)

>  <smiles>  (17) 
Cc1ccc(C(=O)Nc2c[nH]c(=S)[nH]c2=O)cc1

>  <score_type>  (17) 
oracle

>  <origin>  (17) 
adg

>  <m_score__min__energy>  (17) 
-9.7300000000000004

>  <m_primary>  (17) 
energy

$$$$
17:0
     RDKit          3D

 35 37  0  0  0  0  0  0  0  0999 V2000
   59.2980   35.1440   49.1560 H   0  0  0  0  0  0  0  0  0  0  0  0
   60.1610   34.6160   49.3980 N   0  0  0  0  0  0  0  0  0  0  0  0
   61.0510   34.2020   48.5500 C   0  0  0  0  0  0  0  0  0  0  0  0
   62.3220   34.0110   48.9940 N   0  0  0  0  0  0  0  0  0  0  0  0
   63.3300   33.6510   48.1610 C   0  0  0  0  0  0  0  0  0  0  0  0
   64.3450   33.4918   48.5540 H   0  0  0  0  0  0  0  0  0  0  0  0
   63.0680   33.4850   46.8050 C   0  0  0  0  0  0  0  0  0  0  0  0
   63.8786   33.2179   46.1111 H   0  0  0  0  0  0  0  0  0  0  0  0
   61.8020   33.6560   46.3470 N   0  0  0  0  0  0  0  0  0  0  0  0
   60.7710   33.9930   47.1710 C   0  0  0  0  0  0  0  0  0  0  0  0
   59.4250   34.0970   46.5680 C   0  0  0  0  0  0  0  0  0  0  0  0
   58.6450   34.9990   46.9780 O   0  0  0  0  0  0  0  0  0  0  0  0
   59.0830   33.3330   45.4040 N   0  0  0  0  0  0  0  0  0  0  0  0
   58.4430   32.1970   45.3350 C   0  0  0  0  0  0  0  0  0  0  0  0
   57.6890   31.8260   44.2450 C   0  0  0  0  0  0  0  0  0  0  0  0
   57.5624   32.3648   43.2944 H   0  0  0  0  0  0  0  0  0  0  0  0
   57.1270   30.6190   44.6210 C   0  0  0  0  0  0  0  0  0  0  0  0
   56.2080   29.7850   43.8290 C   0  0  0  0  0  0  0  0  0  0  0  0
   55.1460   29.3620   44.3580 O   0  0  0  0  0  0  0  0  0  0  0  0
   56.4950   29.4430   42.4710 N   0  0  0  0  0  0  0  0  0  0  0  0
   55.8260   28.8510   41.9300 H   0  0  0  0  0  0  0  0  0  0  0  0
   57.3630   29.7710   41.9940 H   0  0  0  0  0  0  0  0  0  0  0  0
   57.5560   30.2790   45.8550 N   0  0  0  0  0  0  0  0  0  0  0  0
   58.3610   31.2360   46.2920 N   0  0  0  0  0  0  0  0  0  0  0  0
   59.1470   31.0630   47.4790 C   0  0  0  0  0  0  0  0  0  0  0  0
   58.6920   31.5860   48.6990 C   0  0  0  0  0  0  0  0  0  0  0  0
   57.7475   32.1485   48.7365 H   0  0  0  0  0  0  0  0  0  0  0  0
   59.4360   31.3940   49.8670 C   0  0  0  0  0  0  0  0  0  0  0  0
   59.0826   31.8169   50.8190 H   0  0  0  0  0  0  0  0  0  0  0  0
   60.6290   30.6650   49.8270 C   0  0  0  0  0  0  0  0  0  0  0  0
   61.2176   30.5220   50.7452 H   0  0  0  0  0  0  0  0  0  0  0  0
   61.0730   30.1180   48.6190 C   0  0  0  0  0  0  0  0  0  0  0  0
   62.0074   29.5384   48.5887 H   0  0  0  0  0  0  0  0  0  0  0  0
   60.3310   30.3070   47.4510 C   0  0  0  0  0  0  0  0  0  0  0  0
   60.6749   29.8623   46.5055 H   0  0  0  0  0  0  0  0  0  0  0  0
  1  2  1  0
  2  3  2  3
  3  4  1  0
  4  5  1  0
  5  6  1  0
  5  7  2  0
  7  8  1  0
  7  9  1  0
  9 10  2  0
 10 11  1  0
 11 12  2  0
 11 13  1  0
 13 14  2  0
 14 15  1  0
 15 16  1  0
 15 17  2  0
 17 18  1  0
 18 19  2  0
 18 20  1  0
 20 21  1  0
 20 22  1  0
 17 23  1  0
 23 24  1  0
 24 25  1  0
 25 26  2  0
 26 27  1  0
 26 28  1  0
 28 29  1  0
 28 30  2  0
 30 31  1  0
 30 32  1  0
 32 33  1  0
 32 34  2  0
 34 35  1  0
 10  3  1  0
 24 14  1  0
 34 25  1  0
M  CHG  2   4  -1  23  -1
M  END
>  <UniqueID>  (18) 
17

>  <SMILES>  (18) 
N=c1[n-]ccnc1C(=O)/N=c1/cc(C(N)=O)[n-]n1-c1ccccc1

>  <Energy>  (18) 
91.0868108831041

>  <Genealogy>  (18) 
N=c1[n-]ccnc1C(=O)N=c1cc(C(N)=O)[n-]n1-c1ccccc1 (protonated)
N=c1[n-]ccnc1C(=O)/N=c1/cc(C(N)=O)[n-]n1-c1ccccc1 (cis-trans isomerization)
N=c1[n-]ccnc1C(=O)/N=c1/cc(C(N)=O)[n-]n1-c1ccccc1 (3D coordinates assigned)
N=c1[n-]ccnc1C(=O)/N=c1/cc(C(N)=O)[n-]n1-c1ccccc1 (optimized conformer: 91.0868108831041 kcal/mol)

>  <smiles>  (18) 
N=c1[nH]ccnc1C(=O)N=c1cc(C(N)=O)[nH]n1-c1ccccc1

>  <score_type>  (18) 
oracle

>  <origin>  (18) 
adg

>  <m_score__min__energy>  (18) 
-10.16

>  <m_primary>  (18) 
energy

$$$$
18:0
     RDKit          3D

 32 33  0  0  0  0  0  0  0  0999 V2000
   55.1420   29.3590   44.8900 N   0  0  0  0  0  0  0  0  0  0  0  0
   56.6570   29.3520   44.0600 S   0  0  0  0  0  0  0  0  0  0  0  0
   57.5790   28.3570   44.7050 O   0  0  0  0  0  0  0  0  0  0  0  0
   56.4410   28.9510   42.6280 O   0  0  0  0  0  0  0  0  0  0  0  0
   57.3720   30.9610   44.1270 C   0  0  0  0  0  0  0  0  0  0  0  0
   57.6460   31.6580   42.9430 C   0  0  0  0  0  0  0  0  0  0  0  0
   58.2360   32.9220   42.9950 C   0  0  0  0  0  0  0  0  0  0  0  0
   58.5560   33.4980   44.2270 C   0  0  0  0  0  0  0  0  0  0  0  0
   58.2820   32.8150   45.4260 C   0  0  0  0  0  0  0  0  0  0  0  0
   58.6360   33.4300   46.7280 C   0  0  0  0  0  0  0  0  0  0  0  0
   57.7810   34.1350   47.3320 O   0  0  0  0  0  0  0  0  0  0  0  0
   59.9300   33.2230   47.3190 N   0  0  0  0  0  0  0  0  0  0  0  0
   60.3960   33.9990   48.4650 C   0  0  0  0  0  0  0  0  0  0  0  0
   61.8110   33.6250   48.7970 C   0  0  0  0  0  0  0  0  0  0  0  0
   62.4510   34.1520   49.9290 C   0  0  0  0  0  0  0  0  0  0  0  0
   63.7780   33.8050   50.1890 C   0  0  0  0  0  0  0  0  0  0  0  0
   64.4540   32.9440   49.3220 C   0  0  0  0  0  0  0  0  0  0  0  0
   63.7880   32.4440   48.2000 C   0  0  0  0  0  0  0  0  0  0  0  0
   62.4960   32.7940   47.9620 N   0  0  0  0  0  0  0  0  0  0  0  0
   57.6980   31.5350   45.3640 C   0  0  0  0  0  0  0  0  0  0  0  0
   55.1940   28.6190   45.6260 H   0  0  0  0  0  0  0  0  0  0  0  0
   57.3958   31.2084   41.9707 H   0  0  0  0  0  0  0  0  0  0  0  0
   58.4496   33.4662   42.0632 H   0  0  0  0  0  0  0  0  0  0  0  0
   59.0254   34.4923   44.2597 H   0  0  0  0  0  0  0  0  0  0  0  0
   60.5490   32.4640   46.9570 H   0  0  0  0  0  0  0  0  0  0  0  0
   60.3499   35.0709   48.2221 H   0  0  0  0  0  0  0  0  0  0  0  0
   59.7531   33.7848   49.3315 H   0  0  0  0  0  0  0  0  0  0  0  0
   61.9123   34.8321   50.6052 H   0  0  0  0  0  0  0  0  0  0  0  0
   64.2900   34.2089   51.0749 H   0  0  0  0  0  0  0  0  0  0  0  0
   65.4988   32.6626   49.5200 H   0  0  0  0  0  0  0  0  0  0  0  0
   64.3098   31.7663   47.5083 H   0  0  0  0  0  0  0  0  0  0  0  0
   57.4961   30.9815   46.2929 H   0  0  0  0  0  0  0  0  0  0  0  0
  1  2  1  0
  2  3  2  0
  2  4  2  0
  2  5  1  0
  5  6  2  0
  6  7  1  0
  7  8  2  0
  8  9  1  0
  9 10  1  0
 10 11  2  0
 10 12  1  0
 12 13  1  0
 13 14  1  0
 14 15  2  0
 15 16  1  0
 16 17  2  0
 17 18  1  0
 18 19  2  0
  9 20  2  0
 20  5  1  0
 19 14  1  0
  1 21  1  0
  6 22  1  0
  7 23  1  0
  8 24  1  0
 12 25  1  0
 13 26  1  0
 13 27  1  0
 15 28  1  0
 16 29  1  0
 17 30  1  0
 18 31  1  0
 20 32  1  0
M  CHG  1   1  -1
M  END
>  <UniqueID>  (19) 
18

>  <SMILES>  (19) 
[NH-]S(=O)(=O)c1cccc(C(=O)NCc2ccccn2)c1

>  <Energy>  (19) 
32.67574751195617

>  <Genealogy>  (19) 
[NH-]S(=O)(=O)c1cccc(C(=O)NCc2ccccn2)c1 (protonated)
[NH-]S(=O)(=O)c1cccc(C(=O)NCc2ccccn2)c1 (3D coordinates assigned)
[NH-]S(=O)(=O)c1cccc(C(=O)NCc2ccccn2)c1 (optimized conformer: 32.67574751195617 kcal/mol)

>  <smiles>  (19) 
NS(=O)(=O)c1cccc(C(=O)NCc2ccccn2)c1

>  <score_type>  (19) 
oracle

>  <origin>  (19) 
adg

>  <m_score__min__energy>  (19) 
-10.33

>  <m_primary>  (19) 
energy

$$$$
19:0
     RDKit          3D

 34 35  0  0  0  0  0  0  0  0999 V2000
   56.2560   29.6940   42.6490 C   0  0  0  0  0  0  0  0  0  0  0  0
   56.2030   29.9820   44.1180 C   0  0  0  0  0  0  0  0  0  0  0  0
   55.3090   29.4280   44.8120 O   0  0  0  0  0  0  0  0  0  0  0  0
   57.2260   30.8360   44.7730 C   0  0  0  0  0  0  0  0  0  0  0  0
   57.3910   32.1590   44.3230 C   0  0  0  0  0  0  0  0  0  0  0  0
   58.3960   32.9730   44.8450 C   0  0  0  0  0  0  0  0  0  0  0  0
   59.2520   32.4880   45.8400 C   0  0  0  0  0  0  0  0  0  0  0  0
   60.3590   33.3520   46.3700 C   0  0  0  0  0  0  0  0  0  0  0  0
   59.1050   31.1720   46.2940 C   0  0  0  0  0  0  0  0  0  0  0  0
   58.0890   30.3410   45.7880 C   0  0  0  0  0  0  0  0  0  0  0  0
   57.9230   28.9940   46.3880 C   0  0  0  0  0  0  0  0  0  0  0  0
   58.1430   28.8270   47.6180 O   0  0  0  0  0  0  0  0  0  0  0  0
   57.5070   27.8880   45.5710 N   0  0  0  0  0  0  0  0  0  0  0  0
   57.6010   26.5100   45.9740 C   0  0  0  0  0  0  0  0  0  0  0  0
   56.5370   25.9270   46.6810 C   0  0  0  0  0  0  0  0  0  0  0  0
   56.5950   24.5830   47.0650 C   0  0  0  0  0  0  0  0  0  0  0  0
   57.7090   23.8070   46.7320 C   0  0  0  0  0  0  0  0  0  0  0  0
   57.7660   22.4720   47.1140 O   0  0  0  0  0  0  0  0  0  0  0  0
   58.7630   24.3740   46.0080 C   0  0  0  0  0  0  0  0  0  0  0  0
   58.7090   25.7160   45.6240 C   0  0  0  0  0  0  0  0  0  0  0  0
   56.4531   28.6232   42.4922 H   0  0  0  0  0  0  0  0  0  0  0  0
   55.2936   29.9611   42.1880 H   0  0  0  0  0  0  0  0  0  0  0  0
   57.0602   30.2862   42.1880 H   0  0  0  0  0  0  0  0  0  0  0  0
   56.7181   32.5566   43.5490 H   0  0  0  0  0  0  0  0  0  0  0  0
   58.5163   34.0011   44.4728 H   0  0  0  0  0  0  0  0  0  0  0  0
   60.3407   33.3377   47.4698 H   0  0  0  0  0  0  0  0  0  0  0  0
   61.3264   32.9677   46.0143 H   0  0  0  0  0  0  0  0  0  0  0  0
   60.2212   34.3837   46.0143 H   0  0  0  0  0  0  0  0  0  0  0  0
   59.7941   30.7820   47.0576 H   0  0  0  0  0  0  0  0  0  0  0  0
   57.0200   28.1030   44.6710 H   0  0  0  0  0  0  0  0  0  0  0  0
   55.6529   26.5305   46.9343 H   0  0  0  0  0  0  0  0  0  0  0  0
   55.7632   24.1364   47.6295 H   0  0  0  0  0  0  0  0  0  0  0  0
   59.6366   23.7615   45.7403 H   0  0  0  0  0  0  0  0  0  0  0  0
   59.5359   26.1540   45.0457 H   0  0  0  0  0  0  0  0  0  0  0  0
  1  2  1  0
  2  3  2  0
  2  4  1  0
  4  5  2  0
  5  6  1  0
  6  7  2  0
  7  8  1  0
  7  9  1  0
  9 10  2  0
 10 11  1  0
 11 12  2  0
 11 13  1  0
 13 14  1  0
 14 15  2  0
 15 16  1  0
 16 17  2  0
 17 18  1  0
 17 19  1  0
 19 20  2  0
 10  4  1  0
 20 14  1  0
  1 21  1  0
  1 22  1  0
  1 23  1  0
  5 24  1  0
  6 25  1  0
  8 26  1  0
  8 27  1  0
  8 28  1  0
  9 29  1  0
 13 30  1  0
 15 31  1  0
 16 32  1  0
 19 33  1  0
 20 34  1  0
M  CHG  1  18  -1
M  END
>  <UniqueID>  (20) 
19

>  <SMILES>  (20) 
CC(=O)c1ccc(C)cc1C(=O)Nc1ccc([O-])cc1

>  <Energy>  (20) 
45.59041256240315

>  <Genealogy>  (20) 
CC(=O)c1ccc(C)cc1C(=O)Nc1ccc([O-])cc1 (protonated)
CC(=O)c1ccc(C)cc1C(=O)Nc1ccc([O-])cc1 (3D coordinates assigned)
CC(=O)c1ccc(C)cc1C(=O)Nc1ccc([O-])cc1 (optimized conformer: 45.59041256240315 kcal/mol)

>  <smiles>  (20) 
CC(=O)c1ccc(C)cc1C(=O)Nc1ccc(O)cc1

>  <score_type>  (20) 
oracle

>  <origin>  (20) 
adg

>  <m_score__min__energy>  (20) 
-9.3200000000000003

>  <m_primary>  (20) 
energy

$$$$
20:0
     RDKit          3D

 31 32  0  0  0  0  0  0  0  0999 V2000
   57.0280   24.5870   45.7230 C   0  0  0  0  0  0  0  0  0  0  0  0
   57.9520   25.7740   45.8110 C   0  0  0  0  0  0  0  0  0  0  0  0
   59.3260   25.5500   45.9790 C   0  0  0  0  0  0  0  0  0  0  0  0
   60.1930   26.5910   46.0450 N   0  0  0  0  0  0  0  0  0  0  0  0
   59.7760   27.8780   45.9630 C   0  0  0  0  0  0  0  0  0  0  0  0
   60.6240   28.8070   46.0260 O   0  0  0  0  0  0  0  0  0  0  0  0
   58.4120   28.1700   45.8130 C   0  0  0  0  0  0  0  0  0  0  0  0
   57.9790   29.5380   45.7950 N   0  0  0  0  0  0  0  0  0  0  0  0
   58.5300   30.5240   46.7210 C   0  0  0  0  0  0  0  0  0  0  0  0
   58.5020   31.8950   46.0920 C   0  0  0  0  0  0  0  0  0  0  0  0
   58.0930   32.0160   44.7530 C   0  0  0  0  0  0  0  0  0  0  0  0
   57.9930   33.2730   44.1520 C   0  0  0  0  0  0  0  0  0  0  0  0
   58.2910   34.4230   44.8830 C   0  0  0  0  0  0  0  0  0  0  0  0
   58.6870   34.3200   46.2170 C   0  0  0  0  0  0  0  0  0  0  0  0
   58.7910   33.0650   46.8310 C   0  0  0  0  0  0  0  0  0  0  0  0
   59.2760   33.0100   48.5230 Cl  0  0  0  0  0  0  0  0  0  0  0  0
   57.4780   27.1090   45.7380 C   0  0  0  0  0  0  0  0  0  0  0  0
   56.0270   27.3980   45.6230 C   0  0  0  0  0  0  0  0  0  0  0  0
   55.1760   26.5440   45.9850 O   0  0  0  0  0  0  0  0  0  0  0  0
   55.5880   28.6080   45.1000 O   0  0  0  0  0  0  0  0  0  0  0  0
   56.7660   24.2504   46.7369 H   0  0  0  0  0  0  0  0  0  0  0  0
   56.1130   24.8737   45.1839 H   0  0  0  0  0  0  0  0  0  0  0  0
   57.5305   23.7704   45.1839 H   0  0  0  0  0  0  0  0  0  0  0  0
   59.7044   24.5201   46.0580 H   0  0  0  0  0  0  0  0  0  0  0  0
   57.1880   29.8130   45.1720 H   0  0  0  0  0  0  0  0  0  0  0  0
   57.9294   30.5337   47.6425 H   0  0  0  0  0  0  0  0  0  0  0  0
   59.5705   30.2561   46.9565 H   0  0  0  0  0  0  0  0  0  0  0  0
   57.8496   31.1134   44.1733 H   0  0  0  0  0  0  0  0  0  0  0  0
   57.6789   33.3561   43.1011 H   0  0  0  0  0  0  0  0  0  0  0  0
   58.2138   35.4119   44.4074 H   0  0  0  0  0  0  0  0  0  0  0  0
   58.9190   35.2298   46.7901 H   0  0  0  0  0  0  0  0  0  0  0  0
  1  2  1  0
  2  3  2  0
  3  4  1  0
  4  5  1  0
  5  6  2  0
  5  7  1  0
  7  8  1  0
  8  9  1  0
  9 10  1  0
 10 11  2  0
 11 12  1  0
 12 13  2  0
 13 14  1  0
 14 15  2  0
 15 16  1  0
  7 17  2  0
 17 18  1  0
 18 19  2  0
 18 20  1  0
 17  2  1  0
 15 10  1  0
  1 21  1  0
  1 22  1  0
  1 23  1  0
  3 24  1  0
  8 25  1  0
  9 26  1  0
  9 27  1  0
 11 28  1  0
 12 29  1  0
 13 30  1  0
 14 31  1  0
M  CHG  2   4  -1  20  -1
M  END
>  <UniqueID>  (21) 
20

>  <SMILES>  (21) 
Cc1c[n-]c(=O)c(NCc2ccccc2Cl)c1C(=O)[O-]

>  <Energy>  (21) 
43.3413619140946

>  <Genealogy>  (21) 
Cc1c[n-]c(=O)c(NCc2ccccc2Cl)c1C(=O)[O-] (protonated)
Cc1c[n-]c(=O)c(NCc2ccccc2Cl)c1C(=O)[O-] (3D coordinates assigned)
Cc1c[n-]c(=O)c(NCc2ccccc2Cl)c1C(=O)[O-] (optimized conformer: 43.3413619140946 kcal/mol)

>  <smiles>  (21) 
Cc1c[nH]c(=O)c(NCc2ccccc2Cl)c1C(=O)O

>  <score_type>  (21) 
oracle

>  <origin>  (21) 
adg

>  <m_score__min__energy>  (21) 
-10.550000000000001

>  <m_primary>  (21) 
energy

$$$$
21:0
     RDKit          3D

 35 36  0  0  0  0  0  0  0  0999 V2000
   60.7490   26.6090   46.3840 C   0  0  0  0  0  0  0  0  0  0  0  0
   59.2530   26.6620   46.1980 C   0  0  0  0  0  0  0  0  0  0  0  0
   58.4890   25.5830   46.6710 C   0  0  0  0  0  0  0  0  0  0  0  0
   57.1000   25.5990   46.5800 C   0  0  0  0  0  0  0  0  0  0  0  0
   56.4440   26.7080   46.0530 C   0  0  0  0  0  0  0  0  0  0  0  0
   55.0520   26.7130   46.0080 O   0  0  0  0  0  0  0  0  0  0  0  0
   57.1780   27.8050   45.5770 C   0  0  0  0  0  0  0  0  0  0  0  0
   56.4550   28.9630   45.1070 C   0  0  0  0  0  0  0  0  0  0  0  0
   55.8740   29.8920   44.7330 N   0  0  0  0  0  0  0  0  0  0  0  0
   58.6000   27.7780   45.5940 C   0  0  0  0  0  0  0  0  0  0  0  0
   59.3620   28.8790   45.0260 N   0  0  0  0  0  0  0  0  0  0  0  0
   59.9940   29.7470   46.0410 C   0  0  0  0  0  0  0  0  0  0  0  0
   59.0030   30.6350   46.8270 C   0  0  0  0  0  0  0  0  0  0  0  0
   58.8630   32.0340   46.2720 C   0  0  0  0  0  0  0  0  0  0  0  0
   59.8270   33.0140   46.5690 C   0  0  0  0  0  0  0  0  0  0  0  0
   59.7110   34.3040   46.0430 C   0  0  0  0  0  0  0  0  0  0  0  0
   58.6210   34.6350   45.2350 C   0  0  0  0  0  0  0  0  0  0  0  0
   57.6360   33.6820   44.9680 C   0  0  0  0  0  0  0  0  0  0  0  0
   57.7470   32.3920   45.4930 C   0  0  0  0  0  0  0  0  0  0  0  0
   60.9848   26.6006   47.4584 H   0  0  0  0  0  0  0  0  0  0  0  0
   61.1447   25.6963   45.9146 H   0  0  0  0  0  0  0  0  0  0  0  0
   61.2083   27.4914   45.9146 H   0  0  0  0  0  0  0  0  0  0  0  0
   58.9942   24.7146   47.1189 H   0  0  0  0  0  0  0  0  0  0  0  0
   56.5184   24.7318   46.9259 H   0  0  0  0  0  0  0  0  0  0  0  0
   58.7890   29.4760   44.3900 H   0  0  0  0  0  0  0  0  0  0  0  0
   60.1170   28.4790   44.4230 H   0  0  0  0  0  0  0  0  0  0  0  0
   60.5258   29.1057   46.7593 H   0  0  0  0  0  0  0  0  0  0  0  0
   60.6644   30.4292   45.4976 H   0  0  0  0  0  0  0  0  0  0  0  0
   58.0143   30.1533   46.8060 H   0  0  0  0  0  0  0  0  0  0  0  0
   59.4023   30.7341   47.8472 H   0  0  0  0  0  0  0  0  0  0  0  0
   60.6780   32.7638   47.2196 H   0  0  0  0  0  0  0  0  0  0  0  0
   60.4791   35.0592   46.2658 H   0  0  0  0  0  0  0  0  0  0  0  0
   58.5385   35.6459   44.8092 H   0  0  0  0  0  0  0  0  0  0  0  0
   56.7707   33.9475   44.3429 H   0  0  0  0  0  0  0  0  0  0  0  0
   56.9574   31.6518   45.2963 H   0  0  0  0  0  0  0  0  0  0  0  0
  1  2  1  0
  2  3  2  0
  3  4  1  0
  4  5  2  0
  5  6  1  0
  5  7  1  0
  7  8  1  0
  8  9  3  0
  7 10  2  0
 10 11  1  0
 11 12  1  0
 12 13  1  0
 13 14  1  0
 14 15  2  0
 15 16  1  0
 16 17  2  0
 17 18  1  0
 18 19  2  0
 10  2  1  0
 19 14  1  0
  1 20  1  0
  1 21  1  0
  1 22  1  0
  3 23  1  0
  4 24  1  0
 11 25  1  0
 11 26  1  0
 12 27  1  0
 12 28  1  0
 13 29  1  0
 13 30  1  0
 15 31  1  0
 16 32  1  0
 17 33  1  0
 18 34  1  0
 19 35  1  0
M  CHG  2   6  -1  11   1
M  END
>  <UniqueID>  (22) 
21

>  <SMILES>  (22) 
Cc1ccc([O-])c(C#N)c1[NH2+]CCc1ccccc1

>  <Energy>  (22) 
38.566333754738835

>  <Genealogy>  (22) 
Cc1ccc([O-])c(C#N)c1[NH2+]CCc1ccccc1 (protonated)
Cc1ccc([O-])c(C#N)c1[NH2+]CCc1ccccc1 (3D coordinates assigned)
Cc1ccc([O-])c(C#N)c1[NH2+]CCc1ccccc1 (optimized conformer: 38.566333754738835 kcal/mol)

>  <smiles>  (22) 
Cc1ccc(O)c(C#N)c1NCCc1ccccc1

>  <score_type>  (22) 
oracle

>  <origin>  (22) 
adg

>  <m_score__min__energy>  (22) 
-9.4800000000000004

>  <m_primary>  (22) 
energy

$$$$
22:0
     RDKit          3D

 42 43  0  0  0  0  0  0  0  0999 V2000
   55.1740   29.4250   44.8750 O   0  0  0  0  0  0  0  0  0  0  0  0
   55.8680   29.7170   43.9140 C   0  0  0  0  0  0  0  0  0  0  0  0
   57.1400   28.9740   43.6420 C   0  0  0  0  0  0  0  0  0  0  0  0
   58.0590   29.0510   44.8310 C   0  0  0  0  0  0  0  0  0  0  0  0
   57.7110   28.4300   46.0370 C   0  0  0  0  0  0  0  0  0  0  0  0
   58.5600   28.5380   47.1400 C   0  0  0  0  0  0  0  0  0  0  0  0
   59.7280   29.2450   47.0530 N   0  0  0  0  0  0  0  0  0  0  0  0
   60.5880   29.3770   48.2340 C   0  0  0  0  0  0  0  0  0  0  0  0
   60.6270   30.8030   48.6790 C   0  0  0  0  0  0  0  0  0  0  0  0
   59.7160   31.2530   49.4260 O   0  0  0  0  0  0  0  0  0  0  0  0
   61.6510   31.6360   48.2200 O   0  0  0  0  0  0  0  0  0  0  0  0
   61.3980   32.8610   47.5410 C   0  0  0  0  0  0  0  0  0  0  0  0
   61.0610   33.9480   48.5630 C   0  0  0  0  0  0  0  0  0  0  0  0
   59.6580   34.5360   48.3530 C   0  0  0  0  0  0  0  0  0  0  0  0
   59.0280   34.0500   47.0720 C   0  0  0  0  0  0  0  0  0  0  0  0
   59.4000   34.6160   45.8420 C   0  0  0  0  0  0  0  0  0  0  0  0
   58.7980   34.1830   44.6560 C   0  0  0  0  0  0  0  0  0  0  0  0
   57.8180   33.1870   44.6910 C   0  0  0  0  0  0  0  0  0  0  0  0
   57.4380   32.6230   45.9120 C   0  0  0  0  0  0  0  0  0  0  0  0
   58.0380   33.0530   47.1000 C   0  0  0  0  0  0  0  0  0  0  0  0
   60.0690   29.8790   45.8900 C   0  0  0  0  0  0  0  0  0  0  0  0
   59.2450   29.7930   44.7660 C   0  0  0  0  0  0  0  0  0  0  0  0
   55.5571   30.5314   43.2431 H   0  0  0  0  0  0  0  0  0  0  0  0
   56.9059   27.9197   43.4329 H   0  0  0  0  0  0  0  0  0  0  0  0
   57.6404   29.4301   42.7751 H   0  0  0  0  0  0  0  0  0  0  0  0
   56.7734   27.8600   46.1148 H   0  0  0  0  0  0  0  0  0  0  0  0
   58.2874   28.0503   48.0875 H   0  0  0  0  0  0  0  0  0  0  0  0
   60.1895   28.7522   49.0469 H   0  0  0  0  0  0  0  0  0  0  0  0
   61.6066   29.0499   47.9782 H   0  0  0  0  0  0  0  0  0  0  0  0
   62.2918   33.1566   46.9720 H   0  0  0  0  0  0  0  0  0  0  0  0
   60.5516   32.7305   46.8507 H   0  0  0  0  0  0  0  0  0  0  0  0
   61.1140   33.5127   49.5718 H   0  0  0  0  0  0  0  0  0  0  0  0
   61.7882   34.7636   48.4365 H   0  0  0  0  0  0  0  0  0  0  0  0
   59.0187   34.2400   49.1978 H   0  0  0  0  0  0  0  0  0  0  0  0
   59.7538   35.6301   48.2909 H   0  0  0  0  0  0  0  0  0  0  0  0
   60.1679   35.4030   45.8110 H   0  0  0  0  0  0  0  0  0  0  0  0
   59.0962   34.6268   43.6947 H   0  0  0  0  0  0  0  0  0  0  0  0
   57.3458   32.8470   43.7575 H   0  0  0  0  0  0  0  0  0  0  0  0
   56.6660   31.8399   45.9387 H   0  0  0  0  0  0  0  0  0  0  0  0
   57.7339   32.6093   48.0595 H   0  0  0  0  0  0  0  0  0  0  0  0
   61.0006   30.4618   45.8397 H   0  0  0  0  0  0  0  0  0  0  0  0
   59.5260   30.3055   43.8341 H   0  0  0  0  0  0  0  0  0  0  0  0
  1  2  2  0
  2  3  1  0
  3  4  1  0
  4  5  2  0
  5  6  1  0
  6  7  2  0
  7  8  1  0
  8  9  1  0
  9 10  2  0
  9 11  1  0
 11 12  1  0
 12 13  1  0
 13 14  1  0
 14 15  1  0
 15 16  2  0
 16 17  1  0
 17 18  2  0
 18 19  1  0
 19 20  2  0
  7 21  1  0
 21 22  2  0
 22  4  1  0
 20 15  1  0
  2 23  1  0
  3 24  1  0
  3 25  1  0
  5 26  1  0
  6 27  1  0
  8 28  1  0
  8 29  1  0
 12 30  1  0
 12 31  1  0
 13 32  1  0
 13 33  1  0
 14 34  1  0
 14 35  1  0
 16 36  1  0
 17 37  1  0
 18 38  1  0
 19 39  1  0
 20 40  1  0
 21 41  1  0
 22 42  1  0
M  CHG  1   7   1
M  END
>  <UniqueID>  (23) 
22

>  <SMILES>  (23) 
O=CCc1cc[n+](CC(=O)OCCCc2ccccc2)cc1

>  <Energy>  (23) 
32.43728448396147

>  <Genealogy>  (23) 
O=CCc1cc[n+](CC(=O)OCCCc2ccccc2)cc1 (3D coordinates assigned)
O=CCc1cc[n+](CC(=O)OCCCc2ccccc2)cc1 (optimized conformer: 32.43728448396147 kcal/mol)

>  <smiles>  (23) 
O=CCc1cc[n+](CC(=O)OCCCc2ccccc2)cc1

>  <score_type>  (23) 
oracle

>  <origin>  (23) 
adg

>  <m_score__min__energy>  (23) 
-5.6100000000000003

>  <m_primary>  (23) 
energy

$$$$
23:0
     RDKit          3D

 44 47  0  0  0  0  0  0  0  0999 V2000
   58.1400   31.9060   50.8300 C   0  0  0  0  0  0  0  0  0  0  0  0
   58.8020   31.3500   49.6980 O   0  0  0  0  0  0  0  0  0  0  0  0
   59.9510   31.8920   49.0960 C   0  0  0  0  0  0  0  0  0  0  0  0
   60.6600   32.9570   49.6880 C   0  0  0  0  0  0  0  0  0  0  0  0
   61.8240   33.4490   49.0980 C   0  0  0  0  0  0  0  0  0  0  0  0
   62.3020   32.8860   47.9130 C   0  0  0  0  0  0  0  0  0  0  0  0
   63.7710   33.5020   47.1790 Cl  0  0  0  0  0  0  0  0  0  0  0  0
   61.6060   31.8350   47.3120 C   0  0  0  0  0  0  0  0  0  0  0  0
   60.4210   31.3400   47.8820 C   0  0  0  0  0  0  0  0  0  0  0  0
   59.7070   30.2350   47.2030 C   0  0  0  0  0  0  0  0  0  0  0  0
   58.5230   30.4640   46.4900 C   0  0  0  0  0  0  0  0  0  0  0  0
   57.8750   29.4060   45.8320 C   0  0  0  0  0  0  0  0  0  0  0  0
   56.6090   29.6960   45.1190 C   0  0  0  0  0  0  0  0  0  0  0  0
   55.6760   28.8510   45.1460 O   0  0  0  0  0  0  0  0  0  0  0  0
   56.3720   30.9630   44.4890 N   0  0  0  0  0  0  0  0  0  0  0  0
   57.1610   32.1510   44.6490 C   0  0  0  0  0  0  0  0  0  0  0  0
   57.0190   32.9960   45.7610 C   0  0  0  0  0  0  0  0  0  0  0  0
   57.8160   34.1350   45.8760 C   0  0  0  0  0  0  0  0  0  0  0  0
   58.7620   34.4120   44.8880 C   0  0  0  0  0  0  0  0  0  0  0  0
   58.9080   33.5710   43.8280 N   0  0  0  0  0  0  0  0  0  0  0  0
   58.1400   32.4540   43.6950 C   0  0  0  0  0  0  0  0  0  0  0  0
   58.4480   28.1110   45.8820 C   0  0  0  0  0  0  0  0  0  0  0  0
   57.8960   27.0050   45.2010 C   0  0  0  0  0  0  0  0  0  0  0  0
   58.5070   25.7500   45.2770 C   0  0  0  0  0  0  0  0  0  0  0  0
   59.6780   25.5810   46.0170 C   0  0  0  0  0  0  0  0  0  0  0  0
   60.2510   26.6690   46.6780 C   0  0  0  0  0  0  0  0  0  0  0  0
   59.6510   27.9300   46.6100 C   0  0  0  0  0  0  0  0  0  0  0  0
   60.2360   28.9840   47.2350 N   0  0  0  0  0  0  0  0  0  0  0  0
   58.6007   31.5190   51.7509 H   0  0  0  0  0  0  0  0  0  0  0  0
   58.2316   33.0019   50.8067 H   0  0  0  0  0  0  0  0  0  0  0  0
   57.0764   31.6264   50.8067 H   0  0  0  0  0  0  0  0  0  0  0  0
   60.2920   33.4038   50.6234 H   0  0  0  0  0  0  0  0  0  0  0  0
   62.3669   34.2827   49.5674 H   0  0  0  0  0  0  0  0  0  0  0  0
   61.9897   31.3898   46.3822 H   0  0  0  0  0  0  0  0  0  0  0  0
   58.0987   31.4779   46.4453 H   0  0  0  0  0  0  0  0  0  0  0  0
   56.2800   32.7602   46.5409 H   0  0  0  0  0  0  0  0  0  0  0  0
   57.6999   34.8088   46.7377 H   0  0  0  0  0  0  0  0  0  0  0  0
   59.3905   35.3114   44.9662 H   0  0  0  0  0  0  0  0  0  0  0  0
   59.6260   33.7850   43.1010 H   0  0  0  0  0  0  0  0  0  0  0  0
   58.2897   31.7865   42.8336 H   0  0  0  0  0  0  0  0  0  0  0  0
   56.9791   27.1313   44.6066 H   0  0  0  0  0  0  0  0  0  0  0  0
   58.0628   24.8919   44.7512 H   0  0  0  0  0  0  0  0  0  0  0  0
   60.1501   24.5894   46.0795 H   0  0  0  0  0  0  0  0  0  0  0  0
   61.1780   26.5336   47.2545 H   0  0  0  0  0  0  0  0  0  0  0  0
  1  2  1  0
  2  3  1  0
  3  4  2  0
  4  5  1  0
  5  6  2  0
  6  7  1  0
  6  8  1  0
  8  9  2  0
  9 10  1  0
 10 11  2  0
 11 12  1  0
 12 13  1  0
 13 14  2  0
 13 15  1  0
 15 16  1  0
 16 17  2  0
 17 18  1  0
 18 19  2  0
 19 20  1  0
 20 21  2  0
 12 22  2  0
 22 23  1  0
 23 24  2  0
 24 25  1  0
 25 26  2  0
 26 27  1  0
 27 28  2  0
  9  3  1  0
 28 10  1  0
 21 16  1  0
 27 22  1  0
  1 29  1  0
  1 30  1  0
  1 31  1  0
  4 32  1  0
  5 33  1  0
  8 34  1  0
 11 35  1  0
 17 36  1  0
 18 37  1  0
 19 38  1  0
 20 39  1  0
 21 40  1  0
 23 41  1  0
 24 42  1  0
 25 43  1  0
 26 44  1  0
M  CHG  2  15  -1  20   1
M  END
>  <UniqueID>  (24) 
23

>  <SMILES>  (24) 
COc1ccc(Cl)cc1-c1cc(C(=O)[N-]c2ccc[nH+]c2)c2ccccc2n1

>  <Energy>  (24) 
66.98951292286988

>  <Genealogy>  (24) 
COc1ccc(Cl)cc1-c1cc(C(=O)[N-]c2ccc[nH+]c2)c2ccccc2n1 (protonated)
COc1ccc(Cl)cc1-c1cc(C(=O)[N-]c2ccc[nH+]c2)c2ccccc2n1 (3D coordinates assigned)
COc1ccc(Cl)cc1-c1cc(C(=O)[N-]c2ccc[nH+]c2)c2ccccc2n1 (optimized conformer: 66.98951292286988 kcal/mol)

>  <smiles>  (24) 
COc1ccc(Cl)cc1-c1cc(C(=O)Nc2cccnc2)c2ccccc2n1

>  <score_type>  (24) 
oracle

>  <origin>  (24) 
adg

>  <m_score__min__energy>  (24) 
-8.5999999999999996

>  <m_primary>  (24) 
energy

$$$$
24:0
     RDKit          3D

 64 67  0  0  0  0  0  0  0  0999 V2000
   51.8850   23.8500   46.0050 O   0  0  0  0  0  0  0  0  0  0  0  0
   52.9150   23.2310   45.6250 C   0  0  0  0  0  0  0  0  0  0  0  0
   53.1480   21.8300   46.0950 C   0  0  0  0  0  0  0  0  0  0  0  0
   54.3700   21.7730   46.9680 C   0  0  0  0  0  0  0  0  0  0  0  0
   54.4950   22.6350   48.0720 C   0  0  0  0  0  0  0  0  0  0  0  0
   55.6280   22.5750   48.8900 C   0  0  0  0  0  0  0  0  0  0  0  0
   56.6430   21.6550   48.6130 C   0  0  0  0  0  0  0  0  0  0  0  0
   56.5180   20.7810   47.5290 C   0  0  0  0  0  0  0  0  0  0  0  0
   55.3850   20.8350   46.7110 C   0  0  0  0  0  0  0  0  0  0  0  0
   53.8850   23.8640   44.7790 N   0  0  0  0  0  0  0  0  0  0  0  0
   55.2290   24.2230   45.1360 C   0  0  0  0  0  0  0  0  0  0  0  0
   56.3090   23.3480   44.9300 C   0  0  0  0  0  0  0  0  0  0  0  0
   57.6040   23.7350   45.2780 C   0  0  0  0  0  0  0  0  0  0  0  0
   57.8350   24.9820   45.8630 C   0  0  0  0  0  0  0  0  0  0  0  0
   59.1150   25.3570   46.1060 F   0  0  0  0  0  0  0  0  0  0  0  0
   56.7550   25.8420   46.1410 C   0  0  0  0  0  0  0  0  0  0  0  0
   56.9400   27.1280   46.7480 N   0  0  0  0  0  0  0  0  0  0  0  0
   58.1800   27.8300   46.9010 C   0  0  0  0  0  0  0  0  0  0  0  0
   58.9380   27.5820   47.8760 O   0  0  0  0  0  0  0  0  0  0  0  0
   58.5710   28.8550   45.8680 C   0  0  2  0  0  0  0  0  0  0  0  0
   60.0040   29.3820   46.0940 C   0  0  0  0  0  0  0  0  0  0  0  0
   60.0240   30.5010   47.1060 C   0  0  0  0  0  0  0  0  0  0  0  0
   61.0020   31.5080   47.0300 C   0  0  0  0  0  0  0  0  0  0  0  0
   61.0670   32.5040   48.0080 C   0  0  0  0  0  0  0  0  0  0  0  0
   60.1600   32.5020   49.0740 C   0  0  0  0  0  0  0  0  0  0  0  0
   59.1830   31.5070   49.1540 C   0  0  0  0  0  0  0  0  0  0  0  0
   59.1120   30.5110   48.1750 C   0  0  0  0  0  0  0  0  0  0  0  0
   57.5940   29.9470   45.8080 N   0  0  0  0  0  0  0  0  0  0  0  0
   56.9660   30.4760   44.6340 C   0  0  0  0  0  0  0  0  0  0  0  0
   55.7160   30.4030   44.4840 O   0  0  0  0  0  0  0  0  0  0  0  0
   57.7660   31.0520   43.6440 O   0  0  0  0  0  0  0  0  0  0  0  0
   57.7520   32.4430   43.3290 C   0  0  0  0  0  0  0  0  0  0  0  0
   58.1020   33.2470   44.5500 C   0  0  0  0  0  0  0  0  0  0  0  0
   57.3180   33.1560   45.7120 C   0  0  0  0  0  0  0  0  0  0  0  0
   57.6880   33.8540   46.8670 C   0  0  0  0  0  0  0  0  0  0  0  0
   58.8410   34.6470   46.8700 C   0  0  0  0  0  0  0  0  0  0  0  0
   59.6300   34.7360   45.7180 C   0  0  0  0  0  0  0  0  0  0  0  0
   59.2680   34.0330   44.5630 C   0  0  0  0  0  0  0  0  0  0  0  0
   55.4590   25.4630   45.7540 C   0  0  0  0  0  0  0  0  0  0  0  0
   54.3900   26.3240   45.9870 O   0  0  0  0  0  0  0  0  0  0  0  0
   52.2743   21.4894   46.6700 H   0  0  0  0  0  0  0  0  0  0  0  0
   53.2995   21.1785   45.2217 H   0  0  0  0  0  0  0  0  0  0  0  0
   53.6979   23.3600   48.2934 H   0  0  0  0  0  0  0  0  0  0  0  0
   55.7202   23.2523   49.7518 H   0  0  0  0  0  0  0  0  0  0  0  0
   57.5404   21.6186   49.2480 H   0  0  0  0  0  0  0  0  0  0  0  0
   57.3123   20.0495   47.3191 H   0  0  0  0  0  0  0  0  0  0  0  0
   55.2877   20.1408   45.8633 H   0  0  0  0  0  0  0  0  0  0  0  0
   56.1331   22.3541   44.4927 H   0  0  0  0  0  0  0  0  0  0  0  0
   58.4474   23.0541   45.0905 H   0  0  0  0  0  0  0  0  0  0  0  0
   58.5676   28.3529   44.8893 H   0  0  0  0  0  0  0  0  0  0  0  0
   60.6353   28.5582   46.4584 H   0  0  0  0  0  0  0  0  0  0  0  0
   60.3851   29.7715   45.1385 H   0  0  0  0  0  0  0  0  0  0  0  0
   61.7197   31.5119   46.1964 H   0  0  0  0  0  0  0  0  0  0  0  0
   61.8324   33.2911   47.9399 H   0  0  0  0  0  0  0  0  0  0  0  0
   60.2165   33.2824   49.8472 H   0  0  0  0  0  0  0  0  0  0  0  0
   58.4674   31.5069   49.9894 H   0  0  0  0  0  0  0  0  0  0  0  0
   58.3386   29.7317   48.2420 H   0  0  0  0  0  0  0  0  0  0  0  0
   58.4872   32.6449   42.5361 H   0  0  0  0  0  0  0  0  0  0  0  0
   56.7466   32.7265   42.9844 H   0  0  0  0  0  0  0  0  0  0  0  0
   56.4106   32.5342   45.7140 H   0  0  0  0  0  0  0  0  0  0  0  0
   57.0711   33.7792   47.7747 H   0  0  0  0  0  0  0  0  0  0  0  0
   59.1267   35.1998   47.7771 H   0  0  0  0  0  0  0  0  0  0  0  0
   60.5363   35.3594   45.7200 H   0  0  0  0  0  0  0  0  0  0  0  0
   59.8973   34.0955   43.6630 H   0  0  0  0  0  0  0  0  0  0  0  0
  1  2  2  0
  2  3  1  0
  3  4  1  0
  4  5  2  0
  5  6  1  0
  6  7  2  0
  7  8  1  0
  8  9  2  0
  2 10  1  0
 10 11  1  0
 11 12  2  0
 12 13  1  0
 13 14  2  0
 14 15  1  0
 14 16  1  0
 16 17  1  0
 17 18  1  0
 18 19  2  0
 18 20  1  0
 20 21  1  0
 21 22  1  0
 22 23  2  0
 23 24  1  0
 24 25  2  0
 25 26  1  0
 26 27  2  0
 20 28  1  0
 28 29  1  0
 29 30  2  0
 29 31  1  0
 31 32  1  0
 32 33  1  0
 33 34  2  0
 34 35  1  0
 35 36  2  0
 36 37  1  0
 37 38  2  0
 16 39  2  0
 39 40  1  0
  9  4  1  0
 39 11  1  0
 27 22  1  0
 38 33  1  0
  3 41  1  0
  3 42  1  0
  5 43  1  0
  6 44  1  0
  7 45  1  0
  8 46  1  0
  9 47  1  0
 12 48  1  0
 13 49  1  0
 20 50  1  6
 21 51  1  0
 21 52  1  0
 23 53  1  0
 24 54  1  0
 25 55  1  0
 26 56  1  0
 27 57  1  0
 32 58  1  0
 32 59  1  0
 34 60  1  0
 35 61  1  0
 36 62  1  0
 37 63  1  0
 38 64  1  0
M  CHG  4  10  -1  17  -1  28  -1  40  -1
M  END
>  <UniqueID>  (25) 
24

>  <SMILES>  (25) 
O=C(Cc1ccccc1)[N-]c1ccc(F)c([N-]C(=O)[C@H](Cc2ccccc2)[N-]C(=O)OCc2ccccc2)c1[O-]

>  <Energy>  (25) 
71.99199348116161

>  <Genealogy>  (25) 
O=C(Cc1ccccc1)[N-]c1ccc(F)c([N-]C(=O)C(Cc2ccccc2)[N-]C(=O)OCc2ccccc2)c1[O-] (protonated)
O=C(Cc1ccccc1)[N-]c1ccc(F)c([N-]C(=O)[C@H](Cc2ccccc2)[N-]C(=O)OCc2ccccc2)c1[O-] (chirality)
O=C(Cc1ccccc1)[N-]c1ccc(F)c([N-]C(=O)[C@H](Cc2ccccc2)[N-]C(=O)OCc2ccccc2)c1[O-] (3D coordinates assigned)
O=C(Cc1ccccc1)[N-]c1ccc(F)c([N-]C(=O)[C@H](Cc2ccccc2)[N-]C(=O)OCc2ccccc2)c1[O-] (optimized conformer: 71.99199348116161 kcal/mol)

>  <smiles>  (25) 
O=C(Cc1ccccc1)Nc1ccc(F)c(NC(=O)C(Cc2ccccc2)NC(=O)OCc2ccccc2)c1O

>  <score_type>  (25) 
oracle

>  <origin>  (25) 
adg

>  <m_score__min__energy>  (25) 
-17.809999999999999

>  <m_primary>  (25) 
energy

$$$$
25:0
     RDKit          3D

 43 45  0  0  0  0  0  0  0  0999 V2000
   59.2410   29.6800   49.3230 N   0  0  0  0  0  0  0  0  0  0  0  0
   58.9290   29.0880   48.3790 C   0  0  0  0  0  0  0  0  0  0  0  0
   58.5380   28.3530   47.2010 C   0  0  0  0  0  0  0  0  0  0  0  0
   58.6780   27.0070   47.2190 N   0  0  0  0  0  0  0  0  0  0  0  0
   58.3480   26.2070   46.1720 C   0  0  0  0  0  0  0  0  0  0  0  0
   58.5580   24.7490   46.3300 C   0  0  0  0  0  0  0  0  0  0  0  0
   59.5070   24.1940   45.7110 O   0  0  0  0  0  0  0  0  0  0  0  0
   57.7180   23.9640   47.1860 N   0  0  0  0  0  0  0  0  0  0  0  0
   56.7650   22.9720   46.7030 C   0  0  0  0  0  0  0  0  0  0  0  0
   55.3220   23.4400   46.9150 C   0  0  0  0  0  0  0  0  0  0  0  0
   54.7180   24.3920   45.5260 S   0  0  0  0  0  0  0  0  0  0  0  0
   54.6640   26.0620   45.9700 N   0  0  0  0  0  0  0  0  0  0  0  0
   55.6370   24.2210   44.3500 O   0  0  0  0  0  0  0  0  0  0  0  0
   53.3360   23.9350   45.1530 O   0  0  0  0  0  0  0  0  0  0  0  0
   57.8410   26.7860   44.9870 C   0  0  0  0  0  0  0  0  0  0  0  0
   57.5510   25.9520   43.9010 O   0  0  0  0  0  0  0  0  0  0  0  0
   57.6580   28.1950   44.9310 C   0  0  0  0  0  0  0  0  0  0  0  0
   57.1140   28.8380   43.7980 C   0  0  0  0  0  0  0  0  0  0  0  0
   56.9580   30.2250   43.7670 C   0  0  0  0  0  0  0  0  0  0  0  0
   57.3440   31.0090   44.8610 C   0  0  0  0  0  0  0  0  0  0  0  0
   57.1870   32.4030   44.8640 O   0  0  0  0  0  0  0  0  0  0  0  0
   58.0010   33.3130   45.5570 C   0  0  0  0  0  0  0  0  0  0  0  0
   58.7990   34.2580   44.8860 C   0  0  0  0  0  0  0  0  0  0  0  0
   59.6090   35.1360   45.6130 C   0  0  0  0  0  0  0  0  0  0  0  0
   59.6380   35.0700   47.0090 C   0  0  0  0  0  0  0  0  0  0  0  0
   58.8620   34.1200   47.6780 C   0  0  0  0  0  0  0  0  0  0  0  0
   58.0510   33.2410   46.9550 C   0  0  0  0  0  0  0  0  0  0  0  0
   57.8530   30.3890   46.0010 C   0  0  0  0  0  0  0  0  0  0  0  0
   58.0200   28.9890   46.0540 C   0  0  0  0  0  0  0  0  0  0  0  0
   56.9339   22.8055   45.6289 H   0  0  0  0  0  0  0  0  0  0  0  0
   56.9155   22.0406   47.2685 H   0  0  0  0  0  0  0  0  0  0  0  0
   54.6782   22.5581   47.0485 H   0  0  0  0  0  0  0  0  0  0  0  0
   55.3005   24.0854   47.8055 H   0  0  0  0  0  0  0  0  0  0  0  0
   53.6570   26.3370   46.0000 H   0  0  0  0  0  0  0  0  0  0  0  0
   56.6270   25.6710   43.6130 H   0  0  0  0  0  0  0  0  0  0  0  0
   56.8089   28.2381   42.9279 H   0  0  0  0  0  0  0  0  0  0  0  0
   56.5283   30.7058   42.8758 H   0  0  0  0  0  0  0  0  0  0  0  0
   58.7856   34.3062   43.7871 H   0  0  0  0  0  0  0  0  0  0  0  0
   60.2243   35.8797   45.0855 H   0  0  0  0  0  0  0  0  0  0  0  0
   60.2710   35.7651   47.5801 H   0  0  0  0  0  0  0  0  0  0  0  0
   58.8895   34.0638   48.7762 H   0  0  0  0  0  0  0  0  0  0  0  0
   57.4491   32.4890   47.4863 H   0  0  0  0  0  0  0  0  0  0  0  0
   58.1287   31.0006   46.8727 H   0  0  0  0  0  0  0  0  0  0  0  0
  1  2  3  0
  2  3  1  0
  3  4  2  0
  4  5  1  0
  5  6  1  0
  6  7  2  0
  6  8  1  0
  8  9  1  0
  9 10  1  0
 10 11  1  0
 11 12  1  0
 11 13  2  0
 11 14  2  0
  5 15  2  0
 15 16  1  0
 15 17  1  0
 17 18  2  0
 18 19  1  0
 19 20  2  0
 20 21  1  0
 21 22  1  0
 22 23  2  0
 23 24  1  0
 24 25  2  0
 25 26  1  0
 26 27  2  0
 20 28  1  0
 28 29  2  0
 29  3  1  0
 29 17  1  0
 27 22  1  0
  9 30  1  0
  9 31  1  0
 10 32  1  0
 10 33  1  0
 12 34  1  0
 16 35  1  0
 18 36  1  0
 19 37  1  0
 23 38  1  0
 24 39  1  0
 25 40  1  0
 26 41  1  0
 27 42  1  0
 28 43  1  0
M  CHG  2   8  -1  12  -1
M  END
>  <UniqueID>  (26) 
25

>  <SMILES>  (26) 
N#Cc1nc(C(=O)[N-]CCS([NH-])(=O)=O)c(O)c2ccc(Oc3ccccc3)cc12

>  <Energy>  (26) 
53.64729625379006

>  <Genealogy>  (26) 
N#Cc1nc(C(=O)[N-]CCS([NH-])(=O)=O)c(O)c2ccc(Oc3ccccc3)cc12 (protonated)
N#Cc1nc(C(=O)[N-]CCS([NH-])(=O)=O)c(O)c2ccc(Oc3ccccc3)cc12 (3D coordinates assigned)
N#Cc1nc(C(=O)[N-]CCS([NH-])(=O)=O)c(O)c2ccc(Oc3ccccc3)cc12 (optimized conformer: 53.64729625379006 kcal/mol)

>  <smiles>  (26) 
N#Cc1nc(C(=O)NCCS(N)(=O)=O)c(O)c2ccc(Oc3ccccc3)cc12

>  <score_type>  (26) 
oracle

>  <origin>  (26) 
adg

>  <m_score__min__energy>  (26) 
-12.25

>  <m_primary>  (26) 
energy

$$$$
26:0
     RDKit          3D

 58 61  0  0  0  0  0  0  0  0999 V2000
   57.0870   32.5800   51.5840 O   0  0  0  0  0  0  0  0  0  0  0  0
   57.6430   31.5080   51.2220 C   0  0  0  0  0  0  0  0  0  0  0  0
   59.0430   31.5410   50.6910 C   0  0  0  0  0  0  0  0  0  0  0  0
   59.0510   31.9420   49.2360 C   0  0  0  0  0  0  0  0  0  0  0  0
   59.2230   33.2900   48.8800 C   0  0  0  0  0  0  0  0  0  0  0  0
   59.2590   33.6650   47.5340 C   0  0  0  0  0  0  0  0  0  0  0  0
   59.1170   32.6990   46.5320 C   0  0  0  0  0  0  0  0  0  0  0  0
   58.9180   31.3540   46.8690 C   0  0  0  0  0  0  0  0  0  0  0  0
   58.7500   30.3990   45.8140 N   0  0  0  0  0  0  0  0  0  0  0  0
   57.7140   30.6150   44.4390 S   0  0  0  0  0  0  0  0  0  0  0  0
   58.4390   31.4010   43.3810 O   0  0  0  0  0  0  0  0  0  0  0  0
   56.4620   31.3440   44.8490 O   0  0  0  0  0  0  0  0  0  0  0  0
   57.2760   29.0190   43.7700 C   0  0  0  0  0  0  0  0  0  0  0  0
   57.6260   27.9290   44.7450 C   0  0  0  0  0  0  0  0  0  0  0  0
   56.6470   27.4000   45.6010 C   0  0  0  0  0  0  0  0  0  0  0  0
   56.9650   26.3540   46.4760 C   0  0  0  0  0  0  0  0  0  0  0  0
   58.2570   25.8210   46.4870 C   0  0  0  0  0  0  0  0  0  0  0  0
   59.2330   26.3340   45.6270 C   0  0  0  0  0  0  0  0  0  0  0  0
   58.9220   27.3840   44.7580 C   0  0  0  0  0  0  0  0  0  0  0  0
   58.8920   30.9770   48.2250 C   0  0  0  0  0  0  0  0  0  0  0  0
   56.9710   30.2500   51.3710 N   0  0  0  0  0  0  0  0  0  0  0  0
   56.2370   29.8410   52.5330 C   0  0  0  0  0  0  0  0  0  0  0  0
   56.6630   28.7000   53.2210 C   0  0  0  0  0  0  0  0  0  0  0  0
   56.0040   28.2880   54.3800 C   0  0  0  0  0  0  0  0  0  0  0  0
   54.8930   28.9930   54.8450 C   0  0  0  0  0  0  0  0  0  0  0  0
   54.4050   30.1010   54.1290 C   0  0  0  0  0  0  0  0  0  0  0  0
   53.2650   30.8400   54.5960 N   0  0  0  0  0  0  0  0  0  0  0  0
   52.0650   31.1240   53.8620 C   0  0  0  0  0  0  0  0  0  0  0  0
   51.6040   32.2970   53.8910 O   0  0  0  0  0  0  0  0  0  0  0  0
   51.3620   30.0670   53.0500 C   0  0  0  0  0  0  0  0  0  0  0  0
   51.3960   30.3960   51.5880 C   0  0  0  0  0  0  0  0  0  0  0  0
   51.7930   29.3100   50.3610 S   0  0  0  0  0  0  0  0  0  0  0  0
   51.5020   30.4430   49.1530 C   0  0  0  0  0  0  0  0  0  0  0  0
   51.6390   30.2180   47.9220 O   0  0  0  0  0  0  0  0  0  0  0  0
   51.0950   31.6350   49.6420 N   0  0  0  0  0  0  0  0  0  0  0  0
   51.0320   31.6060   51.0000 C   0  0  0  0  0  0  0  0  0  0  0  0
   50.6260   32.7130   51.7360 O   0  0  0  0  0  0  0  0  0  0  0  0
   55.0870   30.5330   52.9710 C   0  0  0  0  0  0  0  0  0  0  0  0
   54.6150   31.6200   52.2330 O   0  0  0  0  0  0  0  0  0  0  0  0
   59.6318   32.2681   51.2694 H   0  0  0  0  0  0  0  0  0  0  0  0
   59.4808   30.5362   50.7839 H   0  0  0  0  0  0  0  0  0  0  0  0
   59.3298   34.0540   49.6642 H   0  0  0  0  0  0  0  0  0  0  0  0
   59.3992   34.7216   47.2620 H   0  0  0  0  0  0  0  0  0  0  0  0
   59.1619   32.9972   45.4741 H   0  0  0  0  0  0  0  0  0  0  0  0
   56.1945   28.9937   43.5707 H   0  0  0  0  0  0  0  0  0  0  0  0
   57.8357   28.8569   42.8370 H   0  0  0  0  0  0  0  0  0  0  0  0
   55.6259   27.8089   45.5843 H   0  0  0  0  0  0  0  0  0  0  0  0
   56.1982   25.9519   47.1545 H   0  0  0  0  0  0  0  0  0  0  0  0
   58.5062   24.9976   47.1725 H   0  0  0  0  0  0  0  0  0  0  0  0
   60.2481   25.9103   45.6343 H   0  0  0  0  0  0  0  0  0  0  0  0
   59.6927   27.7846   44.0831 H   0  0  0  0  0  0  0  0  0  0  0  0
   58.7464   29.9208   48.4958 H   0  0  0  0  0  0  0  0  0  0  0  0
   57.5222   28.1243   52.8464 H   0  0  0  0  0  0  0  0  0  0  0  0
   56.3615   27.4044   54.9290 H   0  0  0  0  0  0  0  0  0  0  0  0
   54.3967   28.6808   55.7757 H   0  0  0  0  0  0  0  0  0  0  0  0
   51.8600   29.0996   53.2119 H   0  0  0  0  0  0  0  0  0  0  0  0
   50.3114   30.0207   53.3727 H   0  0  0  0  0  0  0  0  0  0  0  0
   55.0560   31.9290   51.3740 H   0  0  0  0  0  0  0  0  0  0  0  0
  1  2  2  0
  2  3  1  0
  3  4  1  0
  4  5  2  0
  5  6  1  0
  6  7  2  0
  7  8  1  0
  8  9  1  0
  9 10  1  0
 10 11  2  0
 10 12  2  0
 10 13  1  0
 13 14  1  0
 14 15  2  0
 15 16  1  0
 16 17  2  0
 17 18  1  0
 18 19  2  0
  8 20  2  0
  2 21  1  0
 21 22  1  0
 22 23  2  0
 23 24  1  0
 24 25  2  0
 25 26  1  0
 26 27  1  0
 27 28  1  0
 28 29  2  0
 28 30  1  0
 30 31  1  0
 31 32  1  0
 32 33  1  0
 33 34  2  0
 33 35  1  0
 35 36  1  0
 36 37  1  0
 26 38  2  0
 38 39  1  0
 20  4  1  0
 38 22  1  0
 19 14  1  0
 36 31  2  0
  3 40  1  0
  3 41  1  0
  5 42  1  0
  6 43  1  0
  7 44  1  0
 13 45  1  0
 13 46  1  0
 15 47  1  0
 16 48  1  0
 17 49  1  0
 18 50  1  0
 19 51  1  0
 20 52  1  0
 23 53  1  0
 24 54  1  0
 25 55  1  0
 30 56  1  0
 30 57  1  0
 39 58  1  0
M  CHG  5   9  -1  21  -1  27  -1  35  -1  37  -1
M  END
>  <UniqueID>  (27) 
26

>  <SMILES>  (27) 
O=C(Cc1cccc([N-]S(=O)(=O)Cc2ccccc2)c1)[N-]c1cccc([N-]C(=O)Cc2sc(=O)[n-]c2[O-])c1O

>  <Energy>  (27) 
100.74396636773037

>  <Genealogy>  (27) 
O=C(Cc1cccc([N-]S(=O)(=O)Cc2ccccc2)c1)[N-]c1cccc([N-]C(=O)Cc2sc(=O)[n-]c2[O-])c1O (protonated)
O=C(Cc1cccc([N-]S(=O)(=O)Cc2ccccc2)c1)[N-]c1cccc([N-]C(=O)Cc2sc(=O)[n-]c2[O-])c1O (3D coordinates assigned)
O=C(Cc1cccc([N-]S(=O)(=O)Cc2ccccc2)c1)[N-]c1cccc([N-]C(=O)Cc2sc(=O)[n-]c2[O-])c1O (optimized conformer: 100.74396636773037 kcal/mol)

>  <smiles>  (27) 
O=C(Cc1cccc(NS(=O)(=O)Cc2ccccc2)c1)Nc1cccc(NC(=O)Cc2sc(=O)[nH]c2O)c1O

>  <score_type>  (27) 
oracle

>  <origin>  (27) 
adg

>  <m_score__min__energy>  (27) 
-21.109999999999999

>  <m_primary>  (27) 
energy

$$$$
27:0
     RDKit          3D

 42 44  0  0  0  0  0  0  0  0999 V2000
   55.8540   24.0830   44.3260 C   0  0  0  0  0  0  0  0  0  0  0  0
   54.8300   24.6840   45.6530 S   0  0  0  0  0  0  0  0  0  0  0  0
   55.1740   23.9330   46.9070 O   0  0  0  0  0  0  0  0  0  0  0  0
   53.3770   24.4580   45.3390 O   0  0  0  0  0  0  0  0  0  0  0  0
   55.1250   26.3730   45.9160 N   0  0  0  0  0  0  0  0  0  0  0  0
   56.4060   27.0180   45.8830 C   0  0  0  0  0  0  0  0  0  0  0  0
   57.5780   26.3770   46.3230 C   0  0  0  0  0  0  0  0  0  0  0  0
   58.8060   27.0390   46.2740 C   0  0  0  0  0  0  0  0  0  0  0  0
   58.8820   28.3390   45.7740 C   0  0  0  0  0  0  0  0  0  0  0  0
   57.7280   28.9900   45.3110 C   0  0  0  0  0  0  0  0  0  0  0  0
   57.8280   30.3730   44.7890 C   0  0  0  0  0  0  0  0  0  0  0  0
   57.6220   30.5950   43.4150 C   0  0  0  0  0  0  0  0  0  0  0  0
   57.6000   31.8940   42.9000 C   0  0  0  0  0  0  0  0  0  0  0  0
   57.3340   32.1520   41.1840 Cl  0  0  0  0  0  0  0  0  0  0  0  0
   57.7640   32.9850   43.7530 C   0  0  0  0  0  0  0  0  0  0  0  0
   57.9710   32.7810   45.1170 C   0  0  0  0  0  0  0  0  0  0  0  0
   58.0330   31.4840   45.6430 C   0  0  0  0  0  0  0  0  0  0  0  0
   58.3130   31.3390   47.0410 N   0  0  0  0  0  0  0  0  0  0  0  0
   59.0890   32.5460   48.0170 S   0  0  0  0  0  0  0  0  0  0  0  0
   58.4740   33.8840   47.7200 O   0  0  0  0  0  0  0  0  0  0  0  0
   58.8740   32.2210   49.4690 O   0  0  0  0  0  0  0  0  0  0  0  0
   60.8150   32.6440   47.6700 C   0  0  0  0  0  0  0  0  0  0  0  0
   61.3430   33.7590   47.0090 C   0  0  0  0  0  0  0  0  0  0  0  0
   62.7090   33.8240   46.7330 C   0  0  0  0  0  0  0  0  0  0  0  0
   63.5390   32.7760   47.1390 C   0  0  0  0  0  0  0  0  0  0  0  0
   63.0160   31.7090   47.7970 N   0  0  0  0  0  0  0  0  0  0  0  0
   61.6860   31.6220   48.0720 C   0  0  0  0  0  0  0  0  0  0  0  0
   56.4860   28.3290   45.3850 C   0  0  0  0  0  0  0  0  0  0  0  0
   55.3270   28.9650   44.9470 O   0  0  0  0  0  0  0  0  0  0  0  0
   56.7314   23.5680   44.7443 H   0  0  0  0  0  0  0  0  0  0  0  0
   55.2770   23.3803   43.7070 H   0  0  0  0  0  0  0  0  0  0  0  0
   56.1862   24.9294   43.7070 H   0  0  0  0  0  0  0  0  0  0  0  0
   57.5267   25.3479   46.7080 H   0  0  0  0  0  0  0  0  0  0  0  0
   59.7160   26.5342   46.6306 H   0  0  0  0  0  0  0  0  0  0  0  0
   59.8519   28.8569   45.7424 H   0  0  0  0  0  0  0  0  0  0  0  0
   57.4770   29.7385   42.7402 H   0  0  0  0  0  0  0  0  0  0  0  0
   57.7300   34.0077   43.3495 H   0  0  0  0  0  0  0  0  0  0  0  0
   58.0867   33.6465   45.7860 H   0  0  0  0  0  0  0  0  0  0  0  0
   60.6810   34.5840   46.7071 H   0  0  0  0  0  0  0  0  0  0  0  0
   63.1281   34.6911   46.2014 H   0  0  0  0  0  0  0  0  0  0  0  0
   64.6174   32.8150   46.9255 H   0  0  0  0  0  0  0  0  0  0  0  0
   61.2935   30.7473   48.6112 H   0  0  0  0  0  0  0  0  0  0  0  0
  1  2  1  0
  2  3  2  0
  2  4  2  0
  2  5  1  0
  5  6  1  0
  6  7  2  0
  7  8  1  0
  8  9  2  0
  9 10  1  0
 10 11  1  0
 11 12  2  0
 12 13  1  0
 13 14  1  0
 13 15  2  0
 15 16  1  0
 16 17  2  0
 17 18  1  0
 18 19  1  0
 19 20  2  0
 19 21  2  0
 19 22  1  0
 22 23  2  0
 23 24  1  0
 24 25  2  0
 25 26  1  0
 26 27  2  0
 10 28  2  0
 28 29  1  0
 28  6  1  0
 17 11  1  0
 27 22  1  0
  1 30  1  0
  1 31  1  0
  1 32  1  0
  7 33  1  0
  8 34  1  0
  9 35  1  0
 12 36  1  0
 15 37  1  0
 16 38  1  0
 23 39  1  0
 24 40  1  0
 25 41  1  0
 27 42  1  0
M  CHG  3   5  -1  18  -1  29  -1
M  END
>  <UniqueID>  (28) 
27

>  <SMILES>  (28) 
CS(=O)(=O)[N-]c1cccc(-c2cc(Cl)ccc2[N-]S(=O)(=O)c2cccnc2)c1[O-]

>  <Energy>  (28) 
58.13747322650022

>  <Genealogy>  (28) 
CS(=O)(=O)[N-]c1cccc(-c2cc(Cl)ccc2[N-]S(=O)(=O)c2cccnc2)c1[O-] (protonated)
CS(=O)(=O)[N-]c1cccc(-c2cc(Cl)ccc2[N-]S(=O)(=O)c2cccnc2)c1[O-] (3D coordinates assigned)
CS(=O)(=O)[N-]c1cccc(-c2cc(Cl)ccc2[N-]S(=O)(=O)c2cccnc2)c1[O-] (optimized conformer: 58.13747322650022 kcal/mol)

>  <smiles>  (28) 
CS(=O)(=O)Nc1cccc(-c2cc(Cl)ccc2NS(=O)(=O)c2cccnc2)c1O

>  <score_type>  (28) 
oracle

>  <origin>  (28) 
adg

>  <m_score__min__energy>  (28) 
-16.809999999999999

>  <m_primary>  (28) 
energy

$$$$
28:0
     RDKit          3D

 22 24  0  0  0  0  0  0  0  0999 V2000
   54.9340   31.6841   51.1376 H   0  0  0  0  0  0  0  0  0  0  0  0
   54.9750   30.7600   51.7330 C   0  0  0  0  0  0  0  0  0  0  0  0
   56.0680   30.0990   51.9680 N   0  0  0  0  0  0  0  0  0  0  0  0
   55.6920   28.9960   52.7830 C   0  0  0  0  0  0  0  0  0  0  0  0
   56.5520   28.1060   53.3410 N   0  0  0  0  0  0  0  0  0  0  0  0
   56.0760   27.1570   54.1980 C   0  0  0  0  0  0  0  0  0  0  0  0
   57.2820   25.8970   54.9710 Br  0  0  0  0  0  0  0  0  0  0  0  0
   54.7080   27.1250   54.5390 C   0  0  0  0  0  0  0  0  0  0  0  0
   54.3315   26.3662   55.2407 H   0  0  0  0  0  0  0  0  0  0  0  0
   53.8280   28.0660   53.9790 C   0  0  0  0  0  0  0  0  0  0  0  0
   52.7639   28.0850   54.2571 H   0  0  0  0  0  0  0  0  0  0  0  0
   54.3490   28.9760   53.0580 C   0  0  0  0  0  0  0  0  0  0  0  0
   53.7970   30.1320   52.3540 C   0  0  0  0  0  0  0  0  0  0  0  0
   52.5410   30.5820   52.2530 C   0  0  0  0  0  0  0  0  0  0  0  0
   51.9458   30.6552   53.1752 H   0  0  0  0  0  0  0  0  0  0  0  0
   51.9040   30.9850   50.9910 C   0  0  0  0  0  0  0  0  0  0  0  0
   51.7850   30.1730   49.9260 N   0  0  0  0  0  0  0  0  0  0  0  0
   51.0400   30.8990   49.0630 C   0  0  0  0  0  0  0  0  0  0  0  0
   50.7230   30.4760   47.9210 O   0  0  0  0  0  0  0  0  0  0  0  0
   50.6530   32.1070   49.5240 N   0  0  0  0  0  0  0  0  0  0  0  0
   51.1950   32.1400   50.7520 C   0  0  0  0  0  0  0  0  0  0  0  0
   51.0200   33.1900   51.6440 O   0  0  0  0  0  0  0  0  0  0  0  0
  1  2  1  0
  2  3  2  0
  3  4  1  0
  4  5  2  0
  5  6  1  0
  6  7  1  0
  6  8  2  0
  8  9  1  0
  8 10  1  0
 10 11  1  0
 10 12  2  0
 12 13  1  0
 13 14  2  0
 14 15  1  0
 14 16  1  0
 16 17  1  0
 17 18  1  0
 18 19  2  0
 18 20  1  0
 20 21  1  0
 21 22  1  0
 13  2  1  0
 21 16  2  0
 12  4  1  0
M  CHG  3  17  -1  20  -1  22  -1
M  END
>  <UniqueID>  (29) 
28

>  <SMILES>  (29) 
O=c1[n-]c([O-])c(/C=C2/C=Nc3nc(Br)ccc32)[n-]1

>  <Energy>  (29) 
93.93634849309983

>  <Genealogy>  (29) 
O=c1[n-]c([O-])c(C=C2C=Nc3nc(Br)ccc32)[n-]1 (protonated)
O=c1[n-]c([O-])c(/C=C2/C=Nc3nc(Br)ccc32)[n-]1 (cis-trans isomerization)
O=c1[n-]c([O-])c(/C=C2/C=Nc3nc(Br)ccc32)[n-]1 (3D coordinates assigned)
O=c1[n-]c([O-])c(/C=C2/C=Nc3nc(Br)ccc32)[n-]1 (nonaromatic ring conformer: 93.93634849309983 kcal/mol)

>  <smiles>  (29) 
O=c1[nH]c(O)c(C=C2C=Nc3nc(Br)ccc32)[nH]1

>  <score_type>  (29) 
oracle

>  <origin>  (29) 
adg

>  <m_score__min__energy>  (29) 
-15.82

>  <m_primary>  (29) 
energy

$$$$
29:0
     RDKit          3D

 68 71  0  0  0  0  0  0  0  0999 V2000
   60.5550   29.1680   52.7340 C   0  0  0  0  0  0  0  0  0  0  0  0
   59.1410   28.6060   52.8420 C   0  0  0  0  0  0  0  0  0  0  0  0
   58.2670   29.5500   53.4620 O   0  0  0  0  0  0  0  0  0  0  0  0
   56.9250   29.7820   53.1100 C   0  0  0  0  0  0  0  0  0  0  0  0
   55.8580   29.1130   53.7460 C   0  0  0  0  0  0  0  0  0  0  0  0
   54.5410   29.3320   53.3350 C   0  0  0  0  0  0  0  0  0  0  0  0
   54.2710   30.2090   52.2850 C   0  0  0  0  0  0  0  0  0  0  0  0
   55.3170   30.8780   51.6480 C   0  0  0  0  0  0  0  0  0  0  0  0
   56.6420   30.6900   52.0680 C   0  0  0  0  0  0  0  0  0  0  0  0
   57.6900   31.4020   51.3940 N   0  0  0  0  0  0  0  0  0  0  0  0
   58.4520   30.8390   50.3130 C   0  0  0  0  0  0  0  0  0  0  0  0
   58.1830   29.6850   49.8790 O   0  0  0  0  0  0  0  0  0  0  0  0
   59.5550   31.6460   49.6680 C   0  0  0  0  0  0  0  0  0  0  0  0
   59.7440   33.0160   50.3560 C   0  0  0  0  0  0  0  0  0  0  0  0
   61.1280   33.6460   50.0780 C   0  0  0  0  0  0  0  0  0  0  0  0
   61.7960   33.0940   48.8860 N   0  0  0  0  0  0  0  0  0  0  0  0
   61.1110   33.6960   47.3830 S   0  0  0  0  0  0  0  0  0  0  0  0
   60.3480   34.9750   47.5950 O   0  0  0  0  0  0  0  0  0  0  0  0
   62.1800   33.9540   46.3580 O   0  0  0  0  0  0  0  0  0  0  0  0
   60.0150   32.4730   46.7520 C   0  0  0  0  0  0  0  0  0  0  0  0
   58.6550   32.7780   46.5370 C   0  0  0  0  0  0  0  0  0  0  0  0
   57.7800   31.8050   46.0270 C   0  0  0  0  0  0  0  0  0  0  0  0
   58.2900   30.5340   45.7320 C   0  0  0  0  0  0  0  0  0  0  0  0
   59.5990   30.2270   45.9830 C   0  0  0  0  0  0  0  0  0  0  0  0
   60.4890   31.1770   46.4840 C   0  0  0  0  0  0  0  0  0  0  0  0
   59.8810   28.8120   45.6320 C   0  0  0  0  0  0  0  0  0  0  0  0
   58.4810   28.2540   45.2480 C   0  0  1  0  0  0  0  0  0  0  0  0
   58.0020   27.2310   46.2860 C   0  0  0  0  0  0  0  0  0  0  0  0
   57.5760   29.4170   45.2110 N   0  0  0  0  0  0  0  0  0  0  0  0
   56.4030   29.5150   44.3730 C   0  0  0  0  0  0  0  0  0  0  0  0
   55.2550   29.3570   44.8730 O   0  0  0  0  0  0  0  0  0  0  0  0
   56.5000   29.7840   42.8980 C   0  0  0  0  0  0  0  0  0  0  0  0
   57.0690   31.1740   42.6420 C   0  0  0  0  0  0  0  0  0  0  0  0
   61.9890   31.6260   48.9360 C   0  0  0  0  0  0  0  0  0  0  0  0
   60.8670   30.8620   49.6720 C   0  0  0  0  0  0  0  0  0  0  0  0
   60.9631   29.3302   53.7425 H   0  0  0  0  0  0  0  0  0  0  0  0
   61.1925   28.4549   52.1908 H   0  0  0  0  0  0  0  0  0  0  0  0
   60.5290   30.1242   52.1908 H   0  0  0  0  0  0  0  0  0  0  0  0
   58.7664   28.3755   51.8338 H   0  0  0  0  0  0  0  0  0  0  0  0
   59.1695   27.6945   53.4570 H   0  0  0  0  0  0  0  0  0  0  0  0
   56.0644   28.4147   54.5705 H   0  0  0  0  0  0  0  0  0  0  0  0
   53.7147   28.8112   53.8410 H   0  0  0  0  0  0  0  0  0  0  0  0
   53.2334   30.3735   51.9588 H   0  0  0  0  0  0  0  0  0  0  0  0
   55.1008   31.5576   50.8105 H   0  0  0  0  0  0  0  0  0  0  0  0
   58.0280   32.2920   51.8270 H   0  0  0  0  0  0  0  0  0  0  0  0
   59.2563   31.8365   48.6266 H   0  0  0  0  0  0  0  0  0  0  0  0
   58.9665   33.7024   49.9896 H   0  0  0  0  0  0  0  0  0  0  0  0
   59.6692   32.8522   51.4412 H   0  0  0  0  0  0  0  0  0  0  0  0
   60.9952   34.7283   49.9329 H   0  0  0  0  0  0  0  0  0  0  0  0
   61.7677   33.4166   50.9429 H   0  0  0  0  0  0  0  0  0  0  0  0
   58.2771   33.7844   46.7702 H   0  0  0  0  0  0  0  0  0  0  0  0
   56.7171   32.0359   45.8627 H   0  0  0  0  0  0  0  0  0  0  0  0
   61.5422   30.9169   46.6660 H   0  0  0  0  0  0  0  0  0  0  0  0
   60.5775   28.7477   44.7830 H   0  0  0  0  0  0  0  0  0  0  0  0
   60.3586   28.2522   46.4496 H   0  0  0  0  0  0  0  0  0  0  0  0
   58.5091   27.7351   44.2785 H   0  0  0  0  0  0  0  0  0  0  0  0
   58.1851   27.6220   47.2977 H   0  0  0  0  0  0  0  0  0  0  0  0
   56.9253   27.0496   46.1523 H   0  0  0  0  0  0  0  0  0  0  0  0
   58.5521   26.2879   46.1523 H   0  0  0  0  0  0  0  0  0  0  0  0
   57.1583   29.0334   42.4363 H   0  0  0  0  0  0  0  0  0  0  0  0
   55.4923   29.7275   42.4605 H   0  0  0  0  0  0  0  0  0  0  0  0
   57.2719   31.6698   43.6027 H   0  0  0  0  0  0  0  0  0  0  0  0
   58.0041   31.0876   42.0692 H   0  0  0  0  0  0  0  0  0  0  0  0
   56.3417   31.7681   42.0692 H   0  0  0  0  0  0  0  0  0  0  0  0
   62.0417   31.2502   47.9035 H   0  0  0  0  0  0  0  0  0  0  0  0
   62.9148   31.4493   49.5032 H   0  0  0  0  0  0  0  0  0  0  0  0
   60.7065   29.8953   49.1724 H   0  0  0  0  0  0  0  0  0  0  0  0
   61.1779   30.7177   50.7172 H   0  0  0  0  0  0  0  0  0  0  0  0
  1  2  1  0
  2  3  1  0
  3  4  1  0
  4  5  2  0
  5  6  1  0
  6  7  2  0
  7  8  1  0
  8  9  2  0
  9 10  1  0
 10 11  1  0
 11 12  2  0
 11 13  1  0
 13 14  1  0
 14 15  1  0
 15 16  1  0
 16 17  1  0
 17 18  2  0
 17 19  2  0
 17 20  1  0
 20 21  2  0
 21 22  1  0
 22 23  2  0
 23 24  1  0
 24 25  2  0
 24 26  1  0
 26 27  1  0
 27 28  1  0
 27 29  1  0
 29 30  1  0
 30 31  2  0
 30 32  1  0
 32 33  1  0
 16 34  1  0
 34 35  1  0
  9  4  1  0
 35 13  1  0
 25 20  1  0
 29 23  1  0
  1 36  1  0
  1 37  1  0
  1 38  1  0
  2 39  1  0
  2 40  1  0
  5 41  1  0
  6 42  1  0
  7 43  1  0
  8 44  1  0
 10 45  1  0
 13 46  1  0
 14 47  1  0
 14 48  1  0
 15 49  1  0
 15 50  1  0
 21 51  1  0
 22 52  1  0
 25 53  1  0
 26 54  1  0
 26 55  1  0
 27 56  1  6
 28 57  1  0
 28 58  1  0
 28 59  1  0
 32 60  1  0
 32 61  1  0
 33 62  1  0
 33 63  1  0
 33 64  1  0
 34 65  1  0
 34 66  1  0
 35 67  1  0
 35 68  1  0
M  END
>  <UniqueID>  (30) 
29

>  <SMILES>  (30) 
CCOc1ccccc1NC(=O)C1CCN(S(=O)(=O)c2ccc3c(c2)C[C@@H](C)N3C(=O)CC)CC1

>  <Energy>  (30) 
96.33882891262192

>  <Genealogy>  (30) 
CCOc1ccccc1NC(=O)C1CCN(S(=O)(=O)c2ccc3c(c2)C[C@@H](C)N3C(=O)CC)CC1 (chirality)
CCOc1ccccc1NC(=O)C1CCN(S(=O)(=O)c2ccc3c(c2)C[C@@H](C)N3C(=O)CC)CC1 (3D coordinates assigned)
CCOc1ccccc1NC(=O)C1CCN(S(=O)(=O)c2ccc3c(c2)C[C@@H](C)N3C(=O)CC)CC1 (nonaromatic ring conformer: 96.33882891262192 kcal/mol)

>  <smiles>  (30) 
CCOc1ccccc1NC(=O)C1CCN(S(=O)(=O)c2ccc3c(c2)CC(C)N3C(=O)CC)CC1

>  <score_type>  (30) 
oracle

>  <origin>  (30) 
adg

>  <m_score__min__energy>  (30) 
-9.4800000000000004

>  <m_primary>  (30) 
energy

$$$$
30:0
     RDKit          3D

 47 48  0  0  0  0  0  0  0  0999 V2000
   64.0140   32.7630   48.4890 C   0  0  0  0  0  0  0  0  0  0  0  0
   63.2870   33.3590   47.4170 O   0  0  0  0  0  0  0  0  0  0  0  0
   61.9380   33.7360   47.4880 C   0  0  0  0  0  0  0  0  0  0  0  0
   61.3710   33.9330   48.7530 C   0  0  0  0  0  0  0  0  0  0  0  0
   60.0320   34.3120   48.8760 C   0  0  0  0  0  0  0  0  0  0  0  0
   59.2440   34.4890   47.7360 C   0  0  0  0  0  0  0  0  0  0  0  0
   59.7910   34.2770   46.4590 C   0  0  0  0  0  0  0  0  0  0  0  0
   59.0240   34.4750   45.2630 N   0  0  0  0  0  0  0  0  0  0  0  0
   57.6860   34.0170   45.0310 C   0  0  0  0  0  0  0  0  0  0  0  0
   56.7070   34.5860   45.5830 O   0  0  0  0  0  0  0  0  0  0  0  0
   57.4530   32.7970   44.1790 C   0  0  0  0  0  0  0  0  0  0  0  0
   57.3690   31.5440   44.9610 N   0  0  0  0  0  0  0  0  0  0  0  0
   58.5490   31.3540   45.8250 C   0  0  0  0  0  0  0  0  0  0  0  0
   57.1220   30.3640   44.1070 C   0  0  0  0  0  0  0  0  0  0  0  0
   56.3310   29.3370   44.8550 C   0  0  0  0  0  0  0  0  0  0  0  0
   55.1460   29.0850   44.5010 O   0  0  0  0  0  0  0  0  0  0  0  0
   56.9410   28.6150   45.9300 N   0  0  0  0  0  0  0  0  0  0  0  0
   57.1570   27.1980   45.9700 C   0  0  0  0  0  0  0  0  0  0  0  0
   58.4720   26.7270   46.0590 C   0  0  0  0  0  0  0  0  0  0  0  0
   58.7320   25.3550   46.1130 C   0  0  0  0  0  0  0  0  0  0  0  0
   57.6810   24.4320   46.0960 C   0  0  0  0  0  0  0  0  0  0  0  0
   57.9940   23.0650   46.1490 O   0  0  0  0  0  0  0  0  0  0  0  0
   58.3060   22.2670   45.0120 C   0  0  0  0  0  0  0  0  0  0  0  0
   56.3550   24.9020   46.0340 C   0  0  0  0  0  0  0  0  0  0  0  0
   56.0920   26.2760   45.9890 C   0  0  0  0  0  0  0  0  0  0  0  0
   54.7700   26.7080   46.0000 O   0  0  0  0  0  0  0  0  0  0  0  0
   61.1420   33.9200   46.3400 C   0  0  0  0  0  0  0  0  0  0  0  0
   63.5980   33.1041   49.4485 H   0  0  0  0  0  0  0  0  0  0  0  0
   63.9330   31.6680   48.4228 H   0  0  0  0  0  0  0  0  0  0  0  0
   65.0719   33.0571   48.4228 H   0  0  0  0  0  0  0  0  0  0  0  0
   61.9835   33.7885   49.6552 H   0  0  0  0  0  0  0  0  0  0  0  0
   59.5968   34.4716   49.8735 H   0  0  0  0  0  0  0  0  0  0  0  0
   58.1924   34.7952   47.8383 H   0  0  0  0  0  0  0  0  0  0  0  0
   56.5091   32.9298   43.6300 H   0  0  0  0  0  0  0  0  0  0  0  0
   58.3159   32.7020   43.5034 H   0  0  0  0  0  0  0  0  0  0  0  0
   58.2425   31.4033   46.8803 H   0  0  0  0  0  0  0  0  0  0  0  0
   58.9995   30.3717   45.6196 H   0  0  0  0  0  0  0  0  0  0  0  0
   59.2851   32.1452   45.6196 H   0  0  0  0  0  0  0  0  0  0  0  0
   56.5606   30.6741   43.2133 H   0  0  0  0  0  0  0  0  0  0  0  0
   58.0877   29.9270   43.8130 H   0  0  0  0  0  0  0  0  0  0  0  0
   59.3072   27.4423   46.0866 H   0  0  0  0  0  0  0  0  0  0  0  0
   59.7710   24.9981   46.1693 H   0  0  0  0  0  0  0  0  0  0  0  0
   58.6879   21.2901   45.3433 H   0  0  0  0  0  0  0  0  0  0  0  0
   57.3991   22.1201   44.4071 H   0  0  0  0  0  0  0  0  0  0  0  0
   59.0720   22.7742   44.4071 H   0  0  0  0  0  0  0  0  0  0  0  0
   55.5209   24.1850   46.0209 H   0  0  0  0  0  0  0  0  0  0  0  0
   61.5839   33.7825   45.3421 H   0  0  0  0  0  0  0  0  0  0  0  0
  1  2  1  0
  2  3  1  0
  3  4  2  0
  4  5  1  0
  5  6  2  0
  6  7  1  0
  7  8  1  0
  8  9  1  0
  9 10  2  0
  9 11  1  0
 11 12  1  0
 12 13  1  0
 12 14  1  0
 14 15  1  0
 15 16  2  0
 15 17  1  0
 17 18  1  0
 18 19  2  0
 19 20  1  0
 20 21  2  0
 21 22  1  0
 22 23  1  0
 21 24  1  0
 24 25  2  0
 25 26  1  0
  7 27  2  0
 27  3  1  0
 25 18  1  0
  1 28  1  0
  1 29  1  0
  1 30  1  0
  4 31  1  0
  5 32  1  0
  6 33  1  0
 11 34  1  0
 11 35  1  0
 13 36  1  0
 13 37  1  0
 13 38  1  0
 14 39  1  0
 14 40  1  0
 19 41  1  0
 20 42  1  0
 23 43  1  0
 23 44  1  0
 23 45  1  0
 24 46  1  0
 27 47  1  0
M  CHG  3   8  -1  17  -1  26  -1
M  END
>  <UniqueID>  (31) 
30

>  <SMILES>  (31) 
COc1cccc([N-]C(=O)CN(C)CC(=O)[N-]c2ccc(OC)cc2[O-])c1

>  <Energy>  (31) 
55.74675594275869

>  <Genealogy>  (31) 
COc1cccc([N-]C(=O)CN(C)CC(=O)[N-]c2ccc(OC)cc2[O-])c1 (protonated)
COc1cccc([N-]C(=O)CN(C)CC(=O)[N-]c2ccc(OC)cc2[O-])c1 (3D coordinates assigned)
COc1cccc([N-]C(=O)CN(C)CC(=O)[N-]c2ccc(OC)cc2[O-])c1 (optimized conformer: 55.74675594275869 kcal/mol)

>  <smiles>  (31) 
COc1cccc(NC(=O)CN(C)CC(=O)Nc2ccc(OC)cc2O)c1

>  <score_type>  (31) 
oracle

>  <origin>  (31) 
adg

>  <m_score__min__energy>  (31) 
-14.77

>  <m_primary>  (31) 
energy

$$$$
31:0
     RDKit          3D

 35 36  0  0  0  0  0  0  0  0999 V2000
   60.7920   28.0780   45.2080 O   0  0  0  0  0  0  0  0  0  0  0  0
   59.9100   27.7130   46.0280 C   0  0  0  0  0  0  0  0  0  0  0  0
   59.7350   26.2510   46.3050 C   0  0  0  0  0  0  0  0  0  0  0  0
   58.3740   25.9000   46.0880 O   0  0  0  0  0  0  0  0  0  0  0  0
   57.6050   25.2110   47.0290 C   0  0  0  0  0  0  0  0  0  0  0  0
   57.9450   25.2180   48.2440 O   0  0  0  0  0  0  0  0  0  0  0  0
   56.3770   24.4970   46.5970 C   0  0  0  0  0  0  0  0  0  0  0  0
   56.2650   23.0980   46.7700 C   0  0  0  0  0  0  0  0  0  0  0  0
   57.2730   22.3680   47.3920 O   0  0  0  0  0  0  0  0  0  0  0  0
   55.1260   22.4210   46.3250 C   0  0  0  0  0  0  0  0  0  0  0  0
   54.0850   23.1170   45.7100 C   0  0  0  0  0  0  0  0  0  0  0  0
   52.9580   22.4350   45.2700 O   0  0  0  0  0  0  0  0  0  0  0  0
   54.1790   24.4980   45.5370 C   0  0  0  0  0  0  0  0  0  0  0  0
   55.3170   25.1940   45.9700 C   0  0  0  0  0  0  0  0  0  0  0  0
   55.3980   26.5700   45.7590 O   0  0  0  0  0  0  0  0  0  0  0  0
   59.0630   28.7070   46.6210 N   0  0  0  0  0  0  0  0  0  0  0  0
   57.6440   28.9090   46.3360 C   0  0  0  0  0  0  0  0  0  0  0  0
   57.4410   29.7440   45.0950 C   0  0  0  0  0  0  0  0  0  0  0  0
   58.5060   30.5060   44.5810 C   0  0  0  0  0  0  0  0  0  0  0  0
   58.3370   31.2660   43.4200 C   0  0  0  0  0  0  0  0  0  0  0  0
   57.1090   31.2700   42.7580 C   0  0  0  0  0  0  0  0  0  0  0  0
   56.0460   30.5080   43.2510 C   0  0  0  0  0  0  0  0  0  0  0  0
   56.2080   29.7400   44.4090 C   0  0  0  0  0  0  0  0  0  0  0  0
   55.1430   28.9740   44.8710 O   0  0  0  0  0  0  0  0  0  0  0  0
   60.3787   25.6678   45.6301 H   0  0  0  0  0  0  0  0  0  0  0  0
   60.0142   26.0333   47.3465 H   0  0  0  0  0  0  0  0  0  0  0  0
   55.0499   21.3320   46.4606 H   0  0  0  0  0  0  0  0  0  0  0  0
   53.3542   25.0453   45.0573 H   0  0  0  0  0  0  0  0  0  0  0  0
   55.9390   26.9610   44.9970 H   0  0  0  0  0  0  0  0  0  0  0  0
   57.1661   27.9291   46.1893 H   0  0  0  0  0  0  0  0  0  0  0  0
   57.1941   29.4414   47.1869 H   0  0  0  0  0  0  0  0  0  0  0  0
   59.4780   30.5038   45.0960 H   0  0  0  0  0  0  0  0  0  0  0  0
   59.1740   31.8621   43.0276 H   0  0  0  0  0  0  0  0  0  0  0  0
   56.9772   31.8731   41.8476 H   0  0  0  0  0  0  0  0  0  0  0  0
   55.0790   30.5122   42.7268 H   0  0  0  0  0  0  0  0  0  0  0  0
  1  2  2  0
  2  3  1  0
  3  4  1  0
  4  5  1  0
  5  6  2  0
  5  7  1  0
  7  8  2  0
  8  9  1  0
  8 10  1  0
 10 11  2  0
 11 12  1  0
 11 13  1  0
 13 14  2  0
 14 15  1  0
  2 16  1  0
 16 17  1  0
 17 18  1  0
 18 19  2  0
 19 20  1  0
 20 21  2  0
 21 22  1  0
 22 23  2  0
 23 24  1  0
 14  7  1  0
 23 18  1  0
  3 25  1  0
  3 26  1  0
 10 27  1  0
 13 28  1  0
 15 29  1  0
 17 30  1  0
 17 31  1  0
 19 32  1  0
 20 33  1  0
 21 34  1  0
 22 35  1  0
M  CHG  4   9  -1  12  -1  16  -1  24  -1
M  END
>  <UniqueID>  (32) 
31

>  <SMILES>  (32) 
O=C(COC(=O)c1c([O-])cc([O-])cc1O)[N-]Cc1ccccc1[O-]

>  <Energy>  (32) 
31.154351770818987

>  <Genealogy>  (32) 
O=C(COC(=O)c1c([O-])cc([O-])cc1O)[N-]Cc1ccccc1[O-] (protonated)
O=C(COC(=O)c1c([O-])cc([O-])cc1O)[N-]Cc1ccccc1[O-] (3D coordinates assigned)
O=C(COC(=O)c1c([O-])cc([O-])cc1O)[N-]Cc1ccccc1[O-] (optimized conformer: 31.154351770818987 kcal/mol)

>  <smiles>  (32) 
O=C(COC(=O)c1c(O)cc(O)cc1O)NCc1ccccc1O

>  <score_type>  (32) 
oracle

>  <origin>  (32) 
adg

>  <m_score__min__energy>  (32) 
-15.35

>  <m_primary>  (32) 
energy

$$$$
32:0
     RDKit          3D

 38 40  0  0  0  0  0  0  0  0999 V2000
   58.1127   32.3640   47.3674 H   0  0  0  0  0  0  0  0  0  0  0  0
   58.7910   32.5050   46.5130 C   0  0  0  0  0  0  0  0  0  0  0  0
   58.2350   32.6360   45.2890 C   0  0  0  0  0  0  0  0  0  0  0  0
   57.5130   31.4800   44.6900 C   0  0  0  0  0  0  0  0  0  0  0  0
   57.0450   30.4480   45.4480 N   0  0  0  0  0  0  0  0  0  0  0  0
   56.4310   29.5040   44.7060 C   0  0  0  0  0  0  0  0  0  0  0  0
   55.9140   28.4370   45.2440 N   0  0  0  0  0  0  0  0  0  0  0  0
   56.6020   27.3800   45.9350 C   0  0  0  0  0  0  0  0  0  0  0  0
   55.9760   26.3800   46.3790 O   0  0  0  0  0  0  0  0  0  0  0  0
   58.0610   27.4820   46.1210 C   0  0  0  0  0  0  0  0  0  0  0  0
   58.8220   27.5760   47.6210 S   0  0  0  0  0  0  0  0  0  0  0  0
   60.3710   27.6600   46.9800 C   0  0  0  0  0  0  0  0  0  0  0  0
   61.2927   27.7376   47.5753 H   0  0  0  0  0  0  0  0  0  0  0  0
   60.3270   27.6190   45.6310 N   0  0  0  0  0  0  0  0  0  0  0  0
   61.1850   27.6590   45.0360 H   0  0  0  0  0  0  0  0  0  0  0  0
   59.0600   27.5210   45.1370 C   0  0  0  0  0  0  0  0  0  0  0  0
   58.7980   27.4600   43.6620 C   0  0  0  0  0  0  0  0  0  0  0  0
   57.7402   27.2137   43.4874 H   0  0  0  0  0  0  0  0  0  0  0  0
   59.0271   28.4355   43.2082 H   0  0  0  0  0  0  0  0  0  0  0  0
   59.4344   26.6860   43.2082 H   0  0  0  0  0  0  0  0  0  0  0  0
   56.4420   29.9040   43.0690 S   0  0  0  0  0  0  0  0  0  0  0  0
   57.2670   31.3480   43.3190 C   0  0  0  0  0  0  0  0  0  0  0  0
   57.5623   32.0652   42.5390 H   0  0  0  0  0  0  0  0  0  0  0  0
   58.3330   33.9240   44.5040 C   0  0  0  0  0  0  0  0  0  0  0  0
   58.3976   34.7735   45.1998 H   0  0  0  0  0  0  0  0  0  0  0  0
   59.2319   33.8998   43.8704 H   0  0  0  0  0  0  0  0  0  0  0  0
   57.4408   34.0361   43.8704 H   0  0  0  0  0  0  0  0  0  0  0  0
   60.2450   32.5370   46.7910 C   0  0  0  0  0  0  0  0  0  0  0  0
   60.9350   31.3740   47.1770 C   0  0  0  0  0  0  0  0  0  0  0  0
   60.3980   30.4165   47.2463 H   0  0  0  0  0  0  0  0  0  0  0  0
   62.3000   31.4290   47.4730 C   0  0  0  0  0  0  0  0  0  0  0  0
   62.8375   30.5131   47.7597 H   0  0  0  0  0  0  0  0  0  0  0  0
   62.9820   32.6460   47.4050 C   0  0  0  0  0  0  0  0  0  0  0  0
   64.0576   32.6870   47.6316 H   0  0  0  0  0  0  0  0  0  0  0  0
   62.2980   33.8120   47.0490 C   0  0  0  0  0  0  0  0  0  0  0  0
   62.8351   34.7709   47.0025 H   0  0  0  0  0  0  0  0  0  0  0  0
   60.9330   33.7620   46.7520 C   0  0  0  0  0  0  0  0  0  0  0  0
   60.2850   34.9060   46.4110 F   0  0  0  0  0  0  0  0  0  0  0  0
  1  2  1  0
  2  3  2  0
  3  4  1  0
  4  5  1  0
  5  6  1  0
  6  7  2  0
  7  8  1  0
  8  9  2  0
  8 10  1  0
 10 11  1  0
 11 12  1  0
 12 13  1  0
 12 14  2  0
 14 15  1  0
 14 16  1  0
 16 17  1  0
 17 18  1  0
 17 19  1  0
 17 20  1  0
  6 21  1  0
 21 22  1  0
 22 23  1  0
  3 24  1  0
 24 25  1  0
 24 26  1  0
 24 27  1  0
  2 28  1  0
 28 29  2  0
 29 30  1  0
 29 31  1  0
 31 32  1  0
 31 33  2  0
 33 34  1  0
 33 35  1  0
 35 36  1  0
 35 37  2  0
 37 38  1  0
 22  4  2  0
 37 28  1  0
 16 10  2  0
M  CHG  2   5  -1  14   1
M  END
>  <UniqueID>  (33) 
32

>  <SMILES>  (33) 
C/C(=C\c1ccccc1F)c1cs/c(=N\C(=O)c2sc[nH+]c2C)[n-]1

>  <Energy>  (33) 
110.33989428157906

>  <Genealogy>  (33) 
CC(=Cc1ccccc1F)c1csc(=NC(=O)c2sc[nH+]c2C)[n-]1 (protonated)
C/C(=C\c1ccccc1F)c1cs/c(=N\C(=O)c2sc[nH+]c2C)[n-]1 (cis-trans isomerization)
C/C(=C\c1ccccc1F)c1cs/c(=N\C(=O)c2sc[nH+]c2C)[n-]1 (3D coordinates assigned)
C/C(=C\c1ccccc1F)c1cs/c(=N\C(=O)c2sc[nH+]c2C)[n-]1 (optimized conformer: 110.33989428157906 kcal/mol)

>  <smiles>  (33) 
CC(=Cc1ccccc1F)c1csc(=NC(=O)c2scnc2C)[nH]1

>  <score_type>  (33) 
oracle

>  <origin>  (33) 
adg

>  <m_score__min__energy>  (33) 
-9.0899999999999999

>  <m_primary>  (33) 
energy

$$$$
33:0
     RDKit          3D

 67 71  0  0  0  0  0  0  0  0999 V2000
   57.8150   25.0180   48.2470 O   0  0  0  0  0  0  0  0  0  0  0  0
   58.4540   25.1530   47.1710 C   0  0  0  0  0  0  0  0  0  0  0  0
   59.6460   25.9510   47.1780 N   0  0  0  0  0  0  0  0  0  0  0  0
   59.8960   27.0860   48.0190 C   0  0  0  0  0  0  0  0  0  0  0  0
   59.5740   28.3870   47.6200 C   0  0  0  0  0  0  0  0  0  0  0  0
   59.8590   29.4600   48.4650 C   0  0  0  0  0  0  0  0  0  0  0  0
   60.4590   29.2640   49.6820 N   0  0  0  0  0  0  0  0  0  0  0  0
   60.7150   30.4250   50.5120 C   0  0  0  0  0  0  0  0  0  0  0  0
   61.8010   30.5140   51.1480 O   0  0  0  0  0  0  0  0  0  0  0  0
   59.7540   31.4800   50.6520 N   0  0  0  0  0  0  0  0  0  0  0  0
   58.8440   31.4110   51.7630 C   0  0  0  0  0  0  0  0  0  0  0  0
   57.4670   31.2800   51.5130 C   0  0  0  0  0  0  0  0  0  0  0  0
   56.5650   31.1470   52.5690 C   0  0  0  0  0  0  0  0  0  0  0  0
   57.0240   31.1460   53.8850 C   0  0  0  0  0  0  0  0  0  0  0  0
   58.3860   31.2910   54.1510 C   0  0  0  0  0  0  0  0  0  0  0  0
   59.3070   31.4390   53.1000 C   0  0  0  0  0  0  0  0  0  0  0  0
   60.7680   31.6020   53.4280 C   0  0  0  0  0  0  0  0  0  0  0  0
   61.2840   32.7490   52.8130 O   0  0  0  0  0  0  0  0  0  0  0  0
   60.2190   33.0590   50.0910 S   0  0  0  0  0  0  0  0  0  0  0  0
   59.8160   34.1010   51.0950 O   0  0  0  0  0  0  0  0  0  0  0  0
   61.7120   33.1180   49.9230 O   0  0  0  0  0  0  0  0  0  0  0  0
   59.4420   33.3980   48.5490 C   0  0  0  0  0  0  0  0  0  0  0  0
   59.8940   34.4490   47.7370 C   0  0  0  0  0  0  0  0  0  0  0  0
   59.2840   34.6940   46.5030 C   0  0  0  0  0  0  0  0  0  0  0  0
   58.2230   33.8900   46.0720 C   0  0  0  0  0  0  0  0  0  0  0  0
   57.4610   34.1990   44.5240 Cl  0  0  0  0  0  0  0  0  0  0  0  0
   57.7730   32.8390   46.8770 C   0  0  0  0  0  0  0  0  0  0  0  0
   58.3800   32.5940   48.1120 C   0  0  0  0  0  0  0  0  0  0  0  0
   60.7820   27.9860   50.0820 C   0  0  0  0  0  0  0  0  0  0  0  0
   61.3090   27.7690   51.2060 O   0  0  0  0  0  0  0  0  0  0  0  0
   60.5210   26.8940   49.2500 C   0  0  0  0  0  0  0  0  0  0  0  0
   57.9250   24.5580   45.9190 C   0  0  0  0  0  0  0  0  0  0  0  0
   58.5800   23.4370   45.3760 C   0  0  0  0  0  0  0  0  0  0  0  0
   58.0810   22.7990   44.2400 C   0  0  0  0  0  0  0  0  0  0  0  0
   56.9120   23.2610   43.6360 C   0  0  0  0  0  0  0  0  0  0  0  0
   56.2500   24.3730   44.1580 C   0  0  0  0  0  0  0  0  0  0  0  0
   56.7600   25.0490   45.2770 C   0  0  0  0  0  0  0  0  0  0  0  0
   55.8510   26.4780   45.8990 S   0  0  0  0  0  0  0  0  0  0  0  0
   57.0810   27.6620   45.3300 C   0  0  0  0  0  0  0  0  0  0  0  0
   58.2160   27.2360   44.6290 C   0  0  0  0  0  0  0  0  0  0  0  0
   59.1460   28.1710   44.1650 C   0  0  0  0  0  0  0  0  0  0  0  0
   58.9500   29.5330   44.4080 C   0  0  0  0  0  0  0  0  0  0  0  0
   57.8280   29.9610   45.1220 C   0  0  0  0  0  0  0  0  0  0  0  0
   56.8980   29.0280   45.5870 C   0  0  0  0  0  0  0  0  0  0  0  0
   59.0981   28.5637   46.6441 H   0  0  0  0  0  0  0  0  0  0  0  0
   59.5978   30.4808   48.1493 H   0  0  0  0  0  0  0  0  0  0  0  0
   57.0978   31.2824   50.4768 H   0  0  0  0  0  0  0  0  0  0  0  0
   55.4896   31.0427   52.3626 H   0  0  0  0  0  0  0  0  0  0  0  0
   56.3115   31.0307   54.7151 H   0  0  0  0  0  0  0  0  0  0  0  0
   58.7417   31.2895   55.1919 H   0  0  0  0  0  0  0  0  0  0  0  0
   60.8864   31.6914   54.5179 H   0  0  0  0  0  0  0  0  0  0  0  0
   61.3158   30.7229   53.0576 H   0  0  0  0  0  0  0  0  0  0  0  0
   61.3290   32.5520   51.8400 H   0  0  0  0  0  0  0  0  0  0  0  0
   60.7296   35.0813   48.0717 H   0  0  0  0  0  0  0  0  0  0  0  0
   59.6389   35.5204   45.8697 H   0  0  0  0  0  0  0  0  0  0  0  0
   56.9407   32.2046   46.5381 H   0  0  0  0  0  0  0  0  0  0  0  0
   58.0230   31.7671   48.7435 H   0  0  0  0  0  0  0  0  0  0  0  0
   60.8093   25.8810   49.5672 H   0  0  0  0  0  0  0  0  0  0  0  0
   59.4964   23.0593   45.8530 H   0  0  0  0  0  0  0  0  0  0  0  0
   58.6102   21.9307   43.8204 H   0  0  0  0  0  0  0  0  0  0  0  0
   56.5119   22.7490   42.7484 H   0  0  0  0  0  0  0  0  0  0  0  0
   55.3193   24.7231   43.6877 H   0  0  0  0  0  0  0  0  0  0  0  0
   58.3761   26.1637   44.4431 H   0  0  0  0  0  0  0  0  0  0  0  0
   60.0328   27.8342   43.6081 H   0  0  0  0  0  0  0  0  0  0  0  0
   59.6792   30.2683   44.0371 H   0  0  0  0  0  0  0  0  0  0  0  0
   57.6769   31.0328   45.3181 H   0  0  0  0  0  0  0  0  0  0  0  0
   56.0197   29.3661   46.1564 H   0  0  0  0  0  0  0  0  0  0  0  0
  1  2  2  0
  2  3  1  0
  3  4  1  0
  4  5  1  0
  5  6  2  0
  6  7  1  0
  7  8  1  0
  8  9  2  0
  8 10  1  0
 10 11  1  0
 11 12  2  0
 12 13  1  0
 13 14  2  0
 14 15  1  0
 15 16  2  0
 16 17  1  0
 17 18  1  0
 10 19  1  0
 19 20  2  0
 19 21  2  0
 19 22  1  0
 22 23  2  0
 23 24  1  0
 24 25  2  0
 25 26  1  0
 25 27  1  0
 27 28  2  0
  7 29  1  0
 29 30  2  0
 29 31  1  0
  2 32  1  0
 32 33  2  0
 33 34  1  0
 34 35  2  0
 35 36  1  0
 36 37  2  0
 37 38  1  0
 38 39  1  0
 39 40  2  0
 40 41  1  0
 41 42  2  0
 42 43  1  0
 43 44  2  0
 31  4  2  0
 37 32  1  0
 44 39  1  0
 16 11  1  0
 28 22  1  0
  5 45  1  0
  6 46  1  0
 12 47  1  0
 13 48  1  0
 14 49  1  0
 15 50  1  0
 17 51  1  0
 17 52  1  0
 18 53  1  0
 23 54  1  0
 24 55  1  0
 27 56  1  0
 28 57  1  0
 31 58  1  0
 33 59  1  0
 34 60  1  0
 35 61  1  0
 36 62  1  0
 40 63  1  0
 41 64  1  0
 42 65  1  0
 43 66  1  0
 44 67  1  0
M  CHG  1   3  -1
M  END
>  <UniqueID>  (34) 
33

>  <SMILES>  (34) 
O=C([N-]c1ccn(C(=O)N(c2ccccc2CO)S(=O)(=O)c2ccc(Cl)cc2)c(=O)c1)c1ccccc1Sc1ccccc1

>  <Energy>  (34) 
100.5089142415505

>  <Genealogy>  (34) 
O=C([N-]c1ccn(C(=O)N(c2ccccc2CO)S(=O)(=O)c2ccc(Cl)cc2)c(=O)c1)c1ccccc1Sc1ccccc1 (protonated)
O=C([N-]c1ccn(C(=O)N(c2ccccc2CO)S(=O)(=O)c2ccc(Cl)cc2)c(=O)c1)c1ccccc1Sc1ccccc1 (3D coordinates assigned)
O=C([N-]c1ccn(C(=O)N(c2ccccc2CO)S(=O)(=O)c2ccc(Cl)cc2)c(=O)c1)c1ccccc1Sc1ccccc1 (optimized conformer: 100.5089142415505 kcal/mol)

>  <smiles>  (34) 
O=C(Nc1ccn(C(=O)N(c2ccccc2CO)S(=O)(=O)c2ccc(Cl)cc2)c(=O)c1)c1ccccc1Sc1ccccc1

>  <score_type>  (34) 
oracle

>  <origin>  (34) 
adg

>  <m_score__min__energy>  (34) 
-12.98

>  <m_primary>  (34) 
energy

$$$$
34:0
     RDKit          3D

 42 44  0  0  0  0  0  0  0  0999 V2000
   55.4740   28.9590   44.7870 F   0  0  0  0  0  0  0  0  0  0  0  0
   56.7340   29.2570   45.1890 C   0  0  0  0  0  0  0  0  0  0  0  0
   57.3510   30.4290   44.7440 C   0  0  0  0  0  0  0  0  0  0  0  0
   58.6550   30.7320   45.1490 C   0  0  0  0  0  0  0  0  0  0  0  0
   59.3460   29.8690   46.0120 C   0  0  0  0  0  0  0  0  0  0  0  0
   60.7730   30.1490   46.3820 C   0  0  0  0  0  0  0  0  0  0  0  0
   60.8490   31.4530   46.9560 O   0  0  0  0  0  0  0  0  0  0  0  0
   62.0140   31.9740   47.5190 C   0  0  0  0  0  0  0  0  0  0  0  0
   62.9100   32.6650   46.7580 N   0  0  0  0  0  0  0  0  0  0  0  0
   64.0310   33.2230   47.2870 C   0  0  0  0  0  0  0  0  0  0  0  0
   64.2940   33.0950   48.6490 C   0  0  0  0  0  0  0  0  0  0  0  0
   63.3980   32.3840   49.4540 C   0  0  0  0  0  0  0  0  0  0  0  0
   62.2450   31.8160   48.8920 C   0  0  0  0  0  0  0  0  0  0  0  0
   61.3290   31.0530   49.6960 N   0  0  0  0  0  0  0  0  0  0  0  0
   60.6590   31.6080   50.8380 C   0  0  0  0  0  0  0  0  0  0  0  0
   60.6200   30.7300   52.2250 S   0  0  0  0  0  0  0  0  0  0  0  0
   60.1280   32.9500   50.8110 N   0  0  0  0  0  0  0  0  0  0  0  0
   59.5930   33.2560   49.5010 C   0  0  0  0  0  0  0  0  0  0  0  0
   60.0510   34.3790   48.7840 C   0  0  0  0  0  0  0  0  0  0  0  0
   59.5450   34.6660   47.5130 C   0  0  0  0  0  0  0  0  0  0  0  0
   58.5710   33.8350   46.9450 C   0  0  0  0  0  0  0  0  0  0  0  0
   57.8800   34.2210   45.2080 Br  0  0  0  0  0  0  0  0  0  0  0  0
   58.1050   32.7220   47.6460 C   0  0  0  0  0  0  0  0  0  0  0  0
   58.6090   32.4270   48.9200 C   0  0  0  0  0  0  0  0  0  0  0  0
   58.1440   31.3400   49.5870 F   0  0  0  0  0  0  0  0  0  0  0  0
   58.7280   28.6830   46.4440 C   0  0  0  0  0  0  0  0  0  0  0  0
   57.4250   28.3810   46.0340 C   0  0  0  0  0  0  0  0  0  0  0  0
   56.8105   31.1142   44.0744 H   0  0  0  0  0  0  0  0  0  0  0  0
   59.1406   31.6510   44.7891 H   0  0  0  0  0  0  0  0  0  0  0  0
   61.1195   29.4025   47.1118 H   0  0  0  0  0  0  0  0  0  0  0  0
   61.4098   30.0958   45.4867 H   0  0  0  0  0  0  0  0  0  0  0  0
   64.7294   33.7748   46.6406 H   0  0  0  0  0  0  0  0  0  0  0  0
   65.1960   33.5479   49.0864 H   0  0  0  0  0  0  0  0  0  0  0  0
   63.5978   32.2700   50.5297 H   0  0  0  0  0  0  0  0  0  0  0  0
   61.0510   30.0970   49.3850 H   0  0  0  0  0  0  0  0  0  0  0  0
   59.3600   33.0540   51.5200 H   0  0  0  0  0  0  0  0  0  0  0  0
   60.8840   33.6220   51.0720 H   0  0  0  0  0  0  0  0  0  0  0  0
   60.8135   35.0357   49.2283 H   0  0  0  0  0  0  0  0  0  0  0  0
   59.9112   35.5433   46.9596 H   0  0  0  0  0  0  0  0  0  0  0  0
   57.3387   32.0733   47.1966 H   0  0  0  0  0  0  0  0  0  0  0  0
   59.2697   27.9910   47.1056 H   0  0  0  0  0  0  0  0  0  0  0  0
   56.9427   27.4535   46.3763 H   0  0  0  0  0  0  0  0  0  0  0  0
  1  2  1  0
  2  3  2  0
  3  4  1  0
  4  5  2  0
  5  6  1  0
  6  7  1  0
  7  8  1  0
  8  9  2  0
  9 10  1  0
 10 11  2  0
 11 12  1  0
 12 13  2  0
 13 14  1  0
 14 15  1  0
 15 16  2  0
 15 17  1  0
 17 18  1  0
 18 19  2  0
 19 20  1  0
 20 21  2  0
 21 22  1  0
 21 23  1  0
 23 24  2  0
 24 25  1  0
  5 26  1  0
 26 27  2  0
 27  2  1  0
 13  8  1  0
 24 18  1  0
  3 28  1  0
  4 29  1  0
  6 30  1  0
  6 31  1  0
 10 32  1  0
 11 33  1  0
 12 34  1  0
 14 35  1  0
 17 36  1  0
 17 37  1  0
 19 38  1  0
 20 39  1  0
 23 40  1  0
 26 41  1  0
 27 42  1  0
M  CHG  1  17   1
M  END
>  <UniqueID>  (35) 
34

>  <SMILES>  (35) 
Fc1ccc(COc2ncccc2NC(=S)[NH2+]c2ccc(Br)cc2F)cc1

>  <Energy>  (35) 
48.19477658188555

>  <Genealogy>  (35) 
Fc1ccc(COc2ncccc2NC(=S)[NH2+]c2ccc(Br)cc2F)cc1 (protonated)
Fc1ccc(COc2ncccc2NC(=S)[NH2+]c2ccc(Br)cc2F)cc1 (3D coordinates assigned)
Fc1ccc(COc2ncccc2NC(=S)[NH2+]c2ccc(Br)cc2F)cc1 (optimized conformer: 48.19477658188555 kcal/mol)

>  <smiles>  (35) 
Fc1ccc(COc2ncccc2NC(=S)Nc2ccc(Br)cc2F)cc1

>  <score_type>  (35) 
oracle

>  <origin>  (35) 
adg

>  <m_score__min__energy>  (35) 
-5.96

>  <m_primary>  (35) 
energy

$$$$
35:0
     RDKit          3D

 62 66  0  0  0  0  0  0  0  0999 V2000
   59.6360   30.6730   48.1650 O   0  0  0  0  0  0  0  0  0  0  0  0
   59.0830   31.6530   48.7330 C   0  0  0  0  0  0  0  0  0  0  0  0
   58.8300   32.8640   48.0090 N   0  0  0  0  0  0  0  0  0  0  0  0
   58.6010   32.9200   46.5890 C   0  0  0  0  0  0  0  0  0  0  0  0
   57.9250   31.8830   45.9190 C   0  0  0  0  0  0  0  0  0  0  0  0
   57.6650   31.9590   44.5410 C   0  0  0  0  0  0  0  0  0  0  0  0
   56.9840   30.7840   43.8720 C   0  0  0  0  0  0  0  0  0  0  0  0
   57.0610   29.4920   44.6490 C   0  0  0  0  0  0  0  0  0  0  0  0
   55.9060   28.8270   44.9110 N   0  0  0  0  0  0  0  0  0  0  0  0
   55.8860   27.6990   45.6210 N   0  0  0  0  0  0  0  0  0  0  0  0
   57.0220   27.1500   46.1190 C   0  0  0  0  0  0  0  0  0  0  0  0
   56.9510   26.0930   46.8020 O   0  0  0  0  0  0  0  0  0  0  0  0
   58.2590   27.7630   45.8640 C   0  0  0  0  0  0  0  0  0  0  0  0
   58.2810   28.9610   45.1230 C   0  0  0  0  0  0  0  0  0  0  0  0
   59.5460   29.5780   44.8110 N   0  0  0  0  0  0  0  0  0  0  0  0
   60.7780   29.1470   45.4640 C   0  0  0  0  0  0  0  0  0  0  0  0
   60.7710   27.6290   45.6360 C   0  0  0  0  0  0  0  0  0  0  0  0
   59.5390   27.1920   46.4380 C   0  0  0  0  0  0  0  0  0  0  0  0
   58.1180   33.0870   43.8270 C   0  0  0  0  0  0  0  0  0  0  0  0
   58.7700   34.1270   44.4890 C   0  0  0  0  0  0  0  0  0  0  0  0
   59.0020   34.0540   45.8640 C   0  0  0  0  0  0  0  0  0  0  0  0
   59.6330   35.0820   46.4870 F   0  0  0  0  0  0  0  0  0  0  0  0
   58.7730   31.5720   50.1690 C   0  0  0  0  0  0  0  0  0  0  0  0
   58.0160   30.4780   50.6150 C   0  0  0  0  0  0  0  0  0  0  0  0
   57.6360   30.3760   51.9560 C   0  0  0  0  0  0  0  0  0  0  0  0
   56.8920   29.2840   52.3860 O   0  0  0  0  0  0  0  0  0  0  0  0
   57.9980   31.3750   52.8580 C   0  0  0  0  0  0  0  0  0  0  0  0
   58.7450   32.4740   52.4290 C   0  0  0  0  0  0  0  0  0  0  0  0
   59.1650   32.5830   51.0900 C   0  0  0  0  0  0  0  0  0  0  0  0
   59.9530   33.8140   50.6560 C   0  0  0  0  0  0  0  0  0  0  0  0
   61.3540   33.5420   50.2560 N   0  0  0  0  0  0  0  0  0  0  0  0
   61.6470   33.8090   48.8340 C   0  0  0  0  0  0  0  0  0  0  0  0
   63.0190   33.2270   48.4560 C   0  0  0  0  0  0  0  0  0  0  0  0
   63.1190   31.8200   48.6320 O   0  0  0  0  0  0  0  0  0  0  0  0
   62.2210   31.2910   49.5990 C   0  0  0  0  0  0  0  0  0  0  0  0
   61.9170   32.2670   50.7520 C   0  0  0  0  0  0  0  0  0  0  0  0
   58.8390   33.7580   48.5500 H   0  0  0  0  0  0  0  0  0  0  0  0
   57.5950   30.9987   46.4839 H   0  0  0  0  0  0  0  0  0  0  0  0
   55.9230   31.0369   43.7298 H   0  0  0  0  0  0  0  0  0  0  0  0
   57.5152   30.6119   42.9243 H   0  0  0  0  0  0  0  0  0  0  0  0
   59.6250   30.2680   44.0280 H   0  0  0  0  0  0  0  0  0  0  0  0
   61.6400   29.4403   44.8467 H   0  0  0  0  0  0  0  0  0  0  0  0
   60.8499   29.6235   46.4529 H   0  0  0  0  0  0  0  0  0  0  0  0
   60.7478   27.1513   44.6454 H   0  0  0  0  0  0  0  0  0  0  0  0
   61.6784   27.3253   46.1785 H   0  0  0  0  0  0  0  0  0  0  0  0
   59.4764   26.0939   46.4233 H   0  0  0  0  0  0  0  0  0  0  0  0
   59.6498   27.5695   47.4652 H   0  0  0  0  0  0  0  0  0  0  0  0
   57.9561   33.1473   42.7406 H   0  0  0  0  0  0  0  0  0  0  0  0
   59.1036   35.0102   43.9245 H   0  0  0  0  0  0  0  0  0  0  0  0
   57.7191   29.6939   49.9030 H   0  0  0  0  0  0  0  0  0  0  0  0
   57.6940   31.2974   53.9123 H   0  0  0  0  0  0  0  0  0  0  0  0
   59.0086   33.2648   53.1468 H   0  0  0  0  0  0  0  0  0  0  0  0
   59.4340   34.2688   49.7994 H   0  0  0  0  0  0  0  0  0  0  0  0
   60.0028   34.4766   51.5326 H   0  0  0  0  0  0  0  0  0  0  0  0
   60.8703   33.3435   48.2094 H   0  0  0  0  0  0  0  0  0  0  0  0
   61.6605   34.8964   48.6684 H   0  0  0  0  0  0  0  0  0  0  0  0
   63.2130   33.4578   47.3981 H   0  0  0  0  0  0  0  0  0  0  0  0
   63.7560   33.6853   49.1319 H   0  0  0  0  0  0  0  0  0  0  0  0
   61.2753   31.0404   49.0961 H   0  0  0  0  0  0  0  0  0  0  0  0
   62.7043   30.4073   50.0411 H   0  0  0  0  0  0  0  0  0  0  0  0
   61.1919   31.7985   51.4337 H   0  0  0  0  0  0  0  0  0  0  0  0
   62.8609   32.4883   51.2716 H   0  0  0  0  0  0  0  0  0  0  0  0
  1  2  2  0
  2  3  1  0
  3  4  1  0
  4  5  2  0
  5  6  1  0
  6  7  1  0
  7  8  1  0
  8  9  2  0
  9 10  1  0
 10 11  1  0
 11 12  2  0
 11 13  1  0
 13 14  2  0
 14 15  1  0
 15 16  1  0
 16 17  1  0
 17 18  1  0
  6 19  2  0
 19 20  1  0
 20 21  2  0
 21 22  1  0
  2 23  1  0
 23 24  2  0
 24 25  1  0
 25 26  1  0
 25 27  2  0
 27 28  1  0
 28 29  2  0
 29 30  1  0
 30 31  1  0
 31 32  1  0
 32 33  1  0
 33 34  1  0
 34 35  1  0
 35 36  1  0
 21  4  1  0
 29 23  1  0
 36 31  1  0
 14  8  1  0
 18 13  1  0
  3 37  1  0
  5 38  1  0
  7 39  1  0
  7 40  1  0
 15 41  1  0
 16 42  1  0
 16 43  1  0
 17 44  1  0
 17 45  1  0
 18 46  1  0
 18 47  1  0
 19 48  1  0
 20 49  1  0
 24 50  1  0
 27 51  1  0
 28 52  1  0
 30 53  1  0
 30 54  1  0
 32 55  1  0
 32 56  1  0
 33 57  1  0
 33 58  1  0
 35 59  1  0
 35 60  1  0
 36 61  1  0
 36 62  1  0
M  CHG  2  10  -1  26  -1
M  END
>  <UniqueID>  (36) 
35

>  <SMILES>  (36) 
O=C(Nc1cc(Cc2n[n-]c(=O)c3c2NCCC3)ccc1F)c1cc([O-])ccc1CN1CCOCC1

>  <Energy>  (36) 
100.45396155682216

>  <Genealogy>  (36) 
O=C(Nc1cc(Cc2n[n-]c(=O)c3c2NCCC3)ccc1F)c1cc([O-])ccc1CN1CCOCC1 (protonated)
O=C(Nc1cc(Cc2n[n-]c(=O)c3c2NCCC3)ccc1F)c1cc([O-])ccc1CN1CCOCC1 (3D coordinates assigned)
O=C(Nc1cc(Cc2n[n-]c(=O)c3c2NCCC3)ccc1F)c1cc([O-])ccc1CN1CCOCC1 (nonaromatic ring conformer: 100.45396155682216 kcal/mol)

>  <smiles>  (36) 
O=C(Nc1cc(Cc2n[nH]c(=O)c3c2NCCC3)ccc1F)c1cc(O)ccc1CN1CCOCC1

>  <score_type>  (36) 
oracle

>  <origin>  (36) 
adg

>  <m_score__min__energy>  (36) 
-14.59

>  <m_primary>  (36) 
energy

$$$$
36:0
     RDKit          3D

 52 55  0  0  0  0  0  0  0  0999 V2000
   59.6440   35.7150   45.8130 C   0  0  0  0  0  0  0  0  0  0  0  0
   59.0950   34.3160   45.7300 C   0  0  0  0  0  0  0  0  0  0  0  0
   57.9040   34.1130   45.0100 C   0  0  0  0  0  0  0  0  0  0  0  0
   57.3630   32.8350   44.8660 C   0  0  0  0  0  0  0  0  0  0  0  0
   58.0000   31.7290   45.4430 C   0  0  0  0  0  0  0  0  0  0  0  0
   57.4910   30.3950   45.2980 N   0  0  0  0  0  0  0  0  0  0  0  0
   58.0440   29.2030   45.8710 C   0  0  0  0  0  0  0  0  0  0  0  0
   58.5100   29.2200   47.0430 O   0  0  0  0  0  0  0  0  0  0  0  0
   58.1820   27.9640   45.0120 C   0  0  1  0  0  0  0  0  0  0  0  0
   57.4600   26.7480   45.6520 C   0  0  0  0  0  0  0  0  0  0  0  0
   57.3910   25.6300   44.6640 C   0  0  0  0  0  0  0  0  0  0  0  0
   57.5520   25.8050   43.3080 C   0  0  0  0  0  0  0  0  0  0  0  0
   57.3760   24.6450   42.6360 N   0  0  0  0  0  0  0  0  0  0  0  0
   57.0650   23.7370   43.5830 C   0  0  0  0  0  0  0  0  0  0  0  0
   56.7680   22.3880   43.3940 C   0  0  0  0  0  0  0  0  0  0  0  0
   56.4530   21.6180   44.5290 C   0  0  0  0  0  0  0  0  0  0  0  0
   56.4400   22.2060   45.8140 C   0  0  0  0  0  0  0  0  0  0  0  0
   56.7440   23.5710   45.9780 C   0  0  0  0  0  0  0  0  0  0  0  0
   57.0570   24.3050   44.8350 C   0  0  0  0  0  0  0  0  0  0  0  0
   57.9660   27.1150   42.7190 C   0  0  0  0  0  0  0  0  0  0  0  0
   57.6500   28.2190   43.6500 N   0  0  0  0  0  0  0  0  0  0  0  0
   59.2040   31.9160   46.1280 C   0  0  0  0  0  0  0  0  0  0  0  0
   59.7620   33.1950   46.2910 C   0  0  0  0  0  0  0  0  0  0  0  0
   61.2920   33.3100   47.1960 S   0  0  0  0  0  0  0  0  0  0  0  0
   62.2690   34.1020   46.3730 O   0  0  0  0  0  0  0  0  0  0  0  0
   61.1020   34.0480   48.4910 O   0  0  0  0  0  0  0  0  0  0  0  0
   61.9790   31.7360   47.5240 N   0  0  0  0  0  0  0  0  0  0  0  0
   61.3220   31.1290   48.6890 C   0  0  0  0  0  0  0  0  0  0  0  0
   63.4220   31.8510   47.7610 C   0  0  0  0  0  0  0  0  0  0  0  0
   59.7568   36.0026   46.8687 H   0  0  0  0  0  0  0  0  0  0  0  0
   60.6243   35.7543   45.3155 H   0  0  0  0  0  0  0  0  0  0  0  0
   58.9521   36.4105   45.3155 H   0  0  0  0  0  0  0  0  0  0  0  0
   57.3921   34.9734   44.5543 H   0  0  0  0  0  0  0  0  0  0  0  0
   56.4321   32.6954   44.2968 H   0  0  0  0  0  0  0  0  0  0  0  0
   59.2526   27.7219   44.9394 H   0  0  0  0  0  0  0  0  0  0  0  0
   58.0175   26.4174   46.5408 H   0  0  0  0  0  0  0  0  0  0  0  0
   56.4408   27.0406   45.9447 H   0  0  0  0  0  0  0  0  0  0  0  0
   57.4620   24.4900   41.6070 H   0  0  0  0  0  0  0  0  0  0  0  0
   56.7795   21.9397   42.3895 H   0  0  0  0  0  0  0  0  0  0  0  0
   56.2150   20.5501   44.4151 H   0  0  0  0  0  0  0  0  0  0  0  0
   56.1906   21.5928   46.6925 H   0  0  0  0  0  0  0  0  0  0  0  0
   56.7348   24.0413   46.9724 H   0  0  0  0  0  0  0  0  0  0  0  0
   59.0491   27.1006   42.5275 H   0  0  0  0  0  0  0  0  0  0  0  0
   57.4189   27.2730   41.7779 H   0  0  0  0  0  0  0  0  0  0  0  0
   58.1060   29.0750   43.2560 H   0  0  0  0  0  0  0  0  0  0  0  0
   59.7255   31.0434   46.5483 H   0  0  0  0  0  0  0  0  0  0  0  0
   61.7622   31.5357   49.6114 H   0  0  0  0  0  0  0  0  0  0  0  0
   60.2464   31.3581   48.6640 H   0  0  0  0  0  0  0  0  0  0  0  0
   61.4654   30.0387   48.6640 H   0  0  0  0  0  0  0  0  0  0  0  0
   63.6157   31.8664   48.8437 H   0  0  0  0  0  0  0  0  0  0  0  0
   63.9376   30.9911   47.3085 H   0  0  0  0  0  0  0  0  0  0  0  0
   63.7949   32.7817   47.3085 H   0  0  0  0  0  0  0  0  0  0  0  0
  1  2  1  0
  2  3  2  0
  3  4  1  0
  4  5  2  0
  5  6  1  0
  6  7  1  0
  7  8  2  0
  7  9  1  0
  9 10  1  0
 10 11  1  0
 11 12  2  0
 12 13  1  0
 13 14  1  0
 14 15  2  0
 15 16  1  0
 16 17  2  0
 17 18  1  0
 18 19  2  0
 12 20  1  0
 20 21  1  0
  5 22  1  0
 22 23  2  0
 23 24  1  0
 24 25  2  0
 24 26  2  0
 24 27  1  0
 27 28  1  0
 27 29  1  0
 23  2  1  0
 21  9  1  0
 19 11  1  0
 19 14  1  0
  1 30  1  0
  1 31  1  0
  1 32  1  0
  3 33  1  0
  4 34  1  0
  9 35  1  6
 10 36  1  0
 10 37  1  0
 13 38  1  0
 15 39  1  0
 16 40  1  0
 17 41  1  0
 18 42  1  0
 20 43  1  0
 20 44  1  0
 21 45  1  0
 22 46  1  0
 28 47  1  0
 28 48  1  0
 28 49  1  0
 29 50  1  0
 29 51  1  0
 29 52  1  0
M  CHG  1   6  -1
M  END
>  <UniqueID>  (37) 
36

>  <SMILES>  (37) 
Cc1ccc([N-]C(=O)[C@H]2Cc3c([nH]c4ccccc34)CN2)cc1S(=O)(=O)N(C)C

>  <Energy>  (37) 
97.3443846845009

>  <Genealogy>  (37) 
Cc1ccc([N-]C(=O)C2Cc3c([nH]c4ccccc34)CN2)cc1S(=O)(=O)N(C)C (protonated)
Cc1ccc([N-]C(=O)[C@H]2Cc3c([nH]c4ccccc34)CN2)cc1S(=O)(=O)N(C)C (chirality)
Cc1ccc([N-]C(=O)[C@H]2Cc3c([nH]c4ccccc34)CN2)cc1S(=O)(=O)N(C)C (3D coordinates assigned)
Cc1ccc([N-]C(=O)[C@H]2Cc3c([nH]c4ccccc34)CN2)cc1S(=O)(=O)N(C)C (nonaromatic ring conformer: 97.3443846845009 kcal/mol)

>  <smiles>  (37) 
Cc1ccc(NC(=O)C2Cc3c([nH]c4ccccc34)CN2)cc1S(=O)(=O)N(C)C

>  <score_type>  (37) 
oracle

>  <origin>  (37) 
adg

>  <m_score__min__energy>  (37) 
-10.640000000000001

>  <m_primary>  (37) 
energy

$$$$
37:0
     RDKit          3D

 54 56  0  0  0  0  0  0  0  0999 V2000
   58.9410   30.1230   50.5420 C   0  0  0  0  0  0  0  0  0  0  0  0
   59.8760   30.3030   49.5020 O   0  0  0  0  0  0  0  0  0  0  0  0
   60.6560   29.1330   49.3390 C   0  0  0  0  0  0  0  0  0  0  0  0
   60.1400   28.3060   48.1930 C   0  0  0  0  0  0  0  0  0  0  0  0
   60.7660   27.0930   47.8650 C   0  0  0  0  0  0  0  0  0  0  0  0
   60.3010   26.3290   46.7920 C   0  0  0  0  0  0  0  0  0  0  0  0
   59.2180   26.7710   46.0330 C   0  0  0  0  0  0  0  0  0  0  0  0
   58.5900   27.9890   46.3370 C   0  0  0  0  0  0  0  0  0  0  0  0
   57.4380   28.4700   45.4950 C   0  0  0  0  0  0  0  0  0  0  0  0
   57.9250   29.2770   44.3780 N   0  0  0  0  0  0  0  0  0  0  0  0
   56.9170   30.6660   44.0900 S   0  0  0  0  0  0  0  0  0  0  0  0
   56.7760   30.9600   42.6200 O   0  0  0  0  0  0  0  0  0  0  0  0
   55.5500   30.3970   44.6510 O   0  0  0  0  0  0  0  0  0  0  0  0
   57.6290   32.0580   44.8990 C   0  0  0  0  0  0  0  0  0  0  0  0
   57.6620   33.3020   44.2530 C   0  0  0  0  0  0  0  0  0  0  0  0
   58.2540   34.4020   44.8760 C   0  0  0  0  0  0  0  0  0  0  0  0
   58.8280   34.2670   46.1420 C   0  0  0  0  0  0  0  0  0  0  0  0
   58.8140   33.0250   46.7940 C   0  0  0  0  0  0  0  0  0  0  0  0
   59.4110   32.8620   48.1380 C   0  0  0  0  0  0  0  0  0  0  0  0
   58.6460   32.9390   49.1380 O   0  0  0  0  0  0  0  0  0  0  0  0
   60.8250   32.6190   48.3460 N   0  0  0  0  0  0  0  0  0  0  0  0
   61.5050   32.1330   47.1250 C   0  0  0  0  0  0  0  0  0  0  0  0
   62.9510   31.6770   47.4220 C   0  0  0  0  0  0  0  0  0  0  0  0
   63.5420   32.3590   48.6660 C   0  0  0  0  0  0  0  0  0  0  0  0
   63.0220   33.7880   48.8050 C   0  0  0  0  0  0  0  0  0  0  0  0
   61.4800   33.8290   48.9010 C   0  0  0  0  0  0  0  0  0  0  0  0
   58.2040   31.9250   46.1720 C   0  0  0  0  0  0  0  0  0  0  0  0
   59.0520   28.7500   47.4240 C   0  0  0  0  0  0  0  0  0  0  0  0
   59.4490   30.2208   51.5128 H   0  0  0  0  0  0  0  0  0  0  0  0
   58.1525   30.8858   50.4623 H   0  0  0  0  0  0  0  0  0  0  0  0
   58.4921   29.1219   50.4623 H   0  0  0  0  0  0  0  0  0  0  0  0
   61.6987   29.4193   49.1371 H   0  0  0  0  0  0  0  0  0  0  0  0
   60.5961   28.5364   50.2612 H   0  0  0  0  0  0  0  0  0  0  0  0
   61.6258   26.7429   48.4551 H   0  0  0  0  0  0  0  0  0  0  0  0
   60.7908   25.3755   46.5450 H   0  0  0  0  0  0  0  0  0  0  0  0
   58.8541   26.1624   45.1921 H   0  0  0  0  0  0  0  0  0  0  0  0
   56.8888   27.6016   45.1023 H   0  0  0  0  0  0  0  0  0  0  0  0
   56.7740   29.0872   46.1181 H   0  0  0  0  0  0  0  0  0  0  0  0
   57.2198   33.4115   43.2518 H   0  0  0  0  0  0  0  0  0  0  0  0
   58.2684   35.3778   44.3684 H   0  0  0  0  0  0  0  0  0  0  0  0
   59.2924   35.1370   46.6293 H   0  0  0  0  0  0  0  0  0  0  0  0
   60.8910   31.8560   49.0620 H   0  0  0  0  0  0  0  0  0  0  0  0
   60.9395   31.2827   46.7160 H   0  0  0  0  0  0  0  0  0  0  0  0
   61.5472   32.9611   46.4022 H   0  0  0  0  0  0  0  0  0  0  0  0
   62.9512   30.5889   47.5832 H   0  0  0  0  0  0  0  0  0  0  0  0
   63.5731   31.9595   46.5599 H   0  0  0  0  0  0  0  0  0  0  0  0
   63.2586   31.7844   49.5602 H   0  0  0  0  0  0  0  0  0  0  0  0
   64.6364   32.3928   48.5608 H   0  0  0  0  0  0  0  0  0  0  0  0
   63.4478   34.2352   49.7154 H   0  0  0  0  0  0  0  0  0  0  0  0
   63.3247   34.3514   47.9100 H   0  0  0  0  0  0  0  0  0  0  0  0
   61.1985   33.9236   49.9602 H   0  0  0  0  0  0  0  0  0  0  0  0
   61.1391   34.6872   48.3032 H   0  0  0  0  0  0  0  0  0  0  0  0
   58.1764   30.9526   46.6855 H   0  0  0  0  0  0  0  0  0  0  0  0
   58.5580   29.7004   47.6745 H   0  0  0  0  0  0  0  0  0  0  0  0
  1  2  1  0
  2  3  1  0
  3  4  1  0
  4  5  2  0
  5  6  1  0
  6  7  2  0
  7  8  1  0
  8  9  1  0
  9 10  1  0
 10 11  1  0
 11 12  2  0
 11 13  2  0
 11 14  1  0
 14 15  2  0
 15 16  1  0
 16 17  2  0
 17 18  1  0
 18 19  1  0
 19 20  2  0
 19 21  1  0
 21 22  1  0
 22 23  1  0
 23 24  1  0
 24 25  1  0
 25 26  1  0
 18 27  2  0
  8 28  2  0
 28  4  1  0
 27 14  1  0
 26 21  1  0
  1 29  1  0
  1 30  1  0
  1 31  1  0
  3 32  1  0
  3 33  1  0
  5 34  1  0
  6 35  1  0
  7 36  1  0
  9 37  1  0
  9 38  1  0
 15 39  1  0
 16 40  1  0
 17 41  1  0
 21 42  1  0
 22 43  1  0
 22 44  1  0
 23 45  1  0
 23 46  1  0
 24 47  1  0
 24 48  1  0
 25 49  1  0
 25 50  1  0
 26 51  1  0
 26 52  1  0
 27 53  1  0
 28 54  1  0
M  CHG  2  10  -1  21   1
M  END
>  <UniqueID>  (38) 
37

>  <SMILES>  (38) 
COCc1cccc(C[N-]S(=O)(=O)c2cccc(C(=O)[NH+]3CCCCC3)c2)c1

>  <Energy>  (38) 
71.4938016449945

>  <Genealogy>  (38) 
COCc1cccc(C[N-]S(=O)(=O)c2cccc(C(=O)[NH+]3CCCCC3)c2)c1 (protonated)
COCc1cccc(C[N-]S(=O)(=O)c2cccc(C(=O)[NH+]3CCCCC3)c2)c1 (3D coordinates assigned)
COCc1cccc(C[N-]S(=O)(=O)c2cccc(C(=O)[NH+]3CCCCC3)c2)c1 (nonaromatic ring conformer: 71.4938016449945 kcal/mol)

>  <smiles>  (38) 
COCc1cccc(CNS(=O)(=O)c2cccc(C(=O)N3CCCCC3)c2)c1

>  <score_type>  (38) 
oracle

>  <origin>  (38) 
adg

>  <m_score__min__energy>  (38) 
-9.6500000000000004

>  <m_primary>  (38) 
energy

$$$$
38:0
     RDKit          3D

 42 44  0  0  0  0  0  0  0  0999 V2000
   55.1480   29.3790   44.8800 N   0  0  0  0  0  0  0  0  0  0  0  0
   56.6550   29.5820   44.0600 S   0  0  0  0  0  0  0  0  0  0  0  0
   56.4140   30.1920   42.7080 O   0  0  0  0  0  0  0  0  0  0  0  0
   57.3040   28.2380   43.8730 O   0  0  0  0  0  0  0  0  0  0  0  0
   57.7010   30.6360   45.0060 C   0  0  0  0  0  0  0  0  0  0  0  0
   57.4320   32.0080   45.1080 C   0  0  0  0  0  0  0  0  0  0  0  0
   58.2650   32.8310   45.8710 C   0  0  0  0  0  0  0  0  0  0  0  0
   59.3590   32.2870   46.5490 C   0  0  0  0  0  0  0  0  0  0  0  0
   59.6440   30.9200   46.4540 C   0  0  0  0  0  0  0  0  0  0  0  0
   60.7530   30.4120   47.1530 O   0  0  0  0  0  0  0  0  0  0  0  0
   60.7130   29.9240   48.4660 C   0  0  0  0  0  0  0  0  0  0  0  0
   61.0680   30.7810   49.5100 C   0  0  0  0  0  0  0  0  0  0  0  0
   61.1330   30.3030   50.8190 C   0  0  0  0  0  0  0  0  0  0  0  0
   60.8310   28.9670   51.0730 C   0  0  0  0  0  0  0  0  0  0  0  0
   60.4390   28.1530   50.0590 N   0  0  0  0  0  0  0  0  0  0  0  0
   60.3460   28.5900   48.7720 C   0  0  0  0  0  0  0  0  0  0  0  0
   59.8370   27.6640   47.7450 C   0  0  0  0  0  0  0  0  0  0  0  0
   60.5930   27.2710   46.8140 O   0  0  0  0  0  0  0  0  0  0  0  0
   58.4790   27.2210   47.8060 N   0  0  0  0  0  0  0  0  0  0  0  0
   57.5150   27.4170   46.7300 C   0  0  0  0  0  0  0  0  0  0  0  0
   57.1800   26.0900   46.0990 C   0  0  0  0  0  0  0  0  0  0  0  0
   58.2140   25.1720   45.8490 C   0  0  0  0  0  0  0  0  0  0  0  0
   57.9310   23.9190   45.2970 C   0  0  0  0  0  0  0  0  0  0  0  0
   56.6140   23.5700   44.9980 C   0  0  0  0  0  0  0  0  0  0  0  0
   55.5750   24.4680   45.2520 C   0  0  0  0  0  0  0  0  0  0  0  0
   55.8500   25.7270   45.8000 C   0  0  0  0  0  0  0  0  0  0  0  0
   54.7980   26.6050   46.0410 O   0  0  0  0  0  0  0  0  0  0  0  0
   58.8210   30.1010   45.6530 C   0  0  0  0  0  0  0  0  0  0  0  0
   55.3020   28.6560   45.6210 H   0  0  0  0  0  0  0  0  0  0  0  0
   56.5639   32.4376   44.5867 H   0  0  0  0  0  0  0  0  0  0  0  0
   58.0589   33.9094   45.9379 H   0  0  0  0  0  0  0  0  0  0  0  0
   60.0006   32.9375   47.1615 H   0  0  0  0  0  0  0  0  0  0  0  0
   61.2971   31.8361   49.2995 H   0  0  0  0  0  0  0  0  0  0  0  0
   61.4197   30.9741   51.6421 H   0  0  0  0  0  0  0  0  0  0  0  0
   60.9101   28.5709   52.0961 H   0  0  0  0  0  0  0  0  0  0  0  0
   56.5990   27.8694   47.1378 H   0  0  0  0  0  0  0  0  0  0  0  0
   57.9491   28.0825   45.9693 H   0  0  0  0  0  0  0  0  0  0  0  0
   59.2532   25.4410   46.0892 H   0  0  0  0  0  0  0  0  0  0  0  0
   58.7469   23.2084   45.0985 H   0  0  0  0  0  0  0  0  0  0  0  0
   56.3932   22.5850   44.5610 H   0  0  0  0  0  0  0  0  0  0  0  0
   54.5373   24.1854   45.0209 H   0  0  0  0  0  0  0  0  0  0  0  0
   59.0612   29.0339   45.5359 H   0  0  0  0  0  0  0  0  0  0  0  0
  1  2  1  0
  2  3  2  0
  2  4  2  0
  2  5  1  0
  5  6  2  0
  6  7  1  0
  7  8  2  0
  8  9  1  0
  9 10  1  0
 10 11  1  0
 11 12  2  0
 12 13  1  0
 13 14  2  0
 14 15  1  0
 15 16  2  0
 16 17  1  0
 17 18  2  0
 17 19  1  0
 19 20  1  0
 20 21  1  0
 21 22  2  0
 22 23  1  0
 23 24  2  0
 24 25  1  0
 25 26  2  0
 26 27  1  0
  9 28  2  0
 28  5  1  0
 16 11  1  0
 26 21  1  0
  1 29  1  0
  6 30  1  0
  7 31  1  0
  8 32  1  0
 12 33  1  0
 13 34  1  0
 14 35  1  0
 20 36  1  0
 20 37  1  0
 22 38  1  0
 23 39  1  0
 24 40  1  0
 25 41  1  0
 28 42  1  0
M  CHG  3   1  -1  19  -1  27  -1
M  END
>  <UniqueID>  (39) 
38

>  <SMILES>  (39) 
[NH-]S(=O)(=O)c1cccc(Oc2cccnc2C(=O)[N-]Cc2ccccc2[O-])c1

>  <Energy>  (39) 
54.35924119717904

>  <Genealogy>  (39) 
[NH-]S(=O)(=O)c1cccc(Oc2cccnc2C(=O)[N-]Cc2ccccc2[O-])c1 (protonated)
[NH-]S(=O)(=O)c1cccc(Oc2cccnc2C(=O)[N-]Cc2ccccc2[O-])c1 (3D coordinates assigned)
[NH-]S(=O)(=O)c1cccc(Oc2cccnc2C(=O)[N-]Cc2ccccc2[O-])c1 (optimized conformer: 54.35924119717904 kcal/mol)

>  <smiles>  (39) 
NS(=O)(=O)c1cccc(Oc2cccnc2C(=O)NCc2ccccc2O)c1

>  <score_type>  (39) 
oracle

>  <origin>  (39) 
adg

>  <m_score__min__energy>  (39) 
-15.52

>  <m_primary>  (39) 
energy

$$$$
39:0
     RDKit          3D

 60 63  0  0  0  0  0  0  0  0999 V2000
   62.5060   33.4780   46.8650 C   0  0  0  0  0  0  0  0  0  0  0  0
   61.4370   34.1400   47.7370 C   0  0  0  0  0  0  0  0  0  0  0  0
   60.0890   33.5610   47.5120 N   0  0  0  0  0  0  0  0  0  0  0  0
   59.3070   33.6430   48.7690 C   0  0  0  0  0  0  0  0  0  0  0  0
   58.5540   32.3440   49.0430 C   0  0  0  0  0  0  0  0  0  0  0  0
   59.3840   34.2410   46.3920 C   0  0  0  0  0  0  0  0  0  0  0  0
   59.5820   33.4780   45.0750 C   0  0  0  0  0  0  0  0  0  0  0  0
   58.5230   32.4840   44.8740 N   0  0  0  0  0  0  0  0  0  0  0  0
   57.4290   32.6860   44.1000 C   0  0  0  0  0  0  0  0  0  0  0  0
   56.5840   31.5870   44.1340 C   0  0  0  0  0  0  0  0  0  0  0  0
   57.1960   30.6820   44.9700 C   0  0  0  0  0  0  0  0  0  0  0  0
   56.7870   29.3990   45.3470 C   0  0  0  0  0  0  0  0  0  0  0  0
   55.5960   28.8480   44.8900 O   0  0  0  0  0  0  0  0  0  0  0  0
   57.6500   28.7020   46.2020 C   0  0  0  0  0  0  0  0  0  0  0  0
   57.5980   27.4080   46.6830 C   0  0  0  0  0  0  0  0  0  0  0  0
   56.6200   26.3740   46.3200 C   0  0  0  0  0  0  0  0  0  0  0  0
   55.4310   26.7110   46.0860 O   0  0  0  0  0  0  0  0  0  0  0  0
   56.9940   24.9950   46.2020 N   0  0  0  0  0  0  0  0  0  0  0  0
   58.0790   24.4820   45.3680 C   0  0  0  0  0  0  0  0  0  0  0  0
   57.5860   23.4310   44.4090 C   0  0  0  0  0  0  0  0  0  0  0  0
   58.1920   22.1640   44.3770 C   0  0  0  0  0  0  0  0  0  0  0  0
   57.7140   21.1750   43.5120 C   0  0  0  0  0  0  0  0  0  0  0  0
   56.6390   21.4470   42.6630 C   0  0  0  0  0  0  0  0  0  0  0  0
   56.0430   22.7120   42.6730 C   0  0  0  0  0  0  0  0  0  0  0  0
   56.5180   23.7030   43.5360 C   0  0  0  0  0  0  0  0  0  0  0  0
   58.7510   27.2430   47.4450 C   0  0  0  0  0  0  0  0  0  0  0  0
   59.1640   25.9830   48.1370 C   0  0  0  0  0  0  0  0  0  0  0  0
   59.5010   28.3690   47.4290 N   0  0  0  0  0  0  0  0  0  0  0  0
   58.8320   29.2540   46.6650 C   0  0  0  0  0  0  0  0  0  0  0  0
   59.2460   30.5490   46.2870 C   0  0  0  0  0  0  0  0  0  0  0  0
   60.4380   31.1000   46.7430 O   0  0  0  0  0  0  0  0  0  0  0  0
   58.3820   31.2490   45.4120 C   0  0  0  0  0  0  0  0  0  0  0  0
   63.2646   33.0082   47.5083 H   0  0  0  0  0  0  0  0  0  0  0  0
   62.0381   32.7114   46.2299 H   0  0  0  0  0  0  0  0  0  0  0  0
   62.9838   34.2385   46.2299 H   0  0  0  0  0  0  0  0  0  0  0  0
   61.7086   34.0038   48.7942 H   0  0  0  0  0  0  0  0  0  0  0  0
   61.3950   35.2056   47.4672 H   0  0  0  0  0  0  0  0  0  0  0  0
   59.9936   33.8417   49.6051 H   0  0  0  0  0  0  0  0  0  0  0  0
   58.5712   34.4542   48.6663 H   0  0  0  0  0  0  0  0  0  0  0  0
   58.4665   32.1930   50.1291 H   0  0  0  0  0  0  0  0  0  0  0  0
   57.5494   32.4018   48.5987 H   0  0  0  0  0  0  0  0  0  0  0  0
   59.1034   31.5010   48.5987 H   0  0  0  0  0  0  0  0  0  0  0  0
   58.3092   34.2912   46.6208 H   0  0  0  0  0  0  0  0  0  0  0  0
   59.8007   35.2526   46.2776 H   0  0  0  0  0  0  0  0  0  0  0  0
   59.5657   34.1936   44.2397 H   0  0  0  0  0  0  0  0  0  0  0  0
   60.5482   32.9539   45.1178 H   0  0  0  0  0  0  0  0  0  0  0  0
   57.2367   33.6013   43.5210 H   0  0  0  0  0  0  0  0  0  0  0  0
   55.6274   31.4648   43.6048 H   0  0  0  0  0  0  0  0  0  0  0  0
   58.5135   25.3141   44.7945 H   0  0  0  0  0  0  0  0  0  0  0  0
   58.8334   24.0243   46.0249 H   0  0  0  0  0  0  0  0  0  0  0  0
   59.0465   21.9490   45.0355 H   0  0  0  0  0  0  0  0  0  0  0  0
   58.1854   20.1812   43.5002 H   0  0  0  0  0  0  0  0  0  0  0  0
   56.2611   20.6663   41.9865 H   0  0  0  0  0  0  0  0  0  0  0  0
   55.1993   22.9272   42.0008 H   0  0  0  0  0  0  0  0  0  0  0  0
   56.0543   24.7005   43.5323 H   0  0  0  0  0  0  0  0  0  0  0  0
   59.1158   26.1301   49.2261 H   0  0  0  0  0  0  0  0  0  0  0  0
   58.4865   25.1664   47.8469 H   0  0  0  0  0  0  0  0  0  0  0  0
   60.1934   25.7259   47.8469 H   0  0  0  0  0  0  0  0  0  0  0  0
   60.4290   28.4970   47.8890 H   0  0  0  0  0  0  0  0  0  0  0  0
   60.4750   31.9830   47.2370 H   0  0  0  0  0  0  0  0  0  0  0  0
  1  2  1  0
  2  3  1  0
  3  4  1  0
  4  5  1  0
  3  6  1  0
  6  7  1  0
  7  8  1  0
  8  9  1  0
  9 10  2  0
 10 11  1  0
 11 12  2  0
 12 13  1  0
 12 14  1  0
 14 15  1  0
 15 16  1  0
 16 17  2  0
 16 18  1  0
 18 19  1  0
 19 20  1  0
 20 21  2  0
 21 22  1  0
 22 23  2  0
 23 24  1  0
 24 25  2  0
 15 26  2  0
 26 27  1  0
 26 28  1  0
 28 29  1  0
 29 30  1  0
 30 31  1  0
 30 32  2  0
 32  8  1  0
 32 11  1  0
 29 14  2  0
 25 20  1  0
  1 33  1  0
  1 34  1  0
  1 35  1  0
  2 36  1  0
  2 37  1  0
  4 38  1  0
  4 39  1  0
  5 40  1  0
  5 41  1  0
  5 42  1  0
  6 43  1  0
  6 44  1  0
  7 45  1  0
  7 46  1  0
  9 47  1  0
 10 48  1  0
 19 49  1  0
 19 50  1  0
 21 51  1  0
 22 52  1  0
 23 53  1  0
 24 54  1  0
 25 55  1  0
 27 56  1  0
 27 57  1  0
 27 58  1  0
 28 59  1  0
 31 60  1  0
M  CHG  2  13  -1  18  -1
M  END
>  <UniqueID>  (40) 
39

>  <SMILES>  (40) 
CCN(CC)CCn1ccc2c([O-])c3c(C(=O)[N-]Cc4ccccc4)c(C)[nH]c3c(O)c21

>  <Energy>  (40) 
127.4646629271529

>  <Genealogy>  (40) 
CCN(CC)CCn1ccc2c([O-])c3c(C(=O)[N-]Cc4ccccc4)c(C)[nH]c3c(O)c21 (protonated)
CCN(CC)CCn1ccc2c([O-])c3c(C(=O)[N-]Cc4ccccc4)c(C)[nH]c3c(O)c21 (3D coordinates assigned)
CCN(CC)CCn1ccc2c([O-])c3c(C(=O)[N-]Cc4ccccc4)c(C)[nH]c3c(O)c21 (optimized conformer: 127.4646629271529 kcal/mol)

>  <smiles>  (40) 
CCN(CC)CCn1ccc2c(O)c3c(C(=O)NCc4ccccc4)c(C)[nH]c3c(O)c21

>  <score_type>  (40) 
oracle

>  <origin>  (40) 
adg

>  <m_score__min__energy>  (40) 
-13.4

>  <m_primary>  (40) 
energy

$$$$
40:0
     RDKit          3D

 52 55  0  0  0  0  0  0  0  0999 V2000
   56.2280   24.9140   47.8570 O   0  0  0  0  0  0  0  0  0  0  0  0
   57.1110   25.0260   46.9680 C   0  0  0  0  0  0  0  0  0  0  0  0
   58.2070   25.9240   47.1820 N   0  0  0  0  0  0  0  0  0  0  0  0
   58.5620   26.9950   46.2950 C   0  0  0  0  0  0  0  0  0  0  0  0
   57.5740   27.8230   45.7340 C   0  0  0  0  0  0  0  0  0  0  0  0
   57.9310   28.8950   44.9050 C   0  0  0  0  0  0  0  0  0  0  0  0
   56.7040   30.0010   44.2920 S   0  0  0  0  0  0  0  0  0  0  0  0
   56.9810   30.3500   42.8560 O   0  0  0  0  0  0  0  0  0  0  0  0
   55.3680   29.3190   44.3670 O   0  0  0  0  0  0  0  0  0  0  0  0
   56.6550   31.4450   45.2460 N   0  0  0  0  0  0  0  0  0  0  0  0
   57.7920   32.2940   45.3950 C   0  0  0  0  0  0  0  0  0  0  0  0
   57.9930   33.3310   44.4750 C   0  0  0  0  0  0  0  0  0  0  0  0
   59.1220   34.1500   44.5710 C   0  0  0  0  0  0  0  0  0  0  0  0
   60.0600   33.9300   45.5810 C   0  0  0  0  0  0  0  0  0  0  0  0
   59.8800   32.8810   46.4860 C   0  0  0  0  0  0  0  0  0  0  0  0
   58.7500   32.0600   46.3990 C   0  0  0  0  0  0  0  0  0  0  0  0
   58.5930   30.7160   47.5200 Cl  0  0  0  0  0  0  0  0  0  0  0  0
   59.2820   29.1240   44.6150 C   0  0  0  0  0  0  0  0  0  0  0  0
   60.2690   28.3100   45.1760 C   0  0  0  0  0  0  0  0  0  0  0  0
   59.9140   27.2540   46.0280 C   0  0  0  0  0  0  0  0  0  0  0  0
   60.9000   26.4460   46.5950 O   0  0  0  0  0  0  0  0  0  0  0  0
   57.0190   24.2070   45.7390 C   0  0  0  0  0  0  0  0  0  0  0  0
   58.1840   23.6030   45.2380 C   0  0  0  0  0  0  0  0  0  0  0  0
   58.1290   22.7780   44.1140 C   0  0  0  0  0  0  0  0  0  0  0  0
   56.9120   22.5550   43.4700 C   0  0  0  0  0  0  0  0  0  0  0  0
   55.7450   23.1540   43.9490 C   0  0  0  0  0  0  0  0  0  0  0  0
   55.7840   23.9900   45.0780 C   0  0  0  0  0  0  0  0  0  0  0  0
   54.5520   24.7110   45.4780 C   0  0  0  0  0  0  0  0  0  0  0  0
   54.6300   25.9480   45.7160 O   0  0  0  0  0  0  0  0  0  0  0  0
   53.2390   24.0290   45.6050 C   0  0  0  0  0  0  0  0  0  0  0  0
   52.1370   24.4230   44.8230 C   0  0  0  0  0  0  0  0  0  0  0  0
   50.9250   23.7290   44.9070 C   0  0  0  0  0  0  0  0  0  0  0  0
   50.7950   22.6460   45.7780 C   0  0  0  0  0  0  0  0  0  0  0  0
   51.8800   22.2470   46.5610 C   0  0  0  0  0  0  0  0  0  0  0  0
   53.0970   22.9290   46.4730 C   0  0  0  0  0  0  0  0  0  0  0  0
   56.5127   27.6279   45.9474 H   0  0  0  0  0  0  0  0  0  0  0  0
   57.2593   33.5017   43.6734 H   0  0  0  0  0  0  0  0  0  0  0  0
   59.2711   34.9678   43.8506 H   0  0  0  0  0  0  0  0  0  0  0  0
   60.9414   34.5829   45.6644 H   0  0  0  0  0  0  0  0  0  0  0  0
   60.6297   32.6996   47.2703 H   0  0  0  0  0  0  0  0  0  0  0  0
   59.5667   29.9474   43.9434 H   0  0  0  0  0  0  0  0  0  0  0  0
   61.3287   28.4980   44.9486 H   0  0  0  0  0  0  0  0  0  0  0  0
   60.6670   25.7000   47.2390 H   0  0  0  0  0  0  0  0  0  0  0  0
   59.1483   23.7820   45.7362 H   0  0  0  0  0  0  0  0  0  0  0  0
   59.0462   22.3031   43.7355 H   0  0  0  0  0  0  0  0  0  0  0  0
   56.8714   21.9059   42.5829 H   0  0  0  0  0  0  0  0  0  0  0  0
   54.7880   22.9701   43.4388 H   0  0  0  0  0  0  0  0  0  0  0  0
   52.2292   25.2817   44.1417 H   0  0  0  0  0  0  0  0  0  0  0  0
   50.0720   24.0378   44.2848 H   0  0  0  0  0  0  0  0  0  0  0  0
   49.8385   22.1073   45.8475 H   0  0  0  0  0  0  0  0  0  0  0  0
   51.7769   21.3944   47.2484 H   0  0  0  0  0  0  0  0  0  0  0  0
   53.9503   22.6041   47.0864 H   0  0  0  0  0  0  0  0  0  0  0  0
  1  2  2  0
  2  3  1  0
  3  4  1  0
  4  5  2  0
  5  6  1  0
  6  7  1  0
  7  8  2  0
  7  9  2  0
  7 10  1  0
 10 11  1  0
 11 12  2  0
 12 13  1  0
 13 14  2  0
 14 15  1  0
 15 16  2  0
 16 17  1  0
  6 18  2  0
 18 19  1  0
 19 20  2  0
 20 21  1  0
  2 22  1  0
 22 23  2  0
 23 24  1  0
 24 25  2  0
 25 26  1  0
 26 27  2  0
 27 28  1  0
 28 29  2  0
 28 30  1  0
 30 31  2  0
 31 32  1  0
 32 33  2  0
 33 34  1  0
 34 35  2  0
 20  4  1  0
 27 22  1  0
 35 30  1  0
 16 11  1  0
  5 36  1  0
 12 37  1  0
 13 38  1  0
 14 39  1  0
 15 40  1  0
 18 41  1  0
 19 42  1  0
 21 43  1  0
 23 44  1  0
 24 45  1  0
 25 46  1  0
 26 47  1  0
 31 48  1  0
 32 49  1  0
 33 50  1  0
 34 51  1  0
 35 52  1  0
M  CHG  2   3  -1  10  -1
M  END
>  <UniqueID>  (41) 
40

>  <SMILES>  (41) 
O=C([N-]c1cc(S(=O)(=O)[N-]c2ccccc2Cl)ccc1O)c1ccccc1C(=O)c1ccccc1

>  <Energy>  (41) 
75.45715030619404

>  <Genealogy>  (41) 
O=C([N-]c1cc(S(=O)(=O)[N-]c2ccccc2Cl)ccc1O)c1ccccc1C(=O)c1ccccc1 (protonated)
O=C([N-]c1cc(S(=O)(=O)[N-]c2ccccc2Cl)ccc1O)c1ccccc1C(=O)c1ccccc1 (3D coordinates assigned)
O=C([N-]c1cc(S(=O)(=O)[N-]c2ccccc2Cl)ccc1O)c1ccccc1C(=O)c1ccccc1 (optimized conformer: 75.45715030619404 kcal/mol)

>  <smiles>  (41) 
O=C(Nc1cc(S(=O)(=O)Nc2ccccc2Cl)ccc1O)c1ccccc1C(=O)c1ccccc1

>  <score_type>  (41) 
oracle

>  <origin>  (41) 
adg

>  <m_score__min__energy>  (41) 
-12.77

>  <m_primary>  (41) 
energy

$$$$
41:0
     RDKit          3D

 63 65  0  0  0  0  0  0  0  0999 V2000
   56.6390   29.0660   42.7730 N   0  0  0  0  0  0  0  0  0  0  0  0
   56.4030   29.5490   44.4180 S   0  0  0  0  0  0  0  0  0  0  0  0
   56.1180   28.3380   45.2630 O   0  0  0  0  0  0  0  0  0  0  0  0
   55.2250   30.4800   44.4910 O   0  0  0  0  0  0  0  0  0  0  0  0
   57.7720   30.3550   45.0110 O   0  0  0  0  0  0  0  0  0  0  0  0
   58.9180   29.7180   44.5010 C   0  0  0  0  0  0  0  0  0  0  0  0
   59.7320   29.1490   45.6610 C   0  0  0  0  0  0  0  0  0  0  0  0
   58.8340   28.8060   46.7790 N   0  0  0  0  0  0  0  0  0  0  0  0
   58.7060   29.9010   47.7540 C   0  0  0  0  0  0  0  0  0  0  0  0
   59.5610   29.6460   48.9670 C   0  0  0  0  0  0  0  0  0  0  0  0
   60.1450   28.3870   49.1730 C   0  0  0  0  0  0  0  0  0  0  0  0
   60.8760   28.1300   50.3340 C   0  0  0  0  0  0  0  0  0  0  0  0
   61.0340   29.1260   51.2970 C   0  0  0  0  0  0  0  0  0  0  0  0
   60.4700   30.3970   51.1020 C   0  0  0  0  0  0  0  0  0  0  0  0
   60.6980   31.4950   52.1110 C   0  0  0  0  0  0  0  0  0  0  0  0
   60.8860   32.7910   51.4390 N   0  0  0  0  0  0  0  0  0  0  0  0
   62.2550   33.2890   51.2050 C   0  0  0  0  0  0  0  0  0  0  0  0
   62.6770   33.0660   49.7740 C   0  0  0  0  0  0  0  0  0  0  0  0
   63.0590   34.1550   48.9680 C   0  0  0  0  0  0  0  0  0  0  0  0
   63.4060   33.9530   47.6290 C   0  0  0  0  0  0  0  0  0  0  0  0
   63.3860   32.6660   47.0870 C   0  0  0  0  0  0  0  0  0  0  0  0
   63.0330   31.5760   47.8870 C   0  0  0  0  0  0  0  0  0  0  0  0
   62.6880   31.7720   49.2270 C   0  0  0  0  0  0  0  0  0  0  0  0
   59.7420   33.5970   51.0870 C   0  0  0  0  0  0  0  0  0  0  0  0
   59.1420   34.2720   51.9700 O   0  0  0  0  0  0  0  0  0  0  0  0
   59.2860   33.6240   49.7660 O   0  0  0  0  0  0  0  0  0  0  0  0
   59.8490   34.4710   48.7710 C   0  0  0  0  0  0  0  0  0  0  0  0
   59.1980   34.1790   47.4510 C   0  0  0  0  0  0  0  0  0  0  0  0
   58.0650   33.3530   47.3800 C   0  0  0  0  0  0  0  0  0  0  0  0
   57.4550   33.1000   46.1480 C   0  0  0  0  0  0  0  0  0  0  0  0
   57.9630   33.6810   44.9810 C   0  0  0  0  0  0  0  0  0  0  0  0
   59.0770   34.5220   45.0480 C   0  0  0  0  0  0  0  0  0  0  0  0
   59.6920   34.7730   46.2770 C   0  0  0  0  0  0  0  0  0  0  0  0
   59.7250   30.6470   49.9370 C   0  0  0  0  0  0  0  0  0  0  0  0
   56.6140   28.0190   42.7470 H   0  0  0  0  0  0  0  0  0  0  0  0
   57.6090   29.3500   42.5070 H   0  0  0  0  0  0  0  0  0  0  0  0
   58.6168   28.9022   43.8274 H   0  0  0  0  0  0  0  0  0  0  0  0
   59.5271   30.4435   43.9419 H   0  0  0  0  0  0  0  0  0  0  0  0
   60.2614   28.2445   45.3268 H   0  0  0  0  0  0  0  0  0  0  0  0
   60.4606   29.9013   45.9974 H   0  0  0  0  0  0  0  0  0  0  0  0
   57.8800   28.6300   46.3880 H   0  0  0  0  0  0  0  0  0  0  0  0
   59.0234   30.8423   47.2816 H   0  0  0  0  0  0  0  0  0  0  0  0
   57.6552   29.9652   48.0730 H   0  0  0  0  0  0  0  0  0  0  0  0
   60.0261   27.5983   48.4155 H   0  0  0  0  0  0  0  0  0  0  0  0
   61.3285   27.1395   50.4896 H   0  0  0  0  0  0  0  0  0  0  0  0
   61.6034   28.9149   52.2142 H   0  0  0  0  0  0  0  0  0  0  0  0
   59.8261   31.5580   52.7787 H   0  0  0  0  0  0  0  0  0  0  0  0
   61.6054   31.2616   52.6874 H   0  0  0  0  0  0  0  0  0  0  0  0
   62.2880   34.3662   51.4256 H   0  0  0  0  0  0  0  0  0  0  0  0
   62.9441   32.7384   51.8622 H   0  0  0  0  0  0  0  0  0  0  0  0
   63.0846   35.1690   49.3935 H   0  0  0  0  0  0  0  0  0  0  0  0
   63.6952   34.8089   47.0014 H   0  0  0  0  0  0  0  0  0  0  0  0
   63.6482   32.5103   46.0301 H   0  0  0  0  0  0  0  0  0  0  0  0
   63.0267   30.5618   47.4612 H   0  0  0  0  0  0  0  0  0  0  0  0
   62.4239   30.9093   49.8562 H   0  0  0  0  0  0  0  0  0  0  0  0
   59.6761   35.5230   49.0421 H   0  0  0  0  0  0  0  0  0  0  0  0
   60.9313   34.2885   48.6985 H   0  0  0  0  0  0  0  0  0  0  0  0
   57.6560   32.9035   48.2968 H   0  0  0  0  0  0  0  0  0  0  0  0
   56.5742   32.4431   46.0959 H   0  0  0  0  0  0  0  0  0  0  0  0
   57.4858   33.4759   44.0114 H   0  0  0  0  0  0  0  0  0  0  0  0
   59.4702   34.9870   44.1319 H   0  0  0  0  0  0  0  0  0  0  0  0
   60.5666   35.4384   46.3260 H   0  0  0  0  0  0  0  0  0  0  0  0
   59.2667   31.6352   49.7841 H   0  0  0  0  0  0  0  0  0  0  0  0
  1  2  1  0
  2  3  2  0
  2  4  2  0
  2  5  1  0
  5  6  1  0
  6  7  1  0
  7  8  1  0
  8  9  1  0
  9 10  1  0
 10 11  2  0
 11 12  1  0
 12 13  2  0
 13 14  1  0
 14 15  1  0
 15 16  1  0
 16 17  1  0
 17 18  1  0
 18 19  2  0
 19 20  1  0
 20 21  2  0
 21 22  1  0
 22 23  2  0
 16 24  1  0
 24 25  2  0
 24 26  1  0
 26 27  1  0
 27 28  1  0
 28 29  2  0
 29 30  1  0
 30 31  2  0
 31 32  1  0
 32 33  2  0
 14 34  2  0
 34 10  1  0
 23 18  1  0
 33 28  1  0
  1 35  1  0
  1 36  1  0
  6 37  1  0
  6 38  1  0
  7 39  1  0
  7 40  1  0
  8 41  1  0
  9 42  1  0
  9 43  1  0
 11 44  1  0
 12 45  1  0
 13 46  1  0
 15 47  1  0
 15 48  1  0
 17 49  1  0
 17 50  1  0
 19 51  1  0
 20 52  1  0
 21 53  1  0
 22 54  1  0
 23 55  1  0
 27 56  1  0
 27 57  1  0
 29 58  1  0
 30 59  1  0
 31 60  1  0
 32 61  1  0
 33 62  1  0
 34 63  1  0
M  END
>  <UniqueID>  (42) 
41

>  <SMILES>  (42) 
NS(=O)(=O)OCCNCc1cccc(CN(Cc2ccccc2)C(=O)OCc2ccccc2)c1

>  <Energy>  (42) 
51.90125585030454

>  <Genealogy>  (42) 
NS(=O)(=O)OCCNCc1cccc(CN(Cc2ccccc2)C(=O)OCc2ccccc2)c1 (3D coordinates assigned)
NS(=O)(=O)OCCNCc1cccc(CN(Cc2ccccc2)C(=O)OCc2ccccc2)c1 (optimized conformer: 51.90125585030454 kcal/mol)

>  <smiles>  (42) 
NS(=O)(=O)OCCNCc1cccc(CN(Cc2ccccc2)C(=O)OCc2ccccc2)c1

>  <score_type>  (42) 
oracle

>  <origin>  (42) 
adg

>  <m_score__min__energy>  (42) 
-8.8599999999999994

>  <m_primary>  (42) 
energy

$$$$
42:0
     RDKit          3D

 49 51  0  0  0  0  0  0  0  0999 V2000
   60.6510   34.0240   47.1840 C   0  0  0  0  0  0  0  0  0  0  0  0
   61.0060   34.2140   48.6590 C   0  0  0  0  0  0  0  0  0  0  0  0
   62.1730   33.3940   49.0730 N   0  0  0  0  0  0  0  0  0  0  0  0
   62.9920   34.1700   50.0380 C   0  0  0  0  0  0  0  0  0  0  0  0
   64.3110   33.4650   50.3460 C   0  0  0  0  0  0  0  0  0  0  0  0
   62.9850   32.9620   47.9020 C   0  0  0  0  0  0  0  0  0  0  0  0
   63.0200   31.4300   47.7890 C   0  0  0  0  0  0  0  0  0  0  0  0
   61.7310   30.8480   48.1610 N   0  0  0  0  0  0  0  0  0  0  0  0
   61.1400   31.0390   49.3360 N   0  0  0  0  0  0  0  0  0  0  0  0
   59.9020   30.4930   49.3130 C   0  0  0  0  0  0  0  0  0  0  0  0
   59.7120   29.9470   48.0610 C   0  0  0  0  0  0  0  0  0  0  0  0
   58.5940   29.3750   47.4620 C   0  0  0  0  0  0  0  0  0  0  0  0
   58.6770   29.0450   46.0950 C   0  0  0  0  0  0  0  0  0  0  0  0
   57.4980   28.5930   45.4200 N   0  0  0  0  0  0  0  0  0  0  0  0
   56.5790   29.6060   44.3530 S   0  0  0  0  0  0  0  0  0  0  0  0
   55.1680   29.7090   44.8600 O   0  0  0  0  0  0  0  0  0  0  0  0
   56.5570   29.0080   42.9740 O   0  0  0  0  0  0  0  0  0  0  0  0
   57.2960   31.2150   44.3310 C   0  0  0  0  0  0  0  0  0  0  0  0
   57.3960   31.9800   45.5020 C   0  0  0  0  0  0  0  0  0  0  0  0
   57.8900   33.2830   45.4440 C   0  0  0  0  0  0  0  0  0  0  0  0
   58.2940   33.8050   44.2150 C   0  0  0  0  0  0  0  0  0  0  0  0
   58.1960   33.0500   43.0880 N   0  0  0  0  0  0  0  0  0  0  0  0
   57.7080   31.7810   43.1180 C   0  0  0  0  0  0  0  0  0  0  0  0
   59.8980   29.2320   45.3960 C   0  0  0  0  0  0  0  0  0  0  0  0
   61.0090   29.8100   46.0330 C   0  0  0  0  0  0  0  0  0  0  0  0
   60.8710   30.1770   47.3700 C   0  0  0  0  0  0  0  0  0  0  0  0
   59.6838   33.5063   47.1034 H   0  0  0  0  0  0  0  0  0  0  0  0
   60.5831   35.0063   46.6937 H   0  0  0  0  0  0  0  0  0  0  0  0
   61.4307   33.4226   46.6937 H   0  0  0  0  0  0  0  0  0  0  0  0
   61.2411   35.2747   48.8315 H   0  0  0  0  0  0  0  0  0  0  0  0
   60.1408   33.8894   49.2557 H   0  0  0  0  0  0  0  0  0  0  0  0
   63.2073   35.1598   49.6092 H   0  0  0  0  0  0  0  0  0  0  0  0
   62.4240   34.2645   50.9752 H   0  0  0  0  0  0  0  0  0  0  0  0
   64.4432   33.3943   51.4357 H   0  0  0  0  0  0  0  0  0  0  0  0
   64.2966   32.4543   49.9121 H   0  0  0  0  0  0  0  0  0  0  0  0
   65.1433   34.0385   49.9121 H   0  0  0  0  0  0  0  0  0  0  0  0
   62.5441   33.3800   46.9850 H   0  0  0  0  0  0  0  0  0  0  0  0
   64.0142   33.3263   48.0366 H   0  0  0  0  0  0  0  0  0  0  0  0
   63.2547   31.1510   46.7512 H   0  0  0  0  0  0  0  0  0  0  0  0
   63.7894   31.0453   48.4746 H   0  0  0  0  0  0  0  0  0  0  0  0
   61.5580   31.5670   50.1340 H   0  0  0  0  0  0  0  0  0  0  0  0
   59.1790   30.4860   50.1420 H   0  0  0  0  0  0  0  0  0  0  0  0
   57.6754   29.1866   48.0370 H   0  0  0  0  0  0  0  0  0  0  0  0
   57.0848   31.5523   46.4665 H   0  0  0  0  0  0  0  0  0  0  0  0
   57.9603   33.8923   46.3572 H   0  0  0  0  0  0  0  0  0  0  0  0
   58.6924   34.8287   44.1573 H   0  0  0  0  0  0  0  0  0  0  0  0
   57.6367   31.1981   42.1879 H   0  0  0  0  0  0  0  0  0  0  0  0
   59.9754   28.9209   44.3437 H   0  0  0  0  0  0  0  0  0  0  0  0
   61.9553   29.9674   45.4946 H   0  0  0  0  0  0  0  0  0  0  0  0
  1  2  1  0
  2  3  1  0
  3  4  1  0
  4  5  1  0
  3  6  1  0
  6  7  1  0
  7  8  1  0
  8  9  1  0
  9 10  2  0
 10 11  1  0
 11 12  2  0
 12 13  1  0
 13 14  1  0
 14 15  1  0
 15 16  2  0
 15 17  2  0
 15 18  1  0
 18 19  2  0
 19 20  1  0
 20 21  2  0
 21 22  1  0
 22 23  2  0
 13 24  2  0
 24 25  1  0
 25 26  2  0
 26  8  1  0
 26 11  1  0
 23 18  1  0
  1 27  1  0
  1 28  1  0
  1 29  1  0
  2 30  1  0
  2 31  1  0
  4 32  1  0
  4 33  1  0
  5 34  1  0
  5 35  1  0
  5 36  1  0
  6 37  1  0
  6 38  1  0
  7 39  1  0
  7 40  1  0
  9 41  1  0
 10 42  1  0
 12 43  1  0
 19 44  1  0
 20 45  1  0
 21 46  1  0
 23 47  1  0
 24 48  1  0
 25 49  1  0
M  CHG  2   9   1  14  -1
M  END
>  <UniqueID>  (43) 
42

>  <SMILES>  (43) 
CCN(CC)CCn1[nH+]cc2cc([N-]S(=O)(=O)c3cccnc3)ccc21

>  <Energy>  (43) 
89.17840137719921

>  <Genealogy>  (43) 
CCN(CC)CCn1[nH+]cc2cc([N-]S(=O)(=O)c3cccnc3)ccc21 (protonated)
CCN(CC)CCn1[nH+]cc2cc([N-]S(=O)(=O)c3cccnc3)ccc21 (3D coordinates assigned)
CCN(CC)CCn1[nH+]cc2cc([N-]S(=O)(=O)c3cccnc3)ccc21 (optimized conformer: 89.17840137719921 kcal/mol)

>  <smiles>  (43) 
CCN(CC)CCn1ncc2cc(NS(=O)(=O)c3cccnc3)ccc21

>  <score_type>  (43) 
oracle

>  <origin>  (43) 
adg

>  <m_score__min__energy>  (43) 
-8.0700000000000003

>  <m_primary>  (43) 
energy

$$$$
43:0
     RDKit          3D

 48 51  0  0  1  0  0  0  0  0999 V2000
   57.6940   33.8130   44.4970 C   0  0  0  0  0  0  0  0  0  0  0  0
   58.3840   33.5310   45.7460 N   0  0  0  0  0  0  0  0  0  0  0  0
   59.1110   34.3740   46.4980 C   0  0  0  0  0  0  0  0  0  0  0  0
   59.2790   35.5820   46.1730 O   0  0  0  0  0  0  0  0  0  0  0  0
   59.5950   33.7240   47.5940 N   0  0  0  0  0  0  0  0  0  0  0  0
   60.4030   34.3690   48.5870 C   0  0  0  0  0  0  0  0  0  0  0  0
   61.7920   33.9120   48.6580 C   0  0  0  0  0  0  0  0  0  0  0  0
   62.4140   33.4860   47.4800 C   0  0  0  0  0  0  0  0  0  0  0  0
   63.7280   33.0450   47.4740 C   0  0  0  0  0  0  0  0  0  0  0  0
   64.4740   33.0110   48.6430 C   0  0  0  0  0  0  0  0  0  0  0  0
   63.8790   33.4230   49.7950 C   0  0  0  0  0  0  0  0  0  0  0  0
   62.5660   33.8620   49.7910 C   0  0  0  0  0  0  0  0  0  0  0  0
   59.1380   32.4760   47.4760 C   0  0  0  0  0  0  0  0  0  0  0  0
   59.2900   31.3670   48.2770 C   0  0  0  0  0  0  0  0  0  0  0  0
   59.9650   31.4570   49.3230 O   0  0  0  0  0  0  0  0  0  0  0  0
   58.7000   30.2200   47.9010 N   0  0  0  0  0  0  0  0  0  0  0  0
   57.9800   30.0750   46.8160 N   0  0  0  0  0  0  0  0  0  0  0  0
   57.7870   31.1160   45.9830 C   0  0  0  0  0  0  0  0  0  0  0  0
   57.0820   30.9930   44.9110 N   0  0  0  0  0  0  0  0  0  0  0  0
   56.5640   29.7360   44.4740 C   0  0  0  0  0  0  0  0  0  0  0  0
   55.4210   29.3950   44.8610 O   0  0  0  0  0  0  0  0  0  0  0  0
   57.3370   28.8320   43.5800 C   0  0  0  0  0  0  0  0  0  0  0  0
   58.4250   28.2580   44.4480 C   0  0  0  0  0  0  0  0  0  0  0  0
   58.1680   27.1140   45.1970 C   0  0  0  0  0  0  0  0  0  0  0  0
   59.1420   26.5630   46.0010 C   0  0  0  0  0  0  0  0  0  0  0  0
   60.3950   27.1650   46.0580 C   0  0  0  0  0  0  0  0  0  0  0  0
   60.6390   28.3040   45.3070 C   0  0  0  0  0  0  0  0  0  0  0  0
   59.6720   28.8480   44.5110 C   0  0  0  0  0  0  0  0  0  0  0  0
   58.3790   32.3220   46.3330 C   0  0  0  0  0  0  0  0  0  0  0  0
   56.6957   34.2210   44.7136 H   0  0  0  0  0  0  0  0  0  0  0  0
   58.2720   34.5470   43.9164 H   0  0  0  0  0  0  0  0  0  0  0  0
   57.5925   32.8842   43.9164 H   0  0  0  0  0  0  0  0  0  0  0  0
   60.4109   35.4474   48.3704 H   0  0  0  0  0  0  0  0  0  0  0  0
   59.9504   34.1172   49.5574 H   0  0  0  0  0  0  0  0  0  0  0  0
   61.8477   33.5013   46.5371 H   0  0  0  0  0  0  0  0  0  0  0  0
   64.1857   32.7174   46.5289 H   0  0  0  0  0  0  0  0  0  0  0  0
   65.5168   32.6609   48.6387 H   0  0  0  0  0  0  0  0  0  0  0  0
   64.4459   33.4072   50.7375 H   0  0  0  0  0  0  0  0  0  0  0  0
   62.1207   34.1869   50.7429 H   0  0  0  0  0  0  0  0  0  0  0  0
   58.8440   29.3900   48.5490 H   0  0  0  0  0  0  0  0  0  0  0  0
   57.5440   29.1510   46.5760 H   0  0  0  0  0  0  0  0  0  0  0  0
   56.6919   28.0312   43.1893 H   0  0  0  0  0  0  0  0  0  0  0  0
   57.7437   29.3644   42.7075 H   0  0  0  0  0  0  0  0  0  0  0  0
   57.1749   26.6436   45.1467 H   0  0  0  0  0  0  0  0  0  0  0  0
   58.9315   25.6584   46.5904 H   0  0  0  0  0  0  0  0  0  0  0  0
   61.1857   26.7404   46.6940 H   0  0  0  0  0  0  0  0  0  0  0  0
   61.6302   28.7787   45.3530 H   0  0  0  0  0  0  0  0  0  0  0  0
   59.8854   29.7524   43.9224 H   0  0  0  0  0  0  0  0  0  0  0  0
  1  2  1  0
  2  3  1  0
  3  4  2  0
  3  5  1  0
  5  6  1  0
  6  7  1  0
  7  8  2  0
  8  9  1  0
  9 10  2  0
 10 11  1  0
 11 12  2  0
  5 13  1  0
 13 14  1  0
 14 15  2  0
 14 16  1  0
 16 17  1  0
 17 18  1  0
 18 19  2  0
 19 20  1  0
 20 21  2  0
 20 22  1  0
 22 23  1  0
 23 24  2  0
 24 25  1  0
 25 26  2  0
 26 27  1  0
 27 28  2  0
 18 29  1  0
 29  2  1  0
 12  7  1  0
 29 13  2  0
 28 23  1  0
  1 30  1  0
  1 31  1  0
  1 32  1  0
  6 33  1  0
  6 34  1  0
  8 35  1  0
  9 36  1  0
 10 37  1  0
 11 38  1  0
 12 39  1  0
 16 40  1  0
 17 41  1  0
 22 42  1  0
 22 43  1  0
 24 44  1  0
 25 45  1  0
 26 46  1  0
 27 47  1  0
 28 48  1  0
M  END
>  <smiles>  (44) 
Cn1c(=O)n(Cc2ccccc2)c2c(=O)[nH][nH]c(=NC(=O)Cc3ccccc3)c21

>  <score_type>  (44) 
oracle

>  <origin>  (44) 
adg

>  <m_score__min__energy>  (44) 
-8.8800000000000008

>  <m_primary>  (44) 
energy

$$$$
44:0
     RDKit          3D

 48 50  0  0  0  0  0  0  0  0999 V2000
   59.3690   27.2770   47.7830 C   0  0  0  0  0  0  0  0  0  0  0  0
   58.7850   28.4530   47.0430 C   0  0  0  0  0  0  0  0  0  0  0  0
   59.2720   29.7280   47.3590 C   0  0  0  0  0  0  0  0  0  0  0  0
   58.7430   30.8610   46.7580 C   0  0  0  0  0  0  0  0  0  0  0  0
   57.7020   30.7540   45.8380 C   0  0  0  0  0  0  0  0  0  0  0  0
   57.0910   31.9510   45.3510 N   0  0  0  0  0  0  0  0  0  0  0  0
   58.0780   33.3230   44.9800 S   0  0  0  0  0  0  0  0  0  0  0  0
   57.2140   34.5420   44.8310 O   0  0  0  0  0  0  0  0  0  0  0  0
   58.8240   33.0870   43.6960 O   0  0  0  0  0  0  0  0  0  0  0  0
   59.2030   33.5550   46.3150 C   0  0  0  0  0  0  0  0  0  0  0  0
   58.7310   34.0130   47.5490 C   0  0  0  0  0  0  0  0  0  0  0  0
   59.5670   34.0050   48.6680 C   0  0  0  0  0  0  0  0  0  0  0  0
   60.8830   33.5270   48.5710 C   0  0  0  0  0  0  0  0  0  0  0  0
   61.3730   33.0990   47.3170 C   0  0  0  0  0  0  0  0  0  0  0  0
   60.5230   33.1060   46.2000 C   0  0  0  0  0  0  0  0  0  0  0  0
   62.7530   32.5070   47.2070 C   0  0  0  0  0  0  0  0  0  0  0  0
   63.8390   33.5540   47.5170 C   0  0  0  0  0  0  0  0  0  0  0  0
   64.1520   33.6880   48.9520 N   0  0  0  0  0  0  0  0  0  0  0  0
   63.0690   34.2970   49.7430 C   0  0  0  0  0  0  0  0  0  0  0  0
   61.7560   33.4650   49.8090 C   0  0  0  0  0  0  0  0  0  0  0  0
   57.1900   29.4830   45.4860 C   0  0  0  0  0  0  0  0  0  0  0  0
   56.0130   29.4020   44.5400 C   0  0  0  0  0  0  0  0  0  0  0  0
   57.7780   28.3090   46.0470 C   0  0  0  0  0  0  0  0  0  0  0  0
   57.2220   26.6760   45.5670 S   0  0  0  0  0  0  0  0  0  0  0  0
   55.5570   26.4940   45.9920 N   0  0  0  0  0  0  0  0  0  0  0  0
   58.0270   25.6180   46.2680 O   0  0  0  0  0  0  0  0  0  0  0  0
   57.3850   26.4500   44.0910 O   0  0  0  0  0  0  0  0  0  0  0  0
   59.2846   27.4470   48.8665 H   0  0  0  0  0  0  0  0  0  0  0  0
   58.8199   26.3634   47.5113 H   0  0  0  0  0  0  0  0  0  0  0  0
   60.4287   27.1624   47.5113 H   0  0  0  0  0  0  0  0  0  0  0  0
   60.0844   29.8321   48.0932 H   0  0  0  0  0  0  0  0  0  0  0  0
   59.1487   31.8519   47.0098 H   0  0  0  0  0  0  0  0  0  0  0  0
   57.6982   34.3807   47.6388 H   0  0  0  0  0  0  0  0  0  0  0  0
   59.1910   34.3762   49.6328 H   0  0  0  0  0  0  0  0  0  0  0  0
   60.8976   32.7558   45.2268 H   0  0  0  0  0  0  0  0  0  0  0  0
   62.8436   31.6750   47.9208 H   0  0  0  0  0  0  0  0  0  0  0  0
   62.8971   32.1532   46.1755 H   0  0  0  0  0  0  0  0  0  0  0  0
   64.7591   33.2648   46.9880 H   0  0  0  0  0  0  0  0  0  0  0  0
   63.4468   34.5266   47.1850 H   0  0  0  0  0  0  0  0  0  0  0  0
   64.4520   32.7720   49.3590 H   0  0  0  0  0  0  0  0  0  0  0  0
   63.4351   34.4391   50.7705 H   0  0  0  0  0  0  0  0  0  0  0  0
   62.8111   35.2393   49.2374 H   0  0  0  0  0  0  0  0  0  0  0  0
   62.0291   32.4131   49.9791 H   0  0  0  0  0  0  0  0  0  0  0  0
   61.1597   33.9044   50.6222 H   0  0  0  0  0  0  0  0  0  0  0  0
   55.0804   29.3378   45.1197 H   0  0  0  0  0  0  0  0  0  0  0  0
   55.9896   30.3007   43.9061 H   0  0  0  0  0  0  0  0  0  0  0  0
   56.1129   28.5086   43.9061 H   0  0  0  0  0  0  0  0  0  0  0  0
   55.1510   27.4540   46.0670 H   0  0  0  0  0  0  0  0  0  0  0  0
  1  2  1  0
  2  3  2  0
  3  4  1  0
  4  5  2  0
  5  6  1  0
  6  7  1  0
  7  8  2  0
  7  9  2  0
  7 10  1  0
 10 11  2  0
 11 12  1  0
 12 13  2  0
 13 14  1  0
 14 15  2  0
 14 16  1  0
 16 17  1  0
 17 18  1  0
 18 19  1  0
 19 20  1  0
  5 21  1  0
 21 22  1  0
 21 23  2  0
 23 24  1  0
 24 25  1  0
 24 26  2  0
 24 27  2  0
 23  2  1  0
 15 10  1  0
 20 13  1  0
  1 28  1  0
  1 29  1  0
  1 30  1  0
  3 31  1  0
  4 32  1  0
 11 33  1  0
 12 34  1  0
 15 35  1  0
 16 36  1  0
 16 37  1  0
 17 38  1  0
 17 39  1  0
 18 40  1  0
 19 41  1  0
 19 42  1  0
 20 43  1  0
 20 44  1  0
 22 45  1  0
 22 46  1  0
 22 47  1  0
 25 48  1  0
M  CHG  2   6  -1  25  -1
M  END
>  <UniqueID>  (45) 
43

>  <SMILES>  (45) 
Cc1ccc([N-]S(=O)(=O)c2ccc3c(c2)CCNCC3)c(C)c1S([NH-])(=O)=O

>  <Energy>  (45) 
71.63561802372186

>  <Genealogy>  (45) 
Cc1ccc([N-]S(=O)(=O)c2ccc3c(c2)CCNCC3)c(C)c1S([NH-])(=O)=O (protonated)
Cc1ccc([N-]S(=O)(=O)c2ccc3c(c2)CCNCC3)c(C)c1S([NH-])(=O)=O (3D coordinates assigned)
Cc1ccc([N-]S(=O)(=O)c2ccc3c(c2)CCNCC3)c(C)c1S([NH-])(=O)=O (nonaromatic ring conformer: 71.63561802372186 kcal/mol)

>  <smiles>  (45) 
Cc1ccc(NS(=O)(=O)c2ccc3c(c2)CCNCC3)c(C)c1S(N)(=O)=O

>  <score_type>  (45) 
oracle

>  <origin>  (45) 
adg

>  <m_score__min__energy>  (45) 
-11.640000000000001

>  <m_primary>  (45) 
energy

$$$$
45:0
     RDKit          3D

 42 44  0  0  0  0  0  0  0  0999 V2000
   54.7460   26.3210   45.9960 N   0  0  0  0  0  0  0  0  0  0  0  0
   56.3150   25.6220   46.1840 S   0  0  0  0  0  0  0  0  0  0  0  0
   56.5810   24.6800   45.0440 O   0  0  0  0  0  0  0  0  0  0  0  0
   56.3710   24.8480   47.4710 O   0  0  0  0  0  0  0  0  0  0  0  0
   57.5280   26.8980   46.2060 C   0  0  0  0  0  0  0  0  0  0  0  0
   58.5310   26.9060   47.1840 C   0  0  0  0  0  0  0  0  0  0  0  0
   59.4850   27.9260   47.2020 C   0  0  0  0  0  0  0  0  0  0  0  0
   59.4520   28.9340   46.2350 C   0  0  0  0  0  0  0  0  0  0  0  0
   58.4770   28.9190   45.2260 C   0  0  0  0  0  0  0  0  0  0  0  0
   58.4670   29.9700   44.2450 N   0  0  0  0  0  0  0  0  0  0  0  0
   57.3910   30.9100   44.0770 C   0  0  0  0  0  0  0  0  0  0  0  0
   56.3760   30.8680   44.8230 O   0  0  0  0  0  0  0  0  0  0  0  0
   57.4450   31.9260   42.9740 C   0  0  0  0  0  0  0  0  0  0  0  0
   58.0310   33.1780   43.4480 N   0  0  0  0  0  0  0  0  0  0  0  0
   57.7780   33.7980   44.7180 C   0  0  0  0  0  0  0  0  0  0  0  0
   56.7330   34.4870   44.8580 O   0  0  0  0  0  0  0  0  0  0  0  0
   58.7240   33.6960   45.8450 C   0  0  0  0  0  0  0  0  0  0  0  0
   58.2420   33.4090   47.1340 C   0  0  0  0  0  0  0  0  0  0  0  0
   59.1250   33.3310   48.2170 C   0  0  0  0  0  0  0  0  0  0  0  0
   60.4920   33.5310   48.0150 C   0  0  0  0  0  0  0  0  0  0  0  0
   60.9840   33.7700   46.7250 C   0  0  0  0  0  0  0  0  0  0  0  0
   60.1040   33.8590   45.6430 C   0  0  0  0  0  0  0  0  0  0  0  0
   62.3620   33.9190   46.5400 O   0  0  0  0  0  0  0  0  0  0  0  0
   63.2870   33.5700   47.5730 C   0  0  0  0  0  0  0  0  0  0  0  0
   62.7290   33.9690   48.9450 C   0  0  0  0  0  0  0  0  0  0  0  0
   61.3860   33.4970   49.0890 O   0  0  0  0  0  0  0  0  0  0  0  0
   57.5010   27.9060   45.2310 C   0  0  0  0  0  0  0  0  0  0  0  0
   54.6670   27.0860   46.7020 H   0  0  0  0  0  0  0  0  0  0  0  0
   58.5673   26.1072   47.9394 H   0  0  0  0  0  0  0  0  0  0  0  0
   60.2637   27.9358   47.9789 H   0  0  0  0  0  0  0  0  0  0  0  0
   60.1951   29.7445   46.2649 H   0  0  0  0  0  0  0  0  0  0  0  0
   59.2180   29.9570   43.5190 H   0  0  0  0  0  0  0  0  0  0  0  0
   58.0571   31.5309   42.1498 H   0  0  0  0  0  0  0  0  0  0  0  0
   56.4198   32.1257   42.6289 H   0  0  0  0  0  0  0  0  0  0  0  0
   57.1659   33.2450   47.2921 H   0  0  0  0  0  0  0  0  0  0  0  0
   58.7429   33.1126   49.2251 H   0  0  0  0  0  0  0  0  0  0  0  0
   60.4924   34.0568   44.6330 H   0  0  0  0  0  0  0  0  0  0  0  0
   63.4597   32.4838   47.5535 H   0  0  0  0  0  0  0  0  0  0  0  0
   64.2326   34.1053   47.4021 H   0  0  0  0  0  0  0  0  0  0  0  0
   63.3556   33.5280   49.7342 H   0  0  0  0  0  0  0  0  0  0  0  0
   62.7348   35.0657   49.0295 H   0  0  0  0  0  0  0  0  0  0  0  0
   56.7114   27.9043   44.4652 H   0  0  0  0  0  0  0  0  0  0  0  0
  1  2  1  0
  2  3  2  0
  2  4  2  0
  2  5  1  0
  5  6  2  0
  6  7  1  0
  7  8  2  0
  8  9  1  0
  9 10  1  0
 10 11  1  0
 11 12  2  0
 11 13  1  0
 13 14  1  0
 14 15  1  0
 15 16  2  0
 15 17  1  0
 17 18  2  0
 18 19  1  0
 19 20  2  0
 20 21  1  0
 21 22  2  0
 21 23  1  0
 23 24  1  0
 24 25  1  0
 25 26  1  0
  9 27  2  0
 27  5  1  0
 22 17  1  0
 26 20  1  0
  1 28  1  0
  6 29  1  0
  7 30  1  0
  8 31  1  0
 10 32  1  0
 13 33  1  0
 13 34  1  0
 18 35  1  0
 19 36  1  0
 22 37  1  0
 24 38  1  0
 24 39  1  0
 25 40  1  0
 25 41  1  0
 27 42  1  0
M  CHG  2   1  -1  14  -1
M  END
>  <UniqueID>  (46) 
44

>  <SMILES>  (46) 
[NH-]S(=O)(=O)c1cccc(NC(=O)C[N-]C(=O)c2ccc3c(c2)OCCO3)c1

>  <Energy>  (46) 
47.9466755875181

>  <Genealogy>  (46) 
[NH-]S(=O)(=O)c1cccc(NC(=O)C[N-]C(=O)c2ccc3c(c2)OCCO3)c1 (protonated)
[NH-]S(=O)(=O)c1cccc(NC(=O)C[N-]C(=O)c2ccc3c(c2)OCCO3)c1 (3D coordinates assigned)
[NH-]S(=O)(=O)c1cccc(NC(=O)C[N-]C(=O)c2ccc3c(c2)OCCO3)c1 (nonaromatic ring conformer: 47.9466755875181 kcal/mol)

>  <smiles>  (46) 
NS(=O)(=O)c1cccc(NC(=O)CNC(=O)c2ccc3c(c2)OCCO3)c1

>  <score_type>  (46) 
oracle

>  <origin>  (46) 
adg

>  <m_score__min__energy>  (46) 
-13.26

>  <m_primary>  (46) 
energy

$$$$
46:0
     RDKit          3D

 38 39  0  0  0  0  0  0  0  0999 V2000
   56.2088   30.2979   42.4339 H   0  0  0  0  0  0  0  0  0  0  0  0
   56.6540   30.8690   43.2620 C   0  0  0  0  0  0  0  0  0  0  0  0
   56.3570   30.5600   44.4870 N   0  0  0  0  0  0  0  0  0  0  0  0
   56.7440   29.3340   45.1230 C   0  0  0  0  0  0  0  0  0  0  0  0
   55.9090   28.3960   45.2530 O   0  0  0  0  0  0  0  0  0  0  0  0
   58.1250   29.1620   45.6260 C   0  0  0  0  0  0  0  0  0  0  0  0
   59.2170   29.1990   44.7420 C   0  0  0  0  0  0  0  0  0  0  0  0
   59.0534   29.3703   43.6678 H   0  0  0  0  0  0  0  0  0  0  0  0
   60.5110   29.0170   45.2350 C   0  0  0  0  0  0  0  0  0  0  0  0
   61.3683   29.0373   44.5460 H   0  0  0  0  0  0  0  0  0  0  0  0
   60.7140   28.8150   46.5630 N   0  0  0  0  0  0  0  0  0  0  0  0
   59.6800   28.7760   47.4430 C   0  0  0  0  0  0  0  0  0  0  0  0
   59.8755   28.6071   48.5122 H   0  0  0  0  0  0  0  0  0  0  0  0
   58.3680   28.9500   46.9930 C   0  0  0  0  0  0  0  0  0  0  0  0
   57.5305   28.9210   47.7056 H   0  0  0  0  0  0  0  0  0  0  0  0
   57.5580   31.9490   42.9750 N   0  0  0  0  0  0  0  0  0  0  0  0
   57.7800   32.3090   41.5750 C   0  0  0  0  0  0  0  0  0  0  0  0
   58.3568   33.2443   41.5239 H   0  0  0  0  0  0  0  0  0  0  0  0
   58.3396   31.5053   41.0740 H   0  0  0  0  0  0  0  0  0  0  0  0
   56.8106   32.4482   41.0740 H   0  0  0  0  0  0  0  0  0  0  0  0
   58.2580   32.6710   44.0500 C   0  0  0  0  0  0  0  0  0  0  0  0
   58.4907   31.9689   44.8642 H   0  0  0  0  0  0  0  0  0  0  0  0
   59.1836   33.1024   43.6413 H   0  0  0  0  0  0  0  0  0  0  0  0
   57.3900   33.8010   44.5960 C   0  0  0  0  0  0  0  0  0  0  0  0
   57.8790   34.7660   44.3969 H   0  0  0  0  0  0  0  0  0  0  0  0
   56.4071   33.7749   44.1028 H   0  0  0  0  0  0  0  0  0  0  0  0
   57.2160   33.6400   46.0000 O   0  0  0  0  0  0  0  0  0  0  0  0
   58.2660   33.5850   46.9260 C   0  0  0  0  0  0  0  0  0  0  0  0
   59.1810   34.6430   46.9610 C   0  0  0  0  0  0  0  0  0  0  0  0
   59.0474   35.5026   46.2877 H   0  0  0  0  0  0  0  0  0  0  0  0
   60.2660   34.6160   47.8470 C   0  0  0  0  0  0  0  0  0  0  0  0
   60.9832   35.4499   47.8627 H   0  0  0  0  0  0  0  0  0  0  0  0
   60.4380   33.5320   48.7100 C   0  0  0  0  0  0  0  0  0  0  0  0
   61.2944   33.5068   49.3998 H   0  0  0  0  0  0  0  0  0  0  0  0
   59.5190   32.4790   48.6950 C   0  0  0  0  0  0  0  0  0  0  0  0
   59.6486   31.6282   49.3800 H   0  0  0  0  0  0  0  0  0  0  0  0
   58.4370   32.5040   47.8130 C   0  0  0  0  0  0  0  0  0  0  0  0
   57.7140   31.6750   47.8107 H   0  0  0  0  0  0  0  0  0  0  0  0
  1  2  1  0
  2  3  2  0
  3  4  1  0
  4  5  2  0
  4  6  1  0
  6  7  2  0
  7  8  1  0
  7  9  1  0
  9 10  1  0
  9 11  2  0
 11 12  1  0
 12 13  1  0
 12 14  2  0
 14 15  1  0
  2 16  1  0
 16 17  1  0
 17 18  1  0
 17 19  1  0
 17 20  1  0
 16 21  1  0
 21 22  1  0
 21 23  1  0
 21 24  1  0
 24 25  1  0
 24 26  1  0
 24 27  1  0
 27 28  1  0
 28 29  2  0
 29 30  1  0
 29 31  1  0
 31 32  1  0
 31 33  2  0
 33 34  1  0
 33 35  1  0
 35 36  1  0
 35 37  2  0
 37 38  1  0
 14  6  1  0
 37 28  1  0
M  END
>  <UniqueID>  (47) 
45

>  <SMILES>  (47) 
CN(/C=N/C(=O)c1ccncc1)CCOc1ccccc1

>  <Energy>  (47) 
33.63092265425508

>  <Genealogy>  (47) 
CN(/C=N/C(=O)c1ccncc1)CCOc1ccccc1 (cis-trans isomerization)
CN(/C=N/C(=O)c1ccncc1)CCOc1ccccc1 (3D coordinates assigned)
CN(/C=N/C(=O)c1ccncc1)CCOc1ccccc1 (optimized conformer: 33.63092265425508 kcal/mol)

>  <smiles>  (47) 
CN(C=NC(=O)c1ccncc1)CCOc1ccccc1

>  <score_type>  (47) 
oracle

>  <origin>  (47) 
adg

>  <m_score__min__energy>  (47) 
-7

>  <m_primary>  (47) 
energy

$$$$
47:0
     RDKit          3D

 51 53  0  0  1  0  0  0  0  0999 V2000
   63.6970   33.3100   46.7370 C   0  0  0  0  0  0  0  0  0  0  0  0
   63.6130   32.6950   48.1060 C   0  0  0  0  0  0  0  0  0  0  0  0
   63.0190   33.6410   49.1130 C   0  0  0  0  0  0  0  0  0  0  0  0
   61.8040   34.1970   48.5460 N   0  0  0  0  0  0  0  0  0  0  0  0
   60.5720   34.2720   49.1990 C   0  0  0  0  0  0  0  0  0  0  0  0
   60.4220   33.8410   50.3830 O   0  0  0  0  0  0  0  0  0  0  0  0
   57.0050   31.4380   43.7990 N   0  0  0  0  0  0  0  0  0  0  0  0
   57.5320   32.2210   44.7010 C   0  0  0  0  0  0  0  0  0  0  0  0
   59.6310   35.7820   46.4480 N   0  0  0  0  0  0  0  0  0  0  0  0
   59.2840   35.4160   45.2240 N   0  0  0  0  0  0  0  0  0  0  0  0
   58.6610   34.2180   45.3010 C   0  0  0  0  0  0  0  0  0  0  0  0
   58.1150   33.4140   44.3290 C   0  0  0  0  0  0  0  0  0  0  0  0
   59.2520   34.8560   47.3400 C   0  0  0  0  0  0  0  0  0  0  0  0
   59.3970   34.8300   48.6010 N   0  0  0  0  0  0  0  0  0  0  0  0
   56.8090   30.0490   44.1270 C   0  0  0  0  0  0  0  0  0  0  0  0
   55.8480   29.6850   44.8690 O   0  0  0  0  0  0  0  0  0  0  0  0
   57.7240   29.0960   43.5960 N   0  0  0  0  0  0  0  0  0  0  0  0
   57.6430   27.6800   43.8440 C   0  0  1  0  0  0  0  0  0  0  0  0
   58.1490   26.9260   42.6170 C   0  0  0  0  0  0  0  0  0  0  0  0
   58.4740   27.3530   45.0200 C   0  0  0  0  0  0  0  0  0  0  0  0
   59.6610   28.0010   45.2810 C   0  0  0  0  0  0  0  0  0  0  0  0
   60.3880   27.6520   46.3900 C   0  0  0  0  0  0  0  0  0  0  0  0
   59.9890   26.6780   47.2660 C   0  0  0  0  0  0  0  0  0  0  0  0
   58.8120   26.0230   47.0210 C   0  0  0  0  0  0  0  0  0  0  0  0
   58.0740   26.3670   45.9080 C   0  0  0  0  0  0  0  0  0  0  0  0
   57.4910   31.8360   46.0050 N   0  0  0  0  0  0  0  0  0  0  0  0
   58.0350   32.6450   46.9360 C   0  0  0  0  0  0  0  0  0  0  0  0
   58.6320   33.8510   46.6180 C   0  0  0  0  0  0  0  0  0  0  0  0
   63.8453   34.3959   46.8313 H   0  0  0  0  0  0  0  0  0  0  0  0
   64.5435   32.8706   46.1889 H   0  0  0  0  0  0  0  0  0  0  0  0
   62.7637   33.1136   46.1889 H   0  0  0  0  0  0  0  0  0  0  0  0
   62.9852   31.7933   48.0524 H   0  0  0  0  0  0  0  0  0  0  0  0
   64.6347   32.4497   48.4316 H   0  0  0  0  0  0  0  0  0  0  0  0
   62.7836   33.0987   50.0407 H   0  0  0  0  0  0  0  0  0  0  0  0
   63.7324   34.4444   49.3488 H   0  0  0  0  0  0  0  0  0  0  0  0
   61.8810   34.5720   47.5590 H   0  0  0  0  0  0  0  0  0  0  0  0
   60.1200   36.6500   46.7040 H   0  0  0  0  0  0  0  0  0  0  0  0
   59.4550   35.9500   44.3370 H   0  0  0  0  0  0  0  0  0  0  0  0
   58.1427   33.7172   43.2720 H   0  0  0  0  0  0  0  0  0  0  0  0
   58.4970   29.4480   42.9920 H   0  0  0  0  0  0  0  0  0  0  0  0
   56.6014   27.3863   44.0409 H   0  0  0  0  0  0  0  0  0  0  0  0
   58.7351   26.0527   42.9392 H   0  0  0  0  0  0  0  0  0  0  0  0
   57.2925   26.5905   42.0138 H   0  0  0  0  0  0  0  0  0  0  0  0
   58.7841   27.5915   42.0138 H   0  0  0  0  0  0  0  0  0  0  0  0
   60.0224   28.7910   44.6062 H   0  0  0  0  0  0  0  0  0  0  0  0
   61.3342   28.1781   46.5847 H   0  0  0  0  0  0  0  0  0  0  0  0
   60.5999   26.4277   48.1459 H   0  0  0  0  0  0  0  0  0  0  0  0
   58.4602   25.2340   47.7019 H   0  0  0  0  0  0  0  0  0  0  0  0
   57.1291   25.8371   45.7172 H   0  0  0  0  0  0  0  0  0  0  0  0
   57.0600   30.9460   46.3160 H   0  0  0  0  0  0  0  0  0  0  0  0
   58.0027   32.3334   47.9905 H   0  0  0  0  0  0  0  0  0  0  0  0
  1  2  1  0
  2  3  1  0
  3  4  1  0
  4  5  1  0
  5  6  2  0
  5  7  1  0
  7  8  2  0
  8  9  1  0
  9 10  1  0
 10 11  1  0
 11 12  2  0
 12 13  1  0
 13 14  2  0
 14 15  1  0
 15 16  2  0
 15 17  1  0
 17 18  1  0
 18 19  1  0
 18 20  1  0
 20 21  2  0
 21 22  1  0
 22 23  2  0
 23 24  1  0
 24 25  2  0
 13 26  1  0
 26 27  1  0
 27 28  2  0
 28  8  1  0
 28 11  1  0
 25 20  1  0
  1 29  1  0
  1 30  1  0
  1 31  1  0
  2 32  1  0
  2 33  1  0
  3 34  1  0
  3 35  1  0
  4 36  1  0
  9 37  1  0
 10 38  1  0
 12 39  1  0
 17 40  1  0
 18 41  1  1
 19 42  1  0
 19 43  1  0
 19 44  1  0
 21 45  1  0
 22 46  1  0
 23 47  1  0
 24 48  1  0
 25 49  1  0
 26 50  1  0
 27 51  1  0
M  END
>  <smiles>  (48) 
CCCNC(=O)N=c1[nH][nH]c2cc(=NC(=O)NC(C)c3ccccc3)[nH]cc12

>  <score_type>  (48) 
oracle

>  <origin>  (48) 
adg

>  <m_score__min__energy>  (48) 
-8.8100000000000005

>  <m_primary>  (48) 
energy

$$$$
48:0
     RDKit          3D

 31 33  0  0  0  0  0  0  0  0999 V2000
   57.3940   27.3030   43.6740 O   0  0  0  0  0  0  0  0  0  0  0  0
   57.4720   27.5010   44.9170 C   0  0  0  0  0  0  0  0  0  0  0  0
   57.3220   26.3470   45.8420 C   0  0  0  0  0  0  0  0  0  0  0  0
   56.0580   25.9880   46.3440 C   0  0  0  0  0  0  0  0  0  0  0  0
   54.9230   26.7170   46.0050 O   0  0  0  0  0  0  0  0  0  0  0  0
   55.9350   24.9290   47.1850 N   0  0  0  0  0  0  0  0  0  0  0  0
   57.0160   24.1970   47.5540 C   0  0  0  0  0  0  0  0  0  0  0  0
   56.8780   23.2220   48.3370 O   0  0  0  0  0  0  0  0  0  0  0  0
   58.2460   24.5140   47.0780 N   0  0  0  0  0  0  0  0  0  0  0  0
   58.4250   25.5610   46.2320 C   0  0  0  0  0  0  0  0  0  0  0  0
   59.5810   25.8030   45.7930 O   0  0  0  0  0  0  0  0  0  0  0  0
   57.7110   28.8820   45.4110 C   0  0  0  0  0  0  0  0  0  0  0  0
   56.8000   29.9090   45.1260 C   0  0  0  0  0  0  0  0  0  0  0  0
   55.6640   29.6630   44.3610 O   0  0  0  0  0  0  0  0  0  0  0  0
   57.0290   31.1640   45.5800 N   0  0  0  0  0  0  0  0  0  0  0  0
   58.1270   31.4640   46.3160 C   0  0  0  0  0  0  0  0  0  0  0  0
   58.3010   32.6540   46.6960 O   0  0  0  0  0  0  0  0  0  0  0  0
   59.0370   30.4890   46.6270 N   0  0  0  0  0  0  0  0  0  0  0  0
   60.2050   30.8140   47.4120 C   0  0  0  0  0  0  0  0  0  0  0  0
   60.3660   30.2790   48.7010 C   0  0  0  0  0  0  0  0  0  0  0  0
   61.4980   30.5940   49.4580 C   0  0  0  0  0  0  0  0  0  0  0  0
   62.4770   31.4440   48.9340 C   0  0  0  0  0  0  0  0  0  0  0  0
   62.3250   31.9790   47.6510 C   0  0  0  0  0  0  0  0  0  0  0  0
   61.1930   31.6670   46.8920 C   0  0  0  0  0  0  0  0  0  0  0  0
   58.8370   29.2020   46.1960 C   0  0  0  0  0  0  0  0  0  0  0  0
   59.6490   28.2930   46.5260 O   0  0  0  0  0  0  0  0  0  0  0  0
   59.5982   29.6096   49.1162 H   0  0  0  0  0  0  0  0  0  0  0  0
   61.6189   30.1728   50.4670 H   0  0  0  0  0  0  0  0  0  0  0  0
   63.3669   31.6918   49.5312 H   0  0  0  0  0  0  0  0  0  0  0  0
   63.0966   32.6458   47.2386 H   0  0  0  0  0  0  0  0  0  0  0  0
   61.0754   32.0910   45.8838 H   0  0  0  0  0  0  0  0  0  0  0  0
  1  2  2  0
  2  3  1  0
  3  4  2  0
  4  5  1  0
  4  6  1  0
  6  7  1  0
  7  8  2  0
  7  9  1  0
  9 10  1  0
 10 11  2  0
  2 12  1  0
 12 13  2  0
 13 14  1  0
 13 15  1  0
 15 16  1  0
 16 17  2  0
 16 18  1  0
 18 19  1  0
 19 20  2  0
 20 21  1  0
 21 22  2  0
 22 23  1  0
 23 24  2  0
 18 25  1  0
 25 26  2  0
 10  3  1  0
 25 12  1  0
 24 19  1  0
 20 27  1  0
 21 28  1  0
 22 29  1  0
 23 30  1  0
 24 31  1  0
M  CHG  5   5  -1   6  -1   9  -1  14  -1  15  -1
M  END
>  <UniqueID>  (49) 
46

>  <SMILES>  (49) 
O=C(c1c([O-])[n-]c(=O)[n-]c1=O)c1c([O-])[n-]c(=O)n(-c2ccccc2)c1=O

>  <Energy>  (49) 
58.06876622793459

>  <Genealogy>  (49) 
O=C(c1c([O-])[n-]c(=O)[n-]c1=O)c1c([O-])[n-]c(=O)n(-c2ccccc2)c1=O (protonated)
O=C(c1c([O-])[n-]c(=O)[n-]c1=O)c1c([O-])[n-]c(=O)n(-c2ccccc2)c1=O (3D coordinates assigned)
O=C(c1c([O-])[n-]c(=O)[n-]c1=O)c1c([O-])[n-]c(=O)n(-c2ccccc2)c1=O (optimized conformer: 58.06876622793459 kcal/mol)

>  <smiles>  (49) 
O=C(c1c(O)[nH]c(=O)[nH]c1=O)c1c(O)[nH]c(=O)n(-c2ccccc2)c1=O

>  <score_type>  (49) 
oracle

>  <origin>  (49) 
adg

>  <m_score__min__energy>  (49) 
-18.079999999999998

>  <m_primary>  (49) 
energy

$$$$
49:0
     RDKit          3D

 25 26  0  0  0  0  0  0  0  0999 V2000
   59.0840   28.5270   44.4430 O   0  0  0  0  0  0  0  0  0  0  0  0
   58.0960   29.0790   44.9980 C   0  0  0  0  0  0  0  0  0  0  0  0
   57.0920   28.2720   45.6420 N   0  0  0  0  0  0  0  0  0  0  0  0
   57.1830   26.8420   45.7690 C   0  0  0  0  0  0  0  0  0  0  0  0
   58.4300   26.1920   45.7630 C   0  0  0  0  0  0  0  0  0  0  0  0
   58.5060   24.8060   45.9170 C   0  0  0  0  0  0  0  0  0  0  0  0
   57.3410   24.0550   46.0920 C   0  0  0  0  0  0  0  0  0  0  0  0
   56.0950   24.6900   46.1220 C   0  0  0  0  0  0  0  0  0  0  0  0
   54.6430   23.7310   46.3560 Cl  0  0  0  0  0  0  0  0  0  0  0  0
   56.0140   26.0830   45.9670 C   0  0  0  0  0  0  0  0  0  0  0  0
   54.7730   26.7110   45.9980 O   0  0  0  0  0  0  0  0  0  0  0  0
   57.9910   30.5580   44.9650 C   0  0  0  0  0  0  0  0  0  0  0  0
   57.8230   31.2230   43.7400 C   0  0  0  0  0  0  0  0  0  0  0  0
   57.7190   32.6150   43.7010 C   0  0  0  0  0  0  0  0  0  0  0  0
   57.7740   33.3370   44.8950 C   0  0  0  0  0  0  0  0  0  0  0  0
   57.6840   34.5930   44.8800 O   0  0  0  0  0  0  0  0  0  0  0  0
   57.9210   32.6840   46.0770 N   0  0  0  0  0  0  0  0  0  0  0  0
   58.0280   31.3300   46.1410 C   0  0  0  0  0  0  0  0  0  0  0  0
   56.2290   28.7280   46.0100 H   0  0  0  0  0  0  0  0  0  0  0  0
   59.3516   26.7790   45.6362 H   0  0  0  0  0  0  0  0  0  0  0  0
   59.4850   24.3047   45.9005 H   0  0  0  0  0  0  0  0  0  0  0  0
   57.4037   22.9628   46.2064 H   0  0  0  0  0  0  0  0  0  0  0  0
   57.7730   30.6444   42.8058 H   0  0  0  0  0  0  0  0  0  0  0  0
   57.5952   33.1368   42.7406 H   0  0  0  0  0  0  0  0  0  0  0  0
   58.1440   30.8357   47.1168 H   0  0  0  0  0  0  0  0  0  0  0  0
  1  2  2  0
  2  3  1  0
  3  4  1  0
  4  5  2  0
  5  6  1  0
  6  7  2  0
  7  8  1  0
  8  9  1  0
  8 10  2  0
 10 11  1  0
  2 12  1  0
 12 13  1  0
 13 14  2  0
 14 15  1  0
 15 16  2  0
 15 17  1  0
 17 18  1  0
 10  4  1  0
 18 12  2  0
  3 19  1  0
  5 20  1  0
  6 21  1  0
  7 22  1  0
 13 23  1  0
 14 24  1  0
 18 25  1  0
M  CHG  2  11  -1  17  -1
M  END
>  <UniqueID>  (50) 
47

>  <SMILES>  (50) 
O=C(Nc1cccc(Cl)c1[O-])c1ccc(=O)[n-]c1

>  <Energy>  (50) 
34.76880340958283

>  <Genealogy>  (50) 
O=C(Nc1cccc(Cl)c1[O-])c1ccc(=O)[n-]c1 (protonated)
O=C(Nc1cccc(Cl)c1[O-])c1ccc(=O)[n-]c1 (3D coordinates assigned)
O=C(Nc1cccc(Cl)c1[O-])c1ccc(=O)[n-]c1 (optimized conformer: 34.76880340958283 kcal/mol)

>  <smiles>  (50) 
O=C(Nc1cccc(Cl)c1O)c1ccc(=O)[nH]c1

>  <score_type>  (50) 
oracle

>  <origin>  (50) 
adg

>  <m_score__min__energy>  (50) 
-11.25

>  <m_primary>  (50) 
energy

$$$$
50:0
     RDKit          3D

 29 30  0  0  0  0  0  0  0  0999 V2000
   54.3370   26.7120   46.7500 H   0  0  0  0  0  0  0  0  0  0  0  0
   55.1080   26.5380   46.1170 O   0  0  0  0  0  0  0  0  0  0  0  0
   56.0470   25.5460   46.3900 C   0  0  0  0  0  0  0  0  0  0  0  0
   55.7000   24.4880   47.1720 N   0  0  0  0  0  0  0  0  0  0  0  0
   56.5890   23.5010   47.4520 C   0  0  0  0  0  0  0  0  0  0  0  0
   56.2470   22.5360   48.1810 O   0  0  0  0  0  0  0  0  0  0  0  0
   57.8450   23.5520   46.9390 N   0  0  0  0  0  0  0  0  0  0  0  0
   58.2410   24.5850   46.1510 C   0  0  0  0  0  0  0  0  0  0  0  0
   59.4040   24.5830   45.6680 O   0  0  0  0  0  0  0  0  0  0  0  0
   57.3470   25.6350   45.8720 C   0  0  0  0  0  0  0  0  0  0  0  0
   57.7170   26.7660   44.9900 C   0  0  0  0  0  0  0  0  0  0  0  0
   58.0535   26.5275   43.9702 H   0  0  0  0  0  0  0  0  0  0  0  0
   57.6720   28.0650   45.3440 C   0  0  0  0  0  0  0  0  0  0  0  0
   58.3020   28.4510   46.5820 C   0  0  0  0  0  0  0  0  0  0  0  0
   58.8080   28.7620   47.5770 N   0  0  0  0  0  0  0  0  0  0  0  0
   57.0610   29.1330   44.5150 C   0  0  0  0  0  0  0  0  0  0  0  0
   56.8450   28.9480   43.2870 O   0  0  0  0  0  0  0  0  0  0  0  0
   56.7120   30.3820   45.1280 N   0  0  0  0  0  0  0  0  0  0  0  0
   57.4900   31.5870   45.1170 C   0  0  0  0  0  0  0  0  0  0  0  0
   57.7730   32.1920   43.8850 C   0  0  0  0  0  0  0  0  0  0  0  0
   57.4125   31.7301   42.9540 H   0  0  0  0  0  0  0  0  0  0  0  0
   58.5100   33.3780   43.8310 C   0  0  0  0  0  0  0  0  0  0  0  0
   58.7365   33.8396   42.8586 H   0  0  0  0  0  0  0  0  0  0  0  0
   58.9600   33.9790   45.0100 C   0  0  0  0  0  0  0  0  0  0  0  0
   59.6730   35.1310   44.9470 F   0  0  0  0  0  0  0  0  0  0  0  0
   58.6600   33.3970   46.2480 C   0  0  0  0  0  0  0  0  0  0  0  0
   59.1950   34.1600   47.7370 Cl  0  0  0  0  0  0  0  0  0  0  0  0
   57.9220   32.2090   46.3030 C   0  0  0  0  0  0  0  0  0  0  0  0
   57.6787   31.7598   47.2772 H   0  0  0  0  0  0  0  0  0  0  0  0
  1  2  1  0
  2  3  1  0
  3  4  1  0
  4  5  1  0
  5  6  2  0
  5  7  1  0
  7  8  1  0
  8  9  2  0
  8 10  1  0
 10 11  1  0
 11 12  1  0
 11 13  2  0
 13 14  1  0
 14 15  3  0
 13 16  1  0
 16 17  2  0
 16 18  1  0
 18 19  1  0
 19 20  2  0
 20 21  1  0
 20 22  1  0
 22 23  1  0
 22 24  2  0
 24 25  1  0
 24 26  1  0
 26 27  1  0
 26 28  2  0
 28 29  1  0
 10  3  2  0
 28 19  1  0
M  CHG  3   4  -1   7  -1  18  -1
M  END
>  <UniqueID>  (51) 
48

>  <SMILES>  (51) 
N#C/C(=C/c1c(O)[n-]c(=O)[n-]c1=O)C(=O)[N-]c1ccc(F)c(Cl)c1

>  <Energy>  (51) 
43.84825959251094

>  <Genealogy>  (51) 
N#CC(=Cc1c(O)[n-]c(=O)[n-]c1=O)C(=O)[N-]c1ccc(F)c(Cl)c1 (protonated)
N#C/C(=C/c1c(O)[n-]c(=O)[n-]c1=O)C(=O)[N-]c1ccc(F)c(Cl)c1 (cis-trans isomerization)
N#C/C(=C/c1c(O)[n-]c(=O)[n-]c1=O)C(=O)[N-]c1ccc(F)c(Cl)c1 (3D coordinates assigned)
N#C/C(=C/c1c(O)[n-]c(=O)[n-]c1=O)C(=O)[N-]c1ccc(F)c(Cl)c1 (optimized conformer: 43.84825959251094 kcal/mol)

>  <smiles>  (51) 
N#CC(=Cc1c(O)[nH]c(=O)[nH]c1=O)C(=O)Nc1ccc(F)c(Cl)c1

>  <score_type>  (51) 
oracle

>  <origin>  (51) 
adg

>  <m_score__min__energy>  (51) 
-14.02

>  <m_primary>  (51) 
energy

$$$$
51:0
     RDKit          3D

 33 34  0  0  0  0  0  0  0  0999 V2000
   57.0510   24.6130   44.0430 C   0  0  0  0  0  0  0  0  0  0  0  0
   56.0660   24.4700   45.1980 C   0  0  0  0  0  0  0  0  0  0  0  0
   55.9160   25.7710   45.9230 C   0  0  0  0  0  0  0  0  0  0  0  0
   54.7830   26.3190   45.9900 O   0  0  0  0  0  0  0  0  0  0  0  0
   57.0660   26.3810   46.5220 N   0  0  0  0  0  0  0  0  0  0  0  0
   57.8210   27.4770   45.9860 C   0  0  0  0  0  0  0  0  0  0  0  0
   59.1820   27.2900   45.7210 C   0  0  0  0  0  0  0  0  0  0  0  0
   59.9540   28.3390   45.2200 C   0  0  0  0  0  0  0  0  0  0  0  0
   59.3760   29.5890   44.9870 C   0  0  0  0  0  0  0  0  0  0  0  0
   58.0140   29.8020   45.2560 C   0  0  0  0  0  0  0  0  0  0  0  0
   57.4150   31.1410   45.0370 C   0  0  0  0  0  0  0  0  0  0  0  0
   56.2820   31.2190   44.4860 O   0  0  0  0  0  0  0  0  0  0  0  0
   58.1000   32.3940   45.4400 C   0  0  0  0  0  0  0  0  0  0  0  0
   58.2620   33.4370   44.5130 C   0  0  0  0  0  0  0  0  0  0  0  0
   58.8960   34.6260   44.8880 C   0  0  0  0  0  0  0  0  0  0  0  0
   59.3640   34.7890   46.1920 C   0  0  0  0  0  0  0  0  0  0  0  0
   59.1940   33.7660   47.1290 C   0  0  0  0  0  0  0  0  0  0  0  0
   58.5610   32.5750   46.7590 C   0  0  0  0  0  0  0  0  0  0  0  0
   57.2470   28.7440   45.7800 C   0  0  0  0  0  0  0  0  0  0  0  0
   58.0653   24.7603   44.4423 H   0  0  0  0  0  0  0  0  0  0  0  0
   57.0282   23.7021   43.4267 H   0  0  0  0  0  0  0  0  0  0  0  0
   56.7701   25.4798   43.4267 H   0  0  0  0  0  0  0  0  0  0  0  0
   55.0871   24.1608   44.8028 H   0  0  0  0  0  0  0  0  0  0  0  0
   56.4477   23.7136   45.8996 H   0  0  0  0  0  0  0  0  0  0  0  0
   59.6461   26.3105   45.9086 H   0  0  0  0  0  0  0  0  0  0  0  0
   61.0217   28.1809   45.0078 H   0  0  0  0  0  0  0  0  0  0  0  0
   59.9906   30.4108   44.5908 H   0  0  0  0  0  0  0  0  0  0  0  0
   57.8878   33.3178   43.4855 H   0  0  0  0  0  0  0  0  0  0  0  0
   59.0258   35.4342   44.1532 H   0  0  0  0  0  0  0  0  0  0  0  0
   59.8670   35.7230   46.4829 H   0  0  0  0  0  0  0  0  0  0  0  0
   59.5584   33.8977   48.1585 H   0  0  0  0  0  0  0  0  0  0  0  0
   58.4224   31.7755   47.5016 H   0  0  0  0  0  0  0  0  0  0  0  0
   56.1889   28.9101   46.0306 H   0  0  0  0  0  0  0  0  0  0  0  0
  1  2  1  0
  2  3  1  0
  3  4  2  0
  3  5  1  0
  5  6  1  0
  6  7  2  0
  7  8  1  0
  8  9  2  0
  9 10  1  0
 10 11  1  0
 11 12  2  0
 11 13  1  0
 13 14  2  0
 14 15  1  0
 15 16  2  0
 16 17  1  0
 17 18  2  0
 10 19  2  0
 19  6  1  0
 18 13  1  0
  1 20  1  0
  1 21  1  0
  1 22  1  0
  2 23  1  0
  2 24  1  0
  7 25  1  0
  8 26  1  0
  9 27  1  0
 14 28  1  0
 15 29  1  0
 16 30  1  0
 17 31  1  0
 18 32  1  0
 19 33  1  0
M  CHG  1   5  -1
M  END
>  <UniqueID>  (52) 
49

>  <SMILES>  (52) 
CCC(=O)[N-]c1cccc(C(=O)c2ccccc2)c1

>  <Energy>  (52) 
38.526877473175695

>  <Genealogy>  (52) 
CCC(=O)[N-]c1cccc(C(=O)c2ccccc2)c1 (protonated)
CCC(=O)[N-]c1cccc(C(=O)c2ccccc2)c1 (3D coordinates assigned)
CCC(=O)[N-]c1cccc(C(=O)c2ccccc2)c1 (optimized conformer: 38.526877473175695 kcal/mol)

>  <smiles>  (52) 
CCC(=O)Nc1cccc(C(=O)c2ccccc2)c1

>  <score_type>  (52) 
oracle

>  <origin>  (52) 
adg

>  <m_score__min__energy>  (52) 
-9.5199999999999996

>  <m_primary>  (52) 
energy

$$$$
52:0
     RDKit          3D

 47 50  0  0  0  0  0  0  0  0999 V2000
   57.0040   32.6320   52.3140 C   0  0  0  0  0  0  0  0  0  0  0  0
   58.0710   31.6800   51.8720 C   0  0  0  0  0  0  0  0  0  0  0  0
   58.1600   30.4320   52.4080 N   0  0  0  0  0  0  0  0  0  0  0  0
   59.1870   29.7300   51.8820 C   0  0  0  0  0  0  0  0  0  0  0  0
   59.5140   28.5220   52.2350 N   0  0  0  0  0  0  0  0  0  0  0  0
   59.1110   27.8160   53.4210 C   0  0  0  0  0  0  0  0  0  0  0  0
   59.9700   27.6350   54.3260 O   0  0  0  0  0  0  0  0  0  0  0  0
   57.7050   27.3000   53.6130 C   0  0  0  0  0  0  0  0  0  0  0  0
   56.7220   28.4130   53.8020 C   0  0  0  0  0  0  0  0  0  0  0  0
   56.6890   29.2220   54.8790 N   0  0  0  0  0  0  0  0  0  0  0  0
   55.6780   30.0540   54.6830 N   0  0  0  0  0  0  0  0  0  0  0  0
   55.1310   29.7190   53.4970 C   0  0  0  0  0  0  0  0  0  0  0  0
   53.9680   30.3940   52.8900 C   0  0  0  0  0  0  0  0  0  0  0  0
   52.8300   30.6780   53.6680 C   0  0  0  0  0  0  0  0  0  0  0  0
   51.7270   31.3220   53.0980 C   0  0  0  0  0  0  0  0  0  0  0  0
   51.7470   31.6840   51.7480 C   0  0  0  0  0  0  0  0  0  0  0  0
   50.6500   32.3230   51.1840 O   0  0  0  0  0  0  0  0  0  0  0  0
   52.8740   31.4060   50.9660 C   0  0  0  0  0  0  0  0  0  0  0  0
   53.9810   30.7640   51.5330 C   0  0  0  0  0  0  0  0  0  0  0  0
   55.7680   28.7080   52.9520 O   0  0  0  0  0  0  0  0  0  0  0  0
   60.0430   30.6240   50.7510 S   0  0  0  0  0  0  0  0  0  0  0  0
   59.0470   31.9770   50.9090 C   0  0  0  0  0  0  0  0  0  0  0  0
   59.2470   33.2650   50.2080 C   0  0  0  0  0  0  0  0  0  0  0  0
   59.4740   34.3030   50.8840 O   0  0  0  0  0  0  0  0  0  0  0  0
   59.2110   33.3570   48.7710 N   0  0  0  0  0  0  0  0  0  0  0  0
   60.1860   34.1890   48.0610 C   0  0  0  0  0  0  0  0  0  0  0  0
   59.5220   34.8440   46.8450 C   0  0  0  0  0  0  0  0  0  0  0  0
   58.8700   33.8740   46.0450 O   0  0  0  0  0  0  0  0  0  0  0  0
   57.8000   33.2960   46.7690 C   0  0  0  0  0  0  0  0  0  0  0  0
   58.3240   32.5050   47.9710 C   0  0  0  0  0  0  0  0  0  0  0  0
   56.9711   32.6613   53.4131 H   0  0  0  0  0  0  0  0  0  0  0  0
   57.2263   33.6373   51.9269 H   0  0  0  0  0  0  0  0  0  0  0  0
   56.0304   32.2970   51.9269 H   0  0  0  0  0  0  0  0  0  0  0  0
   57.4160   26.7173   52.7259 H   0  0  0  0  0  0  0  0  0  0  0  0
   57.6918   26.6765   54.5191 H   0  0  0  0  0  0  0  0  0  0  0  0
   52.8080   30.3920   54.7299 H   0  0  0  0  0  0  0  0  0  0  0  0
   50.8424   31.5440   53.7130 H   0  0  0  0  0  0  0  0  0  0  0  0
   52.8898   31.6925   49.9041 H   0  0  0  0  0  0  0  0  0  0  0  0
   54.8648   30.5479   50.9148 H   0  0  0  0  0  0  0  0  0  0  0  0
   60.5604   34.9710   48.7380 H   0  0  0  0  0  0  0  0  0  0  0  0
   61.0225   33.5597   47.7229 H   0  0  0  0  0  0  0  0  0  0  0  0
   58.7831   35.5817   47.1913 H   0  0  0  0  0  0  0  0  0  0  0  0
   60.2990   35.3351   46.2407 H   0  0  0  0  0  0  0  0  0  0  0  0
   57.1324   34.0943   47.1254 H   0  0  0  0  0  0  0  0  0  0  0  0
   57.2540   32.6097   46.1051 H   0  0  0  0  0  0  0  0  0  0  0  0
   57.4766   32.1753   48.5900 H   0  0  0  0  0  0  0  0  0  0  0  0
   58.8832   31.6271   47.6153 H   0  0  0  0  0  0  0  0  0  0  0  0
  1  2  1  0
  2  3  1  0
  3  4  1  0
  4  5  2  3
  5  6  1  0
  6  7  2  0
  6  8  1  0
  8  9  1  0
  9 10  2  0
 10 11  1  0
 11 12  2  0
 12 13  1  0
 13 14  2  0
 14 15  1  0
 15 16  2  0
 16 17  1  0
 16 18  1  0
 18 19  2  0
 12 20  1  0
  4 21  1  0
 21 22  1  0
 22 23  1  0
 23 24  2  0
 23 25  1  0
 25 26  1  0
 26 27  1  0
 27 28  1  0
 28 29  1  0
 29 30  1  0
 22  2  2  0
 30 25  1  0
 20  9  1  0
 19 13  1  0
  1 31  1  0
  1 32  1  0
  1 33  1  0
  8 34  1  0
  8 35  1  0
 14 36  1  0
 15 37  1  0
 18 38  1  0
 19 39  1  0
 26 40  1  0
 26 41  1  0
 27 42  1  0
 27 43  1  0
 29 44  1  0
 29 45  1  0
 30 46  1  0
 30 47  1  0
M  CHG  2   3  -1  17  -1
M  END
>  <UniqueID>  (53) 
50

>  <SMILES>  (53) 
Cc1[n-]c(=NC(=O)Cc2nnc(-c3ccc([O-])cc3)o2)sc1C(=O)N1CCOCC1

>  <Energy>  (53) 
122.86814989121326

>  <Genealogy>  (53) 
Cc1[n-]c(=NC(=O)Cc2nnc(-c3ccc([O-])cc3)o2)sc1C(=O)N1CCOCC1 (protonated)
Cc1[n-]c(=NC(=O)Cc2nnc(-c3ccc([O-])cc3)o2)sc1C(=O)N1CCOCC1 (3D coordinates assigned)
Cc1[n-]c(=NC(=O)Cc2nnc(-c3ccc([O-])cc3)o2)sc1C(=O)N1CCOCC1 (nonaromatic ring conformer: 122.86814989121326 kcal/mol)

>  <smiles>  (53) 
Cc1[nH]c(=NC(=O)Cc2nnc(-c3ccc(O)cc3)o2)sc1C(=O)N1CCOCC1

>  <score_type>  (53) 
oracle

>  <origin>  (53) 
adg

>  <m_score__min__energy>  (53) 
-12.85

>  <m_primary>  (53) 
energy

$$$$
53:0
     RDKit          3D

 57 60  0  0  0  0  0  0  0  0999 V2000
   66.2390   32.8330   50.2170 C   0  0  0  0  0  0  0  0  0  0  0  0
   65.2230   32.2420   49.4130 O   0  0  0  0  0  0  0  0  0  0  0  0
   63.9610   32.8130   49.1860 C   0  0  0  0  0  0  0  0  0  0  0  0
   63.5900   33.1040   47.8680 C   0  0  0  0  0  0  0  0  0  0  0  0
   62.3430   33.6730   47.5900 C   0  0  0  0  0  0  0  0  0  0  0  0
   61.4500   33.9670   48.6310 C   0  0  0  0  0  0  0  0  0  0  0  0
   60.1010   34.5630   48.3250 C   0  0  0  0  0  0  0  0  0  0  0  0
   59.1060   33.5440   48.2280 O   0  0  0  0  0  0  0  0  0  0  0  0
   59.3160   32.1760   48.4700 C   0  0  0  0  0  0  0  0  0  0  0  0
   58.9510   31.5570   49.6810 C   0  0  0  0  0  0  0  0  0  0  0  0
   59.1780   30.1920   49.8740 C   0  0  0  0  0  0  0  0  0  0  0  0
   59.7770   29.4170   48.8660 C   0  0  0  0  0  0  0  0  0  0  0  0
   60.0180   27.9690   49.0730 C   0  0  0  0  0  0  0  0  0  0  0  0
   60.8500   27.5880   49.9400 O   0  0  0  0  0  0  0  0  0  0  0  0
   59.3430   27.0050   48.2520 N   0  0  0  0  0  0  0  0  0  0  0  0
   58.8560   27.2060   46.9170 C   0  0  0  0  0  0  0  0  0  0  0  0
   59.5430   26.7180   45.7910 C   0  0  0  0  0  0  0  0  0  0  0  0
   59.0320   26.9330   44.5090 C   0  0  0  0  0  0  0  0  0  0  0  0
   57.8260   27.6160   44.3400 C   0  0  0  0  0  0  0  0  0  0  0  0
   57.1030   28.0630   45.4520 C   0  0  0  0  0  0  0  0  0  0  0  0
   55.8700   28.7650   45.2340 N   0  0  0  0  0  0  0  0  0  0  0  0
   55.5800   29.6820   44.1710 C   0  0  0  0  0  0  0  0  0  0  0  0
   54.5360   29.5360   43.4770 O   0  0  0  0  0  0  0  0  0  0  0  0
   56.5310   30.7730   43.8510 C   0  0  0  0  0  0  0  0  0  0  0  0
   56.9650   30.9810   42.5270 C   0  0  0  0  0  0  0  0  0  0  0  0
   57.8660   32.0090   42.2300 C   0  0  0  0  0  0  0  0  0  0  0  0
   58.3420   32.8410   43.2450 C   0  0  0  0  0  0  0  0  0  0  0  0
   57.9200   32.6500   44.5640 C   0  0  0  0  0  0  0  0  0  0  0  0
   58.4010   33.4900   45.5660 O   0  0  0  0  0  0  0  0  0  0  0  0
   57.0180   31.6190   44.8670 C   0  0  0  0  0  0  0  0  0  0  0  0
   57.6320   27.8660   46.7410 C   0  0  0  0  0  0  0  0  0  0  0  0
   60.1430   30.0390   47.6590 C   0  0  0  0  0  0  0  0  0  0  0  0
   59.9140   31.4050   47.4660 C   0  0  0  0  0  0  0  0  0  0  0  0
   60.2840   31.9980   46.2630 O   0  0  0  0  0  0  0  0  0  0  0  0
   61.8140   33.6670   49.9530 C   0  0  0  0  0  0  0  0  0  0  0  0
   63.0620   33.0990   50.2320 C   0  0  0  0  0  0  0  0  0  0  0  0
   65.9945   32.6908   51.2800 H   0  0  0  0  0  0  0  0  0  0  0  0
   67.2053   32.3560   49.9960 H   0  0  0  0  0  0  0  0  0  0  0  0
   66.3021   33.9087   49.9960 H   0  0  0  0  0  0  0  0  0  0  0  0
   64.2848   32.8834   47.0443 H   0  0  0  0  0  0  0  0  0  0  0  0
   62.0610   33.8911   46.5494 H   0  0  0  0  0  0  0  0  0  0  0  0
   59.8247   35.2613   49.1288 H   0  0  0  0  0  0  0  0  0  0  0  0
   60.1595   35.0910   47.3618 H   0  0  0  0  0  0  0  0  0  0  0  0
   58.4843   32.1518   50.4800 H   0  0  0  0  0  0  0  0  0  0  0  0
   58.8853   29.7196   50.8233 H   0  0  0  0  0  0  0  0  0  0  0  0
   60.4853   26.1655   45.9203 H   0  0  0  0  0  0  0  0  0  0  0  0
   59.5810   26.5633   43.6304 H   0  0  0  0  0  0  0  0  0  0  0  0
   57.4417   27.8040   43.3266 H   0  0  0  0  0  0  0  0  0  0  0  0
   56.5930   30.3308   41.7215 H   0  0  0  0  0  0  0  0  0  0  0  0
   58.2005   32.1623   41.1934 H   0  0  0  0  0  0  0  0  0  0  0  0
   59.0503   33.6482   43.0065 H   0  0  0  0  0  0  0  0  0  0  0  0
   59.1720   33.2150   46.1650 H   0  0  0  0  0  0  0  0  0  0  0  0
   56.6885   31.4700   45.9058 H   0  0  0  0  0  0  0  0  0  0  0  0
   57.0799   28.2333   47.6186 H   0  0  0  0  0  0  0  0  0  0  0  0
   60.6131   29.4464   46.8604 H   0  0  0  0  0  0  0  0  0  0  0  0
   61.1141   33.8797   50.7745 H   0  0  0  0  0  0  0  0  0  0  0  0
   63.3420   32.8750   51.2719 H   0  0  0  0  0  0  0  0  0  0  0  0
  1  2  1  0
  2  3  1  0
  3  4  2  0
  4  5  1  0
  5  6  2  0
  6  7  1  0
  7  8  1  0
  8  9  1  0
  9 10  2  0
 10 11  1  0
 11 12  2  0
 12 13  1  0
 13 14  2  0
 13 15  1  0
 15 16  1  0
 16 17  2  0
 17 18  1  0
 18 19  2  0
 19 20  1  0
 20 21  1  0
 21 22  1  0
 22 23  2  0
 22 24  1  0
 24 25  2  0
 25 26  1  0
 26 27  2  0
 27 28  1  0
 28 29  1  0
 28 30  2  0
 20 31  2  0
 12 32  1  0
 32 33  2  0
 33 34  1  0
  6 35  1  0
 35 36  2  0
 36  3  1  0
 33  9  1  0
 31 16  1  0
 30 24  1  0
  1 37  1  0
  1 38  1  0
  1 39  1  0
  4 40  1  0
  5 41  1  0
  7 42  1  0
  7 43  1  0
 10 44  1  0
 11 45  1  0
 17 46  1  0
 18 47  1  0
 19 48  1  0
 25 49  1  0
 26 50  1  0
 27 51  1  0
 29 52  1  0
 30 53  1  0
 31 54  1  0
 32 55  1  0
 35 56  1  0
 36 57  1  0
M  CHG  3  15  -1  21  -1  34  -1
M  END
>  <UniqueID>  (54) 
51

>  <SMILES>  (54) 
COc1ccc(COc2ccc(C(=O)[N-]c3cccc([N-]C(=O)c4cccc(O)c4)c3)cc2[O-])cc1

>  <Energy>  (54) 
69.79441051139786

>  <Genealogy>  (54) 
COc1ccc(COc2ccc(C(=O)[N-]c3cccc([N-]C(=O)c4cccc(O)c4)c3)cc2[O-])cc1 (protonated)
COc1ccc(COc2ccc(C(=O)[N-]c3cccc([N-]C(=O)c4cccc(O)c4)c3)cc2[O-])cc1 (3D coordinates assigned)
COc1ccc(COc2ccc(C(=O)[N-]c3cccc([N-]C(=O)c4cccc(O)c4)c3)cc2[O-])cc1 (optimized conformer: 69.79441051139786 kcal/mol)

>  <smiles>  (54) 
COc1ccc(COc2ccc(C(=O)Nc3cccc(NC(=O)c4cccc(O)c4)c3)cc2O)cc1

>  <score_type>  (54) 
oracle

>  <origin>  (54) 
adg

>  <m_score__min__energy>  (54) 
-14.91

>  <m_primary>  (54) 
energy

$$$$
54:0
     RDKit          3D

 53 55  0  0  0  0  0  0  0  0999 V2000
   56.8920   21.1330   42.9710 C   0  0  0  0  0  0  0  0  0  0  0  0
   55.9890   22.1900   43.2760 O   0  0  0  0  0  0  0  0  0  0  0  0
   56.3310   23.3390   44.0030 C   0  0  0  0  0  0  0  0  0  0  0  0
   57.1250   24.3680   43.4610 C   0  0  0  0  0  0  0  0  0  0  0  0
   57.4410   25.4940   44.2280 C   0  0  0  0  0  0  0  0  0  0  0  0
   56.9710   25.6080   45.5440 C   0  0  0  0  0  0  0  0  0  0  0  0
   57.3530   26.7920   46.3890 C   0  0  0  0  0  0  0  0  0  0  0  0
   58.3250   26.4040   47.3570 O   0  0  0  0  0  0  0  0  0  0  0  0
   59.3880   27.2210   47.7550 C   0  0  0  0  0  0  0  0  0  0  0  0
   60.4900   26.7190   48.1090 O   0  0  0  0  0  0  0  0  0  0  0  0
   59.2290   28.7110   47.6920 C   0  0  0  0  0  0  0  0  0  0  0  0
   59.9910   29.3420   46.5130 C   0  0  0  0  0  0  0  0  0  0  0  0
   59.1310   29.5550   45.2560 C   0  0  0  0  0  0  0  0  0  0  0  0
   58.4670   30.9120   45.2390 C   0  0  0  0  0  0  0  0  0  0  0  0
   59.1830   32.0540   45.6200 C   0  0  0  0  0  0  0  0  0  0  0  0
   58.5900   33.2850   45.6160 N   0  0  0  0  0  0  0  0  0  0  0  0
   59.3830   34.4710   45.9790 C   0  0  0  0  0  0  0  0  0  0  0  0
   60.5090   34.0940   46.9080 C   0  0  0  0  0  0  0  0  0  0  0  0
   61.7960   33.8430   46.4020 C   0  0  0  0  0  0  0  0  0  0  0  0
   62.8410   33.5080   47.2690 C   0  0  0  0  0  0  0  0  0  0  0  0
   62.6120   33.4250   48.6460 C   0  0  0  0  0  0  0  0  0  0  0  0
   61.3360   33.6750   49.1570 C   0  0  0  0  0  0  0  0  0  0  0  0
   60.2880   34.0090   48.2940 C   0  0  0  0  0  0  0  0  0  0  0  0
   57.2780   33.4070   45.2370 C   0  0  0  0  0  0  0  0  0  0  0  0
   56.7150   34.5350   45.2190 O   0  0  0  0  0  0  0  0  0  0  0  0
   56.5680   32.3090   44.8730 N   0  0  0  0  0  0  0  0  0  0  0  0
   57.1260   31.0730   44.8660 C   0  0  0  0  0  0  0  0  0  0  0  0
   56.4290   30.0830   44.5180 O   0  0  0  0  0  0  0  0  0  0  0  0
   56.1910   24.5760   46.0880 C   0  0  0  0  0  0  0  0  0  0  0  0
   55.8690   23.4550   45.3180 C   0  0  0  0  0  0  0  0  0  0  0  0
   57.2690   20.6917   43.9054 H   0  0  0  0  0  0  0  0  0  0  0  0
   56.3696   20.3618   42.3859 H   0  0  0  0  0  0  0  0  0  0  0  0
   57.7353   21.5286   42.3859 H   0  0  0  0  0  0  0  0  0  0  0  0
   57.4984   24.2858   42.4296 H   0  0  0  0  0  0  0  0  0  0  0  0
   58.0611   26.2938   43.7968 H   0  0  0  0  0  0  0  0  0  0  0  0
   57.7731   27.5790   45.7455 H   0  0  0  0  0  0  0  0  0  0  0  0
   56.4591   27.1717   46.9055 H   0  0  0  0  0  0  0  0  0  0  0  0
   58.1597   28.9463   47.5858 H   0  0  0  0  0  0  0  0  0  0  0  0
   59.6482   29.1287   48.6193 H   0  0  0  0  0  0  0  0  0  0  0  0
   60.3803   30.3189   46.8356 H   0  0  0  0  0  0  0  0  0  0  0  0
   60.7902   28.6384   46.2369 H   0  0  0  0  0  0  0  0  0  0  0  0
   59.7739   29.4646   44.3680 H   0  0  0  0  0  0  0  0  0  0  0  0
   58.3383   28.7924   45.2573 H   0  0  0  0  0  0  0  0  0  0  0  0
   60.2352   31.9587   45.9261 H   0  0  0  0  0  0  0  0  0  0  0  0
   59.8025   34.9185   45.0659 H   0  0  0  0  0  0  0  0  0  0  0  0
   58.7282   35.1918   46.4905 H   0  0  0  0  0  0  0  0  0  0  0  0
   61.9821   33.9103   45.3199 H   0  0  0  0  0  0  0  0  0  0  0  0
   63.8454   33.3093   46.8668 H   0  0  0  0  0  0  0  0  0  0  0  0
   63.4358   33.1631   49.3262 H   0  0  0  0  0  0  0  0  0  0  0  0
   61.1556   33.6089   50.2401 H   0  0  0  0  0  0  0  0  0  0  0  0
   59.2854   34.2063   48.7014 H   0  0  0  0  0  0  0  0  0  0  0  0
   55.8315   24.6497   47.1250 H   0  0  0  0  0  0  0  0  0  0  0  0
   55.2469   22.6572   45.7498 H   0  0  0  0  0  0  0  0  0  0  0  0
  1  2  1  0
  2  3  1  0
  3  4  2  0
  4  5  1  0
  5  6  2  0
  6  7  1  0
  7  8  1  0
  8  9  1  0
  9 10  2  0
  9 11  1  0
 11 12  1  0
 12 13  1  0
 13 14  1  0
 14 15  2  0
 15 16  1  0
 16 17  1  0
 17 18  1  0
 18 19  2  0
 19 20  1  0
 20 21  2  0
 21 22  1  0
 22 23  2  0
 16 24  1  0
 24 25  2  0
 24 26  1  0
 26 27  1  0
 27 28  2  0
  6 29  1  0
 29 30  2  0
 30  3  1  0
 27 14  1  0
 23 18  1  0
  1 31  1  0
  1 32  1  0
  1 33  1  0
  4 34  1  0
  5 35  1  0
  7 36  1  0
  7 37  1  0
 11 38  1  0
 11 39  1  0
 12 40  1  0
 12 41  1  0
 13 42  1  0
 13 43  1  0
 15 44  1  0
 17 45  1  0
 17 46  1  0
 19 47  1  0
 20 48  1  0
 21 49  1  0
 22 50  1  0
 23 51  1  0
 29 52  1  0
 30 53  1  0
M  CHG  1  26  -1
M  END
>  <UniqueID>  (55) 
52

>  <SMILES>  (55) 
COc1ccc(COC(=O)CCCc2cn(Cc3ccccc3)c(=O)[n-]c2=O)cc1

>  <Energy>  (55) 
45.72625004100586

>  <Genealogy>  (55) 
COc1ccc(COC(=O)CCCc2cn(Cc3ccccc3)c(=O)[n-]c2=O)cc1 (protonated)
COc1ccc(COC(=O)CCCc2cn(Cc3ccccc3)c(=O)[n-]c2=O)cc1 (3D coordinates assigned)
COc1ccc(COC(=O)CCCc2cn(Cc3ccccc3)c(=O)[n-]c2=O)cc1 (optimized conformer: 45.72625004100586 kcal/mol)

>  <smiles>  (55) 
COc1ccc(COC(=O)CCCc2cn(Cc3ccccc3)c(=O)[nH]c2=O)cc1

>  <score_type>  (55) 
oracle

>  <origin>  (55) 
adg

>  <m_score__min__energy>  (55) 
-10.25

>  <m_primary>  (55) 
energy

$$$$
55:0
     RDKit          3D

 31 33  0  0  0  0  0  0  0  0999 V2000
   55.4960   27.6350   45.9990 H   0  0  0  0  0  0  0  0  0  0  0  0
   55.1460   26.6980   46.2970 N   0  0  0  0  0  0  0  0  0  0  0  0
   55.7930   25.6030   46.0520 C   0  0  0  0  0  0  0  0  0  0  0  0
   55.1840   24.4380   45.7760 N   0  0  0  0  0  0  0  0  0  0  0  0
   56.1290   23.5510   45.6400 O   0  0  0  0  0  0  0  0  0  0  0  0
   57.3210   24.0820   45.8150 C   0  0  0  0  0  0  0  0  0  0  0  0
   58.2792   23.5453   45.7534 H   0  0  0  0  0  0  0  0  0  0  0  0
   57.1650   25.4270   46.0890 C   0  0  0  0  0  0  0  0  0  0  0  0
   58.2340   26.4250   46.3140 C   0  0  0  0  0  0  0  0  0  0  0  0
   59.3510   26.0810   47.0930 C   0  0  0  0  0  0  0  0  0  0  0  0
   59.4289   25.0700   47.5194 H   0  0  0  0  0  0  0  0  0  0  0  0
   60.3630   27.0130   47.3300 C   0  0  0  0  0  0  0  0  0  0  0  0
   61.2394   26.7306   47.9318 H   0  0  0  0  0  0  0  0  0  0  0  0
   60.2650   28.3020   46.8050 C   0  0  0  0  0  0  0  0  0  0  0  0
   61.0603   29.0368   46.9988 H   0  0  0  0  0  0  0  0  0  0  0  0
   59.1580   28.6590   46.0340 C   0  0  0  0  0  0  0  0  0  0  0  0
   59.0768   29.6811   45.6355 H   0  0  0  0  0  0  0  0  0  0  0  0
   58.1460   27.7220   45.7630 C   0  0  0  0  0  0  0  0  0  0  0  0
   57.0030   28.0950   44.9730 N   0  0  0  0  0  0  0  0  0  0  0  0
   56.4690   29.2580   44.9390 N   0  0  0  0  0  0  0  0  0  0  0  0
   56.9920   30.4000   44.2420 C   0  0  0  0  0  0  0  0  0  0  0  0
   57.5120   31.4700   44.9820 C   0  0  0  0  0  0  0  0  0  0  0  0
   57.5398   31.4142   46.0802 H   0  0  0  0  0  0  0  0  0  0  0  0
   57.9960   32.6090   44.3300 C   0  0  0  0  0  0  0  0  0  0  0  0
   58.4195   33.4387   44.9150 H   0  0  0  0  0  0  0  0  0  0  0  0
   57.9420   32.6940   42.9360 C   0  0  0  0  0  0  0  0  0  0  0  0
   58.3324   33.5857   42.4238 H   0  0  0  0  0  0  0  0  0  0  0  0
   57.3920   31.6460   42.1930 C   0  0  0  0  0  0  0  0  0  0  0  0
   57.3408   31.7178   41.0965 H   0  0  0  0  0  0  0  0  0  0  0  0
   56.9070   30.5070   42.8410 C   0  0  0  0  0  0  0  0  0  0  0  0
   56.4576   29.6919   42.2548 H   0  0  0  0  0  0  0  0  0  0  0  0
  1  2  1  0
  2  3  2  0
  3  4  1  0
  4  5  1  0
  5  6  1  0
  6  7  1  0
  6  8  2  0
  8  9  1  0
  9 10  2  0
 10 11  1  0
 10 12  1  0
 12 13  1  0
 12 14  2  0
 14 15  1  0
 14 16  1  0
 16 17  1  0
 16 18  2  0
 18 19  1  0
 19 20  2  0
 20 21  1  0
 21 22  2  0
 22 23  1  0
 22 24  1  0
 24 25  1  0
 24 26  2  0
 26 27  1  0
 26 28  1  0
 28 29  1  0
 28 30  2  0
 30 31  1  0
  8  3  1  0
 18  9  1  0
 30 21  1  0
M  CHG  1   4  -1
M  END
>  <UniqueID>  (56) 
53

>  <SMILES>  (56) 
[H]/N=c1/[n-]occ1-c1ccccc1/N=N\c1ccccc1

>  <Energy>  (56) 
85.35798447006353

>  <Genealogy>  (56) 
N=c1[n-]occ1-c1ccccc1N=Nc1ccccc1 (protonated)
[H]/N=c1/[n-]occ1-c1ccccc1/N=N\c1ccccc1 (cis-trans isomerization)
[H]/N=c1/[n-]occ1-c1ccccc1/N=N\c1ccccc1 (3D coordinates assigned)
[H]/N=c1/[n-]occ1-c1ccccc1/N=N\c1ccccc1 (optimized conformer: 85.35798447006353 kcal/mol)

>  <smiles>  (56) 
N=c1[nH]occ1-c1ccccc1N=Nc1ccccc1

>  <score_type>  (56) 
oracle

>  <origin>  (56) 
adg

>  <m_score__min__energy>  (56) 
-9.6799999999999997

>  <m_primary>  (56) 
energy

$$$$
56:0
     RDKit          3D

 42 44  0  0  0  0  0  0  0  0999 V2000
   56.9990   33.7010   45.0060 C   0  0  0  0  0  0  0  0  0  0  0  0
   58.1610   33.8610   45.9460 C   0  0  0  0  0  0  0  0  0  0  0  0
   59.3520   34.4670   45.5110 C   0  0  0  0  0  0  0  0  0  0  0  0
   60.4440   34.5830   46.3810 C   0  0  0  0  0  0  0  0  0  0  0  0
   60.3630   34.0730   47.6820 C   0  0  0  0  0  0  0  0  0  0  0  0
   61.7650   34.2210   48.8040 S   0  0  0  0  0  0  0  0  0  0  0  0
   61.4730   32.6220   49.6510 C   0  0  0  0  0  0  0  0  0  0  0  0
   62.1460   31.5020   48.9210 C   0  0  0  0  0  0  0  0  0  0  0  0
   63.3400   31.6310   48.5380 O   0  0  0  0  0  0  0  0  0  0  0  0
   61.4220   30.2870   48.6790 N   0  0  0  0  0  0  0  0  0  0  0  0
   60.3320   30.0980   47.7620 C   0  0  0  0  0  0  0  0  0  0  0  0
   59.1700   29.3850   48.1120 C   0  0  0  0  0  0  0  0  0  0  0  0
   58.1510   29.1940   47.1730 C   0  0  0  0  0  0  0  0  0  0  0  0
   58.2860   29.6950   45.8720 C   0  0  0  0  0  0  0  0  0  0  0  0
   57.0090   29.4520   44.6850 S   0  0  0  0  0  0  0  0  0  0  0  0
   56.2420   30.7320   44.4980 O   0  0  0  0  0  0  0  0  0  0  0  0
   57.6240   29.0280   43.3810 O   0  0  0  0  0  0  0  0  0  0  0  0
   55.9250   28.2230   45.2530 N   0  0  0  0  0  0  0  0  0  0  0  0
   56.3200   27.0450   45.6230 C   0  0  0  0  0  0  0  0  0  0  0  0
   55.5460   26.1680   46.2990 N   0  0  0  0  0  0  0  0  0  0  0  0
   56.2180   25.0130   46.5580 C   0  0  0  0  0  0  0  0  0  0  0  0
   57.5270   24.9740   46.0880 C   0  0  0  0  0  0  0  0  0  0  0  0
   57.8550   26.4390   45.3220 S   0  0  0  0  0  0  0  0  0  0  0  0
   59.4520   30.3860   45.5160 C   0  0  0  0  0  0  0  0  0  0  0  0
   60.4700   30.5800   46.4550 C   0  0  0  0  0  0  0  0  0  0  0  0
   59.1830   33.4590   48.1170 C   0  0  0  0  0  0  0  0  0  0  0  0
   58.0880   33.3440   47.2500 C   0  0  0  0  0  0  0  0  0  0  0  0
   56.0731   33.5735   45.5860 H   0  0  0  0  0  0  0  0  0  0  0  0
   56.9143   34.5960   44.3721 H   0  0  0  0  0  0  0  0  0  0  0  0
   57.1593   32.8165   44.3721 H   0  0  0  0  0  0  0  0  0  0  0  0
   59.4272   34.8518   44.4833 H   0  0  0  0  0  0  0  0  0  0  0  0
   61.3668   35.0758   46.0410 H   0  0  0  0  0  0  0  0  0  0  0  0
   61.8735   32.6776   50.6740 H   0  0  0  0  0  0  0  0  0  0  0  0
   60.3905   32.4277   49.6731 H   0  0  0  0  0  0  0  0  0  0  0  0
   59.0628   28.9765   49.1277 H   0  0  0  0  0  0  0  0  0  0  0  0
   57.2395   28.6479   47.4576 H   0  0  0  0  0  0  0  0  0  0  0  0
   55.7598   24.1721   47.0992 H   0  0  0  0  0  0  0  0  0  0  0  0
   58.2269   24.1324   46.1975 H   0  0  0  0  0  0  0  0  0  0  0  0
   59.5669   30.7772   44.4944 H   0  0  0  0  0  0  0  0  0  0  0  0
   61.3860   31.1153   46.1644 H   0  0  0  0  0  0  0  0  0  0  0  0
   59.1149   33.0657   49.1420 H   0  0  0  0  0  0  0  0  0  0  0  0
   57.1681   32.8471   47.5919 H   0  0  0  0  0  0  0  0  0  0  0  0
  1  2  1  0
  2  3  2  0
  3  4  1  0
  4  5  2  0
  5  6  1  0
  6  7  1  0
  7  8  1  0
  8  9  2  0
  8 10  1  0
 10 11  1  0
 11 12  2  0
 12 13  1  0
 13 14  2  0
 14 15  1  0
 15 16  2  0
 15 17  2  0
 15 18  1  0
 18 19  2  3
 19 20  1  0
 20 21  1  0
 21 22  2  0
 22 23  1  0
 14 24  1  0
 24 25  2  0
  5 26  1  0
 26 27  2  0
 27  2  1  0
 25 11  1  0
 23 19  1  0
  1 28  1  0
  1 29  1  0
  1 30  1  0
  3 31  1  0
  4 32  1  0
  7 33  1  0
  7 34  1  0
 12 35  1  0
 13 36  1  0
 21 37  1  0
 22 38  1  0
 24 39  1  0
 25 40  1  0
 26 41  1  0
 27 42  1  0
M  CHG  2  10  -1  20  -1
M  END
>  <UniqueID>  (57) 
54

>  <SMILES>  (57) 
Cc1ccc(SCC(=O)[N-]c2ccc(S(=O)(=O)N=c3[n-]ccs3)cc2)cc1

>  <Energy>  (57) 
77.11386333507856

>  <Genealogy>  (57) 
Cc1ccc(SCC(=O)[N-]c2ccc(S(=O)(=O)N=c3[n-]ccs3)cc2)cc1 (protonated)
Cc1ccc(SCC(=O)[N-]c2ccc(S(=O)(=O)N=c3[n-]ccs3)cc2)cc1 (3D coordinates assigned)
Cc1ccc(SCC(=O)[N-]c2ccc(S(=O)(=O)N=c3[n-]ccs3)cc2)cc1 (optimized conformer: 77.11386333507856 kcal/mol)

>  <smiles>  (57) 
Cc1ccc(SCC(=O)Nc2ccc(S(=O)(=O)N=c3[nH]ccs3)cc2)cc1

>  <score_type>  (57) 
oracle

>  <origin>  (57) 
adg

>  <m_score__min__energy>  (57) 
-11.199999999999999

>  <m_primary>  (57) 
energy

$$$$
57:0
     RDKit          3D

 45 48  0  0  0  0  0  0  0  0999 V2000
   60.2020   25.1089   46.2218 H   0  0  0  0  0  0  0  0  0  0  0  0
   59.2420   25.6240   46.0700 C   0  0  0  0  0  0  0  0  0  0  0  0
   59.0450   26.8630   46.5930 N   0  0  0  0  0  0  0  0  0  0  0  0
   57.8800   27.5510   46.4340 C   0  0  0  0  0  0  0  0  0  0  0  0
   57.8010   28.7330   46.9790 N   0  0  0  0  0  0  0  0  0  0  0  0
   58.8460   29.6590   47.3010 C   0  0  0  0  0  0  0  0  0  0  0  0
   59.7970   29.8500   46.4960 O   0  0  0  0  0  0  0  0  0  0  0  0
   58.8980   30.2710   48.6370 C   0  0  0  0  0  0  0  0  0  0  0  0
   58.1600   29.8700   49.6480 O   0  0  0  0  0  0  0  0  0  0  0  0
   58.4180   30.6300   50.6890 C   0  0  0  0  0  0  0  0  0  0  0  0
   57.9453   30.5289   51.6771 H   0  0  0  0  0  0  0  0  0  0  0  0
   59.3700   31.5740   50.3590 C   0  0  0  0  0  0  0  0  0  0  0  0
   59.7918   32.3497   51.0150 H   0  0  0  0  0  0  0  0  0  0  0  0
   59.6820   31.3420   49.0360 C   0  0  0  0  0  0  0  0  0  0  0  0
   60.7190   32.0410   48.2540 C   0  0  0  0  0  0  0  0  0  0  0  0
   62.0490   31.6070   48.3650 C   0  0  0  0  0  0  0  0  0  0  0  0
   62.2979   30.7759   49.0412 H   0  0  0  0  0  0  0  0  0  0  0  0
   63.0580   32.2230   47.6230 C   0  0  0  0  0  0  0  0  0  0  0  0
   64.0979   31.8766   47.7161 H   0  0  0  0  0  0  0  0  0  0  0  0
   62.7490   33.2780   46.7630 C   0  0  0  0  0  0  0  0  0  0  0  0
   63.5464   33.7643   46.1820 H   0  0  0  0  0  0  0  0  0  0  0  0
   61.4300   33.7170   46.6390 C   0  0  0  0  0  0  0  0  0  0  0  0
   61.1939   34.5478   45.9578 H   0  0  0  0  0  0  0  0  0  0  0  0
   60.4000   33.1070   47.3770 C   0  0  0  0  0  0  0  0  0  0  0  0
   58.9720   33.5530   47.1600 C   0  0  0  0  0  0  0  0  0  0  0  0
   58.9670   34.4733   46.5575 H   0  0  0  0  0  0  0  0  0  0  0  0
   58.5033   33.7396   48.1375 H   0  0  0  0  0  0  0  0  0  0  0  0
   58.2160   32.5150   46.4610 N   0  0  0  0  0  0  0  0  0  0  0  0
   58.2040   31.5570   46.8740 H   0  0  0  0  0  0  0  0  0  0  0  0
   57.5390   32.7670   45.2190 C   0  0  0  0  0  0  0  0  0  0  0  0
   57.3600   33.9520   44.8300 O   0  0  0  0  0  0  0  0  0  0  0  0
   57.0660   31.6610   44.3710 C   0  0  0  0  0  0  0  0  0  0  0  0
   56.2710   30.7090   44.8030 O   0  0  0  0  0  0  0  0  0  0  0  0
   56.0120   29.8920   43.8090 C   0  0  0  0  0  0  0  0  0  0  0  0
   55.3732   28.9988   43.8730 H   0  0  0  0  0  0  0  0  0  0  0  0
   56.6630   30.3240   42.6710 C   0  0  0  0  0  0  0  0  0  0  0  0
   56.6408   29.8521   41.6776 H   0  0  0  0  0  0  0  0  0  0  0  0
   57.3460   31.4650   43.0300 C   0  0  0  0  0  0  0  0  0  0  0  0
   57.9814   32.0900   42.3853 H   0  0  0  0  0  0  0  0  0  0  0  0
   56.8140   26.9320   45.7330 C   0  0  0  0  0  0  0  0  0  0  0  0
   55.5580   27.5150   45.6180 O   0  0  0  0  0  0  0  0  0  0  0  0
   57.0110   25.6640   45.1770 C   0  0  0  0  0  0  0  0  0  0  0  0
   56.2018   25.1837   44.6073 H   0  0  0  0  0  0  0  0  0  0  0  0
   58.2280   25.0070   45.3420 C   0  0  0  0  0  0  0  0  0  0  0  0
   58.3864   24.0114   44.9019 H   0  0  0  0  0  0  0  0  0  0  0  0
  1  2  1  0
  2  3  1  0
  3  4  1  0
  4  5  2  0
  5  6  1  0
  6  7  2  0
  6  8  1  0
  8  9  1  0
  9 10  1  0
 10 11  1  0
 10 12  2  0
 12 13  1  0
 12 14  1  0
 14 15  1  0
 15 16  2  0
 16 17  1  0
 16 18  1  0
 18 19  1  0
 18 20  2  0
 20 21  1  0
 20 22  1  0
 22 23  1  0
 22 24  2  0
 24 25  1  0
 25 26  1  0
 25 27  1  0
 25 28  1  0
 28 29  1  0
 28 30  1  0
 30 31  2  0
 30 32  1  0
 32 33  1  0
 33 34  1  0
 34 35  1  0
 34 36  2  0
 36 37  1  0
 36 38  1  0
 38 39  1  0
  4 40  1  0
 40 41  1  0
 40 42  2  0
 42 43  1  0
 42 44  1  0
 44 45  1  0
 44  2  2  0
 14  8  2  0
 24 15  1  0
 38 32  2  0
M  CHG  2   3  -1  41  -1
M  END
>  <UniqueID>  (58) 
55

>  <SMILES>  (58) 
O=C(NCc1ccccc1-c1ccoc1C(=O)/N=c1/[n-]cccc1[O-])c1ccco1

>  <Energy>  (58) 
114.3657650628224

>  <Genealogy>  (58) 
O=C(NCc1ccccc1-c1ccoc1C(=O)N=c1[n-]cccc1[O-])c1ccco1 (protonated)
O=C(NCc1ccccc1-c1ccoc1C(=O)/N=c1/[n-]cccc1[O-])c1ccco1 (cis-trans isomerization)
O=C(NCc1ccccc1-c1ccoc1C(=O)/N=c1/[n-]cccc1[O-])c1ccco1 (3D coordinates assigned)
O=C(NCc1ccccc1-c1ccoc1C(=O)/N=c1/[n-]cccc1[O-])c1ccco1 (optimized conformer: 114.3657650628224 kcal/mol)

>  <smiles>  (58) 
O=C(NCc1ccccc1-c1ccoc1C(=O)N=c1[nH]cccc1O)c1ccco1

>  <score_type>  (58) 
oracle

>  <origin>  (58) 
adg

>  <m_score__min__energy>  (58) 
-13.51

>  <m_primary>  (58) 
energy

$$$$
58:0
     RDKit          3D

 35 38  0  0  1  0  0  0  0  0999 V2000
   58.1120   33.5580   43.8550 O   0  0  0  0  0  0  0  0  0  0  0  0
   57.6630   32.8470   44.8320 C   0  0  0  0  0  0  0  0  0  0  0  0
   56.8340   31.6970   44.4490 C   0  0  0  0  0  0  0  0  0  0  0  0
   57.5490   30.4420   44.8870 C   0  0  0  0  0  0  0  0  0  0  0  0
   58.8980   30.3870   45.0860 C   0  0  0  0  0  0  0  0  0  0  0  0
   59.5330   29.2230   45.4830 C   0  0  0  0  0  0  0  0  0  0  0  0
   58.7770   28.0870   45.6820 C   0  0  0  0  0  0  0  0  0  0  0  0
   57.4000   28.1300   45.4820 C   0  0  0  0  0  0  0  0  0  0  0  0
   56.7690   29.2980   45.0850 C   0  0  0  0  0  0  0  0  0  0  0  0
   55.3750   29.3430   44.8810 O   0  0  0  0  0  0  0  0  0  0  0  0
   58.0090   33.2470   46.1120 N   0  0  0  0  0  0  0  0  0  0  0  0
   59.2070   33.1840   46.5220 C   0  0  0  0  0  0  0  0  0  0  0  0
   60.3650   33.6560   46.0830 N   0  0  0  0  0  0  0  0  0  0  0  0
   61.4740   33.4330   46.7200 C   0  0  0  0  0  0  0  0  0  0  0  0
   62.7840   33.8520   46.4060 C   0  0  0  0  0  0  0  0  0  0  0  0
   63.8220   33.5060   47.2170 C   0  0  0  0  0  0  0  0  0  0  0  0
   63.7130   32.7540   48.3650 C   0  0  0  0  0  0  0  0  0  0  0  0
   64.5310   32.2850   49.3170 N   0  0  0  0  0  0  0  0  0  0  0  0
   63.8230   31.5900   50.2230 N   0  0  0  0  0  0  0  0  0  0  0  0
   62.5080   31.6060   49.8540 C   0  0  0  0  0  0  0  0  0  0  0  0
   62.4500   32.3260   48.7080 C   0  0  0  0  0  0  0  0  0  0  0  0
   61.4150   32.6760   47.8900 C   0  0  0  0  0  0  0  0  0  0  0  0
   59.5990   32.2980   48.0090 S   0  0  0  0  0  0  0  0  0  0  0  0
   55.8542   31.7611   44.9449 H   0  0  0  0  0  0  0  0  0  0  0  0
   56.6737   31.6862   43.3608 H   0  0  0  0  0  0  0  0  0  0  0  0
   59.4985   31.2947   44.9261 H   0  0  0  0  0  0  0  0  0  0  0  0
   60.6220   29.2044   45.6371 H   0  0  0  0  0  0  0  0  0  0  0  0
   59.2601   27.1505   45.9975 H   0  0  0  0  0  0  0  0  0  0  0  0
   56.8022   27.2206   45.6420 H   0  0  0  0  0  0  0  0  0  0  0  0
   54.7460   28.9560   45.5780 H   0  0  0  0  0  0  0  0  0  0  0  0
   60.3470   34.2440   45.1620 H   0  0  0  0  0  0  0  0  0  0  0  0
   62.9670   34.4580   45.5064 H   0  0  0  0  0  0  0  0  0  0  0  0
   64.8258   33.8546   46.9326 H   0  0  0  0  0  0  0  0  0  0  0  0
   65.5510   32.4340   49.3560 H   0  0  0  0  0  0  0  0  0  0  0  0
   61.6671   31.1309   50.3804 H   0  0  0  0  0  0  0  0  0  0  0  0
  1  2  2  0
  2  3  1  0
  3  4  1  0
  4  5  2  0
  5  6  1  0
  6  7  2  0
  7  8  1  0
  8  9  2  0
  9 10  1  0
  2 11  1  0
 11 12  2  0
 12 13  1  0
 13 14  1  0
 14 15  2  0
 15 16  1  0
 16 17  2  0
 17 18  1  0
 18 19  1  0
 19 20  2  0
 20 21  1  0
 21 22  2  0
 22 23  1  0
  9  4  1  0
 23 12  1  0
 22 14  1  0
 21 17  1  0
  3 24  1  0
  3 25  1  0
  5 26  1  0
  6 27  1  0
  7 28  1  0
  8 29  1  0
 10 30  1  0
 13 31  1  0
 15 32  1  0
 16 33  1  0
 18 34  1  0
 20 35  1  0
M  END
>  <smiles>  (59) 
O=C(Cc1ccccc1O)N=c1[nH]c2ccc3[nH]ncc3c2s1

>  <score_type>  (59) 
oracle

>  <origin>  (59) 
adg

>  <m_score__min__energy>  (59) 
-9.2400000000000002

>  <m_primary>  (59) 
energy

$$$$
59:0
     RDKit          3D

 54 57  0  0  0  0  0  0  0  0999 V2000
   59.3230   19.9780   49.6860 O   0  0  0  0  0  0  0  0  0  0  0  0
   58.1890   20.3220   50.1190 C   0  0  0  0  0  0  0  0  0  0  0  0
   57.9360   20.2370   51.4880 O   0  0  0  0  0  0  0  0  0  0  0  0
   57.1330   20.7860   49.1860 C   0  0  0  0  0  0  0  0  0  0  0  0
   57.0220   20.2150   47.9070 C   0  0  0  0  0  0  0  0  0  0  0  0
   56.0860   20.7030   46.9920 C   0  0  0  0  0  0  0  0  0  0  0  0
   55.2280   21.7620   47.3470 C   0  0  0  0  0  0  0  0  0  0  0  0
   54.2550   22.2940   46.3590 C   0  0  0  0  0  0  0  0  0  0  0  0
   53.2380   21.6170   46.0470 O   0  0  0  0  0  0  0  0  0  0  0  0
   54.4790   23.5880   45.7850 N   0  0  0  0  0  0  0  0  0  0  0  0
   55.6890   24.3480   45.6170 C   0  0  0  0  0  0  0  0  0  0  0  0
   56.9400   23.7610   45.3320 C   0  0  0  0  0  0  0  0  0  0  0  0
   58.0810   24.5620   45.1790 C   0  0  0  0  0  0  0  0  0  0  0  0
   57.9860   25.9470   45.3150 C   0  0  0  0  0  0  0  0  0  0  0  0
   56.7480   26.5450   45.6040 C   0  0  0  0  0  0  0  0  0  0  0  0
   56.6260   27.9650   45.7360 N   0  0  0  0  0  0  0  0  0  0  0  0
   57.6800   28.9110   45.8250 C   0  0  0  0  0  0  0  0  0  0  0  0
   57.8390   29.7120   44.8580 O   0  0  0  0  0  0  0  0  0  0  0  0
   58.5240   29.0640   47.0400 C   0  0  0  0  0  0  0  0  0  0  0  0
   59.2390   27.9690   47.5760 C   0  0  0  0  0  0  0  0  0  0  0  0
   60.0220   28.1250   48.7240 C   0  0  0  0  0  0  0  0  0  0  0  0
   60.0840   29.3620   49.3670 C   0  0  0  0  0  0  0  0  0  0  0  0
   59.3710   30.4630   48.8640 C   0  0  0  0  0  0  0  0  0  0  0  0
   59.5150   31.7320   49.5220 N   0  0  0  0  0  0  0  0  0  0  0  0
   60.0620   32.9330   48.9620 C   0  0  0  0  0  0  0  0  0  0  0  0
   59.3770   33.9960   49.0200 O   0  0  0  0  0  0  0  0  0  0  0  0
   61.3450   32.9330   48.2250 C   0  0  0  0  0  0  0  0  0  0  0  0
   61.4790   33.7600   47.0910 C   0  0  0  0  0  0  0  0  0  0  0  0
   62.6990   33.8560   46.4140 C   0  0  0  0  0  0  0  0  0  0  0  0
   63.7960   33.1180   46.8600 C   0  0  0  0  0  0  0  0  0  0  0  0
   63.6730   32.2760   47.9740 C   0  0  0  0  0  0  0  0  0  0  0  0
   62.4540   32.1690   48.6550 C   0  0  0  0  0  0  0  0  0  0  0  0
   62.3770   31.2800   49.7300 O   0  0  0  0  0  0  0  0  0  0  0  0
   58.6120   30.3110   47.6850 C   0  0  0  0  0  0  0  0  0  0  0  0
   55.6030   25.7430   45.7360 C   0  0  0  0  0  0  0  0  0  0  0  0
   54.3680   26.3400   45.9910 O   0  0  0  0  0  0  0  0  0  0  0  0
   55.3130   22.3110   48.6360 C   0  0  0  0  0  0  0  0  0  0  0  0
   56.2560   21.8300   49.5470 C   0  0  0  0  0  0  0  0  0  0  0  0
   57.6769   19.3777   47.6241 H   0  0  0  0  0  0  0  0  0  0  0  0
   56.0187   20.2576   45.9885 H   0  0  0  0  0  0  0  0  0  0  0  0
   57.0208   22.6688   45.2292 H   0  0  0  0  0  0  0  0  0  0  0  0
   59.0519   24.0976   44.9515 H   0  0  0  0  0  0  0  0  0  0  0  0
   58.8828   26.5727   45.1956 H   0  0  0  0  0  0  0  0  0  0  0  0
   59.1790   26.9860   47.0861 H   0  0  0  0  0  0  0  0  0  0  0  0
   60.5902   27.2709   49.1210 H   0  0  0  0  0  0  0  0  0  0  0  0
   60.6956   29.4758   50.2742 H   0  0  0  0  0  0  0  0  0  0  0  0
   60.6131   34.3370   46.7342 H   0  0  0  0  0  0  0  0  0  0  0  0
   62.7933   34.5099   45.5345 H   0  0  0  0  0  0  0  0  0  0  0  0
   64.7599   33.1971   46.3360 H   0  0  0  0  0  0  0  0  0  0  0  0
   64.5416   31.6942   48.3162 H   0  0  0  0  0  0  0  0  0  0  0  0
   61.5120   31.0420   50.1870 H   0  0  0  0  0  0  0  0  0  0  0  0
   58.0822   31.1785   47.2646 H   0  0  0  0  0  0  0  0  0  0  0  0
   54.6333   23.1243   48.9302 H   0  0  0  0  0  0  0  0  0  0  0  0
   56.3152   22.2688   50.5540 H   0  0  0  0  0  0  0  0  0  0  0  0
  1  2  2  0
  2  3  1  0
  2  4  1  0
  4  5  2  0
  5  6  1  0
  6  7  2  0
  7  8  1  0
  8  9  2  0
  8 10  1  0
 10 11  1  0
 11 12  2  0
 12 13  1  0
 13 14  2  0
 14 15  1  0
 15 16  1  0
 16 17  1  0
 17 18  2  0
 17 19  1  0
 19 20  2  0
 20 21  1  0
 21 22  2  0
 22 23  1  0
 23 24  1  0
 24 25  1  0
 25 26  2  0
 25 27  1  0
 27 28  2  0
 28 29  1  0
 29 30  2  0
 30 31  1  0
 31 32  2  0
 32 33  1  0
 23 34  2  0
 15 35  2  0
 35 36  1  0
  7 37  1  0
 37 38  2  0
 38  4  1  0
 35 11  1  0
 34 19  1  0
 32 27  1  0
  5 39  1  0
  6 40  1  0
 12 41  1  0
 13 42  1  0
 14 43  1  0
 20 44  1  0
 21 45  1  0
 22 46  1  0
 28 47  1  0
 29 48  1  0
 30 49  1  0
 31 50  1  0
 33 51  1  0
 34 52  1  0
 37 53  1  0
 38 54  1  0
M  CHG  5   3  -1  10  -1  16  -1  24  -1  36  -1
M  END
>  <UniqueID>  (60) 
56

>  <SMILES>  (60) 
O=C([O-])c1ccc(C(=O)[N-]c2cccc([N-]C(=O)c3cccc([N-]C(=O)c4ccccc4O)c3)c2[O-])cc1

>  <Energy>  (60) 
84.5487684551507

>  <Genealogy>  (60) 
O=C([O-])c1ccc(C(=O)[N-]c2cccc([N-]C(=O)c3cccc([N-]C(=O)c4ccccc4O)c3)c2[O-])cc1 (protonated)
O=C([O-])c1ccc(C(=O)[N-]c2cccc([N-]C(=O)c3cccc([N-]C(=O)c4ccccc4O)c3)c2[O-])cc1 (3D coordinates assigned)
O=C([O-])c1ccc(C(=O)[N-]c2cccc([N-]C(=O)c3cccc([N-]C(=O)c4ccccc4O)c3)c2[O-])cc1 (optimized conformer: 84.5487684551507 kcal/mol)

>  <smiles>  (60) 
O=C(O)c1ccc(C(=O)Nc2cccc(NC(=O)c3cccc(NC(=O)c4ccccc4O)c3)c2O)cc1

>  <score_type>  (60) 
oracle

>  <origin>  (60) 
adg

>  <m_score__min__energy>  (60) 
-18.969999999999999

>  <m_primary>  (60) 
energy

$$$$
60:0
     RDKit          3D

 54 57  0  0  0  0  0  0  0  0999 V2000
   67.4880   28.9870   51.0590 C   0  0  0  0  0  0  0  0  0  0  0  0
   66.4770   30.0070   51.5800 C   0  0  0  0  0  0  0  0  0  0  0  0
   67.1300   31.3460   51.9460 C   0  0  0  0  0  0  0  0  0  0  0  0
   66.4100   32.7390   51.0760 S   0  0  0  0  0  0  0  0  0  0  0  0
   66.7260   34.0340   51.7730 O   0  0  0  0  0  0  0  0  0  0  0  0
   67.0100   32.7950   49.6990 O   0  0  0  0  0  0  0  0  0  0  0  0
   64.6940   32.5300   50.9160 N   0  0  0  0  0  0  0  0  0  0  0  0
   63.9380   32.9440   49.7660 C   0  0  0  0  0  0  0  0  0  0  0  0
   64.5180   33.0190   48.4890 C   0  0  0  0  0  0  0  0  0  0  0  0
   63.7670   33.4560   47.3950 C   0  0  0  0  0  0  0  0  0  0  0  0
   62.4310   33.8250   47.5640 C   0  0  0  0  0  0  0  0  0  0  0  0
   61.8360   33.7680   48.8330 C   0  0  0  0  0  0  0  0  0  0  0  0
   60.3810   34.1160   49.0040 C   0  0  0  0  0  0  0  0  0  0  0  0
   59.5770   33.4760   47.9490 N   0  0  0  0  0  0  0  0  0  0  0  0
   58.8700   34.2110   47.0180 C   0  0  0  0  0  0  0  0  0  0  0  0
   58.8970   35.4740   47.0690 O   0  0  0  0  0  0  0  0  0  0  0  0
   58.1270   33.5800   46.0300 N   0  0  0  0  0  0  0  0  0  0  0  0
   57.3870   34.3870   45.0460 C   0  0  0  0  0  0  0  0  0  0  0  0
   58.1330   32.2060   45.9260 C   0  0  0  0  0  0  0  0  0  0  0  0
   57.4590   31.6150   45.0380 O   0  0  0  0  0  0  0  0  0  0  0  0
   58.8890   31.4850   46.8420 C   0  0  0  0  0  0  0  0  0  0  0  0
   59.5540   32.1220   47.8280 C   0  0  0  0  0  0  0  0  0  0  0  0
   60.1390   31.2150   48.6330 N   0  0  0  0  0  0  0  0  0  0  0  0
   59.8220   30.0280   48.1200 N   0  0  0  0  0  0  0  0  0  0  0  0
   59.0700   30.1630   47.0300 N   0  0  0  0  0  0  0  0  0  0  0  0
   58.6100   29.0580   46.2400 C   0  0  0  0  0  0  0  0  0  0  0  0
   59.4700   28.4670   45.3010 C   0  0  0  0  0  0  0  0  0  0  0  0
   59.0190   27.4150   44.4970 C   0  0  0  0  0  0  0  0  0  0  0  0
   57.7030   26.9580   44.6120 C   0  0  0  0  0  0  0  0  0  0  0  0
   56.8320   27.5600   45.5250 C   0  0  0  0  0  0  0  0  0  0  0  0
   55.5180   27.1190   45.6240 O   0  0  0  0  0  0  0  0  0  0  0  0
   57.2820   28.6110   46.3300 C   0  0  0  0  0  0  0  0  0  0  0  0
   62.5970   33.3300   49.9300 C   0  0  0  0  0  0  0  0  0  0  0  0
   67.9796   28.4910   51.9089 H   0  0  0  0  0  0  0  0  0  0  0  0
   66.9683   28.2355   50.4465 H   0  0  0  0  0  0  0  0  0  0  0  0
   68.2441   29.5001   50.4465 H   0  0  0  0  0  0  0  0  0  0  0  0
   65.7211   30.1843   50.8008 H   0  0  0  0  0  0  0  0  0  0  0  0
   66.0257   29.5939   52.4942 H   0  0  0  0  0  0  0  0  0  0  0  0
   67.0120   31.5094   53.0274 H   0  0  0  0  0  0  0  0  0  0  0  0
   68.1884   31.2866   51.6523 H   0  0  0  0  0  0  0  0  0  0  0  0
   64.2430   31.8820   51.6000 H   0  0  0  0  0  0  0  0  0  0  0  0
   65.5706   32.7317   48.3493 H   0  0  0  0  0  0  0  0  0  0  0  0
   64.2292   33.5095   46.3983 H   0  0  0  0  0  0  0  0  0  0  0  0
   61.8424   34.1620   46.6980 H   0  0  0  0  0  0  0  0  0  0  0  0
   60.0364   33.7637   49.9874 H   0  0  0  0  0  0  0  0  0  0  0  0
   60.2625   35.2073   48.9330 H   0  0  0  0  0  0  0  0  0  0  0  0
   56.7342   35.0989   45.5723 H   0  0  0  0  0  0  0  0  0  0  0  0
   58.0989   34.9395   44.4152 H   0  0  0  0  0  0  0  0  0  0  0  0
   56.7750   33.7255   44.4152 H   0  0  0  0  0  0  0  0  0  0  0  0
   60.5023   28.8325   45.1971 H   0  0  0  0  0  0  0  0  0  0  0  0
   59.7014   26.9463   43.7727 H   0  0  0  0  0  0  0  0  0  0  0  0
   57.3529   26.1252   43.9845 H   0  0  0  0  0  0  0  0  0  0  0  0
   56.5909   29.0909   47.0386 H   0  0  0  0  0  0  0  0  0  0  0  0
   62.1376   33.2888   50.9286 H   0  0  0  0  0  0  0  0  0  0  0  0
  1  2  1  0
  2  3  1  0
  3  4  1  0
  4  5  2  0
  4  6  2  0
  4  7  1  0
  7  8  1  0
  8  9  2  0
  9 10  1  0
 10 11  2  0
 11 12  1  0
 12 13  1  0
 13 14  1  0
 14 15  1  0
 15 16  2  0
 15 17  1  0
 17 18  1  0
 17 19  1  0
 19 20  2  0
 19 21  1  0
 21 22  2  0
 22 23  1  0
 23 24  2  0
 24 25  1  0
 25 26  1  0
 26 27  2  0
 27 28  1  0
 28 29  2  0
 29 30  1  0
 30 31  1  0
 30 32  2  0
 12 33  2  0
 33  8  1  0
 22 14  1  0
 32 26  1  0
 25 21  1  0
  1 34  1  0
  1 35  1  0
  1 36  1  0
  2 37  1  0
  2 38  1  0
  3 39  1  0
  3 40  1  0
  7 41  1  0
  9 42  1  0
 10 43  1  0
 11 44  1  0
 13 45  1  0
 13 46  1  0
 18 47  1  0
 18 48  1  0
 18 49  1  0
 27 50  1  0
 28 51  1  0
 29 52  1  0
 32 53  1  0
 33 54  1  0
M  CHG  1  31  -1
M  END
>  <UniqueID>  (61) 
57

>  <SMILES>  (61) 
CCCS(=O)(=O)Nc1cccc(Cn2c(=O)n(C)c(=O)c3c2nnn3-c2cccc([O-])c2)c1

>  <Energy>  (61) 
113.75825709972736

>  <Genealogy>  (61) 
CCCS(=O)(=O)Nc1cccc(Cn2c(=O)n(C)c(=O)c3c2nnn3-c2cccc([O-])c2)c1 (protonated)
CCCS(=O)(=O)Nc1cccc(Cn2c(=O)n(C)c(=O)c3c2nnn3-c2cccc([O-])c2)c1 (3D coordinates assigned)
CCCS(=O)(=O)Nc1cccc(Cn2c(=O)n(C)c(=O)c3c2nnn3-c2cccc([O-])c2)c1 (optimized conformer: 113.75825709972736 kcal/mol)

>  <smiles>  (61) 
CCCS(=O)(=O)Nc1cccc(Cn2c(=O)n(C)c(=O)c3c2nnn3-c2cccc(O)c2)c1

>  <score_type>  (61) 
oracle

>  <origin>  (61) 
adg

>  <m_score__min__energy>  (61) 
-13.039999999999999

>  <m_primary>  (61) 
energy

$$$$
61:0
     RDKit          3D

 43 45  0  0  0  0  0  0  0  0999 V2000
   58.0639   34.9879   44.5265 H   0  0  0  0  0  0  0  0  0  0  0  0
   58.4910   34.3010   45.2720 C   0  0  0  0  0  0  0  0  0  0  0  0
   58.2920   32.9820   45.1460 C   0  0  0  0  0  0  0  0  0  0  0  0
   57.6554   32.6073   44.3309 H   0  0  0  0  0  0  0  0  0  0  0  0
   58.9300   31.9940   46.1090 C   0  0  2  0  0  0  0  0  0  0  0  0
   58.9960   30.6010   45.4810 C   0  0  0  0  0  0  0  0  0  0  0  0
   59.9534   30.3261   45.0143 H   0  0  0  0  0  0  0  0  0  0  0  0
   58.0230   29.6690   45.4300 C   0  0  0  0  0  0  0  0  0  0  0  0
   58.2230   28.4290   45.8150 O   0  0  0  0  0  0  0  0  0  0  0  0
   57.1030   27.7450   45.6540 C   0  0  0  0  0  0  0  0  0  0  0  0
   57.0030   26.4240   45.9700 C   0  0  0  0  0  0  0  0  0  0  0  0
   58.1990   25.6890   46.1540 C   0  0  0  0  0  0  0  0  0  0  0  0
   59.1661   26.2007   46.0402 H   0  0  0  0  0  0  0  0  0  0  0  0
   58.1810   24.3320   46.4760 C   0  0  0  0  0  0  0  0  0  0  0  0
   59.1286   23.7898   46.6105 H   0  0  0  0  0  0  0  0  0  0  0  0
   56.9660   23.6560   46.6290 C   0  0  0  0  0  0  0  0  0  0  0  0
   56.9490   22.3550   46.9390 C   0  0  0  0  0  0  0  0  0  0  0  0
   55.9895   21.8304   47.0576 H   0  0  0  0  0  0  0  0  0  0  0  0
   57.8945   21.8097   47.0753 H   0  0  0  0  0  0  0  0  0  0  0  0
   55.7690   24.3610   46.4550 C   0  0  0  0  0  0  0  0  0  0  0  0
   54.8099   23.8359   46.5749 H   0  0  0  0  0  0  0  0  0  0  0  0
   55.7720   25.7230   46.1310 C   0  0  0  0  0  0  0  0  0  0  0  0
   54.5370   26.3380   45.9820 O   0  0  0  0  0  0  0  0  0  0  0  0
   56.1230   28.5390   45.1480 N   0  0  0  0  0  0  0  0  0  0  0  0
   55.1370   28.3330   44.8940 H   0  0  0  0  0  0  0  0  0  0  0  0
   56.7040   29.7410   45.0080 C   0  0  0  0  0  0  0  0  0  0  0  0
   56.1030   30.7440   44.5440 O   0  0  0  0  0  0  0  0  0  0  0  0
   58.1680   31.9030   47.4520 C   0  0  0  0  0  0  0  0  0  0  0  0
   58.8815   31.9882   48.2849 H   0  0  0  0  0  0  0  0  0  0  0  0
   57.4338   32.7198   47.5131 H   0  0  0  0  0  0  0  0  0  0  0  0
   57.6468   30.9362   47.5131 H   0  0  0  0  0  0  0  0  0  0  0  0
   60.3880   32.4780   46.3750 C   0  0  0  0  0  0  0  0  0  0  0  0
   60.9800   32.2874   45.4677 H   0  0  0  0  0  0  0  0  0  0  0  0
   60.7376   31.9191   47.2556 H   0  0  0  0  0  0  0  0  0  0  0  0
   60.5350   33.9910   46.7380 C   0  0  2  0  0  0  0  0  0  0  0  0
   61.3346   34.3621   46.0800 H   0  0  0  0  0  0  0  0  0  0  0  0
   60.9530   34.1760   48.2040 C   0  0  0  0  0  0  0  0  0  0  0  0
   60.1474   33.8195   48.8628 H   0  0  0  0  0  0  0  0  0  0  0  0
   61.8690   33.5992   48.3997 H   0  0  0  0  0  0  0  0  0  0  0  0
   61.1420   35.2418   48.3997 H   0  0  0  0  0  0  0  0  0  0  0  0
   59.2890   34.8540   46.4170 C   0  0  0  0  0  0  0  0  0  0  0  0
   59.6202   35.8707   46.1587 H   0  0  0  0  0  0  0  0  0  0  0  0
   58.6428   34.8553   47.3072 H   0  0  0  0  0  0  0  0  0  0  0  0
  1  2  1  0
  2  3  2  0
  3  4  1  0
  3  5  1  0
  5  6  1  0
  6  7  1  0
  6  8  2  3
  8  9  1  0
  9 10  1  0
 10 11  2  0
 11 12  1  0
 12 13  1  0
 12 14  2  0
 14 15  1  0
 14 16  1  0
 16 17  2  0
 17 18  1  0
 17 19  1  0
 16 20  1  0
 20 21  1  0
 20 22  2  0
 22 23  1  0
 10 24  1  0
 24 25  1  0
 24 26  1  0
 26 27  2  0
  5 28  1  1
 28 29  1  0
 28 30  1  0
 28 31  1  0
  5 32  1  0
 32 33  1  0
 32 34  1  0
 32 35  1  0
 35 36  1  6
 35 37  1  0
 37 38  1  0
 37 39  1  0
 37 40  1  0
 35 41  1  0
 41 42  1  0
 41 43  1  0
 41  2  1  0
 26  8  1  0
 22 11  1  0
M  CHG  1  23  -1
M  END
>  <UniqueID>  (62) 
58

>  <SMILES>  (62) 
C=c1cc/c(=c2/[nH]c(=O)c(=C[C@]3(C)C=CC[C@@H](C)C3)o2)c([O-])c1

>  <Energy>  (62) 
97.31127305634311

>  <Genealogy>  (62) 
C=c1ccc(=c2[nH]c(=O)c(=CC3(C)C=CCC(C)C3)o2)c([O-])c1 (protonated)
C=c1ccc(=c2[nH]c(=O)c(=C[C@]3(C)C=CC[C@@H](C)C3)o2)c([O-])c1 (chirality)
C=c1cc/c(=c2/[nH]c(=O)c(=C[C@]3(C)C=CC[C@@H](C)C3)o2)c([O-])c1 (cis-trans isomerization)
C=c1cc/c(=c2/[nH]c(=O)c(=C[C@]3(C)C=CC[C@@H](C)C3)o2)c([O-])c1 (3D coordinates assigned)
C=c1cc/c(=c2/[nH]c(=O)c(=C[C@]3(C)C=CC[C@@H](C)C3)o2)c([O-])c1 (nonaromatic ring conformer: 97.31127305634311 kcal/mol)

>  <smiles>  (62) 
C=c1ccc(=c2[nH]c(=O)c(=CC3(C)C=CCC(C)C3)o2)c(O)c1

>  <score_type>  (62) 
oracle

>  <origin>  (62) 
adg

>  <m_score__min__energy>  (62) 
-12.65

>  <m_primary>  (62) 
energy

$$$$
62:0
     RDKit          3D

 24 25  0  0  0  0  0  0  0  0999 V2000
   55.1360   29.3690   44.7850 N   0  0  0  0  0  0  0  0  0  0  0  0
   56.7310   29.9320   44.4280 S   0  0  0  0  0  0  0  0  0  0  0  0
   56.9080   31.3200   44.9790 O   0  0  0  0  0  0  0  0  0  0  0  0
   56.9270   29.9750   42.9380 O   0  0  0  0  0  0  0  0  0  0  0  0
   57.9100   28.8460   45.1540 C   0  0  0  0  0  0  0  0  0  0  0  0
   59.2770   29.0210   44.9030 C   0  0  0  0  0  0  0  0  0  0  0  0
   60.2130   28.1750   45.5020 C   0  0  0  0  0  0  0  0  0  0  0  0
   59.7900   27.1460   46.3480 C   0  0  0  0  0  0  0  0  0  0  0  0
   58.4190   26.9470   46.5890 C   0  0  0  0  0  0  0  0  0  0  0  0
   57.9420   25.9270   47.4850 N   0  0  0  0  0  0  0  0  0  0  0  0
   57.1390   24.9450   47.1950 C   0  0  0  0  0  0  0  0  0  0  0  0
   57.5080   23.6760   47.5070 N   0  0  0  0  0  0  0  0  0  0  0  0
   56.6780   22.6360   47.2380 C   0  0  0  0  0  0  0  0  0  0  0  0
   57.0290   21.4610   47.5230 O   0  0  0  0  0  0  0  0  0  0  0  0
   55.4710   22.8620   46.6630 N   0  0  0  0  0  0  0  0  0  0  0  0
   55.0920   24.1290   46.3610 C   0  0  0  0  0  0  0  0  0  0  0  0
   53.9700   24.3400   45.8310 O   0  0  0  0  0  0  0  0  0  0  0  0
   55.9220   25.1670   46.6300 N   0  0  0  0  0  0  0  0  0  0  0  0
   57.4880   27.8200   46.0110 C   0  0  0  0  0  0  0  0  0  0  0  0
   55.2190   28.7100   45.5910 H   0  0  0  0  0  0  0  0  0  0  0  0
   59.6137   29.8259   44.2331 H   0  0  0  0  0  0  0  0  0  0  0  0
   61.2860   28.3189   45.3074 H   0  0  0  0  0  0  0  0  0  0  0  0
   60.5318   26.4898   46.8267 H   0  0  0  0  0  0  0  0  0  0  0  0
   56.4171   27.6993   46.2315 H   0  0  0  0  0  0  0  0  0  0  0  0
  1  2  1  0
  2  3  2  0
  2  4  2  0
  2  5  1  0
  5  6  2  0
  6  7  1  0
  7  8  2  0
  8  9  1  0
  9 10  1  0
 10 11  2  3
 11 12  1  0
 12 13  1  0
 13 14  2  0
 13 15  1  0
 15 16  1  0
 16 17  2  0
 16 18  1  0
  9 19  2  0
 19  5  1  0
 18 11  1  0
  1 20  1  0
  6 21  1  0
  7 22  1  0
  8 23  1  0
 19 24  1  0
M  CHG  4   1  -1  12  -1  15  -1  18  -1
M  END
>  <UniqueID>  (63) 
59

>  <SMILES>  (63) 
[NH-]S(=O)(=O)c1cccc(N=c2[n-]c(=O)[n-]c(=O)[n-]2)c1

>  <Energy>  (63) 
32.06063733142989

>  <Genealogy>  (63) 
[NH-]S(=O)(=O)c1cccc(N=c2[n-]c(=O)[n-]c(=O)[n-]2)c1 (protonated)
[NH-]S(=O)(=O)c1cccc(N=c2[n-]c(=O)[n-]c(=O)[n-]2)c1 (3D coordinates assigned)
[NH-]S(=O)(=O)c1cccc(N=c2[n-]c(=O)[n-]c(=O)[n-]2)c1 (optimized conformer: 32.06063733142989 kcal/mol)

>  <smiles>  (63) 
NS(=O)(=O)c1cccc(N=c2[nH]c(=O)[nH]c(=O)[nH]2)c1

>  <score_type>  (63) 
oracle

>  <origin>  (63) 
adg

>  <m_score__min__energy>  (63) 
-14.57

>  <m_primary>  (63) 
energy

$$$$
63:0
     RDKit          3D

 54 57  0  0  0  0  0  0  0  0999 V2000
   57.4970   33.8750   47.0870 O   0  0  0  0  0  0  0  0  0  0  0  0
   58.7410   33.6640   47.0960 C   0  0  0  0  0  0  0  0  0  0  0  0
   59.4740   33.6160   45.8630 N   0  0  0  0  0  0  0  0  0  0  0  0
   58.8710   33.9510   44.5730 C   0  0  0  0  0  0  0  0  0  0  0  0
   58.0900   32.7870   44.0120 C   0  0  0  0  0  0  0  0  0  0  0  0
   57.8690   32.6940   42.6270 C   0  0  0  0  0  0  0  0  0  0  0  0
   57.2220   31.5770   42.0910 C   0  0  0  0  0  0  0  0  0  0  0  0
   56.7940   30.5440   42.9280 C   0  0  0  0  0  0  0  0  0  0  0  0
   56.9920   30.6270   44.3110 C   0  0  0  0  0  0  0  0  0  0  0  0
   56.5610   29.5720   45.1230 O   0  0  0  0  0  0  0  0  0  0  0  0
   57.0650   28.2630   45.0670 C   0  0  0  0  0  0  0  0  0  0  0  0
   57.6670   27.8170   43.8820 C   0  0  0  0  0  0  0  0  0  0  0  0
   58.1520   26.5080   43.7840 C   0  0  0  0  0  0  0  0  0  0  0  0
   58.0270   25.6330   44.8660 C   0  0  0  0  0  0  0  0  0  0  0  0
   57.4170   26.0650   46.0480 C   0  0  0  0  0  0  0  0  0  0  0  0
   56.9350   27.3750   46.1510 C   0  0  0  0  0  0  0  0  0  0  0  0
   57.6570   31.7430   44.8510 C   0  0  0  0  0  0  0  0  0  0  0  0
   59.4450   33.3850   48.3970 C   0  0  2  0  0  0  0  0  0  0  0  0
   60.5960   34.3910   48.6230 C   0  0  0  0  0  0  0  0  0  0  0  0
   61.9080   33.6360   48.3640 C   0  0  0  0  0  0  0  0  0  0  0  0
   61.4780   32.2200   48.3490 C   0  0  0  0  0  0  0  0  0  0  0  0
   62.2770   31.2470   48.3300 O   0  0  0  0  0  0  0  0  0  0  0  0
   60.0700   32.0690   48.3650 N   0  0  0  0  0  0  0  0  0  0  0  0
   59.3630   30.8050   48.5760 C   0  0  0  0  0  0  0  0  0  0  0  0
   59.7650   29.8000   47.5300 C   0  0  0  0  0  0  0  0  0  0  0  0
   60.0350   30.2160   46.2140 C   0  0  0  0  0  0  0  0  0  0  0  0
   60.4650   29.2920   45.2560 C   0  0  0  0  0  0  0  0  0  0  0  0
   60.6250   27.9460   45.6020 C   0  0  0  0  0  0  0  0  0  0  0  0
   60.3490   27.5230   46.9050 C   0  0  0  0  0  0  0  0  0  0  0  0
   59.9230   28.4450   47.8690 C   0  0  0  0  0  0  0  0  0  0  0  0
   60.4860   33.3570   45.8840 H   0  0  0  0  0  0  0  0  0  0  0  0
   58.1924   34.8064   44.7063 H   0  0  0  0  0  0  0  0  0  0  0  0
   59.6776   34.1993   43.8675 H   0  0  0  0  0  0  0  0  0  0  0  0
   58.2064   33.5032   41.9626 H   0  0  0  0  0  0  0  0  0  0  0  0
   57.0494   31.5113   41.0066 H   0  0  0  0  0  0  0  0  0  0  0  0
   56.2988   29.6608   42.4981 H   0  0  0  0  0  0  0  0  0  0  0  0
   57.7586   28.4998   43.0245 H   0  0  0  0  0  0  0  0  0  0  0  0
   58.6319   26.1678   42.8545 H   0  0  0  0  0  0  0  0  0  0  0  0
   58.4084   24.6042   44.7882 H   0  0  0  0  0  0  0  0  0  0  0  0
   57.3159   25.3742   46.8980 H   0  0  0  0  0  0  0  0  0  0  0  0
   56.4536   27.7111   47.0812 H   0  0  0  0  0  0  0  0  0  0  0  0
   57.8395   31.8000   45.9343 H   0  0  0  0  0  0  0  0  0  0  0  0
   58.6872   33.4566   49.1911 H   0  0  0  0  0  0  0  0  0  0  0  0
   60.5020   35.2359   47.9250 H   0  0  0  0  0  0  0  0  0  0  0  0
   60.5701   34.7945   49.6460 H   0  0  0  0  0  0  0  0  0  0  0  0
   62.3475   33.9263   47.3983 H   0  0  0  0  0  0  0  0  0  0  0  0
   62.6849   33.8458   49.1139 H   0  0  0  0  0  0  0  0  0  0  0  0
   59.6130   30.4114   49.5723 H   0  0  0  0  0  0  0  0  0  0  0  0
   58.2802   30.9843   48.5022 H   0  0  0  0  0  0  0  0  0  0  0  0
   59.9074   31.2728   45.9368 H   0  0  0  0  0  0  0  0  0  0  0  0
   60.6776   29.6242   44.2291 H   0  0  0  0  0  0  0  0  0  0  0  0
   60.9678   27.2211   44.8490 H   0  0  0  0  0  0  0  0  0  0  0  0
   60.4667   26.4629   47.1741 H   0  0  0  0  0  0  0  0  0  0  0  0
   59.7114   28.1080   48.8945 H   0  0  0  0  0  0  0  0  0  0  0  0
  1  2  2  0
  2  3  1  0
  3  4  1  0
  4  5  1  0
  5  6  2  0
  6  7  1  0
  7  8  2  0
  8  9  1  0
  9 10  1  0
 10 11  1  0
 11 12  2  0
 12 13  1  0
 13 14  2  0
 14 15  1  0
 15 16  2  0
  9 17  2  0
  2 18  1  0
 18 19  1  0
 19 20  1  0
 20 21  1  0
 21 22  2  0
 21 23  1  0
 23 24  1  0
 24 25  1  0
 25 26  2  0
 26 27  1  0
 27 28  2  0
 28 29  1  0
 29 30  2  0
 17  5  1  0
 23 18  1  0
 30 25  1  0
 16 11  1  0
  3 31  1  0
  4 32  1  0
  4 33  1  0
  6 34  1  0
  7 35  1  0
  8 36  1  0
 12 37  1  0
 13 38  1  0
 14 39  1  0
 15 40  1  0
 16 41  1  0
 17 42  1  0
 18 43  1  1
 19 44  1  0
 19 45  1  0
 20 46  1  0
 20 47  1  0
 24 48  1  0
 24 49  1  0
 26 50  1  0
 27 51  1  0
 28 52  1  0
 29 53  1  0
 30 54  1  0
M  END
>  <UniqueID>  (64) 
60

>  <SMILES>  (64) 
O=C(NCc1cccc(Oc2ccccc2)c1)[C@@H]1CCC(=O)N1Cc1ccccc1

>  <Energy>  (64) 
63.82877064159029

>  <Genealogy>  (64) 
O=C(NCc1cccc(Oc2ccccc2)c1)[C@@H]1CCC(=O)N1Cc1ccccc1 (chirality)
O=C(NCc1cccc(Oc2ccccc2)c1)[C@@H]1CCC(=O)N1Cc1ccccc1 (3D coordinates assigned)
O=C(NCc1cccc(Oc2ccccc2)c1)[C@@H]1CCC(=O)N1Cc1ccccc1 (nonaromatic ring conformer: 63.82877064159029 kcal/mol)

>  <smiles>  (64) 
O=C(NCc1cccc(Oc2ccccc2)c1)C1CCC(=O)N1Cc1ccccc1

>  <score_type>  (64) 
oracle

>  <origin>  (64) 
adg

>  <m_score__min__energy>  (64) 
-9.1999999999999993

>  <m_primary>  (64) 
energy

$$$$
64:0
     RDKit          3D

 42 44  0  0  0  0  0  0  0  0999 V2000
   59.7715   26.7616   45.9235 H   0  0  0  0  0  0  0  0  0  0  0  0
   58.6750   26.6800   45.9570 C   0  0  0  0  0  0  0  0  0  0  0  0
   57.9030   27.7360   45.5920 N   0  0  0  0  0  0  0  0  0  0  0  0
   56.5410   27.6940   45.6110 C   0  0  0  0  0  0  0  0  0  0  0  0
   55.8960   28.7690   45.2500 N   0  0  0  0  0  0  0  0  0  0  0  0
   56.1230   29.5780   44.0900 C   0  0  0  0  0  0  0  0  0  0  0  0
   55.2370   29.6370   43.2000 O   0  0  0  0  0  0  0  0  0  0  0  0
   57.4390   30.2750   43.8890 C   0  0  0  0  0  0  0  0  0  0  0  0
   58.2241   29.5200   43.7358 H   0  0  0  0  0  0  0  0  0  0  0  0
   57.3523   30.9317   43.0108 H   0  0  0  0  0  0  0  0  0  0  0  0
   57.7920   31.1040   45.0550 N   0  0  0  0  0  0  0  0  0  0  0  0
   58.7320   30.6080   46.0350 C   0  0  0  0  0  0  0  0  0  0  0  0
   60.0030   30.1540   45.6360 C   0  0  0  0  0  0  0  0  0  0  0  0
   60.2793   30.1706   44.5714 H   0  0  0  0  0  0  0  0  0  0  0  0
   60.9170   29.6820   46.5830 C   0  0  0  0  0  0  0  0  0  0  0  0
   61.9079   29.3300   46.2603 H   0  0  0  0  0  0  0  0  0  0  0  0
   60.5780   29.6560   47.9310 C   0  0  0  0  0  0  0  0  0  0  0  0
   61.3010   29.2873   48.6735 H   0  0  0  0  0  0  0  0  0  0  0  0
   59.3170   30.0990   48.3420 C   0  0  0  0  0  0  0  0  0  0  0  0
   58.8910   30.0730   50.0420 Cl  0  0  0  0  0  0  0  0  0  0  0  0
   58.3960   30.5700   47.4020 C   0  0  0  0  0  0  0  0  0  0  0  0
   57.4040   30.9126   47.7316 H   0  0  0  0  0  0  0  0  0  0  0  0
   57.0930   32.3800   45.2970 C   0  0  0  0  0  0  0  0  0  0  0  0
   56.6298   32.7164   44.3577 H   0  0  0  0  0  0  0  0  0  0  0  0
   56.3324   32.2124   46.0738 H   0  0  0  0  0  0  0  0  0  0  0  0
   58.0380   33.4500   45.7870 C   0  0  0  0  0  0  0  0  0  0  0  0
   58.2890   33.6030   47.1620 C   0  0  0  0  0  0  0  0  0  0  0  0
   57.7787   32.9526   47.8876 H   0  0  0  0  0  0  0  0  0  0  0  0
   59.1850   34.5790   47.6110 C   0  0  0  0  0  0  0  0  0  0  0  0
   59.3790   34.6935   48.6877 H   0  0  0  0  0  0  0  0  0  0  0  0
   59.8340   35.4090   46.6920 C   0  0  0  0  0  0  0  0  0  0  0  0
   60.5433   36.1718   47.0455 H   0  0  0  0  0  0  0  0  0  0  0  0
   59.5820   35.2700   45.3250 C   0  0  0  0  0  0  0  0  0  0  0  0
   60.0922   35.9245   44.6030 H   0  0  0  0  0  0  0  0  0  0  0  0
   58.6830   34.3010   44.8740 C   0  0  0  0  0  0  0  0  0  0  0  0
   58.4787   34.2035   43.7975 H   0  0  0  0  0  0  0  0  0  0  0  0
   55.9040   26.4890   46.0010 C   0  0  0  0  0  0  0  0  0  0  0  0
   54.5200   26.3360   45.9790 O   0  0  0  0  0  0  0  0  0  0  0  0
   56.6860   25.4000   46.3900 C   0  0  0  0  0  0  0  0  0  0  0  0
   56.2030   24.4651   46.7103 H   0  0  0  0  0  0  0  0  0  0  0  0
   58.0760   25.4930   46.3740 C   0  0  0  0  0  0  0  0  0  0  0  0
   58.6940   24.6386   46.6872 H   0  0  0  0  0  0  0  0  0  0  0  0
  1  2  1  0
  2  3  1  0
  3  4  1  0
  4  5  2  0
  5  6  1  0
  6  7  2  0
  6  8  1  0
  8  9  1  0
  8 10  1  0
  8 11  1  0
 11 12  1  0
 12 13  2  0
 13 14  1  0
 13 15  1  0
 15 16  1  0
 15 17  2  0
 17 18  1  0
 17 19  1  0
 19 20  1  0
 19 21  2  0
 21 22  1  0
 11 23  1  0
 23 24  1  0
 23 25  1  0
 23 26  1  0
 26 27  2  0
 27 28  1  0
 27 29  1  0
 29 30  1  0
 29 31  2  0
 31 32  1  0
 31 33  1  0
 33 34  1  0
 33 35  2  0
 35 36  1  0
  4 37  1  0
 37 38  1  0
 37 39  2  0
 39 40  1  0
 39 41  1  0
 41 42  1  0
 41  2  2  0
 21 12  1  0
 35 26  1  0
M  CHG  2   3  -1  38  -1
M  END
>  <UniqueID>  (65) 
61

>  <SMILES>  (65) 
O=C(CN(Cc1ccccc1)c1cccc(Cl)c1)/N=c1/[n-]cccc1[O-]

>  <Energy>  (65) 
60.17528621926858

>  <Genealogy>  (65) 
O=C(CN(Cc1ccccc1)c1cccc(Cl)c1)N=c1[n-]cccc1[O-] (protonated)
O=C(CN(Cc1ccccc1)c1cccc(Cl)c1)/N=c1/[n-]cccc1[O-] (cis-trans isomerization)
O=C(CN(Cc1ccccc1)c1cccc(Cl)c1)/N=c1/[n-]cccc1[O-] (3D coordinates assigned)
O=C(CN(Cc1ccccc1)c1cccc(Cl)c1)/N=c1/[n-]cccc1[O-] (optimized conformer: 60.17528621926858 kcal/mol)

>  <smiles>  (65) 
O=C(CN(Cc1ccccc1)c1cccc(Cl)c1)N=c1[nH]cccc1O

>  <score_type>  (65) 
oracle

>  <origin>  (65) 
adg

>  <m_score__min__energy>  (65) 
-13.77

>  <m_primary>  (65) 
energy

$$$$
65:0
     RDKit          3D

 38 39  0  0  0  0  0  0  0  0999 V2000
   64.3150   32.9510   47.7250 N   0  0  0  0  0  0  0  0  0  0  0  0
   63.1270   33.6530   48.1190 C   0  0  0  0  0  0  0  0  0  0  0  0
   63.0820   34.2520   49.4180 N   0  0  0  0  0  0  0  0  0  0  0  0
   62.1130   33.8010   47.3070 N   0  0  0  0  0  0  0  0  0  0  0  0
   60.7510   34.0010   47.7220 C   0  0  0  0  0  0  0  0  0  0  0  0
   60.4980   34.7630   48.6970 O   0  0  0  0  0  0  0  0  0  0  0  0
   59.6340   33.3720   46.9750 C   0  0  0  0  0  0  0  0  0  0  0  0
   59.3070   32.0190   47.1740 C   0  0  0  0  0  0  0  0  0  0  0  0
   58.2440   31.4340   46.4790 C   0  0  0  0  0  0  0  0  0  0  0  0
   57.4820   32.1940   45.5760 C   0  0  0  0  0  0  0  0  0  0  0  0
   56.3750   31.6340   44.8540 N   0  0  0  0  0  0  0  0  0  0  0  0
   56.4480   30.2240   43.8490 S   0  0  0  0  0  0  0  0  0  0  0  0
   55.0620   29.6760   43.6650 O   0  0  0  0  0  0  0  0  0  0  0  0
   57.0030   30.6040   42.5050 O   0  0  0  0  0  0  0  0  0  0  0  0
   57.4460   28.9950   44.6200 C   0  0  0  0  0  0  0  0  0  0  0  0
   58.8370   29.0440   44.4760 C   0  0  0  0  0  0  0  0  0  0  0  0
   59.6390   28.0700   45.0720 C   0  0  0  0  0  0  0  0  0  0  0  0
   59.0570   27.0400   45.8160 C   0  0  0  0  0  0  0  0  0  0  0  0
   57.6600   26.9750   45.9730 C   0  0  0  0  0  0  0  0  0  0  0  0
   57.0640   25.9110   46.7370 N   0  0  0  0  0  0  0  0  0  0  0  0
   57.7280   25.2910   47.5940 O   0  0  0  0  0  0  0  0  0  0  0  0
   55.7500   25.5550   46.5330 O   0  0  0  0  0  0  0  0  0  0  0  0
   56.8600   27.9630   45.3690 C   0  0  0  0  0  0  0  0  0  0  0  0
   57.8050   33.5420   45.3750 C   0  0  0  0  0  0  0  0  0  0  0  0
   57.0810   34.2930   44.5060 F   0  0  0  0  0  0  0  0  0  0  0  0
   58.8680   34.1280   46.0700 C   0  0  0  0  0  0  0  0  0  0  0  0
   65.0630   32.7600   48.4270 H   0  0  0  0  0  0  0  0  0  0  0  0
   64.5200   32.7140   46.7300 H   0  0  0  0  0  0  0  0  0  0  0  0
   62.2330   34.7640   49.7460 H   0  0  0  0  0  0  0  0  0  0  0  0
   63.9020   34.1840   50.0620 H   0  0  0  0  0  0  0  0  0  0  0  0
   62.2960   33.8030   46.2770 H   0  0  0  0  0  0  0  0  0  0  0  0
   59.8927   31.4153   47.8828 H   0  0  0  0  0  0  0  0  0  0  0  0
   58.0031   30.3729   46.6402 H   0  0  0  0  0  0  0  0  0  0  0  0
   59.2996   29.8527   43.8912 H   0  0  0  0  0  0  0  0  0  0  0  0
   60.7320   28.1130   44.9559 H   0  0  0  0  0  0  0  0  0  0  0  0
   59.6952   26.2749   46.2821 H   0  0  0  0  0  0  0  0  0  0  0  0
   55.7668   27.9260   45.4850 H   0  0  0  0  0  0  0  0  0  0  0  0
   59.1068   35.1894   45.9072 H   0  0  0  0  0  0  0  0  0  0  0  0
  1  2  1  0
  2  3  1  0
  2  4  2  3
  4  5  1  0
  5  6  2  0
  5  7  1  0
  7  8  2  0
  8  9  1  0
  9 10  2  0
 10 11  1  0
 11 12  1  0
 12 13  2  0
 12 14  2  0
 12 15  1  0
 15 16  2  0
 16 17  1  0
 17 18  2  0
 18 19  1  0
 19 20  1  0
 20 21  2  0
 20 22  1  0
 19 23  2  0
 10 24  1  0
 24 25  1  0
 24 26  2  0
 26  7  1  0
 23 15  1  0
  1 27  1  0
  1 28  1  0
  3 29  1  0
  3 30  1  0
  4 31  1  0
  8 32  1  0
  9 33  1  0
 16 34  1  0
 17 35  1  0
 18 36  1  0
 23 37  1  0
 26 38  1  0
M  CHG  4   4   1  11  -1  20   1  22  -1
M  END
>  <UniqueID>  (66) 
62

>  <SMILES>  (66) 
NC(N)=[NH+]C(=O)c1ccc([N-]S(=O)(=O)c2cccc([N+](=O)[O-])c2)c(F)c1

>  <Energy>  (66) 
48.02651171637743

>  <Genealogy>  (66) 
NC(N)=[NH+]C(=O)c1ccc([N-]S(=O)(=O)c2cccc([N+](=O)[O-])c2)c(F)c1 (protonated)
NC(N)=[NH+]C(=O)c1ccc([N-]S(=O)(=O)c2cccc([N+](=O)[O-])c2)c(F)c1 (3D coordinates assigned)
NC(N)=[NH+]C(=O)c1ccc([N-]S(=O)(=O)c2cccc([N+](=O)[O-])c2)c(F)c1 (optimized conformer: 48.02651171637743 kcal/mol)

>  <smiles>  (66) 
NC(N)=NC(=O)c1ccc(NS(=O)(=O)c2cccc([N+](=O)[O-])c2)c(F)c1

>  <score_type>  (66) 
oracle

>  <origin>  (66) 
adg

>  <m_score__min__energy>  (66) 
-8.9299999999999997

>  <m_primary>  (66) 
energy

$$$$
66:0
     RDKit          3D

 42 45  0  0  0  0  0  0  0  0999 V2000
   53.6510   25.9640   46.3870 H   0  0  0  0  0  0  0  0  0  0  0  0
   54.5250   25.6300   45.9200 N   0  0  0  0  0  0  0  0  0  0  0  0
   55.6610   26.2170   46.1130 C   0  0  0  0  0  0  0  0  0  0  0  0
   55.8950   27.4340   45.5580 N   0  0  0  0  0  0  0  0  0  0  0  0
   57.0770   28.0860   45.7400 C   0  0  0  0  0  0  0  0  0  0  0  0
   57.2820   29.4140   45.1050 C   0  0  0  0  0  0  0  0  0  0  0  0
   56.8220   29.6400   43.7970 C   0  0  0  0  0  0  0  0  0  0  0  0
   56.3173   28.8308   43.2489 H   0  0  0  0  0  0  0  0  0  0  0  0
   57.0000   30.8830   43.1870 C   0  0  0  0  0  0  0  0  0  0  0  0
   56.6406   31.0461   42.1602 H   0  0  0  0  0  0  0  0  0  0  0  0
   57.6320   31.9190   43.8750 C   0  0  0  0  0  0  0  0  0  0  0  0
   57.7719   32.8946   43.3865 H   0  0  0  0  0  0  0  0  0  0  0  0
   58.0910   31.7230   45.1890 C   0  0  0  0  0  0  0  0  0  0  0  0
   58.7570   32.8240   45.9290 C   0  0  0  0  0  0  0  0  0  0  0  0
   58.9910   34.0600   45.3050 C   0  0  0  0  0  0  0  0  0  0  0  0
   58.6807   34.2206   44.2620 H   0  0  0  0  0  0  0  0  0  0  0  0
   59.6180   35.0810   46.0140 C   0  0  0  0  0  0  0  0  0  0  0  0
   59.8110   36.0490   45.5284 H   0  0  0  0  0  0  0  0  0  0  0  0
   60.0010   34.8780   47.3370 C   0  0  0  0  0  0  0  0  0  0  0  0
   60.5033   35.6805   47.8970 H   0  0  0  0  0  0  0  0  0  0  0  0
   59.7410   33.6370   47.9550 C   0  0  0  0  0  0  0  0  0  0  0  0
   60.0900   33.3850   49.1880 N   0  0  0  0  0  0  0  0  0  0  0  0
   59.2330   33.0560   50.2930 C   0  0  0  0  0  0  0  0  0  0  0  0
   59.2910   33.8320   51.4580 C   0  0  0  0  0  0  0  0  0  0  0  0
   59.9553   34.7078   51.4996 H   0  0  0  0  0  0  0  0  0  0  0  0
   58.5090   33.4990   52.5680 C   0  0  0  0  0  0  0  0  0  0  0  0
   58.5451   34.1234   53.4729 H   0  0  0  0  0  0  0  0  0  0  0  0
   57.6810   32.3730   52.5290 C   0  0  0  0  0  0  0  0  0  0  0  0
   57.0589   32.1172   53.3993 H   0  0  0  0  0  0  0  0  0  0  0  0
   57.6440   31.5720   51.3830 C   0  0  0  0  0  0  0  0  0  0  0  0
   56.8580   30.4680   51.3530 F   0  0  0  0  0  0  0  0  0  0  0  0
   58.4260   31.9040   50.2720 C   0  0  0  0  0  0  0  0  0  0  0  0
   58.4099   31.2622   49.3788 H   0  0  0  0  0  0  0  0  0  0  0  0
   59.1440   32.6470   47.2290 N   0  0  0  0  0  0  0  0  0  0  0  0
   58.9910   31.7190   47.6860 H   0  0  0  0  0  0  0  0  0  0  0  0
   57.9080   30.4690   45.7970 C   0  0  0  0  0  0  0  0  0  0  0  0
   58.2585   30.3094   46.8274 H   0  0  0  0  0  0  0  0  0  0  0  0
   58.0780   27.4730   46.5120 C   0  0  0  0  0  0  0  0  0  0  0  0
   59.0473   27.9688   46.6692 H   0  0  0  0  0  0  0  0  0  0  0  0
   57.8190   26.2240   47.0750 C   0  0  0  0  0  0  0  0  0  0  0  0
   58.5865   25.7275   47.6869 H   0  0  0  0  0  0  0  0  0  0  0  0
   56.6210   25.6200   46.8690 N   0  0  0  0  0  0  0  0  0  0  0  0
  1  2  1  0
  2  3  2  0
  3  4  1  0
  4  5  2  0
  5  6  1  0
  6  7  2  0
  7  8  1  0
  7  9  1  0
  9 10  1  0
  9 11  2  0
 11 12  1  0
 11 13  1  0
 13 14  1  0
 14 15  2  0
 15 16  1  0
 15 17  1  0
 17 18  1  0
 17 19  2  0
 19 20  1  0
 19 21  1  0
 21 22  2  0
 22 23  1  0
 23 24  2  0
 24 25  1  0
 24 26  1  0
 26 27  1  0
 26 28  2  0
 28 29  1  0
 28 30  1  0
 30 31  1  0
 30 32  2  0
 32 33  1  0
 21 34  1  0
 34 35  1  0
 13 36  2  0
 36 37  1  0
  5 38  1  0
 38 39  1  0
 38 40  2  0
 40 41  1  0
 40 42  1  0
 42  3  1  0
 36  6  1  0
 34 14  1  0
 32 23  1  0
M  CHG  1  42  -1
M  END
>  <UniqueID>  (67) 
63

>  <SMILES>  (67) 
[H]/N=c1/nc(-c2cccc(-c3ccc/c(=N\c4cccc(F)c4)[nH]3)c2)cc[n-]1

>  <Energy>  (67) 
66.8218392695765

>  <Genealogy>  (67) 
N=c1nc(-c2cccc(-c3cccc(=Nc4cccc(F)c4)[nH]3)c2)cc[n-]1 (protonated)
[H]/N=c1/nc(-c2cccc(-c3ccc/c(=N\c4cccc(F)c4)[nH]3)c2)cc[n-]1 (cis-trans isomerization)
[H]/N=c1/nc(-c2cccc(-c3ccc/c(=N\c4cccc(F)c4)[nH]3)c2)cc[n-]1 (3D coordinates assigned)
[H]/N=c1/nc(-c2cccc(-c3ccc/c(=N\c4cccc(F)c4)[nH]3)c2)cc[n-]1 (optimized conformer: 66.8218392695765 kcal/mol)

>  <smiles>  (67) 
N=c1nc(-c2cccc(-c3cccc(=Nc4cccc(F)c4)[nH]3)c2)cc[nH]1

>  <score_type>  (67) 
oracle

>  <origin>  (67) 
adg

>  <m_score__min__energy>  (67) 
-11.52

>  <m_primary>  (67) 
energy

$$$$
67:0
     RDKit          3D

 57 60  0  0  0  0  0  0  0  0999 V2000
   60.9180   33.6600   49.7100 H   0  0  0  0  0  0  0  0  0  0  0  0
   60.0440   34.1880   49.4860 N   0  0  0  0  0  0  0  0  0  0  0  0
   59.4010   33.9930   48.3810 C   0  0  0  0  0  0  0  0  0  0  0  0
   59.6500   34.7770   47.2980 N   0  0  0  0  0  0  0  0  0  0  0  0
   59.0040   34.6060   46.1110 C   0  0  0  0  0  0  0  0  0  0  0  0
   59.3390   35.5280   44.9750 C   0  0  0  0  0  0  0  0  0  0  0  0
   59.6889   36.4910   45.3753 H   0  0  0  0  0  0  0  0  0  0  0  0
   60.1310   35.0777   44.3586 H   0  0  0  0  0  0  0  0  0  0  0  0
   58.4427   35.6911   44.3586 H   0  0  0  0  0  0  0  0  0  0  0  0
   58.0450   33.5730   45.9800 C   0  0  0  0  0  0  0  0  0  0  0  0
   57.2720   33.3560   44.7050 C   0  0  0  0  0  0  0  0  0  0  0  0
   56.3138   32.8670   44.9349 H   0  0  0  0  0  0  0  0  0  0  0  0
   57.0800   34.3250   44.2211 H   0  0  0  0  0  0  0  0  0  0  0  0
   58.0470   32.5100   43.8110 N   0  0  0  0  0  0  0  0  0  0  0  0
   57.5710   31.2610   43.3020 C   0  0  0  0  0  0  0  0  0  0  0  0
   57.0720   31.1950   42.1460 O   0  0  0  0  0  0  0  0  0  0  0  0
   57.6440   30.0640   44.1570 C   0  0  0  0  0  0  0  0  0  0  0  0
   58.8360   29.7170   44.7070 N   0  0  0  0  0  0  0  0  0  0  0  0
   58.9740   28.6750   45.5330 N   0  0  0  0  0  0  0  0  0  0  0  0
   60.2930   28.4550   46.1360 C   0  0  0  0  0  0  0  0  0  0  0  0
   60.4160   27.3870   46.3687 H   0  0  0  0  0  0  0  0  0  0  0  0
   61.0755   28.7695   45.4297 H   0  0  0  0  0  0  0  0  0  0  0  0
   60.4080   29.2610   47.4030 C   0  0  0  0  0  0  0  0  0  0  0  0
   59.5240   29.0180   48.4650 C   0  0  0  0  0  0  0  0  0  0  0  0
   58.8020   28.1907   48.3992 H   0  0  0  0  0  0  0  0  0  0  0  0
   59.5580   29.8230   49.6050 C   0  0  0  0  0  0  0  0  0  0  0  0
   58.8737   29.6175   50.4413 H   0  0  0  0  0  0  0  0  0  0  0  0
   60.4580   30.8890   49.6880 C   0  0  0  0  0  0  0  0  0  0  0  0
   60.4759   31.5223   50.5872 H   0  0  0  0  0  0  0  0  0  0  0  0
   61.3410   31.1550   48.6260 C   0  0  0  0  0  0  0  0  0  0  0  0
   62.2510   32.2610   48.6560 N   0  0  0  0  0  0  0  0  0  0  0  0
   62.8870   32.9840   50.0990 S   0  0  0  0  0  0  0  0  0  0  0  0
   62.0010   32.6380   51.2600 O   0  0  0  0  0  0  0  0  0  0  0  0
   62.9150   34.4770   49.9290 O   0  0  0  0  0  0  0  0  0  0  0  0
   64.5060   32.3640   50.4120 C   0  0  0  0  0  0  0  0  0  0  0  0
   64.6720   31.1290   51.0550 C   0  0  0  0  0  0  0  0  0  0  0  0
   63.7905   30.5575   51.3809 H   0  0  0  0  0  0  0  0  0  0  0  0
   65.9550   30.6220   51.2830 C   0  0  0  0  0  0  0  0  0  0  0  0
   66.0815   29.6515   51.7852 H   0  0  0  0  0  0  0  0  0  0  0  0
   67.0770   31.3480   50.8730 C   0  0  0  0  0  0  0  0  0  0  0  0
   68.0859   30.9473   51.0509 H   0  0  0  0  0  0  0  0  0  0  0  0
   66.9180   32.5830   50.2370 C   0  0  0  0  0  0  0  0  0  0  0  0
   67.8016   33.1554   49.9182 H   0  0  0  0  0  0  0  0  0  0  0  0
   65.6340   33.0910   50.0060 C   0  0  0  0  0  0  0  0  0  0  0  0
   65.5099   34.0624   49.5050 H   0  0  0  0  0  0  0  0  0  0  0  0
   61.3160   30.3340   47.4880 C   0  0  0  0  0  0  0  0  0  0  0  0
   62.1560   30.6050   46.4550 F   0  0  0  0  0  0  0  0  0  0  0  0
   57.8860   27.9080   45.8640 C   0  0  0  0  0  0  0  0  0  0  0  0
   57.9970   26.9380   46.6630 O   0  0  0  0  0  0  0  0  0  0  0  0
   56.6380   28.2090   45.3120 C   0  0  0  0  0  0  0  0  0  0  0  0
   55.5210   27.4420   45.6270 O   0  0  0  0  0  0  0  0  0  0  0  0
   56.5120   29.2970   44.4530 C   0  0  0  0  0  0  0  0  0  0  0  0
   55.5361   29.5502   44.0131 H   0  0  0  0  0  0  0  0  0  0  0  0
   57.7690   32.7690   47.0980 C   0  0  0  0  0  0  0  0  0  0  0  0
   57.0119   31.9742   47.0274 H   0  0  0  0  0  0  0  0  0  0  0  0
   58.4510   32.9740   48.2980 C   0  0  0  0  0  0  0  0  0  0  0  0
   58.2417   32.3381   49.1708 H   0  0  0  0  0  0  0  0  0  0  0  0
  1  2  1  0
  2  3  2  0
  3  4  1  0
  4  5  1  0
  5  6  1  0
  6  7  1  0
  6  8  1  0
  6  9  1  0
  5 10  2  0
 10 11  1  0
 11 12  1  0
 11 13  1  0
 11 14  1  0
 14 15  1  0
 15 16  2  0
 15 17  1  0
 17 18  2  0
 18 19  1  0
 19 20  1  0
 20 21  1  0
 20 22  1  0
 20 23  1  0
 23 24  2  0
 24 25  1  0
 24 26  1  0
 26 27  1  0
 26 28  2  0
 28 29  1  0
 28 30  1  0
 30 31  1  0
 31 32  1  0
 32 33  2  0
 32 34  2  0
 32 35  1  0
 35 36  2  0
 36 37  1  0
 36 38  1  0
 38 39  1  0
 38 40  2  0
 40 41  1  0
 40 42  1  0
 42 43  1  0
 42 44  2  0
 44 45  1  0
 30 46  2  0
 46 47  1  0
 19 48  1  0
 48 49  2  0
 48 50  1  0
 50 51  1  0
 50 52  2  0
 52 53  1  0
 10 54  1  0
 54 55  1  0
 54 56  2  0
 56 57  1  0
 56  3  1  0
 52 17  1  0
 46 23  1  0
 44 35  1  0
M  CHG  4   4  -1  14  -1  31  -1  51  -1
M  END
>  <UniqueID>  (68) 
64

>  <SMILES>  (68) 
[H]/N=c1/ccc(C[N-]C(=O)c2cc([O-])c(=O)n(Cc3cccc([N-]S(=O)(=O)c4ccccc4)c3F)n2)c(C)[n-]1

>  <Energy>  (68) 
61.511759027060265

>  <Genealogy>  (68) 
Cc1[n-]c(=N)ccc1C[N-]C(=O)c1cc([O-])c(=O)n(Cc2cccc([N-]S(=O)(=O)c3ccccc3)c2F)n1 (protonated)
[H]/N=c1/ccc(C[N-]C(=O)c2cc([O-])c(=O)n(Cc3cccc([N-]S(=O)(=O)c4ccccc4)c3F)n2)c(C)[n-]1 (cis-trans isomerization)
[H]/N=c1/ccc(C[N-]C(=O)c2cc([O-])c(=O)n(Cc3cccc([N-]S(=O)(=O)c4ccccc4)c3F)n2)c(C)[n-]1 (3D coordinates assigned)
[H]/N=c1/ccc(C[N-]C(=O)c2cc([O-])c(=O)n(Cc3cccc([N-]S(=O)(=O)c4ccccc4)c3F)n2)c(C)[n-]1 (optimized conformer: 61.511759027060265 kcal/mol)

>  <smiles>  (68) 
Cc1[nH]c(=N)ccc1CNC(=O)c1cc(O)c(=O)n(Cc2cccc(NS(=O)(=O)c3ccccc3)c2F)n1

>  <score_type>  (68) 
oracle

>  <origin>  (68) 
adg

>  <m_score__min__energy>  (68) 
-17.390000000000001

>  <m_primary>  (68) 
energy

$$$$
68:0
     RDKit          3D

 57 59  0  0  0  0  0  0  0  0999 V2000
   59.5110   26.9350   46.8210 C   0  0  0  0  0  0  0  0  0  0  0  0
   60.0460   27.7580   45.6510 C   0  0  0  0  0  0  0  0  0  0  0  0
   59.7350   29.1820   45.8340 N   0  0  0  0  0  0  0  0  0  0  0  0
   60.8220   30.0840   46.2420 C   0  0  0  0  0  0  0  0  0  0  0  0
   60.6490   30.5880   47.6460 C   0  0  0  0  0  0  0  0  0  0  0  0
   61.5990   30.4350   48.4540 O   0  0  0  0  0  0  0  0  0  0  0  0
   59.4790   31.3210   48.0390 N   0  0  0  0  0  0  0  0  0  0  0  0
   59.1490   31.6630   49.4070 C   0  0  0  0  0  0  0  0  0  0  0  0
   58.7090   30.6720   50.3140 C   0  0  0  0  0  0  0  0  0  0  0  0
   58.4470   30.9940   51.6540 C   0  0  0  0  0  0  0  0  0  0  0  0
   58.5960   32.3070   52.1020 C   0  0  0  0  0  0  0  0  0  0  0  0
   58.9830   33.3110   51.2070 C   0  0  0  0  0  0  0  0  0  0  0  0
   59.2390   33.0030   49.8570 C   0  0  0  0  0  0  0  0  0  0  0  0
   59.6900   34.3490   48.7420 S   0  0  0  0  0  0  0  0  0  0  0  0
   61.3710   33.7480   48.5500 C   0  0  0  0  0  0  0  0  0  0  0  0
   62.1300   33.4390   49.6820 C   0  0  0  0  0  0  0  0  0  0  0  0
   63.4500   33.0010   49.5470 C   0  0  0  0  0  0  0  0  0  0  0  0
   64.0170   32.8800   48.2750 C   0  0  0  0  0  0  0  0  0  0  0  0
   63.2550   33.1710   47.1420 C   0  0  0  0  0  0  0  0  0  0  0  0
   61.9320   33.5960   47.2890 C   0  0  0  0  0  0  0  0  0  0  0  0
   58.3900   29.6640   45.5710 C   0  0  0  0  0  0  0  0  0  0  0  0
   57.6730   30.0430   46.5360 O   0  0  0  0  0  0  0  0  0  0  0  0
   57.7820   29.6340   44.1960 C   0  0  0  0  0  0  0  0  0  0  0  0
   56.4050   30.8340   44.0350 S   0  0  0  0  0  0  0  0  0  0  0  0
   57.3590   32.2560   44.5860 C   0  0  0  0  0  0  0  0  0  0  0  0
   58.3820   32.7580   43.7800 C   0  0  0  0  0  0  0  0  0  0  0  0
   59.1200   33.8740   44.1870 C   0  0  0  0  0  0  0  0  0  0  0  0
   58.8410   34.4980   45.4090 C   0  0  0  0  0  0  0  0  0  0  0  0
   59.6500   35.6810   45.8520 C   0  0  0  0  0  0  0  0  0  0  0  0
   57.8470   33.9600   46.2450 C   0  0  0  0  0  0  0  0  0  0  0  0
   57.1040   32.8470   45.8310 C   0  0  0  0  0  0  0  0  0  0  0  0
   59.8156   27.4035   47.7685 H   0  0  0  0  0  0  0  0  0  0  0  0
   58.4130   26.8939   46.7686 H   0  0  0  0  0  0  0  0  0  0  0  0
   59.9191   25.9148   46.7686 H   0  0  0  0  0  0  0  0  0  0  0  0
   61.1370   27.6315   45.5893 H   0  0  0  0  0  0  0  0  0  0  0  0
   59.5686   27.4076   44.7240 H   0  0  0  0  0  0  0  0  0  0  0  0
   61.7760   29.5403   46.1766 H   0  0  0  0  0  0  0  0  0  0  0  0
   60.8077   30.9537   45.5686 H   0  0  0  0  0  0  0  0  0  0  0  0
   58.8750   31.6940   47.2760 H   0  0  0  0  0  0  0  0  0  0  0  0
   58.5707   29.6379   49.9655 H   0  0  0  0  0  0  0  0  0  0  0  0
   58.1232   30.2092   52.3535 H   0  0  0  0  0  0  0  0  0  0  0  0
   58.4094   32.5528   53.1578 H   0  0  0  0  0  0  0  0  0  0  0  0
   59.0879   34.3474   51.5604 H   0  0  0  0  0  0  0  0  0  0  0  0
   61.6865   33.5410   50.6834 H   0  0  0  0  0  0  0  0  0  0  0  0
   64.0419   32.7519   50.4401 H   0  0  0  0  0  0  0  0  0  0  0  0
   65.0626   32.5558   48.1669 H   0  0  0  0  0  0  0  0  0  0  0  0
   63.6938   33.0663   46.1388 H   0  0  0  0  0  0  0  0  0  0  0  0
   61.3280   33.8126   46.3955 H   0  0  0  0  0  0  0  0  0  0  0  0
   58.5587   29.8820   43.4576 H   0  0  0  0  0  0  0  0  0  0  0  0
   57.3791   28.6254   44.0219 H   0  0  0  0  0  0  0  0  0  0  0  0
   58.6090   32.2730   42.8191 H   0  0  0  0  0  0  0  0  0  0  0  0
   59.9233   34.2633   43.5442 H   0  0  0  0  0  0  0  0  0  0  0  0
   59.6749   35.7173   46.9511 H   0  0  0  0  0  0  0  0  0  0  0  0
   60.6756   35.5896   45.4649 H   0  0  0  0  0  0  0  0  0  0  0  0
   59.1928   36.6036   45.4649 H   0  0  0  0  0  0  0  0  0  0  0  0
   57.6520   34.4146   47.2275 H   0  0  0  0  0  0  0  0  0  0  0  0
   56.3196   32.4364   46.4837 H   0  0  0  0  0  0  0  0  0  0  0  0
  1  2  1  0
  2  3  1  0
  3  4  1  0
  4  5  1  0
  5  6  2  0
  5  7  1  0
  7  8  1  0
  8  9  2  0
  9 10  1  0
 10 11  2  0
 11 12  1  0
 12 13  2  0
 13 14  1  0
 14 15  1  0
 15 16  2  0
 16 17  1  0
 17 18  2  0
 18 19  1  0
 19 20  2  0
  3 21  1  0
 21 22  2  0
 21 23  1  0
 23 24  1  0
 24 25  1  0
 25 26  2  0
 26 27  1  0
 27 28  2  0
 28 29  1  0
 28 30  1  0
 30 31  2  0
 13  8  1  0
 20 15  1  0
 31 25  1  0
  1 32  1  0
  1 33  1  0
  1 34  1  0
  2 35  1  0
  2 36  1  0
  4 37  1  0
  4 38  1  0
  7 39  1  0
  9 40  1  0
 10 41  1  0
 11 42  1  0
 12 43  1  0
 16 44  1  0
 17 45  1  0
 18 46  1  0
 19 47  1  0
 20 48  1  0
 23 49  1  0
 23 50  1  0
 26 51  1  0
 27 52  1  0
 29 53  1  0
 29 54  1  0
 29 55  1  0
 30 56  1  0
 31 57  1  0
M  END
>  <UniqueID>  (69) 
65

>  <SMILES>  (69) 
CCN(CC(=O)Nc1ccccc1Sc1ccccc1)C(=O)CSc1ccc(C)cc1

>  <Energy>  (69) 
49.37980301807056

>  <Genealogy>  (69) 
CCN(CC(=O)Nc1ccccc1Sc1ccccc1)C(=O)CSc1ccc(C)cc1 (3D coordinates assigned)
CCN(CC(=O)Nc1ccccc1Sc1ccccc1)C(=O)CSc1ccc(C)cc1 (optimized conformer: 49.37980301807056 kcal/mol)

>  <smiles>  (69) 
CCN(CC(=O)Nc1ccccc1Sc1ccccc1)C(=O)CSc1ccc(C)cc1

>  <score_type>  (69) 
oracle

>  <origin>  (69) 
adg

>  <m_score__min__energy>  (69) 
-9.8800000000000008

>  <m_primary>  (69) 
energy

$$$$
69:0
     RDKit          3D

 37 38  0  0  0  0  0  0  0  0999 V2000
   54.2430   25.5410   46.3770 H   0  0  0  0  0  0  0  0  0  0  0  0
   54.6880   26.3340   45.9290 O   0  0  0  0  0  0  0  0  0  0  0  0
   56.0560   26.5710   46.0590 C   0  0  0  0  0  0  0  0  0  0  0  0
   56.6520   27.6640   45.4130 C   0  0  0  0  0  0  0  0  0  0  0  0
   56.0350   28.3450   44.8084 H   0  0  0  0  0  0  0  0  0  0  0  0
   58.0340   27.8940   45.5340 C   0  0  0  0  0  0  0  0  0  0  0  0
   58.6770   29.0670   44.9040 C   0  0  0  0  0  0  0  0  0  0  0  0
   59.7289   29.2618   45.1598 H   0  0  0  0  0  0  0  0  0  0  0  0
   58.0870   29.9140   44.0470 C   0  0  0  0  0  0  0  0  0  0  0  0
   58.3737   29.8377   42.9878 H   0  0  0  0  0  0  0  0  0  0  0  0
   57.0820   30.9440   44.4040 C   0  0  0  0  0  0  0  0  0  0  0  0
   55.8940   30.6110   44.6560 O   0  0  0  0  0  0  0  0  0  0  0  0
   57.3970   32.3870   44.3190 C   0  0  0  0  0  0  0  0  0  0  0  0
   57.8421   32.7503   43.3810 H   0  0  0  0  0  0  0  0  0  0  0  0
   57.1860   33.2910   45.2890 C   0  0  0  0  0  0  0  0  0  0  0  0
   56.2119   33.8019   45.3029 H   0  0  0  0  0  0  0  0  0  0  0  0
   58.1600   33.6530   46.3390 C   0  0  0  0  0  0  0  0  0  0  0  0
   59.1180   34.6540   46.1240 C   0  0  0  0  0  0  0  0  0  0  0  0
   59.1439   35.1884   45.1629 H   0  0  0  0  0  0  0  0  0  0  0  0
   60.0400   34.9770   47.1230 C   0  0  0  0  0  0  0  0  0  0  0  0
   60.7753   35.7770   46.9516 H   0  0  0  0  0  0  0  0  0  0  0  0
   60.0320   34.2830   48.3480 C   0  0  0  0  0  0  0  0  0  0  0  0
   60.9340   34.5760   49.3810 O   0  0  0  0  0  0  0  0  0  0  0  0
   61.9660   33.6990   49.8220 C   0  0  0  0  0  0  0  0  0  0  0  0
   61.9870   33.6812   50.9217 H   0  0  0  0  0  0  0  0  0  0  0  0
   61.7724   32.6849   49.4425 H   0  0  0  0  0  0  0  0  0  0  0  0
   62.9356   34.0537   49.4425 H   0  0  0  0  0  0  0  0  0  0  0  0
   59.0950   33.2590   48.5460 C   0  0  0  0  0  0  0  0  0  0  0  0
   59.0780   32.5530   49.7440 O   0  0  0  0  0  0  0  0  0  0  0  0
   58.1720   32.9390   47.5440 C   0  0  0  0  0  0  0  0  0  0  0  0
   57.4522   32.1226   47.7035 H   0  0  0  0  0  0  0  0  0  0  0  0
   58.8010   27.0470   46.3480 C   0  0  0  0  0  0  0  0  0  0  0  0
   59.8755   27.2413   46.4807 H   0  0  0  0  0  0  0  0  0  0  0  0
   58.2070   25.9580   46.9910 C   0  0  0  0  0  0  0  0  0  0  0  0
   58.8186   25.2889   47.6141 H   0  0  0  0  0  0  0  0  0  0  0  0
   56.8380   25.7160   46.8450 C   0  0  0  0  0  0  0  0  0  0  0  0
   56.2570   24.6290   47.4860 O   0  0  0  0  0  0  0  0  0  0  0  0
  1  2  1  0
  2  3  1  0
  3  4  2  0
  4  5  1  0
  4  6  1  0
  6  7  1  0
  7  8  1  0
  7  9  2  0
  9 10  1  0
  9 11  1  0
 11 12  2  0
 11 13  1  0
 13 14  1  0
 13 15  2  3
 15 16  1  0
 15 17  1  0
 17 18  2  0
 18 19  1  0
 18 20  1  0
 20 21  1  0
 20 22  2  0
 22 23  1  0
 23 24  1  0
 24 25  1  0
 24 26  1  0
 24 27  1  0
 22 28  1  0
 28 29  1  0
 28 30  2  0
 30 31  1  0
  6 32  2  0
 32 33  1  0
 32 34  1  0
 34 35  1  0
 34 36  2  0
 36 37  1  0
 36  3  1  0
 30 17  1  0
M  CHG  2  29  -1  37  -1
M  END
>  <UniqueID>  (70) 
66

>  <SMILES>  (70) 
COc1ccc(C=CC(=O)/C=C\c2ccc([O-])c(O)c2)cc1[O-]

>  <Energy>  (70) 
52.361715916103385

>  <Genealogy>  (70) 
COc1ccc(C=CC(=O)C=Cc2ccc([O-])c(O)c2)cc1[O-] (protonated)
COc1ccc(C=CC(=O)/C=C\c2ccc([O-])c(O)c2)cc1[O-] (cis-trans isomerization)
COc1ccc(C=CC(=O)/C=C\c2ccc([O-])c(O)c2)cc1[O-] (3D coordinates assigned)
COc1ccc(C=CC(=O)/C=C\c2ccc([O-])c(O)c2)cc1[O-] (optimized conformer: 52.361715916103385 kcal/mol)

>  <smiles>  (70) 
COc1ccc(C=CC(=O)C=Cc2ccc(O)c(O)c2)cc1O

>  <score_type>  (70) 
oracle

>  <origin>  (70) 
adg

>  <m_score__min__energy>  (70) 
-12.25

>  <m_primary>  (70) 
energy

$$$$
70:0
     RDKit          3D

 36 37  0  0  0  0  0  0  0  0999 V2000
   59.6130   35.3550   45.6330 C   0  0  0  0  0  0  0  0  0  0  0  0
   59.6190   34.0270   46.3320 C   0  0  0  0  0  0  0  0  0  0  0  0
   60.8280   33.3560   46.5620 C   0  0  0  0  0  0  0  0  0  0  0  0
   60.8380   32.1360   47.2450 C   0  0  0  0  0  0  0  0  0  0  0  0
   59.6380   31.5670   47.6990 C   0  0  0  0  0  0  0  0  0  0  0  0
   59.6620   30.2650   48.4570 C   0  0  0  0  0  0  0  0  0  0  0  0
   59.0960   29.1740   47.6700 N   0  0  0  0  0  0  0  0  0  0  0  0
   59.6380   28.6250   46.4600 C   0  0  0  0  0  0  0  0  0  0  0  0
   60.5040   27.7160   46.5480 O   0  0  0  0  0  0  0  0  0  0  0  0
   59.2050   29.0810   45.0920 C   0  0  0  0  0  0  0  0  0  0  0  0
   57.7280   29.3750   45.0010 C   0  0  0  0  0  0  0  0  0  0  0  0
   57.0880   30.4910   44.4770 C   0  0  0  0  0  0  0  0  0  0  0  0
   57.7240   31.7440   43.9680 C   0  0  0  0  0  0  0  0  0  0  0  0
   55.7580   30.2820   44.4610 N   0  0  0  0  0  0  0  0  0  0  0  0
   55.5170   29.0650   44.9240 N   0  0  0  0  0  0  0  0  0  0  0  0
   56.6910   28.4930   45.2540 C   0  0  0  0  0  0  0  0  0  0  0  0
   56.8140   27.0600   45.6670 C   0  0  0  0  0  0  0  0  0  0  0  0
   58.4340   32.2640   47.5080 C   0  0  0  0  0  0  0  0  0  0  0  0
   58.4240   33.4840   46.8260 C   0  0  0  0  0  0  0  0  0  0  0  0
   59.6094   36.1625   46.3799 H   0  0  0  0  0  0  0  0  0  0  0  0
   60.5108   35.4420   45.0034 H   0  0  0  0  0  0  0  0  0  0  0  0
   58.7145   35.4339   45.0034 H   0  0  0  0  0  0  0  0  0  0  0  0
   61.7727   33.7910   46.2037 H   0  0  0  0  0  0  0  0  0  0  0  0
   61.7917   31.6192   47.4275 H   0  0  0  0  0  0  0  0  0  0  0  0
   60.7037   30.0189   48.7108 H   0  0  0  0  0  0  0  0  0  0  0  0
   59.0538   30.3849   49.3657 H   0  0  0  0  0  0  0  0  0  0  0  0
   59.7596   29.9962   44.8372 H   0  0  0  0  0  0  0  0  0  0  0  0
   59.4175   28.2594   44.3922 H   0  0  0  0  0  0  0  0  0  0  0  0
   58.0399   32.3664   44.8182 H   0  0  0  0  0  0  0  0  0  0  0  0
   58.6010   31.4874   43.3556 H   0  0  0  0  0  0  0  0  0  0  0  0
   56.9992   32.3004   43.3556 H   0  0  0  0  0  0  0  0  0  0  0  0
   56.8197   26.9941   46.7650 H   0  0  0  0  0  0  0  0  0  0  0  0
   55.9615   26.4895   45.2698 H   0  0  0  0  0  0  0  0  0  0  0  0
   57.7512   26.6431   45.2698 H   0  0  0  0  0  0  0  0  0  0  0  0
   57.4933   31.8475   47.8974 H   0  0  0  0  0  0  0  0  0  0  0  0
   57.4753   34.0202   46.6762 H   0  0  0  0  0  0  0  0  0  0  0  0
  1  2  1  0
  2  3  2  0
  3  4  1  0
  4  5  2  0
  5  6  1  0
  6  7  1  0
  7  8  1  0
  8  9  2  0
  8 10  1  0
 10 11  1  0
 11 12  1  0
 12 13  1  0
 12 14  2  0
 14 15  1  0
 15 16  1  0
 16 17  1  0
  5 18  1  0
 18 19  2  0
 19  2  1  0
 16 11  2  0
  1 20  1  0
  1 21  1  0
  1 22  1  0
  3 23  1  0
  4 24  1  0
  6 25  1  0
  6 26  1  0
 10 27  1  0
 10 28  1  0
 13 29  1  0
 13 30  1  0
 13 31  1  0
 17 32  1  0
 17 33  1  0
 17 34  1  0
 18 35  1  0
 19 36  1  0
M  CHG  2   7  -1  15  -1
M  END
>  <UniqueID>  (71) 
67

>  <SMILES>  (71) 
Cc1ccc(C[N-]C(=O)Cc2c(C)n[n-]c2C)cc1

>  <Energy>  (71) 
59.366859823996265

>  <Genealogy>  (71) 
Cc1ccc(C[N-]C(=O)Cc2c(C)n[n-]c2C)cc1 (protonated)
Cc1ccc(C[N-]C(=O)Cc2c(C)n[n-]c2C)cc1 (3D coordinates assigned)
Cc1ccc(C[N-]C(=O)Cc2c(C)n[n-]c2C)cc1 (optimized conformer: 59.366859823996265 kcal/mol)

>  <smiles>  (71) 
Cc1ccc(CNC(=O)Cc2c(C)n[nH]c2C)cc1

>  <score_type>  (71) 
oracle

>  <origin>  (71) 
adg

>  <m_score__min__energy>  (71) 
-10.34

>  <m_primary>  (71) 
energy

$$$$
71:0
     RDKit          3D

 32 33  0  0  0  0  0  0  0  0999 V2000
   59.5739   35.3222   46.9171 H   0  0  0  0  0  0  0  0  0  0  0  0
   59.0770   34.5960   46.2570 C   0  0  0  0  0  0  0  0  0  0  0  0
   57.9350   33.4510   46.7280 S   0  0  0  0  0  0  0  0  0  0  0  0
   57.7490   32.8350   45.1680 C   0  0  0  0  0  0  0  0  0  0  0  0
   56.9640   31.8630   44.8010 N   0  0  0  0  0  0  0  0  0  0  0  0
   57.0590   31.0600   43.6130 C   0  0  0  0  0  0  0  0  0  0  0  0
   57.4130   31.5560   42.5100 O   0  0  0  0  0  0  0  0  0  0  0  0
   56.6810   29.6140   43.6810 C   0  0  0  0  0  0  0  0  0  0  0  0
   56.0566   29.3614   42.8114 H   0  0  0  0  0  0  0  0  0  0  0  0
   57.5972   29.0053   43.6782 H   0  0  0  0  0  0  0  0  0  0  0  0
   55.8990   29.3270   44.9630 C   0  0  0  0  0  0  0  0  0  0  0  0
   56.3678   29.8624   45.8018 H   0  0  0  0  0  0  0  0  0  0  0  0
   54.8608   29.6666   44.8330 H   0  0  0  0  0  0  0  0  0  0  0  0
   55.8990   27.8910   45.2460 N   0  0  0  0  0  0  0  0  0  0  0  0
   57.5210   27.2740   45.3700 S   0  0  0  0  0  0  0  0  0  0  0  0
   57.5110   26.0230   46.2040 O   0  0  0  0  0  0  0  0  0  0  0  0
   58.0490   26.9320   44.0040 O   0  0  0  0  0  0  0  0  0  0  0  0
   58.5600   28.4680   46.1440 C   0  0  0  0  0  0  0  0  0  0  0  0
   59.5130   29.1580   45.3790 C   0  0  0  0  0  0  0  0  0  0  0  0
   59.5989   28.9602   44.3003 H   0  0  0  0  0  0  0  0  0  0  0  0
   60.3540   30.0970   45.9860 C   0  0  0  0  0  0  0  0  0  0  0  0
   61.0982   30.6388   45.3838 H   0  0  0  0  0  0  0  0  0  0  0  0
   60.2490   30.3470   47.3570 C   0  0  0  0  0  0  0  0  0  0  0  0
   60.9100   31.0861   47.8331 H   0  0  0  0  0  0  0  0  0  0  0  0
   59.3040   29.6580   48.1240 C   0  0  0  0  0  0  0  0  0  0  0  0
   59.2230   29.8549   49.2032 H   0  0  0  0  0  0  0  0  0  0  0  0
   58.4620   28.7190   47.5200 C   0  0  0  0  0  0  0  0  0  0  0  0
   57.7213   28.1762   48.1256 H   0  0  0  0  0  0  0  0  0  0  0  0
   58.5440   33.4860   44.2940 N   0  0  0  0  0  0  0  0  0  0  0  0
   58.5920   33.2710   43.2730 H   0  0  0  0  0  0  0  0  0  0  0  0
   59.2820   34.4630   44.8880 C   0  0  0  0  0  0  0  0  0  0  0  0
   59.9855   35.0977   44.3291 H   0  0  0  0  0  0  0  0  0  0  0  0
  1  2  1  0
  2  3  1  0
  3  4  1  0
  4  5  2  0
  5  6  1  0
  6  7  2  0
  6  8  1  0
  8  9  1  0
  8 10  1  0
  8 11  1  0
 11 12  1  0
 11 13  1  0
 11 14  1  0
 14 15  1  0
 15 16  2  0
 15 17  2  0
 15 18  1  0
 18 19  2  0
 19 20  1  0
 19 21  1  0
 21 22  1  0
 21 23  2  0
 23 24  1  0
 23 25  1  0
 25 26  1  0
 25 27  2  0
 27 28  1  0
  4 29  1  0
 29 30  1  0
 29 31  1  0
 31 32  1  0
 31  2  2  0
 27 18  1  0
M  CHG  1  14  -1
M  END
>  <UniqueID>  (72) 
68

>  <SMILES>  (72) 
O=C(CC[N-]S(=O)(=O)c1ccccc1)/N=c1/[nH]ccs1

>  <Energy>  (72) 
61.724024571719525

>  <Genealogy>  (72) 
O=C(CC[N-]S(=O)(=O)c1ccccc1)N=c1[nH]ccs1 (protonated)
O=C(CC[N-]S(=O)(=O)c1ccccc1)/N=c1/[nH]ccs1 (cis-trans isomerization)
O=C(CC[N-]S(=O)(=O)c1ccccc1)/N=c1/[nH]ccs1 (3D coordinates assigned)
O=C(CC[N-]S(=O)(=O)c1ccccc1)/N=c1/[nH]ccs1 (optimized conformer: 61.724024571719525 kcal/mol)

>  <smiles>  (72) 
O=C(CCNS(=O)(=O)c1ccccc1)N=c1[nH]ccs1

>  <score_type>  (72) 
oracle

>  <origin>  (72) 
adg

>  <m_score__min__energy>  (72) 
-8.2699999999999996

>  <m_primary>  (72) 
energy

$$$$
72:0
     RDKit          3D

 45 46  0  0  0  0  0  0  0  0999 V2000
   55.4980   23.6650   43.7140 C   0  0  0  0  0  0  0  0  0  0  0  0
   56.5260   24.4730   44.5000 C   0  0  0  0  0  0  0  0  0  0  0  0
   55.8260   25.1680   45.9970 S   0  0  0  0  0  0  0  0  0  0  0  0
   55.4230   24.0760   46.9510 O   0  0  0  0  0  0  0  0  0  0  0  0
   54.6010   25.9550   45.6270 O   0  0  0  0  0  0  0  0  0  0  0  0
   56.9520   26.2380   46.7760 N   0  0  0  0  0  0  0  0  0  0  0  0
   58.0930   26.5090   45.8990 C   0  0  0  0  0  0  0  0  0  0  0  0
   58.7050   27.8410   46.2610 C   0  0  0  0  0  0  0  0  0  0  0  0
   59.8150   27.8470   47.1230 C   0  0  0  0  0  0  0  0  0  0  0  0
   60.4320   29.0420   47.4840 C   0  0  0  0  0  0  0  0  0  0  0  0
   59.9540   30.2520   46.9910 C   0  0  0  0  0  0  0  0  0  0  0  0
   58.8580   30.2820   46.1200 C   0  0  0  0  0  0  0  0  0  0  0  0
   58.3840   31.5970   45.6450 C   0  0  0  0  0  0  0  0  0  0  0  0
   58.2880   31.8370   44.2670 C   0  0  0  0  0  0  0  0  0  0  0  0
   57.8360   33.0730   43.7980 C   0  0  0  0  0  0  0  0  0  0  0  0
   57.4830   34.0760   44.7020 C   0  0  0  0  0  0  0  0  0  0  0  0
   57.5820   33.8500   46.0770 C   0  0  0  0  0  0  0  0  0  0  0  0
   58.0390   32.6080   46.5630 C   0  0  0  0  0  0  0  0  0  0  0  0
   58.1640   32.3470   47.9370 O   0  0  0  0  0  0  0  0  0  0  0  0
   59.1060   32.9800   48.7970 C   0  0  0  0  0  0  0  0  0  0  0  0
   58.2320   29.0700   45.7200 C   0  0  0  0  0  0  0  0  0  0  0  0
   57.0560   29.1090   44.7600 C   0  0  0  0  0  0  0  0  0  0  0  0
   55.9820   28.2490   45.2430 N   0  0  0  0  0  0  0  0  0  0  0  0
   54.8308   23.1406   44.4139 H   0  0  0  0  0  0  0  0  0  0  0  0
   54.9060   24.3420   43.0807 H   0  0  0  0  0  0  0  0  0  0  0  0
   56.0160   22.9298   43.0807 H   0  0  0  0  0  0  0  0  0  0  0  0
   57.3640   23.8143   44.7716 H   0  0  0  0  0  0  0  0  0  0  0  0
   56.8653   25.3040   43.8642 H   0  0  0  0  0  0  0  0  0  0  0  0
   56.4520   27.1410   46.9500 H   0  0  0  0  0  0  0  0  0  0  0  0
   58.8449   25.7154   46.0208 H   0  0  0  0  0  0  0  0  0  0  0  0
   57.7519   26.5358   44.8536 H   0  0  0  0  0  0  0  0  0  0  0  0
   60.2013   26.8956   47.5175 H   0  0  0  0  0  0  0  0  0  0  0  0
   61.2993   29.0293   48.1605 H   0  0  0  0  0  0  0  0  0  0  0  0
   60.4409   31.1926   47.2878 H   0  0  0  0  0  0  0  0  0  0  0  0
   58.5695   31.0494   43.5526 H   0  0  0  0  0  0  0  0  0  0  0  0
   57.7583   33.2556   42.7161 H   0  0  0  0  0  0  0  0  0  0  0  0
   57.1256   35.0478   44.3305 H   0  0  0  0  0  0  0  0  0  0  0  0
   57.3020   34.6449   46.7839 H   0  0  0  0  0  0  0  0  0  0  0  0
   58.8287   32.7936   49.8450 H   0  0  0  0  0  0  0  0  0  0  0  0
   60.1094   32.5722   48.6052 H   0  0  0  0  0  0  0  0  0  0  0  0
   59.1076   34.0631   48.6052 H   0  0  0  0  0  0  0  0  0  0  0  0
   56.6862   30.1419   44.6804 H   0  0  0  0  0  0  0  0  0  0  0  0
   57.3862   28.7508   43.7737 H   0  0  0  0  0  0  0  0  0  0  0  0
   56.1560   27.2850   44.8760 H   0  0  0  0  0  0  0  0  0  0  0  0
   56.0480   28.1880   46.2840 H   0  0  0  0  0  0  0  0  0  0  0  0
  1  2  1  0
  2  3  1  0
  3  4  2  0
  3  5  2  0
  3  6  1  0
  6  7  1  0
  7  8  1  0
  8  9  2  0
  9 10  1  0
 10 11  2  0
 11 12  1  0
 12 13  1  0
 13 14  2  0
 14 15  1  0
 15 16  2  0
 16 17  1  0
 17 18  2  0
 18 19  1  0
 19 20  1  0
 12 21  2  0
 21 22  1  0
 22 23  1  0
 21  8  1  0
 18 13  1  0
  1 24  1  0
  1 25  1  0
  1 26  1  0
  2 27  1  0
  2 28  1  0
  6 29  1  0
  7 30  1  0
  7 31  1  0
  9 32  1  0
 10 33  1  0
 11 34  1  0
 14 35  1  0
 15 36  1  0
 16 37  1  0
 17 38  1  0
 20 39  1  0
 20 40  1  0
 20 41  1  0
 22 42  1  0
 22 43  1  0
 23 44  1  0
 23 45  1  0
M  END
>  <UniqueID>  (73) 
69

>  <SMILES>  (73) 
CCS(=O)(=O)NCc1cccc(-c2ccccc2OC)c1CN

>  <Energy>  (73) 
44.42053732371577

>  <Genealogy>  (73) 
CCS(=O)(=O)NCc1cccc(-c2ccccc2OC)c1CN (3D coordinates assigned)
CCS(=O)(=O)NCc1cccc(-c2ccccc2OC)c1CN (optimized conformer: 44.42053732371577 kcal/mol)

>  <smiles>  (73) 
CCS(=O)(=O)NCc1cccc(-c2ccccc2OC)c1CN

>  <score_type>  (73) 
oracle

>  <origin>  (73) 
adg

>  <m_score__min__energy>  (73) 
-8.1500000000000004

>  <m_primary>  (73) 
energy

$$$$
73:0
     RDKit          3D

 63 67  0  0  0  0  0  0  0  0999 V2000
   57.8030   34.6430   44.5780 O   0  0  0  0  0  0  0  0  0  0  0  0
   57.9200   33.7200   45.4240 C   0  0  0  0  0  0  0  0  0  0  0  0
   56.9380   32.6760   45.4580 N   0  0  0  0  0  0  0  0  0  0  0  0
   57.0890   31.5250   44.8750 C   0  0  0  0  0  0  0  0  0  0  0  0
   57.3460   30.3950   45.5620 N   0  0  0  0  0  0  0  0  0  0  0  0
   57.5050   29.3170   44.7400 C   0  0  0  0  0  0  0  0  0  0  0  0
   57.7970   27.9620   45.2870 C   0  0  0  0  0  0  0  0  0  0  0  0
   59.1140   27.4510   45.3390 C   0  0  0  0  0  0  0  0  0  0  0  0
   59.3630   26.1830   45.8770 C   0  0  0  0  0  0  0  0  0  0  0  0
   58.3110   25.4070   46.3630 C   0  0  0  0  0  0  0  0  0  0  0  0
   57.0040   25.8940   46.3130 C   0  0  0  0  0  0  0  0  0  0  0  0
   56.7450   27.1610   45.7780 C   0  0  0  0  0  0  0  0  0  0  0  0
   57.3790   29.6120   43.3770 C   0  0  0  0  0  0  0  0  0  0  0  0
   57.0590   31.2530   43.2140 S   0  0  0  0  0  0  0  0  0  0  0  0
   59.0680   33.7110   46.3570 C   0  0  0  0  0  0  0  0  0  0  0  0
   58.8750   33.9330   47.7300 C   0  0  0  0  0  0  0  0  0  0  0  0
   59.9620   33.8980   48.6090 C   0  0  0  0  0  0  0  0  0  0  0  0
   61.2570   33.6680   48.1250 C   0  0  0  0  0  0  0  0  0  0  0  0
   62.6130   33.6180   49.2490 S   0  0  0  0  0  0  0  0  0  0  0  0
   62.7870   34.9940   49.8300 O   0  0  0  0  0  0  0  0  0  0  0  0
   63.8720   33.2700   48.5050 O   0  0  0  0  0  0  0  0  0  0  0  0
   62.2840   32.4300   50.5050 N   0  0  0  0  0  0  0  0  0  0  0  0
   63.1620   32.6780   51.6710 C   0  0  0  0  0  0  0  0  0  0  0  0
   64.6260   32.6870   51.2930 C   0  0  0  0  0  0  0  0  0  0  0  0
   65.2670   31.4880   50.9280 C   0  0  0  0  0  0  0  0  0  0  0  0
   66.6070   31.4980   50.5290 C   0  0  0  0  0  0  0  0  0  0  0  0
   67.3190   32.7000   50.4890 C   0  0  0  0  0  0  0  0  0  0  0  0
   66.6930   33.8960   50.8580 C   0  0  0  0  0  0  0  0  0  0  0  0
   65.3520   33.8910   51.2580 C   0  0  0  0  0  0  0  0  0  0  0  0
   62.4530   31.0470   49.9850 C   0  0  0  0  0  0  0  0  0  0  0  0
   61.2090   30.5340   49.2910 C   0  0  0  0  0  0  0  0  0  0  0  0
   60.0760   30.1740   50.0430 C   0  0  0  0  0  0  0  0  0  0  0  0
   58.9310   29.6870   49.4060 C   0  0  0  0  0  0  0  0  0  0  0  0
   58.9060   29.5520   48.0130 C   0  0  0  0  0  0  0  0  0  0  0  0
   60.0360   29.8850   47.2590 C   0  0  0  0  0  0  0  0  0  0  0  0
   61.1870   30.3670   47.8930 C   0  0  0  0  0  0  0  0  0  0  0  0
   61.4560   33.4720   46.7530 C   0  0  0  0  0  0  0  0  0  0  0  0
   60.3690   33.4770   45.8770 C   0  0  0  0  0  0  0  0  0  0  0  0
   59.9493   28.0543   44.9538 H   0  0  0  0  0  0  0  0  0  0  0  0
   60.3923   25.7971   45.9166 H   0  0  0  0  0  0  0  0  0  0  0  0
   58.5113   24.4114   46.7856 H   0  0  0  0  0  0  0  0  0  0  0  0
   56.1751   25.2802   46.6952 H   0  0  0  0  0  0  0  0  0  0  0  0
   55.7115   27.5356   45.7401 H   0  0  0  0  0  0  0  0  0  0  0  0
   57.4736   28.8907   42.5519 H   0  0  0  0  0  0  0  0  0  0  0  0
   57.8649   34.1352   48.1156 H   0  0  0  0  0  0  0  0  0  0  0  0
   59.7998   34.0518   49.6860 H   0  0  0  0  0  0  0  0  0  0  0  0
   61.2900   32.5670   50.8100 H   0  0  0  0  0  0  0  0  0  0  0  0
   62.9031   33.6537   52.1080 H   0  0  0  0  0  0  0  0  0  0  0  0
   63.0046   31.8618   52.3914 H   0  0  0  0  0  0  0  0  0  0  0  0
   64.7113   30.5392   50.9568 H   0  0  0  0  0  0  0  0  0  0  0  0
   67.1021   30.5574   50.2458 H   0  0  0  0  0  0  0  0  0  0  0  0
   68.3710   32.7059   50.1676 H   0  0  0  0  0  0  0  0  0  0  0  0
   67.2556   34.8409   50.8336 H   0  0  0  0  0  0  0  0  0  0  0  0
   64.8634   34.8334   51.5464 H   0  0  0  0  0  0  0  0  0  0  0  0
   63.2864   31.0391   49.2671 H   0  0  0  0  0  0  0  0  0  0  0  0
   62.6532   30.3887   50.8432 H   0  0  0  0  0  0  0  0  0  0  0  0
   60.0911   30.2763   51.1381 H   0  0  0  0  0  0  0  0  0  0  0  0
   58.0481   29.4094   50.0005 H   0  0  0  0  0  0  0  0  0  0  0  0
   57.9985   29.1844   47.5117 H   0  0  0  0  0  0  0  0  0  0  0  0
   60.0201   29.7678   46.1654 H   0  0  0  0  0  0  0  0  0  0  0  0
   62.0774   30.6162   47.2971 H   0  0  0  0  0  0  0  0  0  0  0  0
   62.4726   33.3135   46.3639 H   0  0  0  0  0  0  0  0  0  0  0  0
   60.5312   33.2967   44.8041 H   0  0  0  0  0  0  0  0  0  0  0  0
  1  2  2  0
  2  3  1  0
  3  4  2  3
  4  5  1  0
  5  6  1  0
  6  7  1  0
  7  8  2  0
  8  9  1  0
  9 10  2  0
 10 11  1  0
 11 12  2  0
  6 13  2  0
 13 14  1  0
  2 15  1  0
 15 16  2  0
 16 17  1  0
 17 18  2  0
 18 19  1  0
 19 20  2  0
 19 21  2  0
 19 22  1  0
 22 23  1  0
 23 24  1  0
 24 25  2  0
 25 26  1  0
 26 27  2  0
 27 28  1  0
 28 29  2  0
 22 30  1  0
 30 31  1  0
 31 32  2  0
 32 33  1  0
 33 34  2  0
 34 35  1  0
 35 36  2  0
 18 37  1  0
 37 38  2  0
 14  4  1  0
 38 15  1  0
 12  7  1  0
 29 24  1  0
 36 31  1  0
  8 39  1  0
  9 40  1  0
 10 41  1  0
 11 42  1  0
 12 43  1  0
 13 44  1  0
 16 45  1  0
 17 46  1  0
 22 47  1  0
 23 48  1  0
 23 49  1  0
 25 50  1  0
 26 51  1  0
 27 52  1  0
 28 53  1  0
 29 54  1  0
 30 55  1  0
 30 56  1  0
 32 57  1  0
 33 58  1  0
 34 59  1  0
 35 60  1  0
 36 61  1  0
 37 62  1  0
 38 63  1  0
M  CHG  2   5  -1  22   1
M  END
>  <UniqueID>  (74) 
70

>  <SMILES>  (74) 
O=C(N=c1[n-]c(-c2ccccc2)cs1)c1ccc(S(=O)(=O)[NH+](Cc2ccccc2)Cc2ccccc2)cc1

>  <Energy>  (74) 
109.96398991767447

>  <Genealogy>  (74) 
O=C(N=c1[n-]c(-c2ccccc2)cs1)c1ccc(S(=O)(=O)[NH+](Cc2ccccc2)Cc2ccccc2)cc1 (protonated)
O=C(N=c1[n-]c(-c2ccccc2)cs1)c1ccc(S(=O)(=O)[NH+](Cc2ccccc2)Cc2ccccc2)cc1 (3D coordinates assigned)
O=C(N=c1[n-]c(-c2ccccc2)cs1)c1ccc(S(=O)(=O)[NH+](Cc2ccccc2)Cc2ccccc2)cc1 (optimized conformer: 109.96398991767447 kcal/mol)

>  <smiles>  (74) 
O=C(N=c1[nH]c(-c2ccccc2)cs1)c1ccc(S(=O)(=O)N(Cc2ccccc2)Cc2ccccc2)cc1

>  <score_type>  (74) 
oracle

>  <origin>  (74) 
adg

>  <m_score__min__energy>  (74) 
-10.460000000000001

>  <m_primary>  (74) 
energy

$$$$
74:0
     RDKit          3D

 60 63  0  0  0  0  0  0  0  0999 V2000
   60.3213   25.1054   46.0769 H   0  0  0  0  0  0  0  0  0  0  0  0
   59.4980   25.7980   46.3060 C   0  0  0  0  0  0  0  0  0  0  0  0
   59.6760   26.7480   47.4260 C   0  0  0  0  0  0  0  0  0  0  0  0
   59.9500   26.2990   48.5730 O   0  0  0  0  0  0  0  0  0  0  0  0
   59.6240   28.1700   47.2070 N   0  0  0  0  0  0  0  0  0  0  0  0
   60.3370   28.7410   46.0530 C   0  0  0  0  0  0  0  0  0  0  0  0
   59.8841   28.3560   45.1275 H   0  0  0  0  0  0  0  0  0  0  0  0
   61.3952   28.4490   46.1237 H   0  0  0  0  0  0  0  0  0  0  0  0
   60.2620   30.2700   46.0440 C   0  0  0  0  0  0  0  0  0  0  0  0
   59.2607   30.5834   45.7136 H   0  0  0  0  0  0  0  0  0  0  0  0
   61.0233   30.6643   45.3549 H   0  0  0  0  0  0  0  0  0  0  0  0
   60.5150   30.7940   47.3910 N   0  0  0  0  0  0  0  0  0  0  0  0
   61.4100   31.9090   47.5610 C   0  0  0  0  0  0  0  0  0  0  0  0
   62.7660   31.7580   47.2290 C   0  0  0  0  0  0  0  0  0  0  0  0
   63.1068   30.8362   46.7348 H   0  0  0  0  0  0  0  0  0  0  0  0
   63.6870   32.7690   47.5210 C   0  0  0  0  0  0  0  0  0  0  0  0
   64.7441   32.6457   47.2430 H   0  0  0  0  0  0  0  0  0  0  0  0
   63.2670   33.9350   48.1650 C   0  0  0  0  0  0  0  0  0  0  0  0
   63.9960   34.7219   48.4086 H   0  0  0  0  0  0  0  0  0  0  0  0
   61.9200   34.1020   48.5000 C   0  0  0  0  0  0  0  0  0  0  0  0
   61.5953   35.0158   49.0193 H   0  0  0  0  0  0  0  0  0  0  0  0
   60.9760   33.1080   48.1770 C   0  0  0  0  0  0  0  0  0  0  0  0
   59.5510   33.3610   48.4730 C   0  0  0  0  0  0  0  0  0  0  0  0
   59.0880   33.0440   49.5990 O   0  0  0  0  0  0  0  0  0  0  0  0
   58.6710   33.9280   47.4960 N   0  0  0  0  0  0  0  0  0  0  0  0
   58.4600   33.3990   46.1780 C   0  0  0  0  0  0  0  0  0  0  0  0
   58.9310   34.0690   45.0340 C   0  0  0  0  0  0  0  0  0  0  0  0
   59.4205   35.0488   45.1360 H   0  0  0  0  0  0  0  0  0  0  0  0
   58.7800   33.4960   43.7700 C   0  0  0  0  0  0  0  0  0  0  0  0
   59.1650   34.0185   42.8819 H   0  0  0  0  0  0  0  0  0  0  0  0
   58.1420   32.2620   43.6290 C   0  0  0  0  0  0  0  0  0  0  0  0
   58.0508   31.8003   42.6348 H   0  0  0  0  0  0  0  0  0  0  0  0
   57.6180   31.6120   44.7540 C   0  0  0  0  0  0  0  0  0  0  0  0
   56.8300   30.0460   44.5830 S   0  0  0  0  0  0  0  0  0  0  0  0
   55.3390   30.2350   44.5010 O   0  0  0  0  0  0  0  0  0  0  0  0
   57.1420   29.1860   45.7770 O   0  0  0  0  0  0  0  0  0  0  0  0
   57.3900   29.2650   43.1460 N   0  0  0  0  0  0  0  0  0  0  0  0
   58.3830   28.9840   43.3200 H   0  0  0  0  0  0  0  0  0  0  0  0
   57.4060   29.9870   42.3890 H   0  0  0  0  0  0  0  0  0  0  0  0
   57.7650   32.1920   46.0250 C   0  0  0  0  0  0  0  0  0  0  0  0
   57.3317   31.6954   46.9057 H   0  0  0  0  0  0  0  0  0  0  0  0
   59.8070   30.2370   48.5560 C   0  0  0  0  0  0  0  0  0  0  0  0
   59.1731   31.0204   48.9970 H   0  0  0  0  0  0  0  0  0  0  0  0
   60.5571   29.8860   49.2800 H   0  0  0  0  0  0  0  0  0  0  0  0
   58.9230   29.0430   48.1610 C   0  0  0  0  0  0  0  0  0  0  0  0
   57.9984   29.4163   47.6966 H   0  0  0  0  0  0  0  0  0  0  0  0
   58.6885   28.4622   49.0653 H   0  0  0  0  0  0  0  0  0  0  0  0
   58.3900   25.7340   45.5550 C   0  0  0  0  0  0  0  0  0  0  0  0
   57.7759   26.6417   45.4605 H   0  0  0  0  0  0  0  0  0  0  0  0
   57.9440   24.5160   44.8460 C   0  0  0  0  0  0  0  0  0  0  0  0
   57.0300   24.6240   43.7870 C   0  0  0  0  0  0  0  0  0  0  0  0
   56.6795   25.6155   43.4644 H   0  0  0  0  0  0  0  0  0  0  0  0
   56.5630   23.4750   43.1400 C   0  0  0  0  0  0  0  0  0  0  0  0
   55.8321   23.5627   42.3226 H   0  0  0  0  0  0  0  0  0  0  0  0
   57.0260   22.2130   43.5330 C   0  0  0  0  0  0  0  0  0  0  0  0
   56.5530   21.0970   42.9260 F   0  0  0  0  0  0  0  0  0  0  0  0
   57.9760   22.1010   44.5540 C   0  0  0  0  0  0  0  0  0  0  0  0
   58.3589   21.1112   44.8432 H   0  0  0  0  0  0  0  0  0  0  0  0
   58.4380   23.2470   45.2060 C   0  0  0  0  0  0  0  0  0  0  0  0
   59.1904   23.1579   46.0035 H   0  0  0  0  0  0  0  0  0  0  0  0
  1  2  1  0
  2  3  1  0
  3  4  2  0
  3  5  1  0
  5  6  1  0
  6  7  1  0
  6  8  1  0
  6  9  1  0
  9 10  1  0
  9 11  1  0
  9 12  1  0
 12 13  1  0
 13 14  2  0
 14 15  1  0
 14 16  1  0
 16 17  1  0
 16 18  2  0
 18 19  1  0
 18 20  1  0
 20 21  1  0
 20 22  2  0
 22 23  1  0
 23 24  2  0
 23 25  1  0
 25 26  1  0
 26 27  2  0
 27 28  1  0
 27 29  1  0
 29 30  1  0
 29 31  2  0
 31 32  1  0
 31 33  1  0
 33 34  1  0
 34 35  2  0
 34 36  2  0
 34 37  1  0
 37 38  1  0
 37 39  1  0
 33 40  2  0
 40 41  1  0
 12 42  1  0
 42 43  1  0
 42 44  1  0
 42 45  1  0
 45 46  1  0
 45 47  1  0
  2 48  2  0
 48 49  1  0
 48 50  1  0
 50 51  2  0
 51 52  1  0
 51 53  1  0
 53 54  1  0
 53 55  2  0
 55 56  1  0
 55 57  1  0
 57 58  1  0
 57 59  2  0
 59 60  1  0
 45  5  1  0
 59 50  1  0
 22 13  1  0
 40 26  1  0
M  CHG  1  25  -1
M  END
>  <UniqueID>  (75) 
71

>  <SMILES>  (75) 
NS(=O)(=O)c1cccc([N-]C(=O)c2ccccc2N2CCN(C(=O)/C=C\c3ccc(F)cc3)CC2)c1

>  <Energy>  (75) 
84.3513460091214

>  <Genealogy>  (75) 
NS(=O)(=O)c1cccc([N-]C(=O)c2ccccc2N2CCN(C(=O)C=Cc3ccc(F)cc3)CC2)c1 (protonated)
NS(=O)(=O)c1cccc([N-]C(=O)c2ccccc2N2CCN(C(=O)/C=C\c3ccc(F)cc3)CC2)c1 (cis-trans isomerization)
NS(=O)(=O)c1cccc([N-]C(=O)c2ccccc2N2CCN(C(=O)/C=C\c3ccc(F)cc3)CC2)c1 (3D coordinates assigned)
NS(=O)(=O)c1cccc([N-]C(=O)c2ccccc2N2CCN(C(=O)/C=C\c3ccc(F)cc3)CC2)c1 (nonaromatic ring conformer: 84.3513460091214 kcal/mol)

>  <smiles>  (75) 
NS(=O)(=O)c1cccc(NC(=O)c2ccccc2N2CCN(C(=O)C=Cc3ccc(F)cc3)CC2)c1

>  <score_type>  (75) 
oracle

>  <origin>  (75) 
adg

>  <m_score__min__energy>  (75) 
-11.619999999999999

>  <m_primary>  (75) 
energy

$$$$
75:0
     RDKit          3D

 50 53  0  0  0  0  0  0  0  0999 V2000
   51.2557   31.0928   52.9765 H   0  0  0  0  0  0  0  0  0  0  0  0
   52.3110   30.8240   52.8210 C   0  0  0  0  0  0  0  0  0  0  0  0
   52.9560   31.1840   51.6340 C   0  0  0  0  0  0  0  0  0  0  0  0
   52.4103   31.7414   50.8584 H   0  0  0  0  0  0  0  0  0  0  0  0
   54.2960   30.8350   51.4330 C   0  0  0  0  0  0  0  0  0  0  0  0
   54.8030   31.1272   50.5016 H   0  0  0  0  0  0  0  0  0  0  0  0
   54.9960   30.1160   52.4100 C   0  0  0  0  0  0  0  0  0  0  0  0
   56.3450   29.8060   52.1770 O   0  0  0  0  0  0  0  0  0  0  0  0
   57.3490   30.7360   51.8710 C   0  0  0  0  0  0  0  0  0  0  0  0
   58.5320   30.2780   51.2800 C   0  0  0  0  0  0  0  0  0  0  0  0
   58.6560   29.2066   51.0637 H   0  0  0  0  0  0  0  0  0  0  0  0
   59.5570   31.1740   50.9630 C   0  0  0  0  0  0  0  0  0  0  0  0
   60.4831   30.8027   50.4999 H   0  0  0  0  0  0  0  0  0  0  0  0
   59.4130   32.5420   51.2310 C   0  0  0  0  0  0  0  0  0  0  0  0
   60.4970   33.4220   50.9010 N   0  0  0  0  0  0  0  0  0  0  0  0
   60.6220   34.2290   49.7250 C   0  0  0  0  0  0  0  0  0  0  0  0
   61.7480   34.7150   49.4400 O   0  0  0  0  0  0  0  0  0  0  0  0
   59.5150   34.3890   48.8270 N   0  0  0  0  0  0  0  0  0  0  0  0
   59.0310   33.4290   47.8740 C   0  0  0  0  0  0  0  0  0  0  0  0
   59.4000   32.0720   47.9230 C   0  0  0  0  0  0  0  0  0  0  0  0
   60.0725   31.7154   48.7171 H   0  0  0  0  0  0  0  0  0  0  0  0
   58.9150   31.1750   46.9660 C   0  0  0  0  0  0  0  0  0  0  0  0
   59.1923   30.1120   47.0220 H   0  0  0  0  0  0  0  0  0  0  0  0
   58.0790   31.6230   45.9380 C   0  0  0  0  0  0  0  0  0  0  0  0
   57.4730   30.4890   44.7330 S   0  0  0  0  0  0  0  0  0  0  0  0
   55.9790   30.3910   44.8640 O   0  0  0  0  0  0  0  0  0  0  0  0
   57.8150   30.9590   43.3460 O   0  0  0  0  0  0  0  0  0  0  0  0
   58.1690   28.9190   44.9880 N   0  0  0  0  0  0  0  0  0  0  0  0
   57.5200   27.8980   45.4620 C   0  0  0  0  0  0  0  0  0  0  0  0
   56.1750   27.7970   45.3740 N   0  0  0  0  0  0  0  0  0  0  0  0
   55.7240   26.6580   45.9610 C   0  0  0  0  0  0  0  0  0  0  0  0
   54.3700   26.3370   45.9930 O   0  0  0  0  0  0  0  0  0  0  0  0
   56.7070   25.8500   46.5240 C   0  0  0  0  0  0  0  0  0  0  0  0
   56.4890   24.5360   47.2000 C   0  0  0  0  0  0  0  0  0  0  0  0
   56.5123   24.6765   48.2907 H   0  0  0  0  0  0  0  0  0  0  0  0
   55.5110   24.1289   46.9035 H   0  0  0  0  0  0  0  0  0  0  0  0
   57.2831   23.8349   46.9035 H   0  0  0  0  0  0  0  0  0  0  0  0
   58.2030   26.5760   46.2610 S   0  0  0  0  0  0  0  0  0  0  0  0
   57.7330   32.9790   45.8690 C   0  0  0  0  0  0  0  0  0  0  0  0
   57.0834   33.3391   45.0576 H   0  0  0  0  0  0  0  0  0  0  0  0
   58.2120   33.8760   46.8300 C   0  0  0  0  0  0  0  0  0  0  0  0
   57.9431   34.9406   46.7649 H   0  0  0  0  0  0  0  0  0  0  0  0
   58.2470   32.9960   51.8730 C   0  0  0  0  0  0  0  0  0  0  0  0
   58.1422   34.0603   52.1305 H   0  0  0  0  0  0  0  0  0  0  0  0
   57.2210   32.1000   52.1850 C   0  0  0  0  0  0  0  0  0  0  0  0
   56.3082   32.4642   52.6791 H   0  0  0  0  0  0  0  0  0  0  0  0
   54.3440   29.7720   53.6110 C   0  0  0  0  0  0  0  0  0  0  0  0
   54.8899   29.2256   54.3942 H   0  0  0  0  0  0  0  0  0  0  0  0
   53.0060   30.1230   53.8100 C   0  0  0  0  0  0  0  0  0  0  0  0
   52.4992   29.8471   54.7465 H   0  0  0  0  0  0  0  0  0  0  0  0
  1  2  1  0
  2  3  2  0
  3  4  1  0
  3  5  1  0
  5  6  1  0
  5  7  2  0
  7  8  1  0
  8  9  1  0
  9 10  2  0
 10 11  1  0
 10 12  1  0
 12 13  1  0
 12 14  2  0
 14 15  1  0
 15 16  1  0
 16 17  2  0
 16 18  1  0
 18 19  1  0
 19 20  2  0
 20 21  1  0
 20 22  1  0
 22 23  1  0
 22 24  2  0
 24 25  1  0
 25 26  2  0
 25 27  2  0
 25 28  1  0
 28 29  2  0
 29 30  1  0
 30 31  1  0
 31 32  1  0
 31 33  2  0
 33 34  1  0
 34 35  1  0
 34 36  1  0
 34 37  1  0
 33 38  1  0
 24 39  1  0
 39 40  1  0
 39 41  2  0
 41 42  1  0
 14 43  1  0
 43 44  1  0
 43 45  2  0
 45 46  1  0
  7 47  1  0
 47 48  1  0
 47 49  2  0
 49 50  1  0
 49  2  1  0
 45  9  1  0
 41 19  1  0
 38 29  1  0
M  CHG  4  15  -1  18  -1  30  -1  32  -1
M  END
>  <UniqueID>  (76) 
72

>  <SMILES>  (76) 
Cc1s/c(=N\S(=O)(=O)c2ccc([N-]C(=O)[N-]c3ccc(Oc4ccccc4)cc3)cc2)[n-]c1[O-]

>  <Energy>  (76) 
100.6352718534683

>  <Genealogy>  (76) 
Cc1sc(=NS(=O)(=O)c2ccc([N-]C(=O)[N-]c3ccc(Oc4ccccc4)cc3)cc2)[n-]c1[O-] (protonated)
Cc1s/c(=N\S(=O)(=O)c2ccc([N-]C(=O)[N-]c3ccc(Oc4ccccc4)cc3)cc2)[n-]c1[O-] (cis-trans isomerization)
Cc1s/c(=N\S(=O)(=O)c2ccc([N-]C(=O)[N-]c3ccc(Oc4ccccc4)cc3)cc2)[n-]c1[O-] (3D coordinates assigned)
Cc1s/c(=N\S(=O)(=O)c2ccc([N-]C(=O)[N-]c3ccc(Oc4ccccc4)cc3)cc2)[n-]c1[O-] (optimized conformer: 100.6352718534683 kcal/mol)

>  <smiles>  (76) 
Cc1sc(=NS(=O)(=O)c2ccc(NC(=O)Nc3ccc(Oc4ccccc4)cc3)cc2)[nH]c1O

>  <score_type>  (76) 
oracle

>  <origin>  (76) 
adg

>  <m_score__min__energy>  (76) 
-17.07

>  <m_primary>  (76) 
energy

$$$$
76:0
     RDKit          3D

 61 63  0  0  0  0  0  0  0  0999 V2000
   63.6760   34.3760   51.6880 C   0  0  0  0  0  0  0  0  0  0  0  0
   62.5170   33.9210   50.9980 O   0  0  0  0  0  0  0  0  0  0  0  0
   62.5250   33.3660   49.7070 C   0  0  0  0  0  0  0  0  0  0  0  0
   63.7180   33.2000   48.9750 C   0  0  0  0  0  0  0  0  0  0  0  0
   63.6850   32.6770   47.6800 C   0  0  0  0  0  0  0  0  0  0  0  0
   62.4690   32.3180   47.1000 C   0  0  0  0  0  0  0  0  0  0  0  0
   61.2790   32.4710   47.8160 C   0  0  0  0  0  0  0  0  0  0  0  0
   61.3000   32.9680   49.1270 C   0  0  0  0  0  0  0  0  0  0  0  0
   60.0190   33.1320   49.8460 C   0  0  0  0  0  0  0  0  0  0  0  0
   59.6040   32.3630   50.8630 C   0  0  0  0  0  0  0  0  0  0  0  0
   59.4460   30.8980   50.8110 C   0  0  0  0  0  0  0  0  0  0  0  0
   58.3080   30.4180   50.5640 O   0  0  0  0  0  0  0  0  0  0  0  0
   60.5480   30.0500   50.9820 O   0  0  0  0  0  0  0  0  0  0  0  0
   60.4650   28.6290   50.9200 C   0  0  0  0  0  0  0  0  0  0  0  0
   60.1700   28.1860   49.5190 C   0  0  0  0  0  0  0  0  0  0  0  0
   60.4730   27.0120   49.1720 O   0  0  0  0  0  0  0  0  0  0  0  0
   59.6080   29.1110   48.5710 N   0  0  0  0  0  0  0  0  0  0  0  0
   59.2340   28.7600   47.2280 C   0  0  0  0  0  0  0  0  0  0  0  0
   59.9590   27.7660   46.5530 C   0  0  0  0  0  0  0  0  0  0  0  0
   59.6180   27.4070   45.2460 C   0  0  0  0  0  0  0  0  0  0  0  0
   58.5630   28.0480   44.5950 C   0  0  0  0  0  0  0  0  0  0  0  0
   57.8530   29.0670   45.2430 C   0  0  0  0  0  0  0  0  0  0  0  0
   56.5250   29.8830   44.4240 S   0  0  0  0  0  0  0  0  0  0  0  0
   56.6720   29.6990   42.9380 O   0  0  0  0  0  0  0  0  0  0  0  0
   55.2190   29.2910   44.8740 O   0  0  0  0  0  0  0  0  0  0  0  0
   56.5820   31.5710   44.8270 N   0  0  0  0  0  0  0  0  0  0  0  0
   57.6430   32.2790   45.0990 C   0  0  0  0  0  0  0  0  0  0  0  0
   58.2380   32.3540   46.4890 C   0  0  0  0  0  0  0  0  0  0  0  0
   57.9990   33.7320   47.1200 C   0  0  0  0  0  0  0  0  0  0  0  0
   59.0120   34.7840   46.6490 C   0  0  0  0  0  0  0  0  0  0  0  0
   58.8740   35.1500   45.1640 C   0  0  0  0  0  0  0  0  0  0  0  0
   59.3040   34.0130   44.2300 C   0  0  0  0  0  0  0  0  0  0  0  0
   58.2220   33.0520   44.0370 N   0  0  0  0  0  0  0  0  0  0  0  0
   58.1900   29.4240   46.5560 C   0  0  0  0  0  0  0  0  0  0  0  0
   63.5066   34.3095   52.7728 H   0  0  0  0  0  0  0  0  0  0  0  0
   64.5367   33.7490   51.4122 H   0  0  0  0  0  0  0  0  0  0  0  0
   63.8803   35.4211   51.4122 H   0  0  0  0  0  0  0  0  0  0  0  0
   64.6804   33.4838   49.4259 H   0  0  0  0  0  0  0  0  0  0  0  0
   64.6208   32.5481   47.1164 H   0  0  0  0  0  0  0  0  0  0  0  0
   62.4465   31.9137   46.0772 H   0  0  0  0  0  0  0  0  0  0  0  0
   60.3207   32.2002   47.3488 H   0  0  0  0  0  0  0  0  0  0  0  0
   59.3554   33.9473   49.5220 H   0  0  0  0  0  0  0  0  0  0  0  0
   59.3622   32.8650   51.8114 H   0  0  0  0  0  0  0  0  0  0  0  0
   61.4225   28.1951   51.2438 H   0  0  0  0  0  0  0  0  0  0  0  0
   59.6544   28.2887   51.5811 H   0  0  0  0  0  0  0  0  0  0  0  0
   59.5960   30.1230   48.8310 H   0  0  0  0  0  0  0  0  0  0  0  0
   60.8005   27.2665   47.0554 H   0  0  0  0  0  0  0  0  0  0  0  0
   60.1827   26.6171   44.7291 H   0  0  0  0  0  0  0  0  0  0  0  0
   58.2886   27.7526   43.5716 H   0  0  0  0  0  0  0  0  0  0  0  0
   57.7717   31.5839   47.1211 H   0  0  0  0  0  0  0  0  0  0  0  0
   59.3228   32.1884   46.4135 H   0  0  0  0  0  0  0  0  0  0  0  0
   56.9881   34.0717   46.8504 H   0  0  0  0  0  0  0  0  0  0  0  0
   58.1155   33.6232   48.2084 H   0  0  0  0  0  0  0  0  0  0  0  0
   58.8689   35.6964   47.2466 H   0  0  0  0  0  0  0  0  0  0  0  0
   60.0136   34.3491   46.7819 H   0  0  0  0  0  0  0  0  0  0  0  0
   57.8214   35.3946   44.9586 H   0  0  0  0  0  0  0  0  0  0  0  0
   59.5369   36.0063   44.9707 H   0  0  0  0  0  0  0  0  0  0  0  0
   59.5861   34.4367   43.2548 H   0  0  0  0  0  0  0  0  0  0  0  0
   60.1574   33.4903   44.6866 H   0  0  0  0  0  0  0  0  0  0  0  0
   57.8240   32.9520   43.0760 H   0  0  0  0  0  0  0  0  0  0  0  0
   57.6359   30.2271   47.0640 H   0  0  0  0  0  0  0  0  0  0  0  0
  1  2  1  0
  2  3  1  0
  3  4  2  0
  4  5  1  0
  5  6  2  0
  6  7  1  0
  7  8  2  0
  8  9  1  0
  9 10  2  3
 10 11  1  0
 11 12  2  0
 11 13  1  0
 13 14  1  0
 14 15  1  0
 15 16  2  0
 15 17  1  0
 17 18  1  0
 18 19  2  0
 19 20  1  0
 20 21  2  0
 21 22  1  0
 22 23  1  0
 23 24  2  0
 23 25  2  0
 23 26  1  0
 26 27  2  3
 27 28  1  0
 28 29  1  0
 29 30  1  0
 30 31  1  0
 31 32  1  0
 32 33  1  0
 22 34  2  0
  8  3  1  0
 34 18  1  0
 33 27  1  0
  1 35  1  0
  1 36  1  0
  1 37  1  0
  4 38  1  0
  5 39  1  0
  6 40  1  0
  7 41  1  0
  9 42  1  0
 10 43  1  0
 14 44  1  0
 14 45  1  0
 17 46  1  0
 19 47  1  0
 20 48  1  0
 21 49  1  0
 28 50  1  0
 28 51  1  0
 29 52  1  0
 29 53  1  0
 30 54  1  0
 30 55  1  0
 31 56  1  0
 31 57  1  0
 32 58  1  0
 32 59  1  0
 33 60  1  0
 34 61  1  0
M  END
>  <UniqueID>  (77) 
73

>  <SMILES>  (77) 
COc1ccccc1C=CC(=O)OCC(=O)Nc1cccc(S(=O)(=O)N=C2CCCCCN2)c1

>  <Energy>  (77) 
70.42821991385087

>  <Genealogy>  (77) 
COc1ccccc1C=CC(=O)OCC(=O)Nc1cccc(S(=O)(=O)N=C2CCCCCN2)c1 (3D coordinates assigned)
COc1ccccc1C=CC(=O)OCC(=O)Nc1cccc(S(=O)(=O)N=C2CCCCCN2)c1 (nonaromatic ring conformer: 70.42821991385087 kcal/mol)

>  <smiles>  (77) 
COc1ccccc1C=CC(=O)OCC(=O)Nc1cccc(S(=O)(=O)N=C2CCCCCN2)c1

>  <score_type>  (77) 
oracle

>  <origin>  (77) 
adg

>  <m_score__min__energy>  (77) 
-7.7999999999999998

>  <m_primary>  (77) 
energy

$$$$
77:0
     RDKit          3D

 42 43  0  0  0  0  0  0  0  0999 V2000
   54.5180   30.6160   51.8610 C   0  0  0  0  0  0  0  0  0  0  0  0
   55.8000   31.2950   52.3280 C   0  0  0  0  0  0  0  0  0  0  0  0
   56.9580   30.8880   51.4670 C   0  0  0  0  0  0  0  0  0  0  0  0
   57.4490   29.7340   51.5920 O   0  0  0  0  0  0  0  0  0  0  0  0
   57.4820   31.7980   50.4890 N   0  0  0  0  0  0  0  0  0  0  0  0
   58.6940   31.5130   49.7220 C   0  0  0  0  0  0  0  0  0  0  0  0
   58.8700   32.5340   48.6310 C   0  0  0  0  0  0  0  0  0  0  0  0
   59.6820   33.6620   48.8280 C   0  0  0  0  0  0  0  0  0  0  0  0
   59.7670   34.6470   47.8400 C   0  0  0  0  0  0  0  0  0  0  0  0
   59.0310   34.5250   46.6600 C   0  0  0  0  0  0  0  0  0  0  0  0
   58.2250   33.3960   46.4430 C   0  0  0  0  0  0  0  0  0  0  0  0
   57.3260   33.3210   45.2400 C   0  0  0  0  0  0  0  0  0  0  0  0
   56.7670   31.9770   45.1450 N   0  0  0  0  0  0  0  0  0  0  0  0
   57.2080   31.0050   44.1910 C   0  0  0  0  0  0  0  0  0  0  0  0
   56.7080   30.9790   43.0350 O   0  0  0  0  0  0  0  0  0  0  0  0
   58.1820   30.0220   44.5500 N   0  0  0  0  0  0  0  0  0  0  0  0
   57.9010   28.7560   45.1650 C   0  0  0  0  0  0  0  0  0  0  0  0
   58.9280   27.8800   45.5620 C   0  0  0  0  0  0  0  0  0  0  0  0
   58.6160   26.6330   46.1140 C   0  0  0  0  0  0  0  0  0  0  0  0
   57.2820   26.2470   46.2630 C   0  0  0  0  0  0  0  0  0  0  0  0
   56.2560   27.1040   45.8510 C   0  0  0  0  0  0  0  0  0  0  0  0
   54.9300   26.7150   45.9880 O   0  0  0  0  0  0  0  0  0  0  0  0
   56.5660   28.3510   45.2980 C   0  0  0  0  0  0  0  0  0  0  0  0
   58.1640   32.3960   47.4260 C   0  0  0  0  0  0  0  0  0  0  0  0
   53.9287   30.3039   52.7358 H   0  0  0  0  0  0  0  0  0  0  0  0
   53.9296   31.3207   51.2550 H   0  0  0  0  0  0  0  0  0  0  0  0
   54.7704   29.7333   51.2550 H   0  0  0  0  0  0  0  0  0  0  0  0
   55.6727   32.3861   52.2701 H   0  0  0  0  0  0  0  0  0  0  0  0
   56.0050   30.9897   53.3647 H   0  0  0  0  0  0  0  0  0  0  0  0
   57.0070   32.7180   50.3470 H   0  0  0  0  0  0  0  0  0  0  0  0
   59.5648   31.5447   50.3933 H   0  0  0  0  0  0  0  0  0  0  0  0
   58.6057   30.5146   49.2687 H   0  0  0  0  0  0  0  0  0  0  0  0
   60.2527   33.7710   49.7620 H   0  0  0  0  0  0  0  0  0  0  0  0
   60.4163   35.5217   47.9928 H   0  0  0  0  0  0  0  0  0  0  0  0
   59.0827   35.3162   45.8975 H   0  0  0  0  0  0  0  0  0  0  0  0
   56.5110   34.0525   45.3430 H   0  0  0  0  0  0  0  0  0  0  0  0
   57.9031   33.5474   44.3314 H   0  0  0  0  0  0  0  0  0  0  0  0
   59.9799   28.1767   45.4379 H   0  0  0  0  0  0  0  0  0  0  0  0
   59.4225   25.9555   46.4311 H   0  0  0  0  0  0  0  0  0  0  0  0
   57.0382   25.2693   46.7042 H   0  0  0  0  0  0  0  0  0  0  0  0
   55.7568   29.0178   44.9655 H   0  0  0  0  0  0  0  0  0  0  0  0
   57.5571   31.4956   47.2502 H   0  0  0  0  0  0  0  0  0  0  0  0
  1  2  1  0
  2  3  1  0
  3  4  2  0
  3  5  1  0
  5  6  1  0
  6  7  1  0
  7  8  2  0
  8  9  1  0
  9 10  2  0
 10 11  1  0
 11 12  1  0
 12 13  1  0
 13 14  1  0
 14 15  2  0
 14 16  1  0
 16 17  1  0
 17 18  2  0
 18 19  1  0
 19 20  2  0
 20 21  1  0
 21 22  1  0
 21 23  2  0
 11 24  2  0
 24  7  1  0
 23 17  1  0
  1 25  1  0
  1 26  1  0
  1 27  1  0
  2 28  1  0
  2 29  1  0
  5 30  1  0
  6 31  1  0
  6 32  1  0
  8 33  1  0
  9 34  1  0
 10 35  1  0
 12 36  1  0
 12 37  1  0
 18 38  1  0
 19 39  1  0
 20 40  1  0
 23 41  1  0
 24 42  1  0
M  CHG  3  13  -1  16  -1  22  -1
M  END
>  <UniqueID>  (78) 
74

>  <SMILES>  (78) 
CCC(=O)NCc1cccc(C[N-]C(=O)[N-]c2cccc([O-])c2)c1

>  <Energy>  (78) 
34.84966460966222

>  <Genealogy>  (78) 
CCC(=O)NCc1cccc(C[N-]C(=O)[N-]c2cccc([O-])c2)c1 (protonated)
CCC(=O)NCc1cccc(C[N-]C(=O)[N-]c2cccc([O-])c2)c1 (3D coordinates assigned)
CCC(=O)NCc1cccc(C[N-]C(=O)[N-]c2cccc([O-])c2)c1 (optimized conformer: 34.84966460966222 kcal/mol)

>  <smiles>  (78) 
CCC(=O)NCc1cccc(CNC(=O)Nc2cccc(O)c2)c1

>  <score_type>  (78) 
oracle

>  <origin>  (78) 
adg

>  <m_score__min__energy>  (78) 
-13.619999999999999

>  <m_primary>  (78) 
energy

$$$$
78:0
     RDKit          3D

 44 46  0  0  0  0  0  0  0  0999 V2000
   59.1776   33.0240   49.0503 H   0  0  0  0  0  0  0  0  0  0  0  0
   59.0240   33.4210   48.0360 C   0  0  0  0  0  0  0  0  0  0  0  0
   58.1010   33.0120   47.1960 O   0  0  0  0  0  0  0  0  0  0  0  0
   58.2160   33.7000   46.0840 C   0  0  0  0  0  0  0  0  0  0  0  0
   57.3160   33.5370   44.9020 C   0  0  0  0  0  0  0  0  0  0  0  0
   57.9170   33.5423   43.9807 H   0  0  0  0  0  0  0  0  0  0  0  0
   56.5940   34.3665   44.8752 H   0  0  0  0  0  0  0  0  0  0  0  0
   56.5950   32.2680   45.0060 N   0  0  0  0  0  0  0  0  0  0  0  0
   56.6720   31.9290   45.9920 H   0  0  0  0  0  0  0  0  0  0  0  0
   57.3580   31.0740   44.0010 S   0  0  0  0  0  0  0  0  0  0  0  0
   56.5320   30.8600   42.7640 O   0  0  0  0  0  0  0  0  0  0  0  0
   58.7220   31.5560   43.5920 O   0  0  0  0  0  0  0  0  0  0  0  0
   57.5080   29.5490   44.8620 C   0  0  0  0  0  0  0  0  0  0  0  0
   58.9420   28.9040   45.4410 S   0  0  0  0  0  0  0  0  0  0  0  0
   58.1890   27.5640   46.1240 C   0  0  0  0  0  0  0  0  0  0  0  0
   58.8710   26.6590   46.7710 N   0  0  0  0  0  0  0  0  0  0  0  0
   59.3500   25.3900   46.3130 C   0  0  0  0  0  0  0  0  0  0  0  0
   60.5670   25.2560   46.0120 O   0  0  0  0  0  0  0  0  0  0  0  0
   58.4040   24.2730   46.0880 C   0  0  0  0  0  0  0  0  0  0  0  0
   58.5010   23.4750   44.9340 C   0  0  0  0  0  0  0  0  0  0  0  0
   59.2820   23.6865   44.1888 H   0  0  0  0  0  0  0  0  0  0  0  0
   57.6130   22.4150   44.7260 C   0  0  0  0  0  0  0  0  0  0  0  0
   57.6997   21.7981   43.8194 H   0  0  0  0  0  0  0  0  0  0  0  0
   56.6100   22.1340   45.6700 C   0  0  0  0  0  0  0  0  0  0  0  0
   55.6960   21.0810   45.5060 O   0  0  0  0  0  0  0  0  0  0  0  0
   55.9760   19.8760   44.8010 C   0  0  0  0  0  0  0  0  0  0  0  0
   56.1643   19.0655   45.5205 H   0  0  0  0  0  0  0  0  0  0  0  0
   55.1152   19.6125   44.1689 H   0  0  0  0  0  0  0  0  0  0  0  0
   56.8648   20.0191   44.1689 H   0  0  0  0  0  0  0  0  0  0  0  0
   56.5130   22.9260   46.8180 C   0  0  0  0  0  0  0  0  0  0  0  0
   55.7318   22.7131   47.5626 H   0  0  0  0  0  0  0  0  0  0  0  0
   57.3990   23.9850   47.0280 C   0  0  0  0  0  0  0  0  0  0  0  0
   57.3098   24.5988   47.9364 H   0  0  0  0  0  0  0  0  0  0  0  0
   56.8400   27.5680   45.8830 N   0  0  0  0  0  0  0  0  0  0  0  0
   55.8790   26.5050   46.2000 C   0  0  0  0  0  0  0  0  0  0  0  0
   55.7891   26.4056   47.2918 H   0  0  0  0  0  0  0  0  0  0  0  0
   54.8976   26.7587   45.7729 H   0  0  0  0  0  0  0  0  0  0  0  0
   56.2300   25.5540   45.7729 H   0  0  0  0  0  0  0  0  0  0  0  0
   56.4690   28.6930   45.2000 C   0  0  0  0  0  0  0  0  0  0  0  0
   55.1470   28.9610   44.8570 O   0  0  0  0  0  0  0  0  0  0  0  0
   59.2490   34.6080   46.1920 C   0  0  0  0  0  0  0  0  0  0  0  0
   59.5848   35.3277   45.4309 H   0  0  0  0  0  0  0  0  0  0  0  0
   59.7720   34.4240   47.4540 C   0  0  0  0  0  0  0  0  0  0  0  0
   60.6152   34.9670   47.9059 H   0  0  0  0  0  0  0  0  0  0  0  0
  1  2  1  0
  2  3  1  0
  3  4  1  0
  4  5  1  0
  5  6  1  0
  5  7  1  0
  5  8  1  0
  8  9  1  0
  8 10  1  0
 10 11  2  0
 10 12  2  0
 10 13  1  0
 13 14  1  0
 14 15  1  0
 15 16  2  0
 16 17  1  0
 17 18  2  0
 17 19  1  0
 19 20  2  0
 20 21  1  0
 20 22  1  0
 22 23  1  0
 22 24  2  0
 24 25  1  0
 25 26  1  0
 26 27  1  0
 26 28  1  0
 26 29  1  0
 24 30  1  0
 30 31  1  0
 30 32  2  0
 32 33  1  0
 15 34  1  0
 34 35  1  0
 35 36  1  0
 35 37  1  0
 35 38  1  0
 34 39  1  0
 39 40  1  0
  4 41  2  0
 41 42  1  0
 41 43  1  0
 43 44  1  0
 43  2  2  0
 39 13  2  0
 32 19  1  0
M  CHG  1  40  -1
M  END
>  <UniqueID>  (79) 
75

>  <SMILES>  (79) 
COc1ccc(C(=O)/N=c2/sc(S(=O)(=O)NCc3ccco3)c([O-])n2C)cc1

>  <Energy>  (79) 
113.06939586094259

>  <Genealogy>  (79) 
COc1ccc(C(=O)N=c2sc(S(=O)(=O)NCc3ccco3)c([O-])n2C)cc1 (protonated)
COc1ccc(C(=O)/N=c2/sc(S(=O)(=O)NCc3ccco3)c([O-])n2C)cc1 (cis-trans isomerization)
COc1ccc(C(=O)/N=c2/sc(S(=O)(=O)NCc3ccco3)c([O-])n2C)cc1 (3D coordinates assigned)
COc1ccc(C(=O)/N=c2/sc(S(=O)(=O)NCc3ccco3)c([O-])n2C)cc1 (optimized conformer: 113.06939586094259 kcal/mol)

>  <smiles>  (79) 
COc1ccc(C(=O)N=c2sc(S(=O)(=O)NCc3ccco3)c(O)n2C)cc1

>  <score_type>  (79) 
oracle

>  <origin>  (79) 
adg

>  <m_score__min__energy>  (79) 
-10.949999999999999

>  <m_primary>  (79) 
energy

$$$$
79:0
     RDKit          3D

 34 35  0  0  0  0  0  0  0  0999 V2000
   59.2760   34.6320   47.4050 C   0  0  0  0  0  0  0  0  0  0  0  0
   58.2940   34.3050   46.4300 O   0  0  0  0  0  0  0  0  0  0  0  0
   58.5830   33.5410   45.2950 C   0  0  0  0  0  0  0  0  0  0  0  0
   59.2260   34.0520   44.3370 O   0  0  0  0  0  0  0  0  0  0  0  0
   58.1330   32.1330   45.2210 C   0  0  0  0  0  0  0  0  0  0  0  0
   57.0170   31.7750   44.4440 C   0  0  0  0  0  0  0  0  0  0  0  0
   56.5970   30.4440   44.3790 C   0  0  0  0  0  0  0  0  0  0  0  0
   57.2900   29.4410   45.0730 C   0  0  0  0  0  0  0  0  0  0  0  0
   56.8240   28.0830   45.0060 N   0  0  0  0  0  0  0  0  0  0  0  0
   57.5920   26.9490   45.4390 C   0  0  0  0  0  0  0  0  0  0  0  0
   58.8440   27.0470   45.5620 O   0  0  0  0  0  0  0  0  0  0  0  0
   56.9320   25.6430   45.6880 C   0  0  0  0  0  0  0  0  0  0  0  0
   55.5540   25.5690   45.9450 C   0  0  0  0  0  0  0  0  0  0  0  0
   54.7740   26.7160   46.0100 O   0  0  0  0  0  0  0  0  0  0  0  0
   54.9700   24.3650   46.1520 N   0  0  0  0  0  0  0  0  0  0  0  0
   55.6850   23.2130   46.1410 C   0  0  0  0  0  0  0  0  0  0  0  0
   55.0810   22.1210   46.3220 O   0  0  0  0  0  0  0  0  0  0  0  0
   57.0400   23.2420   45.9350 N   0  0  0  0  0  0  0  0  0  0  0  0
   57.8090   21.9850   45.8990 C   0  0  0  0  0  0  0  0  0  0  0  0
   57.6650   24.4380   45.6840 C   0  0  0  0  0  0  0  0  0  0  0  0
   58.9020   24.4640   45.4300 O   0  0  0  0  0  0  0  0  0  0  0  0
   58.3930   29.8000   45.8660 C   0  0  0  0  0  0  0  0  0  0  0  0
   58.8140   31.1320   45.9340 C   0  0  0  0  0  0  0  0  0  0  0  0
   58.8545   34.4917   48.4113 H   0  0  0  0  0  0  0  0  0  0  0  0
   60.1503   33.9765   47.2790 H   0  0  0  0  0  0  0  0  0  0  0  0
   59.5828   35.6808   47.2790 H   0  0  0  0  0  0  0  0  0  0  0  0
   56.4709   32.5481   43.8835 H   0  0  0  0  0  0  0  0  0  0  0  0
   55.7144   30.1801   43.7778 H   0  0  0  0  0  0  0  0  0  0  0  0
   55.9160   27.9000   44.5220 H   0  0  0  0  0  0  0  0  0  0  0  0
   58.0135   21.6507   46.9268 H   0  0  0  0  0  0  0  0  0  0  0  0
   57.2275   21.2144   45.3717 H   0  0  0  0  0  0  0  0  0  0  0  0
   58.7598   22.1518   45.3717 H   0  0  0  0  0  0  0  0  0  0  0  0
   58.9292   29.0280   46.4374 H   0  0  0  0  0  0  0  0  0  0  0  0
   59.6852   31.3981   46.5506 H   0  0  0  0  0  0  0  0  0  0  0  0
  1  2  1  0
  2  3  1  0
  3  4  2  0
  3  5  1  0
  5  6  2  0
  6  7  1  0
  7  8  2  0
  8  9  1  0
  9 10  1  0
 10 11  2  0
 10 12  1  0
 12 13  2  0
 13 14  1  0
 13 15  1  0
 15 16  1  0
 16 17  2  0
 16 18  1  0
 18 19  1  0
 18 20  1  0
 20 21  2  0
  8 22  1  0
 22 23  2  0
 23  5  1  0
 20 12  1  0
  1 24  1  0
  1 25  1  0
  1 26  1  0
  6 27  1  0
  7 28  1  0
  9 29  1  0
 19 30  1  0
 19 31  1  0
 19 32  1  0
 22 33  1  0
 23 34  1  0
M  CHG  2  14  -1  15  -1
M  END
>  <UniqueID>  (80) 
76

>  <SMILES>  (80) 
COC(=O)c1ccc(NC(=O)c2c([O-])[n-]c(=O)n(C)c2=O)cc1

>  <Energy>  (80) 
46.12291635916215

>  <Genealogy>  (80) 
COC(=O)c1ccc(NC(=O)c2c([O-])[n-]c(=O)n(C)c2=O)cc1 (protonated)
COC(=O)c1ccc(NC(=O)c2c([O-])[n-]c(=O)n(C)c2=O)cc1 (3D coordinates assigned)
COC(=O)c1ccc(NC(=O)c2c([O-])[n-]c(=O)n(C)c2=O)cc1 (optimized conformer: 46.12291635916215 kcal/mol)

>  <smiles>  (80) 
COC(=O)c1ccc(NC(=O)c2c(O)[nH]c(=O)n(C)c2=O)cc1

>  <score_type>  (80) 
oracle

>  <origin>  (80) 
adg

>  <m_score__min__energy>  (80) 
-12.210000000000001

>  <m_primary>  (80) 
energy

$$$$
80:0
     RDKit          3D

 40 42  0  0  0  0  0  0  0  0999 V2000
   57.6270   27.8170   44.3290 O   0  0  0  0  0  0  0  0  0  0  0  0
   56.6400   28.1280   45.0470 C   0  0  0  0  0  0  0  0  0  0  0  0
   55.9740   27.0960   45.7820 N   0  0  0  0  0  0  0  0  0  0  0  0
   56.4370   25.7470   45.9390 C   0  0  0  0  0  0  0  0  0  0  0  0
   55.5950   24.6580   45.6500 C   0  0  0  0  0  0  0  0  0  0  0  0
   56.0770   23.3500   45.7370 C   0  0  0  0  0  0  0  0  0  0  0  0
   57.4060   23.1170   46.0940 C   0  0  0  0  0  0  0  0  0  0  0  0
   58.2580   24.1900   46.3600 C   0  0  0  0  0  0  0  0  0  0  0  0
   57.7820   25.5110   46.2830 C   0  0  0  0  0  0  0  0  0  0  0  0
   58.6630   26.6100   46.5670 N   0  0  0  0  0  0  0  0  0  0  0  0
   58.4750   27.3910   47.7910 C   0  0  0  0  0  0  0  0  0  0  0  0
   59.0130   28.8090   47.5780 C   0  0  0  0  0  0  0  0  0  0  0  0
   60.3470   28.7730   47.1040 O   0  0  0  0  0  0  0  0  0  0  0  0
   60.3860   28.1780   45.8200 C   0  0  0  0  0  0  0  0  0  0  0  0
   59.9560   26.7090   45.8870 C   0  0  0  0  0  0  0  0  0  0  0  0
   56.2120   29.4990   45.1470 N   0  0  0  0  0  0  0  0  0  0  0  0
   56.8260   30.5890   44.4390 C   0  0  0  0  0  0  0  0  0  0  0  0
   56.8910   30.6090   43.0330 C   0  0  0  0  0  0  0  0  0  0  0  0
   57.5170   31.6690   42.3720 C   0  0  0  0  0  0  0  0  0  0  0  0
   58.0960   32.7090   43.1050 C   0  0  0  0  0  0  0  0  0  0  0  0
   58.0580   32.6850   44.5020 C   0  0  0  0  0  0  0  0  0  0  0  0
   58.8630   34.0980   45.5040 Br  0  0  0  0  0  0  0  0  0  0  0  0
   57.4320   31.6240   45.1670 C   0  0  0  0  0  0  0  0  0  0  0  0
   54.5510   24.8375   45.3538 H   0  0  0  0  0  0  0  0  0  0  0  0
   55.4086   22.5027   45.5240 H   0  0  0  0  0  0  0  0  0  0  0  0
   57.7826   22.0860   46.1658 H   0  0  0  0  0  0  0  0  0  0  0  0
   59.3072   24.0014   46.6313 H   0  0  0  0  0  0  0  0  0  0  0  0
   57.4035   27.4380   48.0353 H   0  0  0  0  0  0  0  0  0  0  0  0
   59.0186   26.9125   48.6190 H   0  0  0  0  0  0  0  0  0  0  0  0
   58.3820   29.3276   46.8412 H   0  0  0  0  0  0  0  0  0  0  0  0
   58.9941   29.3423   48.5399 H   0  0  0  0  0  0  0  0  0  0  0  0
   59.7051   28.7227   45.1494 H   0  0  0  0  0  0  0  0  0  0  0  0
   61.4174   28.2262   45.4406 H   0  0  0  0  0  0  0  0  0  0  0  0
   59.8659   26.3063   44.8673 H   0  0  0  0  0  0  0  0  0  0  0  0
   60.7086   26.1314   46.4438 H   0  0  0  0  0  0  0  0  0  0  0  0
   55.3630   29.7160   45.7140 H   0  0  0  0  0  0  0  0  0  0  0  0
   56.4472   29.7869   42.4523 H   0  0  0  0  0  0  0  0  0  0  0  0
   57.5543   31.6851   41.2728 H   0  0  0  0  0  0  0  0  0  0  0  0
   58.5815   33.5463   42.5823 H   0  0  0  0  0  0  0  0  0  0  0  0
   57.4151   31.6017   46.2666 H   0  0  0  0  0  0  0  0  0  0  0  0
  1  2  2  0
  2  3  1  0
  3  4  1  0
  4  5  2  0
  5  6  1  0
  6  7  2  0
  7  8  1  0
  8  9  2  0
  9 10  1  0
 10 11  1  0
 11 12  1  0
 12 13  1  0
 13 14  1  0
 14 15  1  0
  2 16  1  0
 16 17  1  0
 17 18  2  0
 18 19  1  0
 19 20  2  0
 20 21  1  0
 21 22  1  0
 21 23  2  0
  9  4  1  0
 15 10  1  0
 23 17  1  0
  5 24  1  0
  6 25  1  0
  7 26  1  0
  8 27  1  0
 11 28  1  0
 11 29  1  0
 12 30  1  0
 12 31  1  0
 14 32  1  0
 14 33  1  0
 15 34  1  0
 15 35  1  0
 16 36  1  0
 18 37  1  0
 19 38  1  0
 20 39  1  0
 23 40  1  0
M  CHG  1   3  -1
M  END
>  <UniqueID>  (81) 
77

>  <SMILES>  (81) 
O=C([N-]c1ccccc1N1CCOCC1)Nc1cccc(Br)c1

>  <Energy>  (81) 
55.40119291072057

>  <Genealogy>  (81) 
O=C([N-]c1ccccc1N1CCOCC1)Nc1cccc(Br)c1 (protonated)
O=C([N-]c1ccccc1N1CCOCC1)Nc1cccc(Br)c1 (3D coordinates assigned)
O=C([N-]c1ccccc1N1CCOCC1)Nc1cccc(Br)c1 (nonaromatic ring conformer: 55.40119291072057 kcal/mol)

>  <smiles>  (81) 
O=C(Nc1cccc(Br)c1)Nc1ccccc1N1CCOCC1

>  <score_type>  (81) 
oracle

>  <origin>  (81) 
adg

>  <m_score__min__energy>  (81) 
-9.3000000000000007

>  <m_primary>  (81) 
energy

$$$$
81:0
     RDKit          3D

 67 71  0  0  0  0  0  0  0  0999 V2000
   63.7500   34.4050   51.3600 C   0  0  0  0  0  0  0  0  0  0  0  0
   62.6500   34.5940   50.3160 C   0  0  0  0  0  0  0  0  0  0  0  0
   62.7690   33.5730   49.2090 C   0  0  0  0  0  0  0  0  0  0  0  0
   63.4650   33.9080   48.0340 C   0  0  0  0  0  0  0  0  0  0  0  0
   63.6000   32.9770   47.0020 C   0  0  0  0  0  0  0  0  0  0  0  0
   63.0520   31.7010   47.1350 C   0  0  0  0  0  0  0  0  0  0  0  0
   62.3680   31.3470   48.3020 C   0  0  0  0  0  0  0  0  0  0  0  0
   62.2120   32.2800   49.3440 C   0  0  0  0  0  0  0  0  0  0  0  0
   61.5570   31.9260   50.5740 N   0  0  0  0  0  0  0  0  0  0  0  0
   60.1490   31.9050   50.8430 C   0  0  0  0  0  0  0  0  0  0  0  0
   59.6330   30.9760   51.5170 O   0  0  0  0  0  0  0  0  0  0  0  0
   59.2690   32.9310   50.2030 C   0  0  0  0  0  0  0  0  0  0  0  0
   59.1290   32.6450   48.7770 N   0  0  0  0  0  0  0  0  0  0  0  0
   58.8880   31.4330   48.2920 N   0  0  0  0  0  0  0  0  0  0  0  0
   58.8980   31.5060   46.9390 C   0  0  0  0  0  0  0  0  0  0  0  0
   58.6610   30.3410   46.0630 C   0  0  0  0  0  0  0  0  0  0  0  0
   57.7950   30.4240   44.9610 C   0  0  0  0  0  0  0  0  0  0  0  0
   57.6010   29.3180   44.1280 C   0  0  0  0  0  0  0  0  0  0  0  0
   58.2800   28.1120   44.3740 C   0  0  0  0  0  0  0  0  0  0  0  0
   58.0810   26.9270   43.5040 C   0  0  0  0  0  0  0  0  0  0  0  0
   58.5080   26.9540   42.3180 O   0  0  0  0  0  0  0  0  0  0  0  0
   57.3920   25.7610   43.9830 N   0  0  0  0  0  0  0  0  0  0  0  0
   57.3420   24.5350   43.1880 C   0  0  0  0  0  0  0  0  0  0  0  0
   56.0910   23.7160   43.5220 C   0  0  0  0  0  0  0  0  0  0  0  0
   55.9680   23.5210   45.0080 C   0  0  0  0  0  0  0  0  0  0  0  0
   57.1190   23.4540   45.8110 C   0  0  0  0  0  0  0  0  0  0  0  0
   57.0040   23.3340   47.2000 C   0  0  0  0  0  0  0  0  0  0  0  0
   55.7400   23.2830   47.7960 C   0  0  0  0  0  0  0  0  0  0  0  0
   54.5900   23.3570   47.0050 C   0  0  0  0  0  0  0  0  0  0  0  0
   54.7010   23.4790   45.6160 C   0  0  0  0  0  0  0  0  0  0  0  0
   59.1470   28.0330   45.4770 C   0  0  0  0  0  0  0  0  0  0  0  0
   59.3460   29.1410   46.3050 C   0  0  0  0  0  0  0  0  0  0  0  0
   59.1550   32.8190   46.5690 C   0  0  0  0  0  0  0  0  0  0  0  0
   59.2260   33.4670   45.3350 C   0  0  0  0  0  0  0  0  0  0  0  0
   59.4930   34.8490   45.3350 C   0  0  0  0  0  0  0  0  0  0  0  0
   59.6620   35.5470   46.5520 C   0  0  0  0  0  0  0  0  0  0  0  0
   59.5540   34.8720   47.7810 C   0  0  0  0  0  0  0  0  0  0  0  0
   59.2980   33.4990   47.7490 C   0  0  0  0  0  0  0  0  0  0  0  0
   63.3157   34.4796   52.3679 H   0  0  0  0  0  0  0  0  0  0  0  0
   64.2109   33.4145   51.2318 H   0  0  0  0  0  0  0  0  0  0  0  0
   64.5151   35.1848   51.2318 H   0  0  0  0  0  0  0  0  0  0  0  0
   61.6699   34.4833   50.8029 H   0  0  0  0  0  0  0  0  0  0  0  0
   62.7531   35.5977   49.8779 H   0  0  0  0  0  0  0  0  0  0  0  0
   63.9060   34.9100   47.9271 H   0  0  0  0  0  0  0  0  0  0  0  0
   64.1392   33.2501   46.0829 H   0  0  0  0  0  0  0  0  0  0  0  0
   63.1584   30.9710   46.3191 H   0  0  0  0  0  0  0  0  0  0  0  0
   61.9500   30.3349   48.4061 H   0  0  0  0  0  0  0  0  0  0  0  0
   58.2774   32.9091   50.6786 H   0  0  0  0  0  0  0  0  0  0  0  0
   59.7202   33.9261   50.3306 H   0  0  0  0  0  0  0  0  0  0  0  0
   57.2657   31.3653   44.7516 H   0  0  0  0  0  0  0  0  0  0  0  0
   56.9119   29.3921   43.2738 H   0  0  0  0  0  0  0  0  0  0  0  0
   56.8890   25.8000   44.8980 H   0  0  0  0  0  0  0  0  0  0  0  0
   57.3250   24.7989   42.1202 H   0  0  0  0  0  0  0  0  0  0  0  0
   58.2303   23.9294   43.4206 H   0  0  0  0  0  0  0  0  0  0  0  0
   55.2016   24.2472   43.1521 H   0  0  0  0  0  0  0  0  0  0  0  0
   56.1729   22.7305   43.0403 H   0  0  0  0  0  0  0  0  0  0  0  0
   58.1148   23.4961   45.3455 H   0  0  0  0  0  0  0  0  0  0  0  0
   57.9084   23.2797   47.8238 H   0  0  0  0  0  0  0  0  0  0  0  0
   55.6507   23.1846   48.8879 H   0  0  0  0  0  0  0  0  0  0  0  0
   53.5964   23.3192   47.4754 H   0  0  0  0  0  0  0  0  0  0  0  0
   53.7938   23.5423   44.9972 H   0  0  0  0  0  0  0  0  0  0  0  0
   59.6735   27.0911   45.6905 H   0  0  0  0  0  0  0  0  0  0  0  0
   60.0444   29.0717   47.1521 H   0  0  0  0  0  0  0  0  0  0  0  0
   59.0783   32.9164   44.3943 H   0  0  0  0  0  0  0  0  0  0  0  0
   59.5707   35.3898   44.3803 H   0  0  0  0  0  0  0  0  0  0  0  0
   59.8794   36.6252   46.5380 H   0  0  0  0  0  0  0  0  0  0  0  0
   59.6673   35.4071   48.7354 H   0  0  0  0  0  0  0  0  0  0  0  0
  1  2  1  0
  2  3  1  0
  3  4  2  0
  4  5  1  0
  5  6  2  0
  6  7  1  0
  7  8  2  0
  8  9  1  0
  9 10  1  0
 10 11  2  0
 10 12  1  0
 12 13  1  0
 13 14  1  0
 14 15  2  0
 15 16  1  0
 16 17  2  0
 17 18  1  0
 18 19  2  0
 19 20  1  0
 20 21  2  0
 20 22  1  0
 22 23  1  0
 23 24  1  0
 24 25  1  0
 25 26  2  0
 26 27  1  0
 27 28  2  0
 28 29  1  0
 29 30  2  0
 19 31  1  0
 31 32  2  0
 15 33  1  0
 33 34  2  0
 34 35  1  0
 35 36  2  0
 36 37  1  0
 37 38  2  0
  8  3  1  0
 38 13  1  0
 32 16  1  0
 38 33  1  0
 30 25  1  0
  1 39  1  0
  1 40  1  0
  1 41  1  0
  2 42  1  0
  2 43  1  0
  4 44  1  0
  5 45  1  0
  6 46  1  0
  7 47  1  0
 12 48  1  0
 12 49  1  0
 17 50  1  0
 18 51  1  0
 22 52  1  0
 23 53  1  0
 23 54  1  0
 24 55  1  0
 24 56  1  0
 26 57  1  0
 27 58  1  0
 28 59  1  0
 29 60  1  0
 30 61  1  0
 31 62  1  0
 32 63  1  0
 34 64  1  0
 35 65  1  0
 36 66  1  0
 37 67  1  0
M  CHG  1   9  -1
M  END
>  <UniqueID>  (82) 
78

>  <SMILES>  (82) 
CCc1ccccc1[N-]C(=O)Cn1nc(-c2ccc(C(=O)NCCc3ccccc3)cc2)c2ccccc21

>  <Energy>  (82) 
112.3026559746531

>  <Genealogy>  (82) 
CCc1ccccc1[N-]C(=O)Cn1nc(-c2ccc(C(=O)NCCc3ccccc3)cc2)c2ccccc21 (protonated)
CCc1ccccc1[N-]C(=O)Cn1nc(-c2ccc(C(=O)NCCc3ccccc3)cc2)c2ccccc21 (3D coordinates assigned)
CCc1ccccc1[N-]C(=O)Cn1nc(-c2ccc(C(=O)NCCc3ccccc3)cc2)c2ccccc21 (optimized conformer: 112.3026559746531 kcal/mol)

>  <smiles>  (82) 
CCc1ccccc1NC(=O)Cn1nc(-c2ccc(C(=O)NCCc3ccccc3)cc2)c2ccccc21

>  <score_type>  (82) 
oracle

>  <origin>  (82) 
adg

>  <m_score__min__energy>  (82) 
-11.720000000000001

>  <m_primary>  (82) 
energy

$$$$
82:0
     RDKit          3D

 62 66  0  0  0  0  0  0  0  0999 V2000
   60.8000   26.9660   50.0490 C   0  0  0  0  0  0  0  0  0  0  0  0
   60.8770   27.3150   48.6710 O   0  0  0  0  0  0  0  0  0  0  0  0
   59.7730   27.6470   47.8700 C   0  0  0  0  0  0  0  0  0  0  0  0
   59.1500   26.6990   47.0340 C   0  0  0  0  0  0  0  0  0  0  0  0
   58.0760   27.0680   46.2210 C   0  0  0  0  0  0  0  0  0  0  0  0
   57.6000   28.3910   46.2300 C   0  0  0  0  0  0  0  0  0  0  0  0
   56.5350   28.8160   45.4190 O   0  0  0  0  0  0  0  0  0  0  0  0
   56.6330   29.1180   44.0260 C   0  0  0  0  0  0  0  0  0  0  0  0
   57.1880   30.5030   43.8170 C   0  0  0  0  0  0  0  0  0  0  0  0
   57.2690   31.0510   42.5270 C   0  0  0  0  0  0  0  0  0  0  0  0
   57.7850   32.3360   42.3400 C   0  0  0  0  0  0  0  0  0  0  0  0
   58.2230   33.0850   43.4360 C   0  0  0  0  0  0  0  0  0  0  0  0
   58.1420   32.5540   44.7320 C   0  0  0  0  0  0  0  0  0  0  0  0
   58.6070   33.3160   45.8610 N   0  0  0  0  0  0  0  0  0  0  0  0
   58.5880   32.7040   47.1960 C   0  0  0  0  0  0  0  0  0  0  0  0
   58.9510   33.7260   48.2780 C   0  0  0  0  0  0  0  0  0  0  0  0
   60.1300   34.4170   47.9160 O   0  0  0  0  0  0  0  0  0  0  0  0
   59.8570   35.3030   46.8460 C   0  0  0  0  0  0  0  0  0  0  0  0
   59.2640   34.5840   45.6690 C   0  0  0  0  0  0  0  0  0  0  0  0
   59.2760   35.1370   44.5350 O   0  0  0  0  0  0  0  0  0  0  0  0
   57.6060   31.2690   44.9170 C   0  0  0  0  0  0  0  0  0  0  0  0
   58.2040   29.3270   47.0720 C   0  0  0  0  0  0  0  0  0  0  0  0
   59.2870   28.9670   47.8900 C   0  0  0  0  0  0  0  0  0  0  0  0
   59.9150   29.9930   48.7490 C   0  0  0  0  0  0  0  0  0  0  0  0
   59.5730   30.3230   50.0580 C   0  0  0  0  0  0  0  0  0  0  0  0
   58.4970   29.7040   50.8930 C   0  0  0  0  0  0  0  0  0  0  0  0
   60.3950   31.3030   50.4970 N   0  0  0  0  0  0  0  0  0  0  0  0
   61.2060   31.5630   49.4540 C   0  0  0  0  0  0  0  0  0  0  0  0
   62.2400   32.4960   49.4280 C   0  0  0  0  0  0  0  0  0  0  0  0
   62.9920   32.6130   48.2420 C   0  0  0  0  0  0  0  0  0  0  0  0
   64.1450   33.5700   48.1750 C   0  0  0  0  0  0  0  0  0  0  0  0
   62.7040   31.7730   47.1430 C   0  0  0  0  0  0  0  0  0  0  0  0
   61.6510   30.8500   47.2300 C   0  0  0  0  0  0  0  0  0  0  0  0
   60.9380   30.7920   48.3850 N   0  0  0  0  0  0  0  0  0  0  0  0
   60.9964   27.8564   50.6643 H   0  0  0  0  0  0  0  0  0  0  0  0
   59.7950   26.5795   50.2737 H   0  0  0  0  0  0  0  0  0  0  0  0
   61.5491   26.1925   50.2737 H   0  0  0  0  0  0  0  0  0  0  0  0
   59.5123   25.6605   47.0216 H   0  0  0  0  0  0  0  0  0  0  0  0
   57.6000   26.3197   45.5702 H   0  0  0  0  0  0  0  0  0  0  0  0
   57.2982   28.3863   43.5442 H   0  0  0  0  0  0  0  0  0  0  0  0
   55.6272   29.0705   43.5831 H   0  0  0  0  0  0  0  0  0  0  0  0
   56.9251   30.4669   41.6606 H   0  0  0  0  0  0  0  0  0  0  0  0
   57.8468   32.7597   41.3268 H   0  0  0  0  0  0  0  0  0  0  0  0
   58.6326   34.0942   43.2817 H   0  0  0  0  0  0  0  0  0  0  0  0
   57.5802   32.3114   47.3966 H   0  0  0  0  0  0  0  0  0  0  0  0
   59.3311   31.8933   47.2186 H   0  0  0  0  0  0  0  0  0  0  0  0
   58.1269   34.4459   48.3899 H   0  0  0  0  0  0  0  0  0  0  0  0
   59.1192   33.1997   49.2292 H   0  0  0  0  0  0  0  0  0  0  0  0
   59.1474   36.0699   47.1900 H   0  0  0  0  0  0  0  0  0  0  0  0
   60.8058   35.7594   46.5273 H   0  0  0  0  0  0  0  0  0  0  0  0
   57.5128   30.8588   45.9334 H   0  0  0  0  0  0  0  0  0  0  0  0
   57.8264   30.3599   47.0948 H   0  0  0  0  0  0  0  0  0  0  0  0
   58.7350   29.8409   51.9582 H   0  0  0  0  0  0  0  0  0  0  0  0
   57.5346   30.1865   50.6674 H   0  0  0  0  0  0  0  0  0  0  0  0
   58.4303   28.6295   50.6674 H   0  0  0  0  0  0  0  0  0  0  0  0
   60.4000   31.7570   51.4380 H   0  0  0  0  0  0  0  0  0  0  0  0
   62.4624   33.1214   50.3052 H   0  0  0  0  0  0  0  0  0  0  0  0
   64.4625   33.8335   49.1947 H   0  0  0  0  0  0  0  0  0  0  0  0
   64.9827   33.0981   47.6406 H   0  0  0  0  0  0  0  0  0  0  0  0
   63.8354   34.4803   47.6406 H   0  0  0  0  0  0  0  0  0  0  0  0
   63.3029   31.8424   46.2230 H   0  0  0  0  0  0  0  0  0  0  0  0
   61.4087   30.1898   46.3842 H   0  0  0  0  0  0  0  0  0  0  0  0
  1  2  1  0
  2  3  1  0
  3  4  2  0
  4  5  1  0
  5  6  2  0
  6  7  1  0
  7  8  1  0
  8  9  1  0
  9 10  2  0
 10 11  1  0
 11 12  2  0
 12 13  1  0
 13 14  1  0
 14 15  1  0
 15 16  1  0
 16 17  1  0
 17 18  1  0
 18 19  1  0
 19 20  2  0
 13 21  2  0
  6 22  1  0
 22 23  2  0
 23 24  1  0
 24 25  2  0
 25 26  1  0
 25 27  1  0
 27 28  2  0
 28 29  1  0
 29 30  2  0
 30 31  1  0
 30 32  1  0
 32 33  2  0
 33 34  1  0
 23  3  1  0
 34 24  1  0
 21  9  1  0
 34 28  1  0
 19 14  1  0
  1 35  1  0
  1 36  1  0
  1 37  1  0
  4 38  1  0
  5 39  1  0
  8 40  1  0
  8 41  1  0
 10 42  1  0
 11 43  1  0
 12 44  1  0
 15 45  1  0
 15 46  1  0
 16 47  1  0
 16 48  1  0
 18 49  1  0
 18 50  1  0
 21 51  1  0
 22 52  1  0
 26 53  1  0
 26 54  1  0
 26 55  1  0
 27 56  1  0
 29 57  1  0
 31 58  1  0
 31 59  1  0
 31 60  1  0
 32 61  1  0
 33 62  1  0
M  CHG  1  27   1
M  END
>  <UniqueID>  (83) 
79

>  <SMILES>  (83) 
COc1ccc(OCc2cccc(N3CCOCC3=O)c2)cc1-c1c(C)[nH+]c2cc(C)ccn12

>  <Energy>  (83) 
114.40669727353222

>  <Genealogy>  (83) 
COc1ccc(OCc2cccc(N3CCOCC3=O)c2)cc1-c1c(C)[nH+]c2cc(C)ccn12 (protonated)
COc1ccc(OCc2cccc(N3CCOCC3=O)c2)cc1-c1c(C)[nH+]c2cc(C)ccn12 (3D coordinates assigned)
COc1ccc(OCc2cccc(N3CCOCC3=O)c2)cc1-c1c(C)[nH+]c2cc(C)ccn12 (nonaromatic ring conformer: 114.40669727353222 kcal/mol)

>  <smiles>  (83) 
COc1ccc(OCc2cccc(N3CCOCC3=O)c2)cc1-c1c(C)nc2cc(C)ccn12

>  <score_type>  (83) 
oracle

>  <origin>  (83) 
adg

>  <m_score__min__energy>  (83) 
-7.6500000000000004

>  <m_primary>  (83) 
energy

$$$$
83:0
     RDKit          3D

 48 50  0  0  0  0  0  0  0  0999 V2000
   55.9190   30.1910   43.2220 O   0  0  0  0  0  0  0  0  0  0  0  0
   56.8510   30.1780   44.0710 C   0  0  0  0  0  0  0  0  0  0  0  0
   58.0200   29.2580   43.8810 C   0  0  0  0  0  0  0  0  0  0  0  0
   58.6260   28.8350   45.2260 C   0  0  0  0  0  0  0  0  0  0  0  0
   57.8730   27.6820   45.8430 C   0  0  0  0  0  0  0  0  0  0  0  0
   58.5560   26.7070   46.5880 C   0  0  0  0  0  0  0  0  0  0  0  0
   57.8640   25.6190   47.1290 C   0  0  0  0  0  0  0  0  0  0  0  0
   56.4830   25.4910   46.9290 C   0  0  0  0  0  0  0  0  0  0  0  0
   55.7870   24.4110   47.4710 O   0  0  0  0  0  0  0  0  0  0  0  0
   55.7980   26.4560   46.1790 C   0  0  0  0  0  0  0  0  0  0  0  0
   54.4270   26.3380   45.9770 O   0  0  0  0  0  0  0  0  0  0  0  0
   56.4910   27.5450   45.6340 C   0  0  0  0  0  0  0  0  0  0  0  0
   56.8090   31.0340   45.2200 N   0  0  0  0  0  0  0  0  0  0  0  0
   57.6230   32.1940   45.4380 C   0  0  0  0  0  0  0  0  0  0  0  0
   57.5780   33.3050   44.5800 C   0  0  0  0  0  0  0  0  0  0  0  0
   58.3690   34.4260   44.8430 C   0  0  0  0  0  0  0  0  0  0  0  0
   59.2060   34.4550   45.9610 C   0  0  0  0  0  0  0  0  0  0  0  0
   59.9840   35.5850   46.1920 O   0  0  0  0  0  0  0  0  0  0  0  0
   59.2480   33.3520   46.8370 C   0  0  0  0  0  0  0  0  0  0  0  0
   60.2820   33.3240   48.2720 S   0  0  0  0  0  0  0  0  0  0  0  0
   60.5990   31.8880   48.5870 O   0  0  0  0  0  0  0  0  0  0  0  0
   59.5810   33.9330   49.4550 O   0  0  0  0  0  0  0  0  0  0  0  0
   61.7670   34.1940   47.9450 N   0  0  0  0  0  0  0  0  0  0  0  0
   62.6540   34.2220   49.1240 C   0  0  0  0  0  0  0  0  0  0  0  0
   63.3690   32.8680   49.3580 C   0  0  0  0  0  0  0  0  0  0  0  0
   63.3720   32.0200   48.2210 O   0  0  0  0  0  0  0  0  0  0  0  0
   63.6420   32.7700   47.0580 C   0  0  0  0  0  0  0  0  0  0  0  0
   62.4510   33.6880   46.7330 C   0  0  0  0  0  0  0  0  0  0  0  0
   58.4420   32.2360   46.5730 C   0  0  0  0  0  0  0  0  0  0  0  0
   57.6843   28.3599   43.3417 H   0  0  0  0  0  0  0  0  0  0  0  0
   58.7912   29.7931   43.3075 H   0  0  0  0  0  0  0  0  0  0  0  0
   59.6714   28.5324   45.0659 H   0  0  0  0  0  0  0  0  0  0  0  0
   58.5627   29.6913   45.9136 H   0  0  0  0  0  0  0  0  0  0  0  0
   59.6405   26.7996   46.7467 H   0  0  0  0  0  0  0  0  0  0  0  0
   58.4057   24.8609   47.7137 H   0  0  0  0  0  0  0  0  0  0  0  0
   54.7770   24.4200   47.5560 H   0  0  0  0  0  0  0  0  0  0  0  0
   55.9501   28.2961   45.0397 H   0  0  0  0  0  0  0  0  0  0  0  0
   56.9188   33.2924   43.6995 H   0  0  0  0  0  0  0  0  0  0  0  0
   58.3325   35.2916   44.1652 H   0  0  0  0  0  0  0  0  0  0  0  0
   63.4150   35.0021   48.9749 H   0  0  0  0  0  0  0  0  0  0  0  0
   62.0315   34.4293   50.0069 H   0  0  0  0  0  0  0  0  0  0  0  0
   64.4120   33.0708   49.6425 H   0  0  0  0  0  0  0  0  0  0  0  0
   62.8124   32.3433   50.1485 H   0  0  0  0  0  0  0  0  0  0  0  0
   64.5404   33.3834   47.2210 H   0  0  0  0  0  0  0  0  0  0  0  0
   63.8066   32.0818   46.2158 H   0  0  0  0  0  0  0  0  0  0  0  0
   62.8181   34.5472   46.1524 H   0  0  0  0  0  0  0  0  0  0  0  0
   61.7204   33.0930   46.1653 H   0  0  0  0  0  0  0  0  0  0  0  0
   58.4530   31.3822   47.2664 H   0  0  0  0  0  0  0  0  0  0  0  0
  1  2  2  0
  2  3  1  0
  3  4  1  0
  4  5  1  0
  5  6  2  0
  6  7  1  0
  7  8  2  0
  8  9  1  0
  8 10  1  0
 10 11  1  0
 10 12  2  0
  2 13  1  0
 13 14  1  0
 14 15  2  0
 15 16  1  0
 16 17  2  0
 17 18  1  0
 17 19  1  0
 19 20  1  0
 20 21  2  0
 20 22  2  0
 20 23  1  0
 23 24  1  0
 24 25  1  0
 25 26  1  0
 26 27  1  0
 27 28  1  0
 19 29  2  0
 12  5  1  0
 29 14  1  0
 28 23  1  0
  3 30  1  0
  3 31  1  0
  4 32  1  0
  4 33  1  0
  6 34  1  0
  7 35  1  0
  9 36  1  0
 12 37  1  0
 15 38  1  0
 16 39  1  0
 24 40  1  0
 24 41  1  0
 25 42  1  0
 25 43  1  0
 27 44  1  0
 27 45  1  0
 28 46  1  0
 28 47  1  0
 29 48  1  0
M  CHG  3  11  -1  13  -1  18  -1
M  END
>  <UniqueID>  (84) 
80

>  <SMILES>  (84) 
O=C(CCc1ccc(O)c([O-])c1)[N-]c1ccc([O-])c(S(=O)(=O)N2CCOCC2)c1

>  <Energy>  (84) 
60.186081569837825

>  <Genealogy>  (84) 
O=C(CCc1ccc(O)c([O-])c1)[N-]c1ccc([O-])c(S(=O)(=O)N2CCOCC2)c1 (protonated)
O=C(CCc1ccc(O)c([O-])c1)[N-]c1ccc([O-])c(S(=O)(=O)N2CCOCC2)c1 (3D coordinates assigned)
O=C(CCc1ccc(O)c([O-])c1)[N-]c1ccc([O-])c(S(=O)(=O)N2CCOCC2)c1 (nonaromatic ring conformer: 60.186081569837825 kcal/mol)

>  <smiles>  (84) 
O=C(CCc1ccc(O)c(O)c1)Nc1ccc(O)c(S(=O)(=O)N2CCOCC2)c1

>  <score_type>  (84) 
oracle

>  <origin>  (84) 
adg

>  <m_score__min__energy>  (84) 
-15.130000000000001

>  <m_primary>  (84) 
energy

$$$$
84:0
     RDKit          3D

 65 69  0  0  0  0  0  0  0  0999 V2000
   54.6820   28.9630   53.4350 C   0  0  0  0  0  0  0  0  0  0  0  0
   55.7400   29.8390   52.8560 C   0  0  0  0  0  0  0  0  0  0  0  0
   55.8970   31.1850   53.1160 C   0  0  0  0  0  0  0  0  0  0  0  0
   56.9930   31.5500   52.3610 C   0  0  0  0  0  0  0  0  0  0  0  0
   57.5400   32.9410   52.2600 C   0  0  0  0  0  0  0  0  0  0  0  0
   57.4510   30.4570   51.6990 N   0  0  0  0  0  0  0  0  0  0  0  0
   58.5480   30.3730   50.7750 C   0  0  0  0  0  0  0  0  0  0  0  0
   58.5270   29.4850   49.7520 N   0  0  0  0  0  0  0  0  0  0  0  0
   59.5870   29.3650   48.9130 C   0  0  0  0  0  0  0  0  0  0  0  0
   59.5560   28.3810   47.8600 N   0  0  0  0  0  0  0  0  0  0  0  0
   60.3630   27.1550   47.9800 C   0  0  0  0  0  0  0  0  0  0  0  0
   60.3600   26.3510   46.6740 C   0  0  0  0  0  0  0  0  0  0  0  0
   58.9230   26.1300   46.1820 C   0  0  0  0  0  0  0  0  0  0  0  0
   58.0840   27.4320   46.1290 C   0  0  0  0  0  0  0  0  0  0  0  0
   58.8540   28.6720   46.6020 C   0  0  0  0  0  0  0  0  0  0  0  0
   60.6880   30.1440   49.1070 N   0  0  0  0  0  0  0  0  0  0  0  0
   60.7160   31.0570   50.1210 C   0  0  0  0  0  0  0  0  0  0  0  0
   61.8960   31.8490   50.3870 N   0  0  0  0  0  0  0  0  0  0  0  0
   63.2140   31.3600   49.9600 C   0  0  0  0  0  0  0  0  0  0  0  0
   64.1280   32.5260   49.5270 C   0  0  0  0  0  0  0  0  0  0  0  0
   63.3870   33.6640   48.9360 N   0  0  0  0  0  0  0  0  0  0  0  0
   63.0540   33.4570   47.2250 S   0  0  0  0  0  0  0  0  0  0  0  0
   63.7020   32.1820   46.7580 O   0  0  0  0  0  0  0  0  0  0  0  0
   63.6760   34.5920   46.4570 O   0  0  0  0  0  0  0  0  0  0  0  0
   61.3250   33.3860   46.8510 C   0  0  0  0  0  0  0  0  0  0  0  0
   60.5890   34.5780   46.7600 C   0  0  0  0  0  0  0  0  0  0  0  0
   59.2230   34.5460   46.4560 C   0  0  0  0  0  0  0  0  0  0  0  0
   58.5740   33.3230   46.2750 C   0  0  0  0  0  0  0  0  0  0  0  0
   59.2890   32.1300   46.4050 C   0  0  0  0  0  0  0  0  0  0  0  0
   60.6600   32.1540   46.6920 C   0  0  0  0  0  0  0  0  0  0  0  0
   61.3260   30.9800   46.8160 F   0  0  0  0  0  0  0  0  0  0  0  0
   62.2160   34.1540   49.7090 C   0  0  0  0  0  0  0  0  0  0  0  0
   61.8350   33.2290   50.8670 C   0  0  0  0  0  0  0  0  0  0  0  0
   59.6430   31.1590   50.9510 N   0  0  0  0  0  0  0  0  0  0  0  0
   56.6900   29.4150   52.0000 N   0  0  0  0  0  0  0  0  0  0  0  0
   54.7320   29.0044   54.5331 H   0  0  0  0  0  0  0  0  0  0  0  0
   53.6938   29.3109   53.0996 H   0  0  0  0  0  0  0  0  0  0  0  0
   54.8394   27.9273   53.0996 H   0  0  0  0  0  0  0  0  0  0  0  0
   55.2878   31.8216   53.7745 H   0  0  0  0  0  0  0  0  0  0  0  0
   57.6995   33.3465   53.2700 H   0  0  0  0  0  0  0  0  0  0  0  0
   58.4969   32.9202   51.7179 H   0  0  0  0  0  0  0  0  0  0  0  0
   56.8252   33.5776   51.7179 H   0  0  0  0  0  0  0  0  0  0  0  0
   61.3986   27.4314   48.2274 H   0  0  0  0  0  0  0  0  0  0  0  0
   59.9252   26.5294   48.7718 H   0  0  0  0  0  0  0  0  0  0  0  0
   60.9241   26.9030   45.9078 H   0  0  0  0  0  0  0  0  0  0  0  0
   60.8276   25.3724   46.8576 H   0  0  0  0  0  0  0  0  0  0  0  0
   58.9630   25.6994   45.1706 H   0  0  0  0  0  0  0  0  0  0  0  0
   58.4333   25.4569   46.9011 H   0  0  0  0  0  0  0  0  0  0  0  0
   57.7613   27.5970   45.0904 H   0  0  0  0  0  0  0  0  0  0  0  0
   57.2325   27.2980   46.8123 H   0  0  0  0  0  0  0  0  0  0  0  0
   59.5873   28.9597   45.8342 H   0  0  0  0  0  0  0  0  0  0  0  0
   58.1436   29.4953   46.7682 H   0  0  0  0  0  0  0  0  0  0  0  0
   61.5330   29.9740   48.5220 H   0  0  0  0  0  0  0  0  0  0  0  0
   63.6868   30.8251   50.7969 H   0  0  0  0  0  0  0  0  0  0  0  0
   63.0747   30.6884   49.1000 H   0  0  0  0  0  0  0  0  0  0  0  0
   64.6753   32.8869   50.4103 H   0  0  0  0  0  0  0  0  0  0  0  0
   64.8034   32.1387   48.7499 H   0  0  0  0  0  0  0  0  0  0  0  0
   61.0889   35.5432   46.9286 H   0  0  0  0  0  0  0  0  0  0  0  0
   58.6598   35.4860   46.3595 H   0  0  0  0  0  0  0  0  0  0  0  0
   57.5018   33.2990   46.0305 H   0  0  0  0  0  0  0  0  0  0  0  0
   58.7728   31.1666   46.2813 H   0  0  0  0  0  0  0  0  0  0  0  0
   62.4561   35.1467   50.1176 H   0  0  0  0  0  0  0  0  0  0  0  0
   61.3588   34.1899   49.0206 H   0  0  0  0  0  0  0  0  0  0  0  0
   62.5402   33.3652   51.7002 H   0  0  0  0  0  0  0  0  0  0  0  0
   60.8211   33.4634   51.2234 H   0  0  0  0  0  0  0  0  0  0  0  0
  1  2  1  0
  2  3  1  0
  3  4  2  0
  4  5  1  0
  4  6  1  0
  6  7  1  0
  7  8  2  0
  8  9  1  0
  9 10  1  0
 10 11  1  0
 11 12  1  0
 12 13  1  0
 13 14  1  0
 14 15  1  0
  9 16  2  0
 16 17  1  0
 17 18  1  0
 18 19  1  0
 19 20  1  0
 20 21  1  0
 21 22  1  0
 22 23  2  0
 22 24  2  0
 22 25  1  0
 25 26  2  0
 26 27  1  0
 27 28  2  0
 28 29  1  0
 29 30  2  0
 30 31  1  0
 21 32  1  0
 32 33  1  0
 17 34  2  0
  6 35  1  0
 35  2  2  0
 34  7  1  0
 15 10  1  0
 33 18  1  0
 30 25  1  0
  1 36  1  0
  1 37  1  0
  1 38  1  0
  3 39  1  0
  5 40  1  0
  5 41  1  0
  5 42  1  0
 11 43  1  0
 11 44  1  0
 12 45  1  0
 12 46  1  0
 13 47  1  0
 13 48  1  0
 14 49  1  0
 14 50  1  0
 15 51  1  0
 15 52  1  0
 16 53  1  0
 19 54  1  0
 19 55  1  0
 20 56  1  0
 20 57  1  0
 26 58  1  0
 27 59  1  0
 28 60  1  0
 29 61  1  0
 32 62  1  0
 32 63  1  0
 33 64  1  0
 33 65  1  0
M  CHG  1  16   1
M  END
>  <UniqueID>  (85) 
81

>  <SMILES>  (85) 
Cc1cc(C)n(-c2nc(N3CCCCC3)[nH+]c(N3CCN(S(=O)(=O)c4ccccc4F)CC3)n2)n1

>  <Energy>  (85) 
107.76143090832062

>  <Genealogy>  (85) 
Cc1cc(C)n(-c2nc(N3CCCCC3)[nH+]c(N3CCN(S(=O)(=O)c4ccccc4F)CC3)n2)n1 (protonated)
Cc1cc(C)n(-c2nc(N3CCCCC3)[nH+]c(N3CCN(S(=O)(=O)c4ccccc4F)CC3)n2)n1 (3D coordinates assigned)
Cc1cc(C)n(-c2nc(N3CCCCC3)[nH+]c(N3CCN(S(=O)(=O)c4ccccc4F)CC3)n2)n1 (nonaromatic ring conformer: 107.76143090832062 kcal/mol)

>  <smiles>  (85) 
Cc1cc(C)n(-c2nc(N3CCCCC3)nc(N3CCN(S(=O)(=O)c4ccccc4F)CC3)n2)n1

>  <score_type>  (85) 
oracle

>  <origin>  (85) 
adg

>  <m_score__min__energy>  (85) 
-9.5199999999999996

>  <m_primary>  (85) 
energy

$$$$
85:0
     RDKit          3D

 32 34  0  0  0  0  0  0  0  0999 V2000
   58.7960   24.8920   45.6240 C   0  0  0  0  0  0  0  0  0  0  0  0
   57.3710   25.1520   45.7960 N   0  0  0  0  0  0  0  0  0  0  0  0
   56.3730   24.2770   45.5950 C   0  0  0  0  0  0  0  0  0  0  0  0
   55.1800   24.9540   45.7300 C   0  0  0  0  0  0  0  0  0  0  0  0
   55.4230   26.2540   45.9980 N   0  0  0  0  0  0  0  0  0  0  0  0
   56.7700   26.3360   46.0280 C   0  0  0  0  0  0  0  0  0  0  0  0
   57.6460   27.8700   46.3610 S   0  0  0  0  0  0  0  0  0  0  0  0
   57.4850   28.5010   44.6550 C   0  0  0  0  0  0  0  0  0  0  0  0
   56.6580   29.7550   44.6220 C   0  0  0  0  0  0  0  0  0  0  0  0
   55.4210   29.6700   44.8500 O   0  0  0  0  0  0  0  0  0  0  0  0
   57.2200   31.0550   44.2040 C   0  0  0  0  0  0  0  0  0  0  0  0
   57.3740   31.4680   42.8830 C   0  0  0  0  0  0  0  0  0  0  0  0
   57.9900   32.6690   42.8290 N   0  0  0  0  0  0  0  0  0  0  0  0
   58.2090   33.0320   44.1030 C   0  0  0  0  0  0  0  0  0  0  0  0
   58.7940   34.2170   44.5470 C   0  0  0  0  0  0  0  0  0  0  0  0
   58.8800   34.4300   45.9320 C   0  0  0  0  0  0  0  0  0  0  0  0
   58.3680   33.4750   46.8350 C   0  0  0  0  0  0  0  0  0  0  0  0
   57.7800   32.2890   46.3610 C   0  0  0  0  0  0  0  0  0  0  0  0
   57.7420   32.0810   44.9780 C   0  0  0  0  0  0  0  0  0  0  0  0
   59.2745   24.8047   46.6106 H   0  0  0  0  0  0  0  0  0  0  0  0
   58.9328   23.9541   45.0658 H   0  0  0  0  0  0  0  0  0  0  0  0
   59.2553   25.7212   45.0658 H   0  0  0  0  0  0  0  0  0  0  0  0
   56.4872   23.2078   45.3633 H   0  0  0  0  0  0  0  0  0  0  0  0
   54.1813   24.5030   45.6339 H   0  0  0  0  0  0  0  0  0  0  0  0
   58.4865   28.7197   44.2561 H   0  0  0  0  0  0  0  0  0  0  0  0
   56.9860   27.7352   44.0431 H   0  0  0  0  0  0  0  0  0  0  0  0
   57.0402   30.8955   42.0050 H   0  0  0  0  0  0  0  0  0  0  0  0
   58.2370   33.2050   41.9680 H   0  0  0  0  0  0  0  0  0  0  0  0
   59.1765   34.9622   43.8340 H   0  0  0  0  0  0  0  0  0  0  0  0
   59.3498   35.3477   46.3155 H   0  0  0  0  0  0  0  0  0  0  0  0
   58.4292   33.6594   47.9177 H   0  0  0  0  0  0  0  0  0  0  0  0
   57.3622   31.5466   47.0570 H   0  0  0  0  0  0  0  0  0  0  0  0
  1  2  1  0
  2  3  1  0
  3  4  2  0
  4  5  1  0
  5  6  2  0
  6  7  1  0
  7  8  1  0
  8  9  1  0
  9 10  2  0
  9 11  1  0
 11 12  2  0
 12 13  1  0
 13 14  1  0
 14 15  2  0
 15 16  1  0
 16 17  2  0
 17 18  1  0
 18 19  2  0
  6  2  1  0
 19 11  1  0
 19 14  1  0
  1 20  1  0
  1 21  1  0
  1 22  1  0
  3 23  1  0
  4 24  1  0
  8 25  1  0
  8 26  1  0
 12 27  1  0
 13 28  1  0
 15 29  1  0
 16 30  1  0
 17 31  1  0
 18 32  1  0
M  END
>  <UniqueID>  (86) 
82

>  <SMILES>  (86) 
Cn1ccnc1SCC(=O)c1c[nH]c2ccccc12

>  <Energy>  (86) 
93.38223100867565

>  <Genealogy>  (86) 
Cn1ccnc1SCC(=O)c1c[nH]c2ccccc12 (3D coordinates assigned)
Cn1ccnc1SCC(=O)c1c[nH]c2ccccc12 (optimized conformer: 93.38223100867565 kcal/mol)

>  <smiles>  (86) 
Cn1ccnc1SCC(=O)c1c[nH]c2ccccc12

>  <score_type>  (86) 
oracle

>  <origin>  (86) 
adg

>  <m_score__min__energy>  (86) 
-7.4500000000000002

>  <m_primary>  (86) 
energy

$$$$
86:0
     RDKit          3D

 39 41  0  0  0  0  0  0  0  0999 V2000
   54.7610   27.0900   45.9560 H   0  0  0  0  0  0  0  0  0  0  0  0
   54.6740   26.0810   45.9000 O   0  0  0  0  0  0  0  0  0  0  0  0
   55.7370   25.2770   45.4900 C   0  0  0  0  0  0  0  0  0  0  0  0
   55.4970   24.1590   44.6770 C   0  0  0  0  0  0  0  0  0  0  0  0
   54.4697   23.9190   44.3656 H   0  0  0  0  0  0  0  0  0  0  0  0
   56.5570   23.3490   44.2610 C   0  0  0  0  0  0  0  0  0  0  0  0
   56.3624   22.4683   43.6313 H   0  0  0  0  0  0  0  0  0  0  0  0
   57.8630   23.6580   44.6450 C   0  0  0  0  0  0  0  0  0  0  0  0
   58.6974   23.0233   44.3120 H   0  0  0  0  0  0  0  0  0  0  0  0
   58.1130   24.7710   45.4510 C   0  0  0  0  0  0  0  0  0  0  0  0
   59.1460   25.0178   45.7375 H   0  0  0  0  0  0  0  0  0  0  0  0
   57.0500   25.5790   45.8990 C   0  0  0  0  0  0  0  0  0  0  0  0
   57.3010   26.7770   46.7350 C   0  0  0  0  0  0  0  0  0  0  0  0
   56.7346   26.8689   47.6735 H   0  0  0  0  0  0  0  0  0  0  0  0
   58.1660   27.7580   46.4350 C   0  0  0  0  0  0  0  0  0  0  0  0
   59.2367   27.5576   46.5879 H   0  0  0  0  0  0  0  0  0  0  0  0
   57.7850   29.0910   45.9130 C   0  0  0  0  0  0  0  0  0  0  0  0
   56.5300   29.3190   45.3330 C   0  0  0  0  0  0  0  0  0  0  0  0
   55.6000   28.2930   45.2160 O   0  0  0  0  0  0  0  0  0  0  0  0
   56.2220   30.5480   44.8590 N   0  0  0  0  0  0  0  0  0  0  0  0
   57.1050   31.5750   44.9110 C   0  0  0  0  0  0  0  0  0  0  0  0
   56.7570   32.6980   44.4570 O   0  0  0  0  0  0  0  0  0  0  0  0
   58.3560   31.3890   45.4470 N   0  0  0  0  0  0  0  0  0  0  0  0
   59.3350   32.4940   45.4610 C   0  0  0  0  0  0  0  0  0  0  0  0
   60.2091   32.2107   44.8563 H   0  0  0  0  0  0  0  0  0  0  0  0
   58.8606   33.3945   45.0438 H   0  0  0  0  0  0  0  0  0  0  0  0
   59.7810   32.7870   46.8700 C   0  0  0  0  0  0  0  0  0  0  0  0
   58.9260   33.4580   47.7600 C   0  0  0  0  0  0  0  0  0  0  0  0
   57.9163   33.7488   47.4346 H   0  0  0  0  0  0  0  0  0  0  0  0
   59.3520   33.7580   49.0570 C   0  0  0  0  0  0  0  0  0  0  0  0
   58.6760   34.2809   49.7495 H   0  0  0  0  0  0  0  0  0  0  0  0
   60.6350   33.3950   49.4760 C   0  0  0  0  0  0  0  0  0  0  0  0
   60.9685   33.6323   50.4970 H   0  0  0  0  0  0  0  0  0  0  0  0
   61.4940   32.7300   48.5960 C   0  0  0  0  0  0  0  0  0  0  0  0
   62.7390   32.3780   49.0020 F   0  0  0  0  0  0  0  0  0  0  0  0
   61.0710   32.4280   47.2980 C   0  0  0  0  0  0  0  0  0  0  0  0
   61.7511   31.9068   46.6082 H   0  0  0  0  0  0  0  0  0  0  0  0
   58.7050   30.1530   45.9350 C   0  0  0  0  0  0  0  0  0  0  0  0
   59.8530   29.9620   46.4260 O   0  0  0  0  0  0  0  0  0  0  0  0
  1  2  1  0
  2  3  1  0
  3  4  2  0
  4  5  1  0
  4  6  1  0
  6  7  1  0
  6  8  2  0
  8  9  1  0
  8 10  1  0
 10 11  1  0
 10 12  2  0
 12 13  1  0
 13 14  1  0
 13 15  2  0
 15 16  1  0
 15 17  1  0
 17 18  2  0
 18 19  1  0
 18 20  1  0
 20 21  1  0
 21 22  2  0
 21 23  1  0
 23 24  1  0
 24 25  1  0
 24 26  1  0
 24 27  1  0
 27 28  2  0
 28 29  1  0
 28 30  1  0
 30 31  1  0
 30 32  2  0
 32 33  1  0
 32 34  1  0
 34 35  1  0
 34 36  2  0
 36 37  1  0
 23 38  1  0
 38 39  2  0
 12  3  1  0
 38 17  1  0
 36 27  1  0
M  CHG  2  19  -1  20  -1
M  END
>  <UniqueID>  (87) 
83

>  <SMILES>  (87) 
O=c1[n-]c([O-])c(/C=C\c2ccccc2O)c(=O)n1Cc1cccc(F)c1

>  <Energy>  (87) 
57.96766278930493

>  <Genealogy>  (87) 
O=c1[n-]c([O-])c(C=Cc2ccccc2O)c(=O)n1Cc1cccc(F)c1 (protonated)
O=c1[n-]c([O-])c(/C=C\c2ccccc2O)c(=O)n1Cc1cccc(F)c1 (cis-trans isomerization)
O=c1[n-]c([O-])c(/C=C\c2ccccc2O)c(=O)n1Cc1cccc(F)c1 (3D coordinates assigned)
O=c1[n-]c([O-])c(/C=C\c2ccccc2O)c(=O)n1Cc1cccc(F)c1 (optimized conformer: 57.96766278930493 kcal/mol)

>  <smiles>  (87) 
O=c1[nH]c(O)c(C=Cc2ccccc2O)c(=O)n1Cc1cccc(F)c1

>  <score_type>  (87) 
oracle

>  <origin>  (87) 
adg

>  <m_score__min__energy>  (87) 
-13.640000000000001

>  <m_primary>  (87) 
energy

$$$$
87:0
     RDKit          3D

 67 70  0  0  0  0  0  0  0  0999 V2000
   68.4800   27.4320   49.7540 C   0  0  0  0  0  0  0  0  0  0  0  0
   67.2310   26.6750   50.1590 C   0  0  0  0  0  0  0  0  0  0  0  0
   66.5060   27.4590   51.2620 C   0  0  0  0  0  0  0  0  0  0  0  0
   67.2410   28.7640   51.4130 C   0  0  0  0  0  0  0  0  0  0  0  0
   66.3360   29.9300   51.2480 C   0  0  0  0  0  0  0  0  0  0  0  0
   65.1430   30.0290   51.9070 N   0  0  0  0  0  0  0  0  0  0  0  0
   64.5670   31.1960   51.5440 C   0  0  0  0  0  0  0  0  0  0  0  0
   63.2750   31.6650   52.0500 C   0  0  0  0  0  0  0  0  0  0  0  0
   62.1310   31.2950   51.1370 C   0  0  0  0  0  0  0  0  0  0  0  0
   62.0800   29.8490   50.7680 C   0  0  0  0  0  0  0  0  0  0  0  0
   61.1300   29.7340   49.5770 C   0  0  0  0  0  0  0  0  0  0  0  0
   65.3890   31.8090   50.6740 N   0  0  0  0  0  0  0  0  0  0  0  0
   65.2460   33.0650   49.9830 C   0  0  0  0  0  0  0  0  0  0  0  0
   63.9370   33.2580   49.3280 C   0  0  0  0  0  0  0  0  0  0  0  0
   63.6240   32.3930   48.2850 C   0  0  0  0  0  0  0  0  0  0  0  0
   62.4200   32.5040   47.6100 C   0  0  0  0  0  0  0  0  0  0  0  0
   61.4920   33.4690   47.9430 C   0  0  0  0  0  0  0  0  0  0  0  0
   60.2150   33.6310   47.2580 C   0  0  0  0  0  0  0  0  0  0  0  0
   60.3080   34.0970   45.9360 C   0  0  0  0  0  0  0  0  0  0  0  0
   59.1900   34.2800   45.1730 C   0  0  0  0  0  0  0  0  0  0  0  0
   57.9660   33.9940   45.7340 C   0  0  0  0  0  0  0  0  0  0  0  0
   57.8790   33.5290   47.0520 C   0  0  0  0  0  0  0  0  0  0  0  0
   58.9970   33.3400   47.8360 C   0  0  0  0  0  0  0  0  0  0  0  0
   58.9080   32.8740   49.2220 C   0  0  0  0  0  0  0  0  0  0  0  0
   59.3250   33.6080   50.2340 N   0  0  0  0  0  0  0  0  0  0  0  0
   59.2230   33.1670   51.4910 C   0  0  0  0  0  0  0  0  0  0  0  0
   59.6420   33.9220   52.4110 O   0  0  0  0  0  0  0  0  0  0  0  0
   58.6970   31.9650   51.7980 N   0  0  0  0  0  0  0  0  0  0  0  0
   58.5860   31.4840   53.1670 C   0  0  0  0  0  0  0  0  0  0  0  0
   58.2710   31.2100   50.7850 C   0  0  0  0  0  0  0  0  0  0  0  0
   57.7680   30.0680   51.0370 O   0  0  0  0  0  0  0  0  0  0  0  0
   58.3740   31.6620   49.5030 N   0  0  0  0  0  0  0  0  0  0  0  0
   61.8060   34.3280   48.9810 C   0  0  0  0  0  0  0  0  0  0  0  0
   63.0200   34.2220   49.6680 C   0  0  0  0  0  0  0  0  0  0  0  0
   66.4720   31.0320   50.4930 N   0  0  0  0  0  0  0  0  0  0  0  0
   69.0192   27.7588   50.6554 H   0  0  0  0  0  0  0  0  0  0  0  0
   69.1292   26.7752   49.1563 H   0  0  0  0  0  0  0  0  0  0  0  0
   68.1981   28.3114   49.1563 H   0  0  0  0  0  0  0  0  0  0  0  0
   66.5679   26.5650   49.2882 H   0  0  0  0  0  0  0  0  0  0  0  0
   67.5060   25.6774   50.5321 H   0  0  0  0  0  0  0  0  0  0  0  0
   65.4607   27.6429   50.9730 H   0  0  0  0  0  0  0  0  0  0  0  0
   66.4950   26.8971   52.2076 H   0  0  0  0  0  0  0  0  0  0  0  0
   67.6936   28.8037   52.4148 H   0  0  0  0  0  0  0  0  0  0  0  0
   68.0106   28.8153   50.6287 H   0  0  0  0  0  0  0  0  0  0  0  0
   63.0982   31.2151   53.0381 H   0  0  0  0  0  0  0  0  0  0  0  0
   63.3160   32.7627   52.1085 H   0  0  0  0  0  0  0  0  0  0  0  0
   61.1893   31.5546   51.6427 H   0  0  0  0  0  0  0  0  0  0  0  0
   62.2827   31.8529   50.2012 H   0  0  0  0  0  0  0  0  0  0  0  0
   63.0828   29.4932   50.4890 H   0  0  0  0  0  0  0  0  0  0  0  0
   61.7318   29.2367   51.6129 H   0  0  0  0  0  0  0  0  0  0  0  0
   60.0994   29.6092   49.9407 H   0  0  0  0  0  0  0  0  0  0  0  0
   61.1954   30.6466   48.9664 H   0  0  0  0  0  0  0  0  0  0  0  0
   61.4112   28.8633   48.9664 H   0  0  0  0  0  0  0  0  0  0  0  0
   65.3883   33.8763   50.7120 H   0  0  0  0  0  0  0  0  0  0  0  0
   66.0001   33.0690   49.1822 H   0  0  0  0  0  0  0  0  0  0  0  0
   64.3411   31.6117   47.9929 H   0  0  0  0  0  0  0  0  0  0  0  0
   62.1983   31.8063   46.7890 H   0  0  0  0  0  0  0  0  0  0  0  0
   61.2971   34.3181   45.5085 H   0  0  0  0  0  0  0  0  0  0  0  0
   59.2657   34.6459   44.1384 H   0  0  0  0  0  0  0  0  0  0  0  0
   57.0490   34.1318   45.1423 H   0  0  0  0  0  0  0  0  0  0  0  0
   56.8879   33.3077   47.4748 H   0  0  0  0  0  0  0  0  0  0  0  0
   58.7774   32.3134   53.8637 H   0  0  0  0  0  0  0  0  0  0  0  0
   57.5732   31.0895   53.3360 H   0  0  0  0  0  0  0  0  0  0  0  0
   59.3235   30.6855   53.3360 H   0  0  0  0  0  0  0  0  0  0  0  0
   58.0170   31.0060   48.7800 H   0  0  0  0  0  0  0  0  0  0  0  0
   61.0878   35.1088   49.2715 H   0  0  0  0  0  0  0  0  0  0  0  0
   63.2425   34.9186   50.4897 H   0  0  0  0  0  0  0  0  0  0  0  0
  1  2  1  0
  2  3  1  0
  3  4  1  0
  4  5  1  0
  5  6  1  0
  6  7  2  0
  7  8  1  0
  8  9  1  0
  9 10  1  0
 10 11  1  0
  7 12  1  0
 12 13  1  0
 13 14  1  0
 14 15  2  0
 15 16  1  0
 16 17  2  0
 17 18  1  0
 18 19  2  0
 19 20  1  0
 20 21  2  0
 21 22  1  0
 22 23  2  0
 23 24  1  0
 24 25  2  0
 25 26  1  0
 26 27  2  0
 26 28  1  0
 28 29  1  0
 28 30  1  0
 30 31  2  0
 30 32  1  0
 17 33  1  0
 33 34  2  0
 12 35  1  0
 35  5  2  0
 34 14  1  0
 23 18  1  0
 32 24  1  0
  1 36  1  0
  1 37  1  0
  1 38  1  0
  2 39  1  0
  2 40  1  0
  3 41  1  0
  3 42  1  0
  4 43  1  0
  4 44  1  0
  8 45  1  0
  8 46  1  0
  9 47  1  0
  9 48  1  0
 10 49  1  0
 10 50  1  0
 11 51  1  0
 11 52  1  0
 11 53  1  0
 13 54  1  0
 13 55  1  0
 15 56  1  0
 16 57  1  0
 19 58  1  0
 20 59  1  0
 21 60  1  0
 22 61  1  0
 29 62  1  0
 29 63  1  0
 29 64  1  0
 32 65  1  0
 33 66  1  0
 34 67  1  0
M  END
>  <smiles>  (88) 
CCCCc1nc(CCCC)n(Cc2ccc(-c3ccccc3-c3nc(=O)n(C)c(=O)[nH]3)cc2)n1

>  <score_type>  (88) 
oracle

>  <origin>  (88) 
adg

>  <m_score__min__energy>  (88) 
-9.0500000000000007

>  <m_primary>  (88) 
energy

$$$$
88:0
     RDKit          3D

 56 58  0  0  0  0  0  0  0  0999 V2000
   52.7470   22.9490   45.7370 C   0  0  0  0  0  0  0  0  0  0  0  0
   53.8400   22.8700   44.8250 O   0  0  0  0  0  0  0  0  0  0  0  0
   54.9610   23.7150   44.8500 C   0  0  0  0  0  0  0  0  0  0  0  0
   55.0360   24.8350   45.7030 C   0  0  0  0  0  0  0  0  0  0  0  0
   56.1760   25.6410   45.7140 C   0  0  0  0  0  0  0  0  0  0  0  0
   57.2600   25.3460   44.8760 C   0  0  0  0  0  0  0  0  0  0  0  0
   58.4830   26.2300   44.8750 C   0  0  0  0  0  0  0  0  0  0  0  0
   59.0450   26.4060   46.2890 C   0  0  0  0  0  0  0  0  0  0  0  0
   58.7060   27.7260   46.8220 N   0  0  0  0  0  0  0  0  0  0  0  0
   59.2880   28.2360   48.0330 C   0  0  0  0  0  0  0  0  0  0  0  0
   59.9520   27.4640   48.7770 O   0  0  0  0  0  0  0  0  0  0  0  0
   59.1120   29.6550   48.4280 C   0  0  0  0  0  0  0  0  0  0  0  0
   58.9050   30.0120   49.7740 C   0  0  0  0  0  0  0  0  0  0  0  0
   58.7190   31.3500   50.1290 C   0  0  0  0  0  0  0  0  0  0  0  0
   58.7230   32.3460   49.1490 C   0  0  0  0  0  0  0  0  0  0  0  0
   58.9140   32.0070   47.8040 C   0  0  0  0  0  0  0  0  0  0  0  0
   58.8210   33.2590   46.5650 S   0  0  0  0  0  0  0  0  0  0  0  0
   60.0000   33.1570   45.6360 O   0  0  0  0  0  0  0  0  0  0  0  0
   58.8560   34.6070   47.2270 O   0  0  0  0  0  0  0  0  0  0  0  0
   57.3420   33.1070   45.6590 N   0  0  0  0  0  0  0  0  0  0  0  0
   57.5630   32.3830   44.4020 C   0  0  0  0  0  0  0  0  0  0  0  0
   57.0160   30.9850   44.4820 C   0  0  0  0  0  0  0  0  0  0  0  0
   55.7040   30.6880   44.4990 N   0  0  0  0  0  0  0  0  0  0  0  0
   55.6760   29.3370   44.5500 C   0  0  0  0  0  0  0  0  0  0  0  0
   56.9000   28.7660   44.5500 N   0  0  0  0  0  0  0  0  0  0  0  0
   57.7420   29.8130   44.4900 C   0  0  0  0  0  0  0  0  0  0  0  0
   59.2310   29.6830   44.4820 C   0  0  0  0  0  0  0  0  0  0  0  0
   59.1100   30.6660   47.4480 C   0  0  0  0  0  0  0  0  0  0  0  0
   57.1790   24.2480   44.0050 C   0  0  0  0  0  0  0  0  0  0  0  0
   56.0370   23.4210   43.9960 C   0  0  0  0  0  0  0  0  0  0  0  0
   55.9380   22.2960   43.1610 O   0  0  0  0  0  0  0  0  0  0  0  0
   56.9430   21.2900   43.0330 C   0  0  0  0  0  0  0  0  0  0  0  0
   53.1276   22.9215   46.7687 H   0  0  0  0  0  0  0  0  0  0  0  0
   52.1998   23.8890   45.5730 H   0  0  0  0  0  0  0  0  0  0  0  0
   52.0703   22.0974   45.5730 H   0  0  0  0  0  0  0  0  0  0  0  0
   54.1906   25.0755   46.3644 H   0  0  0  0  0  0  0  0  0  0  0  0
   56.2236   26.5122   46.3839 H   0  0  0  0  0  0  0  0  0  0  0  0
   59.2543   25.7735   44.2373 H   0  0  0  0  0  0  0  0  0  0  0  0
   58.1952   27.2197   44.4906 H   0  0  0  0  0  0  0  0  0  0  0  0
   58.6199   25.6321   46.9450 H   0  0  0  0  0  0  0  0  0  0  0  0
   60.1403   26.3131   46.2473 H   0  0  0  0  0  0  0  0  0  0  0  0
   57.9060   28.2390   46.3870 H   0  0  0  0  0  0  0  0  0  0  0  0
   58.8897   29.2329   50.5504 H   0  0  0  0  0  0  0  0  0  0  0  0
   58.5687   31.6208   51.1845 H   0  0  0  0  0  0  0  0  0  0  0  0
   58.5759   33.3980   49.4346 H   0  0  0  0  0  0  0  0  0  0  0  0
   57.0598   32.9199   43.5844 H   0  0  0  0  0  0  0  0  0  0  0  0
   58.6457   32.3255   44.2164 H   0  0  0  0  0  0  0  0  0  0  0  0
   54.7424   28.7565   44.5880 H   0  0  0  0  0  0  0  0  0  0  0  0
   59.6018   29.6506   45.5171 H   0  0  0  0  0  0  0  0  0  0  0  0
   59.5154   28.7566   43.9615 H   0  0  0  0  0  0  0  0  0  0  0  0
   59.6716   30.5461   43.9615 H   0  0  0  0  0  0  0  0  0  0  0  0
   59.2639   30.4003   46.3917 H   0  0  0  0  0  0  0  0  0  0  0  0
   58.0143   24.0308   43.3231 H   0  0  0  0  0  0  0  0  0  0  0  0
   57.2668   20.9659   44.0330 H   0  0  0  0  0  0  0  0  0  0  0  0
   56.5328   20.4298   42.4837 H   0  0  0  0  0  0  0  0  0  0  0  0
   57.8036   21.6993   42.4837 H   0  0  0  0  0  0  0  0  0  0  0  0
  1  2  1  0
  2  3  1  0
  3  4  2  0
  4  5  1  0
  5  6  2  0
  6  7  1  0
  7  8  1  0
  8  9  1  0
  9 10  1  0
 10 11  2  0
 10 12  1  0
 12 13  2  0
 13 14  1  0
 14 15  2  0
 15 16  1  0
 16 17  1  0
 17 18  2  0
 17 19  2  0
 17 20  1  0
 20 21  1  0
 21 22  1  0
 22 23  1  0
 23 24  1  0
 24 25  2  0
 25 26  1  0
 26 27  1  0
 16 28  2  0
  6 29  1  0
 29 30  2  0
 30 31  1  0
 31 32  1  0
 30  3  1  0
 28 12  1  0
 26 22  2  0
  1 33  1  0
  1 34  1  0
  1 35  1  0
  4 36  1  0
  5 37  1  0
  7 38  1  0
  7 39  1  0
  8 40  1  0
  8 41  1  0
  9 42  1  0
 13 43  1  0
 14 44  1  0
 15 45  1  0
 21 46  1  0
 21 47  1  0
 24 48  1  0
 27 49  1  0
 27 50  1  0
 27 51  1  0
 28 52  1  0
 29 53  1  0
 32 54  1  0
 32 55  1  0
 32 56  1  0
M  CHG  2  20  -1  23  -1
M  END
>  <UniqueID>  (89) 
84

>  <SMILES>  (89) 
COc1ccc(CCNC(=O)c2cccc(S(=O)(=O)[N-]Cc3[n-]cnc3C)c2)cc1OC

>  <Energy>  (89) 
75.90180358224234

>  <Genealogy>  (89) 
COc1ccc(CCNC(=O)c2cccc(S(=O)(=O)[N-]Cc3[n-]cnc3C)c2)cc1OC (protonated)
COc1ccc(CCNC(=O)c2cccc(S(=O)(=O)[N-]Cc3[n-]cnc3C)c2)cc1OC (3D coordinates assigned)
COc1ccc(CCNC(=O)c2cccc(S(=O)(=O)[N-]Cc3[n-]cnc3C)c2)cc1OC (optimized conformer: 75.90180358224234 kcal/mol)

>  <smiles>  (89) 
COc1ccc(CCNC(=O)c2cccc(S(=O)(=O)NCc3[nH]cnc3C)c2)cc1OC

>  <score_type>  (89) 
oracle

>  <origin>  (89) 
adg

>  <m_score__min__energy>  (89) 
-11.81

>  <m_primary>  (89) 
energy

$$$$
89:0
     RDKit          3D

 54 57  0  0  0  0  0  0  0  0999 V2000
   57.0260   24.3410   42.9830 C   0  0  0  0  0  0  0  0  0  0  0  0
   57.0890   23.1350   43.8820 C   0  0  0  0  0  0  0  0  0  0  0  0
   56.4600   21.9510   43.4610 C   0  0  0  0  0  0  0  0  0  0  0  0
   56.4290   20.8280   44.2860 C   0  0  0  0  0  0  0  0  0  0  0  0
   57.0310   20.8700   45.5420 C   0  0  0  0  0  0  0  0  0  0  0  0
   57.6840   22.0280   45.9660 C   0  0  0  0  0  0  0  0  0  0  0  0
   57.7450   23.1620   45.1400 C   0  0  0  0  0  0  0  0  0  0  0  0
   58.4770   24.3470   45.6420 C   0  0  0  0  0  0  0  0  0  0  0  0
   59.7400   24.3450   45.6010 O   0  0  0  0  0  0  0  0  0  0  0  0
   57.7770   25.5100   46.1130 N   0  0  0  0  0  0  0  0  0  0  0  0
   58.4320   26.7760   46.2890 C   0  0  0  0  0  0  0  0  0  0  0  0
   59.7600   26.7970   46.7490 C   0  0  0  0  0  0  0  0  0  0  0  0
   60.4600   27.9990   46.8460 C   0  0  0  0  0  0  0  0  0  0  0  0
   59.8470   29.1960   46.4710 C   0  0  0  0  0  0  0  0  0  0  0  0
   58.5240   29.1950   46.0290 C   0  0  0  0  0  0  0  0  0  0  0  0
   57.7920   27.9950   45.9320 C   0  0  0  0  0  0  0  0  0  0  0  0
   56.3590   28.0590   45.5330 C   0  0  0  0  0  0  0  0  0  0  0  0
   55.6230   27.0460   45.6380 O   0  0  0  0  0  0  0  0  0  0  0  0
   55.8100   29.2850   45.0260 N   0  0  0  0  0  0  0  0  0  0  0  0
   56.5000   30.2720   44.2440 C   0  0  0  0  0  0  0  0  0  0  0  0
   56.5860   30.1860   42.8440 C   0  0  0  0  0  0  0  0  0  0  0  0
   57.2110   31.2000   42.1130 C   0  0  0  0  0  0  0  0  0  0  0  0
   57.7430   32.3120   42.7700 C   0  0  0  0  0  0  0  0  0  0  0  0
   57.6510   32.4140   44.1640 C   0  0  0  0  0  0  0  0  0  0  0  0
   58.2840   33.8360   44.9910 S   0  0  0  0  0  0  0  0  0  0  0  0
   57.2620   34.9340   44.9160 O   0  0  0  0  0  0  0  0  0  0  0  0
   59.5550   34.3000   44.3360 O   0  0  0  0  0  0  0  0  0  0  0  0
   58.6130   33.4750   46.6560 N   0  0  0  0  0  0  0  0  0  0  0  0
   59.8050   33.4060   47.1610 C   0  0  0  0  0  0  0  0  0  0  0  0
   60.2080   34.2810   48.1280 N   0  0  0  0  0  0  0  0  0  0  0  0
   61.4530   34.2030   48.6680 C   0  0  0  0  0  0  0  0  0  0  0  0
   62.3360   33.2160   48.2310 C   0  0  0  0  0  0  0  0  0  0  0  0
   61.9110   32.3300   47.2470 C   0  0  0  0  0  0  0  0  0  0  0  0
   60.6590   32.4410   46.7330 N   0  0  0  0  0  0  0  0  0  0  0  0
   57.0240   31.3980   44.8950 C   0  0  0  0  0  0  0  0  0  0  0  0
   56.9784   25.2532   43.5959 H   0  0  0  0  0  0  0  0  0  0  0  0
   57.9237   24.3724   42.3481 H   0  0  0  0  0  0  0  0  0  0  0  0
   56.1299   24.2786   42.3481 H   0  0  0  0  0  0  0  0  0  0  0  0
   55.9866   21.9100   42.4689 H   0  0  0  0  0  0  0  0  0  0  0  0
   55.9295   19.9089   43.9457 H   0  0  0  0  0  0  0  0  0  0  0  0
   56.9914   19.9894   46.2000 H   0  0  0  0  0  0  0  0  0  0  0  0
   58.1566   22.0529   46.9590 H   0  0  0  0  0  0  0  0  0  0  0  0
   56.7390   25.4830   46.2140 H   0  0  0  0  0  0  0  0  0  0  0  0
   60.2520   25.8558   47.0353 H   0  0  0  0  0  0  0  0  0  0  0  0
   61.4952   28.0042   47.2180 H   0  0  0  0  0  0  0  0  0  0  0  0
   60.4079   30.1408   46.5242 H   0  0  0  0  0  0  0  0  0  0  0  0
   58.0448   30.1456   45.7519 H   0  0  0  0  0  0  0  0  0  0  0  0
   56.1597   29.3170   42.3214 H   0  0  0  0  0  0  0  0  0  0  0  0
   57.2841   31.1223   41.0182 H   0  0  0  0  0  0  0  0  0  0  0  0
   58.2347   33.1084   42.1921 H   0  0  0  0  0  0  0  0  0  0  0  0
   61.7628   34.9156   49.4466 H   0  0  0  0  0  0  0  0  0  0  0  0
   63.3478   33.1399   48.6559 H   0  0  0  0  0  0  0  0  0  0  0  0
   62.5873   31.5412   46.8859 H   0  0  0  0  0  0  0  0  0  0  0  0
   56.9417   31.4836   45.9886 H   0  0  0  0  0  0  0  0  0  0  0  0
  1  2  1  0
  2  3  2  0
  3  4  1  0
  4  5  2  0
  5  6  1  0
  6  7  2  0
  7  8  1  0
  8  9  2  0
  8 10  1  0
 10 11  1  0
 11 12  2  0
 12 13  1  0
 13 14  2  0
 14 15  1  0
 15 16  2  0
 16 17  1  0
 17 18  2  0
 17 19  1  0
 19 20  1  0
 20 21  2  0
 21 22  1  0
 22 23  2  0
 23 24  1  0
 24 25  1  0
 25 26  2  0
 25 27  2  0
 25 28  1  0
 28 29  2  3
 29 30  1  0
 30 31  2  0
 31 32  1  0
 32 33  2  0
 33 34  1  0
 24 35  2  0
  7  2  1  0
 16 11  1  0
 35 20  1  0
 34 29  1  0
  1 36  1  0
  1 37  1  0
  1 38  1  0
  3 39  1  0
  4 40  1  0
  5 41  1  0
  6 42  1  0
 10 43  1  0
 12 44  1  0
 13 45  1  0
 14 46  1  0
 15 47  1  0
 21 48  1  0
 22 49  1  0
 23 50  1  0
 31 51  1  0
 32 52  1  0
 33 53  1  0
 35 54  1  0
M  CHG  2  19  -1  34  -1
M  END
>  <UniqueID>  (90) 
85

>  <SMILES>  (90) 
Cc1ccccc1C(=O)Nc1ccccc1C(=O)[N-]c1cccc(S(=O)(=O)N=c2nccc[n-]2)c1

>  <Energy>  (90) 
81.62758173067772

>  <Genealogy>  (90) 
Cc1ccccc1C(=O)Nc1ccccc1C(=O)[N-]c1cccc(S(=O)(=O)N=c2nccc[n-]2)c1 (protonated)
Cc1ccccc1C(=O)Nc1ccccc1C(=O)[N-]c1cccc(S(=O)(=O)N=c2nccc[n-]2)c1 (3D coordinates assigned)
Cc1ccccc1C(=O)Nc1ccccc1C(=O)[N-]c1cccc(S(=O)(=O)N=c2nccc[n-]2)c1 (optimized conformer: 81.62758173067772 kcal/mol)

>  <smiles>  (90) 
Cc1ccccc1C(=O)Nc1ccccc1C(=O)Nc1cccc(S(=O)(=O)N=c2nccc[nH]2)c1

>  <score_type>  (90) 
oracle

>  <origin>  (90) 
adg

>  <m_score__min__energy>  (90) 
-12.84

>  <m_primary>  (90) 
energy

$$$$
90:0
     RDKit          3D

 48 50  0  0  0  0  0  0  0  0999 V2000
   55.1550   27.5350   45.5700 H   0  0  0  0  0  0  0  0  0  0  0  0
   55.3800   26.6890   46.0780 O   0  0  0  0  0  0  0  0  0  0  0  0
   56.6050   26.0300   45.9460 C   0  0  0  0  0  0  0  0  0  0  0  0
   56.6540   24.8480   45.1890 C   0  0  0  0  0  0  0  0  0  0  0  0
   55.4680   24.3830   44.5980 O   0  0  0  0  0  0  0  0  0  0  0  0
   55.4060   23.3520   43.6180 C   0  0  0  0  0  0  0  0  0  0  0  0
   55.3472   22.3740   44.1180 H   0  0  0  0  0  0  0  0  0  0  0  0
   54.5149   23.4967   42.9895 H   0  0  0  0  0  0  0  0  0  0  0  0
   56.3080   23.3888   42.9895 H   0  0  0  0  0  0  0  0  0  0  0  0
   57.8780   24.1670   45.0440 C   0  0  0  0  0  0  0  0  0  0  0  0
   57.9231   23.2433   44.4484 H   0  0  0  0  0  0  0  0  0  0  0  0
   59.0340   24.6580   45.6520 C   0  0  0  0  0  0  0  0  0  0  0  0
   59.9863   24.1201   45.5347 H   0  0  0  0  0  0  0  0  0  0  0  0
   58.9850   25.8290   46.4080 C   0  0  0  0  0  0  0  0  0  0  0  0
   59.8968   26.2032   46.8964 H   0  0  0  0  0  0  0  0  0  0  0  0
   57.7800   26.5320   46.5490 C   0  0  0  0  0  0  0  0  0  0  0  0
   57.7420   27.7450   47.3880 C   0  0  0  0  0  0  0  0  0  0  0  0
   57.3696   27.6483   48.4185 H   0  0  0  0  0  0  0  0  0  0  0  0
   58.1360   28.9660   46.9690 C   0  0  0  0  0  0  0  0  0  0  0  0
   57.3580   29.6880   45.9300 C   0  0  0  0  0  0  0  0  0  0  0  0
   56.2960   29.1820   45.4760 O   0  0  0  0  0  0  0  0  0  0  0  0
   57.8280   31.0150   45.4440 C   0  0  0  0  0  0  0  0  0  0  0  0
   57.3110   31.5910   44.2600 C   0  0  0  0  0  0  0  0  0  0  0  0
   56.3510   30.8900   43.5100 O   0  0  0  0  0  0  0  0  0  0  0  0
   56.6180   29.7300   42.7270 C   0  0  0  0  0  0  0  0  0  0  0  0
   56.8146   28.8761   43.3919 H   0  0  0  0  0  0  0  0  0  0  0  0
   55.7475   29.5077   42.0923 H   0  0  0  0  0  0  0  0  0  0  0  0
   57.4981   29.9106   42.0923 H   0  0  0  0  0  0  0  0  0  0  0  0
   57.7750   32.8520   43.8510 C   0  0  0  0  0  0  0  0  0  0  0  0
   57.3770   33.3048   42.9309 H   0  0  0  0  0  0  0  0  0  0  0  0
   58.7320   33.5360   44.5950 C   0  0  0  0  0  0  0  0  0  0  0  0
   59.0759   34.5260   44.2609 H   0  0  0  0  0  0  0  0  0  0  0  0
   59.2630   32.9750   45.7680 C   0  0  0  0  0  0  0  0  0  0  0  0
   60.2110   33.6560   46.5540 O   0  0  0  0  0  0  0  0  0  0  0  0
   61.6290   33.6000   46.3940 C   0  0  0  0  0  0  0  0  0  0  0  0
   62.0126   34.6157   46.2176 H   0  0  0  0  0  0  0  0  0  0  0  0
   61.8624   32.9492   45.5384 H   0  0  0  0  0  0  0  0  0  0  0  0
   62.2910   33.0250   47.6410 C   0  0  0  0  0  0  0  0  0  0  0  0
   61.8097   33.4430   48.5375 H   0  0  0  0  0  0  0  0  0  0  0  0
   62.1815   31.9305   47.6427 H   0  0  0  0  0  0  0  0  0  0  0  0
   63.3594   33.2866   47.6427 H   0  0  0  0  0  0  0  0  0  0  0  0
   58.8230   31.7010   46.1830 C   0  0  0  0  0  0  0  0  0  0  0  0
   59.3370   31.1080   47.4780 C   0  0  0  0  0  0  0  0  0  0  0  0
   60.3311   31.5275   47.6917 H   0  0  0  0  0  0  0  0  0  0  0  0
   58.6221   31.3581   48.2757 H   0  0  0  0  0  0  0  0  0  0  0  0
   59.4490   29.5830   47.4010 C   0  0  0  0  0  0  0  0  0  0  0  0
   60.2293   29.3155   46.6733 H   0  0  0  0  0  0  0  0  0  0  0  0
   59.7063   29.1987   48.3990 H   0  0  0  0  0  0  0  0  0  0  0  0
  1  2  1  0
  2  3  1  0
  3  4  2  0
  4  5  1  0
  5  6  1  0
  6  7  1  0
  6  8  1  0
  6  9  1  0
  4 10  1  0
 10 11  1  0
 10 12  2  0
 12 13  1  0
 12 14  1  0
 14 15  1  0
 14 16  2  0
 16 17  1  0
 17 18  1  0
 17 19  2  0
 19 20  1  0
 20 21  2  0
 20 22  1  0
 22 23  2  0
 23 24  1  0
 24 25  1  0
 25 26  1  0
 25 27  1  0
 25 28  1  0
 23 29  1  0
 29 30  1  0
 29 31  2  0
 31 32  1  0
 31 33  1  0
 33 34  1  0
 34 35  1  0
 35 36  1  0
 35 37  1  0
 35 38  1  0
 38 39  1  0
 38 40  1  0
 38 41  1  0
 33 42  2  0
 42 43  1  0
 43 44  1  0
 43 45  1  0
 43 46  1  0
 46 47  1  0
 46 48  1  0
 16  3  1  0
 46 19  1  0
 42 22  1  0
M  END
>  <UniqueID>  (91) 
86

>  <SMILES>  (91) 
CCOc1ccc(OC)c2c1CC/C(=C\c1cccc(OC)c1O)C2=O

>  <Energy>  (91) 
60.86622434979962

>  <Genealogy>  (91) 
CCOc1ccc(OC)c2c1CC/C(=C\c1cccc(OC)c1O)C2=O (cis-trans isomerization)
CCOc1ccc(OC)c2c1CC/C(=C\c1cccc(OC)c1O)C2=O (3D coordinates assigned)
CCOc1ccc(OC)c2c1CC/C(=C\c1cccc(OC)c1O)C2=O (nonaromatic ring conformer: 60.86622434979962 kcal/mol)

>  <smiles>  (91) 
CCOc1ccc(OC)c2c1CCC(=Cc1cccc(OC)c1O)C2=O

>  <score_type>  (91) 
oracle

>  <origin>  (91) 
adg

>  <m_score__min__energy>  (91) 
-9.3800000000000008

>  <m_primary>  (91) 
energy

$$$$
91:0
     RDKit          3D

 30 33  0  0  0  0  0  0  0  0999 V2000
   55.5200   28.9610   44.8300 O   0  0  0  0  0  0  0  0  0  0  0  0
   56.6530   29.2650   45.2870 C   0  0  0  0  0  0  0  0  0  0  0  0
   57.0770   30.5600   45.2640 N   0  0  0  0  0  0  0  0  0  0  0  0
   58.3030   30.9310   45.7520 C   0  0  0  0  0  0  0  0  0  0  0  0
   58.7260   32.3530   45.7060 C   0  0  0  0  0  0  0  0  0  0  0  0
   59.8340   32.7960   46.4540 C   0  0  0  0  0  0  0  0  0  0  0  0
   60.2310   34.1350   46.4100 C   0  0  0  0  0  0  0  0  0  0  0  0
   59.5300   35.0490   45.6210 C   0  0  0  0  0  0  0  0  0  0  0  0
   58.4290   34.6240   44.8750 C   0  0  0  0  0  0  0  0  0  0  0  0
   58.0270   33.2850   44.9150 C   0  0  0  0  0  0  0  0  0  0  0  0
   59.1360   29.9840   46.2810 N   0  0  0  0  0  0  0  0  0  0  0  0
   58.7330   28.6920   46.3140 C   0  0  0  0  0  0  0  0  0  0  0  0
   59.6050   27.3690   46.9230 S   0  0  0  0  0  0  0  0  0  0  0  0
   58.3550   26.2960   46.5400 C   0  0  0  0  0  0  0  0  0  0  0  0
   57.3080   26.9270   45.9670 C   0  0  0  0  0  0  0  0  0  0  0  0
   57.4980   28.3000   45.8260 C   0  0  0  0  0  0  0  0  0  0  0  0
   56.2080   26.0040   45.6260 C   0  0  0  0  0  0  0  0  0  0  0  0
   56.7520   24.6290   46.0970 C   0  0  0  0  0  0  0  0  0  0  0  0
   58.1650   24.8460   46.6950 C   0  0  0  0  0  0  0  0  0  0  0  0
   60.3915   32.0820   47.0780 H   0  0  0  0  0  0  0  0  0  0  0  0
   61.0980   34.4698   46.9984 H   0  0  0  0  0  0  0  0  0  0  0  0
   59.8447   36.1025   45.5872 H   0  0  0  0  0  0  0  0  0  0  0  0
   57.8762   35.3443   44.2541 H   0  0  0  0  0  0  0  0  0  0  0  0
   57.1587   32.9576   44.3244 H   0  0  0  0  0  0  0  0  0  0  0  0
   55.2863   26.2705   46.1641 H   0  0  0  0  0  0  0  0  0  0  0  0
   55.9392   26.0231   44.5595 H   0  0  0  0  0  0  0  0  0  0  0  0
   56.0845   24.2070   46.8627 H   0  0  0  0  0  0  0  0  0  0  0  0
   56.8016   23.9296   45.2494 H   0  0  0  0  0  0  0  0  0  0  0  0
   58.1982   24.5514   47.7543 H   0  0  0  0  0  0  0  0  0  0  0  0
   58.9461   24.2459   46.2054 H   0  0  0  0  0  0  0  0  0  0  0  0
  1  2  2  0
  2  3  1  0
  3  4  1  0
  4  5  1  0
  5  6  2  0
  6  7  1  0
  7  8  2  0
  8  9  1  0
  9 10  2  0
  4 11  2  0
 11 12  1  0
 12 13  1  0
 13 14  1  0
 14 15  2  0
 15 16  1  0
 15 17  1  0
 17 18  1  0
 18 19  1  0
 16  2  1  0
 10  5  1  0
 16 12  2  0
 19 14  1  0
  6 20  1  0
  7 21  1  0
  8 22  1  0
  9 23  1  0
 10 24  1  0
 17 25  1  0
 17 26  1  0
 18 27  1  0
 18 28  1  0
 19 29  1  0
 19 30  1  0
M  CHG  1   3  -1
M  END
>  <UniqueID>  (92) 
87

>  <SMILES>  (92) 
O=c1[n-]c(-c2ccccc2)nc2sc3c(c12)CCC3

>  <Energy>  (92) 
86.01774987301657

>  <Genealogy>  (92) 
O=c1[n-]c(-c2ccccc2)nc2sc3c(c12)CCC3 (protonated)
O=c1[n-]c(-c2ccccc2)nc2sc3c(c12)CCC3 (3D coordinates assigned)
O=c1[n-]c(-c2ccccc2)nc2sc3c(c12)CCC3 (nonaromatic ring conformer: 86.01774987301657 kcal/mol)

>  <smiles>  (92) 
O=c1[nH]c(-c2ccccc2)nc2sc3c(c12)CCC3

>  <score_type>  (92) 
oracle

>  <origin>  (92) 
adg

>  <m_score__min__energy>  (92) 
-8.8800000000000008

>  <m_primary>  (92) 
energy

$$$$
92:0
     RDKit          3D

 47 50  0  0  0  0  0  0  0  0999 V2000
   57.6340   33.7290   46.4200 C   0  0  0  0  0  0  0  0  0  0  0  0
   57.6840   32.8530   45.2110 C   0  0  0  0  0  0  0  0  0  0  0  0
   58.1620   33.2940   43.9800 C   0  0  0  0  0  0  0  0  0  0  0  0
   58.1280   31.9880   42.9180 S   0  0  0  0  0  0  0  0  0  0  0  0
   57.5040   30.9300   44.0660 C   0  0  0  0  0  0  0  0  0  0  0  0
   57.2570   29.4730   43.8410 C   0  0  0  0  0  0  0  0  0  0  0  0
   56.1700   28.9920   44.7610 C   0  0  0  0  0  0  0  0  0  0  0  0
   55.1300   29.6900   44.8950 O   0  0  0  0  0  0  0  0  0  0  0  0
   56.3370   27.8330   45.5850 N   0  0  0  0  0  0  0  0  0  0  0  0
   57.5840   27.3170   46.0700 C   0  0  0  0  0  0  0  0  0  0  0  0
   58.4310   28.1680   46.7940 C   0  0  0  0  0  0  0  0  0  0  0  0
   59.6510   27.6960   47.3060 C   0  0  0  0  0  0  0  0  0  0  0  0
   60.5420   28.6140   48.1060 C   0  0  0  0  0  0  0  0  0  0  0  0
   59.7650   29.6740   48.8530 C   0  0  0  0  0  0  0  0  0  0  0  0
   58.8580   29.3050   49.8010 N   0  0  0  0  0  0  0  0  0  0  0  0
   58.1440   30.1980   50.4860 N   0  0  0  0  0  0  0  0  0  0  0  0
   58.2910   31.5300   50.2860 C   0  0  0  0  0  0  0  0  0  0  0  0
   57.5820   32.3350   50.9440 O   0  0  0  0  0  0  0  0  0  0  0  0
   59.2310   31.9910   49.3510 C   0  0  0  0  0  0  0  0  0  0  0  0
   59.9720   31.0480   48.6100 C   0  0  0  0  0  0  0  0  0  0  0  0
   60.9460   31.5040   47.6540 N   0  0  0  0  0  0  0  0  0  0  0  0
   61.0000   32.9050   47.2450 C   0  0  0  0  0  0  0  0  0  0  0  0
   60.7490   33.8050   48.4520 C   0  0  0  0  0  0  0  0  0  0  0  0
   59.3940   33.4740   49.0900 C   0  0  0  0  0  0  0  0  0  0  0  0
   59.9990   26.3480   47.1230 C   0  0  0  0  0  0  0  0  0  0  0  0
   59.1420   25.4880   46.4300 C   0  0  0  0  0  0  0  0  0  0  0  0
   57.9350   25.9640   45.9110 C   0  0  0  0  0  0  0  0  0  0  0  0
   57.0910   25.0960   45.2970 F   0  0  0  0  0  0  0  0  0  0  0  0
   57.3370   31.5380   45.2620 N   0  0  0  0  0  0  0  0  0  0  0  0
   57.6696   33.1060   47.3259 H   0  0  0  0  0  0  0  0  0  0  0  0
   58.4945   34.4142   46.4122 H   0  0  0  0  0  0  0  0  0  0  0  0
   56.7011   34.3118   46.4122 H   0  0  0  0  0  0  0  0  0  0  0  0
   58.5012   34.3133   43.7436 H   0  0  0  0  0  0  0  0  0  0  0  0
   56.9496   29.3118   42.7972 H   0  0  0  0  0  0  0  0  0  0  0  0
   58.1808   28.9124   44.0466 H   0  0  0  0  0  0  0  0  0  0  0  0
   58.1376   29.2146   46.9626 H   0  0  0  0  0  0  0  0  0  0  0  0
   61.1053   28.0117   48.8340 H   0  0  0  0  0  0  0  0  0  0  0  0
   61.2108   29.1275   47.3996 H   0  0  0  0  0  0  0  0  0  0  0  0
   61.6730   30.8590   47.2750 H   0  0  0  0  0  0  0  0  0  0  0  0
   61.9927   33.1251   46.8253 H   0  0  0  0  0  0  0  0  0  0  0  0
   60.2270   33.0920   46.4850 H   0  0  0  0  0  0  0  0  0  0  0  0
   61.5468   33.6491   49.1931 H   0  0  0  0  0  0  0  0  0  0  0  0
   60.7420   34.8540   48.1210 H   0  0  0  0  0  0  0  0  0  0  0  0
   59.3113   34.0129   50.0454 H   0  0  0  0  0  0  0  0  0  0  0  0
   58.6058   33.7816   48.3870 H   0  0  0  0  0  0  0  0  0  0  0  0
   60.9490   25.9675   47.5262 H   0  0  0  0  0  0  0  0  0  0  0  0
   59.4189   24.4323   46.2927 H   0  0  0  0  0  0  0  0  0  0  0  0
  1  2  1  0
  2  3  2  0
  3  4  1  0
  4  5  1  0
  5  6  1  0
  6  7  1  0
  7  8  2  0
  7  9  1  0
  9 10  1  0
 10 11  2  0
 11 12  1  0
 12 13  1  0
 13 14  1  0
 14 15  2  0
 15 16  1  0
 16 17  1  0
 17 18  2  0
 17 19  1  0
 19 20  2  0
 20 21  1  0
 21 22  1  0
 22 23  1  0
 23 24  1  0
 12 25  2  0
 25 26  1  0
 26 27  2  0
 27 28  1  0
  5 29  2  0
 29  2  1  0
 27 10  1  0
 20 14  1  0
 24 19  1  0
  1 30  1  0
  1 31  1  0
  1 32  1  0
  3 33  1  0
  6 34  1  0
  6 35  1  0
 11 36  1  0
 13 37  1  0
 13 38  1  0
 21 39  1  0
 22 40  1  0
 22 41  1  0
 23 42  1  0
 23 43  1  0
 24 44  1  0
 24 45  1  0
 25 46  1  0
 26 47  1  0
M  CHG  2   9  -1  16  -1
M  END
>  <UniqueID>  (93) 
88

>  <SMILES>  (93) 
Cc1csc(CC(=O)[N-]c2cc(Cc3n[n-]c(=O)c4c3NCCC4)ccc2F)n1

>  <Energy>  (93) 
84.8981697404918

>  <Genealogy>  (93) 
Cc1csc(CC(=O)[N-]c2cc(Cc3n[n-]c(=O)c4c3NCCC4)ccc2F)n1 (protonated)
Cc1csc(CC(=O)[N-]c2cc(Cc3n[n-]c(=O)c4c3NCCC4)ccc2F)n1 (3D coordinates assigned)
Cc1csc(CC(=O)[N-]c2cc(Cc3n[n-]c(=O)c4c3NCCC4)ccc2F)n1 (nonaromatic ring conformer: 84.8981697404918 kcal/mol)

>  <smiles>  (93) 
Cc1csc(CC(=O)Nc2cc(Cc3n[nH]c(=O)c4c3NCCC4)ccc2F)n1

>  <score_type>  (93) 
oracle

>  <origin>  (93) 
adg

>  <m_score__min__energy>  (93) 
-12.98

>  <m_primary>  (93) 
energy

$$$$
