0:0
     RDKit          3D

 60 63  0  0  0  0  0  0  0  0999 V2000
   56.1350   24.0140   43.7440 C   0  0  0  0  0  0  0  0  0  0  0  0
   55.2550   24.1870   44.8510 O   0  0  0  0  0  0  0  0  0  0  0  0
   55.2120   25.3660   45.6020 C   0  0  0  0  0  0  0  0  0  0  0  0
   54.1090   25.9590   45.7660 O   0  0  0  0  0  0  0  0  0  0  0  0
   56.4650   25.9140   46.1870 C   0  0  0  0  0  0  0  0  0  0  0  0
   57.2760   25.0710   46.9680 C   0  0  0  0  0  0  0  0  0  0  0  0
   58.4480   25.5510   47.5580 C   0  0  0  0  0  0  0  0  0  0  0  0
   58.8440   26.8810   47.3660 C   0  0  0  0  0  0  0  0  0  0  0  0
   60.0650   27.4020   48.0110 C   0  0  0  0  0  0  0  0  0  0  0  0
   61.1600   26.8020   47.8380 O   0  0  0  0  0  0  0  0  0  0  0  0
   60.0360   28.6140   48.7860 N   0  0  0  0  0  0  0  0  0  0  0  0
   59.2540   29.7610   48.2970 C   0  0  0  0  0  0  0  0  0  0  0  0
   59.6940   31.0670   48.9660 C   0  0  0  0  0  0  0  0  0  0  0  0
   59.7500   30.8900   50.4260 N   0  0  0  0  0  0  0  0  0  0  0  0
   59.2370   31.9220   51.3090 C   0  0  0  0  0  0  0  0  0  0  0  0
   57.8620   32.0260   51.6050 C   0  0  0  0  0  0  0  0  0  0  0  0
   57.4100   33.0620   52.4280 C   0  0  0  0  0  0  0  0  0  0  0  0
   58.3140   33.9840   52.9510 C   0  0  0  0  0  0  0  0  0  0  0  0
   59.6690   33.8490   52.6530 C   0  0  0  0  0  0  0  0  0  0  0  0
   60.0930   32.8370   51.8520 N   0  0  0  0  0  0  0  0  0  0  0  0
   60.3940   29.6840   50.9770 C   0  0  0  0  0  0  0  0  0  0  0  0
   60.9960   28.7950   49.8800 C   0  0  0  0  0  0  0  0  0  0  0  0
   58.0670   27.7160   46.5550 C   0  0  0  0  0  0  0  0  0  0  0  0
   56.8600   27.2620   46.0030 C   0  0  0  0  0  0  0  0  0  0  0  0
   56.0510   28.1690   45.2490 N   0  0  0  0  0  0  0  0  0  0  0  0
   56.6810   29.1610   43.9720 S   0  0  0  0  0  0  0  0  0  0  0  0
   57.6950   28.3720   43.1940 O   0  0  0  0  0  0  0  0  0  0  0  0
   55.5560   29.5480   43.0490 O   0  0  0  0  0  0  0  0  0  0  0  0
   57.4370   30.6260   44.6060 C   0  0  0  0  0  0  0  0  0  0  0  0
   56.7510   31.8480   44.5480 C   0  0  0  0  0  0  0  0  0  0  0  0
   57.3130   32.9960   45.1120 C   0  0  0  0  0  0  0  0  0  0  0  0
   58.5660   32.9360   45.7430 C   0  0  0  0  0  0  0  0  0  0  0  0
   59.1270   34.1500   46.4260 C   0  0  0  0  0  0  0  0  0  0  0  0
   59.2510   31.7110   45.8000 C   0  0  0  0  0  0  0  0  0  0  0  0
   58.6930   30.5650   45.2280 C   0  0  0  0  0  0  0  0  0  0  0  0
   57.1522   23.8140   44.1119 H   0  0  0  0  0  0  0  0  0  0  0  0
   55.7929   23.1659   43.1327 H   0  0  0  0  0  0  0  0  0  0  0  0
   56.1394   24.9285   43.1327 H   0  0  0  0  0  0  0  0  0  0  0  0
   56.9839   24.0209   47.1161 H   0  0  0  0  0  0  0  0  0  0  0  0
   59.0631   24.8810   48.1766 H   0  0  0  0  0  0  0  0  0  0  0  0
   59.3941   29.8516   47.2097 H   0  0  0  0  0  0  0  0  0  0  0  0
   58.1960   29.5870   48.5425 H   0  0  0  0  0  0  0  0  0  0  0  0
   60.6903   31.3490   48.5947 H   0  0  0  0  0  0  0  0  0  0  0  0
   58.9688   31.8584   48.7255 H   0  0  0  0  0  0  0  0  0  0  0  0
   57.1499   31.2969   51.1911 H   0  0  0  0  0  0  0  0  0  0  0  0
   56.3389   33.1492   52.6629 H   0  0  0  0  0  0  0  0  0  0  0  0
   57.9632   34.8074   53.5905 H   0  0  0  0  0  0  0  0  0  0  0  0
   60.3961   34.5630   53.0671 H   0  0  0  0  0  0  0  0  0  0  0  0
   61.1968   29.9930   51.6626 H   0  0  0  0  0  0  0  0  0  0  0  0
   59.6233   29.0991   51.5003 H   0  0  0  0  0  0  0  0  0  0  0  0
   61.9074   29.2699   49.4879 H   0  0  0  0  0  0  0  0  0  0  0  0
   61.2377   27.8116   50.3096 H   0  0  0  0  0  0  0  0  0  0  0  0
   58.4071   28.7414   46.3478 H   0  0  0  0  0  0  0  0  0  0  0  0
   55.7681   31.9026   44.0572 H   0  0  0  0  0  0  0  0  0  0  0  0
   56.7711   33.9519   45.0615 H   0  0  0  0  0  0  0  0  0  0  0  0
   59.0661   34.0182   47.5164 H   0  0  0  0  0  0  0  0  0  0  0  0
   60.1782   34.2838   46.1310 H   0  0  0  0  0  0  0  0  0  0  0  0
   58.5476   35.0373   46.1310 H   0  0  0  0  0  0  0  0  0  0  0  0
   60.2307   31.6538   46.2970 H   0  0  0  0  0  0  0  0  0  0  0  0
   59.2404   29.6116   45.2655 H   0  0  0  0  0  0  0  0  0  0  0  0
  1  2  1  0
  2  3  1  0
  3  4  2  0
  3  5  1  0
  5  6  2  0
  6  7  1  0
  7  8  2  0
  8  9  1  0
  9 10  2  0
  9 11  1  0
 11 12  1  0
 12 13  1  0
 13 14  1  0
 14 15  1  0
 15 16  2  0
 16 17  1  0
 17 18  2  0
 18 19  1  0
 19 20  2  0
 14 21  1  0
 21 22  1  0
  8 23  1  0
 23 24  2  0
 24 25  1  0
 25 26  1  0
 26 27  2  0
 26 28  2  0
 26 29  1  0
 29 30  2  0
 30 31  1  0
 31 32  2  0
 32 33  1  0
 32 34  1  0
 34 35  2  0
 24  5  1  0
 35 29  1  0
 22 11  1  0
 20 15  1  0
  1 36  1  0
  1 37  1  0
  1 38  1  0
  6 39  1  0
  7 40  1  0
 12 41  1  0
 12 42  1  0
 13 43  1  0
 13 44  1  0
 16 45  1  0
 17 46  1  0
 18 47  1  0
 19 48  1  0
 21 49  1  0
 21 50  1  0
 22 51  1  0
 22 52  1  0
 23 53  1  0
 30 54  1  0
 31 55  1  0
 33 56  1  0
 33 57  1  0
 33 58  1  0
 34 59  1  0
 35 60  1  0
M  CHG  1  25  -1
M  END
>  <UniqueID>  (1) 
1

>  <SMILES>  (1) 
COC(=O)c1ccc(C(=O)N2CCN(c3ccccn3)CC2)cc1[N-]S(=O)(=O)c1ccc(C)cc1

>  <Energy>  (1) 
77.06416488858115

>  <Genealogy>  (1) 
COC(=O)c1ccc(C(=O)N2CCN(c3ccccn3)CC2)cc1[N-]S(=O)(=O)c1ccc(C)cc1 (protonated)
COC(=O)c1ccc(C(=O)N2CCN(c3ccccn3)CC2)cc1[N-]S(=O)(=O)c1ccc(C)cc1 (3D coordinates assigned)
COC(=O)c1ccc(C(=O)N2CCN(c3ccccn3)CC2)cc1[N-]S(=O)(=O)c1ccc(C)cc1 (nonaromatic ring conformer: 77.06416488858115 kcal/mol)

>  <smiles>  (1) 
COC(=O)c1ccc(C(=O)N2CCN(c3ccccn3)CC2)cc1NS(=O)(=O)c1ccc(C)cc1

>  <score_type>  (1) 
oracle

>  <origin>  (1) 
adg

>  <m_score__min__energy>  (1) 
-10.73

>  <m_primary>  (1) 
energy

$$$$
1:0
     RDKit          3D

 57 59  0  0  1  0  0  0  0  0999 V2000
   63.3900   33.8530   46.6510 C   0  0  0  0  0  0  0  0  0  0  0  0
   62.8920   32.7100   47.0830 C   0  0  0  0  0  0  0  0  0  0  0  0
   62.4190   31.5730   47.5200 C   0  0  0  0  0  0  0  0  0  0  0  0
   60.9420   31.4720   47.5840 C   0  0  0  0  0  0  0  0  0  0  0  0
   60.5480   30.1180   47.5670 N   0  0  0  0  0  0  0  0  0  0  0  0
   59.8530   29.5970   48.6710 C   0  0  0  0  0  0  0  0  0  0  0  0
   60.6560   29.3700   46.3830 C   0  0  0  0  0  0  0  0  0  0  0  0
   60.1830   27.9630   46.6520 C   0  0  0  0  0  0  0  0  0  0  0  0
   59.2290   27.4260   45.5940 C   0  0  0  0  0  0  0  0  0  0  0  0
   57.8600   32.5910   43.8520 N   0  0  0  0  0  0  0  0  0  0  0  0
   57.6080   31.3120   43.8550 C   0  0  0  0  0  0  0  0  0  0  0  0
   57.0410   28.6310   43.8300 N   0  0  0  0  0  0  0  0  0  0  0  0
   56.0450   29.4750   43.5200 C   0  0  0  0  0  0  0  0  0  0  0  0
   56.3480   30.8430   43.5370 C   0  0  0  0  0  0  0  0  0  0  0  0
   58.2610   29.0960   44.1380 C   0  0  0  0  0  0  0  0  0  0  0  0
   59.1630   28.2390   44.4290 N   0  0  0  0  0  0  0  0  0  0  0  0
   58.3220   33.1670   45.0800 C   0  0  0  0  0  0  0  0  0  0  0  0
   57.8170   32.7150   46.2750 C   0  0  0  0  0  0  0  0  0  0  0  0
   58.2640   33.2840   47.4720 C   0  0  0  0  0  0  0  0  0  0  0  0
   59.1940   34.2820   47.4830 C   0  0  0  0  0  0  0  0  0  0  0  0
   59.6900   34.9030   48.6080 O   0  0  0  0  0  0  0  0  0  0  0  0
   60.3010   34.2210   49.6280 C   0  0  0  0  0  0  0  0  0  0  0  0
   59.5710   33.5320   50.5790 C   0  0  0  0  0  0  0  0  0  0  0  0
   60.2370   32.8690   51.5700 C   0  0  0  0  0  0  0  0  0  0  0  0
   61.6160   32.9020   51.6030 C   0  0  0  0  0  0  0  0  0  0  0  0
   62.3590   33.5820   50.6650 C   0  0  0  0  0  0  0  0  0  0  0  0
   61.6860   34.2500   49.6630 C   0  0  0  0  0  0  0  0  0  0  0  0
   59.6870   34.7170   46.2570 C   0  0  0  0  0  0  0  0  0  0  0  0
   59.2790   34.1890   45.0610 C   0  0  0  0  0  0  0  0  0  0  0  0
   58.5480   30.3950   44.1530 N   0  0  0  0  0  0  0  0  0  0  0  0
   62.7558   34.5497   46.0832 H   0  0  0  0  0  0  0  0  0  0  0  0
   64.4394   34.1092   46.8587 H   0  0  0  0  0  0  0  0  0  0  0  0
   63.0756   30.7435   47.8213 H   0  0  0  0  0  0  0  0  0  0  0  0
   60.5849   31.9433   48.5116 H   0  0  0  0  0  0  0  0  0  0  0  0
   60.5078   31.9844   46.7128 H   0  0  0  0  0  0  0  0  0  0  0  0
   60.3238   29.9499   49.6004 H   0  0  0  0  0  0  0  0  0  0  0  0
   58.8068   29.9352   48.6385 H   0  0  0  0  0  0  0  0  0  0  0  0
   59.8842   28.4979   48.6385 H   0  0  0  0  0  0  0  0  0  0  0  0
   60.0330   29.8260   45.5995 H   0  0  0  0  0  0  0  0  0  0  0  0
   61.7027   29.3542   46.0450 H   0  0  0  0  0  0  0  0  0  0  0  0
   61.0620   27.3031   46.6942 H   0  0  0  0  0  0  0  0  0  0  0  0
   59.6297   27.9857   47.6024 H   0  0  0  0  0  0  0  0  0  0  0  0
   59.5649   26.4209   45.2993 H   0  0  0  0  0  0  0  0  0  0  0  0
   58.2232   27.4139   46.0393 H   0  0  0  0  0  0  0  0  0  0  0  0
   56.8220   27.6130   43.8130 H   0  0  0  0  0  0  0  0  0  0  0  0
   55.0390   29.1105   43.2648 H   0  0  0  0  0  0  0  0  0  0  0  0
   55.5574   31.5666   43.2892 H   0  0  0  0  0  0  0  0  0  0  0  0
   57.0663   31.9111   46.2904 H   0  0  0  0  0  0  0  0  0  0  0  0
   57.8564   32.9185   48.4261 H   0  0  0  0  0  0  0  0  0  0  0  0
   58.4719   33.5181   50.5380 H   0  0  0  0  0  0  0  0  0  0  0  0
   59.6779   32.3125   52.3366 H   0  0  0  0  0  0  0  0  0  0  0  0
   62.1403   32.3657   52.4077 H   0  0  0  0  0  0  0  0  0  0  0  0
   63.4579   33.5925   50.7129 H   0  0  0  0  0  0  0  0  0  0  0  0
   62.2464   34.8033   48.8951 H   0  0  0  0  0  0  0  0  0  0  0  0
   60.4379   35.5208   46.2478 H   0  0  0  0  0  0  0  0  0  0  0  0
   59.6921   34.5580   44.1107 H   0  0  0  0  0  0  0  0  0  0  0  0
   59.4960   30.7360   44.3940 H   0  0  0  0  0  0  0  0  0  0  0  0
  1  2  2  0
  2  3  2  0
  3  4  1  0
  4  5  1  0
  5  6  1  0
  5  7  1  0
  7  8  1  0
  8  9  1  0
  9 10  1  0
 10 11  2  0
 11 12  1  0
 12 13  1  0
 13 14  2  0
 14 15  1  0
 15 16  2  0
 16 17  1  0
 17 18  2  0
 18 19  1  0
 19 20  2  0
 20 21  1  0
 21 22  1  0
 22 23  2  0
 23 24  1  0
 24 25  2  0
 25 26  1  0
 26 27  2  0
 20 28  1  0
 28 29  2  0
 15 30  1  0
 30 11  1  0
 29 17  1  0
 27 22  1  0
  1 31  1  0
  1 32  1  0
  3 33  1  0
  4 34  1  0
  4 35  1  0
  6 36  1  0
  6 37  1  0
  6 38  1  0
  7 39  1  0
  7 40  1  0
  8 41  1  0
  8 42  1  0
  9 43  1  0
  9 44  1  0
 12 45  1  0
 13 46  1  0
 14 47  1  0
 18 48  1  0
 19 49  1  0
 23 50  1  0
 24 51  1  0
 25 52  1  0
 26 53  1  0
 27 54  1  0
 28 55  1  0
 29 56  1  0
 30 57  1  0
M  END
>  <smiles>  (2) 
C=C=CCN(C)CCCN=c1[nH]ccc(=Nc2ccc(Oc3ccccc3)cc2)[nH]1

>  <score_type>  (2) 
oracle

>  <origin>  (2) 
adg

>  <m_score__min__energy>  (2) 
-7.7000000000000002

>  <m_primary>  (2) 
energy

$$$$
2:0
     RDKit          3D

 47 50  0  0  0  0  0  0  0  0999 V2000
   62.2890   33.4010   47.1530 C   0  0  0  0  0  0  0  0  0  0  0  0
   60.9230   33.7280   46.7650 N   0  0  0  0  0  0  0  0  0  0  0  0
   60.3770   34.9390   46.6900 N   0  0  0  0  0  0  0  0  0  0  0  0
   59.0870   34.8500   46.2940 C   0  0  0  0  0  0  0  0  0  0  0  0
   58.8450   33.5120   46.1240 C   0  0  0  0  0  0  0  0  0  0  0  0
   57.7290   32.7670   45.7350 C   0  0  0  0  0  0  0  0  0  0  0  0
   56.6730   33.3920   45.4630 O   0  0  0  0  0  0  0  0  0  0  0  0
   57.8120   31.4470   45.6650 N   0  0  0  0  0  0  0  0  0  0  0  0
   58.9340   30.7230   45.9490 C   0  0  0  0  0  0  0  0  0  0  0  0
   58.9940   29.2590   45.8670 C   0  0  0  0  0  0  0  0  0  0  0  0
   57.6910   28.6100   45.7060 N   0  0  0  0  0  0  0  0  0  0  0  0
   57.3630   28.5650   44.3220 C   0  0  0  0  0  0  0  0  0  0  0  0
   56.2860   29.4780   43.8240 C   0  0  0  0  0  0  0  0  0  0  0  0
   55.4670   29.9140   44.8880 O   0  0  0  0  0  0  0  0  0  0  0  0
   57.6240   27.4020   46.4200 C   0  0  0  0  0  0  0  0  0  0  0  0
   56.5220   26.4770   46.0310 C   0  0  0  0  0  0  0  0  0  0  0  0
   56.8340   25.2680   45.4520 N   0  0  0  0  0  0  0  0  0  0  0  0
   55.6930   24.6310   45.1980 C   0  0  0  0  0  0  0  0  0  0  0  0
   55.5960   23.2800   44.5640 C   0  0  0  0  0  0  0  0  0  0  0  0
   56.7000   23.0500   43.5840 C   0  0  0  0  0  0  0  0  0  0  0  0
   57.6490   21.8900   43.7390 C   0  0  0  0  0  0  0  0  0  0  0  0
   56.6130   21.9180   42.6410 C   0  0  0  0  0  0  0  0  0  0  0  0
   54.7110   25.4430   45.6190 N   0  0  0  0  0  0  0  0  0  0  0  0
   55.2460   26.5290   46.1080 O   0  0  0  0  0  0  0  0  0  0  0  0
   60.0030   31.4530   46.3240 N   0  0  0  0  0  0  0  0  0  0  0  0
   59.9880   32.7960   46.4160 C   0  0  0  0  0  0  0  0  0  0  0  0
   62.3642   33.3830   48.2503 H   0  0  0  0  0  0  0  0  0  0  0  0
   62.5579   32.4131   46.7508 H   0  0  0  0  0  0  0  0  0  0  0  0
   62.9761   34.1600   46.7508 H   0  0  0  0  0  0  0  0  0  0  0  0
   58.3798   35.6785   46.1405 H   0  0  0  0  0  0  0  0  0  0  0  0
   59.6226   28.9878   45.0060 H   0  0  0  0  0  0  0  0  0  0  0  0
   59.4050   28.9067   46.8246 H   0  0  0  0  0  0  0  0  0  0  0  0
   58.2788   28.8032   43.7611 H   0  0  0  0  0  0  0  0  0  0  0  0
   56.9580   27.5538   44.1688 H   0  0  0  0  0  0  0  0  0  0  0  0
   56.7484   30.3526   43.3430 H   0  0  0  0  0  0  0  0  0  0  0  0
   55.6637   28.9286   43.1022 H   0  0  0  0  0  0  0  0  0  0  0  0
   56.1300   30.1080   45.6190 H   0  0  0  0  0  0  0  0  0  0  0  0
   58.5766   26.8714   46.2750 H   0  0  0  0  0  0  0  0  0  0  0  0
   57.4221   27.6837   47.4640 H   0  0  0  0  0  0  0  0  0  0  0  0
   55.6511   22.5124   45.3500 H   0  0  0  0  0  0  0  0  0  0  0  0
   54.6396   23.2222   44.0236 H   0  0  0  0  0  0  0  0  0  0  0  0
   56.8322   24.1379   43.4897 H   0  0  0  0  0  0  0  0  0  0  0  0
   58.7154   22.0107   43.4976 H   0  0  0  0  0  0  0  0  0  0  0  0
   57.9167   21.1963   44.5496 H   0  0  0  0  0  0  0  0  0  0  0  0
   56.9262   22.0505   41.5949 H   0  0  0  0  0  0  0  0  0  0  0  0
   55.8095   21.2401   42.3171 H   0  0  0  0  0  0  0  0  0  0  0  0
   60.9370   31.0050   46.5730 H   0  0  0  0  0  0  0  0  0  0  0  0
  1  2  1  0
  2  3  1  0
  3  4  2  0
  4  5  1  0
  5  6  1  0
  6  7  2  0
  6  8  1  0
  8  9  2  0
  9 10  1  0
 10 11  1  0
 11 12  1  0
 12 13  1  0
 13 14  1  0
 11 15  1  0
 15 16  1  0
 16 17  2  0
 17 18  1  0
 18 19  1  0
 19 20  1  0
 20 21  1  0
 21 22  1  0
 18 23  2  0
 23 24  1  0
  9 25  1  0
 25 26  1  0
 26  2  1  0
 26  5  2  0
 24 16  1  0
 22 20  1  0
  1 27  1  0
  1 28  1  0
  1 29  1  0
  4 30  1  0
 10 31  1  0
 10 32  1  0
 12 33  1  0
 12 34  1  0
 13 35  1  0
 13 36  1  0
 14 37  1  0
 15 38  1  0
 15 39  1  0
 19 40  1  0
 19 41  1  0
 20 42  1  0
 21 43  1  0
 21 44  1  0
 22 45  1  0
 22 46  1  0
 25 47  1  0
M  END
>  <smiles>  (3) 
Cn1ncc2c(=O)nc(CN(CCO)Cc3nc(CC4CC4)no3)[nH]c21

>  <score_type>  (3) 
oracle

>  <origin>  (3) 
adg

>  <m_score__min__energy>  (3) 
-9.1500000000000004

>  <m_primary>  (3) 
energy

$$$$
3:0
     RDKit          3D

 20 21  0  0  0  0  0  0  0  0999 V2000
   59.4290   25.1030   46.3310 O   0  0  0  0  0  0  0  0  0  0  0  0
   58.6850   26.0850   46.5280 N   0  0  0  0  0  0  0  0  0  0  0  0
   59.1980   27.1930   47.1600 O   0  0  0  0  0  0  0  0  0  0  0  0
   57.2780   25.9760   46.2770 C   0  0  0  0  0  0  0  0  0  0  0  0
   56.4760   24.9100   46.6180 C   0  0  0  0  0  0  0  0  0  0  0  0
   55.1940   25.2340   46.3630 N   0  0  0  0  0  0  0  0  0  0  0  0
   55.1540   26.4630   45.8680 N   0  0  0  0  0  0  0  0  0  0  0  0
   56.4110   26.9440   45.7990 C   0  0  0  0  0  0  0  0  0  0  0  0
   56.7340   28.2720   45.2390 C   0  0  0  0  0  0  0  0  0  0  0  0
   58.0470   28.5890   44.8570 C   0  0  0  0  0  0  0  0  0  0  0  0
   58.3170   29.8390   44.2990 C   0  0  0  0  0  0  0  0  0  0  0  0
   57.2820   30.7540   44.1110 C   0  0  0  0  0  0  0  0  0  0  0  0
   55.9840   30.4000   44.4780 C   0  0  0  0  0  0  0  0  0  0  0  0
   55.7330   29.1770   45.0220 N   0  0  0  0  0  0  0  0  0  0  0  0
   56.8249   23.9519   47.0306 H   0  0  0  0  0  0  0  0  0  0  0  0
   58.8567   27.8576   44.9965 H   0  0  0  0  0  0  0  0  0  0  0  0
   59.3446   30.1021   44.0079 H   0  0  0  0  0  0  0  0  0  0  0  0
   57.4870   31.7442   43.6780 H   0  0  0  0  0  0  0  0  0  0  0  0
   55.1591   31.1119   44.3274 H   0  0  0  0  0  0  0  0  0  0  0  0
   54.7500   28.9400   45.2860 H   0  0  0  0  0  0  0  0  0  0  0  0
  1  2  2  0
  2  3  1  0
  2  4  1  0
  4  5  1  0
  5  6  2  0
  6  7  1  0
  7  8  1  0
  8  9  1  0
  9 10  2  0
 10 11  1  0
 11 12  2  0
 12 13  1  0
 13 14  2  0
  8  4  2  0
 14  9  1  0
  5 15  1  0
 10 16  1  0
 11 17  1  0
 12 18  1  0
 13 19  1  0
 14 20  1  0
M  CHG  4   2   1   3  -1   7  -1  14   1
M  END
>  <UniqueID>  (4) 
2

>  <SMILES>  (4) 
O=[N+]([O-])c1cn[n-]c1-c1cccc[nH+]1

>  <Energy>  (4) 
57.734798249232675

>  <Genealogy>  (4) 
O=[N+]([O-])c1cn[n-]c1-c1cccc[nH+]1 (protonated)
O=[N+]([O-])c1cn[n-]c1-c1cccc[nH+]1 (3D coordinates assigned)
O=[N+]([O-])c1cn[n-]c1-c1cccc[nH+]1 (optimized conformer: 57.734798249232675 kcal/mol)

>  <smiles>  (4) 
O=[N+]([O-])c1cn[nH]c1-c1ccccn1

>  <score_type>  (4) 
oracle

>  <origin>  (4) 
adg

>  <m_score__min__energy>  (4) 
-6.3399999999999999

>  <m_primary>  (4) 
energy

$$$$
4:0
     RDKit          3D

 39 42  0  0  0  0  0  0  0  0999 V2000
   65.5640   33.0950   49.3900 N   0  0  0  0  0  0  0  0  0  0  0  0
   64.4450   32.9680   48.9940 C   0  0  0  0  0  0  0  0  0  0  0  0
   63.8690   32.6070   47.8160 N   0  0  0  0  0  0  0  0  0  0  0  0
   62.6340   32.5630   47.6980 N   0  0  0  0  0  0  0  0  0  0  0  0
   61.7350   32.8370   48.6170 C   0  0  0  0  0  0  0  0  0  0  0  0
   60.3230   32.8680   48.7490 C   0  0  0  0  0  0  0  0  0  0  0  0
   59.5400   32.2320   47.7350 N   0  0  0  0  0  0  0  0  0  0  0  0
   59.2920   30.8940   47.5890 C   0  0  0  0  0  0  0  0  0  0  0  0
   59.9670   29.6970   48.7250 S   0  0  0  0  0  0  0  0  0  0  0  0
   59.9540   28.0180   48.1160 C   0  0  0  0  0  0  0  0  0  0  0  0
   59.2370   27.9560   46.8200 C   0  0  0  0  0  0  0  0  0  0  0  0
   59.8440   28.1120   45.5960 C   0  0  0  0  0  0  0  0  0  0  0  0
   59.1560   28.0570   44.4010 C   0  0  0  0  0  0  0  0  0  0  0  0
   57.8020   27.8340   44.4520 C   0  0  0  0  0  0  0  0  0  0  0  0
   57.1780   27.6750   45.6640 C   0  0  0  0  0  0  0  0  0  0  0  0
   55.8240   27.4560   45.6290 F   0  0  0  0  0  0  0  0  0  0  0  0
   57.8600   27.7300   46.8520 C   0  0  0  0  0  0  0  0  0  0  0  0
   58.5250   30.7530   46.5210 N   0  0  0  0  0  0  0  0  0  0  0  0
   58.2600   31.9360   45.9630 C   0  0  0  0  0  0  0  0  0  0  0  0
   57.5190   32.2980   44.8570 C   0  0  0  0  0  0  0  0  0  0  0  0
   57.4050   33.6280   44.4890 C   0  0  0  0  0  0  0  0  0  0  0  0
   58.0610   34.5550   45.2790 C   0  0  0  0  0  0  0  0  0  0  0  0
   58.7980   34.1840   46.3830 C   0  0  0  0  0  0  0  0  0  0  0  0
   58.9120   32.8680   46.7460 C   0  0  0  0  0  0  0  0  0  0  0  0
   62.9000   33.2780   50.0480 S   0  0  0  0  0  0  0  0  0  0  0  0
   66.3940   33.0640   48.7280 H   0  0  0  0  0  0  0  0  0  0  0  0
   64.5560   32.3670   47.0080 H   0  0  0  0  0  0  0  0  0  0  0  0
   60.0732   32.3860   49.7057 H   0  0  0  0  0  0  0  0  0  0  0  0
   60.0628   33.9338   48.6692 H   0  0  0  0  0  0  0  0  0  0  0  0
   60.9891   27.6726   47.9769 H   0  0  0  0  0  0  0  0  0  0  0  0
   59.4410   27.3729   48.8445 H   0  0  0  0  0  0  0  0  0  0  0  0
   60.9293   28.2890   45.5681 H   0  0  0  0  0  0  0  0  0  0  0  0
   59.6748   28.1874   43.4398 H   0  0  0  0  0  0  0  0  0  0  0  0
   57.2175   27.7828   43.5215 H   0  0  0  0  0  0  0  0  0  0  0  0
   57.3338   27.5990   47.8090 H   0  0  0  0  0  0  0  0  0  0  0  0
   57.0140   31.5228   44.2619 H   0  0  0  0  0  0  0  0  0  0  0  0
   56.8198   33.9334   43.6091 H   0  0  0  0  0  0  0  0  0  0  0  0
   57.9923   35.6214   45.0179 H   0  0  0  0  0  0  0  0  0  0  0  0
   59.3025   34.9566   46.9819 H   0  0  0  0  0  0  0  0  0  0  0  0
  1  2  2  3
  2  3  1  0
  3  4  1  0
  4  5  2  0
  5  6  1  0
  6  7  1  0
  7  8  1  0
  8  9  1  0
  9 10  1  0
 10 11  1  0
 11 12  2  0
 12 13  1  0
 13 14  2  0
 14 15  1  0
 15 16  1  0
 15 17  2  0
  8 18  2  0
 18 19  1  0
 19 20  2  0
 20 21  1  0
 21 22  2  0
 22 23  1  0
 23 24  2  0
  5 25  1  0
 25  2  1  0
 24  7  1  0
 17 11  1  0
 24 19  1  0
  1 26  1  0
  3 27  1  0
  6 28  1  0
  6 29  1  0
 10 30  1  0
 10 31  1  0
 12 32  1  0
 13 33  1  0
 14 34  1  0
 17 35  1  0
 20 36  1  0
 21 37  1  0
 22 38  1  0
 23 39  1  0
M  END
>  <smiles>  (5) 
N=c1[nH]nc(Cn2c(SCc3cccc(F)c3)nc3ccccc32)s1

>  <score_type>  (5) 
oracle

>  <origin>  (5) 
adg

>  <m_score__min__energy>  (5) 
-7.8799999999999999

>  <m_primary>  (5) 
energy

$$$$
5:0
     RDKit          3D

 43 45  0  0  0  0  0  0  0  0999 V2000
   58.0670   32.3420   42.9690 C   0  0  0  0  0  0  0  0  0  0  0  0
   58.5640   33.4820   43.7430 N   0  0  0  0  0  0  0  0  0  0  0  0
   57.8790   33.5960   45.0500 C   0  0  0  0  0  0  0  0  0  0  0  0
   58.7610   33.2310   46.2750 C   0  0  2  0  0  0  0  0  0  0  0  0
   58.5430   31.7700   46.7510 C   0  0  0  0  0  0  0  0  0  0  0  0
   57.7110   31.0450   45.8400 O   0  0  0  0  0  0  0  0  0  0  0  0
   58.0430   29.8620   45.1540 C   0  0  0  0  0  0  0  0  0  0  0  0
   59.2790   29.2080   45.3130 C   0  0  0  0  0  0  0  0  0  0  0  0
   59.5430   28.0320   44.6120 C   0  0  0  0  0  0  0  0  0  0  0  0
   58.5760   27.5130   43.7530 C   0  0  0  0  0  0  0  0  0  0  0  0
   57.3880   28.1540   43.5950 N   0  0  0  0  0  0  0  0  0  0  0  0
   57.1020   29.3120   44.2630 C   0  0  0  0  0  0  0  0  0  0  0  0
   55.7510   29.9500   44.1040 C   0  0  0  0  0  0  0  0  0  0  0  0
   58.4940   34.2170   47.4480 C   0  0  0  0  0  0  0  0  0  0  0  0
   59.5110   34.1100   48.4480 O   0  0  0  0  0  0  0  0  0  0  0  0
   60.8510   33.9360   48.0960 C   0  0  0  0  0  0  0  0  0  0  0  0
   61.8680   34.1070   49.0400 C   0  0  0  0  0  0  0  0  0  0  0  0
   63.2060   33.9610   48.6550 C   0  0  0  0  0  0  0  0  0  0  0  0
   63.5230   33.6410   47.3300 C   0  0  0  0  0  0  0  0  0  0  0  0
   62.5030   33.4520   46.3890 C   0  0  0  0  0  0  0  0  0  0  0  0
   61.1680   33.5840   46.7790 C   0  0  0  0  0  0  0  0  0  0  0  0
   60.1310   33.3650   45.8650 O   0  0  0  0  0  0  0  0  0  0  0  0
   57.7236   31.5543   43.6557 H   0  0  0  0  0  0  0  0  0  0  0  0
   57.2288   32.6667   42.3350 H   0  0  0  0  0  0  0  0  0  0  0  0
   58.8754   31.9489   42.3350 H   0  0  0  0  0  0  0  0  0  0  0  0
   59.5940   33.3600   43.8500 H   0  0  0  0  0  0  0  0  0  0  0  0
   57.5384   34.6351   45.1696 H   0  0  0  0  0  0  0  0  0  0  0  0
   57.0521   32.8707   45.0334 H   0  0  0  0  0  0  0  0  0  0  0  0
   59.5187   31.2672   46.8229 H   0  0  0  0  0  0  0  0  0  0  0  0
   58.0449   31.7950   47.7314 H   0  0  0  0  0  0  0  0  0  0  0  0
   60.0379   29.6252   45.9913 H   0  0  0  0  0  0  0  0  0  0  0  0
   60.5074   27.5177   44.7360 H   0  0  0  0  0  0  0  0  0  0  0  0
   58.7748   26.5822   43.2015 H   0  0  0  0  0  0  0  0  0  0  0  0
   56.6800   27.7330   42.9510 H   0  0  0  0  0  0  0  0  0  0  0  0
   55.3221   30.1526   45.0965 H   0  0  0  0  0  0  0  0  0  0  0  0
   55.8545   30.8944   43.5496 H   0  0  0  0  0  0  0  0  0  0  0  0
   55.0874   29.2701   43.5496 H   0  0  0  0  0  0  0  0  0  0  0  0
   58.4799   35.2453   47.0576 H   0  0  0  0  0  0  0  0  0  0  0  0
   57.5253   33.9652   47.9044 H   0  0  0  0  0  0  0  0  0  0  0  0
   61.6176   34.3555   50.0819 H   0  0  0  0  0  0  0  0  0  0  0  0
   64.0088   34.0979   49.3945 H   0  0  0  0  0  0  0  0  0  0  0  0
   64.5754   33.5377   47.0270 H   0  0  0  0  0  0  0  0  0  0  0  0
   62.7520   33.2007   45.3474 H   0  0  0  0  0  0  0  0  0  0  0  0
  1  2  1  0
  2  3  1  0
  4  3  1  6
  4  5  1  0
  5  6  1  0
  6  7  1  0
  7  8  2  0
  8  9  1  0
  9 10  2  0
 10 11  1  0
 11 12  2  0
 12 13  1  0
  4 14  1  0
 14 15  1  0
 15 16  1  0
 16 17  2  0
 17 18  1  0
 18 19  2  0
 19 20  1  0
 20 21  2  0
 21 22  1  0
 22  4  1  0
 12  7  1  0
 21 16  1  0
  1 23  1  0
  1 24  1  0
  1 25  1  0
  2 26  1  0
  3 27  1  0
  3 28  1  0
  5 29  1  0
  5 30  1  0
  8 31  1  0
  9 32  1  0
 10 33  1  0
 11 34  1  0
 13 35  1  0
 13 36  1  0
 13 37  1  0
 14 38  1  0
 14 39  1  0
 17 40  1  0
 18 41  1  0
 19 42  1  0
 20 43  1  0
M  CHG  1  11   1
M  END
>  <UniqueID>  (6) 
3

>  <SMILES>  (6) 
CNC[C@]1(COc2ccc[nH+]c2C)COc2ccccc2O1

>  <Energy>  (6) 
50.46880750669246

>  <Genealogy>  (6) 
CNCC1(COc2ccc[nH+]c2C)COc2ccccc2O1 (protonated)
CNC[C@]1(COc2ccc[nH+]c2C)COc2ccccc2O1 (chirality)
CNC[C@]1(COc2ccc[nH+]c2C)COc2ccccc2O1 (3D coordinates assigned)
CNC[C@]1(COc2ccc[nH+]c2C)COc2ccccc2O1 (nonaromatic ring conformer: 50.46880750669246 kcal/mol)

>  <smiles>  (6) 
CNCC1(COc2cccnc2C)COc2ccccc2O1

>  <score_type>  (6) 
oracle

>  <origin>  (6) 
adg

>  <m_score__min__energy>  (6) 
-6.2300000000000004

>  <m_primary>  (6) 
energy

$$$$
6:0
     RDKit          3D

 42 44  0  0  0  0  0  0  0  0999 V2000
   59.2510   34.9960   45.2870 C   0  0  0  0  0  0  0  0  0  0  0  0
   59.6190   33.7620   45.6610 C   0  0  0  0  0  0  0  0  0  0  0  0
   59.8910   33.3610   47.1060 C   0  0  1  0  0  0  0  0  0  0  0  0
   59.9150   34.5770   48.0130 C   0  0  0  0  0  0  0  0  0  0  0  0
   59.6800   34.4860   49.2080 O   0  0  0  0  0  0  0  0  0  0  0  0
   58.7690   32.4640   47.6000 C   0  0  0  0  0  0  0  0  0  0  0  0
   58.9200   31.1500   47.7100 C   0  0  0  0  0  0  0  0  0  0  0  0
   60.1930   30.5500   47.4650 N   0  0  0  0  0  0  0  0  0  0  0  0
   60.3060   29.0970   47.3100 C   0  0  0  0  0  0  0  0  0  0  0  0
   60.5940   28.7190   45.8510 C   0  0  0  0  0  0  0  0  0  0  0  0
   59.3270   28.4920   45.0760 C   0  0  0  0  0  0  0  0  0  0  0  0
   58.8190   27.2610   44.6720 C   0  0  0  0  0  0  0  0  0  0  0  0
   57.7420   27.4330   43.8730 N   0  0  0  0  0  0  0  0  0  0  0  0
   57.5720   28.7610   43.7610 C   0  0  0  0  0  0  0  0  0  0  0  0
   56.6070   29.4280   43.0070 C   0  0  0  0  0  0  0  0  0  0  0  0
   56.6360   30.8350   43.0000 C   0  0  0  0  0  0  0  0  0  0  0  0
   57.6200   31.5350   43.7330 C   0  0  0  0  0  0  0  0  0  0  0  0
   58.5830   30.8350   44.4830 C   0  0  0  0  0  0  0  0  0  0  0  0
   58.5240   29.4420   44.4780 C   0  0  0  0  0  0  0  0  0  0  0  0
   61.3410   31.3870   47.2800 C   0  0  0  0  0  0  0  0  0  0  0  0
   61.2200   32.6840   47.1570 N   0  0  0  0  0  0  0  0  0  0  0  0
   62.4510   33.4580   46.9250 C   0  0  0  0  0  0  0  0  0  0  0  0
   59.0703   35.2178   44.2249 H   0  0  0  0  0  0  0  0  0  0  0  0
   59.1298   35.7864   46.0423 H   0  0  0  0  0  0  0  0  0  0  0  0
   59.7310   32.9953   44.8802 H   0  0  0  0  0  0  0  0  0  0  0  0
   60.1493   35.5627   47.5847 H   0  0  0  0  0  0  0  0  0  0  0  0
   57.8044   32.9161   47.8742 H   0  0  0  0  0  0  0  0  0  0  0  0
   58.0623   30.5211   47.9907 H   0  0  0  0  0  0  0  0  0  0  0  0
   61.1261   28.7305   47.9449 H   0  0  0  0  0  0  0  0  0  0  0  0
   59.3519   28.6380   47.6085 H   0  0  0  0  0  0  0  0  0  0  0  0
   61.1610   29.5337   45.3768 H   0  0  0  0  0  0  0  0  0  0  0  0
   61.1714   27.7828   45.8466 H   0  0  0  0  0  0  0  0  0  0  0  0
   59.2353   26.2850   44.9620 H   0  0  0  0  0  0  0  0  0  0  0  0
   57.1780   26.6830   43.4150 H   0  0  0  0  0  0  0  0  0  0  0  0
   55.8480   28.8726   42.4364 H   0  0  0  0  0  0  0  0  0  0  0  0
   55.8870   31.3937   42.4196 H   0  0  0  0  0  0  0  0  0  0  0  0
   57.6335   32.6348   43.7174 H   0  0  0  0  0  0  0  0  0  0  0  0
   59.3566   31.3690   45.0543 H   0  0  0  0  0  0  0  0  0  0  0  0
   62.3414   30.9313   47.2407 H   0  0  0  0  0  0  0  0  0  0  0  0
   62.8959   33.7377   47.8914 H   0  0  0  0  0  0  0  0  0  0  0  0
   63.1664   32.8469   46.3552 H   0  0  0  0  0  0  0  0  0  0  0  0
   62.2103   34.3676   46.3552 H   0  0  0  0  0  0  0  0  0  0  0  0
  1  2  2  0
  3  2  1  6
  3  4  1  0
  4  5  2  0
  3  6  1  0
  6  7  2  0
  7  8  1  0
  8  9  1  0
  9 10  1  0
 10 11  1  0
 11 12  2  0
 12 13  1  0
 13 14  1  0
 14 15  2  0
 15 16  1  0
 16 17  2  0
 17 18  1  0
 18 19  2  0
  8 20  1  0
 20 21  2  0
 21 22  1  0
 21  3  1  0
 19 11  1  0
 19 14  1  0
  1 23  1  0
  1 24  1  0
  2 25  1  0
  4 26  1  0
  6 27  1  0
  7 28  1  0
  9 29  1  0
  9 30  1  0
 10 31  1  0
 10 32  1  0
 12 33  1  0
 13 34  1  0
 15 35  1  0
 16 36  1  0
 17 37  1  0
 18 38  1  0
 20 39  1  0
 22 40  1  0
 22 41  1  0
 22 42  1  0
M  CHG  1  21   1
M  END
>  <UniqueID>  (7) 
4

>  <SMILES>  (7) 
C=C[C@@]1(C=O)C=CN(CCc2c[nH]c3ccccc23)C=[N+]1C

>  <Energy>  (7) 
72.87241292245493

>  <Genealogy>  (7) 
C=C[C@@]1(C=O)C=CN(CCc2c[nH]c3ccccc23)C=[N+]1C (chirality)
C=C[C@@]1(C=O)C=CN(CCc2c[nH]c3ccccc23)C=[N+]1C (3D coordinates assigned)
C=C[C@@]1(C=O)C=CN(CCc2c[nH]c3ccccc23)C=[N+]1C (nonaromatic ring conformer: 72.87241292245493 kcal/mol)

>  <smiles>  (7) 
C=CC1(C=O)C=CN(CCc2c[nH]c3ccccc23)C=[N+]1C

>  <score_type>  (7) 
oracle

>  <origin>  (7) 
adg

>  <m_score__min__energy>  (7) 
-6.8399999999999999

>  <m_primary>  (7) 
energy

$$$$
7:0
     RDKit          3D

 36 38  0  0  0  0  0  0  0  0999 V2000
   56.1230   23.5110   44.6510 C   0  0  0  0  0  0  0  0  0  0  0  0
   55.6810   23.2770   46.0910 C   0  0  0  0  0  0  0  0  0  0  0  0
   55.9020   24.4430   46.8810 O   0  0  0  0  0  0  0  0  0  0  0  0
   55.9880   25.7360   46.3460 C   0  0  0  0  0  0  0  0  0  0  0  0
   54.9420   26.3420   45.9850 O   0  0  0  0  0  0  0  0  0  0  0  0
   57.3100   26.3850   46.1990 C   0  0  0  0  0  0  0  0  0  0  0  0
   58.4480   25.8170   46.7960 C   0  0  0  0  0  0  0  0  0  0  0  0
   59.6960   26.4300   46.6660 C   0  0  0  0  0  0  0  0  0  0  0  0
   59.8250   27.6120   45.9350 C   0  0  0  0  0  0  0  0  0  0  0  0
   58.7020   28.1870   45.3120 C   0  0  0  0  0  0  0  0  0  0  0  0
   58.8060   29.4130   44.5700 N   0  0  0  0  0  0  0  0  0  0  0  0
   58.1620   30.6380   44.9480 C   0  0  0  0  0  0  0  0  0  0  0  0
   58.6490   31.6340   45.6780 C   0  0  0  0  0  0  0  0  0  0  0  0
   59.8880   31.7590   46.3140 C   0  0  0  0  0  0  0  0  0  0  0  0
   60.1570   32.9470   47.0150 C   0  0  0  0  0  0  0  0  0  0  0  0
   59.2040   33.9850   47.0570 C   0  0  0  0  0  0  0  0  0  0  0  0
   57.9770   33.8530   46.3880 C   0  0  0  0  0  0  0  0  0  0  0  0
   57.7210   32.6700   45.6940 C   0  0  0  0  0  0  0  0  0  0  0  0
   56.6530   32.4340   44.9950 N   0  0  0  0  0  0  0  0  0  0  0  0
   56.8870   31.1320   44.4690 C   0  0  0  0  0  0  0  0  0  0  0  0
   56.0920   30.5230   43.7070 O   0  0  0  0  0  0  0  0  0  0  0  0
   57.4480   27.5770   45.4630 C   0  0  0  0  0  0  0  0  0  0  0  0
   57.0952   24.0257   44.6449 H   0  0  0  0  0  0  0  0  0  0  0  0
   56.2166   22.5443   44.1345 H   0  0  0  0  0  0  0  0  0  0  0  0
   55.3762   24.1319   44.1345 H   0  0  0  0  0  0  0  0  0  0  0  0
   54.6093   23.0295   46.1042 H   0  0  0  0  0  0  0  0  0  0  0  0
   56.2690   22.4479   46.5115 H   0  0  0  0  0  0  0  0  0  0  0  0
   58.3553   24.8831   47.3697 H   0  0  0  0  0  0  0  0  0  0  0  0
   60.5801   25.9799   47.1412 H   0  0  0  0  0  0  0  0  0  0  0  0
   60.8087   28.0961   45.8456 H   0  0  0  0  0  0  0  0  0  0  0  0
   59.3100   29.3960   43.6550 H   0  0  0  0  0  0  0  0  0  0  0  0
   60.6316   30.9498   46.2669 H   0  0  0  0  0  0  0  0  0  0  0  0
   61.1188   33.0679   47.5350 H   0  0  0  0  0  0  0  0  0  0  0  0
   59.4235   34.9052   47.6182 H   0  0  0  0  0  0  0  0  0  0  0  0
   57.2341   34.6639   46.4104 H   0  0  0  0  0  0  0  0  0  0  0  0
   56.5615   28.0357   45.0006 H   0  0  0  0  0  0  0  0  0  0  0  0
  1  2  1  0
  2  3  1  0
  3  4  1  0
  4  5  2  0
  4  6  1  0
  6  7  2  0
  7  8  1  0
  8  9  2  0
  9 10  1  0
 10 11  1  0
 11 12  1  0
 12 13  2  0
 13 14  1  0
 14 15  2  0
 15 16  1  0
 16 17  2  0
 17 18  1  0
 18 19  2  0
 19 20  1  0
 20 21  2  0
 10 22  2  0
 22  6  1  0
 20 12  1  0
 18 13  1  0
  1 23  1  0
  1 24  1  0
  1 25  1  0
  2 26  1  0
  2 27  1  0
  7 28  1  0
  8 29  1  0
  9 30  1  0
 11 31  1  0
 14 32  1  0
 15 33  1  0
 16 34  1  0
 17 35  1  0
 22 36  1  0
M  END
>  <UniqueID>  (8) 
5

>  <SMILES>  (8) 
CCOC(=O)c1cccc(NC2=c3ccccc3=NC2=O)c1

>  <Energy>  (8) 
74.41220766722685

>  <Genealogy>  (8) 
CCOC(=O)c1cccc(NC2=c3ccccc3=NC2=O)c1 (3D coordinates assigned)
CCOC(=O)c1cccc(NC2=c3ccccc3=NC2=O)c1 (nonaromatic ring conformer: 74.41220766722685 kcal/mol)

>  <smiles>  (8) 
CCOC(=O)c1cccc(NC2=c3ccccc3=NC2=O)c1

>  <score_type>  (8) 
oracle

>  <origin>  (8) 
adg

>  <m_score__min__energy>  (8) 
-7.9100000000000001

>  <m_primary>  (8) 
energy

$$$$
8:0
     RDKit          3D

 47 48  0  0  1  0  0  0  0  0999 V2000
   57.7040   31.9670   42.4880 C   0  0  0  0  0  0  0  0  0  0  0  0
   56.6560   30.8530   42.5900 C   0  0  0  0  0  0  0  0  0  0  0  0
   56.9660   30.0870   43.8080 C   0  0  0  0  0  0  0  0  0  0  0  0
   56.2910   30.3280   44.8640 O   0  0  0  0  0  0  0  0  0  0  0  0
   57.9860   29.0930   43.8520 N   0  0  0  0  0  0  0  0  0  0  0  0
   58.1690   28.4340   45.1100 C   0  0  0  0  0  0  0  0  0  0  0  0
   57.6900   27.1270   45.1820 C   0  0  0  0  0  0  0  0  0  0  0  0
   57.8420   26.4480   46.3720 C   0  0  0  0  0  0  0  0  0  0  0  0
   58.4560   27.0830   47.4360 C   0  0  0  0  0  0  0  0  0  0  0  0
   58.9270   28.3910   47.3420 C   0  0  0  0  0  0  0  0  0  0  0  0
   59.5620   28.9580   48.5420 C   0  0  0  0  0  0  0  0  0  0  0  0
   59.0260   30.2670   48.9100 N   0  0  0  0  0  0  0  0  0  0  0  0
   59.4160   31.3040   48.2510 C   0  0  0  0  0  0  0  0  0  0  0  0
   58.5550   31.8960   47.4070 N   0  0  0  0  0  0  0  0  0  0  0  0
   58.9640   32.9750   46.7230 C   0  0  0  0  0  0  0  0  0  0  0  0
   57.9820   33.6150   45.7890 C   0  0  0  0  0  0  0  0  0  0  0  0
   60.2140   33.4960   46.8460 N   0  0  0  0  0  0  0  0  0  0  0  0
   61.1300   32.9340   47.6910 C   0  0  0  0  0  0  0  0  0  0  0  0
   62.3930   33.5200   47.7660 N   0  0  0  0  0  0  0  0  0  0  0  0
   62.7270   34.2110   49.0210 C   0  0  0  0  0  0  0  0  0  0  0  0
   63.4130   33.5230   46.7500 C   0  0  0  0  0  0  0  0  0  0  0  0
   60.6970   31.8320   48.3820 C   0  0  0  0  0  0  0  0  0  0  0  0
   61.5710   31.1690   49.2890 C   0  0  0  0  0  0  0  0  0  0  0  0
   62.2880   30.6490   50.0120 N   0  0  0  0  0  0  0  0  0  0  0  0
   58.7740   29.0680   46.1490 C   0  0  0  0  0  0  0  0  0  0  0  0
   58.0020   32.2837   43.4984 H   0  0  0  0  0  0  0  0  0  0  0  0
   58.5852   31.5929   41.9462 H   0  0  0  0  0  0  0  0  0  0  0  0
   57.2769   32.8238   41.9462 H   0  0  0  0  0  0  0  0  0  0  0  0
   55.6478   31.2871   42.6621 H   0  0  0  0  0  0  0  0  0  0  0  0
   56.6799   30.2063   41.7005 H   0  0  0  0  0  0  0  0  0  0  0  0
   58.5560   28.8740   43.0050 H   0  0  0  0  0  0  0  0  0  0  0  0
   57.2057   26.6521   44.3160 H   0  0  0  0  0  0  0  0  0  0  0  0
   57.4796   25.4144   46.4739 H   0  0  0  0  0  0  0  0  0  0  0  0
   58.5761   26.5394   48.3847 H   0  0  0  0  0  0  0  0  0  0  0  0
   59.4034   28.2659   49.3822 H   0  0  0  0  0  0  0  0  0  0  0  0
   60.6299   29.0927   48.3154 H   0  0  0  0  0  0  0  0  0  0  0  0
   57.2003   34.1245   46.3716 H   0  0  0  0  0  0  0  0  0  0  0  0
   58.5029   34.3476   45.1550 H   0  0  0  0  0  0  0  0  0  0  0  0
   57.5221   32.8427   45.1550 H   0  0  0  0  0  0  0  0  0  0  0  0
   60.4120   34.3270   46.2690 H   0  0  0  0  0  0  0  0  0  0  0  0
   62.4252   33.5866   49.8749 H   0  0  0  0  0  0  0  0  0  0  0  0
   63.8114   34.3907   49.0633 H   0  0  0  0  0  0  0  0  0  0  0  0
   62.1941   35.1724   49.0633 H   0  0  0  0  0  0  0  0  0  0  0  0
   64.4047   33.5259   47.2260 H   0  0  0  0  0  0  0  0  0  0  0  0
   63.3095   32.6245   46.1238 H   0  0  0  0  0  0  0  0  0  0  0  0
   63.3042   34.4208   46.1238 H   0  0  0  0  0  0  0  0  0  0  0  0
   59.1350   30.1015   46.0410 H   0  0  0  0  0  0  0  0  0  0  0  0
  1  2  1  0
  2  3  1  0
  3  4  2  0
  3  5  1  0
  5  6  1  0
  6  7  2  0
  7  8  1  0
  8  9  2  0
  9 10  1  0
 10 11  1  0
 11 12  1  0
 12 13  2  0
 13 14  1  0
 14 15  2  0
 15 16  1  0
 15 17  1  0
 17 18  1  0
 18 19  1  0
 19 20  1  0
 19 21  1  0
 18 22  2  0
 22 23  1  0
 23 24  3  0
 10 25  2  0
 25  6  1  0
 22 13  1  0
  1 26  1  0
  1 27  1  0
  1 28  1  0
  2 29  1  0
  2 30  1  0
  5 31  1  0
  7 32  1  0
  8 33  1  0
  9 34  1  0
 11 35  1  0
 11 36  1  0
 16 37  1  0
 16 38  1  0
 16 39  1  0
 17 40  1  0
 20 41  1  0
 20 42  1  0
 20 43  1  0
 21 44  1  0
 21 45  1  0
 21 46  1  0
 25 47  1  0
M  END
>  <smiles>  (9) 
CCC(=O)Nc1cccc(CN=c2nc(C)[nH]c(N(C)C)c2C#N)c1

>  <score_type>  (9) 
oracle

>  <origin>  (9) 
adg

>  <m_score__min__energy>  (9) 
-7.2199999999999998

>  <m_primary>  (9) 
energy

$$$$
9:0
     RDKit          3D

 45 47  0  0  0  0  0  0  0  0999 V2000
   55.5697   25.3998   46.1084 H   0  0  0  0  0  0  0  0  0  0  0  0
   56.2900   26.2310   46.0930 C   0  0  0  0  0  0  0  0  0  0  0  0
   55.9060   27.4530   45.6470 N   0  0  0  0  0  0  0  0  0  0  0  0
   56.7500   28.5200   45.5910 C   0  0  0  0  0  0  0  0  0  0  0  0
   56.2290   29.6660   45.2380 N   0  0  0  0  0  0  0  0  0  0  0  0
   56.7750   30.7100   44.4210 C   0  0  0  0  0  0  0  0  0  0  0  0
   56.8010   30.5950   43.0220 C   0  0  0  0  0  0  0  0  0  0  0  0
   56.3542   29.7154   42.5355 H   0  0  0  0  0  0  0  0  0  0  0  0
   57.3930   31.5950   42.2460 C   0  0  0  0  0  0  0  0  0  0  0  0
   57.3938   31.5107   41.1492 H   0  0  0  0  0  0  0  0  0  0  0  0
   57.9840   32.7020   42.8610 C   0  0  0  0  0  0  0  0  0  0  0  0
   58.4451   33.4894   42.2467 H   0  0  0  0  0  0  0  0  0  0  0  0
   57.9910   32.8120   44.2600 C   0  0  0  0  0  0  0  0  0  0  0  0
   58.6700   33.9720   44.9240 C   0  0  0  0  0  0  0  0  0  0  0  0
   58.6040   33.8593   46.0162 H   0  0  0  0  0  0  0  0  0  0  0  0
   59.7272   34.0002   44.6215 H   0  0  0  0  0  0  0  0  0  0  0  0
   58.1770   34.9076   44.6215 H   0  0  0  0  0  0  0  0  0  0  0  0
   57.4170   31.7920   45.0340 C   0  0  0  0  0  0  0  0  0  0  0  0
   57.4721   31.8432   46.1314 H   0  0  0  0  0  0  0  0  0  0  0  0
   58.1230   28.3250   45.9360 C   0  0  0  0  0  0  0  0  0  0  0  0
   59.2090   29.2880   45.6390 C   0  0  0  0  0  0  0  0  0  0  0  0
   59.5770   29.4390   44.4450 O   0  0  0  0  0  0  0  0  0  0  0  0
   59.8560   30.0610   46.6610 N   0  0  0  0  0  0  0  0  0  0  0  0
   59.2860   30.5210   47.8950 C   0  0  0  0  0  0  0  0  0  0  0  0
   58.9600   31.8710   48.1090 C   0  0  0  0  0  0  0  0  0  0  0  0
   59.1442   32.6106   47.3159 H   0  0  0  0  0  0  0  0  0  0  0  0
   58.4030   32.2790   49.3240 C   0  0  0  0  0  0  0  0  0  0  0  0
   58.1363   33.3352   49.4770 H   0  0  0  0  0  0  0  0  0  0  0  0
   58.1820   31.3450   50.3520 C   0  0  0  0  0  0  0  0  0  0  0  0
   57.6050   31.7140   51.6130 N   0  0  0  0  0  0  0  0  0  0  0  0
   56.4760   30.7650   52.5260 S   0  0  0  0  0  0  0  0  0  0  0  0
   56.6710   31.0100   53.9970 O   0  0  0  0  0  0  0  0  0  0  0  0
   56.7270   29.3110   52.2410 O   0  0  0  0  0  0  0  0  0  0  0  0
   54.8090   31.1610   52.0450 C   0  0  0  0  0  0  0  0  0  0  0  0
   54.1928   31.3074   52.9444 H   0  0  0  0  0  0  0  0  0  0  0  0
   54.8095   32.0840   51.4466 H   0  0  0  0  0  0  0  0  0  0  0  0
   54.3943   30.3364   51.4466 H   0  0  0  0  0  0  0  0  0  0  0  0
   58.5480   30.0090   50.1500 C   0  0  0  0  0  0  0  0  0  0  0  0
   58.3952   29.2735   50.9536 H   0  0  0  0  0  0  0  0  0  0  0  0
   59.1060   29.6030   48.9350 C   0  0  0  0  0  0  0  0  0  0  0  0
   59.4059   28.5539   48.7953 H   0  0  0  0  0  0  0  0  0  0  0  0
   58.5090   27.0770   46.4500 C   0  0  0  0  0  0  0  0  0  0  0  0
   59.5434   26.9252   46.7921 H   0  0  0  0  0  0  0  0  0  0  0  0
   57.5950   26.0290   46.5310 C   0  0  0  0  0  0  0  0  0  0  0  0
   57.9013   25.0534   46.9364 H   0  0  0  0  0  0  0  0  0  0  0  0
  1  2  1  0
  2  3  1  0
  3  4  1  0
  4  5  2  0
  5  6  1  0
  6  7  2  0
  7  8  1  0
  7  9  1  0
  9 10  1  0
  9 11  2  0
 11 12  1  0
 11 13  1  0
 13 14  1  0
 14 15  1  0
 14 16  1  0
 14 17  1  0
 13 18  2  0
 18 19  1  0
  4 20  1  0
 20 21  1  0
 21 22  2  0
 21 23  1  0
 23 24  1  0
 24 25  2  0
 25 26  1  0
 25 27  1  0
 27 28  1  0
 27 29  2  0
 29 30  1  0
 30 31  1  0
 31 32  2  0
 31 33  2  0
 31 34  1  0
 34 35  1  0
 34 36  1  0
 34 37  1  0
 29 38  1  0
 38 39  1  0
 38 40  2  0
 40 41  1  0
 20 42  2  0
 42 43  1  0
 42 44  1  0
 44 45  1  0
 44  2  2  0
 18  6  1  0
 40 24  1  0
M  CHG  3   3  -1  23  -1  30  -1
M  END
>  <UniqueID>  (10) 
6

>  <SMILES>  (10) 
Cc1cccc(/N=c2/[n-]cccc2C(=O)[N-]c2ccc([N-]S(C)(=O)=O)cc2)c1

>  <Energy>  (10) 
68.95823123700627

>  <Genealogy>  (10) 
Cc1cccc(N=c2[n-]cccc2C(=O)[N-]c2ccc([N-]S(C)(=O)=O)cc2)c1 (protonated)
Cc1cccc(/N=c2/[n-]cccc2C(=O)[N-]c2ccc([N-]S(C)(=O)=O)cc2)c1 (cis-trans isomerization)
Cc1cccc(/N=c2/[n-]cccc2C(=O)[N-]c2ccc([N-]S(C)(=O)=O)cc2)c1 (3D coordinates assigned)
Cc1cccc(/N=c2/[n-]cccc2C(=O)[N-]c2ccc([N-]S(C)(=O)=O)cc2)c1 (optimized conformer: 68.95823123700627 kcal/mol)

>  <smiles>  (10) 
Cc1cccc(N=c2[nH]cccc2C(=O)Nc2ccc(NS(C)(=O)=O)cc2)c1

>  <score_type>  (10) 
oracle

>  <origin>  (10) 
adg

>  <m_score__min__energy>  (10) 
-13.08

>  <m_primary>  (10) 
energy

$$$$
10:0
     RDKit          3D

 24 25  0  0  0  0  0  0  0  0999 V2000
   56.2170   29.7130   43.0140 C   0  0  0  0  0  0  0  0  0  0  0  0
   57.3600   29.3730   43.9180 C   0  0  0  0  0  0  0  0  0  0  0  0
   58.1470   28.2200   43.7610 C   0  0  0  0  0  0  0  0  0  0  0  0
   59.1830   28.1210   44.6810 C   0  0  0  0  0  0  0  0  0  0  0  0
   59.1380   29.4700   45.6850 S   0  0  0  0  0  0  0  0  0  0  0  0
   57.7840   30.1790   44.9730 C   0  0  0  0  0  0  0  0  0  0  0  0
   57.2380   31.4660   45.3060 N   0  0  0  0  0  0  0  0  0  0  0  0
   58.0360   32.6160   45.6230 C   0  0  0  0  0  0  0  0  0  0  0  0
   58.3410   32.9500   46.9560 C   0  0  0  0  0  0  0  0  0  0  0  0
   59.0970   34.0910   47.2420 C   0  0  0  0  0  0  0  0  0  0  0  0
   59.5420   34.9140   46.2050 C   0  0  0  0  0  0  0  0  0  0  0  0
   59.2230   34.6040   44.8810 C   0  0  0  0  0  0  0  0  0  0  0  0
   58.4670   33.4630   44.5910 C   0  0  0  0  0  0  0  0  0  0  0  0
   55.3364   29.9749   43.6190 H   0  0  0  0  0  0  0  0  0  0  0  0
   56.4933   30.5679   42.3793 H   0  0  0  0  0  0  0  0  0  0  0  0
   55.9811   28.8461   42.3793 H   0  0  0  0  0  0  0  0  0  0  0  0
   57.9603   27.4659   42.9822 H   0  0  0  0  0  0  0  0  0  0  0  0
   59.9108   27.2985   44.7427 H   0  0  0  0  0  0  0  0  0  0  0  0
   56.2040   31.5920   45.2360 H   0  0  0  0  0  0  0  0  0  0  0  0
   57.9830   32.3106   47.7763 H   0  0  0  0  0  0  0  0  0  0  0  0
   59.3416   34.3407   48.2850 H   0  0  0  0  0  0  0  0  0  0  0  0
   60.1439   35.8066   46.4311 H   0  0  0  0  0  0  0  0  0  0  0  0
   59.5665   35.2575   44.0655 H   0  0  0  0  0  0  0  0  0  0  0  0
   58.2090   33.2287   43.5477 H   0  0  0  0  0  0  0  0  0  0  0  0
  1  2  1  0
  2  3  1  0
  3  4  2  0
  4  5  1  0
  5  6  1  0
  6  7  1  0
  7  8  1  0
  8  9  2  0
  9 10  1  0
 10 11  2  0
 11 12  1  0
 12 13  2  0
  6  2  2  0
 13  8  1  0
  1 14  1  0
  1 15  1  0
  1 16  1  0
  3 17  1  0
  4 18  1  0
  7 19  1  0
  9 20  1  0
 10 21  1  0
 11 22  1  0
 12 23  1  0
 13 24  1  0
M  END
>  <UniqueID>  (11) 
7

>  <SMILES>  (11) 
Cc1ccsc1Nc1ccccc1

>  <Energy>  (11) 
54.07162053973325

>  <Genealogy>  (11) 
Cc1ccsc1Nc1ccccc1 (3D coordinates assigned)
Cc1ccsc1Nc1ccccc1 (optimized conformer: 54.07162053973325 kcal/mol)

>  <smiles>  (11) 
Cc1ccsc1Nc1ccccc1

>  <score_type>  (11) 
oracle

>  <origin>  (11) 
adg

>  <m_score__min__energy>  (11) 
-5.5499999999999998

>  <m_primary>  (11) 
energy

$$$$
11:0
     RDKit          3D

 42 44  0  0  0  0  0  0  0  0999 V2000
   61.6455   29.4236   46.9889 H   0  0  0  0  0  0  0  0  0  0  0  0
   60.7400   29.6940   46.4260 C   0  0  0  0  0  0  0  0  0  0  0  0
   60.2460   28.8240   45.4340 C   0  0  0  0  0  0  0  0  0  0  0  0
   60.7682   27.8786   45.2254 H   0  0  0  0  0  0  0  0  0  0  0  0
   59.0910   29.1580   44.7110 C   0  0  0  0  0  0  0  0  0  0  0  0
   58.6987   28.4845   43.9348 H   0  0  0  0  0  0  0  0  0  0  0  0
   58.4520   30.3630   44.9990 C   0  0  0  0  0  0  0  0  0  0  0  0
   58.9320   31.2240   45.9730 C   0  0  0  0  0  0  0  0  0  0  0  0
   60.0830   30.9040   46.7000 C   0  0  0  0  0  0  0  0  0  0  0  0
   60.4663   31.5875   47.4720 H   0  0  0  0  0  0  0  0  0  0  0  0
   58.1020   32.4300   46.1010 C   0  0  0  0  0  0  0  0  0  0  0  0
   58.3560   33.3720   46.9620 N   0  0  0  0  0  0  0  0  0  0  0  0
   59.2440   34.5150   46.7430 C   0  0  1  0  0  0  0  0  0  0  0  0
   58.8483   35.3846   47.2882 H   0  0  0  0  0  0  0  0  0  0  0  0
   60.6280   34.1830   47.2560 C   0  0  0  0  0  0  0  0  0  0  0  0
   61.6580   33.8380   46.3680 C   0  0  0  0  0  0  0  0  0  0  0  0
   61.4536   33.7893   45.2883 H   0  0  0  0  0  0  0  0  0  0  0  0
   62.9400   33.5560   46.8430 C   0  0  0  0  0  0  0  0  0  0  0  0
   63.7361   33.2789   46.1363 H   0  0  0  0  0  0  0  0  0  0  0  0
   63.2200   33.6240   48.2200 C   0  0  0  0  0  0  0  0  0  0  0  0
   64.4960   33.3460   48.7360 O   0  0  0  0  0  0  0  0  0  0  0  0
   64.7830   32.2970   49.6540 C   0  0  0  0  0  0  0  0  0  0  0  0
   64.6804   32.6720   50.6830 H   0  0  0  0  0  0  0  0  0  0  0  0
   64.0789   31.4671   49.4943 H   0  0  0  0  0  0  0  0  0  0  0  0
   65.8115   31.9411   49.4943 H   0  0  0  0  0  0  0  0  0  0  0  0
   62.2020   33.9810   49.1180 C   0  0  0  0  0  0  0  0  0  0  0  0
   62.5130   34.0450   50.4850 O   0  0  0  0  0  0  0  0  0  0  0  0
   61.8080   33.3500   51.5080 C   0  0  0  0  0  0  0  0  0  0  0  0
   62.1571   33.6942   52.4927 H   0  0  0  0  0  0  0  0  0  0  0  0
   60.7305   33.5490   51.4109 H   0  0  0  0  0  0  0  0  0  0  0  0
   61.9916   32.2698   51.4109 H   0  0  0  0  0  0  0  0  0  0  0  0
   60.9100   34.2630   48.6310 C   0  0  0  0  0  0  0  0  0  0  0  0
   60.1138   34.5487   49.3341 H   0  0  0  0  0  0  0  0  0  0  0  0
   59.3100   34.8650   45.2520 C   0  0  0  0  0  0  0  0  0  0  0  0
   59.5127   35.9400   45.1363 H   0  0  0  0  0  0  0  0  0  0  0  0
   60.1149   34.2867   44.7749 H   0  0  0  0  0  0  0  0  0  0  0  0
   58.3497   34.6195   44.7749 H   0  0  0  0  0  0  0  0  0  0  0  0
   56.9870   32.4460   45.1990 N   0  0  0  0  0  0  0  0  0  0  0  0
   56.2340   33.1660   45.1450 H   0  0  0  0  0  0  0  0  0  0  0  0
   57.0190   31.0050   44.2540 S   0  0  0  0  0  0  0  0  0  0  0  0
   55.8090   30.1510   44.5080 O   0  0  0  0  0  0  0  0  0  0  0  0
   57.2120   31.3050   42.7950 O   0  0  0  0  0  0  0  0  0  0  0  0
  1  2  1  0
  2  3  2  0
  3  4  1  0
  3  5  1  0
  5  6  1  0
  5  7  2  0
  7  8  1  0
  8  9  2  0
  9 10  1  0
  8 11  1  0
 11 12  2  0
 12 13  1  0
 13 14  1  1
 13 15  1  0
 15 16  2  0
 16 17  1  0
 16 18  1  0
 18 19  1  0
 18 20  2  0
 20 21  1  0
 21 22  1  0
 22 23  1  0
 22 24  1  0
 22 25  1  0
 20 26  1  0
 26 27  1  0
 27 28  1  0
 28 29  1  0
 28 30  1  0
 28 31  1  0
 26 32  2  0
 32 33  1  0
 13 34  1  0
 34 35  1  0
 34 36  1  0
 34 37  1  0
 11 38  1  0
 38 39  1  0
 38 40  1  0
 40 41  2  0
 40 42  2  0
  9  2  1  0
 32 15  1  0
 40  7  1  0
M  END
>  <UniqueID>  (12) 
8

>  <SMILES>  (12) 
COc1ccc([C@@H](C)/N=C2\NS(=O)(=O)c3ccccc32)cc1OC

>  <Energy>  (12) 
63.7175012243501

>  <Genealogy>  (12) 
COc1ccc([C@@H](C)N=C2NS(=O)(=O)c3ccccc32)cc1OC (chirality)
COc1ccc([C@@H](C)/N=C2\NS(=O)(=O)c3ccccc32)cc1OC (cis-trans isomerization)
COc1ccc([C@@H](C)/N=C2\NS(=O)(=O)c3ccccc32)cc1OC (3D coordinates assigned)
COc1ccc([C@@H](C)/N=C2\NS(=O)(=O)c3ccccc32)cc1OC (nonaromatic ring conformer: 63.7175012243501 kcal/mol)

>  <smiles>  (12) 
COc1ccc(C(C)N=C2NS(=O)(=O)c3ccccc32)cc1OC

>  <score_type>  (12) 
oracle

>  <origin>  (12) 
adg

>  <m_score__min__energy>  (12) 
-8.6999999999999993

>  <m_primary>  (12) 
energy

$$$$
12:0
     RDKit          3D

 52 54  0  0  1  0  0  0  0  0999 V2000
   60.9640   33.5530   50.8320 C   0  0  0  0  0  0  0  0  0  0  0  0
   60.9350   33.7700   49.3580 C   0  0  0  0  0  0  0  0  0  0  0  0
   59.7480   34.0870   48.7370 C   0  0  0  0  0  0  0  0  0  0  0  0
   59.7720   34.2660   47.3870 C   0  0  0  0  0  0  0  0  0  0  0  0
   58.7320   34.5340   46.7310 N   0  0  0  0  0  0  0  0  0  0  0  0
   58.3630   33.9240   45.1870 S   0  0  0  0  0  0  0  0  0  0  0  0
   59.3810   34.2320   44.1290 O   0  0  0  0  0  0  0  0  0  0  0  0
   57.0430   34.5950   44.7800 O   0  0  0  0  0  0  0  0  0  0  0  0
   58.0950   32.1750   45.2150 C   0  0  0  0  0  0  0  0  0  0  0  0
   58.9080   31.3060   45.9040 C   0  0  0  0  0  0  0  0  0  0  0  0
   58.6020   29.9360   45.8650 C   0  0  0  0  0  0  0  0  0  0  0  0
   57.5150   29.4830   45.1580 C   0  0  0  0  0  0  0  0  0  0  0  0
   57.1180   28.1380   45.0190 N   0  0  0  0  0  0  0  0  0  0  0  0
   57.2490   27.1470   46.0480 C   0  0  0  0  0  0  0  0  0  0  0  0
   57.8020   27.5920   47.1180 O   0  0  0  0  0  0  0  0  0  0  0  0
   56.7760   25.8240   45.7940 C   0  0  0  0  0  0  0  0  0  0  0  0
   56.3530   24.6420   45.5670 O   0  0  0  0  0  0  0  0  0  0  0  0
   56.9360   23.5800   44.8590 C   0  0  0  0  0  0  0  0  0  0  0  0
   58.2090   23.1280   45.1250 C   0  0  0  0  0  0  0  0  0  0  0  0
   58.6960   22.0730   44.3700 C   0  0  0  0  0  0  0  0  0  0  0  0
   57.9500   21.4660   43.3720 C   0  0  0  0  0  0  0  0  0  0  0  0
   56.6700   21.9770   43.1610 C   0  0  0  0  0  0  0  0  0  0  0  0
   56.1550   23.0180   43.8850 C   0  0  0  0  0  0  0  0  0  0  0  0
   54.7840   23.5740   43.6630 C   0  0  0  0  0  0  0  0  0  0  0  0
   56.6850   30.4010   44.4540 C   0  0  0  0  0  0  0  0  0  0  0  0
   57.0020   31.7360   44.5020 C   0  0  0  0  0  0  0  0  0  0  0  0
   60.9340   34.1350   46.6950 N   0  0  0  0  0  0  0  0  0  0  0  0
   62.0870   33.8240   47.3380 C   0  0  0  0  0  0  0  0  0  0  0  0
   63.3170   33.7130   46.5090 C   0  0  0  0  0  0  0  0  0  0  0  0
   62.1020   33.6350   48.6820 N   0  0  0  0  0  0  0  0  0  0  0  0
   60.8353   34.5164   51.3470 H   0  0  0  0  0  0  0  0  0  0  0  0
   60.1488   32.8722   51.1185 H   0  0  0  0  0  0  0  0  0  0  0  0
   61.9293   33.1102   51.1185 H   0  0  0  0  0  0  0  0  0  0  0  0
   58.8148   34.1918   49.3098 H   0  0  0  0  0  0  0  0  0  0  0  0
   59.7756   31.6744   46.4710 H   0  0  0  0  0  0  0  0  0  0  0  0
   59.2383   29.2195   46.4053 H   0  0  0  0  0  0  0  0  0  0  0  0
   56.6960   27.8780   44.0760 H   0  0  0  0  0  0  0  0  0  0  0  0
    0.0000    0.0000    0.0000 H   0  0  0  0  0  0  0  0  0  0  0  0
   57.4900   25.7283   44.9627 H   0  0  0  0  0  0  0  0  0  0  0  0
   58.8212   23.5905   45.9133 H   0  0  0  0  0  0  0  0  0  0  0  0
   59.7126   21.7035   44.5702 H   0  0  0  0  0  0  0  0  0  0  0  0
   58.3457   20.6279   42.7795 H   0  0  0  0  0  0  0  0  0  0  0  0
   56.0459   21.5229   42.3772 H   0  0  0  0  0  0  0  0  0  0  0  0
   54.3054   23.7681   44.6342 H   0  0  0  0  0  0  0  0  0  0  0  0
   54.8568   24.5137   43.0958 H   0  0  0  0  0  0  0  0  0  0  0  0
   54.1817   22.8490   43.0958 H   0  0  0  0  0  0  0  0  0  0  0  0
   55.8113   30.0493   43.8857 H   0  0  0  0  0  0  0  0  0  0  0  0
   56.3756   32.4632   43.9647 H   0  0  0  0  0  0  0  0  0  0  0  0
   60.9320   34.2840   45.6420 H   0  0  0  0  0  0  0  0  0  0  0  0
   64.1959   33.6337   47.1657 H   0  0  0  0  0  0  0  0  0  0  0  0
   63.2517   32.8171   45.8741 H   0  0  0  0  0  0  0  0  0  0  0  0
   63.4131   34.6061   45.8741 H   0  0  0  0  0  0  0  0  0  0  0  0
  1  2  1  0
  2  3  2  0
  3  4  1  0
  4  5  2  0
  5  6  1  0
  6  7  2  0
  6  8  2  0
  6  9  1  0
  9 10  2  0
 10 11  1  0
 11 12  2  0
 12 13  1  0
 13 14  1  0
 14 15  2  0
 14 16  1  0
 16 17  1  0
 17 18  1  0
 18 19  2  0
 19 20  1  0
 20 21  2  0
 21 22  1  0
 22 23  2  0
 23 24  1  0
 12 25  1  0
 25 26  2  0
  4 27  1  0
 27 28  1  0
 28 29  1  0
 28 30  2  0
 30  2  1  0
 26  9  1  0
 23 18  1  0
  1 31  1  0
  1 32  1  0
  1 33  1  0
  3 34  1  0
 10 35  1  0
 11 36  1  0
 13 37  1  0
 16 38  1  0
 16 39  1  0
 19 40  1  0
 20 41  1  0
 21 42  1  0
 22 43  1  0
 24 44  1  0
 24 45  1  0
 24 46  1  0
 25 47  1  0
 26 48  1  0
 27 49  1  0
 29 50  1  0
 29 51  1  0
 29 52  1  0
M  END
>  <smiles>  (13) 
Cc1cc(=NS(=O)(=O)c2ccc(NC(=O)COc3ccccc3C)cc2)[nH]c(C)n1

>  <score_type>  (13) 
oracle

>  <origin>  (13) 
adg

>  <m_score__min__energy>  (13) 
-8.7200000000000006

>  <m_primary>  (13) 
energy

$$$$
13:0
     RDKit          3D

 43 45  0  0  0  0  0  0  0  0999 V2000
   58.2110   32.5210   43.5610 O   0  0  0  0  0  0  0  0  0  0  0  0
   58.3710   33.0160   44.7100 C   0  0  0  0  0  0  0  0  0  0  0  0
   58.6220   34.4880   44.8420 C   0  0  0  0  0  0  0  0  0  0  0  0
   58.9410   34.8250   46.1930 O   0  0  0  0  0  0  0  0  0  0  0  0
   60.1020   34.4260   46.8760 C   0  0  0  0  0  0  0  0  0  0  0  0
   61.1600   33.8940   46.1290 C   0  0  0  0  0  0  0  0  0  0  0  0
   62.3370   33.4770   46.7580 C   0  0  0  0  0  0  0  0  0  0  0  0
   62.4670   33.5920   48.1450 C   0  0  0  0  0  0  0  0  0  0  0  0
   63.9440   33.0700   48.9350 Cl  0  0  0  0  0  0  0  0  0  0  0  0
   61.4190   34.1250   48.9020 C   0  0  0  0  0  0  0  0  0  0  0  0
   60.2410   34.5430   48.2740 C   0  0  0  0  0  0  0  0  0  0  0  0
   58.3280   32.1810   45.8800 N   0  0  0  0  0  0  0  0  0  0  0  0
   57.9620   30.7920   45.8630 C   0  0  0  0  0  0  0  0  0  0  0  0
   57.0490   30.2840   44.9240 C   0  0  0  0  0  0  0  0  0  0  0  0
   56.6930   28.9320   44.9440 C   0  0  0  0  0  0  0  0  0  0  0  0
   57.2220   28.0730   45.9180 C   0  0  0  0  0  0  0  0  0  0  0  0
   56.8640   26.6830   45.9130 N   0  0  0  0  0  0  0  0  0  0  0  0
   55.6060   26.2720   45.8670 N   0  0  0  0  0  0  0  0  0  0  0  0
   55.6140   24.9250   45.8730 C   0  0  0  0  0  0  0  0  0  0  0  0
   54.3800   24.0800   45.9000 C   0  0  0  0  0  0  0  0  0  0  0  0
   54.4750   23.0960   44.9340 F   0  0  0  0  0  0  0  0  0  0  0  0
   53.2680   24.8630   45.6470 F   0  0  0  0  0  0  0  0  0  0  0  0
   54.2400   23.4870   47.1410 F   0  0  0  0  0  0  0  0  0  0  0  0
   56.9130   24.4610   45.9560 C   0  0  0  0  0  0  0  0  0  0  0  0
   57.6860   25.6080   45.9900 C   0  0  0  0  0  0  0  0  0  0  0  0
   59.1850   25.6340   46.1200 C   0  0  0  0  0  0  0  0  0  0  0  0
   59.5350   25.9790   47.4110 F   0  0  0  0  0  0  0  0  0  0  0  0
   59.7190   24.3970   45.8100 F   0  0  0  0  0  0  0  0  0  0  0  0
   59.7200   26.5680   45.2500 F   0  0  0  0  0  0  0  0  0  0  0  0
   58.1340   28.5780   46.8560 C   0  0  0  0  0  0  0  0  0  0  0  0
   58.4890   29.9310   46.8360 C   0  0  0  0  0  0  0  0  0  0  0  0
   59.4621   34.7712   44.1909 H   0  0  0  0  0  0  0  0  0  0  0  0
   57.7118   35.0306   44.5469 H   0  0  0  0  0  0  0  0  0  0  0  0
   61.0643   33.8033   45.0369 H   0  0  0  0  0  0  0  0  0  0  0  0
   63.1608   33.0584   46.1613 H   0  0  0  0  0  0  0  0  0  0  0  0
   61.5211   34.2158   49.9935 H   0  0  0  0  0  0  0  0  0  0  0  0
   59.4203   34.9644   48.8730 H   0  0  0  0  0  0  0  0  0  0  0  0
   58.6830   32.5800   46.7780 H   0  0  0  0  0  0  0  0  0  0  0  0
   56.6117   30.9536   44.1687 H   0  0  0  0  0  0  0  0  0  0  0  0
   55.9936   28.5398   44.1910 H   0  0  0  0  0  0  0  0  0  0  0  0
   57.2551   23.4160   45.9878 H   0  0  0  0  0  0  0  0  0  0  0  0
   58.5719   27.9077   47.6103 H   0  0  0  0  0  0  0  0  0  0  0  0
   59.1875   30.3227   47.5901 H   0  0  0  0  0  0  0  0  0  0  0  0
  1  2  2  0
  2  3  1  0
  3  4  1  0
  4  5  1  0
  5  6  2  0
  6  7  1  0
  7  8  2  0
  8  9  1  0
  8 10  1  0
 10 11  2  0
  2 12  1  0
 12 13  1  0
 13 14  2  0
 14 15  1  0
 15 16  2  0
 16 17  1  0
 17 18  1  0
 18 19  2  0
 19 20  1  0
 20 21  1  0
 20 22  1  0
 20 23  1  0
 19 24  1  0
 24 25  2  0
 25 26  1  0
 26 27  1  0
 26 28  1  0
 26 29  1  0
 16 30  1  0
 30 31  2  0
 11  5  1  0
 31 13  1  0
 25 17  1  0
  3 32  1  0
  3 33  1  0
  6 34  1  0
  7 35  1  0
 10 36  1  0
 11 37  1  0
 12 38  1  0
 14 39  1  0
 15 40  1  0
 24 41  1  0
 30 42  1  0
 31 43  1  0
M  END
>  <UniqueID>  (14) 
9

>  <SMILES>  (14) 
O=C(COc1ccc(Cl)cc1)Nc1ccc(-n2nc(C(F)(F)F)cc2C(F)(F)F)cc1

>  <Energy>  (14) 
82.71737615710154

>  <Genealogy>  (14) 
O=C(COc1ccc(Cl)cc1)Nc1ccc(-n2nc(C(F)(F)F)cc2C(F)(F)F)cc1 (3D coordinates assigned)
O=C(COc1ccc(Cl)cc1)Nc1ccc(-n2nc(C(F)(F)F)cc2C(F)(F)F)cc1 (optimized conformer: 82.71737615710154 kcal/mol)

>  <smiles>  (14) 
O=C(COc1ccc(Cl)cc1)Nc1ccc(-n2nc(C(F)(F)F)cc2C(F)(F)F)cc1

>  <score_type>  (14) 
oracle

>  <origin>  (14) 
adg

>  <m_score__min__energy>  (14) 
-7.2699999999999996

>  <m_primary>  (14) 
energy

$$$$
14:0
     RDKit          3D

 32 34  0  0  0  0  0  0  0  0999 V2000
   59.2820   33.3970   48.5590 C   0  0  0  0  0  0  0  0  0  0  0  0
   58.8190   33.4200   47.1320 C   0  0  0  0  0  0  0  0  0  0  0  0
   58.9940   34.5720   46.3500 C   0  0  0  0  0  0  0  0  0  0  0  0
   58.6050   34.5760   45.0090 C   0  0  0  0  0  0  0  0  0  0  0  0
   58.0470   33.4310   44.4370 C   0  0  0  0  0  0  0  0  0  0  0  0
   57.8660   32.2730   45.2010 C   0  0  0  0  0  0  0  0  0  0  0  0
   57.3190   31.1370   44.5840 O   0  0  0  0  0  0  0  0  0  0  0  0
   57.6750   29.8130   44.8740 C   0  0  0  0  0  0  0  0  0  0  0  0
   59.0160   29.4380   44.7730 C   0  0  0  0  0  0  0  0  0  0  0  0
   59.3950   28.1920   45.0380 O   0  0  0  0  0  0  0  0  0  0  0  0
   58.5400   27.2410   45.3980 C   0  0  0  0  0  0  0  0  0  0  0  0
   59.0200   25.9560   45.6660 C   0  0  0  0  0  0  0  0  0  0  0  0
   58.1380   24.9360   46.0420 C   0  0  0  0  0  0  0  0  0  0  0  0
   58.6110   23.6530   46.3110 O   0  0  0  0  0  0  0  0  0  0  0  0
   56.7710   25.2030   46.1490 C   0  0  0  0  0  0  0  0  0  0  0  0
   56.2720   26.4830   45.8840 C   0  0  0  0  0  0  0  0  0  0  0  0
   54.9030   26.7030   46.0050 O   0  0  0  0  0  0  0  0  0  0  0  0
   57.1550   27.5210   45.5050 C   0  0  0  0  0  0  0  0  0  0  0  0
   56.7240   28.8350   45.2180 C   0  0  0  0  0  0  0  0  0  0  0  0
   55.5000   29.1340   45.2430 O   0  0  0  0  0  0  0  0  0  0  0  0
   58.2750   32.2650   46.5480 C   0  0  0  0  0  0  0  0  0  0  0  0
   58.4100   33.4403   49.2281 H   0  0  0  0  0  0  0  0  0  0  0  0
   59.8432   32.4699   48.7475 H   0  0  0  0  0  0  0  0  0  0  0  0
   59.9323   34.2640   48.7475 H   0  0  0  0  0  0  0  0  0  0  0  0
   59.4389   35.4744   46.7947 H   0  0  0  0  0  0  0  0  0  0  0  0
   58.7385   35.4834   44.4017 H   0  0  0  0  0  0  0  0  0  0  0  0
   57.7477   33.4395   43.3785 H   0  0  0  0  0  0  0  0  0  0  0  0
   59.7674   30.1823   44.4707 H   0  0  0  0  0  0  0  0  0  0  0  0
   60.0962   25.7451   45.5810 H   0  0  0  0  0  0  0  0  0  0  0  0
   58.6340   22.9370   45.5950 H   0  0  0  0  0  0  0  0  0  0  0  0
   56.0804   24.3994   46.4444 H   0  0  0  0  0  0  0  0  0  0  0  0
   58.1677   31.3483   47.1465 H   0  0  0  0  0  0  0  0  0  0  0  0
  1  2  1  0
  2  3  2  0
  3  4  1  0
  4  5  2  0
  5  6  1  0
  6  7  1  0
  7  8  1  0
  8  9  2  0
  9 10  1  0
 10 11  1  0
 11 12  2  0
 12 13  1  0
 13 14  1  0
 13 15  2  0
 15 16  1  0
 16 17  1  0
 16 18  2  0
 18 19  1  0
 19 20  2  0
  6 21  2  0
 21  2  1  0
 19  8  1  0
 18 11  1  0
  1 22  1  0
  1 23  1  0
  1 24  1  0
  3 25  1  0
  4 26  1  0
  5 27  1  0
  9 28  1  0
 12 29  1  0
 14 30  1  0
 15 31  1  0
 21 32  1  0
M  CHG  1  17  -1
M  END
>  <UniqueID>  (15) 
10

>  <SMILES>  (15) 
Cc1cccc(Oc2coc3cc(O)cc([O-])c3c2=O)c1

>  <Energy>  (15) 
48.45730003337729

>  <Genealogy>  (15) 
Cc1cccc(Oc2coc3cc(O)cc([O-])c3c2=O)c1 (protonated)
Cc1cccc(Oc2coc3cc(O)cc([O-])c3c2=O)c1 (3D coordinates assigned)
Cc1cccc(Oc2coc3cc(O)cc([O-])c3c2=O)c1 (optimized conformer: 48.45730003337729 kcal/mol)

>  <smiles>  (15) 
Cc1cccc(Oc2coc3cc(O)cc(O)c3c2=O)c1

>  <score_type>  (15) 
oracle

>  <origin>  (15) 
adg

>  <m_score__min__energy>  (15) 
-11.6

>  <m_primary>  (15) 
energy

$$$$
15:0
     RDKit          3D

 32 33  0  0  0  0  0  0  0  0999 V2000
   56.2600   33.1965   45.6967 H   0  0  0  0  0  0  0  0  0  0  0  0
   57.3340   33.1860   45.4590 C   0  0  0  0  0  0  0  0  0  0  0  0
   57.8840   32.0290   44.7210 C   0  0  0  0  0  0  0  0  0  0  0  0
   58.0320   32.1330   43.4740 O   0  0  0  0  0  0  0  0  0  0  0  0
   58.2630   30.7570   45.3800 C   0  0  0  0  0  0  0  0  0  0  0  0
   59.5190   30.6590   46.0000 C   0  0  0  0  0  0  0  0  0  0  0  0
   60.2010   31.5220   45.9907 H   0  0  0  0  0  0  0  0  0  0  0  0
   59.9090   29.4750   46.6280 C   0  0  0  0  0  0  0  0  0  0  0  0
   60.8980   29.4060   47.1046 H   0  0  0  0  0  0  0  0  0  0  0  0
   59.0460   28.3790   46.6520 C   0  0  0  0  0  0  0  0  0  0  0  0
   59.3601   27.4433   47.1375 H   0  0  0  0  0  0  0  0  0  0  0  0
   57.7850   28.4680   46.0610 C   0  0  0  0  0  0  0  0  0  0  0  0
   57.1071   27.6021   46.0885 H   0  0  0  0  0  0  0  0  0  0  0  0
   57.3730   29.6590   45.4290 C   0  0  0  0  0  0  0  0  0  0  0  0
   56.0940   29.7880   44.8620 O   0  0  0  0  0  0  0  0  0  0  0  0
   55.8150   29.7180   43.4680 C   0  0  0  0  0  0  0  0  0  0  0  0
   54.7580   29.4528   43.3185 H   0  0  0  0  0  0  0  0  0  0  0  0
   56.0171   30.6947   43.0041 H   0  0  0  0  0  0  0  0  0  0  0  0
   56.4543   28.9524   43.0041 H   0  0  0  0  0  0  0  0  0  0  0  0
   58.0880   34.2230   45.8510 C   0  0  0  0  0  0  0  0  0  0  0  0
   57.7523   35.2367   45.5867 H   0  0  0  0  0  0  0  0  0  0  0  0
   59.3480   34.0830   46.6200 C   0  0  0  0  0  0  0  0  0  0  0  0
   59.2910   34.1650   48.0220 C   0  0  0  0  0  0  0  0  0  0  0  0
   58.3232   34.3241   48.5200 H   0  0  0  0  0  0  0  0  0  0  0  0
   60.4540   34.0460   48.7890 C   0  0  0  0  0  0  0  0  0  0  0  0
   60.3972   34.1060   49.8859 H   0  0  0  0  0  0  0  0  0  0  0  0
   61.6880   33.8510   48.1640 C   0  0  0  0  0  0  0  0  0  0  0  0
   62.6014   33.7503   48.7686 H   0  0  0  0  0  0  0  0  0  0  0  0
   61.7610   33.7840   46.7710 C   0  0  0  0  0  0  0  0  0  0  0  0
   62.7342   33.6379   46.2794 H   0  0  0  0  0  0  0  0  0  0  0  0
   60.6010   33.9020   45.9990 C   0  0  0  0  0  0  0  0  0  0  0  0
   60.6663   33.8534   44.9020 H   0  0  0  0  0  0  0  0  0  0  0  0
  1  2  1  0
  2  3  1  0
  3  4  2  0
  3  5  1  0
  5  6  2  0
  6  7  1  0
  6  8  1  0
  8  9  1  0
  8 10  2  0
 10 11  1  0
 10 12  1  0
 12 13  1  0
 12 14  2  0
 14 15  1  0
 15 16  1  0
 16 17  1  0
 16 18  1  0
 16 19  1  0
  2 20  2  0
 20 21  1  0
 20 22  1  0
 22 23  2  0
 23 24  1  0
 23 25  1  0
 25 26  1  0
 25 27  2  0
 27 28  1  0
 27 29  1  0
 29 30  1  0
 29 31  2  0
 31 32  1  0
 14  5  1  0
 31 22  1  0
M  END
>  <UniqueID>  (16) 
11

>  <SMILES>  (16) 
COc1ccccc1C(=O)/C=C/c1ccccc1

>  <Energy>  (16) 
39.99741801562997

>  <Genealogy>  (16) 
COc1ccccc1C(=O)/C=C/c1ccccc1 (cis-trans isomerization)
COc1ccccc1C(=O)/C=C/c1ccccc1 (3D coordinates assigned)
COc1ccccc1C(=O)/C=C/c1ccccc1 (optimized conformer: 39.99741801562997 kcal/mol)

>  <smiles>  (16) 
COc1ccccc1C(=O)C=Cc1ccccc1

>  <score_type>  (16) 
oracle

>  <origin>  (16) 
adg

>  <m_score__min__energy>  (16) 
-7.6600000000000001

>  <m_primary>  (16) 
energy

$$$$
16:0
     RDKit          3D

 31 33  0  0  0  0  0  0  0  0999 V2000
   50.2550   33.3970   52.3830 O   0  0  0  0  0  0  0  0  0  0  0  0
   50.9990   32.3860   52.2950 C   0  0  0  0  0  0  0  0  0  0  0  0
   51.5100   31.9960   51.0550 C   0  0  0  0  0  0  0  0  0  0  0  0
   52.3300   30.8710   50.9780 C   0  0  0  0  0  0  0  0  0  0  0  0
   52.6490   30.1520   52.1400 C   0  0  0  0  0  0  0  0  0  0  0  0
   52.1090   30.5750   53.3680 C   0  0  0  0  0  0  0  0  0  0  0  0
   51.3030   31.6720   53.4100 N   0  0  0  0  0  0  0  0  0  0  0  0
   52.3940   29.8260   54.6400 C   0  0  0  0  0  0  0  0  0  0  0  0
   53.5920   28.8500   54.5620 C   0  0  0  0  0  0  0  0  0  0  0  0
   54.3730   28.8620   53.2220 C   0  0  2  0  0  0  0  0  0  0  0  0
   55.4900   29.9010   53.1380 C   0  0  0  0  0  0  0  0  0  0  0  0
   55.6770   30.5960   51.9270 C   0  0  0  0  0  0  0  0  0  0  0  0
   56.6590   31.5850   51.8170 C   0  0  0  0  0  0  0  0  0  0  0  0
   57.4600   31.9020   52.9150 C   0  0  0  0  0  0  0  0  0  0  0  0
   57.2780   31.2330   54.1260 C   0  0  0  0  0  0  0  0  0  0  0  0
   56.2980   30.2430   54.2430 C   0  0  0  0  0  0  0  0  0  0  0  0
   53.4570   28.9610   52.0700 N   0  0  0  0  0  0  0  0  0  0  0  0
   51.2680   32.5704   50.1486 H   0  0  0  0  0  0  0  0  0  0  0  0
   52.7274   30.5466   50.0050 H   0  0  0  0  0  0  0  0  0  0  0  0
   52.6023   30.5614   55.4311 H   0  0  0  0  0  0  0  0  0  0  0  0
   51.5052   29.2107   54.8436 H   0  0  0  0  0  0  0  0  0  0  0  0
   54.2950   29.1104   55.3670 H   0  0  0  0  0  0  0  0  0  0  0  0
   53.1669   27.8398   54.6563 H   0  0  0  0  0  0  0  0  0  0  0  0
   54.8894   27.8914   53.1852 H   0  0  0  0  0  0  0  0  0  0  0  0
   55.0441   30.3582   51.0593 H   0  0  0  0  0  0  0  0  0  0  0  0
   56.8006   32.1143   50.8632 H   0  0  0  0  0  0  0  0  0  0  0  0
   58.2341   32.6785   52.8259 H   0  0  0  0  0  0  0  0  0  0  0  0
   57.9079   31.4856   54.9917 H   0  0  0  0  0  0  0  0  0  0  0  0
   56.1557   29.7267   55.2038 H   0  0  0  0  0  0  0  0  0  0  0  0
   54.0140   28.9450   51.1830 H   0  0  0  0  0  0  0  0  0  0  0  0
   52.8180   28.1320   52.0630 H   0  0  0  0  0  0  0  0  0  0  0  0
  1  2  2  0
  2  3  1  0
  3  4  2  0
  4  5  1  0
  5  6  2  0
  6  7  1  0
  6  8  1  0
  8  9  1  0
  9 10  1  0
 10 11  1  0
 11 12  2  0
 12 13  1  0
 13 14  2  0
 14 15  1  0
 15 16  2  0
 10 17  1  0
  7  2  1  0
 16 11  1  0
 17  5  1  0
  3 18  1  0
  4 19  1  0
  8 20  1  0
  8 21  1  0
  9 22  1  0
  9 23  1  0
 10 24  1  6
 12 25  1  0
 13 26  1  0
 14 27  1  0
 15 28  1  0
 16 29  1  0
 17 30  1  0
 17 31  1  0
M  CHG  2   7  -1  17   1
M  END
>  <UniqueID>  (17) 
12

>  <SMILES>  (17) 
O=c1ccc2c([n-]1)CC[C@H](c1ccccc1)[NH2+]2

>  <Energy>  (17) 
44.067470926128955

>  <Genealogy>  (17) 
O=c1ccc2c([n-]1)CCC(c1ccccc1)[NH2+]2 (protonated)
O=c1ccc2c([n-]1)CC[C@H](c1ccccc1)[NH2+]2 (chirality)
O=c1ccc2c([n-]1)CC[C@H](c1ccccc1)[NH2+]2 (3D coordinates assigned)
O=c1ccc2c([n-]1)CC[C@H](c1ccccc1)[NH2+]2 (nonaromatic ring conformer: 44.067470926128955 kcal/mol)

>  <smiles>  (17) 
O=c1ccc2c([nH]1)CCC(c1ccccc1)N2

>  <score_type>  (17) 
oracle

>  <origin>  (17) 
adg

>  <m_score__min__energy>  (17) 
-7.8499999999999996

>  <m_primary>  (17) 
energy

$$$$
17:0
     RDKit          3D

 50 52  0  0  0  0  0  0  0  0999 V2000
   56.8990   25.0270   46.3410 O   0  0  0  0  0  0  0  0  0  0  0  0
   55.8680   25.6820   46.0280 C   0  0  0  0  0  0  0  0  0  0  0  0
   54.5960   25.0310   45.9620 N   0  0  0  0  0  0  0  0  0  0  0  0
   54.2240   24.0910   44.9100 C   0  0  0  0  0  0  0  0  0  0  0  0
   55.3810   23.1870   44.5850 C   0  0  0  0  0  0  0  0  0  0  0  0
   55.8960   23.1460   43.2790 C   0  0  0  0  0  0  0  0  0  0  0  0
   56.9560   22.2900   42.9650 C   0  0  0  0  0  0  0  0  0  0  0  0
   57.5070   21.4670   43.9510 C   0  0  0  0  0  0  0  0  0  0  0  0
   56.9970   21.4970   45.2530 C   0  0  0  0  0  0  0  0  0  0  0  0
   55.9370   22.3520   45.5710 C   0  0  0  0  0  0  0  0  0  0  0  0
   55.9620   27.0730   45.6920 N   0  0  0  0  0  0  0  0  0  0  0  0
   57.1250   27.8850   45.9230 C   0  0  0  0  0  0  0  0  0  0  0  0
   57.8430   27.8140   47.1300 C   0  0  0  0  0  0  0  0  0  0  0  0
   58.9570   28.6300   47.3410 C   0  0  0  0  0  0  0  0  0  0  0  0
   59.3660   29.5490   46.3580 C   0  0  0  0  0  0  0  0  0  0  0  0
   60.5520   30.4170   46.5650 C   0  0  0  0  0  0  0  0  0  0  0  0
   61.6480   30.0970   46.0300 O   0  0  0  0  0  0  0  0  0  0  0  0
   60.4570   31.6280   47.3370 N   0  0  0  0  0  0  0  0  0  0  0  0
   61.5930   32.3720   47.7930 C   0  0  0  0  0  0  0  0  0  0  0  0
   62.7620   31.9240   47.6330 O   0  0  0  0  0  0  0  0  0  0  0  0
   61.3890   33.5980   48.4370 O   0  0  0  0  0  0  0  0  0  0  0  0
   60.1010   34.1830   48.6200 C   0  0  0  0  0  0  0  0  0  0  0  0
   59.3450   34.2040   47.3190 C   0  0  0  0  0  0  0  0  0  0  0  0
   59.9110   34.8170   46.1890 C   0  0  0  0  0  0  0  0  0  0  0  0
   59.2060   34.8550   44.9820 C   0  0  0  0  0  0  0  0  0  0  0  0
   57.9320   34.2870   44.8960 C   0  0  0  0  0  0  0  0  0  0  0  0
   57.3610   33.6800   46.0170 C   0  0  0  0  0  0  0  0  0  0  0  0
   58.0620   33.6380   47.2270 C   0  0  0  0  0  0  0  0  0  0  0  0
   58.6400   29.6260   45.1570 C   0  0  0  0  0  0  0  0  0  0  0  0
   57.5240   28.8100   44.9490 C   0  0  0  0  0  0  0  0  0  0  0  0
   53.3730   23.4830   45.2509 H   0  0  0  0  0  0  0  0  0  0  0  0
   53.9463   24.6554   44.0076 H   0  0  0  0  0  0  0  0  0  0  0  0
   55.4634   23.7904   42.4995 H   0  0  0  0  0  0  0  0  0  0  0  0
   57.3566   22.2643   41.9409 H   0  0  0  0  0  0  0  0  0  0  0  0
   58.3421   20.7954   43.7030 H   0  0  0  0  0  0  0  0  0  0  0  0
   57.4302   20.8473   46.0278 H   0  0  0  0  0  0  0  0  0  0  0  0
   55.5368   22.3716   46.5954 H   0  0  0  0  0  0  0  0  0  0  0  0
   55.1570   27.4980   45.1770 H   0  0  0  0  0  0  0  0  0  0  0  0
   57.5251   27.1107   47.9138 H   0  0  0  0  0  0  0  0  0  0  0  0
   59.5189   28.5532   48.2836 H   0  0  0  0  0  0  0  0  0  0  0  0
   59.5140   32.0250   47.5440 H   0  0  0  0  0  0  0  0  0  0  0  0
   59.5367   33.5936   49.3577 H   0  0  0  0  0  0  0  0  0  0  0  0
   60.2256   35.2159   48.9771 H   0  0  0  0  0  0  0  0  0  0  0  0
   60.9119   35.2686   46.2538 H   0  0  0  0  0  0  0  0  0  0  0  0
   59.6549   35.3328   44.0987 H   0  0  0  0  0  0  0  0  0  0  0  0
   57.3790   34.3179   43.9456 H   0  0  0  0  0  0  0  0  0  0  0  0
   56.3578   33.2340   45.9482 H   0  0  0  0  0  0  0  0  0  0  0  0
   57.6080   33.1610   48.1081 H   0  0  0  0  0  0  0  0  0  0  0  0
   58.9522   30.3336   44.3748 H   0  0  0  0  0  0  0  0  0  0  0  0
   56.9539   28.8949   44.0121 H   0  0  0  0  0  0  0  0  0  0  0  0
  1  2  2  0
  2  3  1  0
  3  4  1  0
  4  5  1  0
  5  6  2  0
  6  7  1  0
  7  8  2  0
  8  9  1  0
  9 10  2  0
  2 11  1  0
 11 12  1  0
 12 13  2  0
 13 14  1  0
 14 15  2  0
 15 16  1  0
 16 17  2  0
 16 18  1  0
 18 19  1  0
 19 20  2  0
 19 21  1  0
 21 22  1  0
 22 23  1  0
 23 24  2  0
 24 25  1  0
 25 26  2  0
 26 27  1  0
 27 28  2  0
 15 29  1  0
 29 30  2  0
 10  5  1  0
 30 12  1  0
 28 23  1  0
  4 31  1  0
  4 32  1  0
  6 33  1  0
  7 34  1  0
  8 35  1  0
  9 36  1  0
 10 37  1  0
 11 38  1  0
 13 39  1  0
 14 40  1  0
 18 41  1  0
 22 42  1  0
 22 43  1  0
 24 44  1  0
 25 45  1  0
 26 46  1  0
 27 47  1  0
 28 48  1  0
 29 49  1  0
 30 50  1  0
M  CHG  1   3  -1
M  END
>  <UniqueID>  (18) 
13

>  <SMILES>  (18) 
O=C([N-]Cc1ccccc1)Nc1ccc(C(=O)NC(=O)OCc2ccccc2)cc1

>  <Energy>  (18) 
53.9677048438303

>  <Genealogy>  (18) 
O=C([N-]Cc1ccccc1)Nc1ccc(C(=O)NC(=O)OCc2ccccc2)cc1 (protonated)
O=C([N-]Cc1ccccc1)Nc1ccc(C(=O)NC(=O)OCc2ccccc2)cc1 (3D coordinates assigned)
O=C([N-]Cc1ccccc1)Nc1ccc(C(=O)NC(=O)OCc2ccccc2)cc1 (optimized conformer: 53.9677048438303 kcal/mol)

>  <smiles>  (18) 
O=C(NCc1ccccc1)Nc1ccc(C(=O)NC(=O)OCc2ccccc2)cc1

>  <score_type>  (18) 
oracle

>  <origin>  (18) 
adg

>  <m_score__min__energy>  (18) 
-10.630000000000001

>  <m_primary>  (18) 
energy

$$$$
18:0
     RDKit          3D

 44 48  0  0  0  0  0  0  0  0999 V2000
   59.8080   27.2500   47.5970 N   0  0  0  0  0  0  0  0  0  0  0  0
   59.8700   28.6780   47.5700 C   0  0  0  0  0  0  0  0  0  0  0  0
   59.2390   29.3810   48.4670 N   0  0  0  0  0  0  0  0  0  0  0  0
   59.1830   30.8190   48.4170 C   0  0  0  0  0  0  0  0  0  0  0  0
   58.5100   31.4070   49.2990 O   0  0  0  0  0  0  0  0  0  0  0  0
   59.8230   31.5820   47.2420 C   0  0  1  0  0  0  0  0  0  0  0  0
   61.0190   30.7220   46.7400 C   0  0  0  0  0  0  0  0  0  0  0  0
   60.6120   29.3380   46.5440 N   0  0  0  0  0  0  0  0  0  0  0  0
   58.8630   31.7380   46.0930 C   0  0  0  0  0  0  0  0  0  0  0  0
   57.8940   30.8300   45.6390 C   0  0  0  0  0  0  0  0  0  0  0  0
   57.1570   31.1410   44.4870 C   0  0  0  0  0  0  0  0  0  0  0  0
   55.9360   30.0250   43.9030 Cl  0  0  0  0  0  0  0  0  0  0  0  0
   57.4010   32.3390   43.7930 C   0  0  0  0  0  0  0  0  0  0  0  0
   58.3810   33.2320   44.2490 C   0  0  0  0  0  0  0  0  0  0  0  0
   59.0960   32.9130   45.4040 C   0  0  0  0  0  0  0  0  0  0  0  0
   60.1800   33.7150   46.0240 C   0  0  0  0  0  0  0  0  0  0  0  0
   60.2550   33.1090   47.4550 C   0  0  1  0  0  0  0  0  0  0  0  0
   59.3100   33.9340   48.3990 C   0  0  0  0  0  0  0  0  0  0  0  0
   60.0190   34.0410   49.7580 C   0  0  0  0  0  0  0  0  0  0  0  0
   61.4370   33.7910   49.4140 C   0  0  0  0  0  0  0  0  0  0  0  0
   62.5380   34.0510   50.2310 C   0  0  0  0  0  0  0  0  0  0  0  0
   63.8260   33.8390   49.7190 C   0  0  0  0  0  0  0  0  0  0  0  0
   63.9930   33.3870   48.4010 C   0  0  0  0  0  0  0  0  0  0  0  0
   62.8750   33.1310   47.5940 C   0  0  0  0  0  0  0  0  0  0  0  0
   61.5890   33.3110   48.1300 C   0  0  0  0  0  0  0  0  0  0  0  0
   59.2630   26.7490   48.3330 H   0  0  0  0  0  0  0  0  0  0  0  0
   60.3110   26.6880   46.8760 H   0  0  0  0  0  0  0  0  0  0  0  0
   58.7130   28.8920   49.2260 H   0  0  0  0  0  0  0  0  0  0  0  0
   61.3815   31.1303   45.7851 H   0  0  0  0  0  0  0  0  0  0  0  0
   61.8175   30.7518   47.4959 H   0  0  0  0  0  0  0  0  0  0  0  0
   60.9360   28.8100   45.7020 H   0  0  0  0  0  0  0  0  0  0  0  0
   57.7152   29.8883   46.1787 H   0  0  0  0  0  0  0  0  0  0  0  0
   56.8210   32.5766   42.8890 H   0  0  0  0  0  0  0  0  0  0  0  0
   58.5826   34.1672   43.7060 H   0  0  0  0  0  0  0  0  0  0  0  0
   61.1304   33.5860   45.4853 H   0  0  0  0  0  0  0  0  0  0  0  0
   59.9919   34.7987   46.0113 H   0  0  0  0  0  0  0  0  0  0  0  0
   59.1400   34.9372   47.9811 H   0  0  0  0  0  0  0  0  0  0  0  0
   58.3313   33.4428   48.5032 H   0  0  0  0  0  0  0  0  0  0  0  0
   59.8886   35.0423   50.1943 H   0  0  0  0  0  0  0  0  0  0  0  0
   59.6250   33.3405   50.5090 H   0  0  0  0  0  0  0  0  0  0  0  0
   62.3978   34.4160   51.2592 H   0  0  0  0  0  0  0  0  0  0  0  0
   64.7064   34.0272   50.3511 H   0  0  0  0  0  0  0  0  0  0  0  0
   65.0053   33.2328   47.9991 H   0  0  0  0  0  0  0  0  0  0  0  0
   63.0034   32.7937   46.5549 H   0  0  0  0  0  0  0  0  0  0  0  0
  1  2  1  0
  2  3  2  0
  3  4  1  0
  4  5  2  0
  4  6  1  0
  6  7  1  6
  7  8  1  0
  6  9  1  0
  9 10  2  0
 10 11  1  0
 11 12  1  0
 11 13  2  0
 13 14  1  0
 14 15  2  0
 15 16  1  0
 17 16  1  6
 17 18  1  0
 18 19  1  0
 19 20  1  0
 20 21  2  0
 21 22  1  0
 22 23  2  0
 23 24  1  0
 24 25  2  0
  8  2  1  0
 15  9  1  0
 25 17  1  0
 17  6  1  0
 25 20  1  0
  1 26  1  0
  1 27  1  0
  3 28  1  0
  7 29  1  0
  7 30  1  0
  8 31  1  0
 10 32  1  0
 13 33  1  0
 14 34  1  0
 16 35  1  0
 16 36  1  0
 18 37  1  0
 18 38  1  0
 19 39  1  0
 19 40  1  0
 21 41  1  0
 22 42  1  0
 23 43  1  0
 24 44  1  0
M  CHG  1   3   1
M  END
>  <UniqueID>  (19) 
14

>  <SMILES>  (19) 
NC1=[NH+]C(=O)[C@@]2(CN1)c1cc(Cl)ccc1C[C@@]21CCc2ccccc21

>  <Energy>  (19) 
84.9230415633065

>  <Genealogy>  (19) 
NC1=[NH+]C(=O)C2(CN1)c1cc(Cl)ccc1CC21CCc2ccccc21 (protonated)
NC1=[NH+]C(=O)[C@@]2(CN1)c1cc(Cl)ccc1C[C@@]21CCc2ccccc21 (chirality)
NC1=[NH+]C(=O)[C@@]2(CN1)c1cc(Cl)ccc1C[C@@]21CCc2ccccc21 (3D coordinates assigned)
NC1=[NH+]C(=O)[C@@]2(CN1)c1cc(Cl)ccc1C[C@@]21CCc2ccccc21 (nonaromatic ring conformer: 84.9230415633065 kcal/mol)

>  <smiles>  (19) 
NC1=NC(=O)C2(CN1)c1cc(Cl)ccc1CC21CCc2ccccc21

>  <score_type>  (19) 
oracle

>  <origin>  (19) 
adg

>  <m_score__min__energy>  (19) 
-7.3200000000000003

>  <m_primary>  (19) 
energy

$$$$
19:0
     RDKit          3D

 51 53  0  0  0  0  0  0  0  0999 V2000
   55.4060   28.5950   43.8740 H   0  0  0  0  0  0  0  0  0  0  0  0
   55.5290   28.8080   44.8530 O   0  0  0  0  0  0  0  0  0  0  0  0
   56.7830   28.9780   45.4400 C   0  0  0  0  0  0  0  0  0  0  0  0
   57.5490   30.1320   45.3270 C   0  0  0  0  0  0  0  0  0  0  0  0
   57.1850   31.3590   44.6810 N   0  0  0  0  0  0  0  0  0  0  0  0
   56.6450   32.3660   45.2570 N   0  0  0  0  0  0  0  0  0  0  0  0
   57.2710   33.6410   45.4870 C   0  0  0  0  0  0  0  0  0  0  0  0
   56.8270   34.6770   44.9190 O   0  0  0  0  0  0  0  0  0  0  0  0
   58.4820   33.7300   46.3360 C   0  0  0  0  0  0  0  0  0  0  0  0
   59.7170   34.1120   45.7800 C   0  0  0  0  0  0  0  0  0  0  0  0
   59.7846   34.3416   44.7063 H   0  0  0  0  0  0  0  0  0  0  0  0
   60.8590   34.2020   46.5820 C   0  0  0  0  0  0  0  0  0  0  0  0
   61.8211   34.4908   46.1337 H   0  0  0  0  0  0  0  0  0  0  0  0
   60.7840   33.9260   47.9550 C   0  0  0  0  0  0  0  0  0  0  0  0
   62.0180   33.9830   48.8050 C   0  0  0  0  0  0  0  0  0  0  0  0
   61.7325   33.9698   49.8672 H   0  0  0  0  0  0  0  0  0  0  0  0
   62.6548   33.1133   48.5857 H   0  0  0  0  0  0  0  0  0  0  0  0
   62.5719   34.9077   48.5857 H   0  0  0  0  0  0  0  0  0  0  0  0
   59.5600   33.5280   48.5100 C   0  0  0  0  0  0  0  0  0  0  0  0
   59.4987   33.2857   49.5812 H   0  0  0  0  0  0  0  0  0  0  0  0
   58.4170   33.4370   47.7110 C   0  0  0  0  0  0  0  0  0  0  0  0
   57.4596   33.1342   48.1601 H   0  0  0  0  0  0  0  0  0  0  0  0
   58.6640   29.9270   46.1030 C   0  0  0  0  0  0  0  0  0  0  0  0
   59.7500   30.7560   46.3800 C   0  0  0  0  0  0  0  0  0  0  0  0
   59.8091   31.7727   45.9643 H   0  0  0  0  0  0  0  0  0  0  0  0
   60.7670   30.2500   47.2080 C   0  0  0  0  0  0  0  0  0  0  0  0
   61.6386   30.8766   47.4479 H   0  0  0  0  0  0  0  0  0  0  0  0
   60.6770   28.9420   47.7340 C   0  0  0  0  0  0  0  0  0  0  0  0
   61.4803   28.5569   48.3793 H   0  0  0  0  0  0  0  0  0  0  0  0
   59.5680   28.1280   47.4390 C   0  0  0  0  0  0  0  0  0  0  0  0
   59.4901   27.1086   47.8450 H   0  0  0  0  0  0  0  0  0  0  0  0
   58.5670   28.6530   46.6140 C   0  0  0  0  0  0  0  0  0  0  0  0
   57.4170   28.0590   46.2180 N   0  0  0  0  0  0  0  0  0  0  0  0
   56.9840   26.6970   46.5530 C   0  0  0  0  0  0  0  0  0  0  0  0
   56.1186   26.7468   47.2302 H   0  0  0  0  0  0  0  0  0  0  0  0
   57.8135   26.1664   47.0432 H   0  0  0  0  0  0  0  0  0  0  0  0
   56.6020   25.9670   45.3240 N   0  0  0  0  0  0  0  0  0  0  0  0
   57.8020   25.6140   44.5290 C   0  0  0  0  0  0  0  0  0  0  0  0
   57.6246   24.6605   44.0100 H   0  0  0  0  0  0  0  0  0  0  0  0
   58.6633   25.5226   45.2070 H   0  0  0  0  0  0  0  0  0  0  0  0
   58.0990   26.6990   43.4980 C   0  0  0  0  0  0  0  0  0  0  0  0
   58.3554   27.6356   44.0148 H   0  0  0  0  0  0  0  0  0  0  0  0
   58.9441   26.3847   42.8680 H   0  0  0  0  0  0  0  0  0  0  0  0
   57.2116   26.8589   42.8680 H   0  0  0  0  0  0  0  0  0  0  0  0
   55.8070   24.7620   45.6510 C   0  0  0  0  0  0  0  0  0  0  0  0
   54.7445   25.0370   45.7253 H   0  0  0  0  0  0  0  0  0  0  0  0
   55.9471   24.0137   44.8570 H   0  0  0  0  0  0  0  0  0  0  0  0
   56.2680   24.1700   46.9790 C   0  0  0  0  0  0  0  0  0  0  0  0
   55.8241   24.7401   47.8084 H   0  0  0  0  0  0  0  0  0  0  0  0
   55.9476   23.1197   47.0432 H   0  0  0  0  0  0  0  0  0  0  0  0
   57.3648   24.2233   47.0432 H   0  0  0  0  0  0  0  0  0  0  0  0
  1  2  1  0
  2  3  1  0
  3  4  2  0
  4  5  1  0
  5  6  2  0
  6  7  1  0
  7  8  2  0
  7  9  1  0
  9 10  2  0
 10 11  1  0
 10 12  1  0
 12 13  1  0
 12 14  2  0
 14 15  1  0
 15 16  1  0
 15 17  1  0
 15 18  1  0
 14 19  1  0
 19 20  1  0
 19 21  2  0
 21 22  1  0
  4 23  1  0
 23 24  2  0
 24 25  1  0
 24 26  1  0
 26 27  1  0
 26 28  2  0
 28 29  1  0
 28 30  1  0
 30 31  1  0
 30 32  2  0
 32 33  1  0
 33 34  1  0
 34 35  1  0
 34 36  1  0
 34 37  1  0
 37 38  1  0
 38 39  1  0
 38 40  1  0
 38 41  1  0
 41 42  1  0
 41 43  1  0
 41 44  1  0
 37 45  1  0
 45 46  1  0
 45 47  1  0
 45 48  1  0
 48 49  1  0
 48 50  1  0
 48 51  1  0
 33  3  1  0
 21  9  1  0
 32 23  1  0
M  END
>  <UniqueID>  (20) 
15

>  <SMILES>  (20) 
CCN(CC)Cn1c(O)c(/N=N\C(=O)c2ccc(C)cc2)c2ccccc21

>  <Energy>  (20) 
97.4110047729817

>  <Genealogy>  (20) 
CCN(CC)Cn1c(O)c(/N=N\C(=O)c2ccc(C)cc2)c2ccccc21 (cis-trans isomerization)
CCN(CC)Cn1c(O)c(/N=N\C(=O)c2ccc(C)cc2)c2ccccc21 (3D coordinates assigned)
CCN(CC)Cn1c(O)c(/N=N\C(=O)c2ccc(C)cc2)c2ccccc21 (optimized conformer: 97.4110047729817 kcal/mol)

>  <smiles>  (20) 
CCN(CC)Cn1c(O)c(N=NC(=O)c2ccc(C)cc2)c2ccccc21

>  <score_type>  (20) 
oracle

>  <origin>  (20) 
adg

>  <m_score__min__energy>  (20) 
-9.5099999999999998

>  <m_primary>  (20) 
energy

$$$$
20:0
     RDKit          3D

 38 40  0  0  0  0  0  0  0  0999 V2000
   55.2240   29.3410   44.8640 N   0  0  0  0  0  0  0  0  0  0  0  0
   56.8460   29.8730   44.6010 S   0  0  0  0  0  0  0  0  0  0  0  0
   57.1130   29.9580   43.1240 O   0  0  0  0  0  0  0  0  0  0  0  0
   57.0340   31.2360   45.2050 O   0  0  0  0  0  0  0  0  0  0  0  0
   57.9610   28.7340   45.3490 C   0  0  0  0  0  0  0  0  0  0  0  0
   58.2360   27.5050   44.7330 C   0  0  0  0  0  0  0  0  0  0  0  0
   59.1260   26.6070   45.3270 C   0  0  0  0  0  0  0  0  0  0  0  0
   59.7340   26.9240   46.5450 C   0  0  0  0  0  0  0  0  0  0  0  0
   59.4400   28.1320   47.1880 C   0  0  0  0  0  0  0  0  0  0  0  0
   60.0960   28.4350   48.4270 N   0  0  0  0  0  0  0  0  0  0  0  0
   60.0280   29.6760   49.1440 C   0  0  0  0  0  0  0  0  0  0  0  0
   58.8960   30.1460   49.4350 O   0  0  0  0  0  0  0  0  0  0  0  0
   61.2630   30.4520   49.5130 C   0  0  0  0  0  0  0  0  0  0  0  0
   61.4640   31.5630   48.5770 N   0  0  0  0  0  0  0  0  0  0  0  0
   60.3990   32.0480   47.9300 N   0  0  0  0  0  0  0  0  0  0  0  0
   60.4920   33.0640   47.0290 C   0  0  0  0  0  0  0  0  0  0  0  0
   59.2740   33.5520   46.3540 C   0  0  0  0  0  0  0  0  0  0  0  0
   57.9700   33.3760   46.8100 C   0  0  0  0  0  0  0  0  0  0  0  0
   57.0050   33.9440   45.9670 C   0  0  0  0  0  0  0  0  0  0  0  0
   57.5370   34.5660   44.8470 C   0  0  0  0  0  0  0  0  0  0  0  0
   59.2090   34.4110   44.9050 S   0  0  0  0  0  0  0  0  0  0  0  0
   61.7490   33.6200   46.7660 C   0  0  0  0  0  0  0  0  0  0  0  0
   62.8660   33.1180   47.4260 C   0  0  0  0  0  0  0  0  0  0  0  0
   62.7120   32.0750   48.3380 C   0  0  0  0  0  0  0  0  0  0  0  0
   63.7260   31.6120   48.9300 O   0  0  0  0  0  0  0  0  0  0  0  0
   58.5670   29.0470   46.5730 C   0  0  0  0  0  0  0  0  0  0  0  0
   55.1560   28.3700   44.4880 H   0  0  0  0  0  0  0  0  0  0  0  0
   57.7501   27.2474   43.7803 H   0  0  0  0  0  0  0  0  0  0  0  0
   59.3488   25.6486   44.8353 H   0  0  0  0  0  0  0  0  0  0  0  0
   60.4469   26.2208   47.0004 H   0  0  0  0  0  0  0  0  0  0  0  0
   61.1498   30.8515   50.5316 H   0  0  0  0  0  0  0  0  0  0  0  0
   62.1342   29.7821   49.4659 H   0  0  0  0  0  0  0  0  0  0  0  0
   57.7218   32.8437   47.7401 H   0  0  0  0  0  0  0  0  0  0  0  0
   55.9256   33.9006   46.1744 H   0  0  0  0  0  0  0  0  0  0  0  0
   56.9633   35.0731   44.0573 H   0  0  0  0  0  0  0  0  0  0  0  0
   61.8527   34.4447   46.0455 H   0  0  0  0  0  0  0  0  0  0  0  0
   63.8625   33.5406   47.2299 H   0  0  0  0  0  0  0  0  0  0  0  0
   58.3588   30.0134   47.0553 H   0  0  0  0  0  0  0  0  0  0  0  0
  1  2  1  0
  2  3  2  0
  2  4  2  0
  2  5  1  0
  5  6  2  0
  6  7  1  0
  7  8  2  0
  8  9  1  0
  9 10  1  0
 10 11  1  0
 11 12  2  0
 11 13  1  0
 13 14  1  0
 14 15  1  0
 15 16  2  0
 16 17  1  0
 17 18  2  0
 18 19  1  0
 19 20  2  0
 20 21  1  0
 16 22  1  0
 22 23  2  0
 23 24  1  0
 24 25  2  0
  9 26  2  0
 26  5  1  0
 24 14  1  0
 21 17  1  0
  1 27  1  0
  6 28  1  0
  7 29  1  0
  8 30  1  0
 13 31  1  0
 13 32  1  0
 18 33  1  0
 19 34  1  0
 20 35  1  0
 22 36  1  0
 23 37  1  0
 26 38  1  0
M  CHG  2   1  -1  10  -1
M  END
>  <UniqueID>  (21) 
16

>  <SMILES>  (21) 
[NH-]S(=O)(=O)c1cccc([N-]C(=O)Cn2nc(-c3cccs3)ccc2=O)c1

>  <Energy>  (21) 
72.22160332785141

>  <Genealogy>  (21) 
[NH-]S(=O)(=O)c1cccc([N-]C(=O)Cn2nc(-c3cccs3)ccc2=O)c1 (protonated)
[NH-]S(=O)(=O)c1cccc([N-]C(=O)Cn2nc(-c3cccs3)ccc2=O)c1 (3D coordinates assigned)
[NH-]S(=O)(=O)c1cccc([N-]C(=O)Cn2nc(-c3cccs3)ccc2=O)c1 (optimized conformer: 72.22160332785141 kcal/mol)

>  <smiles>  (21) 
NS(=O)(=O)c1cccc(NC(=O)Cn2nc(-c3cccs3)ccc2=O)c1

>  <score_type>  (21) 
oracle

>  <origin>  (21) 
adg

>  <m_score__min__energy>  (21) 
-12.75

>  <m_primary>  (21) 
energy

$$$$
21:0
     RDKit          3D

 53 56  0  0  0  0  0  0  0  0999 V2000
   56.7503   25.5032   48.0715 H   0  0  0  0  0  0  0  0  0  0  0  0
   56.9390   25.2800   47.0110 C   0  0  0  0  0  0  0  0  0  0  0  0
   56.1160   24.3740   46.3340 C   0  0  0  0  0  0  0  0  0  0  0  0
   55.2872   23.8837   46.8657 H   0  0  0  0  0  0  0  0  0  0  0  0
   56.3430   24.0890   44.9830 C   0  0  0  0  0  0  0  0  0  0  0  0
   55.2830   22.9610   44.1400 S   0  0  0  0  0  0  0  0  0  0  0  0
   55.0960   23.3910   42.7110 O   0  0  0  0  0  0  0  0  0  0  0  0
   55.9160   21.5990   44.1480 O   0  0  0  0  0  0  0  0  0  0  0  0
   53.7400   22.8790   44.9300 N   0  0  0  0  0  0  0  0  0  0  0  0
   53.1930   24.2220   45.0880 C   0  0  0  0  0  0  0  0  0  0  0  0
   53.0979   24.4555   46.1587 H   0  0  0  0  0  0  0  0  0  0  0  0
   53.8661   24.9504   44.6122 H   0  0  0  0  0  0  0  0  0  0  0  0
   52.2025   24.2728   44.6122 H   0  0  0  0  0  0  0  0  0  0  0  0
   57.3930   24.7240   44.3080 C   0  0  0  0  0  0  0  0  0  0  0  0
   57.5691   24.5098   43.2435 H   0  0  0  0  0  0  0  0  0  0  0  0
   58.2180   25.6290   44.9820 C   0  0  0  0  0  0  0  0  0  0  0  0
   59.0380   26.1267   44.4437 H   0  0  0  0  0  0  0  0  0  0  0  0
   58.0060   25.9070   46.3440 C   0  0  0  0  0  0  0  0  0  0  0  0
   58.8820   26.9120   47.0580 C   0  0  2  0  0  0  0  0  0  0  0  0
   59.1699   26.5116   48.0413 H   0  0  0  0  0  0  0  0  0  0  0  0
   58.1390   28.1610   47.2540 N   0  0  0  0  0  0  0  0  0  0  0  0
   58.1810   29.1900   46.4610 C   0  0  0  0  0  0  0  0  0  0  0  0
   58.8280   30.3280   46.8750 N   0  0  0  0  0  0  0  0  0  0  0  0
   58.9110   31.4410   46.0840 C   0  0  0  0  0  0  0  0  0  0  0  0
   59.5720   32.6240   46.5570 N   0  0  0  0  0  0  0  0  0  0  0  0
   58.9980   33.9490   46.2960 C   0  0  0  0  0  0  0  0  0  0  0  0
   59.3847   34.3255   45.3375 H   0  0  0  0  0  0  0  0  0  0  0  0
   57.9026   33.8543   46.2608 H   0  0  0  0  0  0  0  0  0  0  0  0
   59.3690   34.9480   47.4180 C   0  0  0  0  0  0  0  0  0  0  0  0
   59.7510   35.8676   46.9507 H   0  0  0  0  0  0  0  0  0  0  0  0
   58.4558   35.1213   48.0062 H   0  0  0  0  0  0  0  0  0  0  0  0
   60.3530   34.4620   48.3180 O   0  0  0  0  0  0  0  0  0  0  0  0
   61.4170   33.8640   47.6060 C   0  0  0  0  0  0  0  0  0  0  0  0
   61.7262   34.5256   46.7834 H   0  0  0  0  0  0  0  0  0  0  0  0
   62.2682   33.7018   48.2836 H   0  0  0  0  0  0  0  0  0  0  0  0
   60.9540   32.5230   47.0360 C   0  0  0  0  0  0  0  0  0  0  0  0
   61.6085   32.2391   46.1987 H   0  0  0  0  0  0  0  0  0  0  0  0
   61.0036   31.7611   47.8279 H   0  0  0  0  0  0  0  0  0  0  0  0
   58.2960   31.3840   44.8360 C   0  0  0  0  0  0  0  0  0  0  0  0
   58.0760   32.2950   43.8200 C   0  0  0  0  0  0  0  0  0  0  0  0
   58.4371   33.3338   43.7965 H   0  0  0  0  0  0  0  0  0  0  0  0
   57.3370   31.6870   42.8550 N   0  0  0  0  0  0  0  0  0  0  0  0
   57.1050   30.4360   43.2380 N   0  0  0  0  0  0  0  0  0  0  0  0
   56.2710   29.4920   42.5050 C   0  0  0  0  0  0  0  0  0  0  0  0
   55.7158   28.8636   43.2170 H   0  0  0  0  0  0  0  0  0  0  0  0
   55.5608   30.0446   41.8724 H   0  0  0  0  0  0  0  0  0  0  0  0
   56.9069   28.8553   41.8724 H   0  0  0  0  0  0  0  0  0  0  0  0
   57.6670   30.2510   44.4410 C   0  0  0  0  0  0  0  0  0  0  0  0
   57.5890   29.1500   45.2260 N   0  0  0  0  0  0  0  0  0  0  0  0
   60.1570   27.1670   46.2460 C   0  0  0  0  0  0  0  0  0  0  0  0
   61.0006   27.3357   46.9314 H   0  0  0  0  0  0  0  0  0  0  0  0
   60.3688   26.2934   45.6120 H   0  0  0  0  0  0  0  0  0  0  0  0
   60.0165   28.0548   45.6120 H   0  0  0  0  0  0  0  0  0  0  0  0
  1  2  1  0
  2  3  2  0
  3  4  1  0
  3  5  1  0
  5  6  1  0
  6  7  2  0
  6  8  2  0
  6  9  1  0
  9 10  1  0
 10 11  1  0
 10 12  1  0
 10 13  1  0
  5 14  2  0
 14 15  1  0
 14 16  1  0
 16 17  1  0
 16 18  2  0
 18 19  1  0
 19 20  1  1
 19 21  1  0
 21 22  2  0
 22 23  1  0
 23 24  2  0
 24 25  1  0
 25 26  1  0
 26 27  1  0
 26 28  1  0
 26 29  1  0
 29 30  1  0
 29 31  1  0
 29 32  1  0
 32 33  1  0
 33 34  1  0
 33 35  1  0
 33 36  1  0
 36 37  1  0
 36 38  1  0
 24 39  1  0
 39 40  1  0
 40 41  1  0
 40 42  2  0
 42 43  1  0
 43 44  1  0
 44 45  1  0
 44 46  1  0
 44 47  1  0
 43 48  1  0
 48 49  1  0
 19 50  1  0
 50 51  1  0
 50 52  1  0
 50 53  1  0
 18  2  1  0
 49 22  1  0
 36 25  1  0
 48 39  2  0
M  CHG  2   9  -1  49  -1
M  END
>  <UniqueID>  (22) 
17

>  <SMILES>  (22) 
C[N-]S(=O)(=O)c1ccc([C@@H](C)/N=c2/nc(N3CCOCC3)c3cnn(C)c3[n-]2)cc1

>  <Energy>  (22) 
103.32065730544447

>  <Genealogy>  (22) 
C[N-]S(=O)(=O)c1ccc(C(C)N=c2nc(N3CCOCC3)c3cnn(C)c3[n-]2)cc1 (protonated)
C[N-]S(=O)(=O)c1ccc([C@@H](C)N=c2nc(N3CCOCC3)c3cnn(C)c3[n-]2)cc1 (chirality)
C[N-]S(=O)(=O)c1ccc([C@@H](C)/N=c2/nc(N3CCOCC3)c3cnn(C)c3[n-]2)cc1 (cis-trans isomerization)
C[N-]S(=O)(=O)c1ccc([C@@H](C)/N=c2/nc(N3CCOCC3)c3cnn(C)c3[n-]2)cc1 (3D coordinates assigned)
C[N-]S(=O)(=O)c1ccc([C@@H](C)/N=c2/nc(N3CCOCC3)c3cnn(C)c3[n-]2)cc1 (nonaromatic ring conformer: 103.32065730544447 kcal/mol)

>  <smiles>  (22) 
CNS(=O)(=O)c1ccc(C(C)N=c2nc(N3CCOCC3)c3cnn(C)c3[nH]2)cc1

>  <score_type>  (22) 
oracle

>  <origin>  (22) 
adg

>  <m_score__min__energy>  (22) 
-11.57

>  <m_primary>  (22) 
energy

$$$$
22:0
     RDKit          3D

 60 63  0  0  0  0  0  0  0  0999 V2000
   56.1640   29.7850   43.5780 C   0  0  0  0  0  0  0  0  0  0  0  0
   56.5260   30.0680   44.9270 O   0  0  0  0  0  0  0  0  0  0  0  0
   57.4950   31.0100   45.3050 C   0  0  0  0  0  0  0  0  0  0  0  0
   57.2730   32.3540   44.9940 C   0  0  0  0  0  0  0  0  0  0  0  0
   58.2090   33.3300   45.3520 C   0  0  0  0  0  0  0  0  0  0  0  0
   59.3840   32.9750   46.0190 C   0  0  0  0  0  0  0  0  0  0  0  0
   60.2850   33.9870   46.3830 O   0  0  0  0  0  0  0  0  0  0  0  0
   61.3740   33.8260   47.2520 C   0  0  0  0  0  0  0  0  0  0  0  0
   62.6960   33.8880   46.7800 C   0  0  0  0  0  0  0  0  0  0  0  0
   63.7680   33.6970   47.6520 C   0  0  0  0  0  0  0  0  0  0  0  0
   63.5140   33.4700   49.0130 C   0  0  0  0  0  0  0  0  0  0  0  0
   64.5820   33.2080   49.9440 N   0  0  0  0  0  0  0  0  0  0  0  0
   65.3830   31.9890   49.7660 C   0  0  0  0  0  0  0  0  0  0  0  0
   66.5660   31.9630   50.7370 C   0  0  0  0  0  0  0  0  0  0  0  0
   67.1290   33.3190   50.8330 N   0  0  0  0  0  0  0  0  0  0  0  0
   68.4310   33.2900   51.5170 C   0  0  0  0  0  0  0  0  0  0  0  0
   66.2000   34.2430   51.5250 C   0  0  0  0  0  0  0  0  0  0  0  0
   64.7170   33.9780   51.1880 C   0  0  0  0  0  0  0  0  0  0  0  0
   62.2270   33.4360   49.4490 N   0  0  0  0  0  0  0  0  0  0  0  0
   61.1590   33.6120   48.6260 C   0  0  0  0  0  0  0  0  0  0  0  0
   59.8000   33.5380   49.2100 C   0  0  0  0  0  0  0  0  0  0  0  0
   59.2710   34.5620   49.7190 O   0  0  0  0  0  0  0  0  0  0  0  0
   59.0960   32.2900   49.2780 N   0  0  0  0  0  0  0  0  0  0  0  0
   59.5640   31.1190   49.9660 C   0  0  0  0  0  0  0  0  0  0  0  0
   60.7760   30.5160   49.5890 C   0  0  0  0  0  0  0  0  0  0  0  0
   61.2460   29.3900   50.2630 C   0  0  0  0  0  0  0  0  0  0  0  0
   60.5070   28.8430   51.3100 C   0  0  0  0  0  0  0  0  0  0  0  0
   59.2910   29.4190   51.6940 C   0  0  0  0  0  0  0  0  0  0  0  0
   58.3730   28.6240   52.9700 Cl  0  0  0  0  0  0  0  0  0  0  0  0
   58.8080   30.5680   51.0250 C   0  0  0  0  0  0  0  0  0  0  0  0
   57.5460   31.2160   51.4450 C   0  0  0  0  0  0  0  0  0  0  0  0
   57.4110   32.6380   51.4210 N   0  0  0  0  0  0  0  0  0  0  0  0
   56.5620   30.5080   51.7930 O   0  0  0  0  0  0  0  0  0  0  0  0
   59.6050   31.6250   46.3500 C   0  0  0  0  0  0  0  0  0  0  0  0
   58.6730   30.6480   45.9890 C   0  0  0  0  0  0  0  0  0  0  0  0
   55.2975   29.1076   43.5653 H   0  0  0  0  0  0  0  0  0  0  0  0
   55.9044   30.7221   43.0637 H   0  0  0  0  0  0  0  0  0  0  0  0
   57.0107   29.3069   43.0637 H   0  0  0  0  0  0  0  0  0  0  0  0
   56.3550   32.6469   44.4635 H   0  0  0  0  0  0  0  0  0  0  0  0
   58.0183   34.3851   45.1064 H   0  0  0  0  0  0  0  0  0  0  0  0
   62.8870   34.0886   45.7154 H   0  0  0  0  0  0  0  0  0  0  0  0
   64.8016   33.7241   47.2765 H   0  0  0  0  0  0  0  0  0  0  0  0
   64.7470   31.1106   49.9503 H   0  0  0  0  0  0  0  0  0  0  0  0
   65.7734   31.9733   48.7377 H   0  0  0  0  0  0  0  0  0  0  0  0
   66.2232   31.6337   51.7290 H   0  0  0  0  0  0  0  0  0  0  0  0
   67.3335   31.2640   50.3732 H   0  0  0  0  0  0  0  0  0  0  0  0
   68.2734   33.2935   52.6056 H   0  0  0  0  0  0  0  0  0  0  0  0
   68.9766   32.3795   51.2284 H   0  0  0  0  0  0  0  0  0  0  0  0
   69.0166   34.1753   51.2284 H   0  0  0  0  0  0  0  0  0  0  0  0
   66.3377   34.1295   52.6104 H   0  0  0  0  0  0  0  0  0  0  0  0
   66.4364   35.2615   51.1833 H   0  0  0  0  0  0  0  0  0  0  0  0
   64.2580   33.4116   52.0117 H   0  0  0  0  0  0  0  0  0  0  0  0
   64.2129   34.9464   51.0535 H   0  0  0  0  0  0  0  0  0  0  0  0
   61.3584   30.9358   48.7556 H   0  0  0  0  0  0  0  0  0  0  0  0
   62.2018   28.9325   49.9679 H   0  0  0  0  0  0  0  0  0  0  0  0
   60.8816   27.9534   51.8376 H   0  0  0  0  0  0  0  0  0  0  0  0
   56.5230   33.0900   51.7350 H   0  0  0  0  0  0  0  0  0  0  0  0
   58.1700   33.2400   51.0310 H   0  0  0  0  0  0  0  0  0  0  0  0
   60.5158   31.3374   46.8956 H   0  0  0  0  0  0  0  0  0  0  0  0
   58.8594   29.5933   46.2395 H   0  0  0  0  0  0  0  0  0  0  0  0
  1  2  1  0
  2  3  1  0
  3  4  2  0
  4  5  1  0
  5  6  2  0
  6  7  1  0
  7  8  1  0
  8  9  2  0
  9 10  1  0
 10 11  2  0
 11 12  1  0
 12 13  1  0
 13 14  1  0
 14 15  1  0
 15 16  1  0
 15 17  1  0
 17 18  1  0
 11 19  1  0
 19 20  2  0
 20 21  1  0
 21 22  2  0
 21 23  1  0
 23 24  1  0
 24 25  2  0
 25 26  1  0
 26 27  2  0
 27 28  1  0
 28 29  1  0
 28 30  2  0
 30 31  1  0
 31 32  1  0
 31 33  2  0
  6 34  1  0
 34 35  2  0
 35  3  1  0
 20  8  1  0
 30 24  1  0
 18 12  1  0
  1 36  1  0
  1 37  1  0
  1 38  1  0
  4 39  1  0
  5 40  1  0
  9 41  1  0
 10 42  1  0
 13 43  1  0
 13 44  1  0
 14 45  1  0
 14 46  1  0
 16 47  1  0
 16 48  1  0
 16 49  1  0
 17 50  1  0
 17 51  1  0
 18 52  1  0
 18 53  1  0
 25 54  1  0
 26 55  1  0
 27 56  1  0
 32 57  1  0
 32 58  1  0
 34 59  1  0
 35 60  1  0
M  CHG  1  23  -1
M  END
>  <UniqueID>  (23) 
18

>  <SMILES>  (23) 
COc1ccc(Oc2ccc(N3CCN(C)CC3)nc2C(=O)[N-]c2cccc(Cl)c2C(N)=O)cc1

>  <Energy>  (23) 
87.8940174782667

>  <Genealogy>  (23) 
COc1ccc(Oc2ccc(N3CCN(C)CC3)nc2C(=O)[N-]c2cccc(Cl)c2C(N)=O)cc1 (protonated)
COc1ccc(Oc2ccc(N3CCN(C)CC3)nc2C(=O)[N-]c2cccc(Cl)c2C(N)=O)cc1 (3D coordinates assigned)
COc1ccc(Oc2ccc(N3CCN(C)CC3)nc2C(=O)[N-]c2cccc(Cl)c2C(N)=O)cc1 (nonaromatic ring conformer: 87.8940174782667 kcal/mol)

>  <smiles>  (23) 
COc1ccc(Oc2ccc(N3CCN(C)CC3)nc2C(=O)Nc2cccc(Cl)c2C(N)=O)cc1

>  <score_type>  (23) 
oracle

>  <origin>  (23) 
adg

>  <m_score__min__energy>  (23) 
-9.8699999999999992

>  <m_primary>  (23) 
energy

$$$$
23:0
     RDKit          3D

 54 58  0  0  0  0  0  0  0  0999 V2000
   61.0150   32.8440   53.1470 C   0  0  0  0  0  0  0  0  0  0  0  0
   61.3910   32.5990   51.7490 N   0  0  0  0  0  0  0  0  0  0  0  0
   60.7490   31.6520   51.0510 N   0  0  0  0  0  0  0  0  0  0  0  0
   61.0610   31.3630   49.7550 C   0  0  0  0  0  0  0  0  0  0  0  0
   60.3240   30.2720   49.0780 C   0  0  0  0  0  0  0  0  0  0  0  0
   59.2090   30.5490   48.2730 C   0  0  0  0  0  0  0  0  0  0  0  0
   58.5370   29.5090   47.6310 C   0  0  0  0  0  0  0  0  0  0  0  0
   58.9850   28.1940   47.8020 C   0  0  0  0  0  0  0  0  0  0  0  0
   58.2980   27.0740   47.1470 C   0  0  0  0  0  0  0  0  0  0  0  0
   57.8450   26.1490   47.8720 O   0  0  0  0  0  0  0  0  0  0  0  0
   58.1000   27.0360   45.7130 N   0  0  0  0  0  0  0  0  0  0  0  0
   58.0250   28.2500   44.8940 C   0  0  2  0  0  0  0  0  0  0  0  0
   56.6900   28.9300   45.0570 C   0  0  0  0  0  0  0  0  0  0  0  0
   55.6420   28.2570   45.2440 O   0  0  0  0  0  0  0  0  0  0  0  0
   56.6090   30.3160   45.0010 O   0  0  0  0  0  0  0  0  0  0  0  0
   58.2810   27.8530   43.4390 C   0  0  0  0  0  0  0  0  0  0  0  0
   57.7710   26.1260   43.2310 S   0  0  0  0  0  0  0  0  0  0  0  0
   58.2360   25.7890   44.9530 C   0  0  2  0  0  0  0  0  0  0  0  0
   57.3810   24.6570   45.4990 C   0  0  0  0  0  0  0  0  0  0  0  0
   57.9350   23.3670   45.6400 C   0  0  0  0  0  0  0  0  0  0  0  0
   59.2280   23.1250   45.3090 F   0  0  0  0  0  0  0  0  0  0  0  0
   57.1550   22.3100   46.1220 C   0  0  0  0  0  0  0  0  0  0  0  0
   55.8180   22.5210   46.4580 C   0  0  0  0  0  0  0  0  0  0  0  0
   55.2520   23.7870   46.3080 C   0  0  0  0  0  0  0  0  0  0  0  0
   56.0210   24.8500   45.8270 C   0  0  0  0  0  0  0  0  0  0  0  0
   55.4350   26.0630   45.6890 F   0  0  0  0  0  0  0  0  0  0  0  0
   60.0910   27.9480   48.5550 N   0  0  0  0  0  0  0  0  0  0  0  0
   60.7650   28.9460   49.1870 C   0  0  0  0  0  0  0  0  0  0  0  0
   62.0740   32.1010   49.1070 C   0  0  0  0  0  0  0  0  0  0  0  0
   62.4020   31.9040   47.7490 C   0  0  0  0  0  0  0  0  0  0  0  0
   63.4160   32.6500   47.1480 C   0  0  0  0  0  0  0  0  0  0  0  0
   64.1120   33.6080   47.8840 C   0  0  0  0  0  0  0  0  0  0  0  0
   63.7880   33.8340   49.2220 C   0  0  0  0  0  0  0  0  0  0  0  0
   62.7640   33.0910   49.8440 C   0  0  0  0  0  0  0  0  0  0  0  0
   62.4050   33.3220   51.1810 C   0  0  0  0  0  0  0  0  0  0  0  0
   63.0120   34.1980   51.8580 O   0  0  0  0  0  0  0  0  0  0  0  0
   61.7484   32.3661   53.8131 H   0  0  0  0  0  0  0  0  0  0  0  0
   60.9978   33.9272   53.3376 H   0  0  0  0  0  0  0  0  0  0  0  0
   60.0171   32.4222   53.3376 H   0  0  0  0  0  0  0  0  0  0  0  0
   59.9940   31.0950   51.5130 H   0  0  0  0  0  0  0  0  0  0  0  0
   58.8647   31.5863   48.1481 H   0  0  0  0  0  0  0  0  0  0  0  0
   57.6636   29.7201   46.9966 H   0  0  0  0  0  0  0  0  0  0  0  0
   58.7858   28.9753   45.2183 H   0  0  0  0  0  0  0  0  0  0  0  0
   59.3512   27.9567   43.2066 H   0  0  0  0  0  0  0  0  0  0  0  0
   57.7113   28.5040   42.7596 H   0  0  0  0  0  0  0  0  0  0  0  0
   59.2809   25.4552   45.0347 H   0  0  0  0  0  0  0  0  0  0  0  0
   57.5977   21.3095   46.2363 H   0  0  0  0  0  0  0  0  0  0  0  0
   55.2096   21.6887   46.8415 H   0  0  0  0  0  0  0  0  0  0  0  0
   54.1959   23.9493   46.5694 H   0  0  0  0  0  0  0  0  0  0  0  0
   61.6581   28.7121   49.7850 H   0  0  0  0  0  0  0  0  0  0  0  0
   61.8532   31.1554   47.1588 H   0  0  0  0  0  0  0  0  0  0  0  0
   63.6672   32.4819   46.0903 H   0  0  0  0  0  0  0  0  0  0  0  0
   64.9179   34.1866   47.4089 H   0  0  0  0  0  0  0  0  0  0  0  0
   64.3351   34.5969   49.7954 H   0  0  0  0  0  0  0  0  0  0  0  0
  1  2  1  0
  2  3  1  0
  3  4  2  0
  4  5  1  0
  5  6  2  0
  6  7  1  0
  7  8  2  0
  8  9  1  0
  9 10  2  0
  9 11  1  0
 11 12  1  0
 12 13  1  0
 13 14  2  0
 13 15  1  0
 12 16  1  0
 16 17  1  0
 17 18  1  0
 18 19  1  0
 19 20  2  0
 20 21  1  0
 20 22  1  0
 22 23  2  0
 23 24  1  0
 24 25  2  0
 25 26  1  0
  8 27  1  0
 27 28  2  0
  4 29  1  0
 29 30  2  0
 30 31  1  0
 31 32  2  0
 32 33  1  0
 33 34  2  0
 34 35  1  0
 35 36  2  0
 35  2  1  0
 28  5  1  0
 34 29  1  0
 18 11  1  0
 25 19  1  0
  1 37  1  0
  1 38  1  0
  1 39  1  0
  3 40  1  0
  6 41  1  0
  7 42  1  0
 12 43  1  1
 16 44  1  0
 16 45  1  0
 18 46  1  6
 22 47  1  0
 23 48  1  0
 24 49  1  0
 28 50  1  0
 30 51  1  0
 31 52  1  0
 32 53  1  0
 33 54  1  0
M  CHG  2   3   1  15  -1
M  END
>  <UniqueID>  (24) 
19

>  <SMILES>  (24) 
Cn1[nH+]c(-c2ccc(C(=O)N3[C@@H](c4c(F)cccc4F)SC[C@H]3C(=O)[O-])nc2)c2ccccc2c1=O

>  <Energy>  (24) 
81.11195015827238

>  <Genealogy>  (24) 
Cn1[nH+]c(-c2ccc(C(=O)N3C(C(=O)[O-])CSC3c3c(F)cccc3F)nc2)c2ccccc2c1=O (protonated)
Cn1[nH+]c(-c2ccc(C(=O)N3[C@@H](c4c(F)cccc4F)SC[C@H]3C(=O)[O-])nc2)c2ccccc2c1=O (chirality)
Cn1[nH+]c(-c2ccc(C(=O)N3[C@@H](c4c(F)cccc4F)SC[C@H]3C(=O)[O-])nc2)c2ccccc2c1=O (3D coordinates assigned)
Cn1[nH+]c(-c2ccc(C(=O)N3[C@@H](c4c(F)cccc4F)SC[C@H]3C(=O)[O-])nc2)c2ccccc2c1=O (nonaromatic ring conformer: 81.11195015827238 kcal/mol)

>  <smiles>  (24) 
Cn1nc(-c2ccc(C(=O)N3C(C(=O)O)CSC3c3c(F)cccc3F)nc2)c2ccccc2c1=O

>  <score_type>  (24) 
oracle

>  <origin>  (24) 
adg

>  <m_score__min__energy>  (24) 
-9.9000000000000004

>  <m_primary>  (24) 
energy

$$$$
24:0
     RDKit          3D

 38 40  0  0  0  0  0  0  0  0999 V2000
   58.1490   27.1600   43.0360 C   0  0  0  0  0  0  0  0  0  0  0  0
   57.8590   28.1200   44.2080 C   0  0  0  0  0  0  0  0  0  0  0  0
   57.5260   27.2720   45.4560 C   0  0  0  0  0  0  0  0  0  0  0  0
   59.1550   28.9550   44.4930 C   0  0  0  0  0  0  0  0  0  0  0  0
   58.8530   30.1540   45.3630 C   0  0  0  0  0  0  0  0  0  0  0  0
   59.4940   30.3310   46.3860 O   0  0  0  0  0  0  0  0  0  0  0  0
   57.6640   31.0410   45.0290 C   0  0  2  0  0  0  0  0  0  0  0  0
   57.0140   30.4750   43.7810 C   0  0  0  0  0  0  0  0  0  0  0  0
   57.1860   31.0160   42.6110 N   0  0  0  0  0  0  0  0  0  0  0  0
   57.8860   32.2460   42.4300 C   0  0  0  0  0  0  0  0  0  0  0  0
   58.0390   32.7180   41.2750 O   0  0  0  0  0  0  0  0  0  0  0  0
   58.4370   32.9170   43.5610 N   0  0  0  0  0  0  0  0  0  0  0  0
   57.9550   32.5690   44.8970 C   0  0  2  0  0  0  0  0  0  0  0  0
   58.8740   33.1040   45.9810 C   0  0  0  0  0  0  0  0  0  0  0  0
   58.5320   32.9200   47.3330 C   0  0  0  0  0  0  0  0  0  0  0  0
   59.3820   33.3760   48.3460 C   0  0  0  0  0  0  0  0  0  0  0  0
   60.5850   34.0100   48.0210 C   0  0  0  0  0  0  0  0  0  0  0  0
   61.6510   34.5760   49.2950 Cl  0  0  0  0  0  0  0  0  0  0  0  0
   60.9420   34.1820   46.6810 C   0  0  0  0  0  0  0  0  0  0  0  0
   60.0960   33.7290   45.6650 C   0  0  0  0  0  0  0  0  0  0  0  0
   56.6210   29.0290   43.8470 C   0  0  0  0  0  0  0  0  0  0  0  0
   58.4458   26.1775   43.4317 H   0  0  0  0  0  0  0  0  0  0  0  0
   57.2442   27.0492   42.4203 H   0  0  0  0  0  0  0  0  0  0  0  0
   58.9638   27.5687   42.4203 H   0  0  0  0  0  0  0  0  0  0  0  0
   57.7532   27.8505   46.3636 H   0  0  0  0  0  0  0  0  0  0  0  0
   56.4579   27.0092   45.4464 H   0  0  0  0  0  0  0  0  0  0  0  0
   58.1299   26.3526   45.4464 H   0  0  0  0  0  0  0  0  0  0  0  0
   59.8884   28.3153   45.0058 H   0  0  0  0  0  0  0  0  0  0  0  0
   59.5563   29.3133   43.5335 H   0  0  0  0  0  0  0  0  0  0  0  0
   56.9851   31.0130   45.8940 H   0  0  0  0  0  0  0  0  0  0  0  0
   58.9270   33.8290   43.4080 H   0  0  0  0  0  0  0  0  0  0  0  0
   56.9877   33.0712   45.0459 H   0  0  0  0  0  0  0  0  0  0  0  0
   57.5908   32.4146   47.5951 H   0  0  0  0  0  0  0  0  0  0  0  0
   59.1033   33.2355   49.4008 H   0  0  0  0  0  0  0  0  0  0  0  0
   61.8914   34.6752   46.4252 H   0  0  0  0  0  0  0  0  0  0  0  0
   60.3862   33.8614   44.6123 H   0  0  0  0  0  0  0  0  0  0  0  0
   55.8455   28.9022   44.6168 H   0  0  0  0  0  0  0  0  0  0  0  0
   56.2400   28.7251   42.8608 H   0  0  0  0  0  0  0  0  0  0  0  0
  1  2  1  0
  2  3  1  0
  2  4  1  0
  4  5  1  0
  5  6  2  0
  5  7  1  0
  7  8  1  0
  8  9  2  0
  9 10  1  0
 10 11  2  0
 10 12  1  0
 12 13  1  0
 13 14  1  0
 14 15  2  0
 15 16  1  0
 16 17  2  0
 17 18  1  0
 17 19  1  0
 19 20  2  0
  8 21  1  0
 21  2  1  0
 13  7  1  0
 20 14  1  0
  1 22  1  0
  1 23  1  0
  1 24  1  0
  3 25  1  0
  3 26  1  0
  3 27  1  0
  4 28  1  0
  4 29  1  0
  7 30  1  1
 12 31  1  0
 13 32  1  1
 15 33  1  0
 16 34  1  0
 19 35  1  0
 20 36  1  0
 21 37  1  0
 21 38  1  0
M  END
>  <UniqueID>  (25) 
20

>  <SMILES>  (25) 
CC1(C)CC(=O)[C@@H]2C(=NC(=O)N[C@@H]2c2ccc(Cl)cc2)C1

>  <Energy>  (25) 
51.194313305837845

>  <Genealogy>  (25) 
CC1(C)CC(=O)[C@@H]2C(=NC(=O)N[C@@H]2c2ccc(Cl)cc2)C1 (chirality)
CC1(C)CC(=O)[C@@H]2C(=NC(=O)N[C@@H]2c2ccc(Cl)cc2)C1 (3D coordinates assigned)
CC1(C)CC(=O)[C@@H]2C(=NC(=O)N[C@@H]2c2ccc(Cl)cc2)C1 (nonaromatic ring conformer: 51.194313305837845 kcal/mol)

>  <smiles>  (25) 
CC1(C)CC(=O)C2C(=NC(=O)NC2c2ccc(Cl)cc2)C1

>  <score_type>  (25) 
oracle

>  <origin>  (25) 
adg

>  <m_score__min__energy>  (25) 
-7.8700000000000001

>  <m_primary>  (25) 
energy

$$$$
25:0
     RDKit          3D

 34 36  0  0  0  0  0  0  0  0999 V2000
   57.2605   31.6328   43.2898 H   0  0  0  0  0  0  0  0  0  0  0  0
   57.0270   31.4440   44.3480 C   0  0  0  0  0  0  0  0  0  0  0  0
   56.7350   30.0580   44.7700 C   0  0  0  0  0  0  0  0  0  0  0  0
   55.5300   29.7010   44.8400 O   0  0  0  0  0  0  0  0  0  0  0  0
   57.7930   29.0820   45.1300 C   0  0  0  0  0  0  0  0  0  0  0  0
   57.5260   28.0140   46.0080 C   0  0  0  0  0  0  0  0  0  0  0  0
   56.5250   27.9070   46.4513 H   0  0  0  0  0  0  0  0  0  0  0  0
   58.5270   27.0890   46.3190 C   0  0  0  0  0  0  0  0  0  0  0  0
   58.3146   26.2624   47.0129 H   0  0  0  0  0  0  0  0  0  0  0  0
   59.7960   27.2130   45.7500 C   0  0  0  0  0  0  0  0  0  0  0  0
   60.5838   26.4873   46.0003 H   0  0  0  0  0  0  0  0  0  0  0  0
   60.0660   28.2580   44.8630 C   0  0  0  0  0  0  0  0  0  0  0  0
   61.0648   28.3511   44.4117 H   0  0  0  0  0  0  0  0  0  0  0  0
   59.0680   29.1860   44.5480 C   0  0  0  0  0  0  0  0  0  0  0  0
   59.2821   30.0013   43.8412 H   0  0  0  0  0  0  0  0  0  0  0  0
   57.0200   32.4800   45.1960 C   0  0  0  0  0  0  0  0  0  0  0  0
   56.0666   32.7886   45.6496 H   0  0  0  0  0  0  0  0  0  0  0  0
   58.2470   33.2220   45.5430 C   0  0  0  0  0  0  0  0  0  0  0  0
   58.4100   34.5660   45.2670 C   0  0  0  0  0  0  0  0  0  0  0  0
   57.6608   35.2151   44.7902 H   0  0  0  0  0  0  0  0  0  0  0  0
   59.6620   34.9630   45.6850 C   0  0  0  0  0  0  0  0  0  0  0  0
   60.0781   35.9764   45.5856 H   0  0  0  0  0  0  0  0  0  0  0  0
   60.3100   33.8790   46.2500 C   0  0  0  0  0  0  0  0  0  0  0  0
   61.6010   33.9420   46.7540 C   0  0  0  0  0  0  0  0  0  0  0  0
   62.1125   34.9130   46.6798 H   0  0  0  0  0  0  0  0  0  0  0  0
   62.3150   32.9050   47.3430 C   0  0  0  0  0  0  0  0  0  0  0  0
   63.3484   33.1463   47.6327 H   0  0  0  0  0  0  0  0  0  0  0  0
   61.9030   31.6000   47.6180 C   0  0  0  0  0  0  0  0  0  0  0  0
   62.6612   30.9631   48.0970 H   0  0  0  0  0  0  0  0  0  0  0  0
   60.6760   30.9800   47.3780 C   0  0  0  0  0  0  0  0  0  0  0  0
   60.5904   29.9469   47.7459 H   0  0  0  0  0  0  0  0  0  0  0  0
   59.5450   31.4810   46.7400 C   0  0  0  0  0  0  0  0  0  0  0  0
   58.6800   30.8052   46.6684 H   0  0  0  0  0  0  0  0  0  0  0  0
   59.3940   32.7480   46.1830 C   0  0  0  0  0  0  0  0  0  0  0  0
  1  2  1  0
  2  3  1  0
  3  4  2  0
  3  5  1  0
  5  6  2  0
  6  7  1  0
  6  8  1  0
  8  9  1  0
  8 10  2  0
 10 11  1  0
 10 12  1  0
 12 13  1  0
 12 14  2  0
 14 15  1  0
  2 16  2  0
 16 17  1  0
 16 18  1  0
 18 19  2  0
 19 20  1  0
 19 21  1  0
 21 22  1  0
 21 23  2  0
 23 24  1  0
 24 25  1  0
 24 26  2  0
 26 27  1  0
 26 28  1  0
 28 29  1  0
 28 30  2  0
 30 31  1  0
 30 32  1  0
 32 33  1  0
 32 34  2  0
 14  5  1  0
 34 18  1  0
 34 23  1  0
M  END
>  <UniqueID>  (26) 
21

>  <SMILES>  (26) 
O=C(/C=C/c1ccc2cccccc1-2)c1ccccc1

>  <Energy>  (26) 
79.13793085174474

>  <Genealogy>  (26) 
O=C(/C=C/c1ccc2cccccc1-2)c1ccccc1 (cis-trans isomerization)
O=C(/C=C/c1ccc2cccccc1-2)c1ccccc1 (3D coordinates assigned)
O=C(/C=C/c1ccc2cccccc1-2)c1ccccc1 (optimized conformer: 79.13793085174474 kcal/mol)

>  <smiles>  (26) 
O=C(C=Cc1ccc2cccccc1-2)c1ccccc1

>  <score_type>  (26) 
oracle

>  <origin>  (26) 
adg

>  <m_score__min__energy>  (26) 
-8.0800000000000001

>  <m_primary>  (26) 
energy

$$$$
26:0
     RDKit          3D

 53 56  0  0  0  0  0  0  0  0999 V2000
   52.4640   22.9760   44.6980 N   0  0  0  0  0  0  0  0  0  0  0  0
   53.7640   22.6290   45.7810 S   0  0  0  0  0  0  0  0  0  0  0  0
   54.1410   21.1800   45.6440 O   0  0  0  0  0  0  0  0  0  0  0  0
   53.3250   22.8880   47.1960 O   0  0  0  0  0  0  0  0  0  0  0  0
   55.1390   23.6590   45.4000 C   0  0  0  0  0  0  0  0  0  0  0  0
   55.8310   23.5180   44.1880 C   0  0  0  0  0  0  0  0  0  0  0  0
   56.9130   24.3560   43.8950 C   0  0  0  0  0  0  0  0  0  0  0  0
   57.3020   25.3540   44.7950 C   0  0  0  0  0  0  0  0  0  0  0  0
   58.4040   26.1990   44.4430 N   0  0  0  0  0  0  0  0  0  0  0  0
   58.9730   27.5390   45.3850 S   0  0  0  0  0  0  0  0  0  0  0  0
   60.4750   27.5820   45.3100 O   0  0  0  0  0  0  0  0  0  0  0  0
   58.5640   27.3450   46.8200 O   0  0  0  0  0  0  0  0  0  0  0  0
   58.2800   29.0470   44.7960 C   0  0  0  0  0  0  0  0  0  0  0  0
   57.3400   29.0340   43.7590 C   0  0  0  0  0  0  0  0  0  0  0  0
   56.7930   30.2300   43.2950 C   0  0  0  0  0  0  0  0  0  0  0  0
   57.1890   31.4460   43.8530 C   0  0  0  0  0  0  0  0  0  0  0  0
   58.1440   31.4800   44.8860 C   0  0  0  0  0  0  0  0  0  0  0  0
   58.5620   32.7870   45.4480 C   0  0  0  0  0  0  0  0  0  0  0  0
   59.1570   33.6180   44.7060 O   0  0  0  0  0  0  0  0  0  0  0  0
   58.3430   33.1130   46.8290 N   0  0  0  0  0  0  0  0  0  0  0  0
   58.8700   34.3440   47.4210 C   0  0  0  0  0  0  0  0  0  0  0  0
   59.9700   34.0580   48.4390 C   0  0  0  0  0  0  0  0  0  0  0  0
   59.6550   34.1110   49.8150 C   0  0  0  0  0  0  0  0  0  0  0  0
   60.6140   33.8270   50.7870 C   0  0  0  0  0  0  0  0  0  0  0  0
   61.9160   33.5080   50.4150 C   0  0  0  0  0  0  0  0  0  0  0  0
   62.2840   33.5010   49.0600 C   0  0  0  0  0  0  0  0  0  0  0  0
   63.6130   33.2160   48.7050 C   0  0  0  0  0  0  0  0  0  0  0  0
   64.0030   33.2410   47.3640 C   0  0  0  0  0  0  0  0  0  0  0  0
   63.0810   33.5610   46.3700 C   0  0  0  0  0  0  0  0  0  0  0  0
   61.7530   33.8430   46.7020 C   0  0  0  0  0  0  0  0  0  0  0  0
   61.3200   33.7980   48.0530 C   0  0  0  0  0  0  0  0  0  0  0  0
   58.6770   30.2670   45.3610 C   0  0  0  0  0  0  0  0  0  0  0  0
   56.5990   25.5010   46.0050 C   0  0  0  0  0  0  0  0  0  0  0  0
   55.5290   24.6540   46.3060 C   0  0  0  0  0  0  0  0  0  0  0  0
   51.7730   22.1950   44.7790 H   0  0  0  0  0  0  0  0  0  0  0  0
   55.5226   22.7472   43.4664 H   0  0  0  0  0  0  0  0  0  0  0  0
   57.4616   24.2290   42.9501 H   0  0  0  0  0  0  0  0  0  0  0  0
   57.0321   28.0786   43.3091 H   0  0  0  0  0  0  0  0  0  0  0  0
   56.0471   30.2147   42.4867 H   0  0  0  0  0  0  0  0  0  0  0  0
   56.7515   32.3849   43.4827 H   0  0  0  0  0  0  0  0  0  0  0  0
   57.8770   32.4300   47.4660 H   0  0  0  0  0  0  0  0  0  0  0  0
   59.2815   34.9762   46.6204 H   0  0  0  0  0  0  0  0  0  0  0  0
   58.0457   34.8525   47.9424 H   0  0  0  0  0  0  0  0  0  0  0  0
   58.6349   34.3811   50.1255 H   0  0  0  0  0  0  0  0  0  0  0  0
   60.3398   33.8553   51.8519 H   0  0  0  0  0  0  0  0  0  0  0  0
   62.6605   33.2601   51.1859 H   0  0  0  0  0  0  0  0  0  0  0  0
   64.3488   32.9724   49.4855 H   0  0  0  0  0  0  0  0  0  0  0  0
   65.0427   33.0070   47.0916 H   0  0  0  0  0  0  0  0  0  0  0  0
   63.4000   33.5919   45.3177 H   0  0  0  0  0  0  0  0  0  0  0  0
   61.0365   34.1023   45.9087 H   0  0  0  0  0  0  0  0  0  0  0  0
   59.4100   30.2764   46.1811 H   0  0  0  0  0  0  0  0  0  0  0  0
   56.8930   26.2861   46.7172 H   0  0  0  0  0  0  0  0  0  0  0  0
   54.9906   24.7690   47.2583 H   0  0  0  0  0  0  0  0  0  0  0  0
  1  2  1  0
  2  3  2  0
  2  4  2  0
  2  5  1  0
  5  6  2  0
  6  7  1  0
  7  8  2  0
  8  9  1  0
  9 10  1  0
 10 11  2  0
 10 12  2  0
 10 13  1  0
 13 14  2  0
 14 15  1  0
 15 16  2  0
 16 17  1  0
 17 18  1  0
 18 19  2  0
 18 20  1  0
 20 21  1  0
 21 22  1  0
 22 23  2  0
 23 24  1  0
 24 25  2  0
 25 26  1  0
 26 27  2  0
 27 28  1  0
 28 29  2  0
 29 30  1  0
 30 31  2  0
 17 32  2  0
  8 33  1  0
 33 34  2  0
 34  5  1  0
 32 13  1  0
 31 22  1  0
 31 26  1  0
  1 35  1  0
  6 36  1  0
  7 37  1  0
 14 38  1  0
 15 39  1  0
 16 40  1  0
 20 41  1  0
 21 42  1  0
 21 43  1  0
 23 44  1  0
 24 45  1  0
 25 46  1  0
 27 47  1  0
 28 48  1  0
 29 49  1  0
 30 50  1  0
 32 51  1  0
 33 52  1  0
 34 53  1  0
M  CHG  2   1  -1   9  -1
M  END
>  <UniqueID>  (27) 
22

>  <SMILES>  (27) 
[NH-]S(=O)(=O)c1ccc([N-]S(=O)(=O)c2cccc(C(=O)NCc3cccc4ccccc34)c2)cc1

>  <Energy>  (27) 
69.8050455746417

>  <Genealogy>  (27) 
[NH-]S(=O)(=O)c1ccc([N-]S(=O)(=O)c2cccc(C(=O)NCc3cccc4ccccc34)c2)cc1 (protonated)
[NH-]S(=O)(=O)c1ccc([N-]S(=O)(=O)c2cccc(C(=O)NCc3cccc4ccccc34)c2)cc1 (3D coordinates assigned)
[NH-]S(=O)(=O)c1ccc([N-]S(=O)(=O)c2cccc(C(=O)NCc3cccc4ccccc34)c2)cc1 (optimized conformer: 69.8050455746417 kcal/mol)

>  <smiles>  (27) 
NS(=O)(=O)c1ccc(NS(=O)(=O)c2cccc(C(=O)NCc3cccc4ccccc34)c2)cc1

>  <score_type>  (27) 
oracle

>  <origin>  (27) 
adg

>  <m_score__min__energy>  (27) 
-13.56

>  <m_primary>  (27) 
energy

$$$$
27:0
     RDKit          3D

 42 44  0  0  0  0  0  0  0  0999 V2000
   59.4490   34.2730   44.5440 C   0  0  0  0  0  0  0  0  0  0  0  0
   58.5500   34.8640   45.4540 O   0  0  0  0  0  0  0  0  0  0  0  0
   57.2990   34.2150   45.3640 C   0  0  0  0  0  0  0  0  0  0  0  0
   57.0590   33.4160   46.6430 C   0  0  0  0  0  0  0  0  0  0  0  0
   57.8910   32.1920   46.6530 N   0  0  0  0  0  0  0  0  0  0  0  0
   58.8320   31.9820   47.6370 C   0  0  0  0  0  0  0  0  0  0  0  0
   59.0300   33.1160   49.0310 S   0  0  0  0  0  0  0  0  0  0  0  0
   60.0010   34.3530   48.0960 C   0  0  0  0  0  0  0  0  0  0  0  0
   61.4440   33.9470   47.9940 C   0  0  0  0  0  0  0  0  0  0  0  0
   62.0500   33.7750   46.7380 C   0  0  0  0  0  0  0  0  0  0  0  0
   63.3760   33.3420   46.6480 C   0  0  0  0  0  0  0  0  0  0  0  0
   64.1060   33.0780   47.8100 C   0  0  0  0  0  0  0  0  0  0  0  0
   63.5110   33.2470   49.0640 C   0  0  0  0  0  0  0  0  0  0  0  0
   62.1850   33.6780   49.1580 C   0  0  0  0  0  0  0  0  0  0  0  0
   59.6470   30.8940   47.5880 N   0  0  0  0  0  0  0  0  0  0  0  0
   59.5450   29.9740   46.5940 C   0  0  0  0  0  0  0  0  0  0  0  0
   60.3850   28.8490   46.5750 C   0  0  0  0  0  0  0  0  0  0  0  0
   60.2760   27.9060   45.5500 C   0  0  0  0  0  0  0  0  0  0  0  0
   59.3300   28.0800   44.5370 C   0  0  0  0  0  0  0  0  0  0  0  0
   58.4900   29.1970   44.5450 C   0  0  0  0  0  0  0  0  0  0  0  0
   58.5910   30.1520   45.5760 C   0  0  0  0  0  0  0  0  0  0  0  0
   57.7720   31.2920   45.6210 C   0  0  0  0  0  0  0  0  0  0  0  0
   56.9270   31.4850   44.7010 O   0  0  0  0  0  0  0  0  0  0  0  0
   60.2426   33.7513   45.0990 H   0  0  0  0  0  0  0  0  0  0  0  0
   58.9097   33.5527   43.9113 H   0  0  0  0  0  0  0  0  0  0  0  0
   59.8965   35.0537   43.9113 H   0  0  0  0  0  0  0  0  0  0  0  0
   56.5029   34.9643   45.2426 H   0  0  0  0  0  0  0  0  0  0  0  0
   57.2936   33.5381   44.4970 H   0  0  0  0  0  0  0  0  0  0  0  0
   57.3191   34.0377   47.5124 H   0  0  0  0  0  0  0  0  0  0  0  0
   55.9988   33.1261   46.6879 H   0  0  0  0  0  0  0  0  0  0  0  0
   59.5822   34.4468   47.0832 H   0  0  0  0  0  0  0  0  0  0  0  0
   59.9464   35.3138   48.6289 H   0  0  0  0  0  0  0  0  0  0  0  0
   61.4783   33.9821   45.8213 H   0  0  0  0  0  0  0  0  0  0  0  0
   63.8451   33.2090   45.6620 H   0  0  0  0  0  0  0  0  0  0  0  0
   65.1493   32.7370   47.7381 H   0  0  0  0  0  0  0  0  0  0  0  0
   64.0875   33.0404   49.9778 H   0  0  0  0  0  0  0  0  0  0  0  0
   61.7194   33.8072   50.1462 H   0  0  0  0  0  0  0  0  0  0  0  0
   60.3580   30.7620   48.3430 H   0  0  0  0  0  0  0  0  0  0  0  0
   61.1319   28.7096   47.3704 H   0  0  0  0  0  0  0  0  0  0  0  0
   60.9356   27.0258   45.5406 H   0  0  0  0  0  0  0  0  0  0  0  0
   59.2460   27.3361   43.7311 H   0  0  0  0  0  0  0  0  0  0  0  0
   57.7479   29.3309   43.7441 H   0  0  0  0  0  0  0  0  0  0  0  0
  1  2  1  0
  2  3  1  0
  3  4  1  0
  4  5  1  0
  5  6  1  0
  6  7  1  0
  7  8  1  0
  8  9  1  0
  9 10  2  0
 10 11  1  0
 11 12  2  0
 12 13  1  0
 13 14  2  0
  6 15  2  0
 15 16  1  0
 16 17  2  0
 17 18  1  0
 18 19  2  0
 19 20  1  0
 20 21  2  0
 21 22  1  0
 22 23  2  0
 22  5  1  0
 14  9  1  0
 21 16  1  0
  1 24  1  0
  1 25  1  0
  1 26  1  0
  3 27  1  0
  3 28  1  0
  4 29  1  0
  4 30  1  0
  8 31  1  0
  8 32  1  0
 10 33  1  0
 11 34  1  0
 12 35  1  0
 13 36  1  0
 14 37  1  0
 15 38  1  0
 17 39  1  0
 18 40  1  0
 19 41  1  0
 20 42  1  0
M  CHG  1  15   1
M  END
>  <UniqueID>  (28) 
23

>  <SMILES>  (28) 
COCCn1c(SCc2ccccc2)[nH+]c2ccccc2c1=O

>  <Energy>  (28) 
45.20663144456395

>  <Genealogy>  (28) 
COCCn1c(SCc2ccccc2)[nH+]c2ccccc2c1=O (protonated)
COCCn1c(SCc2ccccc2)[nH+]c2ccccc2c1=O (3D coordinates assigned)
COCCn1c(SCc2ccccc2)[nH+]c2ccccc2c1=O (optimized conformer: 45.20663144456395 kcal/mol)

>  <smiles>  (28) 
COCCn1c(SCc2ccccc2)nc2ccccc2c1=O

>  <score_type>  (28) 
oracle

>  <origin>  (28) 
adg

>  <m_score__min__energy>  (28) 
-5.5899999999999999

>  <m_primary>  (28) 
energy

$$$$
28:0
     RDKit          3D

 59 61  0  0  1  0  0  0  0  0999 V2000
   64.0480   33.2120   50.1110 C   0  0  0  0  0  0  0  0  0  0  0  0
   63.4530   33.1100   48.9220 C   0  0  0  0  0  0  0  0  0  0  0  0
   62.7480   31.8600   48.6620 C   0  0  0  0  0  0  0  0  0  0  0  0
   63.0080   31.2430   47.6040 O   0  0  0  0  0  0  0  0  0  0  0  0
   61.7840   31.3210   49.5550 N   0  0  0  0  0  0  0  0  0  0  0  0
   61.1760   30.0830   49.1570 C   0  0  0  0  0  0  0  0  0  0  0  0
   60.6390   29.9210   47.8740 C   0  0  0  0  0  0  0  0  0  0  0  0
   60.0800   28.7190   47.5790 C   0  0  0  0  0  0  0  0  0  0  0  0
   59.5420   28.5040   46.3500 C   0  0  0  0  0  0  0  0  0  0  0  0
   59.5440   29.3700   45.4740 N   0  0  0  0  0  0  0  0  0  0  0  0
   58.9380   30.5830   45.3080 C   0  0  0  0  0  0  0  0  0  0  0  0
   59.4540   31.7410   45.9490 C   0  0  0  0  0  0  0  0  0  0  0  0
   58.7580   32.9400   45.8580 C   0  0  0  0  0  0  0  0  0  0  0  0
   57.5690   33.0450   45.1550 C   0  0  0  0  0  0  0  0  0  0  0  0
   56.7300   34.5880   45.0720 Cl  0  0  0  0  0  0  0  0  0  0  0  0
   57.0660   31.9200   44.5290 C   0  0  0  0  0  0  0  0  0  0  0  0
   57.7190   30.7080   44.5910 C   0  0  0  0  0  0  0  0  0  0  0  0
   57.0440   29.3000   43.7810 Cl  0  0  0  0  0  0  0  0  0  0  0  0
   58.9850   27.2930   46.0720 N   0  0  0  0  0  0  0  0  0  0  0  0
   58.9390   26.2880   46.9590 C   0  0  0  0  0  0  0  0  0  0  0  0
   59.4670   26.4840   48.1780 N   0  0  0  0  0  0  0  0  0  0  0  0
   60.0220   27.6720   48.4740 C   0  0  0  0  0  0  0  0  0  0  0  0
   60.5480   27.8430   49.7150 C   0  0  0  0  0  0  0  0  0  0  0  0
   61.1120   29.0320   50.0420 C   0  0  0  0  0  0  0  0  0  0  0  0
   61.6460   29.2410   51.2640 O   0  0  0  0  0  0  0  0  0  0  0  0
   61.2170   29.1880   52.5430 C   0  0  0  0  0  0  0  0  0  0  0  0
   61.4360   30.3870   53.4240 C   0  0  0  0  0  0  0  0  0  0  0  0
   62.0240   31.4560   52.5960 N   0  0  0  0  0  0  0  0  0  0  0  0
   62.0000   32.7060   53.2800 C   0  0  0  0  0  0  0  0  0  0  0  0
   60.8110   33.5310   52.9450 C   0  0  0  0  0  0  0  0  0  0  0  0
   59.9040   33.1310   51.5260 S   0  0  0  0  0  0  0  0  0  0  0  0
   60.6400   33.7970   50.3460 O   0  0  0  0  0  0  0  0  0  0  0  0
   58.5940   33.9460   51.5740 O   0  0  0  0  0  0  0  0  0  0  0  0
   59.5230   31.5470   51.1810 N   0  0  0  0  0  0  0  0  0  0  0  0
   58.1650   31.1240   51.2510 C   0  0  0  0  0  0  0  0  0  0  0  0
   64.5979   34.1277   50.3741 H   0  0  0  0  0  0  0  0  0  0  0  0
   63.9890   32.3805   50.8287 H   0  0  0  0  0  0  0  0  0  0  0  0
   63.4917   33.9215   48.1804 H   0  0  0  0  0  0  0  0  0  0  0  0
   61.5460   31.8110   50.4420 H   0  0  0  0  0  0  0  0  0  0  0  0
   60.6687   30.7349   47.1346 H   0  0  0  0  0  0  0  0  0  0  0  0
   60.3970   31.6888   46.5129 H   0  0  0  0  0  0  0  0  0  0  0  0
   59.1629   33.8318   46.3587 H   0  0  0  0  0  0  0  0  0  0  0  0
   56.1225   31.9938   43.9683 H   0  0  0  0  0  0  0  0  0  0  0  0
   58.5630   27.1010   45.1340 H   0  0  0  0  0  0  0  0  0  0  0  0
   58.4790   25.3246   46.6938 H   0  0  0  0  0  0  0  0  0  0  0  0
   60.5166   27.0237   50.4484 H   0  0  0  0  0  0  0  0  0  0  0  0
   60.1336   28.9996   52.5145 H   0  0  0  0  0  0  0  0  0  0  0  0
   61.8339   28.4010   53.0013 H   0  0  0  0  0  0  0  0  0  0  0  0
   60.4761   30.7236   53.8426 H   0  0  0  0  0  0  0  0  0  0  0  0
   62.1086   30.1332   54.2566 H   0  0  0  0  0  0  0  0  0  0  0  0
   61.5670   31.4950   51.6610 H   0  0  0  0  0  0  0  0  0  0  0  0
   61.9980   32.5125   54.3628 H   0  0  0  0  0  0  0  0  0  0  0  0
   62.8900   33.2699   52.9639 H   0  0  0  0  0  0  0  0  0  0  0  0
   60.1213   33.4695   53.7997 H   0  0  0  0  0  0  0  0  0  0  0  0
   61.2254   34.5268   52.7289 H   0  0  0  0  0  0  0  0  0  0  0  0
   60.2150   30.8370   51.4560 H   0  0  0  0  0  0  0  0  0  0  0  0
   57.8640   31.0302   52.3049 H   0  0  0  0  0  0  0  0  0  0  0  0
   57.5239   31.8650   50.7511 H   0  0  0  0  0  0  0  0  0  0  0  0
   58.0581   30.1500   50.7511 H   0  0  0  0  0  0  0  0  0  0  0  0
  1  2  2  0
  2  3  1  0
  3  4  2  0
  3  5  1  0
  5  6  1  0
  6  7  2  0
  7  8  1  0
  8  9  1  0
  9 10  2  0
 10 11  1  0
 11 12  2  0
 12 13  1  0
 13 14  2  0
 14 15  1  0
 14 16  1  0
 16 17  2  0
 17 18  1  0
  9 19  1  0
 19 20  1  0
 20 21  2  0
 21 22  1  0
 22 23  1  0
 23 24  2  0
 24 25  1  0
 25 26  1  0
 26 27  1  0
 27 28  1  0
 28 29  1  0
 29 30  1  0
 30 31  1  0
 31 32  2  0
 31 33  2  0
 31 34  1  0
 34 35  1  0
 24  6  1  0
 22  8  2  0
 17 11  1  0
  1 36  1  0
  1 37  1  0
  2 38  1  0
  5 39  1  0
  7 40  1  0
 12 41  1  0
 13 42  1  0
 16 43  1  0
 19 44  1  0
 20 45  1  0
 23 46  1  0
 26 47  1  0
 26 48  1  0
 27 49  1  0
 27 50  1  0
 28 51  1  0
 29 52  1  0
 29 53  1  0
 30 54  1  0
 30 55  1  0
 34 56  1  0
 35 57  1  0
 35 58  1  0
 35 59  1  0
M  END
>  <smiles>  (29) 
C=CC(=O)Nc1cc2c(=Nc3ccc(Cl)cc3Cl)[nH]cnc2cc1OCCNCCS(=O)(=O)NC

>  <score_type>  (29) 
oracle

>  <origin>  (29) 
adg

>  <m_score__min__energy>  (29) 
-8.8000000000000007

>  <m_primary>  (29) 
energy

$$$$
29:0
     RDKit          3D

 39 41  0  0  0  0  0  0  0  0999 V2000
   60.0010   33.8800   47.5780 C   0  0  0  0  0  0  0  0  0  0  0  0
   59.1390   32.9430   46.7850 C   0  0  0  0  0  0  0  0  0  0  0  0
   58.1800   33.4480   45.8940 C   0  0  0  0  0  0  0  0  0  0  0  0
   57.4010   32.5750   45.1290 C   0  0  0  0  0  0  0  0  0  0  0  0
   57.5850   31.1900   45.2330 C   0  0  0  0  0  0  0  0  0  0  0  0
   56.5830   30.1040   44.2770 S   0  0  0  0  0  0  0  0  0  0  0  0
   56.9280   30.2070   42.8170 O   0  0  0  0  0  0  0  0  0  0  0  0
   55.1390   30.4830   44.4550 O   0  0  0  0  0  0  0  0  0  0  0  0
   56.8290   28.4760   44.8130 N   0  0  0  0  0  0  0  0  0  0  0  0
   55.9860   27.8220   45.5950 N   0  0  0  0  0  0  0  0  0  0  0  0
   56.5100   26.5970   45.8120 C   0  0  0  0  0  0  0  0  0  0  0  0
   55.8560   25.6310   46.5880 O   0  0  0  0  0  0  0  0  0  0  0  0
   56.2090   24.2770   46.6760 C   0  0  0  0  0  0  0  0  0  0  0  0
   56.2740   23.7010   47.7960 O   0  0  0  0  0  0  0  0  0  0  0  0
   56.4640   23.5080   45.4380 C   0  0  0  0  0  0  0  0  0  0  0  0
   55.6690   23.7170   44.2950 C   0  0  0  0  0  0  0  0  0  0  0  0
   55.9110   22.9920   43.1230 C   0  0  0  0  0  0  0  0  0  0  0  0
   56.9440   22.0530   43.0790 C   0  0  0  0  0  0  0  0  0  0  0  0
   57.7390   21.8380   44.2060 C   0  0  0  0  0  0  0  0  0  0  0  0
   57.5040   22.5590   45.3810 C   0  0  0  0  0  0  0  0  0  0  0  0
   57.7230   26.4620   45.1430 C   0  0  0  0  0  0  0  0  0  0  0  0
   57.8770   27.6850   44.5280 C   0  0  0  0  0  0  0  0  0  0  0  0
   58.8720   28.0370   43.7770 N   0  0  0  0  0  0  0  0  0  0  0  0
   58.5500   30.6840   46.1140 C   0  0  0  0  0  0  0  0  0  0  0  0
   59.3290   31.5560   46.8800 C   0  0  0  0  0  0  0  0  0  0  0  0
   59.8405   33.7055   48.6522 H   0  0  0  0  0  0  0  0  0  0  0  0
   61.0583   33.7027   47.3317 H   0  0  0  0  0  0  0  0  0  0  0  0
   59.7363   34.9189   47.3317 H   0  0  0  0  0  0  0  0  0  0  0  0
   58.0406   34.5348   45.7971 H   0  0  0  0  0  0  0  0  0  0  0  0
   56.6409   32.9769   44.4429 H   0  0  0  0  0  0  0  0  0  0  0  0
   54.8532   24.4543   44.3235 H   0  0  0  0  0  0  0  0  0  0  0  0
   55.2860   23.1620   42.2339 H   0  0  0  0  0  0  0  0  0  0  0  0
   57.1309   21.4833   42.1568 H   0  0  0  0  0  0  0  0  0  0  0  0
   58.5530   21.0990   44.1698 H   0  0  0  0  0  0  0  0  0  0  0  0
   58.1344   22.3844   46.2654 H   0  0  0  0  0  0  0  0  0  0  0  0
   58.3946   25.5914   45.1127 H   0  0  0  0  0  0  0  0  0  0  0  0
   58.7990   28.8460   43.1190 H   0  0  0  0  0  0  0  0  0  0  0  0
   58.6950   29.5972   46.2031 H   0  0  0  0  0  0  0  0  0  0  0  0
   60.0941   31.1532   47.5600 H   0  0  0  0  0  0  0  0  0  0  0  0
  1  2  1  0
  2  3  2  0
  3  4  1  0
  4  5  2  0
  5  6  1  0
  6  7  2  0
  6  8  2  0
  6  9  1  0
  9 10  1  0
 10 11  1  0
 11 12  1  0
 12 13  1  0
 13 14  2  0
 13 15  1  0
 15 16  2  0
 16 17  1  0
 17 18  2  0
 18 19  1  0
 19 20  2  0
 11 21  2  0
 21 22  1  0
 22 23  2  3
  5 24  1  0
 24 25  2  0
 25  2  1  0
 22  9  1  0
 20 15  1  0
  1 26  1  0
  1 27  1  0
  1 28  1  0
  3 29  1  0
  4 30  1  0
 16 31  1  0
 17 32  1  0
 18 33  1  0
 19 34  1  0
 20 35  1  0
 21 36  1  0
 23 37  1  0
 24 38  1  0
 25 39  1  0
M  CHG  1  10  -1
M  END
>  <UniqueID>  (30) 
24

>  <SMILES>  (30) 
Cc1ccc(S(=O)(=O)n2[n-]c(OC(=O)c3ccccc3)cc2=N)cc1

>  <Energy>  (30) 
78.30371774100247

>  <Genealogy>  (30) 
Cc1ccc(S(=O)(=O)n2[n-]c(OC(=O)c3ccccc3)cc2=N)cc1 (protonated)
Cc1ccc(S(=O)(=O)n2[n-]c(OC(=O)c3ccccc3)cc2=N)cc1 (3D coordinates assigned)
Cc1ccc(S(=O)(=O)n2[n-]c(OC(=O)c3ccccc3)cc2=N)cc1 (optimized conformer: 78.30371774100247 kcal/mol)

>  <smiles>  (30) 
Cc1ccc(S(=O)(=O)n2[nH]c(OC(=O)c3ccccc3)cc2=N)cc1

>  <score_type>  (30) 
oracle

>  <origin>  (30) 
adg

>  <m_score__min__energy>  (30) 
-11.1

>  <m_primary>  (30) 
energy

$$$$
30:0
     RDKit          3D

 69 72  0  0  0  0  0  0  0  0999 V2000
   51.9180   29.5280   52.6050 C   0  0  0  0  0  0  0  0  0  0  0  0
   52.8410   30.5760   51.9510 C   0  0  0  0  0  0  0  0  0  0  0  0
   52.1030   31.9300   51.8390 C   0  0  0  0  0  0  0  0  0  0  0  0
   53.1840   30.0960   50.5230 C   0  0  0  0  0  0  0  0  0  0  0  0
   54.1780   30.7300   52.7470 C   0  0  0  0  0  0  0  0  0  0  0  0
   55.2770   31.3760   51.9880 N   0  0  0  0  0  0  0  0  0  0  0  0
   56.5760   30.7300   52.2410 C   0  0  0  0  0  0  0  0  0  0  0  0
   57.6230   31.2580   51.2950 C   0  0  0  0  0  0  0  0  0  0  0  0
   58.1540   30.4270   50.2970 C   0  0  0  0  0  0  0  0  0  0  0  0
   59.0970   30.9220   49.3940 C   0  0  0  0  0  0  0  0  0  0  0  0
   59.5370   32.2490   49.4900 C   0  0  0  0  0  0  0  0  0  0  0  0
   60.5060   32.7820   48.5100 C   0  0  0  0  0  0  0  0  0  0  0  0
   61.8610   32.8100   48.8740 C   0  0  0  0  0  0  0  0  0  0  0  0
   62.8200   33.3280   48.0030 C   0  0  0  0  0  0  0  0  0  0  0  0
   62.4370   33.8190   46.7550 C   0  0  0  0  0  0  0  0  0  0  0  0
   61.0930   33.7900   46.3740 C   0  0  0  0  0  0  0  0  0  0  0  0
   60.1120   33.2750   47.2390 C   0  0  0  0  0  0  0  0  0  0  0  0
   58.4370   33.1830   46.6620 S   0  0  0  0  0  0  0  0  0  0  0  0
   58.0930   34.4280   45.8930 O   0  0  0  0  0  0  0  0  0  0  0  0
   57.4900   33.0920   47.8230 O   0  0  0  0  0  0  0  0  0  0  0  0
   58.2840   31.8290   45.5850 N   0  0  0  0  0  0  0  0  0  0  0  0
   58.5670   30.4520   45.8790 C   0  0  0  0  0  0  0  0  0  0  0  0
   59.7560   30.0750   46.5230 C   0  0  0  0  0  0  0  0  0  0  0  0
   60.0210   28.7340   46.7920 C   0  0  0  0  0  0  0  0  0  0  0  0
   59.0980   27.7470   46.4380 C   0  0  0  0  0  0  0  0  0  0  0  0
   57.8780   28.1050   45.8340 C   0  0  0  0  0  0  0  0  0  0  0  0
   57.6100   29.4670   45.5460 C   0  0  0  0  0  0  0  0  0  0  0  0
   56.3670   29.8760   44.8590 C   0  0  0  0  0  0  0  0  0  0  0  0
   56.4110   30.6980   43.9050 O   0  0  0  0  0  0  0  0  0  0  0  0
   55.1470   29.3220   45.2280 O   0  0  0  0  0  0  0  0  0  0  0  0
   56.8690   26.9950   45.6300 C   0  0  0  0  0  0  0  0  0  0  0  0
   57.5380   25.7700   44.9910 C   0  0  0  0  0  0  0  0  0  0  0  0
   58.8860   25.3720   45.6440 C   0  0  0  0  0  0  0  0  0  0  0  0
   59.3480   26.3010   46.7800 C   0  0  0  0  0  0  0  0  0  0  0  0
   58.9780   33.0940   50.4590 C   0  0  0  0  0  0  0  0  0  0  0  0
   58.0250   32.6030   51.3570 C   0  0  0  0  0  0  0  0  0  0  0  0
   51.9892   29.6089   53.6997 H   0  0  0  0  0  0  0  0  0  0  0  0
   50.8792   29.7074   52.2909 H   0  0  0  0  0  0  0  0  0  0  0  0
   52.2272   28.5202   52.2909 H   0  0  0  0  0  0  0  0  0  0  0  0
   51.8920   32.3171   52.8468 H   0  0  0  0  0  0  0  0  0  0  0  0
   52.7346   32.6480   51.2953 H   0  0  0  0  0  0  0  0  0  0  0  0
   51.1573   31.7883   51.2953 H   0  0  0  0  0  0  0  0  0  0  0  0
   53.8227   29.2022   50.5801 H   0  0  0  0  0  0  0  0  0  0  0  0
   52.2560   29.8498   49.9861 H   0  0  0  0  0  0  0  0  0  0  0  0
   53.7175   30.8942   49.9861 H   0  0  0  0  0  0  0  0  0  0  0  0
   53.9765   31.3365   53.6423 H   0  0  0  0  0  0  0  0  0  0  0  0
   54.5191   29.7115   52.9840 H   0  0  0  0  0  0  0  0  0  0  0  0
   55.0680   31.2910   50.9650 H   0  0  0  0  0  0  0  0  0  0  0  0
   55.3550   32.3960   52.1990 H   0  0  0  0  0  0  0  0  0  0  0  0
   56.8868   30.9358   53.2759 H   0  0  0  0  0  0  0  0  0  0  0  0
   56.4701   29.6464   52.0844 H   0  0  0  0  0  0  0  0  0  0  0  0
   57.8256   29.3796   50.2255 H   0  0  0  0  0  0  0  0  0  0  0  0
   59.4959   30.2681   48.6045 H   0  0  0  0  0  0  0  0  0  0  0  0
   62.1699   32.4200   49.8551 H   0  0  0  0  0  0  0  0  0  0  0  0
   63.8787   33.3492   48.3007 H   0  0  0  0  0  0  0  0  0  0  0  0
   63.1936   34.2294   46.0701 H   0  0  0  0  0  0  0  0  0  0  0  0
   60.7993   34.1745   45.3861 H   0  0  0  0  0  0  0  0  0  0  0  0
   60.4845   30.8447   46.8177 H   0  0  0  0  0  0  0  0  0  0  0  0
   60.9622   28.4508   47.2859 H   0  0  0  0  0  0  0  0  0  0  0  0
   56.4442   26.7087   46.6035 H   0  0  0  0  0  0  0  0  0  0  0  0
   56.0743   27.3557   44.9604 H   0  0  0  0  0  0  0  0  0  0  0  0
   56.8485   24.9170   45.0748 H   0  0  0  0  0  0  0  0  0  0  0  0
   57.7583   26.0376   43.9470 H   0  0  0  0  0  0  0  0  0  0  0  0
   58.7822   24.3561   46.0528 H   0  0  0  0  0  0  0  0  0  0  0  0
   59.6478   25.4442   44.8538 H   0  0  0  0  0  0  0  0  0  0  0  0
   58.7953   26.0486   47.6970 H   0  0  0  0  0  0  0  0  0  0  0  0
   60.4290   26.1600   46.9270 H   0  0  0  0  0  0  0  0  0  0  0  0
   59.2902   34.1474   50.5132 H   0  0  0  0  0  0  0  0  0  0  0  0
   57.5889   33.2715   52.1139 H   0  0  0  0  0  0  0  0  0  0  0  0
  1  2  1  0
  2  3  1  0
  2  4  1  0
  2  5  1  0
  5  6  1  0
  6  7  1  0
  7  8  1  0
  8  9  2  0
  9 10  1  0
 10 11  2  0
 11 12  1  0
 12 13  2  0
 13 14  1  0
 14 15  2  0
 15 16  1  0
 16 17  2  0
 17 18  1  0
 18 19  2  0
 18 20  2  0
 18 21  1  0
 21 22  1  0
 22 23  2  0
 23 24  1  0
 24 25  2  0
 25 26  1  0
 26 27  2  0
 27 28  1  0
 28 29  2  0
 28 30  1  0
 26 31  1  0
 31 32  1  0
 32 33  1  0
 33 34  1  0
 11 35  1  0
 35 36  2  0
 36  8  1  0
 17 12  1  0
 27 22  1  0
 34 25  1  0
  1 37  1  0
  1 38  1  0
  1 39  1  0
  3 40  1  0
  3 41  1  0
  3 42  1  0
  4 43  1  0
  4 44  1  0
  4 45  1  0
  5 46  1  0
  5 47  1  0
  6 48  1  0
  6 49  1  0
  7 50  1  0
  7 51  1  0
  9 52  1  0
 10 53  1  0
 13 54  1  0
 14 55  1  0
 15 56  1  0
 16 57  1  0
 23 58  1  0
 24 59  1  0
 31 60  1  0
 31 61  1  0
 32 62  1  0
 32 63  1  0
 33 64  1  0
 33 65  1  0
 34 66  1  0
 34 67  1  0
 35 68  1  0
 36 69  1  0
M  CHG  3   6   1  21  -1  30  -1
M  END
>  <UniqueID>  (31) 
25

>  <SMILES>  (31) 
CC(C)(C)C[NH2+]Cc1ccc(-c2ccccc2S(=O)(=O)[N-]c2ccc3c(c2C(=O)[O-])CCCC3)cc1

>  <Energy>  (31) 
92.62494822052001

>  <Genealogy>  (31) 
CC(C)(C)C[NH2+]Cc1ccc(-c2ccccc2S(=O)(=O)[N-]c2ccc3c(c2C(=O)[O-])CCCC3)cc1 (protonated)
CC(C)(C)C[NH2+]Cc1ccc(-c2ccccc2S(=O)(=O)[N-]c2ccc3c(c2C(=O)[O-])CCCC3)cc1 (3D coordinates assigned)
CC(C)(C)C[NH2+]Cc1ccc(-c2ccccc2S(=O)(=O)[N-]c2ccc3c(c2C(=O)[O-])CCCC3)cc1 (nonaromatic ring conformer: 92.62494822052001 kcal/mol)

>  <smiles>  (31) 
CC(C)(C)CNCc1ccc(-c2ccccc2S(=O)(=O)Nc2ccc3c(c2C(=O)O)CCCC3)cc1

>  <score_type>  (31) 
oracle

>  <origin>  (31) 
adg

>  <m_score__min__energy>  (31) 
-13.779999999999999

>  <m_primary>  (31) 
energy

$$$$
31:0
     RDKit          3D

 44 46  0  0  0  0  0  0  0  0999 V2000
   62.4850   34.0010   49.9090 C   0  0  0  0  0  0  0  0  0  0  0  0
   61.5770   34.0160   48.7150 C   0  0  0  0  0  0  0  0  0  0  0  0
   62.0370   33.5560   47.4720 C   0  0  0  0  0  0  0  0  0  0  0  0
   61.2060   33.6050   46.3500 C   0  0  0  0  0  0  0  0  0  0  0  0
   59.9040   34.1200   46.4560 C   0  0  0  0  0  0  0  0  0  0  0  0
   59.0120   34.1920   45.2490 C   0  0  0  0  0  0  0  0  0  0  0  0
   58.7760   32.8480   44.7200 N   0  0  0  0  0  0  0  0  0  0  0  0
   57.6300   32.0150   45.7290 S   0  0  0  0  0  0  0  0  0  0  0  0
   56.6850   31.2320   44.8660 O   0  0  0  0  0  0  0  0  0  0  0  0
   56.8240   33.0370   46.4790 O   0  0  0  0  0  0  0  0  0  0  0  0
   58.4870   31.0130   46.9210 C   0  0  0  0  0  0  0  0  0  0  0  0
   58.8870   31.6720   48.0950 C   0  0  0  0  0  0  0  0  0  0  0  0
   59.5370   30.9880   49.1200 C   0  0  0  0  0  0  0  0  0  0  0  0
   59.8000   29.6290   48.9900 C   0  0  0  0  0  0  0  0  0  0  0  0
   59.4230   28.9510   47.8310 C   0  0  0  0  0  0  0  0  0  0  0  0
   58.7810   29.6240   46.7710 C   0  0  0  0  0  0  0  0  0  0  0  0
   58.4390   28.8100   45.5350 C   0  0  0  0  0  0  0  0  0  0  0  0
   57.6340   27.5530   45.8280 C   0  0  0  0  0  0  0  0  0  0  0  0
   56.2350   27.5000   45.6530 C   0  0  0  0  0  0  0  0  0  0  0  0
   55.5240   28.6040   45.2010 O   0  0  0  0  0  0  0  0  0  0  0  0
   55.5560   26.3570   45.9260 N   0  0  0  0  0  0  0  0  0  0  0  0
   56.2010   25.2360   46.3330 C   0  0  0  0  0  0  0  0  0  0  0  0
   55.3520   23.8860   46.6750 S   0  0  0  0  0  0  0  0  0  0  0  0
   57.5520   25.2320   46.4390 N   0  0  0  0  0  0  0  0  0  0  0  0
   58.2820   26.3480   46.1790 C   0  0  0  0  0  0  0  0  0  0  0  0
   59.5370   26.2870   46.2550 O   0  0  0  0  0  0  0  0  0  0  0  0
   59.4540   34.6060   47.6930 C   0  0  0  0  0  0  0  0  0  0  0  0
   60.2860   34.5580   48.8150 C   0  0  0  0  0  0  0  0  0  0  0  0
   61.8816   34.0110   50.8287 H   0  0  0  0  0  0  0  0  0  0  0  0
   63.1048   33.0925   49.8869 H   0  0  0  0  0  0  0  0  0  0  0  0
   63.1345   34.8885   49.8869 H   0  0  0  0  0  0  0  0  0  0  0  0
   63.0571   33.1547   47.3804 H   0  0  0  0  0  0  0  0  0  0  0  0
   61.5731   33.2388   45.3799 H   0  0  0  0  0  0  0  0  0  0  0  0
   58.0510   34.6457   45.5328 H   0  0  0  0  0  0  0  0  0  0  0  0
   59.4995   34.8039   44.4758 H   0  0  0  0  0  0  0  0  0  0  0  0
   59.6730   32.3130   44.7800 H   0  0  0  0  0  0  0  0  0  0  0  0
   58.6835   32.7472   48.2072 H   0  0  0  0  0  0  0  0  0  0  0  0
   59.8419   31.5228   50.0316 H   0  0  0  0  0  0  0  0  0  0  0  0
   60.3063   29.0876   49.8027 H   0  0  0  0  0  0  0  0  0  0  0  0
   59.6297   27.8742   47.7423 H   0  0  0  0  0  0  0  0  0  0  0  0
   57.8540   29.4448   44.8532 H   0  0  0  0  0  0  0  0  0  0  0  0
   59.3923   28.4831   45.0942 H   0  0  0  0  0  0  0  0  0  0  0  0
   58.4414   35.0268   47.7801 H   0  0  0  0  0  0  0  0  0  0  0  0
   59.9279   34.9463   49.7799 H   0  0  0  0  0  0  0  0  0  0  0  0
  1  2  1  0
  2  3  2  0
  3  4  1  0
  4  5  2  0
  5  6  1  0
  6  7  1  0
  7  8  1  0
  8  9  2  0
  8 10  2  0
  8 11  1  0
 11 12  2  0
 12 13  1  0
 13 14  2  0
 14 15  1  0
 15 16  2  0
 16 17  1  0
 17 18  1  0
 18 19  2  0
 19 20  1  0
 19 21  1  0
 21 22  1  0
 22 23  2  0
 22 24  1  0
 24 25  1  0
 25 26  2  0
  5 27  1  0
 27 28  2  0
 28  2  1  0
 16 11  1  0
 25 18  1  0
  1 29  1  0
  1 30  1  0
  1 31  1  0
  3 32  1  0
  4 33  1  0
  6 34  1  0
  6 35  1  0
  7 36  1  0
 12 37  1  0
 13 38  1  0
 14 39  1  0
 15 40  1  0
 17 41  1  0
 17 42  1  0
 27 43  1  0
 28 44  1  0
M  CHG  3  20  -1  21  -1  24  -1
M  END
>  <UniqueID>  (32) 
26

>  <SMILES>  (32) 
Cc1ccc(CNS(=O)(=O)c2ccccc2Cc2c([O-])[n-]c(=S)[n-]c2=O)cc1

>  <Energy>  (32) 
49.79498513383218

>  <Genealogy>  (32) 
Cc1ccc(CNS(=O)(=O)c2ccccc2Cc2c([O-])[n-]c(=S)[n-]c2=O)cc1 (protonated)
Cc1ccc(CNS(=O)(=O)c2ccccc2Cc2c([O-])[n-]c(=S)[n-]c2=O)cc1 (3D coordinates assigned)
Cc1ccc(CNS(=O)(=O)c2ccccc2Cc2c([O-])[n-]c(=S)[n-]c2=O)cc1 (optimized conformer: 49.79498513383218 kcal/mol)

>  <smiles>  (32) 
Cc1ccc(CNS(=O)(=O)c2ccccc2Cc2c(O)[nH]c(=S)[nH]c2=O)cc1

>  <score_type>  (32) 
oracle

>  <origin>  (32) 
adg

>  <m_score__min__energy>  (32) 
-16.73

>  <m_primary>  (32) 
energy

$$$$
32:0
     RDKit          3D

 43 45  0  0  0  0  0  0  0  0999 V2000
   58.9610   32.8340   51.5850 C   0  0  0  0  0  0  0  0  0  0  0  0
   59.8210   32.5660   50.4820 O   0  0  0  0  0  0  0  0  0  0  0  0
   59.4750   32.7810   49.1400 C   0  0  0  0  0  0  0  0  0  0  0  0
   60.4500   33.2960   48.2750 C   0  0  0  0  0  0  0  0  0  0  0  0
   60.1520   33.5320   46.9310 C   0  0  0  0  0  0  0  0  0  0  0  0
   58.8740   33.2520   46.4320 C   0  0  0  0  0  0  0  0  0  0  0  0
   58.5130   33.5580   44.7360 S   0  0  0  0  0  0  0  0  0  0  0  0
   59.5810   34.4080   44.1060 O   0  0  0  0  0  0  0  0  0  0  0  0
   57.1990   34.2810   44.6430 O   0  0  0  0  0  0  0  0  0  0  0  0
   58.3980   32.0560   43.8760 N   0  0  0  0  0  0  0  0  0  0  0  0
   57.6430   30.9140   44.3050 C   0  0  0  0  0  0  0  0  0  0  0  0
   56.2410   30.8740   44.2310 C   0  0  0  0  0  0  0  0  0  0  0  0
   55.5460   29.7430   44.6660 C   0  0  0  0  0  0  0  0  0  0  0  0
   56.2380   28.6430   45.1800 C   0  0  0  0  0  0  0  0  0  0  0  0
   55.5210   27.5320   45.6120 O   0  0  0  0  0  0  0  0  0  0  0  0
   57.6440   28.6680   45.2580 C   0  0  0  0  0  0  0  0  0  0  0  0
   58.4120   27.5140   45.8500 C   0  0  0  0  0  0  0  0  0  0  0  0
   58.9970   27.9020   47.1820 C   0  0  0  0  0  0  0  0  0  0  0  0
   60.0230   27.1340   47.7560 C   0  0  0  0  0  0  0  0  0  0  0  0
   60.5870   27.5120   48.9790 C   0  0  0  0  0  0  0  0  0  0  0  0
   60.1350   28.6610   49.6330 C   0  0  0  0  0  0  0  0  0  0  0  0
   59.1220   29.4370   49.0640 C   0  0  0  0  0  0  0  0  0  0  0  0
   58.5570   29.0630   47.8410 C   0  0  0  0  0  0  0  0  0  0  0  0
   58.3330   29.8130   44.8260 C   0  0  0  0  0  0  0  0  0  0  0  0
   57.8960   32.7310   47.2880 C   0  0  0  0  0  0  0  0  0  0  0  0
   58.1900   32.4990   48.6350 C   0  0  0  0  0  0  0  0  0  0  0  0
   59.5065   32.6640   52.5250 H   0  0  0  0  0  0  0  0  0  0  0  0
   58.6233   33.8800   51.5410 H   0  0  0  0  0  0  0  0  0  0  0  0
   58.0889   32.1650   51.5410 H   0  0  0  0  0  0  0  0  0  0  0  0
   61.4576   33.5160   48.6575 H   0  0  0  0  0  0  0  0  0  0  0  0
   60.9243   33.9394   46.2619 H   0  0  0  0  0  0  0  0  0  0  0  0
   55.6884   31.7361   43.8292 H   0  0  0  0  0  0  0  0  0  0  0  0
   54.4481   29.7181   44.6036 H   0  0  0  0  0  0  0  0  0  0  0  0
   57.7334   26.6592   45.9872 H   0  0  0  0  0  0  0  0  0  0  0  0
   59.2297   27.2412   45.1667 H   0  0  0  0  0  0  0  0  0  0  0  0
   60.3847   26.2314   47.2417 H   0  0  0  0  0  0  0  0  0  0  0  0
   61.3872   26.9040   49.4263 H   0  0  0  0  0  0  0  0  0  0  0  0
   60.5770   28.9548   50.5965 H   0  0  0  0  0  0  0  0  0  0  0  0
   58.7688   30.3428   49.5786 H   0  0  0  0  0  0  0  0  0  0  0  0
   57.7645   29.6801   47.3925 H   0  0  0  0  0  0  0  0  0  0  0  0
   59.4302   29.8451   44.8980 H   0  0  0  0  0  0  0  0  0  0  0  0
   56.8925   32.5034   46.8992 H   0  0  0  0  0  0  0  0  0  0  0  0
   57.4153   32.0948   49.3032 H   0  0  0  0  0  0  0  0  0  0  0  0
  1  2  1  0
  2  3  1  0
  3  4  2  0
  4  5  1  0
  5  6  2  0
  6  7  1  0
  7  8  2  0
  7  9  2  0
  7 10  1  0
 10 11  1  0
 11 12  2  0
 12 13  1  0
 13 14  2  0
 14 15  1  0
 14 16  1  0
 16 17  1  0
 17 18  1  0
 18 19  2  0
 19 20  1  0
 20 21  2  0
 21 22  1  0
 22 23  2  0
 16 24  2  0
  6 25  1  0
 25 26  2  0
 26  3  1  0
 24 11  1  0
 23 18  1  0
  1 27  1  0
  1 28  1  0
  1 29  1  0
  4 30  1  0
  5 31  1  0
 12 32  1  0
 13 33  1  0
 17 34  1  0
 17 35  1  0
 19 36  1  0
 20 37  1  0
 21 38  1  0
 22 39  1  0
 23 40  1  0
 24 41  1  0
 25 42  1  0
 26 43  1  0
M  CHG  2  10  -1  15  -1
M  END
>  <UniqueID>  (33) 
27

>  <SMILES>  (33) 
COc1ccc(S(=O)(=O)[N-]c2ccc([O-])c(Cc3ccccc3)c2)cc1

>  <Energy>  (33) 
47.425961540294054

>  <Genealogy>  (33) 
COc1ccc(S(=O)(=O)[N-]c2ccc([O-])c(Cc3ccccc3)c2)cc1 (protonated)
COc1ccc(S(=O)(=O)[N-]c2ccc([O-])c(Cc3ccccc3)c2)cc1 (3D coordinates assigned)
COc1ccc(S(=O)(=O)[N-]c2ccc([O-])c(Cc3ccccc3)c2)cc1 (optimized conformer: 47.425961540294054 kcal/mol)

>  <smiles>  (33) 
COc1ccc(S(=O)(=O)Nc2ccc(O)c(Cc3ccccc3)c2)cc1

>  <score_type>  (33) 
oracle

>  <origin>  (33) 
adg

>  <m_score__min__energy>  (33) 
-11.34

>  <m_primary>  (33) 
energy

$$$$
33:0
     RDKit          3D

 58 60  0  0  0  0  0  0  0  0999 V2000
   57.3940   24.8670   43.4730 C   0  0  0  0  0  0  0  0  0  0  0  0
   57.5870   24.1730   44.7020 O   0  0  0  0  0  0  0  0  0  0  0  0
   56.5590   23.5640   45.4400 C   0  0  0  0  0  0  0  0  0  0  0  0
   55.8370   22.4590   44.9460 C   0  0  0  0  0  0  0  0  0  0  0  0
   54.8160   21.8840   45.7050 C   0  0  0  0  0  0  0  0  0  0  0  0
   54.5110   22.3890   46.9740 C   0  0  0  0  0  0  0  0  0  0  0  0
   53.2350   21.6530   47.9400 S   0  0  0  0  0  0  0  0  0  0  0  0
   53.2460   20.1600   47.7640 O   0  0  0  0  0  0  0  0  0  0  0  0
   53.4660   21.9800   49.3870 O   0  0  0  0  0  0  0  0  0  0  0  0
   51.6860   22.2680   47.4630 N   0  0  0  0  0  0  0  0  0  0  0  0
   51.2790   22.3610   46.0950 C   0  0  0  0  0  0  0  0  0  0  0  0
   51.7450   21.5650   45.2370 O   0  0  0  0  0  0  0  0  0  0  0  0
   50.3040   23.4160   45.6780 C   0  0  0  0  0  0  0  0  0  0  0  0
   51.0000   24.3810   44.2980 S   0  0  0  0  0  0  0  0  0  0  0  0
   52.6960   24.4190   44.9560 C   0  0  0  0  0  0  0  0  0  0  0  0
   55.2400   23.4700   47.4810 C   0  0  0  0  0  0  0  0  0  0  0  0
   56.2390   24.0860   46.7060 C   0  0  0  0  0  0  0  0  0  0  0  0
   56.9670   25.2260   47.1950 N   0  0  0  0  0  0  0  0  0  0  0  0
   56.9770   26.5230   46.5840 C   0  0  0  0  0  0  0  0  0  0  0  0
   55.9470   26.9540   46.0030 O   0  0  0  0  0  0  0  0  0  0  0  0
   58.1670   27.3210   46.6360 N   0  0  0  0  0  0  0  0  0  0  0  0
   58.2400   28.6550   46.1070 C   0  0  0  0  0  0  0  0  0  0  0  0
   58.0390   29.0380   44.7890 C   0  0  0  0  0  0  0  0  0  0  0  0
   57.6600   28.1350   43.6530 C   0  0  0  0  0  0  0  0  0  0  0  0
   58.1910   30.3840   44.7040 N   0  0  0  0  0  0  0  0  0  0  0  0
   58.0320   31.1910   43.4920 C   0  0  0  0  0  0  0  0  0  0  0  0
   58.5050   30.8590   45.9070 N   0  0  0  0  0  0  0  0  0  0  0  0
   58.8360   32.2240   46.2170 C   0  0  0  0  0  0  0  0  0  0  0  0
   57.8950   33.2460   46.0100 C   0  0  0  0  0  0  0  0  0  0  0  0
   58.2090   34.5690   46.3380 C   0  0  0  0  0  0  0  0  0  0  0  0
   59.4600   34.8780   46.8810 C   0  0  0  0  0  0  0  0  0  0  0  0
   60.3960   33.8640   47.1010 C   0  0  0  0  0  0  0  0  0  0  0  0
   60.0850   32.5410   46.7720 C   0  0  0  0  0  0  0  0  0  0  0  0
   58.5170   29.8310   46.7790 C   0  0  0  0  0  0  0  0  0  0  0  0
   58.7290   29.9510   48.0160 O   0  0  0  0  0  0  0  0  0  0  0  0
   57.1046   25.9076   43.6811 H   0  0  0  0  0  0  0  0  0  0  0  0
   58.3295   24.8553   42.8945 H   0  0  0  0  0  0  0  0  0  0  0  0
   56.5989   24.3740   42.8945 H   0  0  0  0  0  0  0  0  0  0  0  0
   56.0796   22.0467   43.9555 H   0  0  0  0  0  0  0  0  0  0  0  0
   54.2492   21.0308   45.3040 H   0  0  0  0  0  0  0  0  0  0  0  0
   49.3659   22.9406   45.3557 H   0  0  0  0  0  0  0  0  0  0  0  0
   50.1047   24.0855   46.5278 H   0  0  0  0  0  0  0  0  0  0  0  0
   52.6628   24.4183   46.0555 H   0  0  0  0  0  0  0  0  0  0  0  0
   53.2454   23.5329   44.6051 H   0  0  0  0  0  0  0  0  0  0  0  0
   53.2051   25.3288   44.6051 H   0  0  0  0  0  0  0  0  0  0  0  0
   55.0300   23.8415   48.4948 H   0  0  0  0  0  0  0  0  0  0  0  0
   58.9560   26.9770   47.2270 H   0  0  0  0  0  0  0  0  0  0  0  0
   57.2634   27.1900   44.0524 H   0  0  0  0  0  0  0  0  0  0  0  0
   56.8912   28.6240   43.0367 H   0  0  0  0  0  0  0  0  0  0  0  0
   58.5475   27.9288   43.0367 H   0  0  0  0  0  0  0  0  0  0  0  0
   57.8263   32.2350   43.7710 H   0  0  0  0  0  0  0  0  0  0  0  0
   58.9563   31.1457   42.8974 H   0  0  0  0  0  0  0  0  0  0  0  0
   57.1939   30.7984   42.8974 H   0  0  0  0  0  0  0  0  0  0  0  0
   56.9079   33.0052   45.5886 H   0  0  0  0  0  0  0  0  0  0  0  0
   57.4712   35.3671   46.1686 H   0  0  0  0  0  0  0  0  0  0  0  0
   59.7073   35.9193   47.1350 H   0  0  0  0  0  0  0  0  0  0  0  0
   61.3780   34.1067   47.5332 H   0  0  0  0  0  0  0  0  0  0  0  0
   60.8232   31.7449   46.9492 H   0  0  0  0  0  0  0  0  0  0  0  0
  1  2  1  0
  2  3  1  0
  3  4  2  0
  4  5  1  0
  5  6  2  0
  6  7  1  0
  7  8  2  0
  7  9  2  0
  7 10  1  0
 10 11  1  0
 11 12  2  0
 11 13  1  0
 13 14  1  0
 14 15  1  0
  6 16  1  0
 16 17  2  0
 17 18  1  0
 18 19  1  0
 19 20  2  0
 19 21  1  0
 21 22  1  0
 22 23  2  0
 23 24  1  0
 23 25  1  0
 25 26  1  0
 25 27  1  0
 27 28  1  0
 28 29  2  0
 29 30  1  0
 30 31  2  0
 31 32  1  0
 32 33  2  0
 27 34  1  0
 34 35  2  0
 17  3  1  0
 34 22  1  0
 33 28  1  0
  1 36  1  0
  1 37  1  0
  1 38  1  0
  4 39  1  0
  5 40  1  0
 13 41  1  0
 13 42  1  0
 15 43  1  0
 15 44  1  0
 15 45  1  0
 16 46  1  0
 21 47  1  0
 24 48  1  0
 24 49  1  0
 24 50  1  0
 26 51  1  0
 26 52  1  0
 26 53  1  0
 29 54  1  0
 30 55  1  0
 31 56  1  0
 32 57  1  0
 33 58  1  0
M  CHG  2  10  -1  18  -1
M  END
>  <UniqueID>  (34) 
28

>  <SMILES>  (34) 
COc1ccc(S(=O)(=O)[N-]C(=O)CSC)cc1[N-]C(=O)Nc1c(C)n(C)n(-c2ccccc2)c1=O

>  <Energy>  (34) 
101.31135076647256

>  <Genealogy>  (34) 
COc1ccc(S(=O)(=O)[N-]C(=O)CSC)cc1[N-]C(=O)Nc1c(C)n(C)n(-c2ccccc2)c1=O (protonated)
COc1ccc(S(=O)(=O)[N-]C(=O)CSC)cc1[N-]C(=O)Nc1c(C)n(C)n(-c2ccccc2)c1=O (3D coordinates assigned)
COc1ccc(S(=O)(=O)[N-]C(=O)CSC)cc1[N-]C(=O)Nc1c(C)n(C)n(-c2ccccc2)c1=O (optimized conformer: 101.31135076647256 kcal/mol)

>  <smiles>  (34) 
COc1ccc(S(=O)(=O)NC(=O)CSC)cc1NC(=O)Nc1c(C)n(C)n(-c2ccccc2)c1=O

>  <score_type>  (34) 
oracle

>  <origin>  (34) 
adg

>  <m_score__min__energy>  (34) 
-11.140000000000001

>  <m_primary>  (34) 
energy

$$$$
34:0
     RDKit          3D

 41 43  0  0  0  0  0  0  0  0999 V2000
   58.8310   29.5170   44.1850 C   0  0  0  0  0  0  0  0  0  0  0  0
   57.6520   29.9430   44.9460 N   0  0  0  0  0  0  0  0  0  0  0  0
   56.6710   28.9610   45.3410 C   0  0  0  0  0  0  0  0  0  0  0  0
   55.5560   28.9100   44.7530 O   0  0  0  0  0  0  0  0  0  0  0  0
   56.9600   28.0370   46.3990 N   0  0  0  0  0  0  0  0  0  0  0  0
   57.8060   26.8910   46.2620 C   0  0  0  0  0  0  0  0  0  0  0  0
   59.1730   27.0530   46.5180 C   0  0  0  0  0  0  0  0  0  0  0  0
   60.0590   25.9920   46.3370 C   0  0  0  0  0  0  0  0  0  0  0  0
   59.5830   24.7520   45.9100 C   0  0  0  0  0  0  0  0  0  0  0  0
   58.2180   24.5640   45.6830 C   0  0  0  0  0  0  0  0  0  0  0  0
   57.3050   25.6200   45.8730 C   0  0  0  0  0  0  0  0  0  0  0  0
   55.8530   25.3500   45.7240 C   0  0  0  0  0  0  0  0  0  0  0  0
   54.8980   26.3650   46.0290 N   0  0  0  0  0  0  0  0  0  0  0  0
   55.4480   24.2360   45.2950 O   0  0  0  0  0  0  0  0  0  0  0  0
   57.4000   31.3530   45.1170 C   0  0  0  0  0  0  0  0  0  0  0  0
   56.2650   31.8250   44.8340 O   0  0  0  0  0  0  0  0  0  0  0  0
   58.4760   32.2740   45.5520 C   0  0  0  0  0  0  0  0  0  0  0  0
   58.5210   33.5540   44.9770 C   0  0  0  0  0  0  0  0  0  0  0  0
   59.5080   34.4680   45.3430 C   0  0  0  0  0  0  0  0  0  0  0  0
   60.4720   34.1200   46.2890 C   0  0  0  0  0  0  0  0  0  0  0  0
   60.4630   32.8450   46.8710 C   0  0  0  0  0  0  0  0  0  0  0  0
   61.4530   32.4920   47.8030 C   0  0  0  0  0  0  0  0  0  0  0  0
   61.4720   31.2130   48.3580 C   0  0  0  0  0  0  0  0  0  0  0  0
   60.5120   30.2730   47.9870 C   0  0  0  0  0  0  0  0  0  0  0  0
   59.5160   30.6080   47.0650 C   0  0  0  0  0  0  0  0  0  0  0  0
   59.4640   31.9020   46.5030 C   0  0  0  0  0  0  0  0  0  0  0  0
   59.6319   29.2276   44.8813 H   0  0  0  0  0  0  0  0  0  0  0  0
   58.5675   28.6572   43.5515 H   0  0  0  0  0  0  0  0  0  0  0  0
   59.1779   30.3466   43.5515 H   0  0  0  0  0  0  0  0  0  0  0  0
   59.5511   28.0259   46.8650 H   0  0  0  0  0  0  0  0  0  0  0  0
   61.1327   26.1324   46.5307 H   0  0  0  0  0  0  0  0  0  0  0  0
   60.2850   23.9200   45.7517 H   0  0  0  0  0  0  0  0  0  0  0  0
   57.8517   23.5809   45.3523 H   0  0  0  0  0  0  0  0  0  0  0  0
   55.1650   27.3740   46.0140 H   0  0  0  0  0  0  0  0  0  0  0  0
   57.7677   33.8394   44.2280 H   0  0  0  0  0  0  0  0  0  0  0  0
   59.5266   35.4675   44.8839 H   0  0  0  0  0  0  0  0  0  0  0  0
   61.2426   34.8493   46.5795 H   0  0  0  0  0  0  0  0  0  0  0  0
   62.2164   33.2277   48.0962 H   0  0  0  0  0  0  0  0  0  0  0  0
   62.2471   30.9450   49.0910 H   0  0  0  0  0  0  0  0  0  0  0  0
   60.5382   29.2629   48.4217 H   0  0  0  0  0  0  0  0  0  0  0  0
   58.7665   29.8570   46.7750 H   0  0  0  0  0  0  0  0  0  0  0  0
  1  2  1  0
  2  3  1  0
  3  4  2  0
  3  5  1  0
  5  6  1  0
  6  7  2  0
  7  8  1  0
  8  9  2  0
  9 10  1  0
 10 11  2  0
 11 12  1  0
 12 13  1  0
 12 14  2  0
  2 15  1  0
 15 16  2  0
 15 17  1  0
 17 18  2  0
 18 19  1  0
 19 20  2  0
 20 21  1  0
 21 22  2  0
 22 23  1  0
 23 24  2  0
 24 25  1  0
 25 26  2  0
 11  6  1  0
 26 17  1  0
 26 21  1  0
  1 27  1  0
  1 28  1  0
  1 29  1  0
  7 30  1  0
  8 31  1  0
  9 32  1  0
 10 33  1  0
 13 34  1  0
 18 35  1  0
 19 36  1  0
 20 37  1  0
 22 38  1  0
 23 39  1  0
 24 40  1  0
 25 41  1  0
M  CHG  2   5  -1  13  -1
M  END
>  <UniqueID>  (35) 
29

>  <SMILES>  (35) 
CN(C(=O)[N-]c1ccccc1C([NH-])=O)C(=O)c1cccc2ccccc12

>  <Energy>  (35) 
65.0438795513176

>  <Genealogy>  (35) 
CN(C(=O)[N-]c1ccccc1C([NH-])=O)C(=O)c1cccc2ccccc12 (protonated)
CN(C(=O)[N-]c1ccccc1C([NH-])=O)C(=O)c1cccc2ccccc12 (3D coordinates assigned)
CN(C(=O)[N-]c1ccccc1C([NH-])=O)C(=O)c1cccc2ccccc12 (optimized conformer: 65.0438795513176 kcal/mol)

>  <smiles>  (35) 
CN(C(=O)Nc1ccccc1C(N)=O)C(=O)c1cccc2ccccc12

>  <score_type>  (35) 
oracle

>  <origin>  (35) 
adg

>  <m_score__min__energy>  (35) 
-14.09

>  <m_primary>  (35) 
energy

$$$$
35:0
     RDKit          3D

 23 23  0  0  0  0  0  0  0  0999 V2000
   56.9460   29.1060   43.3910 N   0  0  0  0  0  0  0  0  0  0  0  0
   56.1830   29.8540   44.3330 C   0  0  0  0  0  0  0  0  0  0  0  0
   55.1740   29.3280   44.8710 O   0  0  0  0  0  0  0  0  0  0  0  0
   56.5960   31.1840   44.6750 N   0  0  0  0  0  0  0  0  0  0  0  0
   57.5410   32.0050   43.9720 C   0  0  0  0  0  0  0  0  0  0  0  0
   58.0560   31.5530   42.9150 O   0  0  0  0  0  0  0  0  0  0  0  0
   57.9410   33.3660   44.4770 C   0  0  0  0  0  0  0  0  0  0  0  0
   57.3890   33.6430   46.1980 S   0  0  0  0  0  0  0  0  0  0  0  0
   59.0590   33.7210   46.8480 C   0  0  0  0  0  0  0  0  0  0  0  0
   59.2730   33.7310   48.2330 C   0  0  0  0  0  0  0  0  0  0  0  0
   60.5750   33.7900   48.7400 C   0  0  0  0  0  0  0  0  0  0  0  0
   61.6660   33.8380   47.8650 C   0  0  0  0  0  0  0  0  0  0  0  0
   62.9280   33.8960   48.3560 F   0  0  0  0  0  0  0  0  0  0  0  0
   61.4540   33.8260   46.4820 C   0  0  0  0  0  0  0  0  0  0  0  0
   60.1520   33.7660   45.9740 C   0  0  0  0  0  0  0  0  0  0  0  0
   57.7920   29.5260   42.9450 H   0  0  0  0  0  0  0  0  0  0  0  0
   56.6660   28.1320   43.1370 H   0  0  0  0  0  0  0  0  0  0  0  0
   59.0368   33.4525   44.4366 H   0  0  0  0  0  0  0  0  0  0  0  0
   57.4601   34.1218   43.8386 H   0  0  0  0  0  0  0  0  0  0  0  0
   58.4162   33.6924   48.9218 H   0  0  0  0  0  0  0  0  0  0  0  0
   60.7416   33.7987   49.8273 H   0  0  0  0  0  0  0  0  0  0  0  0
   62.3114   33.8638   45.7940 H   0  0  0  0  0  0  0  0  0  0  0  0
   59.9866   33.7542   44.8866 H   0  0  0  0  0  0  0  0  0  0  0  0
  1  2  1  0
  2  3  2  0
  2  4  1  0
  4  5  1  0
  5  6  2  0
  5  7  1  0
  7  8  1  0
  8  9  1  0
  9 10  2  0
 10 11  1  0
 11 12  2  0
 12 13  1  0
 12 14  1  0
 14 15  2  0
 15  9  1  0
  1 16  1  0
  1 17  1  0
  7 18  1  0
  7 19  1  0
 10 20  1  0
 11 21  1  0
 14 22  1  0
 15 23  1  0
M  CHG  1   4  -1
M  END
>  <UniqueID>  (36) 
30

>  <SMILES>  (36) 
NC(=O)[N-]C(=O)CSc1ccc(F)cc1

>  <Energy>  (36) 
17.508311847145603

>  <Genealogy>  (36) 
NC(=O)[N-]C(=O)CSc1ccc(F)cc1 (protonated)
NC(=O)[N-]C(=O)CSc1ccc(F)cc1 (3D coordinates assigned)
NC(=O)[N-]C(=O)CSc1ccc(F)cc1 (optimized conformer: 17.508311847145603 kcal/mol)

>  <smiles>  (36) 
NC(=O)NC(=O)CSc1ccc(F)cc1

>  <score_type>  (36) 
oracle

>  <origin>  (36) 
adg

>  <m_score__min__energy>  (36) 
-8.0700000000000003

>  <m_primary>  (36) 
energy

$$$$
36:0
     RDKit          3D

 29 30  0  0  0  0  0  0  0  0999 V2000
   54.4070   29.7140   45.5080 H   0  0  0  0  0  0  0  0  0  0  0  0
   55.1430   29.3250   44.8770 N   0  0  0  0  0  0  0  0  0  0  0  0
   56.3540   29.7800   44.8910 C   0  0  0  0  0  0  0  0  0  0  0  0
   56.6060   31.0600   44.5060 N   0  0  0  0  0  0  0  0  0  0  0  0
   57.8650   31.5790   44.5070 C   0  0  0  0  0  0  0  0  0  0  0  0
   58.0860   32.9830   44.0300 C   0  0  0  0  0  0  0  0  0  0  0  0
   59.1639   33.2022   44.0438 H   0  0  0  0  0  0  0  0  0  0  0  0
   57.6876   33.0731   43.0086 H   0  0  0  0  0  0  0  0  0  0  0  0
   57.2180   34.1830   45.1020 S   0  0  0  0  0  0  0  0  0  0  0  0
   58.3150   33.9640   46.5080 C   0  0  0  0  0  0  0  0  0  0  0  0
   59.4840   34.7290   46.6130 C   0  0  0  0  0  0  0  0  0  0  0  0
   59.7276   35.4705   45.8378 H   0  0  0  0  0  0  0  0  0  0  0  0
   60.3410   34.5500   47.7030 C   0  0  0  0  0  0  0  0  0  0  0  0
   61.2607   35.1481   47.7829 H   0  0  0  0  0  0  0  0  0  0  0  0
   60.0300   33.6110   48.6920 C   0  0  0  0  0  0  0  0  0  0  0  0
   60.7068   33.4691   49.5475 H   0  0  0  0  0  0  0  0  0  0  0  0
   58.8600   32.8530   48.5940 C   0  0  0  0  0  0  0  0  0  0  0  0
   58.6160   32.1149   49.3722 H   0  0  0  0  0  0  0  0  0  0  0  0
   57.9990   33.0330   47.5060 C   0  0  0  0  0  0  0  0  0  0  0  0
   57.0733   32.4431   47.4342 H   0  0  0  0  0  0  0  0  0  0  0  0
   58.9450   30.7800   44.9050 C   0  0  0  0  0  0  0  0  0  0  0  0
   59.9648   31.1923   44.9137 H   0  0  0  0  0  0  0  0  0  0  0  0
   58.7180   29.4520   45.2920 C   0  0  0  0  0  0  0  0  0  0  0  0
   59.8560   28.5940   45.7580 C   0  0  0  0  0  0  0  0  0  0  0  0
   59.8769   28.5782   46.8577 H   0  0  0  0  0  0  0  0  0  0  0  0
   59.7223   27.5700   45.3791 H   0  0  0  0  0  0  0  0  0  0  0  0
   60.8037   29.0043   45.3791 H   0  0  0  0  0  0  0  0  0  0  0  0
   57.4070   28.9550   45.2990 C   0  0  0  0  0  0  0  0  0  0  0  0
   57.2080   27.9229   45.6233 H   0  0  0  0  0  0  0  0  0  0  0  0
  1  2  1  0
  2  3  2  0
  3  4  1  0
  4  5  1  0
  5  6  1  0
  6  7  1  0
  6  8  1  0
  6  9  1  0
  9 10  1  0
 10 11  2  0
 11 12  1  0
 11 13  1  0
 13 14  1  0
 13 15  2  0
 15 16  1  0
 15 17  1  0
 17 18  1  0
 17 19  2  0
 19 20  1  0
  5 21  2  0
 21 22  1  0
 21 23  1  0
 23 24  1  0
 24 25  1  0
 24 26  1  0
 24 27  1  0
 23 28  2  0
 28 29  1  0
 28  3  1  0
 19 10  1  0
M  CHG  1   4  -1
M  END
>  <UniqueID>  (37) 
31

>  <SMILES>  (37) 
[H]/N=c1/cc(C)cc(CSc2ccccc2)[n-]1

>  <Energy>  (37) 
23.33507997134211

>  <Genealogy>  (37) 
Cc1cc(CSc2ccccc2)[n-]c(=N)c1 (protonated)
[H]/N=c1/cc(C)cc(CSc2ccccc2)[n-]1 (cis-trans isomerization)
[H]/N=c1/cc(C)cc(CSc2ccccc2)[n-]1 (3D coordinates assigned)
[H]/N=c1/cc(C)cc(CSc2ccccc2)[n-]1 (optimized conformer: 23.33507997134211 kcal/mol)

>  <smiles>  (37) 
Cc1cc(CSc2ccccc2)[nH]c(=N)c1

>  <score_type>  (37) 
oracle

>  <origin>  (37) 
adg

>  <m_score__min__energy>  (37) 
-9.5800000000000001

>  <m_primary>  (37) 
energy

$$$$
37:0
     RDKit          3D

 22 23  0  0  0  0  0  0  0  0999 V2000
   56.3580   21.1680   43.2110 O   0  0  0  0  0  0  0  0  0  0  0  0
   56.2780   22.3150   43.9960 C   0  0  0  0  0  0  0  0  0  0  0  0
   57.3980   22.7390   44.7170 C   0  0  0  0  0  0  0  0  0  0  0  0
   57.3320   23.8900   45.5080 C   0  0  0  0  0  0  0  0  0  0  0  0
   56.1500   24.6380   45.5750 C   0  0  0  0  0  0  0  0  0  0  0  0
   56.1250   25.7800   46.3890 O   0  0  0  0  0  0  0  0  0  0  0  0
   56.6330   27.0370   46.0360 C   0  0  0  0  0  0  0  0  0  0  0  0
   55.9150   27.8880   45.2530 N   0  0  0  0  0  0  0  0  0  0  0  0
   56.4120   29.1000   44.8910 C   0  0  0  0  0  0  0  0  0  0  0  0
   55.5200   30.1000   43.9590 S   0  0  0  0  0  0  0  0  0  0  0  0
   57.6490   29.4790   45.3030 N   0  0  0  0  0  0  0  0  0  0  0  0
   58.4070   28.6580   46.0760 C   0  0  0  0  0  0  0  0  0  0  0  0
   57.9140   27.4090   46.4600 C   0  0  0  0  0  0  0  0  0  0  0  0
   58.8890   26.3420   47.4560 Cl  0  0  0  0  0  0  0  0  0  0  0  0
   55.0180   24.1990   44.8640 C   0  0  0  0  0  0  0  0  0  0  0  0
   55.0850   23.0470   44.0730 C   0  0  0  0  0  0  0  0  0  0  0  0
   57.0190   20.4300   43.4200 H   0  0  0  0  0  0  0  0  0  0  0  0
   58.3347   22.1650   44.6618 H   0  0  0  0  0  0  0  0  0  0  0  0
   58.2144   24.2101   46.0815 H   0  0  0  0  0  0  0  0  0  0  0  0
   59.4088   28.9770   46.3993 H   0  0  0  0  0  0  0  0  0  0  0  0
   54.0765   24.7639   44.9303 H   0  0  0  0  0  0  0  0  0  0  0  0
   54.1999   22.7150   43.5105 H   0  0  0  0  0  0  0  0  0  0  0  0
  1  2  1  0
  2  3  2  0
  3  4  1  0
  4  5  2  0
  5  6  1  0
  6  7  1  0
  7  8  1  0
  8  9  1  0
  9 10  2  0
  9 11  1  0
 11 12  2  0
 12 13  1  0
 13 14  1  0
  5 15  1  0
 15 16  2  0
 16  2  1  0
 13  7  2  0
  1 17  1  0
  3 18  1  0
  4 19  1  0
 12 20  1  0
 15 21  1  0
 16 22  1  0
M  CHG  1   8  -1
M  END
>  <UniqueID>  (38) 
32

>  <SMILES>  (38) 
Oc1ccc(Oc2[n-]c(=S)ncc2Cl)cc1

>  <Energy>  (38) 
28.189684144746593

>  <Genealogy>  (38) 
Oc1ccc(Oc2[n-]c(=S)ncc2Cl)cc1 (protonated)
Oc1ccc(Oc2[n-]c(=S)ncc2Cl)cc1 (3D coordinates assigned)
Oc1ccc(Oc2[n-]c(=S)ncc2Cl)cc1 (optimized conformer: 28.189684144746593 kcal/mol)

>  <smiles>  (38) 
Oc1ccc(Oc2[nH]c(=S)ncc2Cl)cc1

>  <score_type>  (38) 
oracle

>  <origin>  (38) 
adg

>  <m_score__min__energy>  (38) 
-7.4900000000000002

>  <m_primary>  (38) 
energy

$$$$
38:0
     RDKit          3D

 43 44  0  0  0  0  0  0  0  0999 V2000
   63.1410   33.1350   48.5250 C   0  0  0  0  0  0  0  0  0  0  0  0
   61.9400   32.2920   48.4680 N   0  0  0  0  0  0  0  0  0  0  0  0
   61.8720   31.6020   47.1650 C   0  0  0  0  0  0  0  0  0  0  0  0
   60.8870   30.4620   47.2000 C   0  0  0  0  0  0  0  0  0  0  0  0
   60.6920   29.6610   46.0640 C   0  0  0  0  0  0  0  0  0  0  0  0
   59.7770   28.6090   46.1150 C   0  0  0  0  0  0  0  0  0  0  0  0
   59.0790   28.3530   47.2950 C   0  0  0  0  0  0  0  0  0  0  0  0
   59.3110   29.1540   48.4140 C   0  0  0  0  0  0  0  0  0  0  0  0
   60.2060   30.1790   48.3500 N   0  0  0  0  0  0  0  0  0  0  0  0
   60.5210   33.2850   48.7390 S   0  0  0  0  0  0  0  0  0  0  0  0
   59.5720   32.5640   49.6570 O   0  0  0  0  0  0  0  0  0  0  0  0
   60.9240   34.5670   49.4140 O   0  0  0  0  0  0  0  0  0  0  0  0
   59.6910   33.6680   47.2300 C   0  0  0  0  0  0  0  0  0  0  0  0
   59.9630   34.8660   46.5580 C   0  0  0  0  0  0  0  0  0  0  0  0
   59.3010   35.1680   45.3640 C   0  0  0  0  0  0  0  0  0  0  0  0
   58.3670   34.2730   44.8350 C   0  0  0  0  0  0  0  0  0  0  0  0
   58.0900   33.0670   45.4960 C   0  0  0  0  0  0  0  0  0  0  0  0
   57.0810   32.1060   44.9270 C   0  0  0  0  0  0  0  0  0  0  0  0
   57.2930   30.7520   45.4410 N   0  0  0  0  0  0  0  0  0  0  0  0
   56.5610   29.5470   44.4180 S   0  0  0  0  0  0  0  0  0  0  0  0
   56.5260   30.0630   42.7110 C   0  0  0  0  0  0  0  0  0  0  0  0
   55.1460   29.3290   44.8750 O   0  0  0  0  0  0  0  0  0  0  0  0
   57.3100   28.2500   44.5330 O   0  0  0  0  0  0  0  0  0  0  0  0
   58.7500   32.7750   46.6990 C   0  0  0  0  0  0  0  0  0  0  0  0
   63.4079   33.3224   49.5755 H   0  0  0  0  0  0  0  0  0  0  0  0
   63.9734   32.6219   48.0211 H   0  0  0  0  0  0  0  0  0  0  0  0
   62.9414   34.0922   48.0211 H   0  0  0  0  0  0  0  0  0  0  0  0
   61.5597   32.3219   46.3942 H   0  0  0  0  0  0  0  0  0  0  0  0
   62.8675   31.1939   46.9358 H   0  0  0  0  0  0  0  0  0  0  0  0
   61.2560   29.8611   45.1410 H   0  0  0  0  0  0  0  0  0  0  0  0
   59.6065   27.9830   45.2267 H   0  0  0  0  0  0  0  0  0  0  0  0
   58.3529   27.5281   47.3432 H   0  0  0  0  0  0  0  0  0  0  0  0
   58.7693   28.9570   49.3509 H   0  0  0  0  0  0  0  0  0  0  0  0
   60.3640   30.7580   49.2060 H   0  0  0  0  0  0  0  0  0  0  0  0
   60.6994   35.5714   46.9705 H   0  0  0  0  0  0  0  0  0  0  0  0
   59.5156   36.1113   44.8404 H   0  0  0  0  0  0  0  0  0  0  0  0
   57.8469   34.5152   43.8965 H   0  0  0  0  0  0  0  0  0  0  0  0
   56.0704   32.4409   45.2037 H   0  0  0  0  0  0  0  0  0  0  0  0
   57.1964   32.0860   43.8333 H   0  0  0  0  0  0  0  0  0  0  0  0
   56.4516   31.1593   42.6608 H   0  0  0  0  0  0  0  0  0  0  0  0
   57.4485   29.7347   42.2097 H   0  0  0  0  0  0  0  0  0  0  0  0
   55.6563   29.6132   42.2097 H   0  0  0  0  0  0  0  0  0  0  0  0
   58.5273   31.8377   47.2299 H   0  0  0  0  0  0  0  0  0  0  0  0
  1  2  1  0
  2  3  1  0
  3  4  1  0
  4  5  2  0
  5  6  1  0
  6  7  2  0
  7  8  1  0
  8  9  2  0
  2 10  1  0
 10 11  2  0
 10 12  2  0
 10 13  1  0
 13 14  2  0
 14 15  1  0
 15 16  2  0
 16 17  1  0
 17 18  1  0
 18 19  1  0
 19 20  1  0
 20 21  1  0
 20 22  2  0
 20 23  2  0
 17 24  2  0
  9  4  1  0
 24 13  1  0
  1 25  1  0
  1 26  1  0
  1 27  1  0
  3 28  1  0
  3 29  1  0
  5 30  1  0
  6 31  1  0
  7 32  1  0
  8 33  1  0
  9 34  1  0
 14 35  1  0
 15 36  1  0
 16 37  1  0
 18 38  1  0
 18 39  1  0
 21 40  1  0
 21 41  1  0
 21 42  1  0
 24 43  1  0
M  CHG  2   9   1  19  -1
M  END
>  <UniqueID>  (39) 
33

>  <SMILES>  (39) 
CN(Cc1cccc[nH+]1)S(=O)(=O)c1cccc(C[N-]S(C)(=O)=O)c1

>  <Energy>  (39) 
34.610517451353886

>  <Genealogy>  (39) 
CN(Cc1cccc[nH+]1)S(=O)(=O)c1cccc(C[N-]S(C)(=O)=O)c1 (protonated)
CN(Cc1cccc[nH+]1)S(=O)(=O)c1cccc(C[N-]S(C)(=O)=O)c1 (3D coordinates assigned)
CN(Cc1cccc[nH+]1)S(=O)(=O)c1cccc(C[N-]S(C)(=O)=O)c1 (optimized conformer: 34.610517451353886 kcal/mol)

>  <smiles>  (39) 
CN(Cc1ccccn1)S(=O)(=O)c1cccc(CNS(C)(=O)=O)c1

>  <score_type>  (39) 
oracle

>  <origin>  (39) 
adg

>  <m_score__min__energy>  (39) 
-8.8200000000000003

>  <m_primary>  (39) 
energy

$$$$
39:0
     RDKit          3D

 56 59  0  0  1  0  0  0  0  0999 V2000
   54.6330   25.2160   45.6200 C   0  0  0  0  0  0  0  0  0  0  0  0
   55.1640   26.4730   45.9920 O   0  0  0  0  0  0  0  0  0  0  0  0
   56.5500   26.6360   45.8970 C   0  0  0  0  0  0  0  0  0  0  0  0
   57.4410   25.6600   46.2940 C   0  0  0  0  0  0  0  0  0  0  0  0
   58.8180   25.8800   46.1750 C   0  0  0  0  0  0  0  0  0  0  0  0
   59.2660   27.0970   45.6500 C   0  0  0  0  0  0  0  0  0  0  0  0
   58.3520   28.0530   45.2610 C   0  0  0  0  0  0  0  0  0  0  0  0
   56.9830   27.8390   45.3780 C   0  0  0  0  0  0  0  0  0  0  0  0
   56.1020   28.8720   44.9570 N   0  0  0  0  0  0  0  0  0  0  0  0
   56.5810   29.9770   44.4940 C   0  0  0  0  0  0  0  0  0  0  0  0
   56.6300   30.1110   43.1220 C   0  0  0  0  0  0  0  0  0  0  0  0
   57.1270   31.2650   42.5540 C   0  0  0  0  0  0  0  0  0  0  0  0
   57.5480   32.2280   43.3850 N   0  0  0  0  0  0  0  0  0  0  0  0
   57.5010   32.0950   44.7430 C   0  0  0  0  0  0  0  0  0  0  0  0
   57.9830   33.2070   45.4830 N   0  0  0  0  0  0  0  0  0  0  0  0
   58.7310   34.3040   44.8480 C   0  0  0  0  0  0  0  0  0  0  0  0
   60.0080   34.4750   45.6640 C   0  0  0  0  0  0  0  0  0  0  0  0
   60.2070   33.3330   46.5380 N   0  0  0  0  0  0  0  0  0  0  0  0
   61.7450   33.4350   47.2570 S   0  0  0  0  0  0  0  0  0  0  0  0
   62.6880   34.2170   46.3700 O   0  0  0  0  0  0  0  0  0  0  0  0
   61.6300   34.2500   48.5390 O   0  0  0  0  0  0  0  0  0  0  0  0
   62.4840   31.8700   47.6080 C   0  0  0  0  0  0  0  0  0  0  0  0
   61.4100   31.0240   48.2200 C   0  0  0  0  0  0  0  0  0  0  0  0
   61.2250   30.9700   49.5820 C   0  0  0  0  0  0  0  0  0  0  0  0
   60.1990   30.1470   50.0430 C   0  0  0  0  0  0  0  0  0  0  0  0
   59.4130   29.4240   49.1470 C   0  0  0  0  0  0  0  0  0  0  0  0
   59.6100   29.4880   47.7920 C   0  0  0  0  0  0  0  0  0  0  0  0
   60.6280   30.3050   47.3400 C   0  0  0  0  0  0  0  0  0  0  0  0
   59.1710   33.2280   47.5350 C   0  0  0  0  0  0  0  0  0  0  0  0
   57.7870   33.3440   46.9240 C   0  0  0  0  0  0  0  0  0  0  0  0
   57.0180   30.9750   45.3140 N   0  0  0  0  0  0  0  0  0  0  0  0
   54.3892   24.6389   46.5241 H   0  0  0  0  0  0  0  0  0  0  0  0
   53.7211   25.3653   45.0233 H   0  0  0  0  0  0  0  0  0  0  0  0
   55.3758   24.6663   45.0233 H   0  0  0  0  0  0  0  0  0  0  0  0
   57.0691   24.7094   46.7039 H   0  0  0  0  0  0  0  0  0  0  0  0
   59.5364   25.1085   46.4892 H   0  0  0  0  0  0  0  0  0  0  0  0
   60.3440   27.2904   45.5479 H   0  0  0  0  0  0  0  0  0  0  0  0
   58.7138   29.0065   44.8488 H   0  0  0  0  0  0  0  0  0  0  0  0
   56.2712   29.2941   42.4786 H   0  0  0  0  0  0  0  0  0  0  0  0
   57.1759   31.3900   41.4622 H   0  0  0  0  0  0  0  0  0  0  0  0
   57.9280   33.1110   42.9470 H   0  0  0  0  0  0  0  0  0  0  0  0
   58.9752   34.0466   43.8068 H   0  0  0  0  0  0  0  0  0  0  0  0
   58.1411   35.2322   44.8266 H   0  0  0  0  0  0  0  0  0  0  0  0
   60.8657   34.5623   44.9808 H   0  0  0  0  0  0  0  0  0  0  0  0
   59.9199   35.3833   46.2782 H   0  0  0  0  0  0  0  0  0  0  0  0
   62.8518   31.4063   46.6808 H   0  0  0  0  0  0  0  0  0  0  0  0
   63.3429   31.9774   48.2868 H   0  0  0  0  0  0  0  0  0  0  0  0
   61.8558   31.5480   50.2734 H   0  0  0  0  0  0  0  0  0  0  0  0
   60.0078   30.0673   51.1233 H   0  0  0  0  0  0  0  0  0  0  0  0
   58.6101   28.7825   49.5394 H   0  0  0  0  0  0  0  0  0  0  0  0
   58.9838   28.9130   47.0940 H   0  0  0  0  0  0  0  0  0  0  0  0
   60.8184   30.3836   46.2595 H   0  0  0  0  0  0  0  0  0  0  0  0
   59.2578   32.2533   48.0374 H   0  0  0  0  0  0  0  0  0  0  0  0
   59.2995   34.0541   48.2498 H   0  0  0  0  0  0  0  0  0  0  0  0
   57.1324   32.5442   47.3006 H   0  0  0  0  0  0  0  0  0  0  0  0
   57.3065   34.2995   47.1811 H   0  0  0  0  0  0  0  0  0  0  0  0
  1  2  1  0
  2  3  1  0
  3  4  2  0
  4  5  1  0
  5  6  2  0
  6  7  1  0
  7  8  2  0
  8  9  1  0
  9 10  2  0
 10 11  1  0
 11 12  2  0
 12 13  1  0
 13 14  1  0
 14 15  1  0
 15 16  1  0
 16 17  1  0
 17 18  1  0
 18 19  1  0
 19 20  2  0
 19 21  2  0
 19 22  1  0
 22 23  1  0
 23 24  2  0
 24 25  1  0
 25 26  2  0
 26 27  1  0
 27 28  2  0
 18 29  1  0
 29 30  1  0
 14 31  2  0
  8  3  1  0
 31 10  1  0
 30 15  1  0
 28 23  1  0
  1 32  1  0
  1 33  1  0
  1 34  1  0
  4 35  1  0
  5 36  1  0
  6 37  1  0
  7 38  1  0
 11 39  1  0
 12 40  1  0
 13 41  1  0
 16 42  1  0
 16 43  1  0
 17 44  1  0
 17 45  1  0
 22 46  1  0
 22 47  1  0
 24 48  1  0
 25 49  1  0
 26 50  1  0
 27 51  1  0
 28 52  1  0
 29 53  1  0
 29 54  1  0
 30 55  1  0
 30 56  1  0
M  END
>  <smiles>  (40) 
COc1ccccc1N=c1cc[nH]c(N2CCN(S(=O)(=O)Cc3ccccc3)CC2)n1

>  <score_type>  (40) 
oracle

>  <origin>  (40) 
adg

>  <m_score__min__energy>  (40) 
-10.34

>  <m_primary>  (40) 
energy

$$$$
40:0
     RDKit          3D

 40 42  0  0  1  0  0  0  0  0999 V2000
   60.2010   27.4730   48.3330 C   0  0  0  0  0  0  0  0  0  0  0  0
   60.5930   27.1160   46.9290 C   0  0  0  0  0  0  0  0  0  0  0  0
   59.5170   26.5490   46.2620 O   0  0  0  0  0  0  0  0  0  0  0  0
   58.3300   27.1410   45.9210 C   0  0  0  0  0  0  0  0  0  0  0  0
   58.1830   28.4260   45.3820 C   0  0  0  0  0  0  0  0  0  0  0  0
   56.8360   28.6620   45.1650 C   0  0  0  0  0  0  0  0  0  0  0  0
   56.2820   29.6770   44.6020 N   0  0  0  0  0  0  0  0  0  0  0  0
   56.9670   30.9100   44.4120 C   0  0  0  0  0  0  0  0  0  0  0  0
   57.3620   31.1620   43.0930 C   0  0  0  0  0  0  0  0  0  0  0  0
   58.0150   32.3400   42.7380 C   0  0  0  0  0  0  0  0  0  0  0  0
   58.2360   33.2060   43.7460 N   0  0  0  0  0  0  0  0  0  0  0  0
   57.8540   32.9600   45.0130 C   0  0  0  0  0  0  0  0  0  0  0  0
   58.1020   33.8940   45.8800 N   0  0  0  0  0  0  0  0  0  0  0  0
   59.3080   34.6840   45.8000 C   0  0  0  0  0  0  0  0  0  0  0  0
   59.4780   35.5800   44.9610 O   0  0  0  0  0  0  0  0  0  0  0  0
   60.3200   34.3220   46.8160 C   0  0  0  0  0  0  0  0  0  0  0  0
   60.0550   34.5030   48.1790 C   0  0  0  0  0  0  0  0  0  0  0  0
   61.0400   34.1450   49.0790 C   0  0  0  0  0  0  0  0  0  0  0  0
   62.2590   33.6230   48.7060 C   0  0  0  0  0  0  0  0  0  0  0  0
   62.4920   33.4550   47.3630 C   0  0  0  0  0  0  0  0  0  0  0  0
   61.5280   33.8020   46.4170 C   0  0  0  0  0  0  0  0  0  0  0  0
   57.2130   31.8090   45.3740 N   0  0  0  0  0  0  0  0  0  0  0  0
   56.1960   27.5680   45.5630 N   0  0  0  0  0  0  0  0  0  0  0  0
   57.0880   26.6640   46.0120 N   0  0  0  0  0  0  0  0  0  0  0  0
   60.8225   26.9069   49.0424 H   0  0  0  0  0  0  0  0  0  0  0  0
   60.3513   28.5509   48.4928 H   0  0  0  0  0  0  0  0  0  0  0  0
   59.1418   27.2228   48.4928 H   0  0  0  0  0  0  0  0  0  0  0  0
   60.9117   28.0252   46.3981 H   0  0  0  0  0  0  0  0  0  0  0  0
   61.4195   26.3907   46.9599 H   0  0  0  0  0  0  0  0  0  0  0  0
   59.0008   29.1296   45.1672 H   0  0  0  0  0  0  0  0  0  0  0  0
   57.1514   30.4109   42.3174 H   0  0  0  0  0  0  0  0  0  0  0  0
   58.3289   32.5490   41.7047 H   0  0  0  0  0  0  0  0  0  0  0  0
   58.7220   34.0890   43.5280 H   0  0  0  0  0  0  0  0  0  0  0  0
   59.0949   34.9163   48.5215 H   0  0  0  0  0  0  0  0  0  0  0  0
   60.8401   34.2843   50.1517 H   0  0  0  0  0  0  0  0  0  0  0  0
   63.0170   33.3511   49.4553 H   0  0  0  0  0  0  0  0  0  0  0  0
   63.4542   33.0402   47.0283 H   0  0  0  0  0  0  0  0  0  0  0  0
   61.7354   33.6588   45.3463 H   0  0  0  0  0  0  0  0  0  0  0  0
   55.1460   27.4650   45.5250 H   0  0  0  0  0  0  0  0  0  0  0  0
   56.7850   25.7330   46.3750 H   0  0  0  0  0  0  0  0  0  0  0  0
  1  2  1  0
  2  3  1  0
  3  4  1  0
  4  5  2  0
  5  6  1  0
  6  7  2  0
  7  8  1  0
  8  9  1  0
  9 10  2  0
 10 11  1  0
 11 12  1  0
 12 13  2  0
 13 14  1  0
 14 15  2  0
 14 16  1  0
 16 17  2  0
 17 18  1  0
 18 19  2  0
 19 20  1  0
 20 21  2  0
 12 22  1  0
  6 23  1  0
 23 24  1  0
 24  4  1  0
 22  8  2  0
 21 16  1  0
  1 25  1  0
  1 26  1  0
  1 27  1  0
  2 28  1  0
  2 29  1  0
  5 30  1  0
  9 31  1  0
 10 32  1  0
 11 33  1  0
 17 34  1  0
 18 35  1  0
 19 36  1  0
 20 37  1  0
 21 38  1  0
 23 39  1  0
 24 40  1  0
M  END
>  <smiles>  (41) 
CCOc1cc(=Nc2cc[nH]c(=NC(=O)c3ccccc3)n2)[nH][nH]1

>  <score_type>  (41) 
oracle

>  <origin>  (41) 
adg

>  <m_score__min__energy>  (41) 
-8.5399999999999991

>  <m_primary>  (41) 
energy

$$$$
41:0
     RDKit          3D

 55 58  0  0  0  0  0  0  0  0999 V2000
   56.5490   22.7660   45.3330 C   0  0  0  0  0  0  0  0  0  0  0  0
   57.1410   24.1220   45.0480 C   0  0  0  0  0  0  0  0  0  0  0  0
   57.7320   24.8750   46.0730 C   0  0  0  0  0  0  0  0  0  0  0  0
   57.7710   24.3600   47.3680 O   0  0  0  0  0  0  0  0  0  0  0  0
   58.2830   26.1010   45.8060 N   0  0  0  0  0  0  0  0  0  0  0  0
   58.8990   26.8430   46.8750 C   0  0  0  0  0  0  0  0  0  0  0  0
   60.1390   26.4350   47.3970 C   0  0  0  0  0  0  0  0  0  0  0  0
   60.7360   27.1550   48.4350 C   0  0  0  0  0  0  0  0  0  0  0  0
   60.1050   28.2900   48.9530 C   0  0  0  0  0  0  0  0  0  0  0  0
   58.8780   28.7080   48.4310 C   0  0  0  0  0  0  0  0  0  0  0  0
   58.2770   27.9890   47.3930 C   0  0  0  0  0  0  0  0  0  0  0  0
   58.2410   26.6060   44.5300 C   0  0  0  0  0  0  0  0  0  0  0  0
   58.9060   28.2340   44.1190 S   0  0  0  0  0  0  0  0  0  0  0  0
   57.3140   28.9560   43.5930 C   0  0  0  0  0  0  0  0  0  0  0  0
   56.6810   29.7520   44.7010 C   0  0  0  0  0  0  0  0  0  0  0  0
   55.4380   29.6540   44.8730 O   0  0  0  0  0  0  0  0  0  0  0  0
   57.4380   30.5340   45.6380 N   0  0  0  0  0  0  0  0  0  0  0  0
   57.8570   31.9020   45.5160 C   0  0  0  0  0  0  0  0  0  0  0  0
   56.9760   32.8860   45.0330 C   0  0  0  0  0  0  0  0  0  0  0  0
   57.4020   34.2080   44.8890 C   0  0  0  0  0  0  0  0  0  0  0  0
   58.6970   34.5680   45.2590 C   0  0  0  0  0  0  0  0  0  0  0  0
   59.5540   33.6190   45.8160 C   0  0  0  0  0  0  0  0  0  0  0  0
   59.1330   32.2880   45.9870 C   0  0  0  0  0  0  0  0  0  0  0  0
   60.0530   31.3060   46.6060 C   0  0  0  0  0  0  0  0  0  0  0  0
   60.2890   30.2190   46.0120 O   0  0  0  0  0  0  0  0  0  0  0  0
   60.6880   31.5690   47.8700 N   0  0  0  0  0  0  0  0  0  0  0  0
   61.9020   30.8910   48.2920 C   0  0  0  0  0  0  0  0  0  0  0  0
   62.0230   31.1490   49.7890 C   0  0  0  0  0  0  0  0  0  0  0  0
   61.0520   32.2820   50.1030 C   0  0  0  0  0  0  0  0  0  0  0  0
   60.0630   32.3230   48.9460 C   0  0  0  0  0  0  0  0  0  0  0  0
   57.7100   25.8670   43.5250 N   0  0  0  0  0  0  0  0  0  0  0  0
   57.1810   24.6390   43.7470 C   0  0  0  0  0  0  0  0  0  0  0  0
   56.7280   23.9780   42.7750 O   0  0  0  0  0  0  0  0  0  0  0  0
   56.4834   22.6158   46.4207 H   0  0  0  0  0  0  0  0  0  0  0  0
   55.5426   22.7055   44.8932 H   0  0  0  0  0  0  0  0  0  0  0  0
   57.1888   21.9868   44.8932 H   0  0  0  0  0  0  0  0  0  0  0  0
   60.6408   25.5461   46.9869 H   0  0  0  0  0  0  0  0  0  0  0  0
   61.7032   26.8286   48.8449 H   0  0  0  0  0  0  0  0  0  0  0  0
   60.5747   28.8544   49.7720 H   0  0  0  0  0  0  0  0  0  0  0  0
   58.3845   29.6034   48.8369 H   0  0  0  0  0  0  0  0  0  0  0  0
   57.3133   28.3231   46.9812 H   0  0  0  0  0  0  0  0  0  0  0  0
   57.4879   29.6172   42.7313 H   0  0  0  0  0  0  0  0  0  0  0  0
   56.6333   28.1351   43.3233 H   0  0  0  0  0  0  0  0  0  0  0  0
   55.9443   32.6124   44.7668 H   0  0  0  0  0  0  0  0  0  0  0  0
   56.7154   34.9657   44.4834 H   0  0  0  0  0  0  0  0  0  0  0  0
   59.0433   35.6016   45.1115 H   0  0  0  0  0  0  0  0  0  0  0  0
   60.5679   33.9141   46.1242 H   0  0  0  0  0  0  0  0  0  0  0  0
   61.8263   29.8116   48.0943 H   0  0  0  0  0  0  0  0  0  0  0  0
   62.7824   31.2597   47.7453 H   0  0  0  0  0  0  0  0  0  0  0  0
   61.7516   30.2458   50.3552 H   0  0  0  0  0  0  0  0  0  0  0  0
   63.0533   31.4137   50.0691 H   0  0  0  0  0  0  0  0  0  0  0  0
   60.5258   32.0829   51.0482 H   0  0  0  0  0  0  0  0  0  0  0  0
   61.5774   33.2417   50.2169 H   0  0  0  0  0  0  0  0  0  0  0  0
   59.1104   31.8570   49.2384 H   0  0  0  0  0  0  0  0  0  0  0  0
   59.8359   33.3552   48.6411 H   0  0  0  0  0  0  0  0  0  0  0  0
  1  2  1  0
  2  3  2  0
  3  4  1  0
  3  5  1  0
  5  6  1  0
  6  7  2  0
  7  8  1  0
  8  9  2  0
  9 10  1  0
 10 11  2  0
  5 12  1  0
 12 13  1  0
 13 14  1  0
 14 15  1  0
 15 16  2  0
 15 17  1  0
 17 18  1  0
 18 19  2  0
 19 20  1  0
 20 21  2  0
 21 22  1  0
 22 23  2  0
 23 24  1  0
 24 25  2  0
 24 26  1  0
 26 27  1  0
 27 28  1  0
 28 29  1  0
 29 30  1  0
 12 31  2  0
 31 32  1  0
 32 33  2  0
 32  2  1  0
 11  6  1  0
 23 18  1  0
 30 26  1  0
  1 34  1  0
  1 35  1  0
  1 36  1  0
  7 37  1  0
  8 38  1  0
  9 39  1  0
 10 40  1  0
 11 41  1  0
 14 42  1  0
 14 43  1  0
 19 44  1  0
 20 45  1  0
 21 46  1  0
 22 47  1  0
 27 48  1  0
 27 49  1  0
 28 50  1  0
 28 51  1  0
 29 52  1  0
 29 53  1  0
 30 54  1  0
 30 55  1  0
M  CHG  2   4  -1  17  -1
M  END
>  <UniqueID>  (42) 
34

>  <SMILES>  (42) 
Cc1c([O-])n(-c2ccccc2)c(SCC(=O)[N-]c2ccccc2C(=O)N2CCCC2)nc1=O

>  <Energy>  (42) 
71.98506005289173

>  <Genealogy>  (42) 
Cc1c([O-])n(-c2ccccc2)c(SCC(=O)[N-]c2ccccc2C(=O)N2CCCC2)nc1=O (protonated)
Cc1c([O-])n(-c2ccccc2)c(SCC(=O)[N-]c2ccccc2C(=O)N2CCCC2)nc1=O (3D coordinates assigned)
Cc1c([O-])n(-c2ccccc2)c(SCC(=O)[N-]c2ccccc2C(=O)N2CCCC2)nc1=O (nonaromatic ring conformer: 71.98506005289173 kcal/mol)

>  <smiles>  (42) 
Cc1c(O)n(-c2ccccc2)c(SCC(=O)Nc2ccccc2C(=O)N2CCCC2)nc1=O

>  <score_type>  (42) 
oracle

>  <origin>  (42) 
adg

>  <m_score__min__energy>  (42) 
-13.15

>  <m_primary>  (42) 
energy

$$$$
42:0
     RDKit          3D

 48 50  0  0  0  0  0  0  0  0999 V2000
   63.1090   32.8970   48.7150 C   0  0  0  0  0  0  0  0  0  0  0  0
   62.2100   33.3940   47.6690 N   0  0  0  0  0  0  0  0  0  0  0  0
   62.7540   33.8340   46.3800 C   0  0  0  0  0  0  0  0  0  0  0  0
   60.8070   33.5500   47.9650 C   0  0  0  0  0  0  0  0  0  0  0  0
   60.4170   33.5550   49.1660 O   0  0  0  0  0  0  0  0  0  0  0  0
   59.8000   33.7050   46.8940 C   0  0  0  0  0  0  0  0  0  0  0  0
   59.8810   34.8100   46.0310 C   0  0  0  0  0  0  0  0  0  0  0  0
   58.9660   34.9610   44.9870 C   0  0  0  0  0  0  0  0  0  0  0  0
   57.9630   34.0100   44.7920 C   0  0  0  0  0  0  0  0  0  0  0  0
   57.8780   32.9020   45.6360 C   0  0  0  0  0  0  0  0  0  0  0  0
   58.8020   32.7270   46.6820 C   0  0  0  0  0  0  0  0  0  0  0  0
   58.6720   31.6100   47.5800 N   0  0  0  0  0  0  0  0  0  0  0  0
   58.5230   30.2440   47.1530 C   0  0  0  0  0  0  0  0  0  0  0  0
   59.1540   29.2230   47.8760 C   0  0  0  0  0  0  0  0  0  0  0  0
   59.0410   27.8910   47.4670 C   0  0  0  0  0  0  0  0  0  0  0  0
   58.2930   27.5570   46.3280 C   0  0  0  0  0  0  0  0  0  0  0  0
   58.2090   26.1810   45.9150 N   0  0  0  0  0  0  0  0  0  0  0  0
   56.9680   25.4840   45.7140 C   0  0  0  0  0  0  0  0  0  0  0  0
   55.9170   25.9040   46.2720 O   0  0  0  0  0  0  0  0  0  0  0  0
   56.9150   24.2460   44.8980 C   0  0  0  0  0  0  0  0  0  0  0  0
   55.9470   24.1050   43.8860 C   0  0  0  0  0  0  0  0  0  0  0  0
   55.8960   22.9430   43.1110 C   0  0  0  0  0  0  0  0  0  0  0  0
   56.8110   21.9120   43.3300 C   0  0  0  0  0  0  0  0  0  0  0  0
   57.7830   22.0430   44.3250 C   0  0  0  0  0  0  0  0  0  0  0  0
   57.8400   23.2030   45.1040 C   0  0  0  0  0  0  0  0  0  0  0  0
   57.6940   28.5840   45.5790 C   0  0  0  0  0  0  0  0  0  0  0  0
   57.8070   29.9160   45.9880 C   0  0  0  0  0  0  0  0  0  0  0  0
   62.6863   33.1307   49.7033 H   0  0  0  0  0  0  0  0  0  0  0  0
   63.2231   31.8077   48.6133 H   0  0  0  0  0  0  0  0  0  0  0  0
   64.0922   33.3797   48.6133 H   0  0  0  0  0  0  0  0  0  0  0  0
   63.5987   34.5172   46.5525 H   0  0  0  0  0  0  0  0  0  0  0  0
   63.1005   32.9591   45.8104 H   0  0  0  0  0  0  0  0  0  0  0  0
   61.9709   34.3557   45.8104 H   0  0  0  0  0  0  0  0  0  0  0  0
   60.6705   35.5616   46.1784 H   0  0  0  0  0  0  0  0  0  0  0  0
   59.0357   35.8308   44.3172 H   0  0  0  0  0  0  0  0  0  0  0  0
   57.2394   34.1340   43.9728 H   0  0  0  0  0  0  0  0  0  0  0  0
   57.0816   32.1591   45.4820 H   0  0  0  0  0  0  0  0  0  0  0  0
   58.6640   31.8050   48.6080 H   0  0  0  0  0  0  0  0  0  0  0  0
   59.7424   29.4713   48.7716 H   0  0  0  0  0  0  0  0  0  0  0  0
   59.5423   27.0988   48.0425 H   0  0  0  0  0  0  0  0  0  0  0  0
   59.0950   25.6290   45.8730 H   0  0  0  0  0  0  0  0  0  0  0  0
   55.2255   24.9151   43.7038 H   0  0  0  0  0  0  0  0  0  0  0  0
   55.1323   22.8407   42.3259 H   0  0  0  0  0  0  0  0  0  0  0  0
   56.7669   20.9976   42.7201 H   0  0  0  0  0  0  0  0  0  0  0  0
   58.5055   21.2314   44.4961 H   0  0  0  0  0  0  0  0  0  0  0  0
   58.6113   23.3019   45.8820 H   0  0  0  0  0  0  0  0  0  0  0  0
   57.1328   28.3384   44.6654 H   0  0  0  0  0  0  0  0  0  0  0  0
   57.3331   30.7121   45.3951 H   0  0  0  0  0  0  0  0  0  0  0  0
  1  2  1  0
  2  3  1  0
  2  4  1  0
  4  5  2  0
  4  6  1  0
  6  7  2  0
  7  8  1  0
  8  9  2  0
  9 10  1  0
 10 11  2  0
 11 12  1  0
 12 13  1  0
 13 14  2  0
 14 15  1  0
 15 16  2  0
 16 17  1  0
 17 18  1  0
 18 19  2  0
 18 20  1  0
 20 21  2  0
 21 22  1  0
 22 23  2  0
 23 24  1  0
 24 25  2  0
 16 26  1  0
 26 27  2  0
 11  6  1  0
 27 13  1  0
 25 20  1  0
  1 28  1  0
  1 29  1  0
  1 30  1  0
  3 31  1  0
  3 32  1  0
  3 33  1  0
  7 34  1  0
  8 35  1  0
  9 36  1  0
 10 37  1  0
 12 38  1  0
 14 39  1  0
 15 40  1  0
 17 41  1  0
 21 42  1  0
 22 43  1  0
 23 44  1  0
 24 45  1  0
 25 46  1  0
 26 47  1  0
 27 48  1  0
M  END
>  <UniqueID>  (43) 
35

>  <SMILES>  (43) 
CN(C)C(=O)c1ccccc1Nc1ccc(NC(=O)c2ccccc2)cc1

>  <Energy>  (43) 
65.66507959370226

>  <Genealogy>  (43) 
CN(C)C(=O)c1ccccc1Nc1ccc(NC(=O)c2ccccc2)cc1 (3D coordinates assigned)
CN(C)C(=O)c1ccccc1Nc1ccc(NC(=O)c2ccccc2)cc1 (optimized conformer: 65.66507959370226 kcal/mol)

>  <smiles>  (43) 
CN(C)C(=O)c1ccccc1Nc1ccc(NC(=O)c2ccccc2)cc1

>  <score_type>  (43) 
oracle

>  <origin>  (43) 
adg

>  <m_score__min__energy>  (43) 
-8.3499999999999996

>  <m_primary>  (43) 
energy

$$$$
43:0
     RDKit          3D

 41 42  0  0  0  0  0  0  0  0999 V2000
   59.3407   28.8319   43.8437 H   0  0  0  0  0  0  0  0  0  0  0  0
   58.3200   28.7630   44.2480 C   0  0  0  0  0  0  0  0  0  0  0  0
   57.8720   27.6740   44.9270 N   0  0  0  0  0  0  0  0  0  0  0  0
   56.5910   27.8350   45.3310 C   0  0  0  0  0  0  0  0  0  0  0  0
   55.9170   26.9480   46.0040 N   0  0  0  0  0  0  0  0  0  0  0  0
   55.8290   25.5460   45.7090 C   0  0  0  0  0  0  0  0  0  0  0  0
   54.7820   24.8970   45.9830 O   0  0  0  0  0  0  0  0  0  0  0  0
   56.9550   24.8950   45.0980 N   0  0  0  0  0  0  0  0  0  0  0  0
   57.7840   25.5010   44.9030 H   0  0  0  0  0  0  0  0  0  0  0  0
   57.0190   23.4660   44.7330 C   0  0  0  0  0  0  0  0  0  0  0  0
   56.3310   23.2300   43.3740 C   0  0  0  0  0  0  0  0  0  0  0  0
   55.3024   22.8772   43.5401 H   0  0  0  0  0  0  0  0  0  0  0  0
   56.3084   24.1718   42.8060 H   0  0  0  0  0  0  0  0  0  0  0  0
   56.8912   22.4726   42.8060 H   0  0  0  0  0  0  0  0  0  0  0  0
   56.3560   22.6060   45.8260 C   0  0  0  0  0  0  0  0  0  0  0  0
   56.6474   22.9840   46.8171 H   0  0  0  0  0  0  0  0  0  0  0  0
   55.2623   22.6584   45.7206 H   0  0  0  0  0  0  0  0  0  0  0  0
   56.6849   21.5616   45.7206 H   0  0  0  0  0  0  0  0  0  0  0  0
   58.4990   23.0460   44.6110 C   0  0  0  0  0  0  0  0  0  0  0  0
   58.9295   22.9238   45.6159 H   0  0  0  0  0  0  0  0  0  0  0  0
   58.5660   22.0934   44.0651 H   0  0  0  0  0  0  0  0  0  0  0  0
   59.0564   23.8214   44.0651 H   0  0  0  0  0  0  0  0  0  0  0  0
   55.9600   29.3230   44.8730 S   0  0  0  0  0  0  0  0  0  0  0  0
   57.3860   29.7830   44.1050 C   0  0  0  0  0  0  0  0  0  0  0  0
   57.6350   31.1150   43.4720 C   0  0  0  0  0  0  0  0  0  0  0  0
   56.7035   31.4806   43.0152 H   0  0  0  0  0  0  0  0  0  0  0  0
   58.4126   31.0078   42.7014 H   0  0  0  0  0  0  0  0  0  0  0  0
   58.1010   32.1000   44.5080 C   0  0  0  0  0  0  0  0  0  0  0  0
   58.1150   31.7450   45.8660 C   0  0  0  0  0  0  0  0  0  0  0  0
   57.8111   30.7324   46.1696 H   0  0  0  0  0  0  0  0  0  0  0  0
   58.5130   32.6710   46.8350 C   0  0  0  0  0  0  0  0  0  0  0  0
   58.5339   32.3795   47.8955 H   0  0  0  0  0  0  0  0  0  0  0  0
   58.8860   33.9710   46.4600 C   0  0  0  0  0  0  0  0  0  0  0  0
   59.3310   34.9620   47.4960 C   0  0  0  0  0  0  0  0  0  0  0  0
   59.1465   34.5511   48.4996 H   0  0  0  0  0  0  0  0  0  0  0  0
   60.4056   35.1626   47.3738 H   0  0  0  0  0  0  0  0  0  0  0  0
   58.7670   35.8984   47.3738 H   0  0  0  0  0  0  0  0  0  0  0  0
   58.8690   34.3290   45.1020 C   0  0  0  0  0  0  0  0  0  0  0  0
   59.2350   35.5770   44.7150 F   0  0  0  0  0  0  0  0  0  0  0  0
   58.4710   33.4000   44.1340 C   0  0  0  0  0  0  0  0  0  0  0  0
   58.4482   33.6912   43.0735 H   0  0  0  0  0  0  0  0  0  0  0  0
  1  2  1  0
  2  3  1  0
  3  4  1  0
  4  5  2  0
  5  6  1  0
  6  7  2  0
  6  8  1  0
  8  9  1  0
  8 10  1  0
 10 11  1  0
 11 12  1  0
 11 13  1  0
 11 14  1  0
 10 15  1  0
 15 16  1  0
 15 17  1  0
 15 18  1  0
 10 19  1  0
 19 20  1  0
 19 21  1  0
 19 22  1  0
  4 23  1  0
 23 24  1  0
 24 25  1  0
 25 26  1  0
 25 27  1  0
 25 28  1  0
 28 29  2  0
 29 30  1  0
 29 31  1  0
 31 32  1  0
 31 33  2  0
 33 34  1  0
 34 35  1  0
 34 36  1  0
 34 37  1  0
 33 38  1  0
 38 39  1  0
 38 40  2  0
 40 41  1  0
 24  2  2  0
 40 28  1  0
M  CHG  1   3  -1
M  END
>  <UniqueID>  (44) 
36

>  <SMILES>  (44) 
Cc1ccc(Cc2c[n-]/c(=N\C(=O)NC(C)(C)C)s2)cc1F

>  <Energy>  (44) 
65.53759304648781

>  <Genealogy>  (44) 
Cc1ccc(Cc2c[n-]c(=NC(=O)NC(C)(C)C)s2)cc1F (protonated)
Cc1ccc(Cc2c[n-]/c(=N\C(=O)NC(C)(C)C)s2)cc1F (cis-trans isomerization)
Cc1ccc(Cc2c[n-]/c(=N\C(=O)NC(C)(C)C)s2)cc1F (3D coordinates assigned)
Cc1ccc(Cc2c[n-]/c(=N\C(=O)NC(C)(C)C)s2)cc1F (optimized conformer: 65.53759304648781 kcal/mol)

>  <smiles>  (44) 
Cc1ccc(Cc2c[nH]c(=NC(=O)NC(C)(C)C)s2)cc1F

>  <score_type>  (44) 
oracle

>  <origin>  (44) 
adg

>  <m_score__min__energy>  (44) 
-9.5099999999999998

>  <m_primary>  (44) 
energy

$$$$
44:0
     RDKit          3D

 41 42  0  0  0  0  0  0  0  0999 V2000
   54.3340   28.9650   44.5560 H   0  0  0  0  0  0  0  0  0  0  0  0
   55.1810   29.4870   44.7470 O   0  0  0  0  0  0  0  0  0  0  0  0
   56.3830   28.8550   45.0720 C   0  0  0  0  0  0  0  0  0  0  0  0
   57.5890   29.5090   44.8050 C   0  0  0  0  0  0  0  0  0  0  0  0
   57.5802   30.5075   44.3437 H   0  0  0  0  0  0  0  0  0  0  0  0
   58.8070   28.8990   45.1220 C   0  0  0  0  0  0  0  0  0  0  0  0
   59.7499   29.4287   44.9213 H   0  0  0  0  0  0  0  0  0  0  0  0
   58.8380   27.6170   45.6940 C   0  0  0  0  0  0  0  0  0  0  0  0
   60.1510   27.0170   46.0280 C   0  0  0  0  0  0  0  0  0  0  0  0
   60.9951   27.1976   45.3462 H   0  0  0  0  0  0  0  0  0  0  0  0
   60.3640   26.2660   47.1170 C   0  0  0  0  0  0  0  0  0  0  0  0
   60.6945   25.2248   46.9880 H   0  0  0  0  0  0  0  0  0  0  0  0
   60.1700   26.7890   48.4860 C   0  0  0  0  0  0  0  0  0  0  0  0
   60.6060   26.1430   49.4770 O   0  0  0  0  0  0  0  0  0  0  0  0
   59.4310   27.9950   48.7260 N   0  0  0  0  0  0  0  0  0  0  0  0
   59.8910   29.3360   48.4980 C   0  0  0  0  0  0  0  0  0  0  0  0
   61.2250   29.6510   48.7820 C   0  0  0  0  0  0  0  0  0  0  0  0
   61.8963   28.8769   49.1823 H   0  0  0  0  0  0  0  0  0  0  0  0
   61.7090   30.9430   48.5600 C   0  0  0  0  0  0  0  0  0  0  0  0
   62.7559   31.1838   48.7964 H   0  0  0  0  0  0  0  0  0  0  0  0
   60.8670   31.9320   48.0380 C   0  0  0  0  0  0  0  0  0  0  0  0
   61.4930   33.5570   47.7800 S   0  0  0  0  0  0  0  0  0  0  0  0
   62.9940   33.4870   47.7280 O   0  0  0  0  0  0  0  0  0  0  0  0
   61.0990   34.4760   48.9040 O   0  0  0  0  0  0  0  0  0  0  0  0
   60.9060   34.1910   46.2750 N   0  0  0  0  0  0  0  0  0  0  0  0
   61.3490   33.8230   45.4040 H   0  0  0  0  0  0  0  0  0  0  0  0
   59.8160   35.1220   46.1460 C   0  0  0  0  0  0  0  0  0  0  0  0
   59.3370   35.4480   44.8390 N   0  0  0  0  0  0  0  0  0  0  0  0
   59.7680   35.0110   43.9940 H   0  0  0  0  0  0  0  0  0  0  0  0
   58.5410   36.1090   44.7080 H   0  0  0  0  0  0  0  0  0  0  0  0
   59.2690   35.6780   47.1890 N   0  0  0  0  0  0  0  0  0  0  0  0
   58.9210   36.6620   47.1460 H   0  0  0  0  0  0  0  0  0  0  0  0
   59.1740   35.1850   48.1000 H   0  0  0  0  0  0  0  0  0  0  0  0
   59.5370   31.6140   47.7250 C   0  0  0  0  0  0  0  0  0  0  0  0
   58.8718   32.3852   47.3093 H   0  0  0  0  0  0  0  0  0  0  0  0
   59.0550   30.3200   47.9400 C   0  0  0  0  0  0  0  0  0  0  0  0
   58.0179   30.0700   47.6718 H   0  0  0  0  0  0  0  0  0  0  0  0
   57.6180   26.9680   45.9740 C   0  0  0  0  0  0  0  0  0  0  0  0
   57.6241   25.9717   46.4403 H   0  0  0  0  0  0  0  0  0  0  0  0
   56.3990   27.5820   45.6630 C   0  0  0  0  0  0  0  0  0  0  0  0
   55.2090   26.9210   45.9450 O   0  0  0  0  0  0  0  0  0  0  0  0
  1  2  1  0
  2  3  1  0
  3  4  2  0
  4  5  1  0
  4  6  1  0
  6  7  1  0
  6  8  2  0
  8  9  1  0
  9 10  1  0
  9 11  2  0
 11 12  1  0
 11 13  1  0
 13 14  2  0
 13 15  1  0
 15 16  1  0
 16 17  2  0
 17 18  1  0
 17 19  1  0
 19 20  1  0
 19 21  2  0
 21 22  1  0
 22 23  2  0
 22 24  2  0
 22 25  1  0
 25 26  1  0
 25 27  1  0
 27 28  1  0
 28 29  1  0
 28 30  1  0
 27 31  2  0
 31 32  1  0
 31 33  1  0
 21 34  1  0
 34 35  1  0
 34 36  2  0
 36 37  1  0
  8 38  1  0
 38 39  1  0
 38 40  2  0
 40 41  1  0
 40  3  1  0
 36 16  1  0
M  CHG  3  15  -1  31   1  41  -1
M  END
>  <UniqueID>  (45) 
37

>  <SMILES>  (45) 
NC(=[NH2+])NS(=O)(=O)c1ccc([N-]C(=O)/C=C/c2ccc(O)c([O-])c2)cc1

>  <Energy>  (45) 
48.44632276473346

>  <Genealogy>  (45) 
NC(=[NH2+])NS(=O)(=O)c1ccc([N-]C(=O)C=Cc2ccc(O)c([O-])c2)cc1 (protonated)
NC(=[NH2+])NS(=O)(=O)c1ccc([N-]C(=O)/C=C/c2ccc(O)c([O-])c2)cc1 (cis-trans isomerization)
NC(=[NH2+])NS(=O)(=O)c1ccc([N-]C(=O)/C=C/c2ccc(O)c([O-])c2)cc1 (3D coordinates assigned)
NC(=[NH2+])NS(=O)(=O)c1ccc([N-]C(=O)/C=C/c2ccc(O)c([O-])c2)cc1 (optimized conformer: 48.44632276473346 kcal/mol)

>  <smiles>  (45) 
N=C(N)NS(=O)(=O)c1ccc(NC(=O)C=Cc2ccc(O)c(O)c2)cc1

>  <score_type>  (45) 
oracle

>  <origin>  (45) 
adg

>  <m_score__min__energy>  (45) 
-11.779999999999999

>  <m_primary>  (45) 
energy

$$$$
45:0
     RDKit          3D

 36 38  0  0  0  0  0  0  0  0999 V2000
   60.4750   33.7480   49.9150 C   0  0  0  0  0  0  0  0  0  0  0  0
   61.6000   33.6530   48.9240 C   0  0  0  0  0  0  0  0  0  0  0  0
   62.8620   33.2250   49.3730 C   0  0  0  0  0  0  0  0  0  0  0  0
   63.9340   33.1170   48.4840 C   0  0  0  0  0  0  0  0  0  0  0  0
   63.7570   33.4270   47.1360 C   0  0  0  0  0  0  0  0  0  0  0  0
   62.5050   33.8340   46.6710 C   0  0  0  0  0  0  0  0  0  0  0  0
   61.4140   33.9270   47.5480 C   0  0  0  0  0  0  0  0  0  0  0  0
   59.8240   34.4430   46.8660 S   0  0  0  0  0  0  0  0  0  0  0  0
   59.3210   32.7780   46.3980 C   0  0  0  0  0  0  0  0  0  0  0  0
   60.1780   31.7070   46.6460 C   0  0  0  0  0  0  0  0  0  0  0  0
   59.8030   30.4450   46.3140 N   0  0  0  0  0  0  0  0  0  0  0  0
   58.6230   30.1880   45.7320 N   0  0  0  0  0  0  0  0  0  0  0  0
   58.2840   28.8210   45.4180 C   0  0  0  0  0  0  0  0  0  0  0  0
   57.8010   27.9560   46.4160 C   0  0  0  0  0  0  0  0  0  0  0  0
   57.4890   26.6290   46.1070 C   0  0  0  0  0  0  0  0  0  0  0  0
   57.6640   26.1540   44.8040 C   0  0  0  0  0  0  0  0  0  0  0  0
   58.1520   27.0040   43.8100 C   0  0  0  0  0  0  0  0  0  0  0  0
   58.4650   28.3310   44.1140 C   0  0  0  0  0  0  0  0  0  0  0  0
   57.7680   31.2130   45.4180 C   0  0  0  0  0  0  0  0  0  0  0  0
   56.6830   30.9810   44.8140 O   0  0  0  0  0  0  0  0  0  0  0  0
   58.1080   32.5300   45.7450 C   0  0  0  0  0  0  0  0  0  0  0  0
   57.0520   33.8540   45.2490 Cl  0  0  0  0  0  0  0  0  0  0  0  0
   60.8821   33.7136   50.9363 H   0  0  0  0  0  0  0  0  0  0  0  0
   59.9351   34.6949   49.7672 H   0  0  0  0  0  0  0  0  0  0  0  0
   59.7840   32.9050   49.7672 H   0  0  0  0  0  0  0  0  0  0  0  0
   63.0063   32.9730   50.4340 H   0  0  0  0  0  0  0  0  0  0  0  0
   64.9184   32.7872   48.8475 H   0  0  0  0  0  0  0  0  0  0  0  0
   64.6043   33.3508   46.4386 H   0  0  0  0  0  0  0  0  0  0  0  0
   62.3729   34.0839   45.6079 H   0  0  0  0  0  0  0  0  0  0  0  0
   61.1589   31.8844   47.1111 H   0  0  0  0  0  0  0  0  0  0  0  0
   60.4590   29.6630   46.5420 H   0  0  0  0  0  0  0  0  0  0  0  0
   57.6682   28.3251   47.4437 H   0  0  0  0  0  0  0  0  0  0  0  0
   57.1055   25.9580   46.8897 H   0  0  0  0  0  0  0  0  0  0  0  0
   57.4170   25.1098   44.5618 H   0  0  0  0  0  0  0  0  0  0  0  0
   58.2903   26.6282   42.7855 H   0  0  0  0  0  0  0  0  0  0  0  0
   58.8550   28.9953   43.3287 H   0  0  0  0  0  0  0  0  0  0  0  0
  1  2  1  0
  2  3  2  0
  3  4  1  0
  4  5  2  0
  5  6  1  0
  6  7  2  0
  7  8  1  0
  8  9  1  0
  9 10  1  0
 10 11  2  0
 11 12  1  0
 12 13  1  0
 13 14  2  0
 14 15  1  0
 15 16  2  0
 16 17  1  0
 17 18  2  0
 12 19  1  0
 19 20  2  0
 19 21  1  0
 21 22  1  0
  7  2  1  0
 21  9  2  0
 18 13  1  0
  1 23  1  0
  1 24  1  0
  1 25  1  0
  3 26  1  0
  4 27  1  0
  5 28  1  0
  6 29  1  0
 10 30  1  0
 11 31  1  0
 14 32  1  0
 15 33  1  0
 16 34  1  0
 17 35  1  0
 18 36  1  0
M  CHG  1  11   1
M  END
>  <UniqueID>  (46) 
38

>  <SMILES>  (46) 
Cc1ccccc1Sc1c[nH+]n(-c2ccccc2)c(=O)c1Cl

>  <Energy>  (46) 
45.93754432084114

>  <Genealogy>  (46) 
Cc1ccccc1Sc1c[nH+]n(-c2ccccc2)c(=O)c1Cl (protonated)
Cc1ccccc1Sc1c[nH+]n(-c2ccccc2)c(=O)c1Cl (3D coordinates assigned)
Cc1ccccc1Sc1c[nH+]n(-c2ccccc2)c(=O)c1Cl (optimized conformer: 45.93754432084114 kcal/mol)

>  <smiles>  (46) 
Cc1ccccc1Sc1cnn(-c2ccccc2)c(=O)c1Cl

>  <score_type>  (46) 
oracle

>  <origin>  (46) 
adg

>  <m_score__min__energy>  (46) 
-7.0999999999999996

>  <m_primary>  (46) 
energy

$$$$
46:0
     RDKit          3D

 34 35  0  0  0  0  0  0  0  0999 V2000
   56.6400   23.4040   47.7940 C   0  0  0  0  0  0  0  0  0  0  0  0
   56.1020   24.5920   47.2220 O   0  0  0  0  0  0  0  0  0  0  0  0
   56.8710   25.6010   46.6200 C   0  0  0  0  0  0  0  0  0  0  0  0
   58.2770   25.5720   46.6140 C   0  0  0  0  0  0  0  0  0  0  0  0
   59.0040   26.5960   46.0030 C   0  0  0  0  0  0  0  0  0  0  0  0
   58.3470   27.6790   45.3850 C   0  0  0  0  0  0  0  0  0  0  0  0
   59.1230   28.7750   44.7220 C   0  0  0  0  0  0  0  0  0  0  0  0
   60.7500   28.8920   44.9580 S   0  0  0  0  0  0  0  0  0  0  0  0
   58.4730   29.7690   43.8990 N   0  0  0  0  0  0  0  0  0  0  0  0
   57.5040   30.5390   44.6900 C   0  0  0  0  0  0  0  0  0  0  0  0
   58.1000   31.8540   45.1190 C   0  0  0  0  0  0  0  0  0  0  0  0
   59.0650   31.8970   46.1390 C   0  0  0  0  0  0  0  0  0  0  0  0
   59.6430   33.1140   46.5100 C   0  0  0  0  0  0  0  0  0  0  0  0
   59.2710   34.2940   45.8600 C   0  0  0  0  0  0  0  0  0  0  0  0
   58.3230   34.2570   44.8330 C   0  0  0  0  0  0  0  0  0  0  0  0
   57.7420   33.0410   44.4590 C   0  0  0  0  0  0  0  0  0  0  0  0
   56.9370   27.6970   45.3940 C   0  0  0  0  0  0  0  0  0  0  0  0
   56.2100   26.6690   46.0050 C   0  0  0  0  0  0  0  0  0  0  0  0
   54.8210   26.7140   45.9950 O   0  0  0  0  0  0  0  0  0  0  0  0
   56.6067   23.4776   48.8910 H   0  0  0  0  0  0  0  0  0  0  0  0
   56.0463   22.5379   47.4664 H   0  0  0  0  0  0  0  0  0  0  0  0
   57.6826   23.2789   47.4664 H   0  0  0  0  0  0  0  0  0  0  0  0
   58.8080   24.7367   47.0940 H   0  0  0  0  0  0  0  0  0  0  0  0
   60.1033   26.5568   46.0041 H   0  0  0  0  0  0  0  0  0  0  0  0
   58.0060   29.3110   43.0840 H   0  0  0  0  0  0  0  0  0  0  0  0
   59.1860   30.4280   43.5070 H   0  0  0  0  0  0  0  0  0  0  0  0
   56.6085   30.7291   44.0802 H   0  0  0  0  0  0  0  0  0  0  0  0
   57.2363   29.9603   45.5863 H   0  0  0  0  0  0  0  0  0  0  0  0
   59.3667   30.9694   46.6475 H   0  0  0  0  0  0  0  0  0  0  0  0
   60.3921   33.1433   47.3150 H   0  0  0  0  0  0  0  0  0  0  0  0
   59.7239   35.2516   46.1563 H   0  0  0  0  0  0  0  0  0  0  0  0
   58.0338   35.1853   44.3186 H   0  0  0  0  0  0  0  0  0  0  0  0
   57.0023   33.0142   43.6453 H   0  0  0  0  0  0  0  0  0  0  0  0
   56.4016   28.5298   44.9146 H   0  0  0  0  0  0  0  0  0  0  0  0
  1  2  1  0
  2  3  1  0
  3  4  2  0
  4  5  1  0
  5  6  2  0
  6  7  1  0
  7  8  2  0
  7  9  1  0
  9 10  1  0
 10 11  1  0
 11 12  2  0
 12 13  1  0
 13 14  2  0
 14 15  1  0
 15 16  2  0
  6 17  1  0
 17 18  2  0
 18 19  1  0
 18  3  1  0
 16 11  1  0
  1 20  1  0
  1 21  1  0
  1 22  1  0
  4 23  1  0
  5 24  1  0
  9 25  1  0
  9 26  1  0
 10 27  1  0
 10 28  1  0
 12 29  1  0
 13 30  1  0
 14 31  1  0
 15 32  1  0
 16 33  1  0
 17 34  1  0
M  CHG  2   9   1  19  -1
M  END
>  <UniqueID>  (47) 
39

>  <SMILES>  (47) 
COc1ccc(C(=S)[NH2+]Cc2ccccc2)cc1[O-]

>  <Energy>  (47) 
38.16962677744961

>  <Genealogy>  (47) 
COc1ccc(C(=S)[NH2+]Cc2ccccc2)cc1[O-] (protonated)
COc1ccc(C(=S)[NH2+]Cc2ccccc2)cc1[O-] (3D coordinates assigned)
COc1ccc(C(=S)[NH2+]Cc2ccccc2)cc1[O-] (optimized conformer: 38.16962677744961 kcal/mol)

>  <smiles>  (47) 
COc1ccc(C(=S)NCc2ccccc2)cc1O

>  <score_type>  (47) 
oracle

>  <origin>  (47) 
adg

>  <m_score__min__energy>  (47) 
-9.8699999999999992

>  <m_primary>  (47) 
energy

$$$$
47:0
     RDKit          3D

 65 68  0  0  0  0  0  0  0  0999 V2000
   56.3240   31.0150   52.0760 C   0  0  0  0  0  0  0  0  0  0  0  0
   57.2850   30.0660   51.6280 O   0  0  0  0  0  0  0  0  0  0  0  0
   58.2400   30.3600   50.6490 C   0  0  0  0  0  0  0  0  0  0  0  0
   58.2390   29.7280   49.5560 O   0  0  0  0  0  0  0  0  0  0  0  0
   59.2400   31.4220   50.8920 C   0  0  0  0  0  0  0  0  0  0  0  0
   58.9000   32.7780   50.7440 C   0  0  0  0  0  0  0  0  0  0  0  0
   59.8440   33.7770   50.9990 C   0  0  0  0  0  0  0  0  0  0  0  0
   61.1360   33.4360   51.4040 C   0  0  0  0  0  0  0  0  0  0  0  0
   61.4950   32.0890   51.5570 C   0  0  0  0  0  0  0  0  0  0  0  0
   62.8980   31.7200   51.9700 C   0  0  0  0  0  0  0  0  0  0  0  0
   63.8680   32.6950   51.4460 N   0  0  0  0  0  0  0  0  0  0  0  0
   64.4850   32.2330   50.1890 C   0  0  0  0  0  0  0  0  0  0  0  0
   63.5630   32.4360   49.0090 C   0  0  0  0  0  0  0  0  0  0  0  0
   63.6520   33.5930   48.2200 C   0  0  0  0  0  0  0  0  0  0  0  0
   62.8320   33.7480   47.1010 C   0  0  0  0  0  0  0  0  0  0  0  0
   61.9150   32.7510   46.7570 C   0  0  0  0  0  0  0  0  0  0  0  0
   61.8060   31.5870   47.5390 C   0  0  0  0  0  0  0  0  0  0  0  0
   60.8300   30.5280   47.1820 C   0  0  0  0  0  0  0  0  0  0  0  0
   60.7960   29.3190   47.8980 C   0  0  0  0  0  0  0  0  0  0  0  0
   59.8870   28.3170   47.5510 C   0  0  0  0  0  0  0  0  0  0  0  0
   59.0030   28.5090   46.4880 C   0  0  0  0  0  0  0  0  0  0  0  0
   59.0150   29.7130   45.7690 C   0  0  0  0  0  0  0  0  0  0  0  0
   58.1110   29.8950   44.5810 C   0  0  0  0  0  0  0  0  0  0  0  0
   57.0170   30.8080   44.9380 N   0  0  0  0  0  0  0  0  0  0  0  0
   57.2220   32.1410   44.3570 C   0  0  0  0  0  0  0  0  0  0  0  0
   57.9110   33.0420   45.3470 C   0  0  0  0  0  0  0  0  0  0  0  0
   57.8450   32.7750   46.7250 C   0  0  0  0  0  0  0  0  0  0  0  0
   58.4930   33.6150   47.6380 C   0  0  0  0  0  0  0  0  0  0  0  0
   59.2110   34.7240   47.1830 C   0  0  0  0  0  0  0  0  0  0  0  0
   59.2860   34.9930   45.8120 C   0  0  0  0  0  0  0  0  0  0  0  0
   59.9840   36.0680   45.3710 F   0  0  0  0  0  0  0  0  0  0  0  0
   58.6410   34.1540   44.8960 C   0  0  0  0  0  0  0  0  0  0  0  0
   59.9350   30.7160   46.1130 C   0  0  0  0  0  0  0  0  0  0  0  0
   62.6400   31.4360   48.6620 C   0  0  0  0  0  0  0  0  0  0  0  0
   60.5480   31.0860   51.2880 C   0  0  0  0  0  0  0  0  0  0  0  0
   56.3087   31.0301   53.1758 H   0  0  0  0  0  0  0  0  0  0  0  0
   56.5913   32.0133   51.6993 H   0  0  0  0  0  0  0  0  0  0  0  0
   55.3291   30.7352   51.6993 H   0  0  0  0  0  0  0  0  0  0  0  0
   57.8842   33.0548   50.4254 H   0  0  0  0  0  0  0  0  0  0  0  0
   59.5681   34.8352   50.8802 H   0  0  0  0  0  0  0  0  0  0  0  0
   61.8746   34.2264   51.6037 H   0  0  0  0  0  0  0  0  0  0  0  0
   62.9589   31.7046   53.0682 H   0  0  0  0  0  0  0  0  0  0  0  0
   63.1377   30.7276   51.5605 H   0  0  0  0  0  0  0  0  0  0  0  0
   63.4040   33.6240   51.2970 H   0  0  0  0  0  0  0  0  0  0  0  0
   64.6270   32.8250   52.1550 H   0  0  0  0  0  0  0  0  0  0  0  0
   65.4131   32.7982   50.0181 H   0  0  0  0  0  0  0  0  0  0  0  0
   64.6919   31.1567   50.2827 H   0  0  0  0  0  0  0  0  0  0  0  0
   64.3716   34.3818   48.4846 H   0  0  0  0  0  0  0  0  0  0  0  0
   62.9078   34.6581   46.4878 H   0  0  0  0  0  0  0  0  0  0  0  0
   61.2757   32.8772   45.8708 H   0  0  0  0  0  0  0  0  0  0  0  0
   61.4897   29.1610   48.7369 H   0  0  0  0  0  0  0  0  0  0  0  0
   59.8677   27.3740   48.1170 H   0  0  0  0  0  0  0  0  0  0  0  0
   58.2947   27.7134   46.2134 H   0  0  0  0  0  0  0  0  0  0  0  0
   58.6851   30.3192   43.7441 H   0  0  0  0  0  0  0  0  0  0  0  0
   57.6954   28.9214   44.2820 H   0  0  0  0  0  0  0  0  0  0  0  0
   57.0120   30.9090   45.9810 H   0  0  0  0  0  0  0  0  0  0  0  0
   57.8436   32.0516   43.4539 H   0  0  0  0  0  0  0  0  0  0  0  0
   56.2439   32.5736   44.0998 H   0  0  0  0  0  0  0  0  0  0  0  0
   57.2819   31.9024   47.0876 H   0  0  0  0  0  0  0  0  0  0  0  0
   58.4369   33.4017   48.7157 H   0  0  0  0  0  0  0  0  0  0  0  0
   59.7169   35.3850   47.9021 H   0  0  0  0  0  0  0  0  0  0  0  0
   58.7060   34.3663   43.8186 H   0  0  0  0  0  0  0  0  0  0  0  0
   59.9562   31.6561   45.5423 H   0  0  0  0  0  0  0  0  0  0  0  0
   62.5684   30.5252   49.2746 H   0  0  0  0  0  0  0  0  0  0  0  0
   60.8319   30.0280   51.3880 H   0  0  0  0  0  0  0  0  0  0  0  0
  1  2  1  0
  2  3  1  0
  3  4  2  0
  3  5  1  0
  5  6  2  0
  6  7  1  0
  7  8  2  0
  8  9  1  0
  9 10  1  0
 10 11  1  0
 11 12  1  0
 12 13  1  0
 13 14  2  0
 14 15  1  0
 15 16  2  0
 16 17  1  0
 17 18  1  0
 18 19  2  0
 19 20  1  0
 20 21  2  0
 21 22  1  0
 22 23  1  0
 23 24  1  0
 24 25  1  0
 25 26  1  0
 26 27  2  0
 27 28  1  0
 28 29  2  0
 29 30  1  0
 30 31  1  0
 30 32  2  0
 22 33  2  0
 17 34  2  0
  9 35  2  0
 35  5  1  0
 34 13  1  0
 33 18  1  0
 32 26  1  0
  1 36  1  0
  1 37  1  0
  1 38  1  0
  6 39  1  0
  7 40  1  0
  8 41  1  0
 10 42  1  0
 10 43  1  0
 11 44  1  0
 11 45  1  0
 12 46  1  0
 12 47  1  0
 14 48  1  0
 15 49  1  0
 16 50  1  0
 19 51  1  0
 20 52  1  0
 21 53  1  0
 23 54  1  0
 23 55  1  0
 24 56  1  0
 25 57  1  0
 25 58  1  0
 27 59  1  0
 28 60  1  0
 29 61  1  0
 32 62  1  0
 33 63  1  0
 34 64  1  0
 35 65  1  0
M  CHG  1  11   1
M  END
>  <UniqueID>  (48) 
40

>  <SMILES>  (48) 
COC(=O)c1cccc(C[NH2+]Cc2cccc(-c3cccc(CNCc4cccc(F)c4)c3)c2)c1

>  <Energy>  (48) 
69.55612430494007

>  <Genealogy>  (48) 
COC(=O)c1cccc(C[NH2+]Cc2cccc(-c3cccc(CNCc4cccc(F)c4)c3)c2)c1 (protonated)
COC(=O)c1cccc(C[NH2+]Cc2cccc(-c3cccc(CNCc4cccc(F)c4)c3)c2)c1 (3D coordinates assigned)
COC(=O)c1cccc(C[NH2+]Cc2cccc(-c3cccc(CNCc4cccc(F)c4)c3)c2)c1 (optimized conformer: 69.55612430494007 kcal/mol)

>  <smiles>  (48) 
COC(=O)c1cccc(CNCc2cccc(-c3cccc(CNCc4cccc(F)c4)c3)c2)c1

>  <score_type>  (48) 
oracle

>  <origin>  (48) 
adg

>  <m_score__min__energy>  (48) 
-9.6500000000000004

>  <m_primary>  (48) 
energy

$$$$
48:0
     RDKit          3D

 64 67  0  0  0  0  0  0  0  0999 V2000
   64.4790   30.9160   51.6030 C   0  0  0  0  0  0  0  0  0  0  0  0
   63.0420   31.3090   51.4210 C   0  0  0  0  0  0  0  0  0  0  0  0
   62.4360   32.2010   52.3150 C   0  0  0  0  0  0  0  0  0  0  0  0
   61.1070   32.5880   52.1320 C   0  0  0  0  0  0  0  0  0  0  0  0
   60.3640   32.1000   51.0470 C   0  0  0  0  0  0  0  0  0  0  0  0
   58.9220   32.5100   50.9100 C   0  0  0  0  0  0  0  0  0  0  0  0
   60.9910   31.2500   50.1050 C   0  0  0  0  0  0  0  0  0  0  0  0
   60.2930   30.7600   48.9520 N   0  0  0  0  0  0  0  0  0  0  0  0
   59.9990   29.3650   48.7690 C   0  0  0  0  0  0  0  0  0  0  0  0
   60.0940   28.5760   49.7480 O   0  0  0  0  0  0  0  0  0  0  0  0
   59.5640   28.8460   47.4490 C   0  0  0  0  0  0  0  0  0  0  0  0
   60.1950   27.7220   46.8890 C   0  0  0  0  0  0  0  0  0  0  0  0
   59.8000   27.2370   45.6410 C   0  0  0  0  0  0  0  0  0  0  0  0
   58.7710   27.8670   44.9370 C   0  0  0  0  0  0  0  0  0  0  0  0
   58.1290   28.9870   45.4790 C   0  0  0  0  0  0  0  0  0  0  0  0
   56.8430   29.8010   44.5760 S   0  0  0  0  0  0  0  0  0  0  0  0
   56.8430   29.2960   43.1600 O   0  0  0  0  0  0  0  0  0  0  0  0
   55.5170   29.4590   45.1930 O   0  0  0  0  0  0  0  0  0  0  0  0
   57.0330   31.5400   44.5600 N   0  0  0  0  0  0  0  0  0  0  0  0
   57.7310   32.0040   43.3570 C   0  0  0  0  0  0  0  0  0  0  0  0
   58.5190   33.2310   43.7600 C   0  0  0  0  0  0  0  0  0  0  0  0
   58.8930   32.9530   45.2040 C   0  0  1  0  0  0  0  0  0  0  0  0
   59.0390   34.2120   46.0160 C   0  0  0  0  0  0  0  0  0  0  0  0
   59.1820   35.3200   45.4290 O   0  0  0  0  0  0  0  0  0  0  0  0
   59.0180   34.1530   47.4450 N   0  0  0  0  0  0  0  0  0  0  0  0
   60.2240   34.2210   48.2600 C   0  0  0  0  0  0  0  0  0  0  0  0
   61.4310   33.7680   47.4340 C   0  0  1  0  0  0  0  0  0  0  0  0
   62.7300   33.9030   48.2090 C   0  0  0  0  0  0  0  0  0  0  0  0
   63.5700   32.8110   47.6260 C   0  0  0  0  0  0  0  0  0  0  0  0
   62.5420   31.8050   47.1400 C   0  0  0  0  0  0  0  0  0  0  0  0
   61.2770   32.4210   47.0480 O   0  0  0  0  0  0  0  0  0  0  0  0
   57.7840   32.0340   45.7230 C   0  0  0  0  0  0  0  0  0  0  0  0
   58.5370   29.4810   46.7270 C   0  0  0  0  0  0  0  0  0  0  0  0
   62.3180   30.8460   50.3130 C   0  0  0  0  0  0  0  0  0  0  0  0
   64.7088   30.8532   52.6769 H   0  0  0  0  0  0  0  0  0  0  0  0
   64.6538   29.9371   51.1327 H   0  0  0  0  0  0  0  0  0  0  0  0
   65.1277   31.6697   51.1327 H   0  0  0  0  0  0  0  0  0  0  0  0
   63.0098   32.5984   53.1652 H   0  0  0  0  0  0  0  0  0  0  0  0
   60.6384   33.2820   52.8453 H   0  0  0  0  0  0  0  0  0  0  0  0
   58.4800   32.6357   51.9094 H   0  0  0  0  0  0  0  0  0  0  0  0
   58.8618   33.4609   50.3602 H   0  0  0  0  0  0  0  0  0  0  0  0
   58.3705   31.7331   50.3602 H   0  0  0  0  0  0  0  0  0  0  0  0
   59.8030   31.4560   48.3450 H   0  0  0  0  0  0  0  0  0  0  0  0
   61.0059   27.2209   47.4380 H   0  0  0  0  0  0  0  0  0  0  0  0
   60.3002   26.3567   45.2110 H   0  0  0  0  0  0  0  0  0  0  0  0
   58.4640   27.4818   43.9534 H   0  0  0  0  0  0  0  0  0  0  0  0
   58.4099   31.2217   42.9867 H   0  0  0  0  0  0  0  0  0  0  0  0
   57.0197   32.2367   42.5508 H   0  0  0  0  0  0  0  0  0  0  0  0
   59.4177   33.3437   43.1358 H   0  0  0  0  0  0  0  0  0  0  0  0
   57.9508   34.1648   43.6366 H   0  0  0  0  0  0  0  0  0  0  0  0
   59.8819   32.4785   45.2869 H   0  0  0  0  0  0  0  0  0  0  0  0
   60.3795   35.2564   48.5973 H   0  0  0  0  0  0  0  0  0  0  0  0
   60.1115   33.5612   49.1329 H   0  0  0  0  0  0  0  0  0  0  0  0
   61.4791   34.4192   46.5488 H   0  0  0  0  0  0  0  0  0  0  0  0
   63.1899   34.8887   48.0453 H   0  0  0  0  0  0  0  0  0  0  0  0
   62.6009   33.8227   49.2985 H   0  0  0  0  0  0  0  0  0  0  0  0
   64.1805   33.1858   46.7912 H   0  0  0  0  0  0  0  0  0  0  0  0
   64.2841   32.3847   48.3460 H   0  0  0  0  0  0  0  0  0  0  0  0
   62.8383   31.4297   46.1494 H   0  0  0  0  0  0  0  0  0  0  0  0
   62.4876   30.9685   47.8523 H   0  0  0  0  0  0  0  0  0  0  0  0
   58.2242   31.1883   46.2716 H   0  0  0  0  0  0  0  0  0  0  0  0
   57.1189   32.5809   46.4074 H   0  0  0  0  0  0  0  0  0  0  0  0
   58.0491   30.3737   47.1452 H   0  0  0  0  0  0  0  0  0  0  0  0
   62.7958   30.1587   49.5994 H   0  0  0  0  0  0  0  0  0  0  0  0
  1  2  1  0
  2  3  2  0
  3  4  1  0
  4  5  2  0
  5  6  1  0
  5  7  1  0
  7  8  1  0
  8  9  1  0
  9 10  2  0
  9 11  1  0
 11 12  2  0
 12 13  1  0
 13 14  2  0
 14 15  1  0
 15 16  1  0
 16 17  2  0
 16 18  2  0
 16 19  1  0
 19 20  1  0
 20 21  1  0
 21 22  1  0
 22 23  1  0
 23 24  2  0
 23 25  1  0
 25 26  1  0
 26 27  1  0
 27 28  1  0
 28 29  1  0
 29 30  1  0
 30 31  1  0
 22 32  1  0
 15 33  2  0
  7 34  2  0
 34  2  1  0
 33 11  1  0
 32 19  1  0
 31 27  1  0
  1 35  1  0
  1 36  1  0
  1 37  1  0
  3 38  1  0
  4 39  1  0
  6 40  1  0
  6 41  1  0
  6 42  1  0
  8 43  1  0
 12 44  1  0
 13 45  1  0
 14 46  1  0
 20 47  1  0
 20 48  1  0
 21 49  1  0
 21 50  1  0
 22 51  1  6
 26 52  1  0
 26 53  1  0
 27 54  1  6
 28 55  1  0
 28 56  1  0
 29 57  1  0
 29 58  1  0
 30 59  1  0
 30 60  1  0
 32 61  1  0
 32 62  1  0
 33 63  1  0
 34 64  1  0
M  CHG  1  25  -1
M  END
>  <UniqueID>  (49) 
41

>  <SMILES>  (49) 
Cc1ccc(C)c(NC(=O)c2cccc(S(=O)(=O)N3CC[C@@H](C(=O)[N-]C[C@H]4CCCO4)C3)c2)c1

>  <Energy>  (49) 
70.00787656445341

>  <Genealogy>  (49) 
Cc1ccc(C)c(NC(=O)c2cccc(S(=O)(=O)N3CCC(C(=O)[N-]CC4CCCO4)C3)c2)c1 (protonated)
Cc1ccc(C)c(NC(=O)c2cccc(S(=O)(=O)N3CC[C@@H](C(=O)[N-]C[C@H]4CCCO4)C3)c2)c1 (chirality)
Cc1ccc(C)c(NC(=O)c2cccc(S(=O)(=O)N3CC[C@@H](C(=O)[N-]C[C@H]4CCCO4)C3)c2)c1 (3D coordinates assigned)
Cc1ccc(C)c(NC(=O)c2cccc(S(=O)(=O)N3CC[C@@H](C(=O)[N-]C[C@H]4CCCO4)C3)c2)c1 (nonaromatic ring conformer: 70.00787656445341 kcal/mol)

>  <smiles>  (49) 
Cc1ccc(C)c(NC(=O)c2cccc(S(=O)(=O)N3CCC(C(=O)NCC4CCCO4)C3)c2)c1

>  <score_type>  (49) 
oracle

>  <origin>  (49) 
adg

>  <m_score__min__energy>  (49) 
-12.109999999999999

>  <m_primary>  (49) 
energy

$$$$
49:0
     RDKit          3D

 36 38  0  0  0  0  0  0  0  0999 V2000
   64.9680   32.9650   50.1720 C   0  0  0  0  0  0  0  0  0  0  0  0
   63.8610   33.0370   49.1620 C   0  0  0  0  0  0  0  0  0  0  0  0
   64.1490   33.2860   47.8120 C   0  0  0  0  0  0  0  0  0  0  0  0
   63.1220   33.3010   46.8650 C   0  0  0  0  0  0  0  0  0  0  0  0
   61.8040   33.0520   47.2530 C   0  0  0  0  0  0  0  0  0  0  0  0
   61.4990   32.7870   48.6000 C   0  0  0  0  0  0  0  0  0  0  0  0
   60.1470   32.4690   48.9910 N   0  0  0  0  0  0  0  0  0  0  0  0
   59.2180   33.5440   48.6110 C   0  0  0  0  0  0  0  0  0  0  0  0
   58.7870   33.3940   47.2190 N   0  0  0  0  0  0  0  0  0  0  0  0
   58.2080   32.3050   46.7420 N   0  0  0  0  0  0  0  0  0  0  0  0
   58.0370   32.5390   45.4230 C   0  0  0  0  0  0  0  0  0  0  0  0
   57.4240   31.5910   44.4810 C   0  0  0  0  0  0  0  0  0  0  0  0
   57.5510   31.7610   43.0920 C   0  0  0  0  0  0  0  0  0  0  0  0
   56.9520   30.8390   42.2320 C   0  0  0  0  0  0  0  0  0  0  0  0
   56.2370   29.7610   42.7570 C   0  0  0  0  0  0  0  0  0  0  0  0
   56.1300   29.6220   44.1430 C   0  0  0  0  0  0  0  0  0  0  0  0
   56.7200   30.5310   44.9650 N   0  0  0  0  0  0  0  0  0  0  0  0
   58.4940   33.7250   45.0780 O   0  0  0  0  0  0  0  0  0  0  0  0
   58.9590   34.2450   46.1870 C   0  0  0  0  0  0  0  0  0  0  0  0
   59.6610   35.7230   46.2750 S   0  0  0  0  0  0  0  0  0  0  0  0
   62.5370   32.7750   49.5490 C   0  0  0  0  0  0  0  0  0  0  0  0
   64.5418   32.9927   51.1857 H   0  0  0  0  0  0  0  0  0  0  0  0
   65.5286   32.0285   50.0354 H   0  0  0  0  0  0  0  0  0  0  0  0
   65.6452   33.8210   50.0354 H   0  0  0  0  0  0  0  0  0  0  0  0
   65.1870   33.4701   47.4979 H   0  0  0  0  0  0  0  0  0  0  0  0
   63.3525   33.5097   45.8099 H   0  0  0  0  0  0  0  0  0  0  0  0
   61.0007   33.0632   46.5017 H   0  0  0  0  0  0  0  0  0  0  0  0
   60.1080   32.3400   50.0290 H   0  0  0  0  0  0  0  0  0  0  0  0
   59.8410   31.5690   48.5520 H   0  0  0  0  0  0  0  0  0  0  0  0
   58.3360   33.5066   49.2672 H   0  0  0  0  0  0  0  0  0  0  0  0
   59.7348   34.5092   48.7170 H   0  0  0  0  0  0  0  0  0  0  0  0
   58.1170   32.6125   42.6862 H   0  0  0  0  0  0  0  0  0  0  0  0
   57.0432   30.9616   41.1427 H   0  0  0  0  0  0  0  0  0  0  0  0
   55.7630   29.0289   42.0866 H   0  0  0  0  0  0  0  0  0  0  0  0
   55.5687   28.7776   44.5695 H   0  0  0  0  0  0  0  0  0  0  0  0
   62.3096   32.5585   50.6033 H   0  0  0  0  0  0  0  0  0  0  0  0
  1  2  1  0
  2  3  2  0
  3  4  1  0
  4  5  2  0
  5  6  1  0
  6  7  1  0
  7  8  1  0
  8  9  1  0
  9 10  1  0
 10 11  2  0
 11 12  1  0
 12 13  2  0
 13 14  1  0
 14 15  2  0
 15 16  1  0
 16 17  2  0
 11 18  1  0
 18 19  1  0
 19 20  2  0
  6 21  2  0
 21  2  1  0
 19  9  1  0
 17 12  1  0
  1 22  1  0
  1 23  1  0
  1 24  1  0
  3 25  1  0
  4 26  1  0
  5 27  1  0
  7 28  1  0
  7 29  1  0
  8 30  1  0
  8 31  1  0
 13 32  1  0
 14 33  1  0
 15 34  1  0
 16 35  1  0
 21 36  1  0
M  CHG  1   7   1
M  END
>  <UniqueID>  (50) 
42

>  <SMILES>  (50) 
Cc1cccc([NH2+]Cn2nc(-c3ccccn3)oc2=S)c1

>  <Energy>  (50) 
73.61781357961465

>  <Genealogy>  (50) 
Cc1cccc([NH2+]Cn2nc(-c3ccccn3)oc2=S)c1 (protonated)
Cc1cccc([NH2+]Cn2nc(-c3ccccn3)oc2=S)c1 (3D coordinates assigned)
Cc1cccc([NH2+]Cn2nc(-c3ccccn3)oc2=S)c1 (optimized conformer: 73.61781357961465 kcal/mol)

>  <smiles>  (50) 
Cc1cccc(NCn2nc(-c3ccccn3)oc2=S)c1

>  <score_type>  (50) 
oracle

>  <origin>  (50) 
adg

>  <m_score__min__energy>  (50) 
-6.6799999999999997

>  <m_primary>  (50) 
energy

$$$$
50:0
     RDKit          3D

 36 37  0  0  0  0  0  0  0  0999 V2000
   55.1460   29.3280   44.8520 O   0  0  0  0  0  0  0  0  0  0  0  0
   56.4620   29.8650   44.3640 S   0  0  0  0  0  0  0  0  0  0  0  0
   56.4790   29.7790   42.8640 O   0  0  0  0  0  0  0  0  0  0  0  0
   56.6220   31.5340   44.8330 N   0  0  0  0  0  0  0  0  0  0  0  0
   58.0100   31.8600   45.1730 C   0  0  0  0  0  0  0  0  0  0  0  0
   58.3690   33.2620   44.6740 C   0  0  0  0  0  0  0  0  0  0  0  0
   58.3750   34.4600   46.0610 S   0  0  0  0  0  0  0  0  0  0  0  0
   60.0320   34.0590   46.7260 C   0  0  0  0  0  0  0  0  0  0  0  0
   60.0440   32.7050   47.3830 C   0  0  0  0  0  0  0  0  0  0  0  0
   61.0900   31.8020   47.1260 C   0  0  0  0  0  0  0  0  0  0  0  0
   61.1030   30.5440   47.7360 C   0  0  0  0  0  0  0  0  0  0  0  0
   60.0820   30.1850   48.6220 C   0  0  0  0  0  0  0  0  0  0  0  0
   60.0960   28.6060   49.3850 Cl  0  0  0  0  0  0  0  0  0  0  0  0
   59.0520   31.0880   48.9020 C   0  0  0  0  0  0  0  0  0  0  0  0
   59.0310   32.3430   48.2850 C   0  0  0  0  0  0  0  0  0  0  0  0
   57.7800   28.8920   45.0190 C   0  0  0  0  0  0  0  0  0  0  0  0
   59.0850   29.0540   44.5330 C   0  0  0  0  0  0  0  0  0  0  0  0
   60.1350   28.3040   45.0720 C   0  0  0  0  0  0  0  0  0  0  0  0
   59.8870   27.3840   46.0950 C   0  0  0  0  0  0  0  0  0  0  0  0
   60.9080   26.6590   46.6150 F   0  0  0  0  0  0  0  0  0  0  0  0
   58.5850   27.2100   46.5760 C   0  0  0  0  0  0  0  0  0  0  0  0
   58.3400   26.3140   47.5650 F   0  0  0  0  0  0  0  0  0  0  0  0
   57.5340   27.9590   46.0380 C   0  0  0  0  0  0  0  0  0  0  0  0
   58.1337   31.8218   46.2654 H   0  0  0  0  0  0  0  0  0  0  0  0
   58.6756   31.1293   44.6903 H   0  0  0  0  0  0  0  0  0  0  0  0
   59.3678   33.2370   44.2139 H   0  0  0  0  0  0  0  0  0  0  0  0
   57.6173   33.5785   43.9360 H   0  0  0  0  0  0  0  0  0  0  0  0
   60.7599   34.0637   45.9013 H   0  0  0  0  0  0  0  0  0  0  0  0
   60.2952   34.8140   47.4814 H   0  0  0  0  0  0  0  0  0  0  0  0
   61.9026   32.0865   46.4414 H   0  0  0  0  0  0  0  0  0  0  0  0
   61.9166   29.8362   47.5190 H   0  0  0  0  0  0  0  0  0  0  0  0
   58.2563   30.8108   49.6092 H   0  0  0  0  0  0  0  0  0  0  0  0
   58.2175   33.0492   48.5074 H   0  0  0  0  0  0  0  0  0  0  0  0
   59.2837   29.7735   43.7250 H   0  0  0  0  0  0  0  0  0  0  0  0
   61.1579   28.4382   44.6904 H   0  0  0  0  0  0  0  0  0  0  0  0
   56.5105   27.8164   46.4149 H   0  0  0  0  0  0  0  0  0  0  0  0
  1  2  2  0
  2  3  2  0
  2  4  1  0
  4  5  1  0
  5  6  1  0
  6  7  1  0
  7  8  1  0
  8  9  1  0
  9 10  2  0
 10 11  1  0
 11 12  2  0
 12 13  1  0
 12 14  1  0
 14 15  2  0
  2 16  1  0
 16 17  2  0
 17 18  1  0
 18 19  2  0
 19 20  1  0
 19 21  1  0
 21 22  1  0
 21 23  2  0
 15  9  1  0
 23 16  1  0
  5 24  1  0
  5 25  1  0
  6 26  1  0
  6 27  1  0
  8 28  1  0
  8 29  1  0
 10 30  1  0
 11 31  1  0
 14 32  1  0
 15 33  1  0
 17 34  1  0
 18 35  1  0
 23 36  1  0
M  CHG  1   4  -1
M  END
>  <UniqueID>  (51) 
43

>  <SMILES>  (51) 
O=S(=O)([N-]CCSCc1ccc(Cl)cc1)c1ccc(F)c(F)c1

>  <Energy>  (51) 
29.512953505193238

>  <Genealogy>  (51) 
O=S(=O)([N-]CCSCc1ccc(Cl)cc1)c1ccc(F)c(F)c1 (protonated)
O=S(=O)([N-]CCSCc1ccc(Cl)cc1)c1ccc(F)c(F)c1 (3D coordinates assigned)
O=S(=O)([N-]CCSCc1ccc(Cl)cc1)c1ccc(F)c(F)c1 (optimized conformer: 29.512953505193238 kcal/mol)

>  <smiles>  (51) 
O=S(=O)(NCCSCc1ccc(Cl)cc1)c1ccc(F)c(F)c1

>  <score_type>  (51) 
oracle

>  <origin>  (51) 
adg

>  <m_score__min__energy>  (51) 
-9.6500000000000004

>  <m_primary>  (51) 
energy

$$$$
51:0
     RDKit          3D

 52 55  0  0  0  0  0  0  0  0999 V2000
   55.1900   28.5950   45.6730 H   0  0  0  0  0  0  0  0  0  0  0  0
   55.4840   29.0300   44.7690 N   0  0  0  0  0  0  0  0  0  0  0  0
   56.7890   29.5840   44.6140 C   0  0  0  0  0  0  0  0  0  0  0  0
   57.1820   29.9390   43.4710 O   0  0  0  0  0  0  0  0  0  0  0  0
   57.6760   29.7450   45.7790 C   0  0  0  0  0  0  0  0  0  0  0  0
   58.5320   30.7980   46.0290 C   0  0  0  0  0  0  0  0  0  0  0  0
   58.6662   31.6810   45.3868 H   0  0  0  0  0  0  0  0  0  0  0  0
   59.1800   30.5650   47.1960 N   0  0  0  0  0  0  0  0  0  0  0  0
   60.2250   31.3870   47.8480 C   0  0  0  0  0  0  0  0  0  0  0  0
   60.4770   32.6420   46.9590 C   0  0  0  0  0  0  0  0  0  0  0  0
   60.5253   32.3254   45.9067 H   0  0  0  0  0  0  0  0  0  0  0  0
   61.4220   33.1001   47.2863 H   0  0  0  0  0  0  0  0  0  0  0  0
   59.4170   33.6520   47.1000 C   0  0  0  0  0  0  0  0  0  0  0  0
   58.5840   34.4470   47.2110 N   0  0  0  0  0  0  0  0  0  0  0  0
   59.8000   31.8030   49.2900 C   0  0  0  0  0  0  0  0  0  0  0  0
   58.8767   32.3979   49.2297 H   0  0  0  0  0  0  0  0  0  0  0  0
   59.6462   30.8845   49.8754 H   0  0  0  0  0  0  0  0  0  0  0  0
   60.8800   32.6360   49.9940 C   0  0  0  0  0  0  0  0  0  0  0  0
   60.8153   33.6755   49.6401 H   0  0  0  0  0  0  0  0  0  0  0  0
   60.7056   32.5767   51.0785 H   0  0  0  0  0  0  0  0  0  0  0  0
   62.2280   32.1230   49.7190 N   0  0  0  0  0  0  0  0  0  0  0  0
   63.3680   32.8410   50.2260 C   0  0  0  0  0  0  0  0  0  0  0  0
   63.2040   33.8780   51.1570 C   0  0  0  0  0  0  0  0  0  0  0  0
   62.1965   34.1493   51.5054 H   0  0  0  0  0  0  0  0  0  0  0  0
   64.3170   34.5650   51.6410 C   0  0  0  0  0  0  0  0  0  0  0  0
   64.1650   35.5720   52.5370 F   0  0  0  0  0  0  0  0  0  0  0  0
   65.5900   34.2110   51.1910 C   0  0  0  0  0  0  0  0  0  0  0  0
   66.4738   34.7468   51.5675 H   0  0  0  0  0  0  0  0  0  0  0  0
   65.7400   33.2050   50.2880 N   0  0  0  0  0  0  0  0  0  0  0  0
   66.6990   32.9500   49.9620 H   0  0  0  0  0  0  0  0  0  0  0  0
   64.6690   32.5210   49.8000 C   0  0  0  0  0  0  0  0  0  0  0  0
   64.8223   31.7138   49.0686 H   0  0  0  0  0  0  0  0  0  0  0  0
   62.3930   30.7650   49.1870 C   0  0  0  0  0  0  0  0  0  0  0  0
   63.4513   30.6086   48.9311 H   0  0  0  0  0  0  0  0  0  0  0  0
   62.0642   30.0526   49.9580 H   0  0  0  0  0  0  0  0  0  0  0  0
   61.5360   30.5380   47.9270 C   0  0  0  0  0  0  0  0  0  0  0  0
   62.1519   30.7816   47.0488 H   0  0  0  0  0  0  0  0  0  0  0  0
   61.2154   29.4864   47.9628 H   0  0  0  0  0  0  0  0  0  0  0  0
   58.7790   29.4000   47.6920 N   0  0  0  0  0  0  0  0  0  0  0  0
   57.8550   28.8960   46.8530 C   0  0  0  0  0  0  0  0  0  0  0  0
   57.2670   27.7450   47.0050 N   0  0  0  0  0  0  0  0  0  0  0  0
   57.1210   26.7190   46.0090 C   0  0  0  0  0  0  0  0  0  0  0  0
   57.9740   26.6320   44.8910 C   0  0  0  0  0  0  0  0  0  0  0  0
   58.7702   27.3776   44.7491 H   0  0  0  0  0  0  0  0  0  0  0  0
   57.8110   25.6000   43.9610 C   0  0  0  0  0  0  0  0  0  0  0  0
   58.4698   25.5446   43.0819 H   0  0  0  0  0  0  0  0  0  0  0  0
   56.8130   24.6390   44.1460 C   0  0  0  0  0  0  0  0  0  0  0  0
   56.6130   23.3440   42.9800 Cl  0  0  0  0  0  0  0  0  0  0  0  0
   55.9840   24.7030   45.2690 C   0  0  0  0  0  0  0  0  0  0  0  0
   55.2046   23.9417   45.4204 H   0  0  0  0  0  0  0  0  0  0  0  0
   56.1440   25.7340   46.2010 C   0  0  0  0  0  0  0  0  0  0  0  0
   55.4981   25.7713   47.0906 H   0  0  0  0  0  0  0  0  0  0  0  0
  1  2  1  0
  2  3  1  0
  3  4  2  0
  3  5  1  0
  5  6  2  0
  6  7  1  0
  6  8  1  0
  8  9  1  0
  9 10  1  0
 10 11  1  0
 10 12  1  0
 10 13  1  0
 13 14  3  0
  9 15  1  0
 15 16  1  0
 15 17  1  0
 15 18  1  0
 18 19  1  0
 18 20  1  0
 18 21  1  0
 21 22  1  0
 22 23  2  0
 23 24  1  0
 23 25  1  0
 25 26  1  0
 25 27  2  0
 27 28  1  0
 27 29  1  0
 29 30  1  0
 29 31  2  0
 31 32  1  0
 21 33  1  0
 33 34  1  0
 33 35  1  0
 33 36  1  0
 36 37  1  0
 36 38  1  0
  8 39  1  0
 39 40  1  0
 40 41  2  0
 41 42  1  0
 42 43  2  0
 43 44  1  0
 43 45  1  0
 45 46  1  0
 45 47  2  0
 47 48  1  0
 47 49  1  0
 49 50  1  0
 49 51  2  0
 51 52  1  0
 40  5  1  0
 51 42  1  0
 36  9  1  0
 31 22  1  0
M  CHG  3   2  -1  29   1  39  -1
M  END
>  <UniqueID>  (52) 
44

>  <SMILES>  (52) 
N#CCC1(n2cc(C([NH-])=O)/c(=N/c3ccc(Cl)cc3)[n-]2)CCN(c2c[nH+]cc(F)c2)CC1

>  <Energy>  (52) 
101.4212728563355

>  <Genealogy>  (52) 
N#CCC1(n2cc(C([NH-])=O)c(=Nc3ccc(Cl)cc3)[n-]2)CCN(c2c[nH+]cc(F)c2)CC1 (protonated)
N#CCC1(n2cc(C([NH-])=O)/c(=N/c3ccc(Cl)cc3)[n-]2)CCN(c2c[nH+]cc(F)c2)CC1 (cis-trans isomerization)
N#CCC1(n2cc(C([NH-])=O)/c(=N/c3ccc(Cl)cc3)[n-]2)CCN(c2c[nH+]cc(F)c2)CC1 (3D coordinates assigned)
N#CCC1(n2cc(C([NH-])=O)/c(=N/c3ccc(Cl)cc3)[n-]2)CCN(c2c[nH+]cc(F)c2)CC1 (nonaromatic ring conformer: 101.4212728563355 kcal/mol)

>  <smiles>  (52) 
N#CCC1(n2cc(C(N)=O)c(=Nc3ccc(Cl)cc3)[nH]2)CCN(c2cncc(F)c2)CC1

>  <score_type>  (52) 
oracle

>  <origin>  (52) 
adg

>  <m_score__min__energy>  (52) 
-10.380000000000001

>  <m_primary>  (52) 
energy

$$$$
52:0
     RDKit          3D

 33 35  0  0  0  0  0  0  0  0999 V2000
   55.1470   26.3550   45.9390 N   0  0  0  0  0  0  0  0  0  0  0  0
   56.8560   26.6010   45.8560 S   0  0  0  0  0  0  0  0  0  0  0  0
   57.5000   26.0680   47.1030 O   0  0  0  0  0  0  0  0  0  0  0  0
   57.3910   25.8610   44.6620 O   0  0  0  0  0  0  0  0  0  0  0  0
   57.2060   28.3200   45.7040 C   0  0  0  0  0  0  0  0  0  0  0  0
   58.1300   28.9320   46.5600 C   0  0  0  0  0  0  0  0  0  0  0  0
   58.4020   30.2980   46.4420 C   0  0  0  0  0  0  0  0  0  0  0  0
   57.7560   31.0690   45.4610 C   0  0  0  0  0  0  0  0  0  0  0  0
   58.0450   32.5150   45.3440 C   0  0  0  0  0  0  0  0  0  0  0  0
   57.4350   33.3900   44.4580 C   0  0  0  0  0  0  0  0  0  0  0  0
   57.9710   34.5840   44.5710 O   0  0  0  0  0  0  0  0  0  0  0  0
   58.9040   34.5350   45.4900 C   0  0  0  0  0  0  0  0  0  0  0  0
   59.6540   35.6370   45.8840 O   0  0  0  0  0  0  0  0  0  0  0  0
   59.0050   33.2620   46.0190 C   0  0  0  0  0  0  0  0  0  0  0  0
   59.8780   32.8440   47.1380 C   0  0  0  0  0  0  0  0  0  0  0  0
   61.1800   32.3800   46.8870 C   0  0  0  0  0  0  0  0  0  0  0  0
   62.0050   31.9860   47.9440 C   0  0  0  0  0  0  0  0  0  0  0  0
   61.5410   32.0580   49.2610 C   0  0  0  0  0  0  0  0  0  0  0  0
   62.3430   31.6750   50.2850 F   0  0  0  0  0  0  0  0  0  0  0  0
   60.2510   32.5270   49.5210 C   0  0  0  0  0  0  0  0  0  0  0  0
   59.4220   32.9220   48.4670 C   0  0  0  0  0  0  0  0  0  0  0  0
   56.8120   30.4540   44.6210 C   0  0  0  0  0  0  0  0  0  0  0  0
   56.5420   29.0880   44.7410 C   0  0  0  0  0  0  0  0  0  0  0  0
   54.7620   27.0920   46.5720 H   0  0  0  0  0  0  0  0  0  0  0  0
   58.6437   28.3354   47.3282 H   0  0  0  0  0  0  0  0  0  0  0  0
   59.1260   30.7721   47.1211 H   0  0  0  0  0  0  0  0  0  0  0  0
   56.6237   33.1241   43.7644 H   0  0  0  0  0  0  0  0  0  0  0  0
   61.5520   32.3265   45.8532 H   0  0  0  0  0  0  0  0  0  0  0  0
   63.0214   31.6185   47.7394 H   0  0  0  0  0  0  0  0  0  0  0  0
   59.8868   32.5856   50.5573 H   0  0  0  0  0  0  0  0  0  0  0  0
   58.4089   33.2954   48.6774 H   0  0  0  0  0  0  0  0  0  0  0  0
   56.2823   31.0515   43.8644 H   0  0  0  0  0  0  0  0  0  0  0  0
   55.8047   28.6148   44.0759 H   0  0  0  0  0  0  0  0  0  0  0  0
  1  2  1  0
  2  3  2  0
  2  4  2  0
  2  5  1  0
  5  6  2  0
  6  7  1  0
  7  8  2  0
  8  9  1  0
  9 10  2  0
 10 11  1  0
 11 12  1  0
 12 13  1  0
 12 14  2  0
 14 15  1  0
 15 16  2  0
 16 17  1  0
 17 18  2  0
 18 19  1  0
 18 20  1  0
 20 21  2  0
  8 22  1  0
 22 23  2  0
 23  5  1  0
 14  9  1  0
 21 15  1  0
  1 24  1  0
  6 25  1  0
  7 26  1  0
 10 27  1  0
 16 28  1  0
 17 29  1  0
 20 30  1  0
 21 31  1  0
 22 32  1  0
 23 33  1  0
M  CHG  2   1  -1  13  -1
M  END
>  <UniqueID>  (53) 
45

>  <SMILES>  (53) 
[NH-]S(=O)(=O)c1ccc(-c2coc([O-])c2-c2ccc(F)cc2)cc1

>  <Energy>  (53) 
71.94708453158287

>  <Genealogy>  (53) 
[NH-]S(=O)(=O)c1ccc(-c2coc([O-])c2-c2ccc(F)cc2)cc1 (protonated)
[NH-]S(=O)(=O)c1ccc(-c2coc([O-])c2-c2ccc(F)cc2)cc1 (3D coordinates assigned)
[NH-]S(=O)(=O)c1ccc(-c2coc([O-])c2-c2ccc(F)cc2)cc1 (optimized conformer: 71.94708453158287 kcal/mol)

>  <smiles>  (53) 
NS(=O)(=O)c1ccc(-c2coc(O)c2-c2ccc(F)cc2)cc1

>  <score_type>  (53) 
oracle

>  <origin>  (53) 
adg

>  <m_score__min__energy>  (53) 
-11.26

>  <m_primary>  (53) 
energy

$$$$
53:0
     RDKit          3D

 60 62  0  0  0  0  0  0  0  0999 V2000
   57.6374   20.8563   48.4502 H   0  0  0  0  0  0  0  0  0  0  0  0
   56.8030   21.4800   48.0970 C   0  0  0  0  0  0  0  0  0  0  0  0
   56.9930   22.8090   47.8810 N   0  0  0  0  0  0  0  0  0  0  0  0
   55.9960   23.6250   47.4360 C   0  0  0  0  0  0  0  0  0  0  0  0
   56.2590   24.8870   47.2550 N   0  0  0  0  0  0  0  0  0  0  0  0
   56.0110   25.6630   46.0740 C   0  0  0  0  0  0  0  0  0  0  0  0
   54.9500   26.3400   45.9980 O   0  0  0  0  0  0  0  0  0  0  0  0
   57.0470   25.7840   44.9880 C   0  0  0  0  0  0  0  0  0  0  0  0
   57.1637   24.8069   44.4964 H   0  0  0  0  0  0  0  0  0  0  0  0
   56.7062   26.5473   44.2729 H   0  0  0  0  0  0  0  0  0  0  0  0
   58.4060   26.2250   45.5460 C   0  0  0  0  0  0  0  0  0  0  0  0
   58.6889   25.5456   46.3636 H   0  0  0  0  0  0  0  0  0  0  0  0
   59.1331   26.1903   44.7213 H   0  0  0  0  0  0  0  0  0  0  0  0
   58.3820   27.6430   46.0790 C   0  0  0  0  0  0  0  0  0  0  0  0
   58.0590   27.8300   47.2440 O   0  0  0  0  0  0  0  0  0  0  0  0
   58.7640   28.7630   45.2340 N   0  0  1  0  0  0  0  0  0  0  0  0
   59.6740   28.5230   44.7730 H   0  0  0  0  0  0  0  0  0  0  0  0
   57.7790   29.0020   44.1510 C   0  0  0  0  0  0  0  0  0  0  0  0
   58.2433   29.6407   43.3852 H   0  0  0  0  0  0  0  0  0  0  0  0
   57.4898   28.0246   43.7375 H   0  0  0  0  0  0  0  0  0  0  0  0
   56.5350   29.6750   44.6510 C   0  0  0  0  0  0  0  0  0  0  0  0
   55.5290   28.9860   44.9660 O   0  0  0  0  0  0  0  0  0  0  0  0
   56.5080   31.0990   44.7880 N   0  0  0  0  0  0  0  0  0  0  0  0
   57.3870   31.9740   44.0250 C   0  0  0  0  0  0  0  0  0  0  0  0
   58.1898   31.3760   43.5691 H   0  0  0  0  0  0  0  0  0  0  0  0
   56.8032   32.4759   43.2393 H   0  0  0  0  0  0  0  0  0  0  0  0
   57.9940   33.0160   44.9330 C   0  0  0  0  0  0  0  0  0  0  0  0
   57.6180   33.0850   46.2910 C   0  0  0  0  0  0  0  0  0  0  0  0
   56.8956   32.3604   46.6948 H   0  0  0  0  0  0  0  0  0  0  0  0
   58.1570   34.0680   47.1280 C   0  0  0  0  0  0  0  0  0  0  0  0
   57.8358   34.1345   48.1780 H   0  0  0  0  0  0  0  0  0  0  0  0
   59.1030   34.9640   46.6280 C   0  0  0  0  0  0  0  0  0  0  0  0
   59.5174   35.7455   47.2819 H   0  0  0  0  0  0  0  0  0  0  0  0
   59.5270   34.8710   45.2940 C   0  0  0  0  0  0  0  0  0  0  0  0
   60.3006   35.5544   44.9139 H   0  0  0  0  0  0  0  0  0  0  0  0
   58.9660   33.9090   44.4470 C   0  0  0  0  0  0  0  0  0  0  0  0
   59.2865   33.8508   43.3963 H   0  0  0  0  0  0  0  0  0  0  0  0
   59.0570   29.9810   46.0370 C   0  0  0  0  0  0  0  0  0  0  0  0
   58.7115   30.8512   45.4597 H   0  0  0  0  0  0  0  0  0  0  0  0
   58.5371   29.8267   46.9940 H   0  0  0  0  0  0  0  0  0  0  0  0
   60.5430   30.2290   46.4170 C   0  0  0  0  0  0  0  0  0  0  0  0
   60.9379   29.3120   46.8787 H   0  0  0  0  0  0  0  0  0  0  0  0
   61.0645   30.4990   45.4869 H   0  0  0  0  0  0  0  0  0  0  0  0
   60.7570   31.3720   47.3790 C   0  0  0  0  0  0  0  0  0  0  0  0
   59.9480   31.5000   48.5210 C   0  0  0  0  0  0  0  0  0  0  0  0
   59.1898   30.7348   48.7439 H   0  0  0  0  0  0  0  0  0  0  0  0
   60.1030   32.5950   49.3740 C   0  0  0  0  0  0  0  0  0  0  0  0
   59.4505   32.7050   50.2527 H   0  0  0  0  0  0  0  0  0  0  0  0
   61.0880   33.5510   49.1100 C   0  0  0  0  0  0  0  0  0  0  0  0
   61.2046   34.4170   49.7781 H   0  0  0  0  0  0  0  0  0  0  0  0
   61.9250   33.4100   48.0000 C   0  0  0  0  0  0  0  0  0  0  0  0
   62.7128   34.1529   47.8064 H   0  0  0  0  0  0  0  0  0  0  0  0
   61.7600   32.3250   47.1370 C   0  0  0  0  0  0  0  0  0  0  0  0
   62.4189   32.2159   46.2630 H   0  0  0  0  0  0  0  0  0  0  0  0
   54.7120   23.0820   47.2310 C   0  0  0  0  0  0  0  0  0  0  0  0
   53.8838   23.7278   46.9039 H   0  0  0  0  0  0  0  0  0  0  0  0
   54.4970   21.7170   47.4460 C   0  0  0  0  0  0  0  0  0  0  0  0
   53.4995   21.2839   47.2802 H   0  0  0  0  0  0  0  0  0  0  0  0
   55.5490   20.9050   47.8710 C   0  0  0  0  0  0  0  0  0  0  0  0
   55.2930   19.1900   48.1450 Cl  0  0  0  0  0  0  0  0  0  0  0  0
  1  2  1  0
  2  3  1  0
  3  4  1  0
  4  5  2  0
  5  6  1  0
  6  7  2  0
  6  8  1  0
  8  9  1  0
  8 10  1  0
  8 11  1  0
 11 12  1  0
 11 13  1  0
 11 14  1  0
 14 15  2  0
 14 16  1  0
 16 17  1  6
 16 18  1  0
 18 19  1  0
 18 20  1  0
 18 21  1  0
 21 22  2  0
 21 23  1  0
 23 24  1  0
 24 25  1  0
 24 26  1  0
 24 27  1  0
 27 28  2  0
 28 29  1  0
 28 30  1  0
 30 31  1  0
 30 32  2  0
 32 33  1  0
 32 34  1  0
 34 35  1  0
 34 36  2  0
 36 37  1  0
 16 38  1  0
 38 39  1  0
 38 40  1  0
 38 41  1  0
 41 42  1  0
 41 43  1  0
 41 44  1  0
 44 45  2  0
 45 46  1  0
 45 47  1  0
 47 48  1  0
 47 49  2  0
 49 50  1  0
 49 51  1  0
 51 52  1  0
 51 53  2  0
 53 54  1  0
  4 55  1  0
 55 56  1  0
 55 57  2  0
 57 58  1  0
 57 59  1  0
 59 60  1  0
 59  2  2  0
 36 27  1  0
 53 44  1  0
M  CHG  3   3  -1  16   1  23  -1
M  END
>  <UniqueID>  (54) 
46

>  <SMILES>  (54) 
O=C(CCC(=O)[N@H+](CCc1ccccc1)CC(=O)[N-]Cc1ccccc1)/N=c1\ccc(Cl)c[n-]1

>  <Energy>  (54) 
75.05770285329541

>  <Genealogy>  (54) 
O=C(CCC(=O)[NH+](CCc1ccccc1)CC(=O)[N-]Cc1ccccc1)N=c1ccc(Cl)c[n-]1 (protonated)
O=C(CCC(=O)[N@H+](CCc1ccccc1)CC(=O)[N-]Cc1ccccc1)N=c1ccc(Cl)c[n-]1 (chirality)
O=C(CCC(=O)[N@H+](CCc1ccccc1)CC(=O)[N-]Cc1ccccc1)/N=c1\ccc(Cl)c[n-]1 (cis-trans isomerization)
O=C(CCC(=O)[N@H+](CCc1ccccc1)CC(=O)[N-]Cc1ccccc1)/N=c1\ccc(Cl)c[n-]1 (3D coordinates assigned)
O=C(CCC(=O)[N@H+](CCc1ccccc1)CC(=O)[N-]Cc1ccccc1)/N=c1\ccc(Cl)c[n-]1 (optimized conformer: 75.05770285329541 kcal/mol)

>  <smiles>  (54) 
O=C(CCC(=O)N(CCc1ccccc1)CC(=O)NCc1ccccc1)N=c1ccc(Cl)c[nH]1

>  <score_type>  (54) 
oracle

>  <origin>  (54) 
adg

>  <m_score__min__energy>  (54) 
-11

>  <m_primary>  (54) 
energy

$$$$
54:0
     RDKit          3D

 57 60  0  0  0  0  0  0  0  0999 V2000
   57.2970   26.8577   43.1686 H   0  0  0  0  0  0  0  0  0  0  0  0
   57.4060   27.1330   44.2280 C   0  0  0  0  0  0  0  0  0  0  0  0
   57.3970   26.0460   45.2320 C   0  0  0  0  0  0  0  0  0  0  0  0
   58.5140   25.2090   45.4050 C   0  0  0  0  0  0  0  0  0  0  0  0
   59.4005   25.3421   44.7674 H   0  0  0  0  0  0  0  0  0  0  0  0
   58.5050   24.2090   46.3820 C   0  0  0  0  0  0  0  0  0  0  0  0
   59.3771   23.5492   46.5010 H   0  0  0  0  0  0  0  0  0  0  0  0
   57.3900   24.0470   47.2070 C   0  0  0  0  0  0  0  0  0  0  0  0
   57.3820   23.0520   48.1780 O   0  0  0  0  0  0  0  0  0  0  0  0
   56.2840   24.8890   47.0600 C   0  0  0  0  0  0  0  0  0  0  0  0
   55.4085   24.7632   47.7139 H   0  0  0  0  0  0  0  0  0  0  0  0
   56.2870   25.8910   46.0840 C   0  0  0  0  0  0  0  0  0  0  0  0
   55.1780   26.7210   45.9580 O   0  0  0  0  0  0  0  0  0  0  0  0
   57.5390   28.4350   44.5300 C   0  0  0  0  0  0  0  0  0  0  0  0
   56.3600   29.6430   44.3540 S   0  0  0  0  0  0  0  0  0  0  0  0
   57.3520   30.8350   44.9930 C   0  0  0  0  0  0  0  0  0  0  0  0
   58.5590   30.3590   45.3610 N   0  0  0  0  0  0  0  0  0  0  0  0
   58.6720   29.0230   45.1030 C   0  0  0  0  0  0  0  0  0  0  0  0
   59.7220   28.3770   45.3700 O   0  0  0  0  0  0  0  0  0  0  0  0
   59.5870   31.1950   46.0010 C   0  0  2  0  0  0  0  0  0  0  0  0
   60.5040   31.1079   45.3997 H   0  0  0  0  0  0  0  0  0  0  0  0
   59.8360   30.7070   47.4140 C   0  0  0  0  0  0  0  0  0  0  0  0
   61.1210   30.7740   47.9750 C   0  0  0  0  0  0  0  0  0  0  0  0
   61.9490   31.2015   47.3906 H   0  0  0  0  0  0  0  0  0  0  0  0
   61.3580   30.3030   49.2680 C   0  0  0  0  0  0  0  0  0  0  0  0
   62.3711   30.3656   49.6919 H   0  0  0  0  0  0  0  0  0  0  0  0
   60.3140   29.7480   50.0370 C   0  0  0  0  0  0  0  0  0  0  0  0
   60.5580   29.2540   51.3800 N   0  0  0  0  0  0  0  0  0  0  0  0
   61.5630   28.2110   51.6190 C   0  0  0  0  0  0  0  0  0  0  0  0
   61.6969   28.0721   52.7019 H   0  0  0  0  0  0  0  0  0  0  0  0
   61.2258   27.2665   51.1671 H   0  0  0  0  0  0  0  0  0  0  0  0
   62.5194   28.5129   51.1671 H   0  0  0  0  0  0  0  0  0  0  0  0
   59.8040   29.7890   52.5200 C   0  0  0  0  0  0  0  0  0  0  0  0
   60.2726   29.4565   53.4580 H   0  0  0  0  0  0  0  0  0  0  0  0
   59.8069   30.8882   52.4782 H   0  0  0  0  0  0  0  0  0  0  0  0
   58.7674   29.4232   52.4782 H   0  0  0  0  0  0  0  0  0  0  0  0
   59.0260   29.6840   49.4650 C   0  0  0  0  0  0  0  0  0  0  0  0
   58.1950   29.2568   50.0455 H   0  0  0  0  0  0  0  0  0  0  0  0
   58.7920   30.1560   48.1710 C   0  0  0  0  0  0  0  0  0  0  0  0
   57.7807   30.0949   47.7425 H   0  0  0  0  0  0  0  0  0  0  0  0
   59.1910   32.6700   46.0360 C   0  0  0  0  0  0  0  0  0  0  0  0
   60.1910   33.6290   46.5740 C   0  0  0  0  0  0  0  0  0  0  0  0
   59.7950   34.6290   47.2340 O   0  0  0  0  0  0  0  0  0  0  0  0
   61.5550   33.4640   46.3050 O   0  0  0  0  0  0  0  0  0  0  0  0
   62.5850   33.8110   47.2290 C   0  0  0  0  0  0  0  0  0  0  0  0
   62.1858   33.7574   48.2526 H   0  0  0  0  0  0  0  0  0  0  0  0
   62.9304   34.8319   47.0090 H   0  0  0  0  0  0  0  0  0  0  0  0
   63.7640   32.8540   47.1000 C   0  0  0  0  0  0  0  0  0  0  0  0
   64.1158   32.5684   48.1023 H   0  0  0  0  0  0  0  0  0  0  0  0
   63.4476   31.9541   46.5523 H   0  0  0  0  0  0  0  0  0  0  0  0
   64.5796   33.3487   46.5523 H   0  0  0  0  0  0  0  0  0  0  0  0
   57.9550   33.0550   45.6160 C   0  0  0  0  0  0  0  0  0  0  0  0
   57.5020   34.4870   45.6220 C   0  0  0  0  0  0  0  0  0  0  0  0
   57.3927   34.8326   46.6605 H   0  0  0  0  0  0  0  0  0  0  0  0
   58.2471   35.1095   45.1049 H   0  0  0  0  0  0  0  0  0  0  0  0
   56.5345   34.5677   45.1049 H   0  0  0  0  0  0  0  0  0  0  0  0
   57.0300   32.0830   45.1050 N   0  0  0  0  0  0  0  0  0  0  0  0
  1  2  1  0
  2  3  1  0
  3  4  2  0
  4  5  1  0
  4  6  1  0
  6  7  1  0
  6  8  2  0
  8  9  1  0
  8 10  1  0
 10 11  1  0
 10 12  2  0
 12 13  1  0
  2 14  2  0
 14 15  1  0
 15 16  1  0
 16 17  1  0
 17 18  1  0
 18 19  2  0
 17 20  1  0
 20 21  1  6
 20 22  1  0
 22 23  2  0
 23 24  1  0
 23 25  1  0
 25 26  1  0
 25 27  2  0
 27 28  1  0
 28 29  1  0
 29 30  1  0
 29 31  1  0
 29 32  1  0
 28 33  1  0
 33 34  1  0
 33 35  1  0
 33 36  1  0
 27 37  1  0
 37 38  1  0
 37 39  2  0
 39 40  1  0
 20 41  1  0
 41 42  1  0
 42 43  2  0
 42 44  1  0
 44 45  1  0
 45 46  1  0
 45 47  1  0
 45 48  1  0
 48 49  1  0
 48 50  1  0
 48 51  1  0
 41 52  2  0
 52 53  1  0
 53 54  1  0
 53 55  1  0
 53 56  1  0
 52 57  1  0
 12  3  1  0
 18 14  1  0
 39 22  1  0
 57 16  2  0
M  CHG  2   9  -1  13  -1
M  END
>  <UniqueID>  (55) 
47

>  <SMILES>  (55) 
CCOC(=O)C1=C(C)N=c2s/c(=C\c3ccc([O-])cc3[O-])c(=O)n2[C@@H]1c1ccc(N(C)C)cc1

>  <Energy>  (55) 
102.77685265270694

>  <Genealogy>  (55) 
CCOC(=O)C1=C(C)N=c2sc(=Cc3ccc([O-])cc3[O-])c(=O)n2C1c1ccc(N(C)C)cc1 (protonated)
CCOC(=O)C1=C(C)N=c2sc(=Cc3ccc([O-])cc3[O-])c(=O)n2[C@@H]1c1ccc(N(C)C)cc1 (chirality)
CCOC(=O)C1=C(C)N=c2s/c(=C\c3ccc([O-])cc3[O-])c(=O)n2[C@@H]1c1ccc(N(C)C)cc1 (cis-trans isomerization)
CCOC(=O)C1=C(C)N=c2s/c(=C\c3ccc([O-])cc3[O-])c(=O)n2[C@@H]1c1ccc(N(C)C)cc1 (3D coordinates assigned)
CCOC(=O)C1=C(C)N=c2s/c(=C\c3ccc([O-])cc3[O-])c(=O)n2[C@@H]1c1ccc(N(C)C)cc1 (nonaromatic ring conformer: 102.77685265270694 kcal/mol)

>  <smiles>  (55) 
CCOC(=O)C1=C(C)N=c2sc(=Cc3ccc(O)cc3O)c(=O)n2C1c1ccc(N(C)C)cc1

>  <score_type>  (55) 
oracle

>  <origin>  (55) 
adg

>  <m_score__min__energy>  (55) 
-14.460000000000001

>  <m_primary>  (55) 
energy

$$$$
55:0
     RDKit          3D

 36 37  0  0  0  0  0  0  0  0999 V2000
   58.2200   33.8560   44.9310 C   0  0  0  0  0  0  0  0  0  0  0  0
   57.3760   32.5940   45.1350 C   0  0  0  0  0  0  0  0  0  0  0  0
   57.5380   31.5320   44.0240 C   0  0  2  0  0  0  0  0  0  0  0  0
   57.7960   32.1660   42.6550 C   0  0  0  0  0  0  0  0  0  0  0  0
   56.0900   30.4090   43.9090 S   0  0  0  0  0  0  0  0  0  0  0  0
   56.7660   29.1520   44.9900 C   0  0  0  0  0  0  0  0  0  0  0  0
   56.0540   28.0260   45.2500 N   0  0  0  0  0  0  0  0  0  0  0  0
   56.5450   27.0660   46.0760 C   0  0  0  0  0  0  0  0  0  0  0  0
   55.8680   26.0290   46.3040 O   0  0  0  0  0  0  0  0  0  0  0  0
   57.7960   27.2320   46.6710 C   0  0  0  0  0  0  0  0  0  0  0  0
   58.5200   28.3970   46.3890 C   0  0  0  0  0  0  0  0  0  0  0  0
   59.8550   28.6510   47.0270 C   0  0  0  0  0  0  0  0  0  0  0  0
   59.9520   30.0870   47.4680 C   0  0  0  0  0  0  0  0  0  0  0  0
   60.7460   30.9910   46.7410 C   0  0  0  0  0  0  0  0  0  0  0  0
   60.8160   32.3340   47.1230 C   0  0  0  0  0  0  0  0  0  0  0  0
   60.0890   32.7880   48.2250 C   0  0  0  0  0  0  0  0  0  0  0  0
   59.2860   31.9000   48.9470 C   0  0  0  0  0  0  0  0  0  0  0  0
   59.2120   30.5550   48.5710 C   0  0  0  0  0  0  0  0  0  0  0  0
   58.4170   29.7120   49.2780 F   0  0  0  0  0  0  0  0  0  0  0  0
   57.9820   29.3360   45.5650 N   0  0  0  0  0  0  0  0  0  0  0  0
   58.4988   34.2729   45.9100 H   0  0  0  0  0  0  0  0  0  0  0  0
   59.1302   33.6014   44.3682 H   0  0  0  0  0  0  0  0  0  0  0  0
   57.6371   34.6000   44.3682 H   0  0  0  0  0  0  0  0  0  0  0  0
   57.6659   32.1372   46.0927 H   0  0  0  0  0  0  0  0  0  0  0  0
   56.3235   32.9130   45.1137 H   0  0  0  0  0  0  0  0  0  0  0  0
   58.4175   30.9378   44.3130 H   0  0  0  0  0  0  0  0  0  0  0  0
   58.2074   33.1771   42.7908 H   0  0  0  0  0  0  0  0  0  0  0  0
   58.5149   31.5498   42.0951 H   0  0  0  0  0  0  0  0  0  0  0  0
   56.8511   32.2268   42.0951 H   0  0  0  0  0  0  0  0  0  0  0  0
   58.2042   26.4654   47.3461 H   0  0  0  0  0  0  0  0  0  0  0  0
   59.9718   27.9932   47.9009 H   0  0  0  0  0  0  0  0  0  0  0  0
   60.6494   28.4445   46.2947 H   0  0  0  0  0  0  0  0  0  0  0  0
   61.3149   30.6400   45.8674 H   0  0  0  0  0  0  0  0  0  0  0  0
   61.4452   33.0344   46.5541 H   0  0  0  0  0  0  0  0  0  0  0  0
   60.1480   33.8446   48.5253 H   0  0  0  0  0  0  0  0  0  0  0  0
   58.7110   32.2601   49.8129 H   0  0  0  0  0  0  0  0  0  0  0  0
  1  2  1  0
  2  3  1  0
  3  4  1  0
  3  5  1  0
  5  6  1  0
  6  7  2  0
  7  8  1  0
  8  9  2  0
  8 10  1  0
 10 11  2  0
 11 12  1  0
 12 13  1  0
 13 14  2  0
 14 15  1  0
 15 16  2  0
 16 17  1  0
 17 18  2  0
 18 19  1  0
 11 20  1  0
 20  6  1  0
 18 13  1  0
  1 21  1  0
  1 22  1  0
  1 23  1  0
  2 24  1  0
  2 25  1  0
  3 26  1  1
  4 27  1  0
  4 28  1  0
  4 29  1  0
 10 30  1  0
 12 31  1  0
 12 32  1  0
 14 33  1  0
 15 34  1  0
 16 35  1  0
 17 36  1  0
M  CHG  1  20  -1
M  END
>  <UniqueID>  (56) 
48

>  <SMILES>  (56) 
CC[C@H](C)Sc1nc(=O)cc(Cc2ccccc2F)[n-]1

>  <Energy>  (56) 
27.610418194623026

>  <Genealogy>  (56) 
CCC(C)Sc1nc(=O)cc(Cc2ccccc2F)[n-]1 (protonated)
CC[C@H](C)Sc1nc(=O)cc(Cc2ccccc2F)[n-]1 (chirality)
CC[C@H](C)Sc1nc(=O)cc(Cc2ccccc2F)[n-]1 (3D coordinates assigned)
CC[C@H](C)Sc1nc(=O)cc(Cc2ccccc2F)[n-]1 (optimized conformer: 27.610418194623026 kcal/mol)

>  <smiles>  (56) 
CCC(C)Sc1nc(=O)cc(Cc2ccccc2F)[nH]1

>  <score_type>  (56) 
oracle

>  <origin>  (56) 
adg

>  <m_score__min__energy>  (56) 
-8.2300000000000004

>  <m_primary>  (56) 
energy

$$$$
56:0
     RDKit          3D

 31 33  0  0  0  0  0  0  0  0999 V2000
   55.7040   28.3390   44.5030 H   0  0  0  0  0  0  0  0  0  0  0  0
   55.5320   29.3390   44.7520 N   0  0  0  0  0  0  0  0  0  0  0  0
   56.3090   30.2830   44.3310 C   0  0  0  0  0  0  0  0  0  0  0  0
   56.9350   31.0900   45.2260 N   0  0  0  0  0  0  0  0  0  0  0  0
   57.7610   32.0940   44.8210 C   0  0  0  0  0  0  0  0  0  0  0  0
   58.4180   32.9460   45.8310 C   0  0  0  0  0  0  0  0  0  0  0  0
   58.1880   32.8790   47.5010 S   0  0  0  0  0  0  0  0  0  0  0  0
   59.2750   34.1260   47.8050 C   0  0  0  0  0  0  0  0  0  0  0  0
   59.6580   34.6130   49.1650 C   0  0  0  0  0  0  0  0  0  0  0  0
   60.3067   35.4954   49.0623 H   0  0  0  0  0  0  0  0  0  0  0  0
   58.7423   34.8720   49.7167 H   0  0  0  0  0  0  0  0  0  0  0  0
   60.5520   33.3180   50.0920 S   0  0  0  0  0  0  0  0  0  0  0  0
   61.8020   33.0510   48.8300 C   0  0  0  0  0  0  0  0  0  0  0  0
   62.7200   34.0660   48.5250 C   0  0  0  0  0  0  0  0  0  0  0  0
   62.6719   35.0280   49.0562 H   0  0  0  0  0  0  0  0  0  0  0  0
   63.6960   33.8570   47.5470 C   0  0  0  0  0  0  0  0  0  0  0  0
   64.4202   34.6515   47.3141 H   0  0  0  0  0  0  0  0  0  0  0  0
   63.7520   32.6370   46.8640 C   0  0  0  0  0  0  0  0  0  0  0  0
   64.5202   32.4727   46.0940 H   0  0  0  0  0  0  0  0  0  0  0  0
   62.8320   31.6270   47.1600 C   0  0  0  0  0  0  0  0  0  0  0  0
   62.8758   30.6687   46.6217 H   0  0  0  0  0  0  0  0  0  0  0  0
   61.8560   31.8340   48.1400 C   0  0  0  0  0  0  0  0  0  0  0  0
   61.1301   31.0399   48.3689 H   0  0  0  0  0  0  0  0  0  0  0  0
   59.8260   34.5950   46.6640 N   0  0  0  0  0  0  0  0  0  0  0  0
   59.3500   33.9480   45.5670 C   0  0  0  0  0  0  0  0  0  0  0  0
   59.6764   34.1970   44.5465 H   0  0  0  0  0  0  0  0  0  0  0  0
   57.9670   32.2960   43.4490 C   0  0  0  0  0  0  0  0  0  0  0  0
   58.6284   33.0996   43.0930 H   0  0  0  0  0  0  0  0  0  0  0  0
   57.3160   31.4570   42.5450 C   0  0  0  0  0  0  0  0  0  0  0  0
   57.4616   31.5954   41.4635 H   0  0  0  0  0  0  0  0  0  0  0  0
   56.5030   30.4700   42.9990 N   0  0  0  0  0  0  0  0  0  0  0  0
  1  2  1  0
  2  3  2  0
  3  4  1  0
  4  5  2  0
  5  6  1  0
  6  7  1  0
  7  8  1  0
  8  9  1  0
  9 10  1  0
  9 11  1  0
  9 12  1  0
 12 13  1  0
 13 14  2  0
 14 15  1  0
 14 16  1  0
 16 17  1  0
 16 18  2  0
 18 19  1  0
 18 20  1  0
 20 21  1  0
 20 22  2  0
 22 23  1  0
  8 24  2  0
 24 25  1  0
 25 26  1  0
  5 27  1  0
 27 28  1  0
 27 29  2  0
 29 30  1  0
 29 31  1  0
 31  3  1  0
 25  6  2  0
 22 13  1  0
M  CHG  1  31  -1
M  END
>  <UniqueID>  (57) 
49

>  <SMILES>  (57) 
[H]/N=c1/nc(-c2cnc(CSc3ccccc3)s2)cc[n-]1

>  <Energy>  (57) 
58.90117275207821

>  <Genealogy>  (57) 
N=c1nc(-c2cnc(CSc3ccccc3)s2)cc[n-]1 (protonated)
[H]/N=c1/nc(-c2cnc(CSc3ccccc3)s2)cc[n-]1 (cis-trans isomerization)
[H]/N=c1/nc(-c2cnc(CSc3ccccc3)s2)cc[n-]1 (3D coordinates assigned)
[H]/N=c1/nc(-c2cnc(CSc3ccccc3)s2)cc[n-]1 (optimized conformer: 58.90117275207821 kcal/mol)

>  <smiles>  (57) 
N=c1nc(-c2cnc(CSc3ccccc3)s2)cc[nH]1

>  <score_type>  (57) 
oracle

>  <origin>  (57) 
adg

>  <m_score__min__energy>  (57) 
-10

>  <m_primary>  (57) 
energy

$$$$
57:0
     RDKit          3D

 27 29  0  0  1  0  0  0  0  0999 V2000
   58.7010   33.8250   45.5360 C   0  0  0  0  0  0  0  0  0  0  0  0
   58.5120   33.7090   44.1820 C   0  0  0  0  0  0  0  0  0  0  0  0
   57.8370   32.6290   43.7090 C   0  0  0  0  0  0  0  0  0  0  0  0
   57.3550   31.6730   44.5760 C   0  0  0  0  0  0  0  0  0  0  0  0
   56.5940   30.4580   44.0510 C   0  0  0  0  0  0  0  0  0  0  0  0
   56.2830   29.6940   45.2250 N   0  0  0  0  0  0  0  0  0  0  0  0
   56.9020   28.6340   45.5210 C   0  0  0  0  0  0  0  0  0  0  0  0
   56.1730   27.4950   45.6170 N   0  0  0  0  0  0  0  0  0  0  0  0
   56.6980   26.3020   45.9250 C   0  0  0  0  0  0  0  0  0  0  0  0
   58.0220   26.2230   46.1510 N   0  0  0  0  0  0  0  0  0  0  0  0
   58.7800   27.3350   46.0630 C   0  0  0  0  0  0  0  0  0  0  0  0
   60.0790   27.5190   46.2360 N   0  0  0  0  0  0  0  0  0  0  0  0
   60.3440   28.8010   46.0390 C   0  0  0  0  0  0  0  0  0  0  0  0
   59.2050   29.4940   45.7280 N   0  0  0  0  0  0  0  0  0  0  0  0
   58.2470   28.5770   45.7460 C   0  0  0  0  0  0  0  0  0  0  0  0
   57.5650   31.8310   45.8940 N   0  0  0  0  0  0  0  0  0  0  0  0
   58.2260   32.8790   46.4150 C   0  0  0  0  0  0  0  0  0  0  0  0
   59.2459   34.6961   45.9287 H   0  0  0  0  0  0  0  0  0  0  0  0
   58.8990   34.4747   43.4936 H   0  0  0  0  0  0  0  0  0  0  0  0
   57.6743   32.5172   42.6269 H   0  0  0  0  0  0  0  0  0  0  0  0
   55.6740   30.7689   43.5344 H   0  0  0  0  0  0  0  0  0  0  0  0
   57.1797   29.8815   43.3198 H   0  0  0  0  0  0  0  0  0  0  0  0
   55.1470   27.5330   45.4470 H   0  0  0  0  0  0  0  0  0  0  0  0
   56.0614   25.4074   45.9917 H   0  0  0  0  0  0  0  0  0  0  0  0
   61.3455   29.2495   46.1150 H   0  0  0  0  0  0  0  0  0  0  0  0
   59.2640   30.5000   45.5490 H   0  0  0  0  0  0  0  0  0  0  0  0
   58.3809   32.9764   47.4997 H   0  0  0  0  0  0  0  0  0  0  0  0
  1  2  2  0
  2  3  1  0
  3  4  2  0
  4  5  1  0
  5  6  1  0
  6  7  2  0
  7  8  1  0
  8  9  1  0
  9 10  2  0
 10 11  1  0
 11 12  1  0
 12 13  2  0
 13 14  1  0
 14 15  1  0
  4 16  1  0
 16 17  2  0
 17  1  1  0
 15  7  1  0
 15 11  2  0
  1 18  1  0
  2 19  1  0
  3 20  1  0
  5 21  1  0
  5 22  1  0
  8 23  1  0
  9 24  1  0
 13 25  1  0
 14 26  1  0
 17 27  1  0
M  END
>  <smiles>  (58) 
c1ccc(CN=c2[nH]cnc3nc[nH]c23)nc1

>  <score_type>  (58) 
oracle

>  <origin>  (58) 
adg

>  <m_score__min__energy>  (58) 
-6.0499999999999998

>  <m_primary>  (58) 
energy

$$$$
58:0
     RDKit          3D

 29 30  0  0  0  0  0  0  0  0999 V2000
   58.9270   25.9362   46.2597 H   0  0  0  0  0  0  0  0  0  0  0  0
   58.2850   26.7350   45.8600 C   0  0  0  0  0  0  0  0  0  0  0  0
   58.8500   27.7840   45.1170 C   0  0  0  0  0  0  0  0  0  0  0  0
   59.9334   27.8225   44.9306 H   0  0  0  0  0  0  0  0  0  0  0  0
   58.0060   28.7740   44.6220 C   0  0  0  0  0  0  0  0  0  0  0  0
   56.6520   28.7050   44.8710 C   0  0  0  0  0  0  0  0  0  0  0  0
   56.0950   27.7000   45.5890 N   0  0  0  0  0  0  0  0  0  0  0  0
   56.8820   26.7050   46.0960 C   0  0  0  0  0  0  0  0  0  0  0  0
   56.3070   25.7550   46.7800 N   0  0  0  0  0  0  0  0  0  0  0  0
   55.8280   24.4640   46.2820 C   0  0  0  0  0  0  0  0  0  0  0  0
   56.6115   24.0072   45.6596 H   0  0  0  0  0  0  0  0  0  0  0  0
   55.5941   23.8242   47.1457 H   0  0  0  0  0  0  0  0  0  0  0  0
   54.5560   24.6270   45.4430 C   0  0  0  0  0  0  0  0  0  0  0  0
   54.8015   24.4790   44.3810 H   0  0  0  0  0  0  0  0  0  0  0  0
   53.8168   23.8805   45.7692 H   0  0  0  0  0  0  0  0  0  0  0  0
   53.9910   25.9610   45.6240 N   0  0  0  0  0  0  0  0  0  0  0  0
   54.3740   26.5840   44.8760 H   0  0  0  0  0  0  0  0  0  0  0  0
   54.3510   26.3380   46.5310 H   0  0  0  0  0  0  0  0  0  0  0  0
   55.8730   30.0190   44.1750 S   0  0  0  0  0  0  0  0  0  0  0  0
   57.3330   30.6310   43.5570 C   0  0  0  0  0  0  0  0  0  0  0  0
   57.4580   31.9200   42.8090 C   0  0  0  0  0  0  0  0  0  0  0  0
   56.4583   32.2535   42.4936 H   0  0  0  0  0  0  0  0  0  0  0  0
   58.1001   31.7596   41.9304 H   0  0  0  0  0  0  0  0  0  0  0  0
   58.0890   32.9920   43.6900 C   0  0  0  0  0  0  0  0  0  0  0  0
   57.9367   32.7333   44.7482 H   0  0  0  0  0  0  0  0  0  0  0  0
   59.1668   33.0526   43.4788 H   0  0  0  0  0  0  0  0  0  0  0  0
   57.6188   33.9637   43.4788 H   0  0  0  0  0  0  0  0  0  0  0  0
   58.3930   29.8520   43.8940 N   0  0  0  0  0  0  0  0  0  0  0  0
   59.3820   30.0610   43.6300 H   0  0  0  0  0  0  0  0  0  0  0  0
  1  2  1  0
  2  3  2  0
  3  4  1  0
  3  5  1  0
  5  6  2  0
  6  7  1  0
  7  8  1  0
  8  9  2  0
  9 10  1  0
 10 11  1  0
 10 12  1  0
 10 13  1  0
 13 14  1  0
 13 15  1  0
 13 16  1  0
 16 17  1  0
 16 18  1  0
  6 19  1  0
 19 20  1  0
 20 21  1  0
 21 22  1  0
 21 23  1  0
 21 24  1  0
 24 25  1  0
 24 26  1  0
 24 27  1  0
 20 28  2  0
 28 29  1  0
  8  2  1  0
 28  5  1  0
M  CHG  2   7  -1  28   1
M  END
>  <UniqueID>  (59) 
50

>  <SMILES>  (59) 
CCc1[nH+]c2cc/c(=N\CCN)[n-]c2s1

>  <Energy>  (59) 
59.702939521507474

>  <Genealogy>  (59) 
CCc1[nH+]c2ccc(=NCCN)[n-]c2s1 (protonated)
CCc1[nH+]c2cc/c(=N\CCN)[n-]c2s1 (cis-trans isomerization)
CCc1[nH+]c2cc/c(=N\CCN)[n-]c2s1 (3D coordinates assigned)
CCc1[nH+]c2cc/c(=N\CCN)[n-]c2s1 (optimized conformer: 59.702939521507474 kcal/mol)

>  <smiles>  (59) 
CCc1nc2ccc(=NCCN)[nH]c2s1

>  <score_type>  (59) 
oracle

>  <origin>  (59) 
adg

>  <m_score__min__energy>  (59) 
-7.5499999999999998

>  <m_primary>  (59) 
energy

$$$$
59:0
     RDKit          3D

 18 18  0  0  1  0  0  0  0  0999 V2000
   56.6850   20.6440   42.6660 N   0  0  0  0  0  0  0  0  0  0  0  0
   56.6360   21.7290   43.3650 C   0  0  0  0  0  0  0  0  0  0  0  0
   56.6000   21.7300   44.7450 C   0  0  0  0  0  0  0  0  0  0  0  0
   56.5480   22.8860   45.4950 C   0  0  0  0  0  0  0  0  0  0  0  0
   56.5270   24.1110   44.8600 C   0  0  0  0  0  0  0  0  0  0  0  0
   56.4710   25.2920   45.6900 C   0  0  0  0  0  0  0  0  0  0  0  0
   55.2120   25.8000   46.0790 O   0  0  0  0  0  0  0  0  0  0  0  0
   57.4760   25.9560   46.1310 N   0  0  0  0  0  0  0  0  0  0  0  0
   57.4110   27.0140   46.9450 O   0  0  0  0  0  0  0  0  0  0  0  0
   56.5620   24.0930   43.4890 C   0  0  0  0  0  0  0  0  0  0  0  0
   56.6140   22.9380   42.7680 N   0  0  0  0  0  0  0  0  0  0  0  0
   57.0180   19.7740   43.1510 H   0  0  0  0  0  0  0  0  0  0  0  0
   56.6134   20.7639   45.2707 H   0  0  0  0  0  0  0  0  0  0  0  0
   56.5234   22.8320   46.5934 H   0  0  0  0  0  0  0  0  0  0  0  0
   55.1220   26.3440   46.9500 H   0  0  0  0  0  0  0  0  0  0  0  0
   56.5480   27.4370   47.2250 H   0  0  0  0  0  0  0  0  0  0  0  0
   56.5475   25.0512   42.9489 H   0  0  0  0  0  0  0  0  0  0  0  0
   56.6400   22.9480   41.7300 H   0  0  0  0  0  0  0  0  0  0  0  0
  1  2  2  3
  2  3  1  0
  3  4  2  0
  4  5  1  0
  5  6  1  0
  6  7  1  0
  6  8  2  0
  8  9  1  0
  5 10  2  0
 10 11  1  0
 11  2  1  0
  1 12  1  0
  3 13  1  0
  4 14  1  0
  7 15  1  0
  9 16  1  0
 10 17  1  0
 11 18  1  0
M  END
>  <smiles>  (60) 
N=c1ccc(C(O)=NO)c[nH]1

>  <score_type>  (60) 
oracle

>  <origin>  (60) 
adg

>  <m_score__min__energy>  (60) 
-5.7199999999999998

>  <m_primary>  (60) 
energy

$$$$
60:0
     RDKit          3D

 44 47  0  0  0  0  0  0  0  0999 V2000
   59.8822   34.9884   47.1113 H   0  0  0  0  0  0  0  0  0  0  0  0
   59.5400   34.0740   47.6180 C   0  0  0  0  0  0  0  0  0  0  0  0
   59.6590   34.0180   48.9540 C   0  0  0  0  0  0  0  0  0  0  0  0
   60.0218   34.9177   49.4726 H   0  0  0  0  0  0  0  0  0  0  0  0
   59.3360   32.8290   49.7810 C   0  0  0  0  0  0  0  0  0  0  0  0
   58.7980   32.9760   51.0630 C   0  0  0  0  0  0  0  0  0  0  0  0
   58.6020   34.1330   51.5300 O   0  0  0  0  0  0  0  0  0  0  0  0
   58.4770   31.8660   51.7970 N   0  0  0  0  0  0  0  0  0  0  0  0
   57.9210   32.0100   53.1540 C   0  0  0  0  0  0  0  0  0  0  0  0
   58.7072   31.8064   53.8959 H   0  0  0  0  0  0  0  0  0  0  0  0
   57.5455   33.0350   53.2896 H   0  0  0  0  0  0  0  0  0  0  0  0
   57.0952   31.2961   53.2896 H   0  0  0  0  0  0  0  0  0  0  0  0
   58.7340   30.6190   51.2880 C   0  0  0  0  0  0  0  0  0  0  0  0
   58.4410   29.5890   51.9590 O   0  0  0  0  0  0  0  0  0  0  0  0
   59.2960   30.4890   50.0450 N   0  0  0  0  0  0  0  0  0  0  0  0
   59.5550   29.1880   49.4780 C   0  0  0  0  0  0  0  0  0  0  0  0
   58.8740   28.7810   48.3180 C   0  0  0  0  0  0  0  0  0  0  0  0
   58.1320   29.4493   47.8567 H   0  0  0  0  0  0  0  0  0  0  0  0
   59.1340   27.5320   47.7470 C   0  0  0  0  0  0  0  0  0  0  0  0
   58.5926   27.2176   46.8425 H   0  0  0  0  0  0  0  0  0  0  0  0
   60.0820   26.6820   48.3250 C   0  0  0  0  0  0  0  0  0  0  0  0
   60.2848   25.6982   47.8767 H   0  0  0  0  0  0  0  0  0  0  0  0
   60.7720   27.0830   49.4730 C   0  0  0  0  0  0  0  0  0  0  0  0
   61.5191   26.4148   49.9261 H   0  0  0  0  0  0  0  0  0  0  0  0
   60.5140   28.3320   50.0460 C   0  0  0  0  0  0  0  0  0  0  0  0
   61.0641   28.6460   50.9453 H   0  0  0  0  0  0  0  0  0  0  0  0
   59.5950   31.5740   49.3240 N   0  0  0  0  0  0  0  0  0  0  0  0
   60.0700   31.4580   48.4000 H   0  0  0  0  0  0  0  0  0  0  0  0
   58.9790   32.9880   46.7780 C   0  0  0  0  0  0  0  0  0  0  0  0
   57.6540   33.0430   46.3170 C   0  0  0  0  0  0  0  0  0  0  0  0
   57.0281   33.9130   46.5649 H   0  0  0  0  0  0  0  0  0  0  0  0
   57.1470   32.0570   45.5850 O   0  0  0  0  0  0  0  0  0  0  0  0
   57.8500   30.9830   45.2410 C   0  0  0  0  0  0  0  0  0  0  0  0
   57.2460   29.9660   44.4860 C   0  0  0  0  0  0  0  0  0  0  0  0
   55.5630   30.0930   43.9970 Cl  0  0  0  0  0  0  0  0  0  0  0  0
   57.9840   28.8340   44.1210 C   0  0  0  0  0  0  0  0  0  0  0  0
   57.5094   28.0373   43.5294 H   0  0  0  0  0  0  0  0  0  0  0  0
   59.3220   28.7130   44.5060 C   0  0  0  0  0  0  0  0  0  0  0  0
   59.8973   27.8221   44.2138 H   0  0  0  0  0  0  0  0  0  0  0  0
   59.9320   29.7180   45.2600 C   0  0  0  0  0  0  0  0  0  0  0  0
   60.9855   29.6164   45.5597 H   0  0  0  0  0  0  0  0  0  0  0  0
   59.2020   30.8600   45.6370 C   0  0  0  0  0  0  0  0  0  0  0  0
   59.7690   31.8890   46.4080 C   0  0  0  0  0  0  0  0  0  0  0  0
   60.9730   31.8200   46.7840 O   0  0  0  0  0  0  0  0  0  0  0  0
  1  2  1  0
  2  3  2  0
  3  4  1  0
  3  5  1  0
  5  6  1  0
  6  7  2  0
  6  8  1  0
  8  9  1  0
  9 10  1  0
  9 11  1  0
  9 12  1  0
  8 13  1  0
 13 14  2  0
 13 15  1  0
 15 16  1  0
 16 17  2  0
 17 18  1  0
 17 19  1  0
 19 20  1  0
 19 21  2  0
 21 22  1  0
 21 23  1  0
 23 24  1  0
 23 25  2  0
 25 26  1  0
 15 27  1  0
 27 28  1  0
  2 29  1  0
 29 30  2  0
 30 31  1  0
 30 32  1  0
 32 33  1  0
 33 34  2  0
 34 35  1  0
 34 36  1  0
 36 37  1  0
 36 38  2  0
 38 39  1  0
 38 40  1  0
 40 41  1  0
 40 42  2  0
 42 43  1  0
 43 44  2  0
 27  5  2  0
 43 29  1  0
 25 16  1  0
 42 33  1  0
M  CHG  1  27   1
M  END
>  <UniqueID>  (61) 
51

>  <SMILES>  (61) 
Cn1c(=O)c(/C=C\c2coc3c(Cl)cccc3c2=O)[nH+]n(-c2ccccc2)c1=O

>  <Energy>  (61) 
75.23843590390331

>  <Genealogy>  (61) 
Cn1c(=O)c(C=Cc2coc3c(Cl)cccc3c2=O)[nH+]n(-c2ccccc2)c1=O (protonated)
Cn1c(=O)c(/C=C\c2coc3c(Cl)cccc3c2=O)[nH+]n(-c2ccccc2)c1=O (cis-trans isomerization)
Cn1c(=O)c(/C=C\c2coc3c(Cl)cccc3c2=O)[nH+]n(-c2ccccc2)c1=O (3D coordinates assigned)
Cn1c(=O)c(/C=C\c2coc3c(Cl)cccc3c2=O)[nH+]n(-c2ccccc2)c1=O (optimized conformer: 75.23843590390331 kcal/mol)

>  <smiles>  (61) 
Cn1c(=O)c(C=Cc2coc3c(Cl)cccc3c2=O)nn(-c2ccccc2)c1=O

>  <score_type>  (61) 
oracle

>  <origin>  (61) 
adg

>  <m_score__min__energy>  (61) 
-7.75

>  <m_primary>  (61) 
energy

$$$$
61:0
     RDKit          3D

 40 43  0  0  0  0  0  0  0  0999 V2000
   59.1270   26.9060   47.3810 C   0  0  0  0  0  0  0  0  0  0  0  0
   58.2780   27.8040   46.5330 C   0  0  0  0  0  0  0  0  0  0  0  0
   57.0780   27.3370   45.9810 C   0  0  0  0  0  0  0  0  0  0  0  0
   56.2950   28.1690   45.2470 N   0  0  0  0  0  0  0  0  0  0  0  0
   56.6310   29.4680   45.0330 C   0  0  0  0  0  0  0  0  0  0  0  0
   57.8140   29.9960   45.5780 C   0  0  0  0  0  0  0  0  0  0  0  0
   58.1900   31.4150   45.3550 C   0  0  0  0  0  0  0  0  0  0  0  0
   58.0990   31.9970   44.0630 C   0  0  0  0  0  0  0  0  0  0  0  0
   58.4590   33.3380   43.8510 C   0  0  0  0  0  0  0  0  0  0  0  0
   58.9010   34.0630   44.9510 C   0  0  0  0  0  0  0  0  0  0  0  0
   59.3090   35.3420   44.9750 N   0  0  0  0  0  0  0  0  0  0  0  0
   59.6650   35.6220   46.2230 N   0  0  0  0  0  0  0  0  0  0  0  0
   59.4540   34.4970   46.9480 C   0  0  0  0  0  0  0  0  0  0  0  0
   59.7980   34.3680   48.4020 C   0  0  0  0  0  0  0  0  0  0  0  0
   61.2370   33.9530   48.5610 C   0  0  0  0  0  0  0  0  0  0  0  0
   61.9640   33.4550   47.4670 C   0  0  0  0  0  0  0  0  0  0  0  0
   63.3070   33.0960   47.6180 C   0  0  0  0  0  0  0  0  0  0  0  0
   63.9340   33.2330   48.8600 C   0  0  0  0  0  0  0  0  0  0  0  0
   65.2360   32.8840   49.0040 F   0  0  0  0  0  0  0  0  0  0  0  0
   63.2180   33.7280   49.9530 C   0  0  0  0  0  0  0  0  0  0  0  0
   61.8750   34.0890   49.8060 C   0  0  0  0  0  0  0  0  0  0  0  0
   58.9810   33.5060   46.1650 N   0  0  0  0  0  0  0  0  0  0  0  0
   58.6470   32.2160   46.4240 C   0  0  0  0  0  0  0  0  0  0  0  0
   58.6330   29.1450   46.3390 C   0  0  0  0  0  0  0  0  0  0  0  0
   58.9316   27.1127   48.4436 H   0  0  0  0  0  0  0  0  0  0  0  0
   58.8836   25.8561   47.1609 H   0  0  0  0  0  0  0  0  0  0  0  0
   60.1889   27.0901   47.1609 H   0  0  0  0  0  0  0  0  0  0  0  0
   56.7693   26.2937   46.1426 H   0  0  0  0  0  0  0  0  0  0  0  0
   55.9730   30.1104   44.4294 H   0  0  0  0  0  0  0  0  0  0  0  0
   57.7422   31.3902   43.2177 H   0  0  0  0  0  0  0  0  0  0  0  0
   58.3936   33.7964   42.8532 H   0  0  0  0  0  0  0  0  0  0  0  0
   59.3580   36.0090   44.1730 H   0  0  0  0  0  0  0  0  0  0  0  0
   59.6420   35.3365   48.8996 H   0  0  0  0  0  0  0  0  0  0  0  0
   59.1514   33.6034   48.8574 H   0  0  0  0  0  0  0  0  0  0  0  0
   61.4749   33.3470   46.4877 H   0  0  0  0  0  0  0  0  0  0  0  0
   63.8710   32.7052   46.7582 H   0  0  0  0  0  0  0  0  0  0  0  0
   63.7114   33.8339   50.9304 H   0  0  0  0  0  0  0  0  0  0  0  0
   61.3156   34.4810   50.6682 H   0  0  0  0  0  0  0  0  0  0  0  0
   58.7303   31.8052   47.4410 H   0  0  0  0  0  0  0  0  0  0  0  0
   59.5596   29.5347   46.7856 H   0  0  0  0  0  0  0  0  0  0  0  0
  1  2  1  0
  2  3  2  0
  3  4  1  0
  4  5  2  0
  5  6  1  0
  6  7  1  0
  7  8  1  0
  8  9  2  0
  9 10  1  0
 10 11  2  0
 11 12  1  0
 12 13  2  0
 13 14  1  0
 14 15  1  0
 15 16  2  0
 16 17  1  0
 17 18  2  0
 18 19  1  0
 18 20  1  0
 20 21  2  0
 13 22  1  0
 22 23  1  0
  6 24  2  0
 24  2  1  0
 23  7  2  0
 22 10  1  0
 21 15  1  0
  1 25  1  0
  1 26  1  0
  1 27  1  0
  3 28  1  0
  5 29  1  0
  8 30  1  0
  9 31  1  0
 11 32  1  0
 14 33  1  0
 14 34  1  0
 16 35  1  0
 17 36  1  0
 20 37  1  0
 21 38  1  0
 23 39  1  0
 24 40  1  0
M  CHG  1  11   1
M  END
>  <UniqueID>  (62) 
52

>  <SMILES>  (62) 
Cc1cncc(-c2ccc3[nH+]nc(Cc4ccc(F)cc4)n3c2)c1

>  <Energy>  (62) 
89.33680665676074

>  <Genealogy>  (62) 
Cc1cncc(-c2ccc3[nH+]nc(Cc4ccc(F)cc4)n3c2)c1 (protonated)
Cc1cncc(-c2ccc3[nH+]nc(Cc4ccc(F)cc4)n3c2)c1 (3D coordinates assigned)
Cc1cncc(-c2ccc3[nH+]nc(Cc4ccc(F)cc4)n3c2)c1 (optimized conformer: 89.33680665676074 kcal/mol)

>  <smiles>  (62) 
Cc1cncc(-c2ccc3nnc(Cc4ccc(F)cc4)n3c2)c1

>  <score_type>  (62) 
oracle

>  <origin>  (62) 
adg

>  <m_score__min__energy>  (62) 
-6.8899999999999997

>  <m_primary>  (62) 
energy

$$$$
62:0
     RDKit          3D

 43 45  0  0  0  0  0  0  0  0999 V2000
   66.9460   31.9950   50.5210 C   0  0  0  0  0  0  0  0  0  0  0  0
   65.4220   32.0240   50.4840 C   0  0  0  0  0  0  0  0  0  0  0  0
   64.9520   33.2740   49.9780 O   0  0  0  0  0  0  0  0  0  0  0  0
   63.9100   33.4390   49.0500 C   0  0  0  0  0  0  0  0  0  0  0  0
   64.1090   33.3380   47.6470 C   0  0  0  0  0  0  0  0  0  0  0  0
   63.0360   33.5170   46.7570 C   0  0  0  0  0  0  0  0  0  0  0  0
   61.7730   33.8000   47.2740 C   0  0  0  0  0  0  0  0  0  0  0  0
   60.6620   33.9990   46.5190 N   0  0  0  0  0  0  0  0  0  0  0  0
   59.5890   34.2560   47.3100 C   0  0  0  0  0  0  0  0  0  0  0  0
   58.3910   34.4890   46.8610 N   0  0  0  0  0  0  0  0  0  0  0  0
   57.9190   34.2220   45.5310 C   0  0  0  0  0  0  0  0  0  0  0  0
   58.2860   34.9270   44.5520 O   0  0  0  0  0  0  0  0  0  0  0  0
   57.0160   33.0580   45.3000 C   0  0  0  0  0  0  0  0  0  0  0  0
   57.7690   31.9860   44.7410 O   0  0  0  0  0  0  0  0  0  0  0  0
   57.6870   30.6520   45.1690 C   0  0  0  0  0  0  0  0  0  0  0  0
   56.8700   29.7020   44.5280 C   0  0  0  0  0  0  0  0  0  0  0  0
   56.8200   28.3850   44.9940 C   0  0  0  0  0  0  0  0  0  0  0  0
   57.5850   27.9970   46.1090 C   0  0  0  0  0  0  0  0  0  0  0  0
   57.5620   26.6590   46.6240 N   0  0  0  0  0  0  0  0  0  0  0  0
   56.2950   25.5070   46.3530 S   0  0  0  0  0  0  0  0  0  0  0  0
   54.8150   26.3310   46.0060 N   0  0  0  0  0  0  0  0  0  0  0  0
   56.6610   24.6070   45.2060 O   0  0  0  0  0  0  0  0  0  0  0  0
   56.1150   24.6770   47.5920 O   0  0  0  0  0  0  0  0  0  0  0  0
   58.3980   28.9450   46.7420 C   0  0  0  0  0  0  0  0  0  0  0  0
   58.4490   30.2610   46.2760 C   0  0  0  0  0  0  0  0  0  0  0  0
   59.9710   34.2500   48.9570 S   0  0  0  0  0  0  0  0  0  0  0  0
   61.5840   33.9010   48.6420 C   0  0  0  0  0  0  0  0  0  0  0  0
   62.6270   33.7280   49.5470 C   0  0  0  0  0  0  0  0  0  0  0  0
   67.2873   31.9885   51.5667 H   0  0  0  0  0  0  0  0  0  0  0  0
   67.3080   31.0898   50.0115 H   0  0  0  0  0  0  0  0  0  0  0  0
   67.3422   32.8858   50.0115 H   0  0  0  0  0  0  0  0  0  0  0  0
   65.0613   31.2130   49.8342 H   0  0  0  0  0  0  0  0  0  0  0  0
   65.0413   31.8917   51.5075 H   0  0  0  0  0  0  0  0  0  0  0  0
   65.1123   33.1176   47.2535 H   0  0  0  0  0  0  0  0  0  0  0  0
   63.1904   33.4351   45.6710 H   0  0  0  0  0  0  0  0  0  0  0  0
   56.5750   32.7389   46.2559 H   0  0  0  0  0  0  0  0  0  0  0  0
   56.2114   33.3457   44.6072 H   0  0  0  0  0  0  0  0  0  0  0  0
   56.2679   29.9973   43.6561 H   0  0  0  0  0  0  0  0  0  0  0  0
   56.1795   27.6487   44.4865 H   0  0  0  0  0  0  0  0  0  0  0  0
   54.7120   27.0840   46.7230 H   0  0  0  0  0  0  0  0  0  0  0  0
   59.0015   28.6511   47.6134 H   0  0  0  0  0  0  0  0  0  0  0  0
   59.0926   30.9952   46.7827 H   0  0  0  0  0  0  0  0  0  0  0  0
   62.4511   33.8156   50.6293 H   0  0  0  0  0  0  0  0  0  0  0  0
  1  2  1  0
  2  3  1  0
  3  4  1  0
  4  5  2  0
  5  6  1  0
  6  7  2  0
  7  8  1  0
  8  9  1  0
  9 10  2  3
 10 11  1  0
 11 12  2  0
 11 13  1  0
 13 14  1  0
 14 15  1  0
 15 16  2  0
 16 17  1  0
 17 18  2  0
 18 19  1  0
 19 20  1  0
 20 21  1  0
 20 22  2  0
 20 23  2  0
 18 24  1  0
 24 25  2  0
  9 26  1  0
 26 27  1  0
 27 28  2  0
 28  4  1  0
 27  7  1  0
 25 15  1  0
  1 29  1  0
  1 30  1  0
  1 31  1  0
  2 32  1  0
  2 33  1  0
  5 34  1  0
  6 35  1  0
 13 36  1  0
 13 37  1  0
 16 38  1  0
 17 39  1  0
 21 40  1  0
 24 41  1  0
 25 42  1  0
 28 43  1  0
M  CHG  3   8  -1  19  -1  21  -1
M  END
>  <UniqueID>  (63) 
53

>  <SMILES>  (63) 
CCOc1ccc2[n-]c(=NC(=O)COc3ccc([N-]S([NH-])(=O)=O)cc3)sc2c1

>  <Energy>  (63) 
79.05792191128072

>  <Genealogy>  (63) 
CCOc1ccc2[n-]c(=NC(=O)COc3ccc([N-]S([NH-])(=O)=O)cc3)sc2c1 (protonated)
CCOc1ccc2[n-]c(=NC(=O)COc3ccc([N-]S([NH-])(=O)=O)cc3)sc2c1 (3D coordinates assigned)
CCOc1ccc2[n-]c(=NC(=O)COc3ccc([N-]S([NH-])(=O)=O)cc3)sc2c1 (optimized conformer: 79.05792191128072 kcal/mol)

>  <smiles>  (63) 
CCOc1ccc2[nH]c(=NC(=O)COc3ccc(NS(N)(=O)=O)cc3)sc2c1

>  <score_type>  (63) 
oracle

>  <origin>  (63) 
adg

>  <m_score__min__energy>  (63) 
-13.43

>  <m_primary>  (63) 
energy

$$$$
63:0
     RDKit          3D

 28 28  0  0  0  0  0  0  0  0999 V2000
   55.1420   27.9010   45.9870 H   0  0  0  0  0  0  0  0  0  0  0  0
   55.9050   27.9300   45.3210 O   0  0  0  0  0  0  0  0  0  0  0  0
   56.4740   29.1350   44.9170 C   0  0  0  0  0  0  0  0  0  0  0  0
   57.4200   29.7610   45.7350 C   0  0  0  0  0  0  0  0  0  0  0  0
   57.7125   29.2977   46.6888 H   0  0  0  0  0  0  0  0  0  0  0  0
   57.9950   30.9740   45.3440 C   0  0  0  0  0  0  0  0  0  0  0  0
   58.7484   31.4545   45.9855 H   0  0  0  0  0  0  0  0  0  0  0  0
   57.6160   31.5810   44.1380 C   0  0  0  0  0  0  0  0  0  0  0  0
   58.2430   32.8570   43.7430 C   0  0  0  0  0  0  0  0  0  0  0  0
   58.3582   33.0620   42.6684 H   0  0  0  0  0  0  0  0  0  0  0  0
   58.6820   33.7840   44.6090 C   0  0  0  0  0  0  0  0  0  0  0  0
   59.6359   34.2838   44.3847 H   0  0  0  0  0  0  0  0  0  0  0  0
   57.9570   34.1870   45.8680 C   0  0  0  0  0  0  0  0  0  0  0  0
   57.6027   33.2826   46.3842 H   0  0  0  0  0  0  0  0  0  0  0  0
   57.1088   34.8311   45.5929 H   0  0  0  0  0  0  0  0  0  0  0  0
   58.8480   34.9430   46.7740 N   0  0  0  0  0  0  0  0  0  0  0  0
   59.3500   34.0810   47.8580 C   0  0  0  0  0  0  0  0  0  0  0  0
   59.0909   34.5259   48.8301 H   0  0  0  0  0  0  0  0  0  0  0  0
   58.8908   33.0847   47.7767 H   0  0  0  0  0  0  0  0  0  0  0  0
   60.4431   33.9887   47.7767 H   0  0  0  0  0  0  0  0  0  0  0  0
   59.9800   35.5020   46.0190 C   0  0  0  0  0  0  0  0  0  0  0  0
   60.7394   35.8770   46.7209 H   0  0  0  0  0  0  0  0  0  0  0  0
   60.4212   34.7182   45.3858 H   0  0  0  0  0  0  0  0  0  0  0  0
   59.6259   36.3288   45.3858 H   0  0  0  0  0  0  0  0  0  0  0  0
   56.6860   30.9350   43.3050 C   0  0  0  0  0  0  0  0  0  0  0  0
   56.4097   31.3846   42.3399 H   0  0  0  0  0  0  0  0  0  0  0  0
   56.1110   29.7230   43.6990 C   0  0  0  0  0  0  0  0  0  0  0  0
   55.3716   29.2301   43.0506 H   0  0  0  0  0  0  0  0  0  0  0  0
  1  2  1  0
  2  3  1  0
  3  4  2  0
  4  5  1  0
  4  6  1  0
  6  7  1  0
  6  8  2  0
  8  9  1  0
  9 10  1  0
  9 11  2  0
 11 12  1  0
 11 13  1  0
 13 14  1  0
 13 15  1  0
 13 16  1  0
 16 17  1  0
 17 18  1  0
 17 19  1  0
 17 20  1  0
 16 21  1  0
 21 22  1  0
 21 23  1  0
 21 24  1  0
  8 25  1  0
 25 26  1  0
 25 27  2  0
 27 28  1  0
 27  3  1  0
M  END
>  <UniqueID>  (64) 
54

>  <SMILES>  (64) 
CN(C)C/C=C\c1ccc(O)cc1

>  <Energy>  (64) 
29.42865957623546

>  <Genealogy>  (64) 
CN(C)C/C=C\c1ccc(O)cc1 (cis-trans isomerization)
CN(C)C/C=C\c1ccc(O)cc1 (3D coordinates assigned)
CN(C)C/C=C\c1ccc(O)cc1 (optimized conformer: 29.42865957623546 kcal/mol)

>  <smiles>  (64) 
CN(C)CC=Cc1ccc(O)cc1

>  <score_type>  (64) 
oracle

>  <origin>  (64) 
adg

>  <m_score__min__energy>  (64) 
-5.7699999999999996

>  <m_primary>  (64) 
energy

$$$$
64:0
     RDKit          3D

 37 38  0  0  0  0  0  0  0  0999 V2000
   57.1850   26.4960   45.3840 C   0  0  0  0  0  0  0  0  0  0  0  0
   56.4390   27.6850   45.6220 O   0  0  0  0  0  0  0  0  0  0  0  0
   56.8110   28.9620   45.1720 C   0  0  0  0  0  0  0  0  0  0  0  0
   56.1990   29.5640   44.0550 C   0  0  0  0  0  0  0  0  0  0  0  0
   56.6130   30.8210   43.6120 C   0  0  0  0  0  0  0  0  0  0  0  0
   57.6490   31.4990   44.2690 C   0  0  0  0  0  0  0  0  0  0  0  0
   58.1610   32.8120   43.7370 C   0  0  0  0  0  0  0  0  0  0  0  0
   57.9040   33.9080   44.6880 N   0  0  0  0  0  0  0  0  0  0  0  0
   59.0980   34.7330   44.9410 C   0  0  0  0  0  0  0  0  0  0  0  0
   59.7480   34.3530   46.2470 C   0  0  0  0  0  0  0  0  0  0  0  0
   59.0610   34.5170   47.4610 C   0  0  0  0  0  0  0  0  0  0  0  0
   59.6940   34.2250   48.6740 C   0  0  0  0  0  0  0  0  0  0  0  0
   61.0110   33.7600   48.6830 C   0  0  0  0  0  0  0  0  0  0  0  0
   61.6960   33.5730   47.4770 C   0  0  0  0  0  0  0  0  0  0  0  0
   63.3520   32.9960   47.4900 Cl  0  0  0  0  0  0  0  0  0  0  0  0
   61.0640   33.8600   46.2620 C   0  0  0  0  0  0  0  0  0  0  0  0
   58.2370   30.9210   45.4040 C   0  0  0  0  0  0  0  0  0  0  0  0
   57.8290   29.6550   45.8550 C   0  0  0  0  0  0  0  0  0  0  0  0
   58.5080   29.0240   47.0380 C   0  0  0  0  0  0  0  0  0  0  0  0
   57.4693   26.0429   46.3452 H   0  0  0  0  0  0  0  0  0  0  0  0
   56.5703   25.7859   44.8115 H   0  0  0  0  0  0  0  0  0  0  0  0
   58.0919   26.7405   44.8115 H   0  0  0  0  0  0  0  0  0  0  0  0
   55.3886   29.0392   43.5279 H   0  0  0  0  0  0  0  0  0  0  0  0
   56.1232   31.2825   42.7419 H   0  0  0  0  0  0  0  0  0  0  0  0
   59.2447   32.7319   43.5659 H   0  0  0  0  0  0  0  0  0  0  0  0
   57.6358   33.0359   42.7968 H   0  0  0  0  0  0  0  0  0  0  0  0
   57.1840   34.5290   44.2520 H   0  0  0  0  0  0  0  0  0  0  0  0
   59.8186   34.5839   44.1234 H   0  0  0  0  0  0  0  0  0  0  0  0
   58.7910   35.7879   44.9952 H   0  0  0  0  0  0  0  0  0  0  0  0
   58.0214   34.8764   47.4581 H   0  0  0  0  0  0  0  0  0  0  0  0
   59.1536   34.3619   49.6223 H   0  0  0  0  0  0  0  0  0  0  0  0
   61.5101   33.5407   49.6384 H   0  0  0  0  0  0  0  0  0  0  0  0
   61.5994   33.6991   45.3147 H   0  0  0  0  0  0  0  0  0  0  0  0
   59.0251   31.4645   45.9459 H   0  0  0  0  0  0  0  0  0  0  0  0
   58.0757   29.4258   47.9663 H   0  0  0  0  0  0  0  0  0  0  0  0
   58.3613   27.9343   47.0068 H   0  0  0  0  0  0  0  0  0  0  0  0
   59.5841   29.2501   47.0068 H   0  0  0  0  0  0  0  0  0  0  0  0
  1  2  1  0
  2  3  1  0
  3  4  2  0
  4  5  1  0
  5  6  2  0
  6  7  1  0
  7  8  1  0
  8  9  1  0
  9 10  1  0
 10 11  2  0
 11 12  1  0
 12 13  2  0
 13 14  1  0
 14 15  1  0
 14 16  2  0
  6 17  1  0
 17 18  2  0
 18 19  1  0
 18  3  1  0
 16 10  1  0
  1 20  1  0
  1 21  1  0
  1 22  1  0
  4 23  1  0
  5 24  1  0
  7 25  1  0
  7 26  1  0
  8 27  1  0
  9 28  1  0
  9 29  1  0
 11 30  1  0
 12 31  1  0
 13 32  1  0
 16 33  1  0
 17 34  1  0
 19 35  1  0
 19 36  1  0
 19 37  1  0
M  END
>  <UniqueID>  (65) 
55

>  <SMILES>  (65) 
COc1ccc(CNCc2cccc(Cl)c2)cc1C

>  <Energy>  (65) 
31.911729072366764

>  <Genealogy>  (65) 
COc1ccc(CNCc2cccc(Cl)c2)cc1C (3D coordinates assigned)
COc1ccc(CNCc2cccc(Cl)c2)cc1C (optimized conformer: 31.911729072366764 kcal/mol)

>  <smiles>  (65) 
COc1ccc(CNCc2cccc(Cl)c2)cc1C

>  <score_type>  (65) 
oracle

>  <origin>  (65) 
adg

>  <m_score__min__energy>  (65) 
-7.1100000000000003

>  <m_primary>  (65) 
energy

$$$$
65:0
     RDKit          3D

 46 49  0  0  0  0  0  0  0  0999 V2000
   64.5180   32.9770   49.9710 C   0  0  0  0  0  0  0  0  0  0  0  0
   64.3100   32.8100   48.5720 O   0  0  0  0  0  0  0  0  0  0  0  0
   63.0500   32.7280   47.9630 C   0  0  0  0  0  0  0  0  0  0  0  0
   62.6330   33.6330   46.9680 C   0  0  0  0  0  0  0  0  0  0  0  0
   61.3680   33.5110   46.3870 C   0  0  0  0  0  0  0  0  0  0  0  0
   60.5020   32.4790   46.7820 C   0  0  0  0  0  0  0  0  0  0  0  0
   59.1640   32.3580   46.1650 C   0  0  0  0  0  0  0  0  0  0  0  0
   58.4090   33.5100   45.8620 C   0  0  0  0  0  0  0  0  0  0  0  0
   57.1450   33.3800   45.2580 C   0  0  0  0  0  0  0  0  0  0  0  0
   56.6510   32.1460   44.9480 N   0  0  0  0  0  0  0  0  0  0  0  0
   57.3850   31.0420   45.2340 C   0  0  0  0  0  0  0  0  0  0  0  0
   58.6060   31.1130   45.8370 C   0  0  0  0  0  0  0  0  0  0  0  0
   59.1740   29.7390   45.9600 C   0  0  0  0  0  0  0  0  0  0  0  0
   58.0580   28.8410   45.3290 C   0  0  1  0  0  0  0  0  0  0  0  0
   58.5670   28.1040   44.0820 C   0  0  0  0  0  0  0  0  0  0  0  0
   57.5190   27.8600   46.3430 C   0  0  0  0  0  0  0  0  0  0  0  0
   58.0570   27.7800   47.4810 O   0  0  0  0  0  0  0  0  0  0  0  0
   56.3340   27.1090   46.0460 N   0  0  0  0  0  0  0  0  0  0  0  0
   56.2760   25.7600   45.5620 C   0  0  0  0  0  0  0  0  0  0  0  0
   57.4360   25.1900   45.0200 C   0  0  0  0  0  0  0  0  0  0  0  0
   57.4270   23.8720   44.5560 C   0  0  0  0  0  0  0  0  0  0  0  0
   56.2610   23.1060   44.6450 C   0  0  0  0  0  0  0  0  0  0  0  0
   55.1070   23.6570   45.2070 C   0  0  0  0  0  0  0  0  0  0  0  0
   55.1120   24.9760   45.6720 C   0  0  0  0  0  0  0  0  0  0  0  0
   57.0230   29.7470   44.9360 O   0  0  0  0  0  0  0  0  0  0  0  0
   60.9120   31.5850   47.7820 C   0  0  0  0  0  0  0  0  0  0  0  0
   62.1790   31.7070   48.3640 C   0  0  0  0  0  0  0  0  0  0  0  0
   62.5570   30.8330   49.3290 F   0  0  0  0  0  0  0  0  0  0  0  0
   63.7772   32.3822   50.5254 H   0  0  0  0  0  0  0  0  0  0  0  0
   65.5310   32.6385   50.2341 H   0  0  0  0  0  0  0  0  0  0  0  0
   64.4064   34.0392   50.2341 H   0  0  0  0  0  0  0  0  0  0  0  0
   63.3069   34.4406   46.6462 H   0  0  0  0  0  0  0  0  0  0  0  0
   61.0489   34.2276   45.6158 H   0  0  0  0  0  0  0  0  0  0  0  0
   58.8075   34.5079   46.0974 H   0  0  0  0  0  0  0  0  0  0  0  0
   56.5512   34.2785   45.0342 H   0  0  0  0  0  0  0  0  0  0  0  0
   60.1172   29.6493   45.4011 H   0  0  0  0  0  0  0  0  0  0  0  0
   59.4203   29.4621   46.9957 H   0  0  0  0  0  0  0  0  0  0  0  0
   59.1672   27.2349   44.3892 H   0  0  0  0  0  0  0  0  0  0  0  0
   57.7102   27.7641   43.4817 H   0  0  0  0  0  0  0  0  0  0  0  0
   59.1882   28.7849   43.4817 H   0  0  0  0  0  0  0  0  0  0  0  0
   58.3597   25.7842   44.9595 H   0  0  0  0  0  0  0  0  0  0  0  0
   58.3384   23.4367   44.1202 H   0  0  0  0  0  0  0  0  0  0  0  0
   56.2523   22.0708   44.2730 H   0  0  0  0  0  0  0  0  0  0  0  0
   54.1917   23.0518   45.2841 H   0  0  0  0  0  0  0  0  0  0  0  0
   54.2044   25.4017   46.1247 H   0  0  0  0  0  0  0  0  0  0  0  0
   60.2340   30.7836   48.1107 H   0  0  0  0  0  0  0  0  0  0  0  0
  1  2  1  0
  2  3  1  0
  3  4  2  0
  4  5  1  0
  5  6  2  0
  6  7  1  0
  7  8  2  0
  8  9  1  0
  9 10  2  0
 10 11  1  0
 11 12  2  0
 12 13  1  0
 13 14  1  0
 14 15  1  6
 14 16  1  0
 16 17  2  0
 16 18  1  0
 18 19  1  0
 19 20  2  0
 20 21  1  0
 21 22  2  0
 22 23  1  0
 23 24  2  0
 14 25  1  0
  6 26  1  0
 26 27  2  0
 27 28  1  0
 27  3  1  0
 12  7  1  0
 24 19  1  0
 25 11  1  0
  1 29  1  0
  1 30  1  0
  1 31  1  0
  4 32  1  0
  5 33  1  0
  8 34  1  0
  9 35  1  0
 13 36  1  0
 13 37  1  0
 15 38  1  0
 15 39  1  0
 15 40  1  0
 20 41  1  0
 21 42  1  0
 22 43  1  0
 23 44  1  0
 24 45  1  0
 26 46  1  0
M  CHG  1  18  -1
M  END
>  <UniqueID>  (66) 
56

>  <SMILES>  (66) 
COc1ccc(-c2ccnc3c2C[C@@](C)(C(=O)[N-]c2ccccc2)O3)cc1F

>  <Energy>  (66) 
75.80837080539797

>  <Genealogy>  (66) 
COc1ccc(-c2ccnc3c2CC(C)(C(=O)[N-]c2ccccc2)O3)cc1F (protonated)
COc1ccc(-c2ccnc3c2C[C@@](C)(C(=O)[N-]c2ccccc2)O3)cc1F (chirality)
COc1ccc(-c2ccnc3c2C[C@@](C)(C(=O)[N-]c2ccccc2)O3)cc1F (3D coordinates assigned)
COc1ccc(-c2ccnc3c2C[C@@](C)(C(=O)[N-]c2ccccc2)O3)cc1F (nonaromatic ring conformer: 75.80837080539797 kcal/mol)

>  <smiles>  (66) 
COc1ccc(-c2ccnc3c2CC(C)(C(=O)Nc2ccccc2)O3)cc1F

>  <score_type>  (66) 
oracle

>  <origin>  (66) 
adg

>  <m_score__min__energy>  (66) 
-9.7100000000000009

>  <m_primary>  (66) 
energy

$$$$
66:0
     RDKit          3D

 67 70  0  0  0  0  0  0  0  0999 V2000
   57.3890   31.5080   42.6940 C   0  0  0  0  0  0  0  0  0  0  0  0
   56.8310   30.5290   43.6700 C   0  0  0  0  0  0  0  0  0  0  0  0
   57.3710   29.3020   43.9950 C   0  0  0  0  0  0  0  0  0  0  0  0
   56.4930   28.8210   44.9570 C   0  0  0  0  0  0  0  0  0  0  0  0
   56.5670   27.7000   45.6130 N   0  0  0  0  0  0  0  0  0  0  0  0
   57.7160   27.1220   46.2560 C   0  0  0  0  0  0  0  0  0  0  0  0
   57.6810   26.7540   47.4610 O   0  0  0  0  0  0  0  0  0  0  0  0
   58.9780   26.9250   45.4720 C   0  0  0  0  0  0  0  0  0  0  0  0
   59.9470   28.1060   45.6460 C   0  0  0  0  0  0  0  0  0  0  0  0
   60.4220   28.2770   47.0740 C   0  0  0  0  0  0  0  0  0  0  0  0
   60.7850   27.2960   47.7120 O   0  0  0  0  0  0  0  0  0  0  0  0
   60.4520   29.6010   47.6820 N   0  0  1  0  0  0  0  0  0  0  0  0
   61.0980   30.5750   46.7680 C   0  0  0  0  0  0  0  0  0  0  0  0
   61.9600   31.5570   47.5310 C   0  0  0  0  0  0  0  0  0  0  0  0
   62.3110   32.7930   46.9610 C   0  0  0  0  0  0  0  0  0  0  0  0
   63.1640   33.6650   47.6430 C   0  0  0  0  0  0  0  0  0  0  0  0
   63.6770   33.3080   48.8960 C   0  0  0  0  0  0  0  0  0  0  0  0
   63.3360   32.0780   49.4670 C   0  0  0  0  0  0  0  0  0  0  0  0
   62.4800   31.2060   48.7890 C   0  0  0  0  0  0  0  0  0  0  0  0
   59.1150   30.0500   48.1780 C   0  0  1  0  0  0  0  0  0  0  0  0
   58.9080   29.8940   49.6800 C   0  0  0  0  0  0  0  0  0  0  0  0
   57.8070   30.2190   50.1960 O   0  0  0  0  0  0  0  0  0  0  0  0
   59.9980   29.5120   50.5330 N   0  0  0  0  0  0  0  0  0  0  0  0
   60.1970   30.0440   51.8760 C   0  0  0  0  0  0  0  0  0  0  0  0
   59.7550   31.4810   51.9360 C   0  0  0  0  0  0  0  0  0  0  0  0
   60.5320   32.4920   51.3430 C   0  0  0  0  0  0  0  0  0  0  0  0
   60.1110   33.8240   51.4010 C   0  0  0  0  0  0  0  0  0  0  0  0
   58.9160   34.1550   52.0420 C   0  0  0  0  0  0  0  0  0  0  0  0
   58.1250   33.1540   52.6120 C   0  0  0  0  0  0  0  0  0  0  0  0
   58.5380   31.8190   52.5530 C   0  0  0  0  0  0  0  0  0  0  0  0
   58.7990   31.4580   47.6690 C   0  0  0  0  0  0  0  0  0  0  0  0
   58.2290   31.6230   46.3930 C   0  0  0  0  0  0  0  0  0  0  0  0
   57.9820   32.9010   45.8820 C   0  0  0  0  0  0  0  0  0  0  0  0
   58.3130   34.0290   46.6330 C   0  0  0  0  0  0  0  0  0  0  0  0
   58.9050   33.8840   47.8890 C   0  0  0  0  0  0  0  0  0  0  0  0
   59.1590   32.6100   48.4000 C   0  0  0  0  0  0  0  0  0  0  0  0
   55.5100   29.7170   45.1730 N   0  0  0  0  0  0  0  0  0  0  0  0
   55.7480   30.7290   44.3880 O   0  0  0  0  0  0  0  0  0  0  0  0
   57.8625   32.3387   43.2379 H   0  0  0  0  0  0  0  0  0  0  0  0
   58.1384   31.0091   42.0620 H   0  0  0  0  0  0  0  0  0  0  0  0
   56.5778   31.8986   42.0620 H   0  0  0  0  0  0  0  0  0  0  0  0
   58.2749   28.8225   43.5913 H   0  0  0  0  0  0  0  0  0  0  0  0
   59.4721   26.0049   45.8174 H   0  0  0  0  0  0  0  0  0  0  0  0
   58.7120   26.8543   44.4070 H   0  0  0  0  0  0  0  0  0  0  0  0
   60.8234   27.9379   45.0029 H   0  0  0  0  0  0  0  0  0  0  0  0
   59.4033   29.0211   45.3685 H   0  0  0  0  0  0  0  0  0  0  0  0
   61.0570   29.5550   48.5380 H   0  0  0  0  0  0  0  0  0  0  0  0
   61.7270   30.0292   46.0493 H   0  0  0  0  0  0  0  0  0  0  0  0
   60.3095   31.1374   46.2466 H   0  0  0  0  0  0  0  0  0  0  0  0
   61.9130   33.0748   45.9750 H   0  0  0  0  0  0  0  0  0  0  0  0
   63.4327   34.6330   47.1949 H   0  0  0  0  0  0  0  0  0  0  0  0
   64.3485   33.9954   49.4313 H   0  0  0  0  0  0  0  0  0  0  0  0
   63.7416   31.7967   50.4500 H   0  0  0  0  0  0  0  0  0  0  0  0
   62.2118   30.2401   49.2419 H   0  0  0  0  0  0  0  0  0  0  0  0
   58.3763   29.3574   47.7483 H   0  0  0  0  0  0  0  0  0  0  0  0
   59.6079   29.4524   52.5922 H   0  0  0  0  0  0  0  0  0  0  0  0
   61.2656   29.9861   52.1305 H   0  0  0  0  0  0  0  0  0  0  0  0
   61.4720   32.2346   50.8330 H   0  0  0  0  0  0  0  0  0  0  0  0
   60.7232   34.6133   50.9402 H   0  0  0  0  0  0  0  0  0  0  0  0
   58.5963   35.2060   52.0985 H   0  0  0  0  0  0  0  0  0  0  0  0
   57.1781   33.4158   53.1068 H   0  0  0  0  0  0  0  0  0  0  0  0
   57.9082   31.0307   52.9910 H   0  0  0  0  0  0  0  0  0  0  0  0
   57.9752   30.7377   45.7915 H   0  0  0  0  0  0  0  0  0  0  0  0
   57.5265   33.0169   44.8875 H   0  0  0  0  0  0  0  0  0  0  0  0
   58.1074   35.0337   46.2352 H   0  0  0  0  0  0  0  0  0  0  0  0
   59.1716   34.7748   48.4767 H   0  0  0  0  0  0  0  0  0  0  0  0
   59.6442   32.5032   49.3814 H   0  0  0  0  0  0  0  0  0  0  0  0
  1  2  1  0
  2  3  2  0
  3  4  1  0
  4  5  2  3
  5  6  1  0
  6  7  2  0
  6  8  1  0
  8  9  1  0
  9 10  1  0
 10 11  2  0
 10 12  1  0
 12 13  1  0
 13 14  1  0
 14 15  2  0
 15 16  1  0
 16 17  2  0
 17 18  1  0
 18 19  2  0
 12 20  1  0
 20 21  1  0
 21 22  2  0
 21 23  1  0
 23 24  1  0
 24 25  1  0
 25 26  2  0
 26 27  1  0
 27 28  2  0
 28 29  1  0
 29 30  2  0
 20 31  1  0
 31 32  2  0
 32 33  1  0
 33 34  2  0
 34 35  1  0
 35 36  2  0
  4 37  1  0
 37 38  1  0
 38  2  1  0
 19 14  1  0
 30 25  1  0
 36 31  1  0
  1 39  1  0
  1 40  1  0
  1 41  1  0
  3 42  1  0
  8 43  1  0
  8 44  1  0
  9 45  1  0
  9 46  1  0
 12 47  1  1
 13 48  1  0
 13 49  1  0
 15 50  1  0
 16 51  1  0
 17 52  1  0
 18 53  1  0
 19 54  1  0
 20 55  1  6
 24 56  1  0
 24 57  1  0
 26 58  1  0
 27 59  1  0
 28 60  1  0
 29 61  1  0
 30 62  1  0
 32 63  1  0
 33 64  1  0
 34 65  1  0
 35 66  1  0
 36 67  1  0
M  CHG  3  12   1  23  -1  37  -1
M  END
>  <UniqueID>  (67) 
57

>  <SMILES>  (67) 
Cc1cc(=NC(=O)CCC(=O)[N@@H+](Cc2ccccc2)[C@@H](C(=O)[N-]Cc2ccccc2)c2ccccc2)[n-]o1

>  <Energy>  (67) 
106.32830768723952

>  <Genealogy>  (67) 
Cc1cc(=NC(=O)CCC(=O)[NH+](Cc2ccccc2)C(C(=O)[N-]Cc2ccccc2)c2ccccc2)[n-]o1 (protonated)
Cc1cc(=NC(=O)CCC(=O)[N@@H+](Cc2ccccc2)[C@@H](C(=O)[N-]Cc2ccccc2)c2ccccc2)[n-]o1 (chirality)
Cc1cc(=NC(=O)CCC(=O)[N@@H+](Cc2ccccc2)[C@@H](C(=O)[N-]Cc2ccccc2)c2ccccc2)[n-]o1 (3D coordinates assigned)
Cc1cc(=NC(=O)CCC(=O)[N@@H+](Cc2ccccc2)[C@@H](C(=O)[N-]Cc2ccccc2)c2ccccc2)[n-]o1 (optimized conformer: 106.32830768723952 kcal/mol)

>  <smiles>  (67) 
Cc1cc(=NC(=O)CCC(=O)N(Cc2ccccc2)C(C(=O)NCc2ccccc2)c2ccccc2)[nH]o1

>  <score_type>  (67) 
oracle

>  <origin>  (67) 
adg

>  <m_score__min__energy>  (67) 
-11.68

>  <m_primary>  (67) 
energy

$$$$
67:0
     RDKit          3D

 46 47  0  0  0  0  0  0  0  0999 V2000
   59.8105   27.9119   47.3641 H   0  0  0  0  0  0  0  0  0  0  0  0
   59.2120   27.8180   46.4460 C   0  0  0  0  0  0  0  0  0  0  0  0
   59.2660   28.8190   45.5540 C   0  0  0  0  0  0  0  0  0  0  0  0
   59.3621   28.5725   44.4863 H   0  0  0  0  0  0  0  0  0  0  0  0
   59.2010   30.2430   45.9540 C   0  0  0  0  0  0  0  0  0  0  0  0
   60.2630   30.7550   46.7010 C   0  0  0  0  0  0  0  0  0  0  0  0
   61.0997   30.0974   46.9796 H   0  0  0  0  0  0  0  0  0  0  0  0
   60.2740   32.0860   47.0960 C   0  0  0  0  0  0  0  0  0  0  0  0
   61.1232   32.4727   47.6785 H   0  0  0  0  0  0  0  0  0  0  0  0
   59.2140   32.9450   46.7610 C   0  0  0  0  0  0  0  0  0  0  0  0
   59.2450   34.2970   47.1410 O   0  0  0  0  0  0  0  0  0  0  0  0
   59.8140   35.3530   46.3710 C   0  0  0  0  0  0  0  0  0  0  0  0
   60.2261   36.1178   47.0457 H   0  0  0  0  0  0  0  0  0  0  0  0
   60.6182   34.9520   45.7365 H   0  0  0  0  0  0  0  0  0  0  0  0
   59.0368   35.8041   45.7365 H   0  0  0  0  0  0  0  0  0  0  0  0
   58.1030   32.4350   46.0340 C   0  0  0  0  0  0  0  0  0  0  0  0
   57.0030   33.2380   45.6770 O   0  0  0  0  0  0  0  0  0  0  0  0
   57.0160   34.4170   44.8800 C   0  0  0  0  0  0  0  0  0  0  0  0
   57.0258   35.3015   45.5339 H   0  0  0  0  0  0  0  0  0  0  0  0
   57.9142   34.4205   44.2451 H   0  0  0  0  0  0  0  0  0  0  0  0
   56.1181   34.4403   44.2451 H   0  0  0  0  0  0  0  0  0  0  0  0
   58.0930   31.0630   45.6480 C   0  0  0  0  0  0  0  0  0  0  0  0
   57.0040   30.4540   44.9890 O   0  0  0  0  0  0  0  0  0  0  0  0
   56.8120   30.3170   43.5850 C   0  0  0  0  0  0  0  0  0  0  0  0
   55.9300   29.6877   43.3952 H   0  0  0  0  0  0  0  0  0  0  0  0
   56.6571   31.3099   43.1375 H   0  0  0  0  0  0  0  0  0  0  0  0
   57.7005   29.8476   43.1375 H   0  0  0  0  0  0  0  0  0  0  0  0
   58.3950   26.5930   46.2700 C   0  0  0  0  0  0  0  0  0  0  0  0
   57.0000   26.7250   46.1880 C   0  0  0  0  0  0  0  0  0  0  0  0
   56.5459   27.7240   46.2643 H   0  0  0  0  0  0  0  0  0  0  0  0
   56.1780   25.6080   46.0110 C   0  0  0  0  0  0  0  0  0  0  0  0
   54.7900   25.8090   45.9470 O   0  0  0  0  0  0  0  0  0  0  0  0
   53.8430   24.7970   45.6210 C   0  0  0  0  0  0  0  0  0  0  0  0
   53.4369   24.3630   46.5466 H   0  0  0  0  0  0  0  0  0  0  0  0
   53.0244   25.2368   45.0323 H   0  0  0  0  0  0  0  0  0  0  0  0
   54.3360   24.0094   45.0323 H   0  0  0  0  0  0  0  0  0  0  0  0
   56.7620   24.3320   45.9010 C   0  0  0  0  0  0  0  0  0  0  0  0
   56.1222   23.4473   45.7666 H   0  0  0  0  0  0  0  0  0  0  0  0
   58.1590   24.1820   45.9620 C   0  0  0  0  0  0  0  0  0  0  0  0
   58.7880   22.9320   45.8410 O   0  0  0  0  0  0  0  0  0  0  0  0
   58.8920   22.1980   44.6270 C   0  0  0  0  0  0  0  0  0  0  0  0
   59.0430   21.1324   44.8546 H   0  0  0  0  0  0  0  0  0  0  0  0
   57.9675   22.3210   44.0438 H   0  0  0  0  0  0  0  0  0  0  0  0
   59.7460   22.5730   44.0438 H   0  0  0  0  0  0  0  0  0  0  0  0
   58.9660   25.3120   46.1440 C   0  0  0  0  0  0  0  0  0  0  0  0
   60.0591   25.1975   46.1891 H   0  0  0  0  0  0  0  0  0  0  0  0
  1  2  1  0
  2  3  2  0
  3  4  1  0
  3  5  1  0
  5  6  2  0
  6  7  1  0
  6  8  1  0
  8  9  1  0
  8 10  2  0
 10 11  1  0
 11 12  1  0
 12 13  1  0
 12 14  1  0
 12 15  1  0
 10 16  1  0
 16 17  1  0
 17 18  1  0
 18 19  1  0
 18 20  1  0
 18 21  1  0
 16 22  2  0
 22 23  1  0
 23 24  1  0
 24 25  1  0
 24 26  1  0
 24 27  1  0
  2 28  1  0
 28 29  2  0
 29 30  1  0
 29 31  1  0
 31 32  1  0
 32 33  1  0
 33 34  1  0
 33 35  1  0
 33 36  1  0
 31 37  2  0
 37 38  1  0
 37 39  1  0
 39 40  1  0
 40 41  1  0
 41 42  1  0
 41 43  1  0
 41 44  1  0
 39 45  2  0
 45 46  1  0
 22  5  1  0
 45 28  1  0
M  END
>  <UniqueID>  (68) 
58

>  <SMILES>  (68) 
COc1cc(/C=C/c2ccc(OC)c(OC)c2OC)cc(OC)c1

>  <Energy>  (68) 
57.37332387696346

>  <Genealogy>  (68) 
COc1cc(/C=C/c2ccc(OC)c(OC)c2OC)cc(OC)c1 (cis-trans isomerization)
COc1cc(/C=C/c2ccc(OC)c(OC)c2OC)cc(OC)c1 (3D coordinates assigned)
COc1cc(/C=C/c2ccc(OC)c(OC)c2OC)cc(OC)c1 (optimized conformer: 57.37332387696346 kcal/mol)

>  <smiles>  (68) 
COc1cc(C=Cc2ccc(OC)c(OC)c2OC)cc(OC)c1

>  <score_type>  (68) 
oracle

>  <origin>  (68) 
adg

>  <m_score__min__energy>  (68) 
-6.6900000000000004

>  <m_primary>  (68) 
energy

$$$$
68:0
     RDKit          3D

 35 36  0  0  0  0  0  0  0  0999 V2000
   59.2210   34.6620   47.3370 C   0  0  0  0  0  0  0  0  0  0  0  0
   58.1490   34.4170   46.4320 O   0  0  0  0  0  0  0  0  0  0  0  0
   58.0790   33.3150   45.5670 C   0  0  0  0  0  0  0  0  0  0  0  0
   57.8460   33.4510   44.1860 C   0  0  0  0  0  0  0  0  0  0  0  0
   57.7920   32.3220   43.3670 C   0  0  0  0  0  0  0  0  0  0  0  0
   57.9670   31.0480   43.9120 C   0  0  0  0  0  0  0  0  0  0  0  0
   58.1920   30.8930   45.2900 C   0  0  0  0  0  0  0  0  0  0  0  0
   58.3860   29.5390   45.8670 C   0  0  0  0  0  0  0  0  0  0  0  0
   57.6490   28.4600   45.3510 C   0  0  0  0  0  0  0  0  0  0  0  0
   57.8130   27.1670   45.8680 C   0  0  0  0  0  0  0  0  0  0  0  0
   57.0490   26.0130   45.2810 C   0  0  0  0  0  0  0  0  0  0  0  0
   55.8390   25.7230   46.1100 C   0  0  0  0  0  0  0  0  0  0  0  0
   54.7630   26.3410   45.8980 O   0  0  0  0  0  0  0  0  0  0  0  0
   55.8850   24.7350   47.0860 O   0  0  0  0  0  0  0  0  0  0  0  0
   58.7380   26.9510   46.8970 C   0  0  0  0  0  0  0  0  0  0  0  0
   59.4690   28.0170   47.4250 C   0  0  0  0  0  0  0  0  0  0  0  0
   59.2960   29.3210   46.9240 C   0  0  0  0  0  0  0  0  0  0  0  0
   59.9960   30.4160   47.4610 O   0  0  0  0  0  0  0  0  0  0  0  0
   61.3230   30.7830   47.1020 C   0  0  0  0  0  0  0  0  0  0  0  0
   58.2530   32.0340   46.1090 C   0  0  0  0  0  0  0  0  0  0  0  0
   58.8545   34.5782   48.3708 H   0  0  0  0  0  0  0  0  0  0  0  0
   60.0183   33.9229   47.1696 H   0  0  0  0  0  0  0  0  0  0  0  0
   59.6181   35.6741   47.1696 H   0  0  0  0  0  0  0  0  0  0  0  0
   57.7058   34.4511   43.7500 H   0  0  0  0  0  0  0  0  0  0  0  0
   57.6109   32.4361   42.2880 H   0  0  0  0  0  0  0  0  0  0  0  0
   57.9285   30.1629   43.2600 H   0  0  0  0  0  0  0  0  0  0  0  0
   56.9350   28.6315   44.5319 H   0  0  0  0  0  0  0  0  0  0  0  0
   56.7364   26.2667   44.2573 H   0  0  0  0  0  0  0  0  0  0  0  0
   57.6961   25.1236   45.2652 H   0  0  0  0  0  0  0  0  0  0  0  0
   58.8896   25.9355   47.2916 H   0  0  0  0  0  0  0  0  0  0  0  0
   60.1861   27.8363   48.2393 H   0  0  0  0  0  0  0  0  0  0  0  0
   61.9172   30.9473   48.0130 H   0  0  0  0  0  0  0  0  0  0  0  0
   61.7783   29.9771   46.5077 H   0  0  0  0  0  0  0  0  0  0  0  0
   61.2995   31.7084   46.5077 H   0  0  0  0  0  0  0  0  0  0  0  0
   58.4393   31.9203   47.1871 H   0  0  0  0  0  0  0  0  0  0  0  0
  1  2  1  0
  2  3  1  0
  3  4  2  0
  4  5  1  0
  5  6  2  0
  6  7  1  0
  7  8  1  0
  8  9  2  0
  9 10  1  0
 10 11  1  0
 11 12  1  0
 12 13  2  0
 12 14  1  0
 10 15  2  0
 15 16  1  0
 16 17  2  0
 17 18  1  0
 18 19  1  0
  7 20  2  0
 20  3  1  0
 17  8  1  0
  1 21  1  0
  1 22  1  0
  1 23  1  0
  4 24  1  0
  5 25  1  0
  6 26  1  0
  9 27  1  0
 11 28  1  0
 11 29  1  0
 15 30  1  0
 16 31  1  0
 19 32  1  0
 19 33  1  0
 19 34  1  0
 20 35  1  0
M  CHG  1  14  -1
M  END
>  <UniqueID>  (69) 
59

>  <SMILES>  (69) 
COc1cccc(-c2cc(CC(=O)[O-])ccc2OC)c1

>  <Energy>  (69) 
38.74055731493365

>  <Genealogy>  (69) 
COc1cccc(-c2cc(CC(=O)[O-])ccc2OC)c1 (protonated)
COc1cccc(-c2cc(CC(=O)[O-])ccc2OC)c1 (3D coordinates assigned)
COc1cccc(-c2cc(CC(=O)[O-])ccc2OC)c1 (optimized conformer: 38.74055731493365 kcal/mol)

>  <smiles>  (69) 
COc1cccc(-c2cc(CC(=O)O)ccc2OC)c1

>  <score_type>  (69) 
oracle

>  <origin>  (69) 
adg

>  <m_score__min__energy>  (69) 
-9.25

>  <m_primary>  (69) 
energy

$$$$
69:0
     RDKit          3D

 56 59  0  0  0  0  0  0  0  0999 V2000
   55.2790   29.1060   44.5080 O   0  0  0  0  0  0  0  0  0  0  0  0
   56.3640   29.7440   44.4640 C   0  0  0  0  0  0  0  0  0  0  0  0
   57.6690   28.9890   44.3810 C   0  0  0  0  0  0  0  0  0  0  0  0
   58.1290   28.5350   45.7330 C   0  0  0  0  0  0  0  0  0  0  0  0
   59.5020   29.0920   46.5290 S   0  0  0  0  0  0  0  0  0  0  0  0
   59.3050   28.0400   47.8350 C   0  0  0  0  0  0  0  0  0  0  0  0
   60.1740   27.9520   48.9820 N   0  0  0  0  0  0  0  0  0  0  0  0
   60.8590   26.6960   49.3280 C   0  0  0  0  0  0  0  0  0  0  0  0
   60.8540   26.4680   50.8490 C   0  0  0  0  0  0  0  0  0  0  0  0
   61.1360   27.7390   51.6780 C   0  0  0  0  0  0  0  0  0  0  0  0
   61.5310   28.9420   50.8170 C   0  0  0  0  0  0  0  0  0  0  0  0
   60.4800   29.1830   49.7240 C   0  0  0  0  0  0  0  0  0  0  0  0
   58.2100   27.2590   47.6750 N   0  0  0  0  0  0  0  0  0  0  0  0
   57.5600   27.5300   46.5110 C   0  0  0  0  0  0  0  0  0  0  0  0
   56.4120   26.8440   46.1340 O   0  0  0  0  0  0  0  0  0  0  0  0
   56.3110   31.1680   44.3160 N   0  0  0  0  0  0  0  0  0  0  0  0
   57.0950   32.1270   45.0370 C   0  0  0  0  0  0  0  0  0  0  0  0
   57.8030   31.7120   46.1710 C   0  0  0  0  0  0  0  0  0  0  0  0
   58.5970   32.6190   46.8770 C   0  0  0  0  0  0  0  0  0  0  0  0
   58.7000   33.9520   46.4500 C   0  0  0  0  0  0  0  0  0  0  0  0
   59.5140   34.9210   47.2050 C   0  0  0  0  0  0  0  0  0  0  0  0
   59.9890   35.9220   46.6060 O   0  0  0  0  0  0  0  0  0  0  0  0
   59.7640   34.7710   48.6100 N   0  0  0  0  0  0  0  0  0  0  0  0
   61.0810   34.5860   49.2150 C   0  0  0  0  0  0  0  0  0  0  0  0
   61.8640   33.5360   48.4670 C   0  0  0  0  0  0  0  0  0  0  0  0
   63.0390   33.8930   47.7850 C   0  0  0  0  0  0  0  0  0  0  0  0
   63.7860   32.9190   47.1110 C   0  0  0  0  0  0  0  0  0  0  0  0
   63.3670   31.5840   47.1190 C   0  0  0  0  0  0  0  0  0  0  0  0
   62.2070   31.2210   47.8050 C   0  0  0  0  0  0  0  0  0  0  0  0
   61.4520   32.1920   48.4710 C   0  0  0  0  0  0  0  0  0  0  0  0
   58.0380   34.3520   45.2810 C   0  0  0  0  0  0  0  0  0  0  0  0
   57.2430   33.4450   44.5750 C   0  0  0  0  0  0  0  0  0  0  0  0
   57.5319   28.1085   43.7360 H   0  0  0  0  0  0  0  0  0  0  0  0
   58.4320   29.6641   43.9661 H   0  0  0  0  0  0  0  0  0  0  0  0
   60.3435   25.8576   48.8366 H   0  0  0  0  0  0  0  0  0  0  0  0
   61.9025   26.7595   48.9860 H   0  0  0  0  0  0  0  0  0  0  0  0
   59.8657   26.0801   51.1368 H   0  0  0  0  0  0  0  0  0  0  0  0
   61.6680   25.7607   51.0662 H   0  0  0  0  0  0  0  0  0  0  0  0
   60.2286   27.9964   52.2440 H   0  0  0  0  0  0  0  0  0  0  0  0
   61.9854   27.5168   52.3407 H   0  0  0  0  0  0  0  0  0  0  0  0
   61.6037   29.8359   51.4539 H   0  0  0  0  0  0  0  0  0  0  0  0
   62.5017   28.7383   50.3413 H   0  0  0  0  0  0  0  0  0  0  0  0
   59.5571   29.5551   50.1929 H   0  0  0  0  0  0  0  0  0  0  0  0
   60.8864   29.9186   49.0143 H   0  0  0  0  0  0  0  0  0  0  0  0
   55.9350   27.0680   45.2660 H   0  0  0  0  0  0  0  0  0  0  0  0
   57.7338   30.6671   46.5077 H   0  0  0  0  0  0  0  0  0  0  0  0
   59.1440   32.2869   47.7717 H   0  0  0  0  0  0  0  0  0  0  0  0
   61.6307   35.5383   49.1834 H   0  0  0  0  0  0  0  0  0  0  0  0
   60.9507   34.2573   50.2566 H   0  0  0  0  0  0  0  0  0  0  0  0
   63.3734   34.9409   47.7804 H   0  0  0  0  0  0  0  0  0  0  0  0
   64.7032   33.2037   46.5747 H   0  0  0  0  0  0  0  0  0  0  0  0
   63.9517   30.8207   46.5847 H   0  0  0  0  0  0  0  0  0  0  0  0
   61.8858   30.1691   47.8219 H   0  0  0  0  0  0  0  0  0  0  0  0
   60.5320   31.9027   49.0001 H   0  0  0  0  0  0  0  0  0  0  0  0
   58.1447   35.3847   44.9176 H   0  0  0  0  0  0  0  0  0  0  0  0
   56.7317   33.7643   43.6549 H   0  0  0  0  0  0  0  0  0  0  0  0
  1  2  2  0
  2  3  1  0
  3  4  1  0
  4  5  1  0
  5  6  1  0
  6  7  1  0
  7  8  1  0
  8  9  1  0
  9 10  1  0
 10 11  1  0
 11 12  1  0
  6 13  2  0
 13 14  1  0
 14 15  1  0
  2 16  1  0
 16 17  1  0
 17 18  2  0
 18 19  1  0
 19 20  2  0
 20 21  1  0
 21 22  2  0
 21 23  1  0
 23 24  1  0
 24 25  1  0
 25 26  2  0
 26 27  1  0
 27 28  2  0
 28 29  1  0
 29 30  2  0
 20 31  1  0
 31 32  2  0
 14  4  2  0
 32 17  1  0
 12  7  1  0
 30 25  1  0
  3 33  1  0
  3 34  1  0
  8 35  1  0
  8 36  1  0
  9 37  1  0
  9 38  1  0
 10 39  1  0
 10 40  1  0
 11 41  1  0
 11 42  1  0
 12 43  1  0
 12 44  1  0
 15 45  1  0
 18 46  1  0
 19 47  1  0
 24 48  1  0
 24 49  1  0
 26 50  1  0
 27 51  1  0
 28 52  1  0
 29 53  1  0
 30 54  1  0
 31 55  1  0
 32 56  1  0
M  CHG  2  16  -1  23  -1
M  END
>  <UniqueID>  (70) 
60

>  <SMILES>  (70) 
O=C(Cc1sc(N2CCCCC2)nc1O)[N-]c1ccc(C(=O)[N-]Cc2ccccc2)cc1

>  <Energy>  (70) 
96.04470038801935

>  <Genealogy>  (70) 
O=C(Cc1sc(N2CCCCC2)nc1O)[N-]c1ccc(C(=O)[N-]Cc2ccccc2)cc1 (protonated)
O=C(Cc1sc(N2CCCCC2)nc1O)[N-]c1ccc(C(=O)[N-]Cc2ccccc2)cc1 (3D coordinates assigned)
O=C(Cc1sc(N2CCCCC2)nc1O)[N-]c1ccc(C(=O)[N-]Cc2ccccc2)cc1 (nonaromatic ring conformer: 96.04470038801935 kcal/mol)

>  <smiles>  (70) 
O=C(Cc1sc(N2CCCCC2)nc1O)Nc1ccc(C(=O)NCc2ccccc2)cc1

>  <score_type>  (70) 
oracle

>  <origin>  (70) 
adg

>  <m_score__min__energy>  (70) 
-12.300000000000001

>  <m_primary>  (70) 
energy

$$$$
70:0
     RDKit          3D

 22 23  0  0  0  0  0  0  0  0999 V2000
   60.4930   33.8710   49.6450 C   0  0  0  0  0  0  0  0  0  0  0  0
   59.2520   34.0330   48.9780 O   0  0  0  0  0  0  0  0  0  0  0  0
   59.1530   34.1270   47.6150 C   0  0  0  0  0  0  0  0  0  0  0  0
   59.6290   35.2650   46.9580 C   0  0  0  0  0  0  0  0  0  0  0  0
   59.5200   35.3380   45.5860 C   0  0  0  0  0  0  0  0  0  0  0  0
   58.9510   34.2940   44.9200 C   0  0  0  0  0  0  0  0  0  0  0  0
   58.4690   33.1500   45.5560 C   0  0  0  0  0  0  0  0  0  0  0  0
   57.8690   32.0610   44.7950 C   0  0  0  0  0  0  0  0  0  0  0  0
   58.5250   31.3410   43.8470 N   0  0  0  0  0  0  0  0  0  0  0  0
   57.6650   30.4320   43.3610 N   0  0  0  0  0  0  0  0  0  0  0  0
   56.5090   30.6200   44.0260 C   0  0  0  0  0  0  0  0  0  0  0  0
   55.1480   29.7220   43.7640 S   0  0  0  0  0  0  0  0  0  0  0  0
   56.6420   31.6110   44.8950 O   0  0  0  0  0  0  0  0  0  0  0  0
   58.5800   33.0810   46.9180 C   0  0  0  0  0  0  0  0  0  0  0  0
   60.3302   33.8923   50.7327 H   0  0  0  0  0  0  0  0  0  0  0  0
   60.9394   32.9070   49.3598 H   0  0  0  0  0  0  0  0  0  0  0  0
   61.1720   34.6881   49.3598 H   0  0  0  0  0  0  0  0  0  0  0  0
   60.0835   36.0895   47.5270 H   0  0  0  0  0  0  0  0  0  0  0  0
   59.8847   36.2205   45.0399 H   0  0  0  0  0  0  0  0  0  0  0  0
   58.8676   34.3567   43.8250 H   0  0  0  0  0  0  0  0  0  0  0  0
   57.9120   29.7440   42.6170 H   0  0  0  0  0  0  0  0  0  0  0  0
   58.2138   32.1946   47.4567 H   0  0  0  0  0  0  0  0  0  0  0  0
  1  2  1  0
  2  3  1  0
  3  4  2  0
  4  5  1  0
  5  6  2  0
  6  7  1  0
  7  8  1  0
  8  9  2  0
  9 10  1  0
 10 11  1  0
 11 12  2  0
 11 13  1  0
  7 14  2  0
 14  3  1  0
 13  8  1  0
  1 15  1  0
  1 16  1  0
  1 17  1  0
  4 18  1  0
  5 19  1  0
  6 20  1  0
 10 21  1  0
 14 22  1  0
M  END
>  <smiles>  (71) 
COc1cccc(-c2n[nH]c(=S)o2)c1

>  <score_type>  (71) 
oracle

>  <origin>  (71) 
adg

>  <m_score__min__energy>  (71) 
-5.71

>  <m_primary>  (71) 
energy

$$$$
71:0
     RDKit          3D

 27 28  0  0  0  0  0  0  0  0999 V2000
   59.5420   24.9012   46.8718 H   0  0  0  0  0  0  0  0  0  0  0  0
   58.5020   25.2070   46.6850 C   0  0  0  0  0  0  0  0  0  0  0  0
   58.2320   26.4590   46.1270 C   0  0  0  0  0  0  0  0  0  0  0  0
   59.0633   27.1342   45.8759 H   0  0  0  0  0  0  0  0  0  0  0  0
   56.9120   26.8630   45.8840 C   0  0  0  0  0  0  0  0  0  0  0  0
   56.6960   28.1600   45.3100 N   0  0  0  0  0  0  0  0  0  0  0  0
   57.5860   28.7830   44.6500 N   0  0  0  0  0  0  0  0  0  0  0  0
   57.7760   30.1980   44.7700 C   0  0  0  0  0  0  0  0  0  0  0  0
   58.1670   30.7270   46.0040 C   0  0  0  0  0  0  0  0  0  0  0  0
   58.3231   30.0556   46.8612 H   0  0  0  0  0  0  0  0  0  0  0  0
   58.3610   32.1040   46.1560 C   0  0  0  0  0  0  0  0  0  0  0  0
   58.6594   32.5111   47.1334 H   0  0  0  0  0  0  0  0  0  0  0  0
   58.1760   32.9680   45.0650 C   0  0  0  0  0  0  0  0  0  0  0  0
   58.3460   34.4490   45.2380 C   0  0  0  0  0  0  0  0  0  0  0  0
   58.3739   34.6921   46.3104 H   0  0  0  0  0  0  0  0  0  0  0  0
   59.2866   34.7678   44.7652 H   0  0  0  0  0  0  0  0  0  0  0  0
   57.5021   34.9727   44.7652 H   0  0  0  0  0  0  0  0  0  0  0  0
   57.7670   32.4420   43.8310 C   0  0  0  0  0  0  0  0  0  0  0  0
   57.5972   33.1155   42.9780 H   0  0  0  0  0  0  0  0  0  0  0  0
   57.5740   31.0650   43.6800 C   0  0  0  0  0  0  0  0  0  0  0  0
   57.2634   30.6584   42.7062 H   0  0  0  0  0  0  0  0  0  0  0  0
   55.8520   25.9850   46.2120 C   0  0  0  0  0  0  0  0  0  0  0  0
   54.5250   26.3370   45.9890 O   0  0  0  0  0  0  0  0  0  0  0  0
   56.1310   24.7310   46.7700 C   0  0  0  0  0  0  0  0  0  0  0  0
   55.3063   24.0487   47.0235 H   0  0  0  0  0  0  0  0  0  0  0  0
   57.4520   24.3430   47.0060 C   0  0  0  0  0  0  0  0  0  0  0  0
   57.7230   23.0980   47.5620 O   0  0  0  0  0  0  0  0  0  0  0  0
  1  2  1  0
  2  3  2  0
  3  4  1  0
  3  5  1  0
  5  6  1  0
  6  7  2  0
  7  8  1  0
  8  9  2  0
  9 10  1  0
  9 11  1  0
 11 12  1  0
 11 13  2  0
 13 14  1  0
 14 15  1  0
 14 16  1  0
 14 17  1  0
 13 18  1  0
 18 19  1  0
 18 20  2  0
 20 21  1  0
  5 22  2  0
 22 23  1  0
 22 24  1  0
 24 25  1  0
 24 26  2  0
 26 27  1  0
 26  2  1  0
 20  8  1  0
M  CHG  2  23  -1  27  -1
M  END
>  <UniqueID>  (72) 
61

>  <SMILES>  (72) 
Cc1ccc(/N=N/c2ccc([O-])cc2[O-])cc1

>  <Energy>  (72) 
28.805276980732007

>  <Genealogy>  (72) 
Cc1ccc(N=Nc2ccc([O-])cc2[O-])cc1 (protonated)
Cc1ccc(/N=N/c2ccc([O-])cc2[O-])cc1 (cis-trans isomerization)
Cc1ccc(/N=N/c2ccc([O-])cc2[O-])cc1 (3D coordinates assigned)
Cc1ccc(/N=N/c2ccc([O-])cc2[O-])cc1 (optimized conformer: 28.805276980732007 kcal/mol)

>  <smiles>  (72) 
Cc1ccc(N=Nc2ccc(O)cc2O)cc1

>  <score_type>  (72) 
oracle

>  <origin>  (72) 
adg

>  <m_score__min__energy>  (72) 
-12.220000000000001

>  <m_primary>  (72) 
energy

$$$$
72:0
     RDKit          3D

 40 41  0  0  0  0  0  0  0  0999 V2000
   58.9750   26.0000   46.0050 C   0  0  0  0  0  0  0  0  0  0  0  0
   58.0170   27.0900   45.6400 C   0  0  0  0  0  0  0  0  0  0  0  0
   58.3550   28.3280   45.1350 C   0  0  0  0  0  0  0  0  0  0  0  0
   57.1570   28.9880   44.9630 C   0  0  0  0  0  0  0  0  0  0  0  0
   56.9770   30.6240   44.3590 S   0  0  0  0  0  0  0  0  0  0  0  0
   55.5820   30.8350   43.8450 O   0  0  0  0  0  0  0  0  0  0  0  0
   57.9560   30.8430   43.2400 O   0  0  0  0  0  0  0  0  0  0  0  0
   57.3000   31.7610   45.6280 N   0  0  0  0  0  0  0  0  0  0  0  0
   58.6040   32.1310   46.0950 C   0  0  0  0  0  0  0  0  0  0  0  0
   59.0680   33.4540   46.0500 C   0  0  0  0  0  0  0  0  0  0  0  0
   60.3420   33.7720   46.5280 C   0  0  0  0  0  0  0  0  0  0  0  0
   61.1930   32.7800   47.0620 C   0  0  0  0  0  0  0  0  0  0  0  0
   62.5910   33.1740   47.5820 C   0  0  0  0  0  0  0  0  0  0  0  0
   63.4280   31.9600   48.0540 C   0  0  0  0  0  0  0  0  0  0  0  0
   63.3800   33.8780   46.4570 C   0  0  0  0  0  0  0  0  0  0  0  0
   62.4420   34.1350   48.7810 C   0  0  0  0  0  0  0  0  0  0  0  0
   60.7110   31.4500   47.0930 C   0  0  0  0  0  0  0  0  0  0  0  0
   59.4360   31.1360   46.6150 C   0  0  0  0  0  0  0  0  0  0  0  0
   56.1530   28.2270   45.3270 O   0  0  0  0  0  0  0  0  0  0  0  0
   56.6320   27.0750   45.7410 C   0  0  0  0  0  0  0  0  0  0  0  0
   55.7800   25.9800   46.2270 C   0  0  0  0  0  0  0  0  0  0  0  0
   56.2650   25.0290   46.8940 O   0  0  0  0  0  0  0  0  0  0  0  0
   54.4190   25.9930   45.9490 O   0  0  0  0  0  0  0  0  0  0  0  0
   59.0427   25.9229   47.1002 H   0  0  0  0  0  0  0  0  0  0  0  0
   58.6186   25.0450   45.5916 H   0  0  0  0  0  0  0  0  0  0  0  0
   59.9679   26.2308   45.5916 H   0  0  0  0  0  0  0  0  0  0  0  0
   59.3641   28.7074   44.9163 H   0  0  0  0  0  0  0  0  0  0  0  0
   58.4256   34.2453   45.6363 H   0  0  0  0  0  0  0  0  0  0  0  0
   60.6885   34.8152   46.4875 H   0  0  0  0  0  0  0  0  0  0  0  0
   63.4468   31.9328   49.1535 H   0  0  0  0  0  0  0  0  0  0  0  0
   62.9765   31.0325   47.6719 H   0  0  0  0  0  0  0  0  0  0  0  0
   64.4554   32.0522   47.6719 H   0  0  0  0  0  0  0  0  0  0  0  0
   64.1312   34.5483   46.9001 H   0  0  0  0  0  0  0  0  0  0  0  0
   63.8834   33.1235   45.8347 H   0  0  0  0  0  0  0  0  0  0  0  0
   62.6875   34.4638   45.8347 H   0  0  0  0  0  0  0  0  0  0  0  0
   62.5300   33.5673   49.7191 H   0  0  0  0  0  0  0  0  0  0  0  0
   63.2324   34.8988   48.7391 H   0  0  0  0  0  0  0  0  0  0  0  0
   61.4574   34.6236   48.7391 H   0  0  0  0  0  0  0  0  0  0  0  0
   61.3493   30.6516   47.4993 H   0  0  0  0  0  0  0  0  0  0  0  0
   59.0836   30.0945   46.6484 H   0  0  0  0  0  0  0  0  0  0  0  0
  1  2  1  0
  2  3  1  0
  3  4  2  0
  4  5  1  0
  5  6  2  0
  5  7  2  0
  5  8  1  0
  8  9  1  0
  9 10  2  0
 10 11  1  0
 11 12  2  0
 12 13  1  0
 13 14  1  0
 13 15  1  0
 13 16  1  0
 12 17  1  0
 17 18  2  0
  4 19  1  0
 19 20  1  0
 20 21  1  0
 21 22  2  0
 21 23  1  0
 20  2  2  0
 18  9  1  0
  1 24  1  0
  1 25  1  0
  1 26  1  0
  3 27  1  0
 10 28  1  0
 11 29  1  0
 14 30  1  0
 14 31  1  0
 14 32  1  0
 15 33  1  0
 15 34  1  0
 15 35  1  0
 16 36  1  0
 16 37  1  0
 16 38  1  0
 17 39  1  0
 18 40  1  0
M  CHG  2   8  -1  23  -1
M  END
>  <UniqueID>  (73) 
62

>  <SMILES>  (73) 
Cc1cc(S(=O)(=O)[N-]c2ccc(C(C)(C)C)cc2)oc1C(=O)[O-]

>  <Energy>  (73) 
69.10691429350719

>  <Genealogy>  (73) 
Cc1cc(S(=O)(=O)[N-]c2ccc(C(C)(C)C)cc2)oc1C(=O)[O-] (protonated)
Cc1cc(S(=O)(=O)[N-]c2ccc(C(C)(C)C)cc2)oc1C(=O)[O-] (3D coordinates assigned)
Cc1cc(S(=O)(=O)[N-]c2ccc(C(C)(C)C)cc2)oc1C(=O)[O-] (optimized conformer: 69.10691429350719 kcal/mol)

>  <smiles>  (73) 
Cc1cc(S(=O)(=O)Nc2ccc(C(C)(C)C)cc2)oc1C(=O)O

>  <score_type>  (73) 
oracle

>  <origin>  (73) 
adg

>  <m_score__min__energy>  (73) 
-12.34

>  <m_primary>  (73) 
energy

$$$$
73:0
     RDKit          3D

 34 36  0  0  0  0  0  0  0  0999 V2000
   59.5020   27.1020   47.0960 C   0  0  0  0  0  0  0  0  0  0  0  0
   58.7290   27.0990   46.1710 C   0  0  0  0  0  0  0  0  0  0  0  0
   57.7860   27.0940   45.0440 C   0  0  0  0  0  0  0  0  0  0  0  0
   57.9770   28.3280   44.1330 C   0  0  0  0  0  0  0  0  0  0  0  0
   56.8950   29.4400   44.3230 C   0  0  2  0  0  0  0  0  0  0  0  0
   55.8760   29.0930   45.2370 O   0  0  0  0  0  0  0  0  0  0  0  0
   56.2410   29.8300   42.9680 C   0  0  0  0  0  0  0  0  0  0  0  0
   56.9020   31.1310   42.5010 C   0  0  0  0  0  0  0  0  0  0  0  0
   57.5550   31.6430   43.7220 C   0  0  0  0  0  0  0  0  0  0  0  0
   58.1470   32.8980   43.8560 C   0  0  0  0  0  0  0  0  0  0  0  0
   58.7470   33.2440   45.0700 C   0  0  0  0  0  0  0  0  0  0  0  0
   58.7550   32.3290   46.1400 C   0  0  0  0  0  0  0  0  0  0  0  0
   59.3540   32.6670   47.3590 C   0  0  0  0  0  0  0  0  0  0  0  0
   59.3580   31.7530   48.4090 C   0  0  0  0  0  0  0  0  0  0  0  0
   58.7600   30.5020   48.2360 C   0  0  0  0  0  0  0  0  0  0  0  0
   58.7610   29.6740   49.1860 O   0  0  0  0  0  0  0  0  0  0  0  0
   58.1770   30.1750   47.0490 N   0  0  0  0  0  0  0  0  0  0  0  0
   58.1560   31.0480   45.9950 C   0  0  0  0  0  0  0  0  0  0  0  0
   57.5540   30.7250   44.7520 C   0  0  0  0  0  0  0  0  0  0  0  0
   60.2074   27.1047   47.9401 H   0  0  0  0  0  0  0  0  0  0  0  0
   57.9469   26.1831   44.4487 H   0  0  0  0  0  0  0  0  0  0  0  0
   56.7647   27.1235   45.4515 H   0  0  0  0  0  0  0  0  0  0  0  0
   58.9629   28.7660   44.3481 H   0  0  0  0  0  0  0  0  0  0  0  0
   57.8850   27.9721   43.0963 H   0  0  0  0  0  0  0  0  0  0  0  0
   55.8880   29.7160   46.0090 H   0  0  0  0  0  0  0  0  0  0  0  0
   56.4089   29.0351   42.2264 H   0  0  0  0  0  0  0  0  0  0  0  0
   55.1554   29.9644   43.0838 H   0  0  0  0  0  0  0  0  0  0  0  0
   57.6427   30.9345   41.7118 H   0  0  0  0  0  0  0  0  0  0  0  0
   56.1855   31.8440   42.0670 H   0  0  0  0  0  0  0  0  0  0  0  0
   58.1420   33.6079   43.0158 H   0  0  0  0  0  0  0  0  0  0  0  0
   59.2137   34.2329   45.1896 H   0  0  0  0  0  0  0  0  0  0  0  0
   59.8214   33.6545   47.4873 H   0  0  0  0  0  0  0  0  0  0  0  0
   59.8287   32.0138   49.3684 H   0  0  0  0  0  0  0  0  0  0  0  0
   57.7410   29.2320   46.9710 H   0  0  0  0  0  0  0  0  0  0  0  0
  1  2  3  0
  2  3  1  0
  3  4  1  0
  4  5  1  0
  5  6  1  1
  5  7  1  0
  7  8  1  0
  8  9  1  0
  9 10  2  0
 10 11  1  0
 11 12  2  0
 12 13  1  0
 13 14  2  0
 14 15  1  0
 15 16  2  0
 15 17  1  0
 17 18  1  0
 18 19  2  0
 19  5  1  0
 19  9  1  0
 18 12  1  0
  1 20  1  0
  3 21  1  0
  3 22  1  0
  4 23  1  0
  4 24  1  0
  6 25  1  0
  7 26  1  0
  7 27  1  0
  8 28  1  0
  8 29  1  0
 10 30  1  0
 11 31  1  0
 13 32  1  0
 14 33  1  0
 17 34  1  0
M  END
>  <UniqueID>  (74) 
63

>  <SMILES>  (74) 
C#CCC[C@]1(O)CCc2ccc3ccc(=O)[nH]c3c21

>  <Energy>  (74) 
50.93862460464406

>  <Genealogy>  (74) 
C#CCC[C@]1(O)CCc2ccc3ccc(=O)[nH]c3c21 (chirality)
C#CCC[C@]1(O)CCc2ccc3ccc(=O)[nH]c3c21 (3D coordinates assigned)
C#CCC[C@]1(O)CCc2ccc3ccc(=O)[nH]c3c21 (nonaromatic ring conformer: 50.93862460464406 kcal/mol)

>  <smiles>  (74) 
C#CCCC1(O)CCc2ccc3ccc(=O)[nH]c3c21

>  <score_type>  (74) 
oracle

>  <origin>  (74) 
adg

>  <m_score__min__energy>  (74) 
-7.3600000000000003

>  <m_primary>  (74) 
energy

$$$$
74:0
     RDKit          3D

 51 53  0  0  0  0  0  0  0  0999 V2000
   59.9980   34.9280   47.6920 C   0  0  0  0  0  0  0  0  0  0  0  0
   60.6390   33.5340   47.5120 C   0  0  0  0  0  0  0  0  0  0  0  0
   62.0050   33.6860   46.8080 C   0  0  0  0  0  0  0  0  0  0  0  0
   60.8990   32.9530   48.9230 C   0  0  0  0  0  0  0  0  0  0  0  0
   59.7130   32.6490   46.6550 C   0  0  0  0  0  0  0  0  0  0  0  0
   58.7080   33.2500   45.8640 C   0  0  0  0  0  0  0  0  0  0  0  0
   57.8480   32.4800   45.0780 C   0  0  0  0  0  0  0  0  0  0  0  0
   57.9650   31.0870   45.0600 C   0  0  0  0  0  0  0  0  0  0  0  0
   56.8660   30.1190   44.0750 S   0  0  0  0  0  0  0  0  0  0  0  0
   57.0450   30.4820   42.6260 O   0  0  0  0  0  0  0  0  0  0  0  0
   55.4480   30.4390   44.4620 O   0  0  0  0  0  0  0  0  0  0  0  0
   57.1540   28.4080   44.2860 N   0  0  0  0  0  0  0  0  0  0  0  0
   58.5900   28.0970   44.0940 C   0  0  0  0  0  0  0  0  0  0  0  0
   59.0180   26.7660   44.7510 C   0  0  0  0  0  0  0  0  0  0  0  0
   57.8600   25.8910   44.9790 N   0  0  0  0  0  0  0  0  0  0  0  0
   57.9380   24.4720   44.7410 C   0  0  0  0  0  0  0  0  0  0  0  0
   57.0040   23.8210   43.9170 C   0  0  0  0  0  0  0  0  0  0  0  0
   57.1010   22.4410   43.7260 C   0  0  0  0  0  0  0  0  0  0  0  0
   58.1120   21.7200   44.3600 C   0  0  0  0  0  0  0  0  0  0  0  0
   59.0130   22.3920   45.1870 C   0  0  0  0  0  0  0  0  0  0  0  0
   58.9040   23.7360   45.3610 N   0  0  0  0  0  0  0  0  0  0  0  0
   56.6910   26.4320   45.6820 C   0  0  0  0  0  0  0  0  0  0  0  0
   56.6670   27.9650   45.6050 C   0  0  0  0  0  0  0  0  0  0  0  0
   58.9550   30.4720   45.8300 C   0  0  0  0  0  0  0  0  0  0  0  0
   59.8190   31.2380   46.6190 C   0  0  0  0  0  0  0  0  0  0  0  0
   59.8963   35.1491   48.7648 H   0  0  0  0  0  0  0  0  0  0  0  0
   60.6366   35.6890   47.2197 H   0  0  0  0  0  0  0  0  0  0  0  0
   59.0046   34.9385   47.2197 H   0  0  0  0  0  0  0  0  0  0  0  0
   62.7992   33.7744   47.5639 H   0  0  0  0  0  0  0  0  0  0  0  0
   62.1937   32.8033   46.1793 H   0  0  0  0  0  0  0  0  0  0  0  0
   61.9951   34.5886   46.1793 H   0  0  0  0  0  0  0  0  0  0  0  0
   60.5744   33.6783   49.6837 H   0  0  0  0  0  0  0  0  0  0  0  0
   60.3339   32.0171   49.0440 H   0  0  0  0  0  0  0  0  0  0  0  0
   61.9735   32.7508   49.0440 H   0  0  0  0  0  0  0  0  0  0  0  0
   58.6011   34.3448   45.8674 H   0  0  0  0  0  0  0  0  0  0  0  0
   57.0746   32.9721   44.4699 H   0  0  0  0  0  0  0  0  0  0  0  0
   56.6020   27.9170   43.5430 H   0  0  0  0  0  0  0  0  0  0  0  0
   58.7930   28.0351   43.0147 H   0  0  0  0  0  0  0  0  0  0  0  0
   59.1657   28.9000   44.5776 H   0  0  0  0  0  0  0  0  0  0  0  0
   59.7315   26.2524   44.0898 H   0  0  0  0  0  0  0  0  0  0  0  0
   59.4826   26.9901   45.7226 H   0  0  0  0  0  0  0  0  0  0  0  0
   56.2031   24.3937   43.4265 H   0  0  0  0  0  0  0  0  0  0  0  0
   56.3804   21.9233   43.0759 H   0  0  0  0  0  0  0  0  0  0  0  0
   58.1984   20.6337   44.2100 H   0  0  0  0  0  0  0  0  0  0  0  0
   59.8115   21.8343   45.6982 H   0  0  0  0  0  0  0  0  0  0  0  0
   55.7761   26.0337   45.2191 H   0  0  0  0  0  0  0  0  0  0  0  0
   56.7475   26.1339   46.7393 H   0  0  0  0  0  0  0  0  0  0  0  0
   55.6369   28.3217   45.7523 H   0  0  0  0  0  0  0  0  0  0  0  0
   57.3186   28.3776   46.3893 H   0  0  0  0  0  0  0  0  0  0  0  0
   59.0558   29.3767   45.8157 H   0  0  0  0  0  0  0  0  0  0  0  0
   60.5919   30.7368   47.2202 H   0  0  0  0  0  0  0  0  0  0  0  0
  1  2  1  0
  2  3  1  0
  2  4  1  0
  2  5  1  0
  5  6  2  0
  6  7  1  0
  7  8  2  0
  8  9  1  0
  9 10  2  0
  9 11  2  0
  9 12  1  0
 12 13  1  0
 13 14  1  0
 14 15  1  0
 15 16  1  0
 16 17  2  0
 17 18  1  0
 18 19  2  0
 19 20  1  0
 20 21  2  0
 15 22  1  0
 22 23  1  0
  8 24  1  0
 24 25  2  0
 25  5  1  0
 23 12  1  0
 21 16  1  0
  1 26  1  0
  1 27  1  0
  1 28  1  0
  3 29  1  0
  3 30  1  0
  3 31  1  0
  4 32  1  0
  4 33  1  0
  4 34  1  0
  6 35  1  0
  7 36  1  0
 12 37  1  0
 13 38  1  0
 13 39  1  0
 14 40  1  0
 14 41  1  0
 17 42  1  0
 18 43  1  0
 19 44  1  0
 20 45  1  0
 22 46  1  0
 22 47  1  0
 23 48  1  0
 23 49  1  0
 24 50  1  0
 25 51  1  0
M  CHG  1  12   1
M  END
>  <UniqueID>  (75) 
64

>  <SMILES>  (75) 
CC(C)(C)c1ccc(S(=O)(=O)[NH+]2CCN(c3ccccn3)CC2)cc1

>  <Energy>  (75) 
60.84639683988354

>  <Genealogy>  (75) 
CC(C)(C)c1ccc(S(=O)(=O)[NH+]2CCN(c3ccccn3)CC2)cc1 (protonated)
CC(C)(C)c1ccc(S(=O)(=O)[NH+]2CCN(c3ccccn3)CC2)cc1 (3D coordinates assigned)
CC(C)(C)c1ccc(S(=O)(=O)[NH+]2CCN(c3ccccn3)CC2)cc1 (nonaromatic ring conformer: 60.84639683988354 kcal/mol)

>  <smiles>  (75) 
CC(C)(C)c1ccc(S(=O)(=O)N2CCN(c3ccccn3)CC2)cc1

>  <score_type>  (75) 
oracle

>  <origin>  (75) 
adg

>  <m_score__min__energy>  (75) 
-7.1100000000000003

>  <m_primary>  (75) 
energy

$$$$
75:0
     RDKit          3D

 23 24  0  0  0  0  0  0  0  0999 V2000
   53.5650   30.2960   49.3660 H   0  0  0  0  0  0  0  0  0  0  0  0
   53.3060   29.7140   50.1290 O   0  0  0  0  0  0  0  0  0  0  0  0
   52.0090   30.0780   50.5300 C   0  0  2  0  0  0  0  0  0  0  0  0
   51.5146   29.1188   50.7434 H   0  0  0  0  0  0  0  0  0  0  0  0
   51.3250   30.9100   49.4830 C   0  0  0  0  0  0  0  0  0  0  0  0
   51.0910   30.5030   48.3160 O   0  0  0  0  0  0  0  0  0  0  0  0
   50.9470   32.2080   49.9250 N   0  0  0  0  0  0  0  0  0  0  0  0
   51.3800   32.2660   51.2730 C   0  0  0  0  0  0  0  0  0  0  0  0
   51.2210   33.2830   51.9980 O   0  0  0  0  0  0  0  0  0  0  0  0
   52.0230   31.0270   51.7000 C   0  0  0  0  0  0  0  0  0  0  0  0
   52.6070   30.8430   52.8950 C   0  0  0  0  0  0  0  0  0  0  0  0
   52.0078   31.0293   53.7985 H   0  0  0  0  0  0  0  0  0  0  0  0
   54.0070   30.4050   53.0670 C   0  0  0  0  0  0  0  0  0  0  0  0
   54.3680   29.4750   54.0580 C   0  0  0  0  0  0  0  0  0  0  0  0
   53.5963   29.0450   54.7134 H   0  0  0  0  0  0  0  0  0  0  0  0
   55.7050   29.0950   54.2130 C   0  0  0  0  0  0  0  0  0  0  0  0
   55.9807   28.3560   54.9797 H   0  0  0  0  0  0  0  0  0  0  0  0
   56.6910   29.6530   53.3950 C   0  0  0  0  0  0  0  0  0  0  0  0
   57.7409   29.3465   53.5124 H   0  0  0  0  0  0  0  0  0  0  0  0
   56.3440   30.6000   52.4280 C   0  0  0  0  0  0  0  0  0  0  0  0
   57.3040   31.1510   51.6430 F   0  0  0  0  0  0  0  0  0  0  0  0
   55.0070   30.9830   52.2700 C   0  0  0  0  0  0  0  0  0  0  0  0
   54.7391   31.7400   51.5182 H   0  0  0  0  0  0  0  0  0  0  0  0
  1  2  1  0
  2  3  1  0
  3  4  1  1
  3  5  1  0
  5  6  2  0
  5  7  1  0
  7  8  1  0
  8  9  2  0
  8 10  1  0
 10 11  2  0
 11 12  1  0
 11 13  1  0
 13 14  2  0
 14 15  1  0
 14 16  1  0
 16 17  1  0
 16 18  2  0
 18 19  1  0
 18 20  1  0
 20 21  1  0
 20 22  2  0
 22 23  1  0
 10  3  1  0
 22 13  1  0
M  CHG  1   7  -1
M  END
>  <UniqueID>  (76) 
65

>  <SMILES>  (76) 
O=C1[N-]C(=O)[C@@H](O)/C1=C\c1cccc(F)c1

>  <Energy>  (76) 
45.6094524549047

>  <Genealogy>  (76) 
O=C1[N-]C(=O)C(O)C1=Cc1cccc(F)c1 (protonated)
O=C1[N-]C(=O)[C@@H](O)C1=Cc1cccc(F)c1 (chirality)
O=C1[N-]C(=O)[C@@H](O)/C1=C\c1cccc(F)c1 (cis-trans isomerization)
O=C1[N-]C(=O)[C@@H](O)/C1=C\c1cccc(F)c1 (3D coordinates assigned)
O=C1[N-]C(=O)[C@@H](O)/C1=C\c1cccc(F)c1 (nonaromatic ring conformer: 45.6094524549047 kcal/mol)

>  <smiles>  (76) 
O=C1NC(=O)C(O)C1=Cc1cccc(F)c1

>  <score_type>  (76) 
oracle

>  <origin>  (76) 
adg

>  <m_score__min__energy>  (76) 
-8.4299999999999997

>  <m_primary>  (76) 
energy

$$$$
76:0
     RDKit          3D

 66 69  0  0  0  0  0  0  0  0999 V2000
   59.4490   34.8330   47.2320 O   0  0  0  0  0  0  0  0  0  0  0  0
   59.7670   33.7390   47.7740 C   0  0  0  0  0  0  0  0  0  0  0  0
   61.0200   33.6470   48.4770 C   0  0  0  0  0  0  0  0  0  0  0  0
   62.0800   33.5700   49.0460 C   0  0  0  0  0  0  0  0  0  0  0  0
   63.3540   33.4910   49.7070 C   0  0  0  0  0  0  0  0  0  0  0  0
   64.3910   32.7440   49.1290 C   0  0  0  0  0  0  0  0  0  0  0  0
   65.6290   32.6520   49.7730 C   0  0  0  0  0  0  0  0  0  0  0  0
   65.8330   33.3090   50.9940 C   0  0  0  0  0  0  0  0  0  0  0  0
   64.8000   34.0620   51.5680 C   0  0  0  0  0  0  0  0  0  0  0  0
   63.5610   34.1540   50.9260 C   0  0  0  0  0  0  0  0  0  0  0  0
   58.9010   32.5830   47.6780 N   0  0  1  0  0  0  0  0  0  0  0  0
   57.7450   32.8280   46.7840 C   0  0  0  0  0  0  0  0  0  0  0  0
   58.1560   33.0770   45.3180 C   0  0  0  0  0  0  0  0  0  0  0  0
   57.5950   32.0380   44.3770 C   0  0  0  0  0  0  0  0  0  0  0  0
   57.6170   32.2510   42.9880 C   0  0  0  0  0  0  0  0  0  0  0  0
   57.1270   31.2740   42.1180 C   0  0  0  0  0  0  0  0  0  0  0  0
   56.6080   30.0790   42.6260 C   0  0  0  0  0  0  0  0  0  0  0  0
   56.5710   29.8640   44.0040 C   0  0  0  0  0  0  0  0  0  0  0  0
   57.0650   30.8360   44.8790 C   0  0  0  0  0  0  0  0  0  0  0  0
   59.6790   31.4550   47.2070 C   0  0  0  0  0  0  0  0  0  0  0  0
   60.5540   31.6100   46.3630 O   0  0  0  0  0  0  0  0  0  0  0  0
   59.4600   30.0830   47.7880 C   0  0  0  0  0  0  0  0  0  0  0  0
   59.2220   29.0820   46.6890 C   0  0  0  0  0  0  0  0  0  0  0  0
   59.9190   29.1910   45.4720 C   0  0  0  0  0  0  0  0  0  0  0  0
   59.6960   28.2710   44.4440 C   0  0  0  0  0  0  0  0  0  0  0  0
   58.7770   27.2320   44.6190 C   0  0  0  0  0  0  0  0  0  0  0  0
   58.0890   27.1010   45.8350 C   0  0  0  0  0  0  0  0  0  0  0  0
   56.8950   25.8190   46.0280 S   0  0  0  0  0  0  0  0  0  0  0  0
   55.5410   26.4190   46.2900 O   0  0  0  0  0  0  0  0  0  0  0  0
   57.2800   24.9680   47.2020 O   0  0  0  0  0  0  0  0  0  0  0  0
   56.8430   24.8350   44.5850 N   0  0  0  0  0  0  0  0  0  0  0  0
   55.4740   24.3270   44.3740 C   0  0  0  0  0  0  0  0  0  0  0  0
   55.4910   23.1620   43.3720 C   0  0  0  0  0  0  0  0  0  0  0  0
   56.3050   22.0580   43.7560 O   0  0  0  0  0  0  0  0  0  0  0  0
   57.2310   22.3630   44.7870 C   0  0  0  0  0  0  0  0  0  0  0  0
   57.8600   23.7580   44.6360 C   0  0  0  0  0  0  0  0  0  0  0  0
   58.3180   28.0240   46.8710 C   0  0  0  0  0  0  0  0  0  0  0  0
   64.2305   32.2307   48.1694 H   0  0  0  0  0  0  0  0  0  0  0  0
   66.4420   32.0644   49.3215 H   0  0  0  0  0  0  0  0  0  0  0  0
   66.8055   33.2335   51.5025 H   0  0  0  0  0  0  0  0  0  0  0  0
   64.9637   34.5810   52.5240 H   0  0  0  0  0  0  0  0  0  0  0  0
   62.7500   34.7453   51.3761 H   0  0  0  0  0  0  0  0  0  0  0  0
   58.5370   32.3490   48.6300 H   0  0  0  0  0  0  0  0  0  0  0  0
   57.0838   31.9495   46.8179 H   0  0  0  0  0  0  0  0  0  0  0  0
   57.2402   33.7373   47.1422 H   0  0  0  0  0  0  0  0  0  0  0  0
   57.7872   34.0669   45.0113 H   0  0  0  0  0  0  0  0  0  0  0  0
   59.2532   33.0202   45.2637 H   0  0  0  0  0  0  0  0  0  0  0  0
   58.0217   33.1908   42.5843 H   0  0  0  0  0  0  0  0  0  0  0  0
   57.1495   31.4450   41.0316 H   0  0  0  0  0  0  0  0  0  0  0  0
   56.2288   29.3082   41.9389 H   0  0  0  0  0  0  0  0  0  0  0  0
   56.1524   28.9281   44.4027 H   0  0  0  0  0  0  0  0  0  0  0  0
   57.0390   30.6599   45.9645 H   0  0  0  0  0  0  0  0  0  0  0  0
   60.3496   29.7861   48.3628 H   0  0  0  0  0  0  0  0  0  0  0  0
   58.5782   30.1093   48.4451 H   0  0  0  0  0  0  0  0  0  0  0  0
   60.6442   30.0056   45.3286 H   0  0  0  0  0  0  0  0  0  0  0  0
   60.2446   28.3645   43.4952 H   0  0  0  0  0  0  0  0  0  0  0  0
   58.5932   26.5171   43.8034 H   0  0  0  0  0  0  0  0  0  0  0  0
   55.0644   23.9762   45.3327 H   0  0  0  0  0  0  0  0  0  0  0  0
   54.8474   25.1373   43.9730 H   0  0  0  0  0  0  0  0  0  0  0  0
   54.4593   22.8006   43.2493 H   0  0  0  0  0  0  0  0  0  0  0  0
   55.9243   23.5586   42.4420 H   0  0  0  0  0  0  0  0  0  0  0  0
   56.7074   22.3173   45.7533 H   0  0  0  0  0  0  0  0  0  0  0  0
   58.0456   21.6263   44.7262 H   0  0  0  0  0  0  0  0  0  0  0  0
   58.5246   23.9403   45.4934 H   0  0  0  0  0  0  0  0  0  0  0  0
   58.4135   23.7747   43.6855 H   0  0  0  0  0  0  0  0  0  0  0  0
   57.7864   27.9163   47.8280 H   0  0  0  0  0  0  0  0  0  0  0  0
  1  2  2  0
  2  3  1  0
  3  4  3  0
  4  5  1  0
  5  6  2  0
  6  7  1  0
  7  8  2  0
  8  9  1  0
  9 10  2  0
  2 11  1  0
 11 12  1  0
 12 13  1  0
 13 14  1  0
 14 15  2  0
 15 16  1  0
 16 17  2  0
 17 18  1  0
 18 19  2  0
 11 20  1  0
 20 21  2  0
 20 22  1  0
 22 23  1  0
 23 24  2  0
 24 25  1  0
 25 26  2  0
 26 27  1  0
 27 28  1  0
 28 29  2  0
 28 30  2  0
 28 31  1  0
 31 32  1  0
 32 33  1  0
 33 34  1  0
 34 35  1  0
 35 36  1  0
 27 37  2  0
 10  5  1  0
 19 14  1  0
 37 23  1  0
 36 31  1  0
  6 38  1  0
  7 39  1  0
  8 40  1  0
  9 41  1  0
 10 42  1  0
 11 43  1  1
 12 44  1  0
 12 45  1  0
 13 46  1  0
 13 47  1  0
 15 48  1  0
 16 49  1  0
 17 50  1  0
 18 51  1  0
 19 52  1  0
 22 53  1  0
 22 54  1  0
 24 55  1  0
 25 56  1  0
 26 57  1  0
 32 58  1  0
 32 59  1  0
 33 60  1  0
 33 61  1  0
 35 62  1  0
 35 63  1  0
 36 64  1  0
 36 65  1  0
 37 66  1  0
M  CHG  1  11   1
M  END
>  <UniqueID>  (77) 
66

>  <SMILES>  (77) 
O=C(C#Cc1ccccc1)[NH+](CCc1ccccc1)C(=O)Cc1cccc(S(=O)(=O)N2CCOCC2)c1

>  <Energy>  (77) 
68.88632472750305

>  <Genealogy>  (77) 
O=C(C#Cc1ccccc1)[NH+](CCc1ccccc1)C(=O)Cc1cccc(S(=O)(=O)N2CCOCC2)c1 (protonated)
O=C(C#Cc1ccccc1)[NH+](CCc1ccccc1)C(=O)Cc1cccc(S(=O)(=O)N2CCOCC2)c1 (3D coordinates assigned)
O=C(C#Cc1ccccc1)[NH+](CCc1ccccc1)C(=O)Cc1cccc(S(=O)(=O)N2CCOCC2)c1 (nonaromatic ring conformer: 68.88632472750305 kcal/mol)

>  <smiles>  (77) 
O=C(C#Cc1ccccc1)N(CCc1ccccc1)C(=O)Cc1cccc(S(=O)(=O)N2CCOCC2)c1

>  <score_type>  (77) 
oracle

>  <origin>  (77) 
adg

>  <m_score__min__energy>  (77) 
-8.7200000000000006

>  <m_primary>  (77) 
energy

$$$$
77:0
     RDKit          3D

 58 61  0  0  0  0  0  0  0  0999 V2000
   55.0380   23.2060   46.7950 C   0  0  0  0  0  0  0  0  0  0  0  0
   54.5600   24.4260   46.1250 N   0  0  0  0  0  0  0  0  0  0  0  0
   53.5470   24.0920   45.1110 C   0  0  0  0  0  0  0  0  0  0  0  0
   55.6800   25.1740   45.5270 C   0  0  0  0  0  0  0  0  0  0  0  0
   55.6240   26.5560   45.8860 O   0  0  0  0  0  0  0  0  0  0  0  0
   56.7240   27.4250   45.8710 C   0  0  0  0  0  0  0  0  0  0  0  0
   56.8880   28.4200   44.8890 C   0  0  0  0  0  0  0  0  0  0  0  0
   57.9990   29.2670   44.9250 C   0  0  0  0  0  0  0  0  0  0  0  0
   58.9630   29.1350   45.9310 C   0  0  0  0  0  0  0  0  0  0  0  0
   60.0560   30.0130   45.9300 O   0  0  0  0  0  0  0  0  0  0  0  0
   60.0470   31.2770   46.5320 C   0  0  0  0  0  0  0  0  0  0  0  0
   60.7570   31.4650   47.6770 N   0  0  0  0  0  0  0  0  0  0  0  0
   60.8000   32.6820   48.2970 C   0  0  0  0  0  0  0  0  0  0  0  0
   61.5630   32.8730   49.5110 N   0  0  0  0  0  0  0  0  0  0  0  0
   62.1120   34.2100   49.8230 C   0  0  0  0  0  0  0  0  0  0  0  0
   63.4960   34.1740   50.5010 C   0  0  0  0  0  0  0  0  0  0  0  0
   64.5800   33.4240   49.7010 C   0  0  0  0  0  0  0  0  0  0  0  0
   64.1610   32.0620   49.1170 C   0  0  0  0  0  0  0  0  0  0  0  0
   63.3270   31.1900   50.0780 C   0  0  0  0  0  0  0  0  0  0  0  0
   61.8970   31.7010   50.3410 C   0  0  0  0  0  0  0  0  0  0  0  0
   60.1120   33.7290   47.7630 N   0  0  0  0  0  0  0  0  0  0  0  0
   59.3770   33.5920   46.6310 C   0  0  0  0  0  0  0  0  0  0  0  0
   58.6730   34.6890   46.1190 C   0  0  0  0  0  0  0  0  0  0  0  0
   57.8990   34.5440   44.9650 C   0  0  0  0  0  0  0  0  0  0  0  0
   57.8200   33.3050   44.3240 C   0  0  0  0  0  0  0  0  0  0  0  0
   58.5200   32.2050   44.8280 C   0  0  0  0  0  0  0  0  0  0  0  0
   59.3140   32.3440   45.9820 C   0  0  0  0  0  0  0  0  0  0  0  0
   58.7990   28.1400   46.9130 C   0  0  0  0  0  0  0  0  0  0  0  0
   57.6870   27.2920   46.8780 C   0  0  0  0  0  0  0  0  0  0  0  0
   54.9848   23.3417   47.8853 H   0  0  0  0  0  0  0  0  0  0  0  0
   54.4070   22.3546   46.5002 H   0  0  0  0  0  0  0  0  0  0  0  0
   56.0795   23.0099   46.5002 H   0  0  0  0  0  0  0  0  0  0  0  0
   52.6160   23.7850   45.6100 H   0  0  0  0  0  0  0  0  0  0  0  0
   53.3527   24.9736   44.4825 H   0  0  0  0  0  0  0  0  0  0  0  0
   53.9152   23.2677   44.4825 H   0  0  0  0  0  0  0  0  0  0  0  0
   56.6288   24.7478   45.8850 H   0  0  0  0  0  0  0  0  0  0  0  0
   55.6095   25.0937   44.4322 H   0  0  0  0  0  0  0  0  0  0  0  0
   56.1394   28.5312   44.0908 H   0  0  0  0  0  0  0  0  0  0  0  0
   58.1169   30.0444   44.1558 H   0  0  0  0  0  0  0  0  0  0  0  0
   61.2960   30.6570   48.0570 H   0  0  0  0  0  0  0  0  0  0  0  0
   62.2010   34.7757   48.8838 H   0  0  0  0  0  0  0  0  0  0  0  0
   61.4193   34.6813   50.5358 H   0  0  0  0  0  0  0  0  0  0  0  0
   63.8334   35.2105   50.6488 H   0  0  0  0  0  0  0  0  0  0  0  0
   63.3678   33.6249   51.4455 H   0  0  0  0  0  0  0  0  0  0  0  0
   64.8891   34.0688   48.8651 H   0  0  0  0  0  0  0  0  0  0  0  0
   65.3839   33.2061   50.4195 H   0  0  0  0  0  0  0  0  0  0  0  0
   63.5642   32.2443   48.2111 H   0  0  0  0  0  0  0  0  0  0  0  0
   65.0888   31.5075   48.9126 H   0  0  0  0  0  0  0  0  0  0  0  0
   63.2554   30.1800   49.6481 H   0  0  0  0  0  0  0  0  0  0  0  0
   63.8468   31.2145   51.0471 H   0  0  0  0  0  0  0  0  0  0  0  0
   61.1851   30.8931   50.1160 H   0  0  0  0  0  0  0  0  0  0  0  0
   61.8360   32.0060   51.3961 H   0  0  0  0  0  0  0  0  0  0  0  0
   58.7294   35.6641   46.6250 H   0  0  0  0  0  0  0  0  0  0  0  0
   57.3505   35.4073   44.5601 H   0  0  0  0  0  0  0  0  0  0  0  0
   57.2044   33.1947   43.4191 H   0  0  0  0  0  0  0  0  0  0  0  0
   58.4504   31.2304   44.3226 H   0  0  0  0  0  0  0  0  0  0  0  0
   59.5480   28.0288   47.7109 H   0  0  0  0  0  0  0  0  0  0  0  0
   57.5685   26.5150   47.6475 H   0  0  0  0  0  0  0  0  0  0  0  0
  1  2  1  0
  2  3  1  0
  2  4  1  0
  4  5  1  0
  5  6  1  0
  6  7  2  0
  7  8  1  0
  8  9  2  0
  9 10  1  0
 10 11  1  0
 11 12  2  0
 12 13  1  0
 13 14  1  0
 14 15  1  0
 15 16  1  0
 16 17  1  0
 17 18  1  0
 18 19  1  0
 19 20  1  0
 13 21  2  0
 21 22  1  0
 22 23  2  0
 23 24  1  0
 24 25  2  0
 25 26  1  0
 26 27  2  0
  9 28  1  0
 28 29  2  0
 29  6  1  0
 27 11  1  0
 20 14  1  0
 27 22  1  0
  1 30  1  0
  1 31  1  0
  1 32  1  0
  3 33  1  0
  3 34  1  0
  3 35  1  0
  4 36  1  0
  4 37  1  0
  7 38  1  0
  8 39  1  0
 12 40  1  0
 15 41  1  0
 15 42  1  0
 16 43  1  0
 16 44  1  0
 17 45  1  0
 17 46  1  0
 18 47  1  0
 18 48  1  0
 19 49  1  0
 19 50  1  0
 20 51  1  0
 20 52  1  0
 23 53  1  0
 24 54  1  0
 25 55  1  0
 26 56  1  0
 28 57  1  0
 29 58  1  0
M  CHG  1  12   1
M  END
>  <UniqueID>  (78) 
67

>  <SMILES>  (78) 
CN(C)COc1ccc(Oc2[nH+]c(N3CCCCCC3)nc3ccccc23)cc1

>  <Energy>  (78) 
78.5839190571518

>  <Genealogy>  (78) 
CN(C)COc1ccc(Oc2[nH+]c(N3CCCCCC3)nc3ccccc23)cc1 (protonated)
CN(C)COc1ccc(Oc2[nH+]c(N3CCCCCC3)nc3ccccc23)cc1 (3D coordinates assigned)
CN(C)COc1ccc(Oc2[nH+]c(N3CCCCCC3)nc3ccccc23)cc1 (nonaromatic ring conformer: 78.5839190571518 kcal/mol)

>  <smiles>  (78) 
CN(C)COc1ccc(Oc2nc(N3CCCCCC3)nc3ccccc23)cc1

>  <score_type>  (78) 
oracle

>  <origin>  (78) 
adg

>  <m_score__min__energy>  (78) 
-4.3600000000000003

>  <m_primary>  (78) 
energy

$$$$
78:0
     RDKit          3D

 32 33  0  0  0  0  0  0  0  0999 V2000
   60.6680   28.3340   45.3350 C   0  0  0  0  0  0  0  0  0  0  0  0
   59.3770   28.8170   44.6830 C   0  0  0  0  0  0  0  0  0  0  0  0
   58.2070   27.9700   45.1210 C   0  0  0  0  0  0  0  0  0  0  0  0
   58.3540   26.5850   45.2710 C   0  0  0  0  0  0  0  0  0  0  0  0
   57.3080   25.7930   45.6810 N   0  0  0  0  0  0  0  0  0  0  0  0
   57.4590   24.3190   45.8540 C   0  0  2  0  0  0  0  0  0  0  0  0
   58.8570   23.8330   45.5840 C   0  0  0  0  0  0  0  0  0  0  0  0
   58.8540   22.6490   44.9930 C   0  0  0  0  0  0  0  0  0  0  0  0
   59.9830   21.9260   44.7670 F   0  0  0  0  0  0  0  0  0  0  0  0
   57.4770   22.1610   44.7090 C   0  0  2  0  0  0  0  0  0  0  0  0
   57.3480   21.5340   43.3120 C   0  0  0  0  0  0  0  0  0  0  0  0
   56.2780   20.6280   43.2660 O   0  0  0  0  0  0  0  0  0  0  0  0
   56.6290   23.4280   44.8970 C   0  0  0  0  0  0  0  0  0  0  0  0
   56.0600   26.3670   45.7800 C   0  0  0  0  0  0  0  0  0  0  0  0
   55.0360   25.6620   45.9930 O   0  0  0  0  0  0  0  0  0  0  0  0
   55.8980   27.7050   45.6200 N   0  0  0  0  0  0  0  0  0  0  0  0
   56.9350   28.5170   45.3130 C   0  0  0  0  0  0  0  0  0  0  0  0
   56.7350   29.7540   45.1800 O   0  0  0  0  0  0  0  0  0  0  0  0
   60.5631   28.3732   46.4293 H   0  0  0  0  0  0  0  0  0  0  0  0
   60.8714   27.2990   45.0230 H   0  0  0  0  0  0  0  0  0  0  0  0
   61.5008   28.9814   45.0230 H   0  0  0  0  0  0  0  0  0  0  0  0
   59.1949   29.8621   44.9740 H   0  0  0  0  0  0  0  0  0  0  0  0
   59.4816   28.7368   43.5909 H   0  0  0  0  0  0  0  0  0  0  0  0
   59.3279   26.1210   45.0560 H   0  0  0  0  0  0  0  0  0  0  0  0
   57.1254   24.2165   46.8972 H   0  0  0  0  0  0  0  0  0  0  0  0
   59.7677   24.3919   45.8452 H   0  0  0  0  0  0  0  0  0  0  0  0
   57.1577   21.3391   45.3667 H   0  0  0  0  0  0  0  0  0  0  0  0
   57.1765   22.3314   42.5739 H   0  0  0  0  0  0  0  0  0  0  0  0
   58.2773   20.9917   43.0834 H   0  0  0  0  0  0  0  0  0  0  0  0
   56.6810   19.7230   43.3430 H   0  0  0  0  0  0  0  0  0  0  0  0
   56.4711   23.9354   43.9339 H   0  0  0  0  0  0  0  0  0  0  0  0
   55.6299   23.2039   45.2990 H   0  0  0  0  0  0  0  0  0  0  0  0
  1  2  1  0
  2  3  1  0
  3  4  2  0
  4  5  1  0
  5  6  1  0
  6  7  1  0
  7  8  2  0
  8  9  1  0
  8 10  1  0
 10 11  1  0
 11 12  1  0
 10 13  1  0
  5 14  1  0
 14 15  2  0
 14 16  1  0
 16 17  1  0
 17 18  2  0
 17  3  1  0
 13  6  1  0
  1 19  1  0
  1 20  1  0
  1 21  1  0
  2 22  1  0
  2 23  1  0
  4 24  1  0
  6 25  1  1
  7 26  1  0
 10 27  1  1
 11 28  1  0
 11 29  1  0
 12 30  1  0
 13 31  1  0
 13 32  1  0
M  CHG  1  16  -1
M  END
>  <UniqueID>  (79) 
68

>  <SMILES>  (79) 
CCc1cn([C@@H]2C=C(F)[C@H](CO)C2)c(=O)[n-]c1=O

>  <Energy>  (79) 
45.612973622824406

>  <Genealogy>  (79) 
CCc1cn(C2C=C(F)C(CO)C2)c(=O)[n-]c1=O (protonated)
CCc1cn([C@@H]2C=C(F)[C@H](CO)C2)c(=O)[n-]c1=O (chirality)
CCc1cn([C@@H]2C=C(F)[C@H](CO)C2)c(=O)[n-]c1=O (3D coordinates assigned)
CCc1cn([C@@H]2C=C(F)[C@H](CO)C2)c(=O)[n-]c1=O (nonaromatic ring conformer: 45.612973622824406 kcal/mol)

>  <smiles>  (79) 
CCc1cn(C2C=C(F)C(CO)C2)c(=O)[nH]c1=O

>  <score_type>  (79) 
oracle

>  <origin>  (79) 
adg

>  <m_score__min__energy>  (79) 
-9

>  <m_primary>  (79) 
energy

$$$$
79:0
     RDKit          3D

 35 37  0  0  0  0  0  0  0  0999 V2000
   58.1580   21.1000   43.2870 N   0  0  0  0  0  0  0  0  0  0  0  0
   56.6680   21.9190   43.5970 S   0  0  0  0  0  0  0  0  0  0  0  0
   55.9150   22.0930   42.3080 O   0  0  0  0  0  0  0  0  0  0  0  0
   55.8300   21.0960   44.5360 O   0  0  0  0  0  0  0  0  0  0  0  0
   56.9970   23.4910   44.3150 C   0  0  0  0  0  0  0  0  0  0  0  0
   57.0160   23.6390   45.7080 C   0  0  0  0  0  0  0  0  0  0  0  0
   57.2960   24.8830   46.2810 C   0  0  0  0  0  0  0  0  0  0  0  0
   57.5800   25.9910   45.4630 C   0  0  0  0  0  0  0  0  0  0  0  0
   57.8700   27.2840   46.0150 N   0  0  0  0  0  0  0  0  0  0  0  0
   57.2210   28.5170   45.6720 C   0  0  0  0  0  0  0  0  0  0  0  0
   56.0580   28.4730   45.1920 O   0  0  0  0  0  0  0  0  0  0  0  0
   57.8890   29.8320   45.8310 C   0  0  0  0  0  0  0  0  0  0  0  0
   59.0210   29.9370   46.6530 C   0  0  0  0  0  0  0  0  0  0  0  0
   59.6520   31.0980   46.8000 O   0  0  0  0  0  0  0  0  0  0  0  0
   59.2540   32.2120   46.1960 C   0  0  0  0  0  0  0  0  0  0  0  0
   59.9710   33.3990   46.3910 C   0  0  0  0  0  0  0  0  0  0  0  0
   59.5590   34.5780   45.7630 C   0  0  0  0  0  0  0  0  0  0  0  0
   58.4290   34.5780   44.9400 C   0  0  0  0  0  0  0  0  0  0  0  0
   57.7050   33.3990   44.7390 C   0  0  0  0  0  0  0  0  0  0  0  0
   58.1120   32.2050   45.3650 C   0  0  0  0  0  0  0  0  0  0  0  0
   57.4160   30.9960   45.1950 C   0  0  0  0  0  0  0  0  0  0  0  0
   56.3660   30.9590   44.4950 O   0  0  0  0  0  0  0  0  0  0  0  0
   57.5410   25.8430   44.0720 C   0  0  0  0  0  0  0  0  0  0  0  0
   57.2610   24.5990   43.4990 C   0  0  0  0  0  0  0  0  0  0  0  0
   58.5080   20.7450   44.2050 H   0  0  0  0  0  0  0  0  0  0  0  0
   57.9290   20.2600   42.7080 H   0  0  0  0  0  0  0  0  0  0  0  0
   56.8097   22.7726   46.3536 H   0  0  0  0  0  0  0  0  0  0  0  0
   57.2942   24.9955   47.3752 H   0  0  0  0  0  0  0  0  0  0  0  0
   59.3914   29.0470   47.1829 H   0  0  0  0  0  0  0  0  0  0  0  0
   60.8597   33.4037   47.0393 H   0  0  0  0  0  0  0  0  0  0  0  0
   60.1255   35.5083   45.9169 H   0  0  0  0  0  0  0  0  0  0  0  0
   58.1084   35.5087   44.4490 H   0  0  0  0  0  0  0  0  0  0  0  0
   56.8162   33.4040   44.0909 H   0  0  0  0  0  0  0  0  0  0  0  0
   57.7320   26.7117   43.4248 H   0  0  0  0  0  0  0  0  0  0  0  0
   57.2479   24.4897   42.4045 H   0  0  0  0  0  0  0  0  0  0  0  0
  1  2  1  0
  2  3  2  0
  2  4  2  0
  2  5  1  0
  5  6  2  0
  6  7  1  0
  7  8  2  0
  8  9  1  0
  9 10  1  0
 10 11  2  0
 10 12  1  0
 12 13  2  0
 13 14  1  0
 14 15  1  0
 15 16  2  0
 16 17  1  0
 17 18  2  0
 18 19  1  0
 19 20  2  0
 20 21  1  0
 21 22  2  0
  8 23  1  0
 23 24  2  0
 24  5  1  0
 21 12  1  0
 20 15  1  0
  1 25  1  0
  1 26  1  0
  6 27  1  0
  7 28  1  0
 13 29  1  0
 16 30  1  0
 17 31  1  0
 18 32  1  0
 19 33  1  0
 23 34  1  0
 24 35  1  0
M  CHG  1   9  -1
M  END
>  <UniqueID>  (80) 
69

>  <SMILES>  (80) 
NS(=O)(=O)c1ccc([N-]C(=O)c2coc3ccccc3c2=O)cc1

>  <Energy>  (80) 
50.11513536776188

>  <Genealogy>  (80) 
NS(=O)(=O)c1ccc([N-]C(=O)c2coc3ccccc3c2=O)cc1 (protonated)
NS(=O)(=O)c1ccc([N-]C(=O)c2coc3ccccc3c2=O)cc1 (3D coordinates assigned)
NS(=O)(=O)c1ccc([N-]C(=O)c2coc3ccccc3c2=O)cc1 (optimized conformer: 50.11513536776188 kcal/mol)

>  <smiles>  (80) 
NS(=O)(=O)c1ccc(NC(=O)c2coc3ccccc3c2=O)cc1

>  <score_type>  (80) 
oracle

>  <origin>  (80) 
adg

>  <m_score__min__energy>  (80) 
-10.26

>  <m_primary>  (80) 
energy

$$$$
80:0
     RDKit          3D

 19 19  0  0  0  0  0  0  0  0999 V2000
   54.0260   26.3280   46.3830 H   0  0  0  0  0  0  0  0  0  0  0  0
   54.9420   26.3690   45.9540 O   0  0  0  0  0  0  0  0  0  0  0  0
   55.9180   25.4720   46.3260 N   0  0  0  0  0  0  0  0  0  0  0  0
   57.1580   25.8140   46.5030 C   0  0  0  0  0  0  0  0  0  0  0  0
   57.8024   25.1533   47.1016 H   0  0  0  0  0  0  0  0  0  0  0  0
   57.7470   27.0490   45.9390 C   0  0  0  0  0  0  0  0  0  0  0  0
   58.9110   27.5710   46.5200 C   0  0  0  0  0  0  0  0  0  0  0  0
   59.3770   27.0642   47.3779 H   0  0  0  0  0  0  0  0  0  0  0  0
   59.4740   28.7370   46.0030 C   0  0  0  0  0  0  0  0  0  0  0  0
   60.3965   29.1449   46.4419 H   0  0  0  0  0  0  0  0  0  0  0  0
   58.8660   29.3850   44.9290 C   0  0  0  0  0  0  0  0  0  0  0  0
   59.3151   30.2948   44.5041 H   0  0  0  0  0  0  0  0  0  0  0  0
   57.6780   28.8680   44.3950 C   0  0  0  0  0  0  0  0  0  0  0  0
   57.0190   29.5500   43.2330 C   0  0  0  0  0  0  0  0  0  0  0  0
   56.2996   30.2945   43.6047 H   0  0  0  0  0  0  0  0  0  0  0  0
   57.7829   30.0519   42.6211 H   0  0  0  0  0  0  0  0  0  0  0  0
   56.4912   28.8037   42.6211 H   0  0  0  0  0  0  0  0  0  0  0  0
   57.1510   27.7150   44.9040 N   0  0  0  0  0  0  0  0  0  0  0  0
   56.2520   27.3610   44.5100 H   0  0  0  0  0  0  0  0  0  0  0  0
  1  2  1  0
  2  3  1  0
  3  4  2  0
  4  5  1  0
  4  6  1  0
  6  7  2  0
  7  8  1  0
  7  9  1  0
  9 10  1  0
  9 11  2  0
 11 12  1  0
 11 13  1  0
 13 14  1  0
 14 15  1  0
 14 16  1  0
 14 17  1  0
 13 18  2  0
 18 19  1  0
 18  6  1  0
M  CHG  1  18   1
M  END
>  <UniqueID>  (81) 
70

>  <SMILES>  (81) 
Cc1cccc(/C=N\O)[nH+]1

>  <Energy>  (81) 
20.144945508066808

>  <Genealogy>  (81) 
Cc1cccc(C=NO)[nH+]1 (protonated)
Cc1cccc(/C=N\O)[nH+]1 (cis-trans isomerization)
Cc1cccc(/C=N\O)[nH+]1 (3D coordinates assigned)
Cc1cccc(/C=N\O)[nH+]1 (optimized conformer: 20.144945508066808 kcal/mol)

>  <smiles>  (81) 
Cc1cccc(C=NO)n1

>  <score_type>  (81) 
oracle

>  <origin>  (81) 
adg

>  <m_score__min__energy>  (81) 
-4.3300000000000001

>  <m_primary>  (81) 
energy

$$$$
81:0
     RDKit          3D

 52 55  0  0  0  0  0  0  0  0999 V2000
   58.4689   27.8721   42.7195 H   0  0  0  0  0  0  0  0  0  0  0  0
   57.8890   28.2100   43.5910 C   0  0  0  0  0  0  0  0  0  0  0  0
   58.1800   27.3810   45.1600 S   0  0  0  0  0  0  0  0  0  0  0  0
   58.9770   28.8240   45.8700 C   0  0  0  0  0  0  0  0  0  0  0  0
   58.8090   30.0610   45.3590 N   0  0  0  0  0  0  0  0  0  0  0  0
   59.5030   30.8670   46.1900 C   0  0  0  0  0  0  0  0  0  0  0  0
   59.5630   32.3370   46.0230 C   0  0  0  0  0  0  0  0  0  0  0  0
   60.6400   33.0890   46.5270 C   0  0  0  0  0  0  0  0  0  0  0  0
   61.4625   32.5817   47.0524 H   0  0  0  0  0  0  0  0  0  0  0  0
   60.6710   34.4770   46.3640 C   0  0  0  0  0  0  0  0  0  0  0  0
   61.5129   35.0586   46.7676 H   0  0  0  0  0  0  0  0  0  0  0  0
   59.6340   35.1270   45.6890 C   0  0  0  0  0  0  0  0  0  0  0  0
   59.6670   36.4730   45.5310 F   0  0  0  0  0  0  0  0  0  0  0  0
   58.5700   34.3870   45.1690 C   0  0  0  0  0  0  0  0  0  0  0  0
   57.7575   34.8977   44.6314 H   0  0  0  0  0  0  0  0  0  0  0  0
   58.5350   32.9990   45.3300 C   0  0  0  0  0  0  0  0  0  0  0  0
   57.6976   32.4212   44.9117 H   0  0  0  0  0  0  0  0  0  0  0  0
   60.0720   30.0990   47.1980 C   0  0  0  0  0  0  0  0  0  0  0  0
   60.7730   30.5910   48.4040 C   0  0  0  0  0  0  0  0  0  0  0  0
   62.0730   31.0900   48.2720 C   0  0  0  0  0  0  0  0  0  0  0  0
   62.5660   31.0833   47.2887 H   0  0  0  0  0  0  0  0  0  0  0  0
   62.7470   31.5970   49.3860 C   0  0  0  0  0  0  0  0  0  0  0  0
   64.0470   32.1090   49.2700 C   0  0  0  0  0  0  0  0  0  0  0  0
   64.5484   32.1071   48.2909 H   0  0  0  0  0  0  0  0  0  0  0  0
   64.7130   32.6230   50.3900 C   0  0  0  0  0  0  0  0  0  0  0  0
   66.0120   33.1230   50.2210 O   0  0  0  0  0  0  0  0  0  0  0  0
   67.1990   32.3820   50.4810 C   0  0  0  0  0  0  0  0  0  0  0  0
   67.3441   32.2914   51.5676 H   0  0  0  0  0  0  0  0  0  0  0  0
   67.1095   31.3791   50.0382 H   0  0  0  0  0  0  0  0  0  0  0  0
   68.0608   32.9028   50.0382 H   0  0  0  0  0  0  0  0  0  0  0  0
   64.0610   32.6210   51.6380 C   0  0  0  0  0  0  0  0  0  0  0  0
   64.5754   33.0221   52.5237 H   0  0  0  0  0  0  0  0  0  0  0  0
   62.7650   32.1130   51.7590 C   0  0  0  0  0  0  0  0  0  0  0  0
   62.2648   32.1172   52.7387 H   0  0  0  0  0  0  0  0  0  0  0  0
   62.0990   31.5980   50.6380 C   0  0  0  0  0  0  0  0  0  0  0  0
   60.8340   31.0970   50.7510 N   0  0  0  0  0  0  0  0  0  0  0  0
   60.3660   31.1060   51.6860 H   0  0  0  0  0  0  0  0  0  0  0  0
   60.1630   30.5820   49.6780 C   0  0  0  0  0  0  0  0  0  0  0  0
   58.7710   30.0410   49.8750 C   0  0  0  0  0  0  0  0  0  0  0  0
   58.5586   29.9584   50.9511 H   0  0  0  0  0  0  0  0  0  0  0  0
   58.0436   30.7219   49.4089 H   0  0  0  0  0  0  0  0  0  0  0  0
   58.6943   29.0476   49.4089 H   0  0  0  0  0  0  0  0  0  0  0  0
   59.7530   28.8080   46.9740 N   0  0  0  0  0  0  0  0  0  0  0  0
   60.0210   27.6680   47.8480 C   0  0  0  0  0  0  0  0  0  0  0  0
   59.9463   27.9858   48.8984 H   0  0  0  0  0  0  0  0  0  0  0  0
   59.2849   26.8745   47.6517 H   0  0  0  0  0  0  0  0  0  0  0  0
   61.0335   27.2856   47.6517 H   0  0  0  0  0  0  0  0  0  0  0  0
   57.0170   29.2090   43.4080 C   0  0  0  0  0  0  0  0  0  0  0  0
   57.0146   29.6977   42.4225 H   0  0  0  0  0  0  0  0  0  0  0  0
   56.0590   29.7130   44.4100 C   0  0  0  0  0  0  0  0  0  0  0  0
   55.1570   28.9790   44.8930 O   0  0  0  0  0  0  0  0  0  0  0  0
   56.1280   31.0440   44.7990 O   0  0  0  0  0  0  0  0  0  0  0  0
  1  2  1  0
  2  3  1  0
  3  4  1  0
  4  5  2  0
  5  6  1  0
  6  7  1  0
  7  8  2  0
  8  9  1  0
  8 10  1  0
 10 11  1  0
 10 12  2  0
 12 13  1  0
 12 14  1  0
 14 15  1  0
 14 16  2  0
 16 17  1  0
  6 18  2  0
 18 19  1  0
 19 20  2  0
 20 21  1  0
 20 22  1  0
 22 23  2  0
 23 24  1  0
 23 25  1  0
 25 26  1  0
 26 27  1  0
 27 28  1  0
 27 29  1  0
 27 30  1  0
 25 31  2  0
 31 32  1  0
 31 33  1  0
 33 34  1  0
 33 35  2  0
 35 36  1  0
 36 37  1  0
 36 38  2  0
 38 39  1  0
 39 40  1  0
 39 41  1  0
 39 42  1  0
 18 43  1  0
 43 44  1  0
 44 45  1  0
 44 46  1  0
 44 47  1  0
  2 48  2  0
 48 49  1  0
 48 50  1  0
 50 51  2  0
 50 52  1  0
 43  4  1  0
 16  7  1  0
 38 19  1  0
 35 22  1  0
M  CHG  2  36   1  52  -1
M  END
>  <UniqueID>  (82) 
71

>  <SMILES>  (82) 
COc1ccc2[nH+]c(C)c(-c3c(-c4ccc(F)cc4)nc(S/C=C\C(=O)[O-])n3C)cc2c1

>  <Energy>  (82) 
95.41247953576318

>  <Genealogy>  (82) 
COc1ccc2[nH+]c(C)c(-c3c(-c4ccc(F)cc4)nc(SC=CC(=O)[O-])n3C)cc2c1 (protonated)
COc1ccc2[nH+]c(C)c(-c3c(-c4ccc(F)cc4)nc(S/C=C\C(=O)[O-])n3C)cc2c1 (cis-trans isomerization)
COc1ccc2[nH+]c(C)c(-c3c(-c4ccc(F)cc4)nc(S/C=C\C(=O)[O-])n3C)cc2c1 (3D coordinates assigned)
COc1ccc2[nH+]c(C)c(-c3c(-c4ccc(F)cc4)nc(S/C=C\C(=O)[O-])n3C)cc2c1 (optimized conformer: 95.41247953576318 kcal/mol)

>  <smiles>  (82) 
COc1ccc2nc(C)c(-c3c(-c4ccc(F)cc4)nc(SC=CC(=O)O)n3C)cc2c1

>  <score_type>  (82) 
oracle

>  <origin>  (82) 
adg

>  <m_score__min__energy>  (82) 
-9.9700000000000006

>  <m_primary>  (82) 
energy

$$$$
82:0
     RDKit          3D

 48 51  0  0  0  0  0  0  0  0999 V2000
   56.4350   28.7988   43.0148 H   0  0  0  0  0  0  0  0  0  0  0  0
   56.8530   29.7330   43.4180 C   0  0  0  0  0  0  0  0  0  0  0  0
   56.9440   30.8660   42.6050 C   0  0  0  0  0  0  0  0  0  0  0  0
   56.5975   30.8230   41.5619 H   0  0  0  0  0  0  0  0  0  0  0  0
   57.4750   32.0540   43.1160 C   0  0  0  0  0  0  0  0  0  0  0  0
   57.5495   32.9431   42.4726 H   0  0  0  0  0  0  0  0  0  0  0  0
   57.9130   32.1150   44.4470 C   0  0  0  0  0  0  0  0  0  0  0  0
   58.6050   33.6090   45.0750 S   0  0  0  0  0  0  0  0  0  0  0  0
   59.4740   34.2080   44.0050 O   0  0  0  0  0  0  0  0  0  0  0  0
   57.5080   34.5810   45.4080 O   0  0  0  0  0  0  0  0  0  0  0  0
   59.5640   33.3000   46.5290 C   0  0  0  0  0  0  0  0  0  0  0  0
   60.9580   33.2550   46.4470 C   0  0  0  0  0  0  0  0  0  0  0  0
   61.4588   33.4270   45.4828 H   0  0  0  0  0  0  0  0  0  0  0  0
   61.7130   32.9920   47.5880 C   0  0  0  0  0  0  0  0  0  0  0  0
   63.1080   32.9170   47.5410 C   0  0  0  0  0  0  0  0  0  0  0  0
   63.6350   33.0783   46.5890 H   0  0  0  0  0  0  0  0  0  0  0  0
   63.8140   32.6450   48.6700 N   0  0  0  0  0  0  0  0  0  0  0  0
   64.8510   32.5630   48.5830 H   0  0  0  0  0  0  0  0  0  0  0  0
   63.1770   32.4540   49.8660 C   0  0  0  0  0  0  0  0  0  0  0  0
   63.8330   32.1880   50.9600 N   0  0  0  0  0  0  0  0  0  0  0  0
   64.9150   31.2560   51.1040 C   0  0  0  0  0  0  0  0  0  0  0  0
   64.6870   30.0530   51.7820 C   0  0  0  0  0  0  0  0  0  0  0  0
   63.6837   29.8279   52.1727 H   0  0  0  0  0  0  0  0  0  0  0  0
   65.7250   29.1360   51.9660 C   0  0  0  0  0  0  0  0  0  0  0  0
   65.5341   28.1855   52.4857 H   0  0  0  0  0  0  0  0  0  0  0  0
   67.0040   29.4270   51.4900 C   0  0  0  0  0  0  0  0  0  0  0  0
   67.8180   28.6997   51.6255 H   0  0  0  0  0  0  0  0  0  0  0  0
   67.2540   30.6390   50.8420 C   0  0  0  0  0  0  0  0  0  0  0  0
   68.2661   30.8651   50.4751 H   0  0  0  0  0  0  0  0  0  0  0  0
   66.2150   31.5740   50.6560 C   0  0  0  0  0  0  0  0  0  0  0  0
   66.4370   32.8200   50.0470 O   0  0  0  0  0  0  0  0  0  0  0  0
   67.3940   33.7760   50.4890 C   0  0  0  0  0  0  0  0  0  0  0  0
   67.4127   33.7947   51.5887 H   0  0  0  0  0  0  0  0  0  0  0  0
   68.3893   33.5007   50.1100 H   0  0  0  0  0  0  0  0  0  0  0  0
   67.1198   34.7716   50.1100 H   0  0  0  0  0  0  0  0  0  0  0  0
   61.8210   32.5110   49.9180 N   0  0  0  0  0  0  0  0  0  0  0  0
   61.0660   32.7810   48.8170 C   0  0  0  0  0  0  0  0  0  0  0  0
   59.6960   32.8390   48.9000 N   0  0  0  0  0  0  0  0  0  0  0  0
   59.0320   32.5850   50.1910 C   0  0  0  0  0  0  0  0  0  0  0  0
   59.7153   32.8464   51.0125 H   0  0  0  0  0  0  0  0  0  0  0  0
   58.1217   33.1984   50.2621 H   0  0  0  0  0  0  0  0  0  0  0  0
   58.7635   31.5207   50.2621 H   0  0  0  0  0  0  0  0  0  0  0  0
   58.9430   33.0660   47.7720 C   0  0  0  0  0  0  0  0  0  0  0  0
   57.6830   33.0580   47.8360 O   0  0  0  0  0  0  0  0  0  0  0  0
   57.8240   30.9730   45.2580 C   0  0  0  0  0  0  0  0  0  0  0  0
   58.1727   31.0113   46.3006 H   0  0  0  0  0  0  0  0  0  0  0  0
   57.2930   29.7870   44.7430 C   0  0  0  0  0  0  0  0  0  0  0  0
   57.2214   28.8945   45.3821 H   0  0  0  0  0  0  0  0  0  0  0  0
  1  2  1  0
  2  3  2  0
  3  4  1  0
  3  5  1  0
  5  6  1  0
  5  7  2  0
  7  8  1  0
  8  9  2  0
  8 10  2  0
  8 11  1  0
 11 12  2  0
 12 13  1  0
 12 14  1  0
 14 15  2  0
 15 16  1  0
 15 17  1  0
 17 18  1  0
 17 19  1  0
 19 20  2  0
 20 21  1  0
 21 22  2  0
 22 23  1  0
 22 24  1  0
 24 25  1  0
 24 26  2  0
 26 27  1  0
 26 28  1  0
 28 29  1  0
 28 30  2  0
 30 31  1  0
 31 32  1  0
 32 33  1  0
 32 34  1  0
 32 35  1  0
 19 36  1  0
 36 37  2  0
 37 38  1  0
 38 39  1  0
 39 40  1  0
 39 41  1  0
 39 42  1  0
 38 43  1  0
 43 44  2  0
  7 45  1  0
 45 46  1  0
 45 47  2  0
 47 48  1  0
 47  2  1  0
 43 11  1  0
 37 14  1  0
 30 21  1  0
M  END
>  <UniqueID>  (83) 
72

>  <SMILES>  (83) 
COc1ccccc1/N=c1/nc2c(c[nH]1)cc(S(=O)(=O)c1ccccc1)c(=O)n2C

>  <Energy>  (83) 
71.90010212132812

>  <Genealogy>  (83) 
COc1ccccc1/N=c1/nc2c(c[nH]1)cc(S(=O)(=O)c1ccccc1)c(=O)n2C (cis-trans isomerization)
COc1ccccc1/N=c1/nc2c(c[nH]1)cc(S(=O)(=O)c1ccccc1)c(=O)n2C (3D coordinates assigned)
COc1ccccc1/N=c1/nc2c(c[nH]1)cc(S(=O)(=O)c1ccccc1)c(=O)n2C (optimized conformer: 71.90010212132812 kcal/mol)

>  <smiles>  (83) 
COc1ccccc1N=c1nc2c(c[nH]1)cc(S(=O)(=O)c1ccccc1)c(=O)n2C

>  <score_type>  (83) 
oracle

>  <origin>  (83) 
adg

>  <m_score__min__energy>  (83) 
-8.8300000000000001

>  <m_primary>  (83) 
energy

$$$$
83:0
     RDKit          3D

 57 60  0  0  1  0  0  0  0  0999 V2000
   56.0260   29.6070   42.4300 N   0  0  0  0  0  0  0  0  0  0  0  0
   56.1440   29.4930   43.8420 C   0  0  0  0  0  0  0  0  0  0  0  0
   55.1110   29.3160   44.5310 O   0  0  0  0  0  0  0  0  0  0  0  0
   57.4450   29.5800   44.4760 C   0  0  0  0  0  0  0  0  0  0  0  0
   58.3190   28.5140   44.4220 C   0  0  0  0  0  0  0  0  0  0  0  0
   59.5210   28.6250   45.0210 N   0  0  0  0  0  0  0  0  0  0  0  0
   59.9040   29.7360   45.6720 C   0  0  0  0  0  0  0  0  0  0  0  0
   61.0800   29.8090   46.2430 N   0  0  0  0  0  0  0  0  0  0  0  0
   61.1570   30.5320   47.4860 C   0  0  0  0  0  0  0  0  0  0  0  0
   61.7650   31.7390   47.6150 C   0  0  0  0  0  0  0  0  0  0  0  0
   61.8110   32.4000   48.8440 C   0  0  0  0  0  0  0  0  0  0  0  0
   61.2150   31.7930   49.9510 C   0  0  0  0  0  0  0  0  0  0  0  0
   61.2630   32.4760   51.2200 N   0  0  0  0  0  0  0  0  0  0  0  0
   59.8210   33.1980   51.8410 S   0  0  0  0  0  0  0  0  0  0  0  0
   60.1500   33.8690   53.1390 O   0  0  0  0  0  0  0  0  0  0  0  0
   59.3100   34.2820   50.9250 O   0  0  0  0  0  0  0  0  0  0  0  0
   58.5790   32.0190   52.1610 C   0  0  0  0  0  0  0  0  0  0  0  0
   58.9070   30.8470   52.8020 C   0  0  0  0  0  0  0  0  0  0  0  0
   57.9370   29.8910   53.0700 C   0  0  0  0  0  0  0  0  0  0  0  0
   56.6060   30.0820   52.7000 C   0  0  0  0  0  0  0  0  0  0  0  0
   56.2960   31.2530   52.0630 C   0  0  0  0  0  0  0  0  0  0  0  0
   57.2580   32.2070   51.7940 C   0  0  0  0  0  0  0  0  0  0  0  0
   60.5980   30.5670   49.8090 C   0  0  0  0  0  0  0  0  0  0  0  0
   60.5630   29.9300   48.5890 C   0  0  0  0  0  0  0  0  0  0  0  0
   59.0360   30.7710   45.7150 N   0  0  0  0  0  0  0  0  0  0  0  0
   57.8230   30.7260   45.1390 C   0  0  0  0  0  0  0  0  0  0  0  0
   56.9760   31.6940   45.1640 N   0  0  0  0  0  0  0  0  0  0  0  0
   57.4030   32.9890   44.6890 C   0  0  0  0  0  0  0  0  0  0  0  0
   57.8820   33.8210   45.8500 C   0  0  2  0  0  0  0  0  0  0  0  0
   59.2390   34.4060   45.6410 C   0  0  0  0  0  0  0  0  0  0  0  0
   59.5100   34.8930   47.0720 C   0  0  0  0  0  0  0  0  0  0  0  0
   58.8840   33.7510   47.8440 C   0  0  0  0  0  0  0  0  0  0  0  0
   58.0260   33.0780   46.9930 O   0  0  0  0  0  0  0  0  0  0  0  0
   56.1580   30.5460   41.9630 H   0  0  0  0  0  0  0  0  0  0  0  0
   55.8070   28.7850   41.8090 H   0  0  0  0  0  0  0  0  0  0  0  0
   58.0391   27.5880   43.8983 H   0  0  0  0  0  0  0  0  0  0  0  0
   60.2330   27.8400   45.0120 H   0  0  0  0  0  0  0  0  0  0  0  0
   62.2304   32.2053   46.7341 H   0  0  0  0  0  0  0  0  0  0  0  0
   62.3061   33.3778   48.9380 H   0  0  0  0  0  0  0  0  0  0  0  0
   62.1790   32.5240   51.7530 H   0  0  0  0  0  0  0  0  0  0  0  0
   59.9487   30.6655   53.1053 H   0  0  0  0  0  0  0  0  0  0  0  0
   58.2243   28.9627   53.5854 H   0  0  0  0  0  0  0  0  0  0  0  0
   55.8378   29.3235   52.9112 H   0  0  0  0  0  0  0  0  0  0  0  0
   55.2556   31.4389   51.7579 H   0  0  0  0  0  0  0  0  0  0  0  0
   56.9684   33.1343   51.2780 H   0  0  0  0  0  0  0  0  0  0  0  0
   60.1276   30.0921   50.6826 H   0  0  0  0  0  0  0  0  0  0  0  0
   60.0689   28.9524   48.4880 H   0  0  0  0  0  0  0  0  0  0  0  0
   59.3390   31.6280   46.2220 H   0  0  0  0  0  0  0  0  0  0  0  0
   58.2230   32.8618   43.9669 H   0  0  0  0  0  0  0  0  0  0  0  0
   56.5575   33.4958   44.2009 H   0  0  0  0  0  0  0  0  0  0  0  0
   57.1098   34.5998   45.9353 H   0  0  0  0  0  0  0  0  0  0  0  0
   59.9692   33.6499   45.3168 H   0  0  0  0  0  0  0  0  0  0  0  0
   59.3085   35.1747   44.8572 H   0  0  0  0  0  0  0  0  0  0  0  0
   60.5866   34.9863   47.2773 H   0  0  0  0  0  0  0  0  0  0  0  0
   59.1163   35.8921   47.3102 H   0  0  0  0  0  0  0  0  0  0  0  0
   59.6685   33.0672   48.2002 H   0  0  0  0  0  0  0  0  0  0  0  0
   58.3335   34.1357   48.7151 H   0  0  0  0  0  0  0  0  0  0  0  0
  1  2  1  0
  2  3  2  0
  2  4  1  0
  4  5  2  0
  5  6  1  0
  6  7  1  0
  7  8  2  0
  8  9  1  0
  9 10  2  0
 10 11  1  0
 11 12  2  0
 12 13  1  0
 13 14  1  0
 14 15  2  0
 14 16  2  0
 14 17  1  0
 17 18  2  0
 18 19  1  0
 19 20  2  0
 20 21  1  0
 21 22  2  0
 12 23  1  0
 23 24  2  0
  7 25  1  0
 25 26  1  0
 26 27  2  0
 27 28  1  0
 28 29  1  0
 29 30  1  0
 30 31  1  0
 31 32  1  0
 32 33  1  0
 26  4  1  0
 33 29  1  0
 24  9  1  0
 22 17  1  0
  1 34  1  0
  1 35  1  0
  5 36  1  0
  6 37  1  0
 10 38  1  0
 11 39  1  0
 13 40  1  0
 18 41  1  0
 19 42  1  0
 20 43  1  0
 21 44  1  0
 22 45  1  0
 23 46  1  0
 24 47  1  0
 25 48  1  0
 28 49  1  0
 28 50  1  0
 29 51  1  1
 30 52  1  0
 30 53  1  0
 31 54  1  0
 31 55  1  0
 32 56  1  0
 32 57  1  0
M  END
>  <smiles>  (84) 
NC(=O)c1c[nH]c(=Nc2ccc(NS(=O)(=O)c3ccccc3)cc2)[nH]c1=NCC1CCCO1

>  <score_type>  (84) 
oracle

>  <origin>  (84) 
adg

>  <m_score__min__energy>  (84) 
-9.0899999999999999

>  <m_primary>  (84) 
energy

$$$$
84:0
     RDKit          3D

 45 47  0  0  0  0  0  0  0  0999 V2000
   57.4000   24.6830   43.9390 C   0  0  0  0  0  0  0  0  0  0  0  0
   57.4500   26.0820   43.6760 O   0  0  0  0  0  0  0  0  0  0  0  0
   58.0170   27.0390   44.5350 C   0  0  0  0  0  0  0  0  0  0  0  0
   59.1070   27.8290   44.1260 C   0  0  0  0  0  0  0  0  0  0  0  0
   59.6520   28.7900   44.9750 C   0  0  0  0  0  0  0  0  0  0  0  0
   59.1270   28.9890   46.2610 C   0  0  0  0  0  0  0  0  0  0  0  0
   59.6490   30.0260   47.1230 N   0  0  0  0  0  0  0  0  0  0  0  0
   58.8530   30.5220   48.2530 C   0  0  0  0  0  0  0  0  0  0  0  0
   59.2640   31.9530   48.6430 C   0  0  0  0  0  0  0  0  0  0  0  0
   59.6640   32.7740   47.4810 N   0  0  0  0  0  0  0  0  0  0  0  0
   58.3030   33.4380   46.5960 S   0  0  0  0  0  0  0  0  0  0  0  0
   58.6020   34.8730   46.2640 O   0  0  0  0  0  0  0  0  0  0  0  0
   57.0780   33.4170   47.4680 O   0  0  0  0  0  0  0  0  0  0  0  0
   57.9530   32.5770   45.0920 C   0  0  0  0  0  0  0  0  0  0  0  0
   57.3230   31.3220   45.1250 C   0  0  0  0  0  0  0  0  0  0  0  0
   57.0710   30.6280   43.9370 C   0  0  0  0  0  0  0  0  0  0  0  0
   57.4470   31.1800   42.7100 C   0  0  0  0  0  0  0  0  0  0  0  0
   58.0960   32.4160   42.6710 C   0  0  0  0  0  0  0  0  0  0  0  0
   58.3640   33.1050   43.8580 C   0  0  0  0  0  0  0  0  0  0  0  0
   60.6950   32.1720   46.5980 C   0  0  0  0  0  0  0  0  0  0  0  0
   60.9330   30.6800   46.8660 C   0  0  0  0  0  0  0  0  0  0  0  0
   58.0460   28.1950   46.6780 C   0  0  0  0  0  0  0  0  0  0  0  0
   57.4810   27.2190   45.8330 C   0  0  0  0  0  0  0  0  0  0  0  0
   56.3320   26.4110   46.3220 C   0  0  0  0  0  0  0  0  0  0  0  0
   55.1550   26.7120   45.9890 O   0  0  0  0  0  0  0  0  0  0  0  0
   56.5250   25.3140   47.1550 O   0  0  0  0  0  0  0  0  0  0  0  0
   57.3940   24.5142   45.0260 H   0  0  0  0  0  0  0  0  0  0  0  0
   56.4861   24.2593   43.4971 H   0  0  0  0  0  0  0  0  0  0  0  0
   58.2813   24.1951   43.4971 H   0  0  0  0  0  0  0  0  0  0  0  0
   59.5346   27.6861   43.1226 H   0  0  0  0  0  0  0  0  0  0  0  0
   60.5023   29.3988   44.6338 H   0  0  0  0  0  0  0  0  0  0  0  0
   57.7899   30.5192   47.9706 H   0  0  0  0  0  0  0  0  0  0  0  0
   59.0289   29.8634   49.1163 H   0  0  0  0  0  0  0  0  0  0  0  0
   58.4118   32.4397   49.1398 H   0  0  0  0  0  0  0  0  0  0  0  0
   60.1366   31.8758   49.3083 H   0  0  0  0  0  0  0  0  0  0  0  0
   57.0266   30.8831   46.0891 H   0  0  0  0  0  0  0  0  0  0  0  0
   56.5760   29.6462   43.9689 H   0  0  0  0  0  0  0  0  0  0  0  0
   57.2320   30.6415   41.7752 H   0  0  0  0  0  0  0  0  0  0  0  0
   58.3968   32.8482   41.7052 H   0  0  0  0  0  0  0  0  0  0  0  0
   58.8994   34.0653   43.8246 H   0  0  0  0  0  0  0  0  0  0  0  0
   60.3717   32.2911   45.5534 H   0  0  0  0  0  0  0  0  0  0  0  0
   61.6417   32.6932   46.8030 H   0  0  0  0  0  0  0  0  0  0  0  0
   61.4108   30.2203   45.9883 H   0  0  0  0  0  0  0  0  0  0  0  0
   61.5893   30.5619   47.7408 H   0  0  0  0  0  0  0  0  0  0  0  0
   57.6312   28.3382   47.6867 H   0  0  0  0  0  0  0  0  0  0  0  0
  1  2  1  0
  2  3  1  0
  3  4  2  0
  4  5  1  0
  5  6  2  0
  6  7  1  0
  7  8  1  0
  8  9  1  0
  9 10  1  0
 10 11  1  0
 11 12  2  0
 11 13  2  0
 11 14  1  0
 14 15  2  0
 15 16  1  0
 16 17  2  0
 17 18  1  0
 18 19  2  0
 10 20  1  0
 20 21  1  0
  6 22  1  0
 22 23  2  0
 23 24  1  0
 24 25  2  0
 24 26  1  0
 23  3  1  0
 21  7  1  0
 19 14  1  0
  1 27  1  0
  1 28  1  0
  1 29  1  0
  4 30  1  0
  5 31  1  0
  8 32  1  0
  8 33  1  0
  9 34  1  0
  9 35  1  0
 15 36  1  0
 16 37  1  0
 17 38  1  0
 18 39  1  0
 19 40  1  0
 20 41  1  0
 20 42  1  0
 21 43  1  0
 21 44  1  0
 22 45  1  0
M  CHG  1  26  -1
M  END
>  <UniqueID>  (85) 
73

>  <SMILES>  (85) 
COc1ccc(N2CCN(S(=O)(=O)c3ccccc3)CC2)cc1C(=O)[O-]

>  <Energy>  (85) 
57.33581686752527

>  <Genealogy>  (85) 
COc1ccc(N2CCN(S(=O)(=O)c3ccccc3)CC2)cc1C(=O)[O-] (protonated)
COc1ccc(N2CCN(S(=O)(=O)c3ccccc3)CC2)cc1C(=O)[O-] (3D coordinates assigned)
COc1ccc(N2CCN(S(=O)(=O)c3ccccc3)CC2)cc1C(=O)[O-] (nonaromatic ring conformer: 57.33581686752527 kcal/mol)

>  <smiles>  (85) 
COc1ccc(N2CCN(S(=O)(=O)c3ccccc3)CC2)cc1C(=O)O

>  <score_type>  (85) 
oracle

>  <origin>  (85) 
adg

>  <m_score__min__energy>  (85) 
-10.720000000000001

>  <m_primary>  (85) 
energy

$$$$
85:0
     RDKit          3D

 61 64  0  0  0  0  0  0  0  0999 V2000
   56.4270   29.5330   42.6400 O   0  0  0  0  0  0  0  0  0  0  0  0
   56.7260   29.3850   43.8620 C   0  0  0  0  0  0  0  0  0  0  0  0
   56.4950   30.4490   44.8010 N   0  0  0  0  0  0  0  0  0  0  0  0
   57.2050   31.6870   44.8600 C   0  0  0  0  0  0  0  0  0  0  0  0
   57.7830   32.1790   43.6810 C   0  0  0  0  0  0  0  0  0  0  0  0
   58.5100   33.3790   43.6900 C   0  0  0  0  0  0  0  0  0  0  0  0
   58.6290   34.1180   44.8690 C   0  0  0  0  0  0  0  0  0  0  0  0
   59.3030   35.2910   44.8710 F   0  0  0  0  0  0  0  0  0  0  0  0
   58.0840   33.6160   46.0590 C   0  0  0  0  0  0  0  0  0  0  0  0
   57.3900   32.3960   46.0620 C   0  0  0  0  0  0  0  0  0  0  0  0
   57.3260   28.1510   44.3240 N   0  0  2  0  0  0  0  0  0  0  0  0
   56.7790   27.7080   45.6300 C   0  0  0  0  0  0  0  0  0  0  0  0
   57.1070   26.2550   46.0630 C   0  0  0  0  0  0  0  0  0  0  0  0
   56.5600   25.1900   45.1430 C   0  0  0  0  0  0  0  0  0  0  0  0
   57.3260   24.7370   44.0480 C   0  0  0  0  0  0  0  0  0  0  0  0
   56.8080   23.7780   43.1750 C   0  0  0  0  0  0  0  0  0  0  0  0
   55.5380   23.2450   43.3940 C   0  0  0  0  0  0  0  0  0  0  0  0
   54.7850   23.6600   44.4990 C   0  0  0  0  0  0  0  0  0  0  0  0
   55.2960   24.6240   45.3740 C   0  0  0  0  0  0  0  0  0  0  0  0
   58.8070   28.2100   44.2860 C   0  0  0  0  0  0  0  0  0  0  0  0
   59.3950   28.2650   45.6760 C   0  0  0  0  0  0  0  0  0  0  0  0
   60.0480   27.1450   46.2160 C   0  0  0  0  0  0  0  0  0  0  0  0
   60.5680   27.1970   47.5110 C   0  0  0  0  0  0  0  0  0  0  0  0
   60.4270   28.3570   48.2820 C   0  0  0  0  0  0  0  0  0  0  0  0
   59.7460   29.4710   47.7660 C   0  0  0  0  0  0  0  0  0  0  0  0
   59.5210   30.6900   48.6090 C   0  0  0  0  0  0  0  0  0  0  0  0
   59.8380   31.8700   47.8650 O   0  0  0  0  0  0  0  0  0  0  0  0
   61.1350   32.3180   47.5830 C   0  0  0  0  0  0  0  0  0  0  0  0
   61.3900   33.4120   46.7300 C   0  0  0  0  0  0  0  0  0  0  0  0
   62.7020   33.8260   46.4950 C   0  0  0  0  0  0  0  0  0  0  0  0
   63.7630   33.1480   47.0960 C   0  0  0  0  0  0  0  0  0  0  0  0
   63.5180   32.0670   47.9470 C   0  0  0  0  0  0  0  0  0  0  0  0
   62.2110   31.6490   48.1770 C   0  0  0  0  0  0  0  0  0  0  0  0
   59.2520   29.4270   46.4550 C   0  0  0  0  0  0  0  0  0  0  0  0
   57.6655   31.6195   42.7412 H   0  0  0  0  0  0  0  0  0  0  0  0
   58.9873   33.7385   42.7664 H   0  0  0  0  0  0  0  0  0  0  0  0
   58.2009   34.1812   46.9954 H   0  0  0  0  0  0  0  0  0  0  0  0
   56.9903   31.9935   47.0045 H   0  0  0  0  0  0  0  0  0  0  0  0
   57.0350   27.4050   43.6460 H   0  0  0  0  0  0  0  0  0  0  0  0
   57.1729   28.3838   46.4034 H   0  0  0  0  0  0  0  0  0  0  0  0
   55.6858   27.7357   45.5112 H   0  0  0  0  0  0  0  0  0  0  0  0
   58.2009   26.1466   46.1022 H   0  0  0  0  0  0  0  0  0  0  0  0
   56.6249   26.1028   47.0400 H   0  0  0  0  0  0  0  0  0  0  0  0
   58.3355   25.1410   43.8813 H   0  0  0  0  0  0  0  0  0  0  0  0
   57.4029   23.4423   42.3128 H   0  0  0  0  0  0  0  0  0  0  0  0
   55.1277   22.4982   42.6983 H   0  0  0  0  0  0  0  0  0  0  0  0
   53.7899   23.2272   44.6792 H   0  0  0  0  0  0  0  0  0  0  0  0
   54.7054   24.9400   46.2465 H   0  0  0  0  0  0  0  0  0  0  0  0
   59.1872   27.3147   43.7723 H   0  0  0  0  0  0  0  0  0  0  0  0
   59.1022   29.1242   43.7502 H   0  0  0  0  0  0  0  0  0  0  0  0
   60.1499   26.2268   45.6189 H   0  0  0  0  0  0  0  0  0  0  0  0
   61.0905   26.3230   47.9270 H   0  0  0  0  0  0  0  0  0  0  0  0
   60.8514   28.3958   49.2961 H   0  0  0  0  0  0  0  0  0  0  0  0
   58.4662   30.7281   48.9187 H   0  0  0  0  0  0  0  0  0  0  0  0
   60.1707   30.6388   49.4951 H   0  0  0  0  0  0  0  0  0  0  0  0
   60.5533   33.9399   46.2491 H   0  0  0  0  0  0  0  0  0  0  0  0
   62.8992   34.6853   45.8371 H   0  0  0  0  0  0  0  0  0  0  0  0
   64.7975   33.4659   46.8990 H   0  0  0  0  0  0  0  0  0  0  0  0
   64.3566   31.5477   48.4339 H   0  0  0  0  0  0  0  0  0  0  0  0
   62.0219   30.7853   48.8314 H   0  0  0  0  0  0  0  0  0  0  0  0
   58.7483   30.3087   46.0320 H   0  0  0  0  0  0  0  0  0  0  0  0
  1  2  2  0
  2  3  1  0
  3  4  1  0
  4  5  2  0
  5  6  1  0
  6  7  2  0
  7  8  1  0
  7  9  1  0
  9 10  2  0
  2 11  1  0
 11 12  1  0
 12 13  1  0
 13 14  1  0
 14 15  2  0
 15 16  1  0
 16 17  2  0
 17 18  1  0
 18 19  2  0
 11 20  1  0
 20 21  1  0
 21 22  2  0
 22 23  1  0
 23 24  2  0
 24 25  1  0
 25 26  1  0
 26 27  1  0
 27 28  1  0
 28 29  2  0
 29 30  1  0
 30 31  2  0
 31 32  1  0
 32 33  2  0
 25 34  2  0
 10  4  1  0
 19 14  1  0
 34 21  1  0
 33 28  1  0
  5 35  1  0
  6 36  1  0
  9 37  1  0
 10 38  1  0
 11 39  1  6
 12 40  1  0
 12 41  1  0
 13 42  1  0
 13 43  1  0
 15 44  1  0
 16 45  1  0
 17 46  1  0
 18 47  1  0
 19 48  1  0
 20 49  1  0
 20 50  1  0
 22 51  1  0
 23 52  1  0
 24 53  1  0
 26 54  1  0
 26 55  1  0
 29 56  1  0
 30 57  1  0
 31 58  1  0
 32 59  1  0
 33 60  1  0
 34 61  1  0
M  CHG  2   3  -1  11   1
M  END
>  <UniqueID>  (86) 
74

>  <SMILES>  (86) 
O=C([N-]c1ccc(F)cc1)[N@H+](CCc1ccccc1)Cc1cccc(COc2ccccc2)c1

>  <Energy>  (86) 
72.21356023922326

>  <Genealogy>  (86) 
O=C([N-]c1ccc(F)cc1)[NH+](CCc1ccccc1)Cc1cccc(COc2ccccc2)c1 (protonated)
O=C([N-]c1ccc(F)cc1)[N@H+](CCc1ccccc1)Cc1cccc(COc2ccccc2)c1 (chirality)
O=C([N-]c1ccc(F)cc1)[N@H+](CCc1ccccc1)Cc1cccc(COc2ccccc2)c1 (3D coordinates assigned)
O=C([N-]c1ccc(F)cc1)[N@H+](CCc1ccccc1)Cc1cccc(COc2ccccc2)c1 (optimized conformer: 72.21356023922326 kcal/mol)

>  <smiles>  (86) 
O=C(Nc1ccc(F)cc1)N(CCc1ccccc1)Cc1cccc(COc2ccccc2)c1

>  <score_type>  (86) 
oracle

>  <origin>  (86) 
adg

>  <m_score__min__energy>  (86) 
-8.9299999999999997

>  <m_primary>  (86) 
energy

$$$$
86:0
     RDKit          3D

 29 30  0  0  0  0  0  0  0  0999 V2000
   59.0745   35.0878   46.6403 H   0  0  0  0  0  0  0  0  0  0  0  0
   58.7080   34.1160   46.2780 C   0  0  0  0  0  0  0  0  0  0  0  0
   57.1860   33.8120   45.6300 S   0  0  0  0  0  0  0  0  0  0  0  0
   57.5030   32.1880   45.3510 C   0  0  0  0  0  0  0  0  0  0  0  0
   56.6240   31.3740   44.8390 N   0  0  0  0  0  0  0  0  0  0  0  0
   56.6070   29.9400   44.8700 C   0  0  0  0  0  0  0  0  0  0  0  0
   55.5240   29.2960   44.8680 O   0  0  0  0  0  0  0  0  0  0  0  0
   57.8500   29.2410   44.9660 N   0  0  0  0  0  0  0  0  0  0  0  0
   58.1590   28.0700   44.1590 C   0  0  0  0  0  0  0  0  0  0  0  0
   58.3836   27.2189   44.8187 H   0  0  0  0  0  0  0  0  0  0  0  0
   57.2951   27.8238   43.5242 H   0  0  0  0  0  0  0  0  0  0  0  0
   59.0319   28.2821   43.5242 H   0  0  0  0  0  0  0  0  0  0  0  0
   58.7540   31.8540   45.7510 N   0  0  0  0  0  0  0  0  0  0  0  0
   59.1740   30.9010   45.7160 H   0  0  0  0  0  0  0  0  0  0  0  0
   59.4240   32.9180   46.2750 C   0  0  0  0  0  0  0  0  0  0  0  0
   60.8210   32.8070   46.7470 C   0  0  0  0  0  0  0  0  0  0  0  0
   61.7140   33.8280   46.3830 C   0  0  0  0  0  0  0  0  0  0  0  0
   61.3692   34.6477   45.7356 H   0  0  0  0  0  0  0  0  0  0  0  0
   63.0330   33.8130   46.8340 C   0  0  0  0  0  0  0  0  0  0  0  0
   63.7232   34.6184   46.5424 H   0  0  0  0  0  0  0  0  0  0  0  0
   63.4770   32.7780   47.6540 C   0  0  0  0  0  0  0  0  0  0  0  0
   64.5134   32.7766   48.0227 H   0  0  0  0  0  0  0  0  0  0  0  0
   62.6110   31.7430   48.0090 C   0  0  0  0  0  0  0  0  0  0  0  0
   62.9699   30.9354   48.6640 H   0  0  0  0  0  0  0  0  0  0  0  0
   61.2820   31.7190   47.5390 C   0  0  0  0  0  0  0  0  0  0  0  0
   60.3890   30.5520   47.9190 C   0  0  0  0  0  0  0  0  0  0  0  0
   59.1470   30.9960   48.3430 F   0  0  0  0  0  0  0  0  0  0  0  0
   60.2100   29.7320   46.8220 F   0  0  0  0  0  0  0  0  0  0  0  0
   60.9440   29.8210   48.9540 F   0  0  0  0  0  0  0  0  0  0  0  0
  1  2  1  0
  2  3  1  0
  3  4  1  0
  4  5  2  0
  5  6  1  0
  6  7  2  0
  6  8  1  0
  8  9  1  0
  9 10  1  0
  9 11  1  0
  9 12  1  0
  4 13  1  0
 13 14  1  0
 13 15  1  0
 15 16  1  0
 16 17  2  0
 17 18  1  0
 17 19  1  0
 19 20  1  0
 19 21  2  0
 21 22  1  0
 21 23  1  0
 23 24  1  0
 23 25  2  0
 25 26  1  0
 26 27  1  0
 26 28  1  0
 26 29  1  0
 15  2  2  0
 25 16  1  0
M  CHG  1   8  -1
M  END
>  <UniqueID>  (87) 
75

>  <SMILES>  (87) 
C[N-]C(=O)/N=c1\[nH]c(-c2ccccc2C(F)(F)F)cs1

>  <Energy>  (87) 
70.3416586600139

>  <Genealogy>  (87) 
C[N-]C(=O)N=c1[nH]c(-c2ccccc2C(F)(F)F)cs1 (protonated)
C[N-]C(=O)/N=c1\[nH]c(-c2ccccc2C(F)(F)F)cs1 (cis-trans isomerization)
C[N-]C(=O)/N=c1\[nH]c(-c2ccccc2C(F)(F)F)cs1 (3D coordinates assigned)
C[N-]C(=O)/N=c1\[nH]c(-c2ccccc2C(F)(F)F)cs1 (optimized conformer: 70.3416586600139 kcal/mol)

>  <smiles>  (87) 
CNC(=O)N=c1[nH]c(-c2ccccc2C(F)(F)F)cs1

>  <score_type>  (87) 
oracle

>  <origin>  (87) 
adg

>  <m_score__min__energy>  (87) 
-7.9900000000000002

>  <m_primary>  (87) 
energy

$$$$
87:0
     RDKit          3D

 33 35  0  0  0  0  0  0  0  0999 V2000
   57.7700   32.3430   42.6010 C   0  0  0  0  0  0  0  0  0  0  0  0
   58.0090   32.2400   44.0840 C   0  0  0  0  0  0  0  0  0  0  0  0
   58.3200   33.3950   44.8210 C   0  0  0  0  0  0  0  0  0  0  0  0
   58.5540   33.3180   46.1990 C   0  0  0  0  0  0  0  0  0  0  0  0
   58.9660   34.7980   47.1230 S   0  0  0  0  0  0  0  0  0  0  0  0
   60.6430   34.2460   47.4290 C   0  0  0  0  0  0  0  0  0  0  0  0
   61.4830   33.8840   46.3530 C   0  0  0  0  0  0  0  0  0  0  0  0
   62.8020   33.4630   46.5910 C   0  0  0  0  0  0  0  0  0  0  0  0
   63.2310   33.4200   47.9150 C   0  0  0  0  0  0  0  0  0  0  0  0
   64.4400   33.0570   48.3710 N   0  0  0  0  0  0  0  0  0  0  0  0
   64.4150   33.1680   49.6950 N   0  0  0  0  0  0  0  0  0  0  0  0
   63.1740   33.6000   50.0240 C   0  0  0  0  0  0  0  0  0  0  0  0
   62.7250   33.8630   51.4260 C   0  0  0  0  0  0  0  0  0  0  0  0
   61.4250   33.4240   51.5900 F   0  0  0  0  0  0  0  0  0  0  0  0
   63.5520   33.1980   52.3130 F   0  0  0  0  0  0  0  0  0  0  0  0
   62.4170   33.7630   48.9210 N   0  0  0  0  0  0  0  0  0  0  0  0
   61.1350   34.1740   48.7440 C   0  0  0  0  0  0  0  0  0  0  0  0
   58.4690   32.0850   46.8530 C   0  0  0  0  0  0  0  0  0  0  0  0
   58.1600   30.9300   46.1330 C   0  0  0  0  0  0  0  0  0  0  0  0
   57.9300   30.9970   44.7510 C   0  0  0  0  0  0  0  0  0  0  0  0
   57.6150   29.7820   44.0400 C   0  0  0  0  0  0  0  0  0  0  0  0
   57.3620   28.8080   43.4680 N   0  0  0  0  0  0  0  0  0  0  0  0
   56.7737   32.7723   42.4191 H   0  0  0  0  0  0  0  0  0  0  0  0
   58.5363   32.9908   42.1502 H   0  0  0  0  0  0  0  0  0  0  0  0
   57.8254   31.3411   42.1502 H   0  0  0  0  0  0  0  0  0  0  0  0
   58.3801   34.3678   44.3110 H   0  0  0  0  0  0  0  0  0  0  0  0
   61.1022   33.9320   45.3222 H   0  0  0  0  0  0  0  0  0  0  0  0
   63.4694   33.1786   45.7642 H   0  0  0  0  0  0  0  0  0  0  0  0
   65.2640   32.7450   47.8110 H   0  0  0  0  0  0  0  0  0  0  0  0
   62.7722   34.9442   51.6230 H   0  0  0  0  0  0  0  0  0  0  0  0
   60.5015   34.4421   49.6023 H   0  0  0  0  0  0  0  0  0  0  0  0
   58.6460   32.0252   47.9370 H   0  0  0  0  0  0  0  0  0  0  0  0
   58.0965   29.9622   46.6520 H   0  0  0  0  0  0  0  0  0  0  0  0
  1  2  1  0
  2  3  2  0
  3  4  1  0
  4  5  1  0
  5  6  1  0
  6  7  1  0
  7  8  2  0
  8  9  1  0
  9 10  2  0
 10 11  1  0
 11 12  2  0
 12 13  1  0
 13 14  1  0
 13 15  1  0
 12 16  1  0
 16 17  1  0
  4 18  2  0
 18 19  1  0
 19 20  2  0
 20 21  1  0
 21 22  3  0
 20  2  1  0
 17  6  2  0
 16  9  1  0
  1 23  1  0
  1 24  1  0
  1 25  1  0
  3 26  1  0
  7 27  1  0
  8 28  1  0
 10 29  1  0
 13 30  1  0
 17 31  1  0
 18 32  1  0
 19 33  1  0
M  CHG  1  10   1
M  END
>  <UniqueID>  (88) 
76

>  <SMILES>  (88) 
Cc1cc(Sc2ccc3[nH+]nc(C(F)F)n3c2)ccc1C#N

>  <Energy>  (88) 
71.07568810206553

>  <Genealogy>  (88) 
Cc1cc(Sc2ccc3[nH+]nc(C(F)F)n3c2)ccc1C#N (protonated)
Cc1cc(Sc2ccc3[nH+]nc(C(F)F)n3c2)ccc1C#N (3D coordinates assigned)
Cc1cc(Sc2ccc3[nH+]nc(C(F)F)n3c2)ccc1C#N (optimized conformer: 71.07568810206553 kcal/mol)

>  <smiles>  (88) 
Cc1cc(Sc2ccc3nnc(C(F)F)n3c2)ccc1C#N

>  <score_type>  (88) 
oracle

>  <origin>  (88) 
adg

>  <m_score__min__energy>  (88) 
-6.0700000000000003

>  <m_primary>  (88) 
energy

$$$$
88:0
     RDKit          3D

 39 42  0  0  0  0  0  0  0  0999 V2000
   57.4650   30.4910   43.1230 O   0  0  0  0  0  0  0  0  0  0  0  0
   56.8220   30.3190   44.4710 S   0  0  0  0  0  0  0  0  0  0  0  0
   55.5180   31.0630   44.4950 O   0  0  0  0  0  0  0  0  0  0  0  0
   56.4990   28.6300   44.7510 N   0  0  0  0  0  0  0  0  0  0  0  0
   57.5850   27.7920   44.2410 C   0  0  0  0  0  0  0  0  0  0  0  0
   58.5290   27.4150   45.3530 C   0  0  0  0  0  0  0  0  0  0  0  0
   59.8890   27.7640   45.2860 C   0  0  0  0  0  0  0  0  0  0  0  0
   60.7570   27.4130   46.3240 C   0  0  0  0  0  0  0  0  0  0  0  0
   60.2750   26.7180   47.4370 C   0  0  0  0  0  0  0  0  0  0  0  0
   61.1190   26.3780   48.4430 F   0  0  0  0  0  0  0  0  0  0  0  0
   58.9220   26.3740   47.5140 C   0  0  0  0  0  0  0  0  0  0  0  0
   58.0510   26.7220   46.4770 C   0  0  0  0  0  0  0  0  0  0  0  0
   57.8800   30.9790   45.7280 C   0  0  0  0  0  0  0  0  0  0  0  0
   58.3090   30.1400   46.7910 C   0  0  0  0  0  0  0  0  0  0  0  0
   59.1610   30.6270   47.8030 C   0  0  0  0  0  0  0  0  0  0  0  0
   59.5730   31.9570   47.7450 C   0  0  0  0  0  0  0  0  0  0  0  0
   59.1450   32.7590   46.7370 C   0  0  0  0  0  0  0  0  0  0  0  0
   59.6260   34.0260   46.8510 C   0  0  0  0  0  0  0  0  0  0  0  0
   59.2780   34.9950   45.9090 C   0  0  0  0  0  0  0  0  0  0  0  0
   58.4200   34.6260   44.8520 C   0  0  0  0  0  0  0  0  0  0  0  0
   57.9290   33.3040   44.7500 C   0  0  0  0  0  0  0  0  0  0  0  0
   58.3000   32.3360   45.7110 C   0  0  0  0  0  0  0  0  0  0  0  0
   60.4930   34.1480   48.0640 C   0  0  0  0  0  0  0  0  0  0  0  0
   60.4540   32.7210   48.6820 C   0  0  0  0  0  0  0  0  0  0  0  0
   57.1603   26.8775   43.8013 H   0  0  0  0  0  0  0  0  0  0  0  0
   58.1416   28.3569   43.4787 H   0  0  0  0  0  0  0  0  0  0  0  0
   60.2714   28.3150   44.4141 H   0  0  0  0  0  0  0  0  0  0  0  0
   61.8214   27.6842   46.2649 H   0  0  0  0  0  0  0  0  0  0  0  0
   58.5425   25.8292   48.3910 H   0  0  0  0  0  0  0  0  0  0  0  0
   56.9867   26.4518   46.5419 H   0  0  0  0  0  0  0  0  0  0  0  0
   57.9710   29.0938   46.8250 H   0  0  0  0  0  0  0  0  0  0  0  0
   59.4935   29.9711   48.6211 H   0  0  0  0  0  0  0  0  0  0  0  0
   59.6636   36.0221   45.9889 H   0  0  0  0  0  0  0  0  0  0  0  0
   58.1300   35.3742   44.0996 H   0  0  0  0  0  0  0  0  0  0  0  0
   57.2583   33.0288   43.9228 H   0  0  0  0  0  0  0  0  0  0  0  0
   61.5199   34.4287   47.7869 H   0  0  0  0  0  0  0  0  0  0  0  0
   60.1487   34.9266   48.7606 H   0  0  0  0  0  0  0  0  0  0  0  0
   61.4617   32.2816   48.7201 H   0  0  0  0  0  0  0  0  0  0  0  0
   60.0849   32.7135   49.7182 H   0  0  0  0  0  0  0  0  0  0  0  0
  1  2  2  0
  2  3  2  0
  2  4  1  0
  4  5  1  0
  5  6  1  0
  6  7  2  0
  7  8  1  0
  8  9  2  0
  9 10  1  0
  9 11  1  0
 11 12  2  0
  2 13  1  0
 13 14  2  0
 14 15  1  0
 15 16  2  0
 16 17  1  0
 17 18  2  0
 18 19  1  0
 19 20  2  0
 20 21  1  0
 21 22  2  0
 18 23  1  0
 23 24  1  0
 12  6  1  0
 22 13  1  0
 24 16  1  0
 22 17  1  0
  5 25  1  0
  5 26  1  0
  7 27  1  0
  8 28  1  0
 11 29  1  0
 12 30  1  0
 14 31  1  0
 15 32  1  0
 19 33  1  0
 20 34  1  0
 21 35  1  0
 23 36  1  0
 23 37  1  0
 24 38  1  0
 24 39  1  0
M  CHG  1   4  -1
M  END
>  <UniqueID>  (89) 
77

>  <SMILES>  (89) 
O=S(=O)([N-]Cc1ccc(F)cc1)c1ccc2c3c(cccc13)CC2

>  <Energy>  (89) 
64.86829859441849

>  <Genealogy>  (89) 
O=S(=O)([N-]Cc1ccc(F)cc1)c1ccc2c3c(cccc13)CC2 (protonated)
O=S(=O)([N-]Cc1ccc(F)cc1)c1ccc2c3c(cccc13)CC2 (3D coordinates assigned)
O=S(=O)([N-]Cc1ccc(F)cc1)c1ccc2c3c(cccc13)CC2 (nonaromatic ring conformer: 64.86829859441849 kcal/mol)

>  <smiles>  (89) 
O=S(=O)(NCc1ccc(F)cc1)c1ccc2c3c(cccc13)CC2

>  <score_type>  (89) 
oracle

>  <origin>  (89) 
adg

>  <m_score__min__energy>  (89) 
-10.359999999999999

>  <m_primary>  (89) 
energy

$$$$
89:0
     RDKit          3D

 46 49  0  0  0  0  0  0  0  0999 V2000
   58.7900   24.2960   45.6200 C   0  0  0  0  0  0  0  0  0  0  0  0
   59.1880   25.4710   46.3210 O   0  0  0  0  0  0  0  0  0  0  0  0
   58.7820   26.7710   45.9850 C   0  0  0  0  0  0  0  0  0  0  0  0
   58.0430   27.0420   44.8080 C   0  0  0  0  0  0  0  0  0  0  0  0
   57.6720   28.3580   44.5500 C   0  0  0  0  0  0  0  0  0  0  0  0
   57.0050   28.8060   43.4740 N   0  0  0  0  0  0  0  0  0  0  0  0
   56.8950   30.1420   43.6310 C   0  0  0  0  0  0  0  0  0  0  0  0
   57.4840   30.5490   44.8260 C   0  0  0  0  0  0  0  0  0  0  0  0
   57.5310   31.9540   45.2940 C   0  0  0  0  0  0  0  0  0  0  0  0
   56.6450   32.7480   44.8760 O   0  0  0  0  0  0  0  0  0  0  0  0
   58.5410   32.4850   46.2840 C   0  0  2  0  0  0  0  0  0  0  0  0
   57.9150   33.5040   47.2260 C   0  0  0  0  0  0  0  0  0  0  0  0
   59.2290   34.6020   47.8080 S   0  0  0  0  0  0  0  0  0  0  0  0
   60.3920   33.9690   46.5510 C   0  0  1  0  0  0  0  0  0  0  0  0
   61.5840   33.2840   47.1930 C   0  0  0  0  0  0  0  0  0  0  0  0
   61.3960   32.4630   48.3160 C   0  0  0  0  0  0  0  0  0  0  0  0
   62.4890   31.8610   48.9380 C   0  0  0  0  0  0  0  0  0  0  0  0
   63.7720   32.0920   48.4420 C   0  0  0  0  0  0  0  0  0  0  0  0
   63.9500   32.9010   47.3620 N   0  0  0  0  0  0  0  0  0  0  0  0
   62.8980   33.4990   46.7390 C   0  0  0  0  0  0  0  0  0  0  0  0
   59.6900   33.0860   45.6120 N   0  0  0  0  0  0  0  0  0  0  0  0
   57.9910   29.3860   45.4000 C   0  0  0  0  0  0  0  0  0  0  0  0
   58.7430   29.1560   46.5540 C   0  0  0  0  0  0  0  0  0  0  0  0
   59.1350   27.8300   46.8560 C   0  0  0  0  0  0  0  0  0  0  0  0
   59.8780   27.5230   48.0070 O   0  0  0  0  0  0  0  0  0  0  0  0
   60.3970   28.4910   48.9130 C   0  0  0  0  0  0  0  0  0  0  0  0
   58.5239   23.5104   46.3425 H   0  0  0  0  0  0  0  0  0  0  0  0
   57.9188   24.5234   44.9882 H   0  0  0  0  0  0  0  0  0  0  0  0
   59.6201   23.9471   44.9882 H   0  0  0  0  0  0  0  0  0  0  0  0
   57.7691   26.2327   44.1152 H   0  0  0  0  0  0  0  0  0  0  0  0
   56.6520   28.2410   42.6690 H   0  0  0  0  0  0  0  0  0  0  0  0
   56.4068   30.8175   42.9131 H   0  0  0  0  0  0  0  0  0  0  0  0
   58.8877   31.6221   46.8716 H   0  0  0  0  0  0  0  0  0  0  0  0
   57.1501   34.0867   46.6917 H   0  0  0  0  0  0  0  0  0  0  0  0
   57.4348   32.9966   48.0756 H   0  0  0  0  0  0  0  0  0  0  0  0
   60.7900   34.8217   45.9814 H   0  0  0  0  0  0  0  0  0  0  0  0
   60.3818   32.2939   48.7070 H   0  0  0  0  0  0  0  0  0  0  0  0
   62.3408   31.2097   49.8120 H   0  0  0  0  0  0  0  0  0  0  0  0
   64.6408   31.6199   48.9241 H   0  0  0  0  0  0  0  0  0  0  0  0
   64.9170   33.0690   47.0050 H   0  0  0  0  0  0  0  0  0  0  0  0
   63.0765   34.1551   45.8743 H   0  0  0  0  0  0  0  0  0  0  0  0
   60.3230   32.3320   45.2530 H   0  0  0  0  0  0  0  0  0  0  0  0
   59.0250   29.9887   47.2151 H   0  0  0  0  0  0  0  0  0  0  0  0
   60.2188   28.1587   49.9464 H   0  0  0  0  0  0  0  0  0  0  0  0
   61.4781   28.6067   48.7463 H   0  0  0  0  0  0  0  0  0  0  0  0
   59.8950   29.4555   48.7463 H   0  0  0  0  0  0  0  0  0  0  0  0
  1  2  1  0
  2  3  1  0
  3  4  2  0
  4  5  1  0
  5  6  1  0
  6  7  1  0
  7  8  2  0
  8  9  1  0
  9 10  2  0
  9 11  1  0
 11 12  1  0
 12 13  1  0
 13 14  1  0
 14 15  1  0
 15 16  2  0
 16 17  1  0
 17 18  2  0
 18 19  1  0
 19 20  2  0
 14 21  1  0
  8 22  1  0
 22 23  1  0
 23 24  2  0
 24 25  1  0
 25 26  1  0
 24  3  1  0
 22  5  2  0
 21 11  1  0
 20 15  1  0
  1 27  1  0
  1 28  1  0
  1 29  1  0
  4 30  1  0
  6 31  1  0
  7 32  1  0
 11 33  1  1
 12 34  1  0
 12 35  1  0
 14 36  1  6
 16 37  1  0
 17 38  1  0
 18 39  1  0
 19 40  1  0
 20 41  1  0
 21 42  1  0
 23 43  1  0
 26 44  1  0
 26 45  1  0
 26 46  1  0
M  CHG  1  19   1
M  END
>  <UniqueID>  (90) 
78

>  <SMILES>  (90) 
COc1cc2[nH]cc(C(=O)[C@@H]3CS[C@@H](c4ccc[nH+]c4)N3)c2cc1OC

>  <Energy>  (90) 
83.3645242400384

>  <Genealogy>  (90) 
COc1cc2[nH]cc(C(=O)C3CSC(c4ccc[nH+]c4)N3)c2cc1OC (protonated)
COc1cc2[nH]cc(C(=O)[C@@H]3CS[C@@H](c4ccc[nH+]c4)N3)c2cc1OC (chirality)
COc1cc2[nH]cc(C(=O)[C@@H]3CS[C@@H](c4ccc[nH+]c4)N3)c2cc1OC (3D coordinates assigned)
COc1cc2[nH]cc(C(=O)[C@@H]3CS[C@@H](c4ccc[nH+]c4)N3)c2cc1OC (nonaromatic ring conformer: 83.3645242400384 kcal/mol)

>  <smiles>  (90) 
COc1cc2[nH]cc(C(=O)C3CSC(c4cccnc4)N3)c2cc1OC

>  <score_type>  (90) 
oracle

>  <origin>  (90) 
adg

>  <m_score__min__energy>  (90) 
-6.7300000000000004

>  <m_primary>  (90) 
energy

$$$$
90:0
     RDKit          3D

 49 52  0  0  0  0  0  0  0  0999 V2000
   61.0980   26.8110   50.2950 C   0  0  0  0  0  0  0  0  0  0  0  0
   60.7000   27.9760   49.4940 N   0  0  0  0  0  0  0  0  0  0  0  0
   61.1420   29.3110   49.9140 C   0  0  0  0  0  0  0  0  0  0  0  0
   59.8930   27.8070   48.3000 C   0  0  0  0  0  0  0  0  0  0  0  0
   58.6140   28.3920   48.2030 C   0  0  0  0  0  0  0  0  0  0  0  0
   57.8460   28.2460   47.0460 C   0  0  0  0  0  0  0  0  0  0  0  0
   58.3320   27.5070   45.9600 C   0  0  0  0  0  0  0  0  0  0  0  0
   57.5620   27.4540   44.6670 C   0  0  0  0  0  0  0  0  0  0  0  0
   57.5000   28.7930   44.0950 N   0  0  0  0  0  0  0  0  0  0  0  0
   56.4910   29.7370   44.4600 C   0  0  0  0  0  0  0  0  0  0  0  0
   55.3630   29.3420   44.8640 O   0  0  0  0  0  0  0  0  0  0  0  0
   56.8290   31.1910   44.4970 C   0  0  0  0  0  0  0  0  0  0  0  0
   58.0090   31.3830   45.3520 N   0  0  0  0  0  0  0  0  0  0  0  0
   58.9950   30.4630   45.3120 N   0  0  0  0  0  0  0  0  0  0  0  0
   60.1630   30.6150   46.0040 C   0  0  0  0  0  0  0  0  0  0  0  0
   60.3210   31.7650   46.7580 C   0  0  0  0  0  0  0  0  0  0  0  0
   59.3360   32.7140   46.8050 C   0  0  0  0  0  0  0  0  0  0  0  0
   59.6980   33.7710   47.5680 N   0  0  0  0  0  0  0  0  0  0  0  0
   60.9380   33.4650   48.0060 C   0  0  0  0  0  0  0  0  0  0  0  0
   61.7590   34.2410   48.8230 C   0  0  0  0  0  0  0  0  0  0  0  0
   63.0310   33.7350   49.1490 C   0  0  0  0  0  0  0  0  0  0  0  0
   63.4530   32.4780   48.6580 C   0  0  0  0  0  0  0  0  0  0  0  0
   62.6060   31.7110   47.8380 C   0  0  0  0  0  0  0  0  0  0  0  0
   61.3550   32.2380   47.5290 C   0  0  0  0  0  0  0  0  0  0  0  0
   58.1570   32.5370   46.0920 C   0  0  0  0  0  0  0  0  0  0  0  0
   57.2590   33.4230   46.1160 O   0  0  0  0  0  0  0  0  0  0  0  0
   59.6040   26.9230   46.0440 C   0  0  0  0  0  0  0  0  0  0  0  0
   60.3720   27.0640   47.2020 C   0  0  0  0  0  0  0  0  0  0  0  0
   61.0145   27.0554   51.3643 H   0  0  0  0  0  0  0  0  0  0  0  0
   60.4389   25.9622   50.0603 H   0  0  0  0  0  0  0  0  0  0  0  0
   62.1387   26.5429   50.0603 H   0  0  0  0  0  0  0  0  0  0  0  0
   61.1591   29.3628   51.0126 H   0  0  0  0  0  0  0  0  0  0  0  0
   62.1517   29.5031   49.5221 H   0  0  0  0  0  0  0  0  0  0  0  0
   60.4464   30.0677   49.5221 H   0  0  0  0  0  0  0  0  0  0  0  0
   58.2160   28.9708   49.0495 H   0  0  0  0  0  0  0  0  0  0  0  0
   56.8525   28.7146   46.9871 H   0  0  0  0  0  0  0  0  0  0  0  0
   58.0682   26.7760   43.9641 H   0  0  0  0  0  0  0  0  0  0  0  0
   56.5436   27.0839   44.8565 H   0  0  0  0  0  0  0  0  0  0  0  0
   57.0488   31.5452   43.4790 H   0  0  0  0  0  0  0  0  0  0  0  0
   55.9793   31.7614   44.9003 H   0  0  0  0  0  0  0  0  0  0  0  0
   58.8870   29.6050   44.7240 H   0  0  0  0  0  0  0  0  0  0  0  0
   60.9515   29.8491   45.9634 H   0  0  0  0  0  0  0  0  0  0  0  0
   59.1480   34.6370   47.7630 H   0  0  0  0  0  0  0  0  0  0  0  0
   61.4231   35.2179   49.2009 H   0  0  0  0  0  0  0  0  0  0  0  0
   63.7031   34.3227   49.7916 H   0  0  0  0  0  0  0  0  0  0  0  0
   64.4513   32.0971   48.9193 H   0  0  0  0  0  0  0  0  0  0  0  0
   62.9209   30.7293   47.4543 H   0  0  0  0  0  0  0  0  0  0  0  0
   59.9996   26.3501   45.1924 H   0  0  0  0  0  0  0  0  0  0  0  0
   61.3628   26.5894   47.2579 H   0  0  0  0  0  0  0  0  0  0  0  0
  1  2  1  0
  2  3  1  0
  2  4  1  0
  4  5  2  0
  5  6  1  0
  6  7  2  0
  7  8  1  0
  8  9  1  0
  9 10  1  0
 10 11  2  0
 10 12  1  0
 12 13  1  0
 13 14  1  0
 14 15  2  0
 15 16  1  0
 16 17  2  0
 17 18  1  0
 18 19  1  0
 19 20  2  0
 20 21  1  0
 21 22  2  0
 22 23  1  0
 23 24  2  0
 17 25  1  0
 25 26  2  0
  7 27  1  0
 27 28  2  0
 28  4  1  0
 25 13  1  0
 24 16  1  0
 24 19  1  0
  1 29  1  0
  1 30  1  0
  1 31  1  0
  3 32  1  0
  3 33  1  0
  3 34  1  0
  5 35  1  0
  6 36  1  0
  8 37  1  0
  8 38  1  0
 12 39  1  0
 12 40  1  0
 14 41  1  0
 15 42  1  0
 18 43  1  0
 20 44  1  0
 21 45  1  0
 22 46  1  0
 23 47  1  0
 27 48  1  0
 28 49  1  0
M  CHG  2   9  -1  14   1
M  END
>  <UniqueID>  (91) 
79

>  <SMILES>  (91) 
CN(C)c1ccc(C[N-]C(=O)Cn2[nH+]cc3c([nH]c4ccccc43)c2=O)cc1

>  <Energy>  (91) 
87.7554637786632

>  <Genealogy>  (91) 
CN(C)c1ccc(C[N-]C(=O)Cn2[nH+]cc3c([nH]c4ccccc43)c2=O)cc1 (protonated)
CN(C)c1ccc(C[N-]C(=O)Cn2[nH+]cc3c([nH]c4ccccc43)c2=O)cc1 (3D coordinates assigned)
CN(C)c1ccc(C[N-]C(=O)Cn2[nH+]cc3c([nH]c4ccccc43)c2=O)cc1 (optimized conformer: 87.7554637786632 kcal/mol)

>  <smiles>  (91) 
CN(C)c1ccc(CNC(=O)Cn2ncc3c([nH]c4ccccc43)c2=O)cc1

>  <score_type>  (91) 
oracle

>  <origin>  (91) 
adg

>  <m_score__min__energy>  (91) 
-8.6600000000000001

>  <m_primary>  (91) 
energy

$$$$
91:0
     RDKit          3D

 42 45  0  0  0  0  0  0  0  0999 V2000
   54.4170   30.0310   52.6490 C   0  0  0  0  0  0  0  0  0  0  0  0
   55.7890   30.3590   52.2880 N   0  0  0  0  0  0  0  0  0  0  0  0
   56.3310   31.5920   52.1080 C   0  0  0  0  0  0  0  0  0  0  0  0
   57.6520   31.4180   51.7770 C   0  0  0  0  0  0  0  0  0  0  0  0
   58.6610   32.3760   51.4880 N   0  0  0  0  0  0  0  0  0  0  0  0
   59.8000   32.5770   52.3300 C   0  0  0  0  0  0  0  0  0  0  0  0
   59.9460   31.8950   53.3760 O   0  0  0  0  0  0  0  0  0  0  0  0
   60.7760   33.5960   51.9250 C   0  0  0  0  0  0  0  0  0  0  0  0
   60.8950   33.6490   50.4800 N   0  0  0  0  0  0  0  0  0  0  0  0
   59.9500   33.8630   49.5730 N   0  0  0  0  0  0  0  0  0  0  0  0
   60.4870   33.8330   48.3180 C   0  0  0  0  0  0  0  0  0  0  0  0
   59.7040   34.0200   47.1140 C   0  0  0  0  0  0  0  0  0  0  0  0
   58.5410   33.2690   46.9330 C   0  0  0  0  0  0  0  0  0  0  0  0
   57.7400   33.4160   45.8200 C   0  0  0  0  0  0  0  0  0  0  0  0
   58.0520   34.3110   44.8330 C   0  0  0  0  0  0  0  0  0  0  0  0
   59.2030   35.0690   44.9900 C   0  0  0  0  0  0  0  0  0  0  0  0
   60.0020   34.9140   46.1140 C   0  0  0  0  0  0  0  0  0  0  0  0
   61.8180   33.5860   48.5160 C   0  0  0  0  0  0  0  0  0  0  0  0
   62.8600   33.4380   47.6290 C   0  0  0  0  0  0  0  0  0  0  0  0
   62.6770   33.5190   46.3670 N   0  0  0  0  0  0  0  0  0  0  0  0
   64.1040   33.1880   48.0690 N   0  0  0  0  0  0  0  0  0  0  0  0
   64.3350   33.0800   49.4090 C   0  0  0  0  0  0  0  0  0  0  0  0
   63.3270   33.2210   50.3010 N   0  0  0  0  0  0  0  0  0  0  0  0
   62.0930   33.4680   49.8620 C   0  0  0  0  0  0  0  0  0  0  0  0
   57.8940   30.0560   51.7620 C   0  0  0  0  0  0  0  0  0  0  0  0
   56.7320   29.4550   52.0790 N   0  0  0  0  0  0  0  0  0  0  0  0
   54.3216   30.0082   53.7446 H   0  0  0  0  0  0  0  0  0  0  0  0
   53.7376   30.7920   52.2375 H   0  0  0  0  0  0  0  0  0  0  0  0
   54.1553   29.0450   52.2375 H   0  0  0  0  0  0  0  0  0  0  0  0
   55.8070   32.5539   52.2090 H   0  0  0  0  0  0  0  0  0  0  0  0
   58.5370   32.9450   50.6100 H   0  0  0  0  0  0  0  0  0  0  0  0
   60.4474   34.5780   52.2962 H   0  0  0  0  0  0  0  0  0  0  0  0
   61.7562   33.3346   52.3504 H   0  0  0  0  0  0  0  0  0  0  0  0
   58.2546   32.5369   47.7024 H   0  0  0  0  0  0  0  0  0  0  0  0
   56.8326   32.8018   45.7238 H   0  0  0  0  0  0  0  0  0  0  0  0
   57.4121   34.4254   43.9456 H   0  0  0  0  0  0  0  0  0  0  0  0
   59.4848   35.7991   44.2170 H   0  0  0  0  0  0  0  0  0  0  0  0
   60.9083   35.5302   46.2080 H   0  0  0  0  0  0  0  0  0  0  0  0
   61.8730   33.1030   45.8480 H   0  0  0  0  0  0  0  0  0  0  0  0
   64.9140   33.0710   47.4520 H   0  0  0  0  0  0  0  0  0  0  0  0
   65.3540   32.8756   49.7694 H   0  0  0  0  0  0  0  0  0  0  0  0
   58.8497   29.5607   51.5352 H   0  0  0  0  0  0  0  0  0  0  0  0
  1  2  1  0
  2  3  1  0
  3  4  2  0
  4  5  1  0
  5  6  1  0
  6  7  2  0
  6  8  1  0
  8  9  1  0
  9 10  1  0
 10 11  2  0
 11 12  1  0
 12 13  2  0
 13 14  1  0
 14 15  2  0
 15 16  1  0
 16 17  2  0
 11 18  1  0
 18 19  1  0
 19 20  2  3
 19 21  1  0
 21 22  1  0
 22 23  2  0
 23 24  1  0
  4 25  1  0
 25 26  2  0
 26  2  1  0
 24  9  1  0
 17 12  1  0
 24 18  2  0
  1 27  1  0
  1 28  1  0
  1 29  1  0
  3 30  1  0
  5 31  1  0
  8 32  1  0
  8 33  1  0
 13 34  1  0
 14 35  1  0
 15 36  1  0
 16 37  1  0
 17 38  1  0
 20 39  1  0
 21 40  1  0
 22 41  1  0
 25 42  1  0
M  END
>  <smiles>  (92) 
Cn1cc(NC(=O)Cn2nc(-c3ccccc3)c3c(=N)[nH]cnc32)cn1

>  <score_type>  (92) 
oracle

>  <origin>  (92) 
adg

>  <m_score__min__energy>  (92) 
-7.3600000000000003

>  <m_primary>  (92) 
energy

$$$$
92:0
     RDKit          3D

 50 52  0  0  0  0  0  0  0  0999 V2000
   63.4200   33.4770   47.0520 C   0  0  0  0  0  0  0  0  0  0  0  0
   62.1860   33.7420   47.8020 N   0  0  0  0  0  0  0  0  0  0  0  0
   62.2640   34.1630   49.2060 C   0  0  0  0  0  0  0  0  0  0  0  0
   60.8860   33.5820   47.1890 C   0  0  0  0  0  0  0  0  0  0  0  0
   60.0190   32.5330   47.5510 C   0  0  0  0  0  0  0  0  0  0  0  0
   58.7730   32.4180   46.9290 C   0  0  0  0  0  0  0  0  0  0  0  0
   58.3850   33.3480   45.9550 C   0  0  0  0  0  0  0  0  0  0  0  0
   57.0540   33.2330   45.2640 C   0  0  0  0  0  0  0  0  0  0  0  0
   57.0590   32.1110   44.3320 N   0  0  0  0  0  0  0  0  0  0  0  0
   56.9960   30.7400   44.7380 C   0  0  0  0  0  0  0  0  0  0  0  0
   55.8780   30.1700   44.8680 O   0  0  0  0  0  0  0  0  0  0  0  0
   58.2130   30.0400   45.0310 N   0  0  0  0  0  0  0  0  0  0  0  0
   58.3000   28.6230   45.2650 C   0  0  0  0  0  0  0  0  0  0  0  0
   58.6190   28.1050   46.5330 C   0  0  0  0  0  0  0  0  0  0  0  0
   58.6710   26.7230   46.7380 C   0  0  0  0  0  0  0  0  0  0  0  0
   58.3850   25.8420   45.6880 C   0  0  0  0  0  0  0  0  0  0  0  0
   58.4720   24.1020   45.9400 S   0  0  0  0  0  0  0  0  0  0  0  0
   59.9100   23.6650   45.9680 O   0  0  0  0  0  0  0  0  0  0  0  0
   57.8490   23.7420   47.2600 O   0  0  0  0  0  0  0  0  0  0  0  0
   57.6150   23.2900   44.6370 C   0  0  0  0  0  0  0  0  0  0  0  0
   58.0900   22.0730   44.1230 C   0  0  0  0  0  0  0  0  0  0  0  0
   57.4140   21.4450   43.0710 C   0  0  0  0  0  0  0  0  0  0  0  0
   56.2690   22.0320   42.5240 C   0  0  0  0  0  0  0  0  0  0  0  0
   55.7970   23.2480   43.0300 C   0  0  0  0  0  0  0  0  0  0  0  0
   56.4680   23.8760   44.0820 C   0  0  0  0  0  0  0  0  0  0  0  0
   58.0550   26.3530   44.4270 C   0  0  0  0  0  0  0  0  0  0  0  0
   58.0040   27.7350   44.2200 C   0  0  0  0  0  0  0  0  0  0  0  0
   59.2700   34.3790   45.6210 C   0  0  0  0  0  0  0  0  0  0  0  0
   60.4800   34.4690   46.2350 N   0  0  0  0  0  0  0  0  0  0  0  0
   64.2462   33.2996   47.7562 H   0  0  0  0  0  0  0  0  0  0  0  0
   63.2806   32.5883   46.4189 H   0  0  0  0  0  0  0  0  0  0  0  0
   63.6578   34.3446   46.4189 H   0  0  0  0  0  0  0  0  0  0  0  0
   62.1028   33.2928   49.8592 H   0  0  0  0  0  0  0  0  0  0  0  0
   63.2570   34.5922   49.4055 H   0  0  0  0  0  0  0  0  0  0  0  0
   61.4907   34.9195   49.4055 H   0  0  0  0  0  0  0  0  0  0  0  0
   60.3214   31.8071   48.3202 H   0  0  0  0  0  0  0  0  0  0  0  0
   58.0956   31.5962   47.2043 H   0  0  0  0  0  0  0  0  0  0  0  0
   56.2675   33.0752   46.0167 H   0  0  0  0  0  0  0  0  0  0  0  0
   56.8618   34.1603   44.7043 H   0  0  0  0  0  0  0  0  0  0  0  0
   59.0770   30.6140   45.1580 H   0  0  0  0  0  0  0  0  0  0  0  0
   58.8286   28.7904   47.3674 H   0  0  0  0  0  0  0  0  0  0  0  0
   58.9378   26.3260   47.7286 H   0  0  0  0  0  0  0  0  0  0  0  0
   58.9944   21.6127   44.5476 H   0  0  0  0  0  0  0  0  0  0  0  0
   57.7839   20.4882   42.6738 H   0  0  0  0  0  0  0  0  0  0  0  0
   55.7394   21.5379   41.6961 H   0  0  0  0  0  0  0  0  0  0  0  0
   54.8966   23.7100   42.5990 H   0  0  0  0  0  0  0  0  0  0  0  0
   56.0957   24.8330   44.4763 H   0  0  0  0  0  0  0  0  0  0  0  0
   57.8353   25.6655   43.5969 H   0  0  0  0  0  0  0  0  0  0  0  0
   57.7297   28.1289   43.2302 H   0  0  0  0  0  0  0  0  0  0  0  0
   58.9859   35.1196   44.8588 H   0  0  0  0  0  0  0  0  0  0  0  0
  1  2  1  0
  2  3  1  0
  2  4  1  0
  4  5  2  0
  5  6  1  0
  6  7  2  0
  7  8  1  0
  8  9  1  0
  9 10  1  0
 10 11  2  0
 10 12  1  0
 12 13  1  0
 13 14  2  0
 14 15  1  0
 15 16  2  0
 16 17  1  0
 17 18  2  0
 17 19  2  0
 17 20  1  0
 20 21  2  0
 21 22  1  0
 22 23  2  0
 23 24  1  0
 24 25  2  0
 16 26  1  0
 26 27  2  0
  7 28  1  0
 28 29  2  0
 29  4  1  0
 27 13  1  0
 25 20  1  0
  1 30  1  0
  1 31  1  0
  1 32  1  0
  3 33  1  0
  3 34  1  0
  3 35  1  0
  5 36  1  0
  6 37  1  0
  8 38  1  0
  8 39  1  0
 12 40  1  0
 14 41  1  0
 15 42  1  0
 21 43  1  0
 22 44  1  0
 23 45  1  0
 24 46  1  0
 25 47  1  0
 26 48  1  0
 27 49  1  0
 28 50  1  0
M  CHG  1   9  -1
M  END
>  <UniqueID>  (93) 
80

>  <SMILES>  (93) 
CN(C)c1ccc(C[N-]C(=O)Nc2ccc(S(=O)(=O)c3ccccc3)cc2)cn1

>  <Energy>  (93) 
54.865256890647984

>  <Genealogy>  (93) 
CN(C)c1ccc(C[N-]C(=O)Nc2ccc(S(=O)(=O)c3ccccc3)cc2)cn1 (protonated)
CN(C)c1ccc(C[N-]C(=O)Nc2ccc(S(=O)(=O)c3ccccc3)cc2)cn1 (3D coordinates assigned)
CN(C)c1ccc(C[N-]C(=O)Nc2ccc(S(=O)(=O)c3ccccc3)cc2)cn1 (optimized conformer: 54.865256890647984 kcal/mol)

>  <smiles>  (93) 
CN(C)c1ccc(CNC(=O)Nc2ccc(S(=O)(=O)c3ccccc3)cc2)cn1

>  <score_type>  (93) 
oracle

>  <origin>  (93) 
adg

>  <m_score__min__energy>  (93) 
-10.19

>  <m_primary>  (93) 
energy

$$$$
93:0
     RDKit          3D

 49 52  0  0  0  0  0  0  0  0999 V2000
   57.7250   31.6920   54.3070 O   0  0  0  0  0  0  0  0  0  0  0  0
   57.2670   31.4360   53.1610 C   0  0  0  0  0  0  0  0  0  0  0  0
   58.0150   31.8810   51.9630 C   0  0  0  0  0  0  0  0  0  0  0  0
   58.5770   33.1690   51.9060 C   0  0  0  0  0  0  0  0  0  0  0  0
   59.2710   33.5890   50.7680 C   0  0  0  0  0  0  0  0  0  0  0  0
   59.4100   32.7350   49.6610 C   0  0  0  0  0  0  0  0  0  0  0  0
   60.1290   33.1690   48.4860 N   0  0  0  0  0  0  0  0  0  0  0  0
   61.5740   33.1700   48.4840 C   0  0  0  0  0  0  0  0  0  0  0  0
   62.2880   33.8230   49.5050 C   0  0  0  0  0  0  0  0  0  0  0  0
   63.6860   33.8220   49.5000 C   0  0  0  0  0  0  0  0  0  0  0  0
   64.3830   33.1720   48.4800 C   0  0  0  0  0  0  0  0  0  0  0  0
   63.6830   32.5200   47.4600 C   0  0  0  0  0  0  0  0  0  0  0  0
   62.2860   32.5180   47.4600 C   0  0  0  0  0  0  0  0  0  0  0  0
   59.4030   33.6020   47.3150 C   0  0  0  0  0  0  0  0  0  0  0  0
   59.9700   34.5410   46.4330 C   0  0  0  0  0  0  0  0  0  0  0  0
   59.2660   34.9600   45.2990 C   0  0  0  0  0  0  0  0  0  0  0  0
   57.9940   34.4460   45.0360 C   0  0  0  0  0  0  0  0  0  0  0  0
   57.4230   33.5140   45.9050 C   0  0  0  0  0  0  0  0  0  0  0  0
   58.1220   33.0930   47.0400 C   0  0  0  0  0  0  0  0  0  0  0  0
   58.8360   31.4530   49.7130 C   0  0  0  0  0  0  0  0  0  0  0  0
   58.1420   31.0330   50.8510 C   0  0  0  0  0  0  0  0  0  0  0  0
   56.0410   30.6930   53.0420 N   0  0  0  0  0  0  0  0  0  0  0  0
   54.9370   31.2120   52.2240 C   0  0  0  0  0  0  0  0  0  0  0  0
   54.0820   30.0610   51.6430 C   0  0  0  0  0  0  0  0  0  0  0  0
   54.3990   28.7850   52.1750 O   0  0  0  0  0  0  0  0  0  0  0  0
   54.5020   28.8530   53.5800 C   0  0  0  0  0  0  0  0  0  0  0  0
   55.7950   29.5750   53.9590 C   0  0  0  0  0  0  0  0  0  0  0  0
   58.4696   33.8503   52.7629 H   0  0  0  0  0  0  0  0  0  0  0  0
   59.7120   34.5963   50.7387 H   0  0  0  0  0  0  0  0  0  0  0  0
   61.7438   34.3368   50.3111 H   0  0  0  0  0  0  0  0  0  0  0  0
   64.2380   34.3346   50.3016 H   0  0  0  0  0  0  0  0  0  0  0  0
   65.4830   33.1727   48.4786 H   0  0  0  0  0  0  0  0  0  0  0  0
   64.2330   32.0081   46.6567 H   0  0  0  0  0  0  0  0  0  0  0  0
   61.7396   32.0041   46.6554 H   0  0  0  0  0  0  0  0  0  0  0  0
   60.9717   34.9474   46.6364 H   0  0  0  0  0  0  0  0  0  0  0  0
   59.7144   35.6947   44.6140 H   0  0  0  0  0  0  0  0  0  0  0  0
   57.4417   34.7757   44.1436 H   0  0  0  0  0  0  0  0  0  0  0  0
   56.4213   33.1104   45.6960 H   0  0  0  0  0  0  0  0  0  0  0  0
   57.6670   32.3593   47.7217 H   0  0  0  0  0  0  0  0  0  0  0  0
   58.9337   30.7755   48.8519 H   0  0  0  0  0  0  0  0  0  0  0  0
   57.6915   30.0298   50.8758 H   0  0  0  0  0  0  0  0  0  0  0  0
   54.2981   31.8534   52.8489 H   0  0  0  0  0  0  0  0  0  0  0  0
   55.3630   31.7858   51.3878 H   0  0  0  0  0  0  0  0  0  0  0  0
   53.0242   30.2728   51.8577 H   0  0  0  0  0  0  0  0  0  0  0  0
   54.2936   30.0189   50.5644 H   0  0  0  0  0  0  0  0  0  0  0  0
   53.6410   29.4050   53.9850 H   0  0  0  0  0  0  0  0  0  0  0  0
   54.5129   27.8354   53.9977 H   0  0  0  0  0  0  0  0  0  0  0  0
   55.7081   29.9601   54.9857 H   0  0  0  0  0  0  0  0  0  0  0  0
   56.6335   28.8662   53.8923 H   0  0  0  0  0  0  0  0  0  0  0  0
  1  2  2  0
  2  3  1  0
  3  4  2  0
  4  5  1  0
  5  6  2  0
  6  7  1  0
  7  8  1  0
  8  9  2  0
  9 10  1  0
 10 11  2  0
 11 12  1  0
 12 13  2  0
  7 14  1  0
 14 15  2  0
 15 16  1  0
 16 17  2  0
 17 18  1  0
 18 19  2  0
  6 20  1  0
 20 21  2  0
  2 22  1  0
 22 23  1  0
 23 24  1  0
 24 25  1  0
 25 26  1  0
 26 27  1  0
 21  3  1  0
 27 22  1  0
 13  8  1  0
 19 14  1  0
  4 28  1  0
  5 29  1  0
  9 30  1  0
 10 31  1  0
 11 32  1  0
 12 33  1  0
 13 34  1  0
 15 35  1  0
 16 36  1  0
 17 37  1  0
 18 38  1  0
 19 39  1  0
 20 40  1  0
 21 41  1  0
 23 42  1  0
 23 43  1  0
 24 44  1  0
 24 45  1  0
 26 46  1  0
 26 47  1  0
 27 48  1  0
 27 49  1  0
M  END
>  <UniqueID>  (94) 
81

>  <SMILES>  (94) 
O=C(c1ccc(N(c2ccccc2)c2ccccc2)cc1)N1CCOCC1

>  <Energy>  (94) 
76.02046031145926

>  <Genealogy>  (94) 
O=C(c1ccc(N(c2ccccc2)c2ccccc2)cc1)N1CCOCC1 (3D coordinates assigned)
O=C(c1ccc(N(c2ccccc2)c2ccccc2)cc1)N1CCOCC1 (nonaromatic ring conformer: 76.02046031145926 kcal/mol)

>  <smiles>  (94) 
O=C(c1ccc(N(c2ccccc2)c2ccccc2)cc1)N1CCOCC1

>  <score_type>  (94) 
oracle

>  <origin>  (94) 
adg

>  <m_score__min__energy>  (94) 
-7.8899999999999997

>  <m_primary>  (94) 
energy

$$$$
94:0
     RDKit          3D

 43 44  0  0  0  0  0  0  0  0999 V2000
   57.7060   25.9280   44.7680 C   0  0  0  0  0  0  0  0  0  0  0  0
   56.6290   26.7590   45.9160 S   0  0  0  0  0  0  0  0  0  0  0  0
   57.4050   27.0720   47.1640 O   0  0  0  0  0  0  0  0  0  0  0  0
   55.4660   25.8770   46.2780 O   0  0  0  0  0  0  0  0  0  0  0  0
   56.0560   28.2440   45.2290 N   0  0  0  0  0  0  0  0  0  0  0  0
   56.7250   29.5120   45.2940 C   0  0  0  0  0  0  0  0  0  0  0  0
   57.7850   29.7560   46.1870 C   0  0  0  0  0  0  0  0  0  0  0  0
   58.3980   31.0120   46.2220 C   0  0  0  0  0  0  0  0  0  0  0  0
   57.9650   32.0350   45.3700 C   0  0  0  0  0  0  0  0  0  0  0  0
   58.7110   33.6280   45.4740 S   0  0  0  0  0  0  0  0  0  0  0  0
   59.6010   33.8160   44.2770 O   0  0  0  0  0  0  0  0  0  0  0  0
   57.6590   34.7020   45.4740 O   0  0  0  0  0  0  0  0  0  0  0  0
   59.6540   33.7480   46.9570 C   0  0  0  0  0  0  0  0  0  0  0  0
   59.0100   33.8920   48.1930 C   0  0  0  0  0  0  0  0  0  0  0  0
   59.7600   33.9720   49.3690 C   0  0  0  0  0  0  0  0  0  0  0  0
   61.1560   33.9190   49.3150 C   0  0  0  0  0  0  0  0  0  0  0  0
   61.8130   33.7980   48.0860 C   0  0  0  0  0  0  0  0  0  0  0  0
   63.2470   33.7380   48.0710 N   0  0  0  0  0  0  0  0  0  0  0  0
   64.0590   32.7700   48.7490 C   0  0  0  0  0  0  0  0  0  0  0  0
   63.7630   31.5440   48.7090 O   0  0  0  0  0  0  0  0  0  0  0  0
   65.2380   33.2020   49.4340 N   0  0  0  0  0  0  0  0  0  0  0  0
   66.1070   32.2540   50.1340 C   0  0  0  0  0  0  0  0  0  0  0  0
   66.9280   32.9470   51.2210 C   0  0  0  0  0  0  0  0  0  0  0  0
   68.2960   33.8440   50.5080 Cl  0  0  0  0  0  0  0  0  0  0  0  0
   61.0540   33.6830   46.9080 C   0  0  0  0  0  0  0  0  0  0  0  0
   56.9130   31.7920   44.4780 C   0  0  0  0  0  0  0  0  0  0  0  0
   56.3000   30.5370   44.4400 C   0  0  0  0  0  0  0  0  0  0  0  0
   58.4574   25.3482   45.3241 H   0  0  0  0  0  0  0  0  0  0  0  0
   57.1144   25.2500   44.1352 H   0  0  0  0  0  0  0  0  0  0  0  0
   58.2117   26.6722   44.1352 H   0  0  0  0  0  0  0  0  0  0  0  0
   58.1319   28.9570   46.8587 H   0  0  0  0  0  0  0  0  0  0  0  0
   59.2252   31.1975   46.9229 H   0  0  0  0  0  0  0  0  0  0  0  0
   57.9120   33.9421   48.2375 H   0  0  0  0  0  0  0  0  0  0  0  0
   59.2514   34.0768   50.3387 H   0  0  0  0  0  0  0  0  0  0  0  0
   61.7414   33.9728   50.2447 H   0  0  0  0  0  0  0  0  0  0  0  0
   65.4680   34.2220   49.4270 H   0  0  0  0  0  0  0  0  0  0  0  0
   65.4853   31.4740   50.5978 H   0  0  0  0  0  0  0  0  0  0  0  0
   66.8017   31.8161   49.4021 H   0  0  0  0  0  0  0  0  0  0  0  0
   66.2820   33.6496   51.7678 H   0  0  0  0  0  0  0  0  0  0  0  0
   67.3260   32.1817   51.9036 H   0  0  0  0  0  0  0  0  0  0  0  0
   61.5613   33.5412   45.9423 H   0  0  0  0  0  0  0  0  0  0  0  0
   56.5684   32.5913   43.8055 H   0  0  0  0  0  0  0  0  0  0  0  0
   55.4771   30.3528   43.7337 H   0  0  0  0  0  0  0  0  0  0  0  0
  1  2  1  0
  2  3  2  0
  2  4  2  0
  2  5  1  0
  5  6  1  0
  6  7  2  0
  7  8  1  0
  8  9  2  0
  9 10  1  0
 10 11  2  0
 10 12  2  0
 10 13  1  0
 13 14  2  0
 14 15  1  0
 15 16  2  0
 16 17  1  0
 17 18  1  0
 18 19  1  0
 19 20  2  0
 19 21  1  0
 21 22  1  0
 22 23  1  0
 23 24  1  0
 17 25  2  0
  9 26  1  0
 26 27  2  0
 27  6  1  0
 25 13  1  0
  1 28  1  0
  1 29  1  0
  1 30  1  0
  7 31  1  0
  8 32  1  0
 14 33  1  0
 15 34  1  0
 16 35  1  0
 21 36  1  0
 22 37  1  0
 22 38  1  0
 23 39  1  0
 23 40  1  0
 25 41  1  0
 26 42  1  0
 27 43  1  0
M  CHG  2   5  -1  18  -1
M  END
>  <UniqueID>  (95) 
82

>  <SMILES>  (95) 
CS(=O)(=O)[N-]c1ccc(S(=O)(=O)c2cccc([N-]C(=O)NCCCl)c2)cc1

>  <Energy>  (95) 
41.892472942691064

>  <Genealogy>  (95) 
CS(=O)(=O)[N-]c1ccc(S(=O)(=O)c2cccc([N-]C(=O)NCCCl)c2)cc1 (protonated)
CS(=O)(=O)[N-]c1ccc(S(=O)(=O)c2cccc([N-]C(=O)NCCCl)c2)cc1 (3D coordinates assigned)
CS(=O)(=O)[N-]c1ccc(S(=O)(=O)c2cccc([N-]C(=O)NCCCl)c2)cc1 (optimized conformer: 41.892472942691064 kcal/mol)

>  <smiles>  (95) 
CS(=O)(=O)Nc1ccc(S(=O)(=O)c2cccc(NC(=O)NCCCl)c2)cc1

>  <score_type>  (95) 
oracle

>  <origin>  (95) 
adg

>  <m_score__min__energy>  (95) 
-11.220000000000001

>  <m_primary>  (95) 
energy

$$$$
95:0
     RDKit          3D

 36 37  0  0  0  0  0  0  0  0999 V2000
   65.0100   32.7190   48.1690 H   0  0  0  0  0  0  0  0  0  0  0  0
   64.9070   33.0590   49.1510 N   0  0  0  0  0  0  0  0  0  0  0  0
   63.8550   33.7080   49.5440 C   0  0  0  0  0  0  0  0  0  0  0  0
   62.7070   33.8730   48.6160 C   0  0  0  0  0  0  0  0  0  0  0  0
   62.8640   33.6870   47.2310 C   0  0  0  0  0  0  0  0  0  0  0  0
   63.8504   33.4181   46.8251 H   0  0  0  0  0  0  0  0  0  0  0  0
   61.7770   33.8410   46.3660 C   0  0  0  0  0  0  0  0  0  0  0  0
   61.9131   33.6906   45.2849 H   0  0  0  0  0  0  0  0  0  0  0  0
   60.5140   34.1860   46.8680 C   0  0  0  0  0  0  0  0  0  0  0  0
   59.3350   34.3150   45.9420 C   0  0  0  0  0  0  0  0  0  0  0  0
   58.7190   35.1711   46.2545 H   0  0  0  0  0  0  0  0  0  0  0  0
   59.6989   34.4702   44.9156 H   0  0  0  0  0  0  0  0  0  0  0  0
   58.5070   33.0670   45.9850 C   0  0  0  0  0  0  0  0  0  0  0  0
   57.2500   33.1600   45.9360 O   0  0  0  0  0  0  0  0  0  0  0  0
   59.1410   31.7920   46.1710 N   0  0  0  0  0  0  0  0  0  0  0  0
   60.1390   31.7860   46.4820 H   0  0  0  0  0  0  0  0  0  0  0  0
   58.4580   30.5300   46.0780 C   0  0  0  0  0  0  0  0  0  0  0  0
   57.5150   30.2780   45.0660 C   0  0  0  0  0  0  0  0  0  0  0  0
   57.2745   31.0643   44.3354 H   0  0  0  0  0  0  0  0  0  0  0  0
   56.8810   29.0350   44.9820 C   0  0  0  0  0  0  0  0  0  0  0  0
   56.1369   28.8535   44.1924 H   0  0  0  0  0  0  0  0  0  0  0  0
   57.1880   28.0150   45.9000 C   0  0  0  0  0  0  0  0  0  0  0  0
   56.5180   26.6980   45.8160 C   0  0  0  0  0  0  0  0  0  0  0  0
   57.1860   25.6540   45.5860 O   0  0  0  0  0  0  0  0  0  0  0  0
   55.1440   26.5940   45.9920 O   0  0  0  0  0  0  0  0  0  0  0  0
   58.1460   28.2620   46.8970 C   0  0  0  0  0  0  0  0  0  0  0  0
   58.3993   27.4717   47.6190 H   0  0  0  0  0  0  0  0  0  0  0  0
   58.7800   29.5060   46.9780 C   0  0  0  0  0  0  0  0  0  0  0  0
   59.5382   29.6819   47.7553 H   0  0  0  0  0  0  0  0  0  0  0  0
   60.3460   34.3520   48.2500 C   0  0  0  0  0  0  0  0  0  0  0  0
   59.3547   34.6047   48.6542 H   0  0  0  0  0  0  0  0  0  0  0  0
   61.4320   34.1980   49.1170 C   0  0  0  0  0  0  0  0  0  0  0  0
   61.2891   34.3319   50.1994 H   0  0  0  0  0  0  0  0  0  0  0  0
   63.8130   34.2440   50.8720 N   0  0  0  0  0  0  0  0  0  0  0  0
   64.6470   34.1800   51.4970 H   0  0  0  0  0  0  0  0  0  0  0  0
   62.9340   34.6360   51.2740 H   0  0  0  0  0  0  0  0  0  0  0  0
  1  2  1  0
  2  3  2  0
  3  4  1  0
  4  5  2  0
  5  6  1  0
  5  7  1  0
  7  8  1  0
  7  9  2  0
  9 10  1  0
 10 11  1  0
 10 12  1  0
 10 13  1  0
 13 14  2  0
 13 15  1  0
 15 16  1  0
 15 17  1  0
 17 18  2  0
 18 19  1  0
 18 20  1  0
 20 21  1  0
 20 22  2  0
 22 23  1  0
 23 24  2  0
 23 25  1  0
 22 26  1  0
 26 27  1  0
 26 28  2  0
 28 29  1  0
  9 30  1  0
 30 31  1  0
 30 32  2  0
 32 33  1  0
  3 34  1  0
 34 35  1  0
 34 36  1  0
 32  4  1  0
 28 17  1  0
M  CHG  1  25  -1
M  END
>  <UniqueID>  (96) 
83

>  <SMILES>  (96) 
[H]/N=C(\N)c1ccc(CC(=O)Nc2ccc(C(=O)[O-])cc2)cc1

>  <Energy>  (96) 
39.81304643826625

>  <Genealogy>  (96) 
N=C(N)c1ccc(CC(=O)Nc2ccc(C(=O)[O-])cc2)cc1 (protonated)
[H]/N=C(\N)c1ccc(CC(=O)Nc2ccc(C(=O)[O-])cc2)cc1 (cis-trans isomerization)
[H]/N=C(\N)c1ccc(CC(=O)Nc2ccc(C(=O)[O-])cc2)cc1 (3D coordinates assigned)
[H]/N=C(\N)c1ccc(CC(=O)Nc2ccc(C(=O)[O-])cc2)cc1 (optimized conformer: 39.81304643826625 kcal/mol)

>  <smiles>  (96) 
N=C(N)c1ccc(CC(=O)Nc2ccc(C(=O)O)cc2)cc1

>  <score_type>  (96) 
oracle

>  <origin>  (96) 
adg

>  <m_score__min__energy>  (96) 
-9.2300000000000004

>  <m_primary>  (96) 
energy

$$$$
96:0
     RDKit          3D

 32 33  0  0  0  0  0  0  0  0999 V2000
   63.3860   33.9710   46.4360 N   0  0  0  0  0  0  0  0  0  0  0  0
   62.2560   33.8530   46.6570 C   0  0  0  0  0  0  0  0  0  0  0  0
   60.8510   33.7060   46.9330 C   0  0  0  0  0  0  0  0  0  0  0  0
   60.4150   33.4470   48.2380 C   0  0  0  0  0  0  0  0  0  0  0  0
   59.0520   33.3000   48.5040 C   0  0  0  0  0  0  0  0  0  0  0  0
   58.1180   33.4140   47.4710 C   0  0  0  0  0  0  0  0  0  0  0  0
   58.5430   33.6860   46.1600 C   0  0  0  0  0  0  0  0  0  0  0  0
   57.5440   33.8020   45.0390 C   0  0  0  0  0  0  0  0  0  0  0  0
   57.7470   32.7740   44.0680 O   0  0  0  0  0  0  0  0  0  0  0  0
   57.7270   31.3950   44.3310 C   0  0  0  0  0  0  0  0  0  0  0  0
   58.7830   30.7300   44.9820 C   0  0  0  0  0  0  0  0  0  0  0  0
   58.7090   29.3550   45.2260 C   0  0  0  0  0  0  0  0  0  0  0  0
   57.5770   28.6200   44.8330 C   0  0  0  0  0  0  0  0  0  0  0  0
   57.4860   27.1590   45.0720 C   0  0  0  0  0  0  0  0  0  0  0  0
   58.1630   26.3790   44.3490 O   0  0  0  0  0  0  0  0  0  0  0  0
   56.6120   26.5780   46.1090 C   0  0  0  0  0  0  0  0  0  0  0  0
   55.1970   26.7010   45.9920 N   0  0  0  0  0  0  0  0  0  0  0  0
   57.1020   26.0020   47.1170 O   0  0  0  0  0  0  0  0  0  0  0  0
   56.5360   29.2840   44.1630 C   0  0  0  0  0  0  0  0  0  0  0  0
   56.6110   30.6580   43.9200 C   0  0  0  0  0  0  0  0  0  0  0  0
   59.9160   33.8200   45.8940 C   0  0  0  0  0  0  0  0  0  0  0  0
   61.1468   33.3592   49.0546 H   0  0  0  0  0  0  0  0  0  0  0  0
   58.7126   33.0938   49.5298 H   0  0  0  0  0  0  0  0  0  0  0  0
   57.0462   33.2903   47.6851 H   0  0  0  0  0  0  0  0  0  0  0  0
   56.5280   33.7128   45.4511 H   0  0  0  0  0  0  0  0  0  0  0  0
   57.6755   34.7786   44.5502 H   0  0  0  0  0  0  0  0  0  0  0  0
   59.6714   31.2950   45.3006 H   0  0  0  0  0  0  0  0  0  0  0  0
   59.5432   28.8445   45.7295 H   0  0  0  0  0  0  0  0  0  0  0  0
   54.6250   27.0900   46.7740 H   0  0  0  0  0  0  0  0  0  0  0  0
   55.6548   28.7178   43.8270 H   0  0  0  0  0  0  0  0  0  0  0  0
   55.7846   31.1651   43.4005 H   0  0  0  0  0  0  0  0  0  0  0  0
   60.2588   34.0150   44.8671 H   0  0  0  0  0  0  0  0  0  0  0  0
  1  2  3  0
  2  3  1  0
  3  4  2  0
  4  5  1  0
  5  6  2  0
  6  7  1  0
  7  8  1  0
  8  9  1  0
  9 10  1  0
 10 11  2  0
 11 12  1  0
 12 13  2  0
 13 14  1  0
 14 15  2  0
 14 16  1  0
 16 17  1  0
 16 18  2  0
 13 19  1  0
 19 20  2  0
  7 21  2  0
 21  3  1  0
 20 10  1  0
  4 22  1  0
  5 23  1  0
  6 24  1  0
  8 25  1  0
  8 26  1  0
 11 27  1  0
 12 28  1  0
 17 29  1  0
 19 30  1  0
 20 31  1  0
 21 32  1  0
M  CHG  1  17  -1
M  END
>  <UniqueID>  (97) 
84

>  <SMILES>  (97) 
N#Cc1cccc(COc2ccc(C(=O)C([NH-])=O)cc2)c1

>  <Energy>  (97) 
34.50289045605713

>  <Genealogy>  (97) 
N#Cc1cccc(COc2ccc(C(=O)C([NH-])=O)cc2)c1 (protonated)
N#Cc1cccc(COc2ccc(C(=O)C([NH-])=O)cc2)c1 (3D coordinates assigned)
N#Cc1cccc(COc2ccc(C(=O)C([NH-])=O)cc2)c1 (optimized conformer: 34.50289045605713 kcal/mol)

>  <smiles>  (97) 
N#Cc1cccc(COc2ccc(C(=O)C(N)=O)cc2)c1

>  <score_type>  (97) 
oracle

>  <origin>  (97) 
adg

>  <m_score__min__energy>  (97) 
-10.390000000000001

>  <m_primary>  (97) 
energy

$$$$
