0:0
     RDKit          3D

 56 59  0  0  0  0  0  0  0  0999 V2000
   61.8500   30.5210   50.0550 C   0  0  0  0  0  0  0  0  0  0  0  0
   62.5600   31.5280   49.1870 C   0  0  0  0  0  0  0  0  0  0  0  0
   63.6030   32.2850   49.7490 C   0  0  0  0  0  0  0  0  0  0  0  0
   64.2700   33.2510   48.9920 C   0  0  0  0  0  0  0  0  0  0  0  0
   63.9070   33.4710   47.6630 C   0  0  0  0  0  0  0  0  0  0  0  0
   62.8880   32.7160   47.0830 C   0  0  0  0  0  0  0  0  0  0  0  0
   62.2190   31.7270   47.8240 C   0  0  0  0  0  0  0  0  0  0  0  0
   61.1780   30.9330   47.1440 C   0  0  0  0  0  0  0  0  0  0  0  0
   60.9520   29.7530   47.5300 O   0  0  0  0  0  0  0  0  0  0  0  0
   60.3970   31.5100   46.0870 N   0  0  0  0  0  0  0  0  0  0  0  0
   59.2670   30.8460   45.5070 C   0  0  0  0  0  0  0  0  0  0  0  0
   59.3200   29.4570   45.3170 C   0  0  0  0  0  0  0  0  0  0  0  0
   58.2360   28.7650   44.7490 C   0  0  0  0  0  0  0  0  0  0  0  0
   58.2970   27.2980   44.5560 C   0  0  0  0  0  0  0  0  0  0  0  0
   58.0470   26.7990   43.4250 O   0  0  0  0  0  0  0  0  0  0  0  0
   58.6500   26.4430   45.6500 N   0  0  0  0  0  0  0  0  0  0  0  0
   58.5800   24.9870   45.5950 C   0  0  0  0  0  0  0  0  0  0  0  0
   57.2350   24.5540   45.0830 C   0  0  0  0  0  0  0  0  0  0  0  0
   57.1460   23.7380   43.9430 C   0  0  0  0  0  0  0  0  0  0  0  0
   55.8980   23.3190   43.4710 C   0  0  0  0  0  0  0  0  0  0  0  0
   54.7320   23.7040   44.1360 C   0  0  0  0  0  0  0  0  0  0  0  0
   54.8120   24.5050   45.2810 C   0  0  0  0  0  0  0  0  0  0  0  0
   53.6800   24.8770   45.9270 F   0  0  0  0  0  0  0  0  0  0  0  0
   56.0580   24.9270   45.7560 C   0  0  0  0  0  0  0  0  0  0  0  0
   57.0970   29.4880   44.3580 C   0  0  0  0  0  0  0  0  0  0  0  0
   57.0540   30.8760   44.5070 C   0  0  0  0  0  0  0  0  0  0  0  0
   58.1340   31.5640   45.0710 C   0  0  0  0  0  0  0  0  0  0  0  0
   58.0520   33.3600   45.1550 S   0  0  0  0  0  0  0  0  0  0  0  0
   58.6510   33.4150   46.8430 C   0  0  0  0  0  0  0  0  0  0  0  0
   59.6150   34.3600   47.2190 C   0  0  0  0  0  0  0  0  0  0  0  0
   60.0850   34.3960   48.5350 C   0  0  0  0  0  0  0  0  0  0  0  0
   59.5870   33.4940   49.4820 C   0  0  0  0  0  0  0  0  0  0  0  0
   60.1840   33.5310   51.1300 Cl  0  0  0  0  0  0  0  0  0  0  0  0
   58.6170   32.5550   49.1100 C   0  0  0  0  0  0  0  0  0  0  0  0
   58.1480   32.5180   47.7930 C   0  0  0  0  0  0  0  0  0  0  0  0
   62.0214   30.7642   51.1140 H   0  0  0  0  0  0  0  0  0  0  0  0
   60.7711   30.5495   49.8423 H   0  0  0  0  0  0  0  0  0  0  0  0
   62.2392   29.5144   49.8423 H   0  0  0  0  0  0  0  0  0  0  0  0
   63.8967   32.1148   50.7953 H   0  0  0  0  0  0  0  0  0  0  0  0
   65.0823   33.8389   49.4442 H   0  0  0  0  0  0  0  0  0  0  0  0
   64.4250   34.2407   47.0721 H   0  0  0  0  0  0  0  0  0  0  0  0
   62.6052   32.8964   46.0354 H   0  0  0  0  0  0  0  0  0  0  0  0
   60.6880   32.4250   45.6760 H   0  0  0  0  0  0  0  0  0  0  0  0
   60.2214   28.9022   45.6163 H   0  0  0  0  0  0  0  0  0  0  0  0
   59.3642   24.6101   44.9219 H   0  0  0  0  0  0  0  0  0  0  0  0
   58.7282   24.5808   46.6064 H   0  0  0  0  0  0  0  0  0  0  0  0
   58.0620   23.4272   43.4192 H   0  0  0  0  0  0  0  0  0  0  0  0
   55.8348   22.6850   42.5743 H   0  0  0  0  0  0  0  0  0  0  0  0
   53.7510   23.3779   43.7601 H   0  0  0  0  0  0  0  0  0  0  0  0
   56.1174   25.5526   46.6588 H   0  0  0  0  0  0  0  0  0  0  0  0
   56.2330   28.9574   43.9315 H   0  0  0  0  0  0  0  0  0  0  0  0
   56.1640   31.4327   44.1784 H   0  0  0  0  0  0  0  0  0  0  0  0
   60.0024   35.0744   46.4776 H   0  0  0  0  0  0  0  0  0  0  0  0
   60.8469   35.1339   48.8264 H   0  0  0  0  0  0  0  0  0  0  0  0
   58.2239   31.8464   49.8538 H   0  0  0  0  0  0  0  0  0  0  0  0
   57.3827   31.7830   47.5031 H   0  0  0  0  0  0  0  0  0  0  0  0
  1  2  1  0
  2  3  2  0
  3  4  1  0
  4  5  2  0
  5  6  1  0
  6  7  2  0
  7  8  1  0
  8  9  2  0
  8 10  1  0
 10 11  1  0
 11 12  2  0
 12 13  1  0
 13 14  1  0
 14 15  2  0
 14 16  1  0
 16 17  1  0
 17 18  1  0
 18 19  2  0
 19 20  1  0
 20 21  2  0
 21 22  1  0
 22 23  1  0
 22 24  2  0
 13 25  2  0
 25 26  1  0
 26 27  2  0
 27 28  1  0
 28 29  1  0
 29 30  2  0
 30 31  1  0
 31 32  2  0
 32 33  1  0
 32 34  1  0
 34 35  2  0
  7  2  1  0
 27 11  1  0
 35 29  1  0
 24 18  1  0
  1 36  1  0
  1 37  1  0
  1 38  1  0
  3 39  1  0
  4 40  1  0
  5 41  1  0
  6 42  1  0
 10 43  1  0
 12 44  1  0
 17 45  1  0
 17 46  1  0
 19 47  1  0
 20 48  1  0
 21 49  1  0
 24 50  1  0
 25 51  1  0
 26 52  1  0
 30 53  1  0
 31 54  1  0
 34 55  1  0
 35 56  1  0
M  CHG  1  16  -1
M  END
>  <UniqueID>  (1) 
1

>  <SMILES>  (1) 
Cc1ccccc1C(=O)Nc1cc(C(=O)[N-]Cc2cccc(F)c2)ccc1Sc1ccc(Cl)cc1

>  <Energy>  (1) 
65.97353027177344

>  <Genealogy>  (1) 
Cc1ccccc1C(=O)Nc1cc(C(=O)[N-]Cc2cccc(F)c2)ccc1Sc1ccc(Cl)cc1 (protonated)
Cc1ccccc1C(=O)Nc1cc(C(=O)[N-]Cc2cccc(F)c2)ccc1Sc1ccc(Cl)cc1 (3D coordinates assigned)
Cc1ccccc1C(=O)Nc1cc(C(=O)[N-]Cc2cccc(F)c2)ccc1Sc1ccc(Cl)cc1 (optimized conformer: 65.97353027177344 kcal/mol)

>  <smiles>  (1) 
Cc1ccccc1C(=O)Nc1cc(C(=O)NCc2cccc(F)c2)ccc1Sc1ccc(Cl)cc1

>  <score_type>  (1) 
oracle

>  <origin>  (1) 
adg

>  <m_score__min__energy>  (1) 
-11.07

>  <m_primary>  (1) 
energy

$$$$
1:0
     RDKit          3D

 47 50  0  0  0  0  0  0  0  0999 V2000
   50.0330   34.2940   52.0200 H   0  0  0  0  0  0  0  0  0  0  0  0
   50.1870   33.3530   52.4480 N   0  0  0  0  0  0  0  0  0  0  0  0
   51.0300   32.5160   51.9370 C   0  0  0  0  0  0  0  0  0  0  0  0
   51.0290   32.1820   50.6280 N   0  0  0  0  0  0  0  0  0  0  0  0
   52.0470   31.3100   50.5260 C   0  0  0  0  0  0  0  0  0  0  0  0
   52.3631   30.8018   49.6031 H   0  0  0  0  0  0  0  0  0  0  0  0
   52.6300   31.1560   51.7640 C   0  0  0  0  0  0  0  0  0  0  0  0
   53.7810   30.2540   52.0940 C   0  0  0  0  0  0  0  0  0  0  0  0
   53.7809   29.4036   51.3963 H   0  0  0  0  0  0  0  0  0  0  0  0
   53.6632   29.9075   53.1313 H   0  0  0  0  0  0  0  0  0  0  0  0
   55.1160   30.9900   51.9810 C   0  0  0  0  0  0  0  0  0  0  0  0
   55.2067   31.7089   52.8086 H   0  0  0  0  0  0  0  0  0  0  0  0
   55.1547   31.5216   51.0188 H   0  0  0  0  0  0  0  0  0  0  0  0
   56.2200   30.0360   52.0460 N   0  0  0  0  0  0  0  0  0  0  0  0
   57.5130   30.3290   52.5890 C   0  0  0  0  0  0  0  0  0  0  0  0
   57.8150   29.8640   53.7200 O   0  0  0  0  0  0  0  0  0  0  0  0
   58.5140   31.1150   51.8520 C   0  0  0  0  0  0  0  0  0  0  0  0
   59.4960   30.4650   51.1670 N   0  0  0  0  0  0  0  0  0  0  0  0
   60.4610   31.1340   50.4770 C   0  0  0  0  0  0  0  0  0  0  0  0
   61.4920   30.3640   49.7050 C   0  0  0  0  0  0  0  0  0  0  0  0
   61.5995   29.3614   50.1446 H   0  0  0  0  0  0  0  0  0  0  0  0
   62.4494   30.9035   49.7533 H   0  0  0  0  0  0  0  0  0  0  0  0
   61.0910   30.2350   48.3030 N   0  0  0  0  0  0  0  0  0  0  0  0
   61.5680   30.8600   47.6130 H   0  0  0  0  0  0  0  0  0  0  0  0
   60.0390   29.3700   47.8340 C   0  0  0  0  0  0  0  0  0  0  0  0
   59.9750   28.0110   48.1980 C   0  0  0  0  0  0  0  0  0  0  0  0
   60.7479   27.5865   48.8556 H   0  0  0  0  0  0  0  0  0  0  0  0
   58.9390   27.1960   47.7320 C   0  0  0  0  0  0  0  0  0  0  0  0
   58.8979   26.1374   48.0280 H   0  0  0  0  0  0  0  0  0  0  0  0
   57.9510   27.7260   46.8870 C   0  0  0  0  0  0  0  0  0  0  0  0
   56.8910   26.9510   46.3870 C   0  0  0  0  0  0  0  0  0  0  0  0
   56.7830   25.7300   46.6810 O   0  0  0  0  0  0  0  0  0  0  0  0
   55.9660   27.5240   45.5740 N   0  0  0  0  0  0  0  0  0  0  0  0
   56.0420   28.8380   45.2290 C   0  0  0  0  0  0  0  0  0  0  0  0
   55.1480   29.3620   44.4560 N   0  0  0  0  0  0  0  0  0  0  0  0
   54.2960   28.8300   44.1640 H   0  0  0  0  0  0  0  0  0  0  0  0
   57.0590   29.6060   45.7000 N   0  0  0  0  0  0  0  0  0  0  0  0
   58.0120   29.0840   46.5150 C   0  0  0  0  0  0  0  0  0  0  0  0
   59.0520   29.8940   46.9840 C   0  0  0  0  0  0  0  0  0  0  0  0
   59.0968   30.9513   46.6839 H   0  0  0  0  0  0  0  0  0  0  0  0
   60.4690   32.5360   50.4780 C   0  0  0  0  0  0  0  0  0  0  0  0
   61.2420   33.0876   49.9228 H   0  0  0  0  0  0  0  0  0  0  0  0
   59.4870   33.2240   51.1900 C   0  0  0  0  0  0  0  0  0  0  0  0
   59.4865   34.3239   51.2038 H   0  0  0  0  0  0  0  0  0  0  0  0
   58.5050   32.5170   51.8850 C   0  0  0  0  0  0  0  0  0  0  0  0
   57.7313   33.0541   52.4532 H   0  0  0  0  0  0  0  0  0  0  0  0
   51.9840   31.9100   52.6710 N   0  0  0  0  0  0  0  0  0  0  0  0
  1  2  1  0
  2  3  2  3
  3  4  1  0
  4  5  1  0
  5  6  1  0
  5  7  2  0
  7  8  1  0
  8  9  1  0
  8 10  1  0
  8 11  1  0
 11 12  1  0
 11 13  1  0
 11 14  1  0
 14 15  1  0
 15 16  2  0
 15 17  1  0
 17 18  2  0
 18 19  1  0
 19 20  1  0
 20 21  1  0
 20 22  1  0
 20 23  1  0
 23 24  1  0
 23 25  1  0
 25 26  2  0
 26 27  1  0
 26 28  1  0
 28 29  1  0
 28 30  2  0
 30 31  1  0
 31 32  2  0
 31 33  1  0
 33 34  1  0
 34 35  2  0
 35 36  1  0
 34 37  1  0
 37 38  1  0
 38 39  2  0
 39 40  1  0
 19 41  2  0
 41 42  1  0
 41 43  1  0
 43 44  1  0
 43 45  2  0
 45 46  1  0
  7 47  1  0
 47  3  1  0
 45 17  1  0
 39 25  1  0
 38 30  1  0
M  CHG  5   4  -1  14  -1  33  -1  37  -1  47  -1
M  END
>  <UniqueID>  (2) 
2

>  <SMILES>  (2) 
[H]/N=c1\[n-]c(=O)c2ccc(NCc3cccc(C(=O)[N-]CCc4c[n-]c(=N)[n-]4)n3)cc2[n-]1

>  <Energy>  (2) 
82.8942700359654

>  <Genealogy>  (2) 
N=c1[n-]cc(CC[N-]C(=O)c2cccc(CNc3ccc4c(=O)[n-]c(=N)[n-]c4c3)n2)[n-]1 (protonated)
[H]/N=c1\[n-]c(=O)c2ccc(NCc3cccc(C(=O)[N-]CCc4c[n-]c(=N)[n-]4)n3)cc2[n-]1 (cis-trans isomerization)
[H]/N=c1\[n-]c(=O)c2ccc(NCc3cccc(C(=O)[N-]CCc4c[n-]c(=N)[n-]4)n3)cc2[n-]1 (3D coordinates assigned)
[H]/N=c1\[n-]c(=O)c2ccc(NCc3cccc(C(=O)[N-]CCc4c[n-]c(=N)[n-]4)n3)cc2[n-]1 (optimized conformer: 82.8942700359654 kcal/mol)

>  <smiles>  (2) 
N=c1[nH]cc(CCNC(=O)c2cccc(CNc3ccc4c(=O)[nH]c(=N)[nH]c4c3)n2)[nH]1

>  <score_type>  (2) 
oracle

>  <origin>  (2) 
adg

>  <m_score__min__energy>  (2) 
-19.289999999999999

>  <m_primary>  (2) 
energy

$$$$
2:0
     RDKit          3D

 55 58  0  0  0  0  0  0  0  0999 V2000
   57.0630   21.0170   43.0130 C   0  0  0  0  0  0  0  0  0  0  0  0
   56.1140   22.0680   43.1500 O   0  0  0  0  0  0  0  0  0  0  0  0
   56.2760   23.1760   43.9950 C   0  0  0  0  0  0  0  0  0  0  0  0
   55.4550   23.2770   45.1250 C   0  0  0  0  0  0  0  0  0  0  0  0
   55.5730   24.3670   45.9900 C   0  0  0  0  0  0  0  0  0  0  0  0
   56.5180   25.3640   45.7390 C   0  0  0  0  0  0  0  0  0  0  0  0
   57.3650   25.2690   44.6200 C   0  0  0  0  0  0  0  0  0  0  0  0
   58.3150   26.2590   44.3240 O   0  0  0  0  0  0  0  0  0  0  0  0
   58.1190   27.6410   44.4600 C   0  0  0  0  0  0  0  0  0  0  0  0
   58.7700   28.3820   45.4590 C   0  0  0  0  0  0  0  0  0  0  0  0
   58.5530   29.7560   45.5480 C   0  0  0  0  0  0  0  0  0  0  0  0
   57.6990   30.3990   44.6380 C   0  0  0  0  0  0  0  0  0  0  0  0
   57.4520   31.8570   44.7290 C   0  0  0  0  0  0  0  0  0  0  0  0
   56.2790   32.2860   44.8980 O   0  0  0  0  0  0  0  0  0  0  0  0
   58.5530   32.7760   44.6750 N   0  0  0  0  0  0  0  0  0  0  0  0
   59.2110   33.3840   45.7960 C   0  0  0  0  0  0  0  0  0  0  0  0
   58.4340   34.0550   46.7470 C   0  0  0  0  0  0  0  0  0  0  0  0
   59.0350   34.6400   47.8650 C   0  0  0  0  0  0  0  0  0  0  0  0
   60.4150   34.5430   48.0510 C   0  0  0  0  0  0  0  0  0  0  0  0
   61.2020   33.8530   47.1190 C   0  0  0  0  0  0  0  0  0  0  0  0
   62.9450   33.7070   47.3400 S   0  0  0  0  0  0  0  0  0  0  0  0
   63.3540   34.5970   48.4800 O   0  0  0  0  0  0  0  0  0  0  0  0
   63.6640   34.1490   46.0950 O   0  0  0  0  0  0  0  0  0  0  0  0
   63.3490   32.0450   47.7100 N   0  0  0  0  0  0  0  0  0  0  0  0
   63.7290   31.9090   49.1200 C   0  0  0  0  0  0  0  0  0  0  0  0
   62.4870   31.5260   49.9110 C   0  0  0  0  0  0  0  0  0  0  0  0
   61.4800   31.0490   48.8820 C   0  0  0  0  0  0  0  0  0  0  0  0
   62.1770   31.1810   47.5360 C   0  0  0  0  0  0  0  0  0  0  0  0
   60.5990   33.2690   45.9970 C   0  0  0  0  0  0  0  0  0  0  0  0
   57.0840   29.6230   43.6410 C   0  0  0  0  0  0  0  0  0  0  0  0
   57.3100   28.2820   43.5710 N   0  0  0  0  0  0  0  0  0  0  0  0
   57.2280   24.1850   43.7450 C   0  0  0  0  0  0  0  0  0  0  0  0
   57.3745   20.6720   44.0100 H   0  0  0  0  0  0  0  0  0  0  0  0
   56.6075   20.1813   42.4616 H   0  0  0  0  0  0  0  0  0  0  0  0
   57.9407   21.3851   42.4616 H   0  0  0  0  0  0  0  0  0  0  0  0
   54.7123   22.4926   45.3326 H   0  0  0  0  0  0  0  0  0  0  0  0
   54.9195   24.4404   46.8718 H   0  0  0  0  0  0  0  0  0  0  0  0
   56.6002   26.2256   46.4179 H   0  0  0  0  0  0  0  0  0  0  0  0
   59.4470   27.8815   46.1670 H   0  0  0  0  0  0  0  0  0  0  0  0
   59.0533   30.3393   46.3351 H   0  0  0  0  0  0  0  0  0  0  0  0
   57.3442   34.1224   46.6139 H   0  0  0  0  0  0  0  0  0  0  0  0
   58.4189   35.1783   48.6003 H   0  0  0  0  0  0  0  0  0  0  0  0
   60.8852   35.0085   48.9298 H   0  0  0  0  0  0  0  0  0  0  0  0
   64.4943   31.1259   49.2258 H   0  0  0  0  0  0  0  0  0  0  0  0
   64.1422   32.8567   49.4958 H   0  0  0  0  0  0  0  0  0  0  0  0
   62.7187   30.7208   50.6237 H   0  0  0  0  0  0  0  0  0  0  0  0
   62.1004   32.3726   50.4973 H   0  0  0  0  0  0  0  0  0  0  0  0
   61.2051   30.0008   49.0709 H   0  0  0  0  0  0  0  0  0  0  0  0
   60.5509   31.6367   48.9187 H   0  0  0  0  0  0  0  0  0  0  0  0
   62.4948   30.1891   47.1823 H   0  0  0  0  0  0  0  0  0  0  0  0
   61.4912   31.6157   46.7939 H   0  0  0  0  0  0  0  0  0  0  0  0
   61.2136   32.7180   45.2699 H   0  0  0  0  0  0  0  0  0  0  0  0
   56.4148   30.1025   42.9114 H   0  0  0  0  0  0  0  0  0  0  0  0
   56.8400   27.7300   42.8200 H   0  0  0  0  0  0  0  0  0  0  0  0
   57.8694   24.1199   42.8537 H   0  0  0  0  0  0  0  0  0  0  0  0
  1  2  1  0
  2  3  1  0
  3  4  2  0
  4  5  1  0
  5  6  2  0
  6  7  1  0
  7  8  1  0
  8  9  1  0
  9 10  2  0
 10 11  1  0
 11 12  2  0
 12 13  1  0
 13 14  2  0
 13 15  1  0
 15 16  1  0
 16 17  2  0
 17 18  1  0
 18 19  2  0
 19 20  1  0
 20 21  1  0
 21 22  2  0
 21 23  2  0
 21 24  1  0
 24 25  1  0
 25 26  1  0
 26 27  1  0
 27 28  1  0
 20 29  2  0
 12 30  1  0
 30 31  2  0
  7 32  2  0
 32  3  1  0
 31  9  1  0
 29 16  1  0
 28 24  1  0
  1 33  1  0
  1 34  1  0
  1 35  1  0
  4 36  1  0
  5 37  1  0
  6 38  1  0
 10 39  1  0
 11 40  1  0
 17 41  1  0
 18 42  1  0
 19 43  1  0
 25 44  1  0
 25 45  1  0
 26 46  1  0
 26 47  1  0
 27 48  1  0
 27 49  1  0
 28 50  1  0
 28 51  1  0
 29 52  1  0
 30 53  1  0
 31 54  1  0
 32 55  1  0
M  CHG  2  15  -1  31   1
M  END
>  <UniqueID>  (3) 
3

>  <SMILES>  (3) 
COc1cccc(Oc2ccc(C(=O)[N-]c3cccc(S(=O)(=O)N4CCCC4)c3)c[nH+]2)c1

>  <Energy>  (3) 
69.47061343057682

>  <Genealogy>  (3) 
COc1cccc(Oc2ccc(C(=O)[N-]c3cccc(S(=O)(=O)N4CCCC4)c3)c[nH+]2)c1 (protonated)
COc1cccc(Oc2ccc(C(=O)[N-]c3cccc(S(=O)(=O)N4CCCC4)c3)c[nH+]2)c1 (3D coordinates assigned)
COc1cccc(Oc2ccc(C(=O)[N-]c3cccc(S(=O)(=O)N4CCCC4)c3)c[nH+]2)c1 (nonaromatic ring conformer: 69.47061343057682 kcal/mol)

>  <smiles>  (3) 
COc1cccc(Oc2ccc(C(=O)Nc3cccc(S(=O)(=O)N4CCCC4)c3)cn2)c1

>  <score_type>  (3) 
oracle

>  <origin>  (3) 
adg

>  <m_score__min__energy>  (3) 
-9.4900000000000002

>  <m_primary>  (3) 
energy

$$$$
3:0
     RDKit          3D

 53 56  0  0  0  0  0  0  0  0999 V2000
   56.3330   30.8680   42.6370 O   0  0  0  0  0  0  0  0  0  0  0  0
   56.8520   30.1680   43.5460 C   0  0  0  0  0  0  0  0  0  0  0  0
   57.3800   28.8040   43.2270 C   0  0  0  0  0  0  0  0  0  0  0  0
   57.4780   28.0020   44.4450 N   0  0  0  0  0  0  0  0  0  0  0  0
   58.6830   27.9340   45.2240 C   0  0  0  0  0  0  0  0  0  0  0  0
   59.7540   28.4060   44.7540 O   0  0  0  0  0  0  0  0  0  0  0  0
   58.6950   27.2210   46.5620 C   0  0  1  0  0  0  0  0  0  0  0  0
   57.2710   26.8820   47.0780 C   0  0  0  0  0  0  0  0  0  0  0  0
   56.7230   25.6850   46.3710 C   0  0  0  0  0  0  0  0  0  0  0  0
   55.4040   25.3650   46.3520 N   0  0  0  0  0  0  0  0  0  0  0  0
   55.1830   24.1990   45.7040 C   0  0  0  0  0  0  0  0  0  0  0  0
   56.6210   23.5210   45.1440 S   0  0  0  0  0  0  0  0  0  0  0  0
   57.5560   24.7630   45.7730 C   0  0  0  0  0  0  0  0  0  0  0  0
   59.0340   24.9530   45.6250 C   0  0  0  0  0  0  0  0  0  0  0  0
   59.5430   26.0070   46.5250 N   0  0  0  0  0  0  0  0  0  0  0  0
   56.9300   30.6610   44.8890 N   0  0  0  0  0  0  0  0  0  0  0  0
   57.6120   31.8570   45.2910 C   0  0  0  0  0  0  0  0  0  0  0  0
   57.5080   32.9980   44.4860 C   0  0  0  0  0  0  0  0  0  0  0  0
   58.1220   34.1920   44.8700 C   0  0  0  0  0  0  0  0  0  0  0  0
   58.8330   34.2590   46.0700 C   0  0  0  0  0  0  0  0  0  0  0  0
   58.9290   33.1310   46.8970 C   0  0  0  0  0  0  0  0  0  0  0  0
   59.8010   33.2240   48.4260 S   0  0  0  0  0  0  0  0  0  0  0  0
   58.8880   32.8000   49.5430 O   0  0  0  0  0  0  0  0  0  0  0  0
   60.1910   34.6560   48.6730 O   0  0  0  0  0  0  0  0  0  0  0  0
   61.2430   32.2290   48.4410 N   0  0  0  0  0  0  0  0  0  0  0  0
   61.9110   32.1760   47.1290 C   0  0  0  0  0  0  0  0  0  0  0  0
   62.8180   33.3980   46.8620 C   0  0  0  0  0  0  0  0  0  0  0  0
   62.9990   34.2190   47.9990 O   0  0  0  0  0  0  0  0  0  0  0  0
   63.3480   33.4270   49.1080 C   0  0  0  0  0  0  0  0  0  0  0  0
   62.1570   32.5630   49.5520 C   0  0  0  0  0  0  0  0  0  0  0  0
   58.3060   31.9350   46.5110 C   0  0  0  0  0  0  0  0  0  0  0  0
   56.6999   28.3077   42.5191 H   0  0  0  0  0  0  0  0  0  0  0  0
   58.3807   28.9022   42.7810 H   0  0  0  0  0  0  0  0  0  0  0  0
   56.6270   27.4880   44.7670 H   0  0  0  0  0  0  0  0  0  0  0  0
   59.1353   27.9292   47.2793 H   0  0  0  0  0  0  0  0  0  0  0  0
   57.3183   26.6736   48.1570 H   0  0  0  0  0  0  0  0  0  0  0  0
   56.6111   27.7402   46.8831 H   0  0  0  0  0  0  0  0  0  0  0  0
   54.1894   23.7493   45.5603 H   0  0  0  0  0  0  0  0  0  0  0  0
   59.5405   24.0060   45.8630 H   0  0  0  0  0  0  0  0  0  0  0  0
   59.2377   25.2600   44.5885 H   0  0  0  0  0  0  0  0  0  0  0  0
   59.5980   25.6130   47.4940 H   0  0  0  0  0  0  0  0  0  0  0  0
   56.9392   32.9535   43.5455 H   0  0  0  0  0  0  0  0  0  0  0  0
   58.0455   35.0808   44.2264 H   0  0  0  0  0  0  0  0  0  0  0  0
   59.3193   35.1998   46.3673 H   0  0  0  0  0  0  0  0  0  0  0  0
   62.5277   31.2661   47.0864 H   0  0  0  0  0  0  0  0  0  0  0  0
   61.1246   32.1763   46.3598 H   0  0  0  0  0  0  0  0  0  0  0  0
   63.8031   33.0363   46.5321 H   0  0  0  0  0  0  0  0  0  0  0  0
   62.3227   34.0099   46.0937 H   0  0  0  0  0  0  0  0  0  0  0  0
   64.1879   32.7716   48.8342 H   0  0  0  0  0  0  0  0  0  0  0  0
   63.6361   34.0877   49.9390 H   0  0  0  0  0  0  0  0  0  0  0  0
   62.5434   31.6271   49.9820 H   0  0  0  0  0  0  0  0  0  0  0  0
   61.5830   33.1454   50.2877 H   0  0  0  0  0  0  0  0  0  0  0  0
   58.3608   31.0533   47.1665 H   0  0  0  0  0  0  0  0  0  0  0  0
  1  2  2  0
  2  3  1  0
  3  4  1  0
  4  5  1  0
  5  6  2  0
  5  7  1  0
  7  8  1  0
  8  9  1  0
  9 10  1  0
 10 11  2  0
 11 12  1  0
 12 13  1  0
 13 14  1  0
 14 15  1  0
  2 16  1  0
 16 17  1  0
 17 18  2  0
 18 19  1  0
 19 20  2  0
 20 21  1  0
 21 22  1  0
 22 23  2  0
 22 24  2  0
 22 25  1  0
 25 26  1  0
 26 27  1  0
 27 28  1  0
 28 29  1  0
 29 30  1  0
 21 31  2  0
 15  7  1  0
 31 17  1  0
 13  9  2  0
 30 25  1  0
  3 32  1  0
  3 33  1  0
  4 34  1  0
  7 35  1  1
  8 36  1  0
  8 37  1  0
 11 38  1  0
 14 39  1  0
 14 40  1  0
 15 41  1  0
 18 42  1  0
 19 43  1  0
 20 44  1  0
 26 45  1  0
 26 46  1  0
 27 47  1  0
 27 48  1  0
 29 49  1  0
 29 50  1  0
 30 51  1  0
 30 52  1  0
 31 53  1  0
M  CHG  1  16  -1
M  END
>  <UniqueID>  (4) 
4

>  <SMILES>  (4) 
O=C(CNC(=O)[C@H]1Cc2ncsc2CN1)[N-]c1cccc(S(=O)(=O)N2CCOCC2)c1

>  <Energy>  (4) 
95.38873653001308

>  <Genealogy>  (4) 
O=C(CNC(=O)C1Cc2ncsc2CN1)[N-]c1cccc(S(=O)(=O)N2CCOCC2)c1 (protonated)
O=C(CNC(=O)[C@H]1Cc2ncsc2CN1)[N-]c1cccc(S(=O)(=O)N2CCOCC2)c1 (chirality)
O=C(CNC(=O)[C@H]1Cc2ncsc2CN1)[N-]c1cccc(S(=O)(=O)N2CCOCC2)c1 (3D coordinates assigned)
O=C(CNC(=O)[C@H]1Cc2ncsc2CN1)[N-]c1cccc(S(=O)(=O)N2CCOCC2)c1 (nonaromatic ring conformer: 95.38873653001308 kcal/mol)

>  <smiles>  (4) 
O=C(CNC(=O)C1Cc2ncsc2CN1)Nc1cccc(S(=O)(=O)N2CCOCC2)c1

>  <score_type>  (4) 
oracle

>  <origin>  (4) 
adg

>  <m_score__min__energy>  (4) 
-11.4

>  <m_primary>  (4) 
energy

$$$$
4:0
     RDKit          3D

 52 55  0  0  0  0  0  0  0  0999 V2000
   55.7820   28.7530   44.1370 H   0  0  0  0  0  0  0  0  0  0  0  0
   55.5280   28.4890   45.0810 O   0  0  0  0  0  0  0  0  0  0  0  0
   55.9340   27.2770   45.6330 C   0  0  0  0  0  0  0  0  0  0  0  0
   55.0800   26.3080   45.9970 N   0  0  0  0  0  0  0  0  0  0  0  0
   55.9030   25.3250   46.4210 C   0  0  0  0  0  0  0  0  0  0  0  0
   55.4760   24.2210   46.8460 O   0  0  0  0  0  0  0  0  0  0  0  0
   57.2200   25.6160   46.3430 N   0  0  0  0  0  0  0  0  0  0  0  0
   57.2330   26.8720   45.8670 C   0  0  0  0  0  0  0  0  0  0  0  0
   58.4660   27.5920   45.5170 C   0  0  0  0  0  0  0  0  0  0  0  0
   59.3504   26.9838   45.2762 H   0  0  0  0  0  0  0  0  0  0  0  0
   58.6090   28.9310   45.4650 C   0  0  0  0  0  0  0  0  0  0  0  0
   58.1770   29.6870   44.3870 C   0  0  0  0  0  0  0  0  0  0  0  0
   57.7212   29.3059   43.4613 H   0  0  0  0  0  0  0  0  0  0  0  0
   58.4270   31.0080   44.6950 C   0  0  0  0  0  0  0  0  0  0  0  0
   58.1020   32.1690   43.8060 C   0  0  0  0  0  0  0  0  0  0  0  0
   57.8565   33.0459   44.4231 H   0  0  0  0  0  0  0  0  0  0  0  0
   58.9703   32.3989   43.1710 H   0  0  0  0  0  0  0  0  0  0  0  0
   57.2405   31.9147   43.1710 H   0  0  0  0  0  0  0  0  0  0  0  0
   59.0050   31.1040   45.9120 N   0  0  0  0  0  0  0  0  0  0  0  0
   59.4690   32.3220   46.5180 C   0  0  0  0  0  0  0  0  0  0  0  0
   60.8390   32.5120   46.7430 C   0  0  0  0  0  0  0  0  0  0  0  0
   61.5535   31.7306   46.4447 H   0  0  0  0  0  0  0  0  0  0  0  0
   61.3090   33.6910   47.3460 C   0  0  0  0  0  0  0  0  0  0  0  0
   62.7540   33.8750   47.6030 C   0  0  0  0  0  0  0  0  0  0  0  0
   63.5120   34.2150   46.6520 O   0  0  0  0  0  0  0  0  0  0  0  0
   63.3150   33.6540   48.9100 N   0  0  0  0  0  0  0  0  0  0  0  0
   64.6390   33.0240   49.0170 C   0  0  0  0  0  0  0  0  0  0  0  0
   64.6143   32.0532   48.5003 H   0  0  0  0  0  0  0  0  0  0  0  0
   65.3767   33.6978   48.5569 H   0  0  0  0  0  0  0  0  0  0  0  0
   65.0460   32.7980   50.4810 C   0  0  0  0  0  0  0  0  0  0  0  0
   65.8516   32.0498   50.5158 H   0  0  0  0  0  0  0  0  0  0  0  0
   65.3832   33.7594   50.8958 H   0  0  0  0  0  0  0  0  0  0  0  0
   63.8620   32.2970   51.3300 C   0  0  0  0  0  0  0  0  0  0  0  0
   64.1917   32.3143   52.3793 H   0  0  0  0  0  0  0  0  0  0  0  0
   63.5280   30.9740   50.9820 O   0  0  0  0  0  0  0  0  0  0  0  0
   64.1590   30.3670   51.4490 H   0  0  0  0  0  0  0  0  0  0  0  0
   62.6230   33.2290   51.2510 C   0  0  0  0  0  0  0  0  0  0  0  0
   61.7274   32.6058   51.1113 H   0  0  0  0  0  0  0  0  0  0  0  0
   62.5910   33.8032   52.1887 H   0  0  0  0  0  0  0  0  0  0  0  0
   62.6910   34.2470   50.1010 C   0  0  0  0  0  0  0  0  0  0  0  0
   61.6713   34.5732   49.8484 H   0  0  0  0  0  0  0  0  0  0  0  0
   63.2997   35.1036   50.4263 H   0  0  0  0  0  0  0  0  0  0  0  0
   60.3910   34.6990   47.6810 C   0  0  0  0  0  0  0  0  0  0  0  0
   60.7492   35.6377   48.1287 H   0  0  0  0  0  0  0  0  0  0  0  0
   59.0240   34.5170   47.4490 C   0  0  0  0  0  0  0  0  0  0  0  0
   58.3113   35.3099   47.7197 H   0  0  0  0  0  0  0  0  0  0  0  0
   58.5610   33.3300   46.8740 C   0  0  0  0  0  0  0  0  0  0  0  0
   57.2300   33.1560   46.6760 F   0  0  0  0  0  0  0  0  0  0  0  0
   59.1560   29.8410   46.3880 C   0  0  0  0  0  0  0  0  0  0  0  0
   59.8040   29.5570   47.5280 C   0  0  0  0  0  0  0  0  0  0  0  0
   60.1837   30.3715   48.1624 H   0  0  0  0  0  0  0  0  0  0  0  0
   59.9556   28.5097   47.8282 H   0  0  0  0  0  0  0  0  0  0  0  0
  1  2  1  0
  2  3  1  0
  3  4  1  0
  4  5  1  0
  5  6  2  0
  5  7  1  0
  7  8  1  0
  8  9  1  0
  9 10  1  0
  9 11  2  0
 11 12  1  0
 12 13  1  0
 12 14  2  0
 14 15  1  0
 15 16  1  0
 15 17  1  0
 15 18  1  0
 14 19  1  0
 19 20  1  0
 20 21  2  0
 21 22  1  0
 21 23  1  0
 23 24  1  0
 24 25  2  0
 24 26  1  0
 26 27  1  0
 27 28  1  0
 27 29  1  0
 27 30  1  0
 30 31  1  0
 30 32  1  0
 30 33  1  0
 33 34  1  0
 33 35  1  0
 35 36  1  0
 33 37  1  0
 37 38  1  0
 37 39  1  0
 37 40  1  0
 40 41  1  0
 40 42  1  0
 23 43  2  0
 43 44  1  0
 43 45  1  0
 45 46  1  0
 45 47  2  0
 47 48  1  0
 19 49  1  0
 49 50  2  0
 50 51  1  0
 50 52  1  0
  8  3  2  0
 49 11  1  0
 47 20  1  0
 40 26  1  0
M  CHG  2   4  -1   7  -1
M  END
>  <UniqueID>  (5) 
5

>  <SMILES>  (5) 
C=c1/c(=C\c2[n-]c(=O)[n-]c2O)cc(C)n1-c1cc(C(=O)N2CCC(O)CC2)ccc1F

>  <Energy>  (5) 
136.85191013478095

>  <Genealogy>  (5) 
C=c1c(=Cc2[n-]c(=O)[n-]c2O)cc(C)n1-c1cc(C(=O)N2CCC(O)CC2)ccc1F (protonated)
C=c1/c(=C\c2[n-]c(=O)[n-]c2O)cc(C)n1-c1cc(C(=O)N2CCC(O)CC2)ccc1F (cis-trans isomerization)
C=c1/c(=C\c2[n-]c(=O)[n-]c2O)cc(C)n1-c1cc(C(=O)N2CCC(O)CC2)ccc1F (3D coordinates assigned)
C=c1/c(=C\c2[n-]c(=O)[n-]c2O)cc(C)n1-c1cc(C(=O)N2CCC(O)CC2)ccc1F (nonaromatic ring conformer: 136.85191013478095 kcal/mol)

>  <smiles>  (5) 
C=c1c(=Cc2[nH]c(=O)[nH]c2O)cc(C)n1-c1cc(C(=O)N2CCC(O)CC2)ccc1F

>  <score_type>  (5) 
oracle

>  <origin>  (5) 
adg

>  <m_score__min__energy>  (5) 
-14.43

>  <m_primary>  (5) 
energy

$$$$
5:0
     RDKit          3D

 31 32  0  0  0  0  0  0  0  0999 V2000
   56.1080   30.6340   43.9940 O   0  0  0  0  0  0  0  0  0  0  0  0
   57.0140   30.9150   44.8260 C   0  0  0  0  0  0  0  0  0  0  0  0
   57.7990   32.1780   44.6690 C   0  0  0  0  0  0  0  0  0  0  0  0
   58.8110   32.2910   45.7190 N   0  0  0  0  0  0  0  0  0  0  0  0
   59.5560   33.5040   45.9050 C   0  0  0  0  0  0  0  0  0  0  0  0
   59.4500   34.4350   45.0590 O   0  0  0  0  0  0  0  0  0  0  0  0
   60.4650   33.6770   47.0640 C   0  0  0  0  0  0  0  0  0  0  0  0
   59.9670   34.0290   48.3330 C   0  0  0  0  0  0  0  0  0  0  0  0
   60.8390   34.1940   49.4140 C   0  0  0  0  0  0  0  0  0  0  0  0
   62.2140   34.0170   49.2420 C   0  0  0  0  0  0  0  0  0  0  0  0
   63.4010   34.2440   50.7210 Br  0  0  0  0  0  0  0  0  0  0  0  0
   62.7200   33.6790   47.9840 C   0  0  0  0  0  0  0  0  0  0  0  0
   61.8530   33.5130   46.9010 C   0  0  0  0  0  0  0  0  0  0  0  0
   57.3310   30.0340   45.8660 O   0  0  0  0  0  0  0  0  0  0  0  0
   58.0450   28.8160   45.6680 C   0  0  0  0  0  0  0  0  0  0  0  0
   57.1690   27.6430   45.9810 C   0  0  0  0  0  0  0  0  0  0  0  0
   57.5570   26.4880   46.6220 C   0  0  0  0  0  0  0  0  0  0  0  0
   56.5070   25.6500   46.6850 N   0  0  0  0  0  0  0  0  0  0  0  0
   55.5200   26.3360   46.0720 C   0  0  0  0  0  0  0  0  0  0  0  0
   54.3590   25.8710   45.9280 O   0  0  0  0  0  0  0  0  0  0  0  0
   55.8770   27.5550   45.6200 N   0  0  0  0  0  0  0  0  0  0  0  0
   58.2956   32.1749   43.6875 H   0  0  0  0  0  0  0  0  0  0  0  0
   57.1120   33.0336   44.7461 H   0  0  0  0  0  0  0  0  0  0  0  0
   59.0330   31.4560   46.3070 H   0  0  0  0  0  0  0  0  0  0  0  0
   58.8860   34.1751   48.4751 H   0  0  0  0  0  0  0  0  0  0  0  0
   60.4407   34.4641   50.4031 H   0  0  0  0  0  0  0  0  0  0  0  0
   63.8029   33.5434   47.8462 H   0  0  0  0  0  0  0  0  0  0  0  0
   62.2589   33.2519   45.9125 H   0  0  0  0  0  0  0  0  0  0  0  0
   58.3733   28.7542   44.6200 H   0  0  0  0  0  0  0  0  0  0  0  0
   58.9173   28.7998   46.3380 H   0  0  0  0  0  0  0  0  0  0  0  0
   58.5626   26.2837   47.0183 H   0  0  0  0  0  0  0  0  0  0  0  0
  1  2  2  0
  2  3  1  0
  3  4  1  0
  4  5  1  0
  5  6  2  0
  5  7  1  0
  7  8  2  0
  8  9  1  0
  9 10  2  0
 10 11  1  0
 10 12  1  0
 12 13  2  0
  2 14  1  0
 14 15  1  0
 15 16  1  0
 16 17  2  0
 17 18  1  0
 18 19  1  0
 19 20  2  0
 19 21  1  0
 13  7  1  0
 21 16  1  0
  3 22  1  0
  3 23  1  0
  4 24  1  0
  8 25  1  0
  9 26  1  0
 12 27  1  0
 13 28  1  0
 15 29  1  0
 15 30  1  0
 17 31  1  0
M  CHG  2  18  -1  21  -1
M  END
>  <UniqueID>  (6) 
6

>  <SMILES>  (6) 
O=C(CNC(=O)c1ccc(Br)cc1)OCc1c[n-]c(=O)[n-]1

>  <Energy>  (6) 
56.6589556087309

>  <Genealogy>  (6) 
O=C(CNC(=O)c1ccc(Br)cc1)OCc1c[n-]c(=O)[n-]1 (protonated)
O=C(CNC(=O)c1ccc(Br)cc1)OCc1c[n-]c(=O)[n-]1 (3D coordinates assigned)
O=C(CNC(=O)c1ccc(Br)cc1)OCc1c[n-]c(=O)[n-]1 (optimized conformer: 56.6589556087309 kcal/mol)

>  <smiles>  (6) 
O=C(CNC(=O)c1ccc(Br)cc1)OCc1c[nH]c(=O)[nH]1

>  <score_type>  (6) 
oracle

>  <origin>  (6) 
adg

>  <m_score__min__energy>  (6) 
-11.92

>  <m_primary>  (6) 
energy

$$$$
6:0
     RDKit          3D

 49 53  0  0  0  0  0  0  0  0999 V2000
   55.1410   27.5250   45.4530 H   0  0  0  0  0  0  0  0  0  0  0  0
   55.0280   26.7160   46.0520 O   0  0  0  0  0  0  0  0  0  0  0  0
   55.3380   25.4420   45.5880 C   0  0  0  0  0  0  0  0  0  0  0  0
   54.4960   24.3970   45.6580 N   0  0  0  0  0  0  0  0  0  0  0  0
   55.2400   23.3830   45.1690 C   0  0  0  0  0  0  0  0  0  0  0  0
   54.8020   22.2070   45.0720 O   0  0  0  0  0  0  0  0  0  0  0  0
   56.4930   23.7250   44.8010 N   0  0  0  0  0  0  0  0  0  0  0  0
   56.5420   25.0460   45.0490 C   0  0  0  0  0  0  0  0  0  0  0  0
   57.7570   25.8550   44.8640 C   0  0  0  0  0  0  0  0  0  0  0  0
   58.0405   26.1416   43.8405 H   0  0  0  0  0  0  0  0  0  0  0  0
   58.5360   26.2610   45.8740 C   0  0  0  0  0  0  0  0  0  0  0  0
   59.8220   25.7240   46.3560 C   0  0  0  0  0  0  0  0  0  0  0  0
   60.3585   24.8667   45.9233 H   0  0  0  0  0  0  0  0  0  0  0  0
   60.2200   26.4280   47.3760 N   0  0  0  0  0  0  0  0  0  0  0  0
   59.2280   27.3870   47.6260 N   0  0  0  0  0  0  0  0  0  0  0  0
   59.3630   28.6840   47.9710 C   0  0  0  0  0  0  0  0  0  0  0  0
   60.2850   29.1730   48.7480 N   0  0  0  0  0  0  0  0  0  0  0  0
   61.0520   30.3980   48.5200 C   0  0  0  0  0  0  0  0  0  0  0  0
   60.6900   31.1813   49.2023 H   0  0  0  0  0  0  0  0  0  0  0  0
   62.1151   30.1857   48.7064 H   0  0  0  0  0  0  0  0  0  0  0  0
   60.8970   30.8820   47.0740 C   0  0  0  0  0  0  0  0  0  0  0  0
   61.8926   30.9549   46.6121 H   0  0  0  0  0  0  0  0  0  0  0  0
   60.2680   30.1603   46.5323 H   0  0  0  0  0  0  0  0  0  0  0  0
   60.2290   32.2320   47.0160 C   0  0  0  0  0  0  0  0  0  0  0  0
   58.9090   32.3900   47.4710 C   0  0  0  0  0  0  0  0  0  0  0  0
   58.3689   31.5302   47.8942 H   0  0  0  0  0  0  0  0  0  0  0  0
   58.2790   33.6360   47.3880 C   0  0  0  0  0  0  0  0  0  0  0  0
   57.2479   33.7557   47.7521 H   0  0  0  0  0  0  0  0  0  0  0  0
   58.9580   34.7290   46.8430 C   0  0  0  0  0  0  0  0  0  0  0  0
   58.4617   35.7086   46.7798 H   0  0  0  0  0  0  0  0  0  0  0  0
   60.2680   34.5780   46.3780 C   0  0  0  0  0  0  0  0  0  0  0  0
   60.8009   35.4388   45.9479 H   0  0  0  0  0  0  0  0  0  0  0  0
   60.9010   33.3350   46.4590 C   0  0  0  0  0  0  0  0  0  0  0  0
   61.9291   33.2185   46.0856 H   0  0  0  0  0  0  0  0  0  0  0  0
   58.4370   29.4630   47.3580 N   0  0  0  0  0  0  0  0  0  0  0  0
   57.7700   28.5600   46.5930 C   0  0  0  0  0  0  0  0  0  0  0  0
   56.9060   28.8690   45.6700 N   0  0  0  0  0  0  0  0  0  0  0  0
   57.0890   29.8210   44.6100 C   0  0  0  0  0  0  0  0  0  0  0  0
   56.4980   29.5580   43.3650 C   0  0  0  0  0  0  0  0  0  0  0  0
   55.9295   28.6283   43.2155 H   0  0  0  0  0  0  0  0  0  0  0  0
   56.6270   30.4700   42.3130 C   0  0  0  0  0  0  0  0  0  0  0  0
   56.1718   30.2498   41.3361 H   0  0  0  0  0  0  0  0  0  0  0  0
   57.3330   31.6600   42.5010 C   0  0  0  0  0  0  0  0  0  0  0  0
   57.4419   32.3722   41.6698 H   0  0  0  0  0  0  0  0  0  0  0  0
   57.9010   31.9460   43.7450 C   0  0  0  0  0  0  0  0  0  0  0  0
   58.4488   32.8880   43.8951 H   0  0  0  0  0  0  0  0  0  0  0  0
   57.7740   31.0360   44.8000 C   0  0  0  0  0  0  0  0  0  0  0  0
   58.2111   31.2708   45.7817 H   0  0  0  0  0  0  0  0  0  0  0  0
   58.2390   27.3120   46.7770 N   0  0  0  0  0  0  0  0  0  0  0  0
  1  2  1  0
  2  3  1  0
  3  4  1  0
  4  5  1  0
  5  6  2  0
  5  7  1  0
  7  8  1  0
  8  9  1  0
  9 10  1  0
  9 11  2  0
 11 12  1  0
 12 13  1  0
 12 14  2  0
 14 15  1  0
 15 16  1  0
 16 17  2  3
 17 18  1  0
 18 19  1  0
 18 20  1  0
 18 21  1  0
 21 22  1  0
 21 23  1  0
 21 24  1  0
 24 25  2  0
 25 26  1  0
 25 27  1  0
 27 28  1  0
 27 29  2  0
 29 30  1  0
 29 31  1  0
 31 32  1  0
 31 33  2  0
 33 34  1  0
 16 35  1  0
 35 36  1  0
 36 37  2  0
 37 38  1  0
 38 39  2  0
 39 40  1  0
 39 41  1  0
 41 42  1  0
 41 43  2  0
 43 44  1  0
 43 45  1  0
 45 46  1  0
 45 47  2  0
 47 48  1  0
 36 49  1  0
  8  3  2  0
 49 11  1  0
 49 15  1  0
 33 24  1  0
 47 38  1  0
M  CHG  3   4  -1   7  -1  35  -1
M  END
>  <UniqueID>  (7) 
7

>  <SMILES>  (7) 
O=c1[n-]c(O)c(/C=C2\C=Nn3c(=NCCc4ccccc4)[n-]/c(=N\c4ccccc4)n32)[n-]1

>  <Energy>  (7) 
187.5049197080681

>  <Genealogy>  (7) 
O=c1[n-]c(O)c(C=C2C=Nn3c(=NCCc4ccccc4)[n-]c(=Nc4ccccc4)n32)[n-]1 (protonated)
O=c1[n-]c(O)c(/C=C2\C=Nn3c(=NCCc4ccccc4)[n-]/c(=N\c4ccccc4)n32)[n-]1 (cis-trans isomerization)
O=c1[n-]c(O)c(/C=C2\C=Nn3c(=NCCc4ccccc4)[n-]/c(=N\c4ccccc4)n32)[n-]1 (3D coordinates assigned)
O=c1[n-]c(O)c(/C=C2\C=Nn3c(=NCCc4ccccc4)[n-]/c(=N\c4ccccc4)n32)[n-]1 (nonaromatic ring conformer: 187.5049197080681 kcal/mol)

>  <smiles>  (7) 
O=c1[nH]c(O)c(C=C2C=Nn3c(=NCCc4ccccc4)[nH]c(=Nc4ccccc4)n32)[nH]1

>  <score_type>  (7) 
oracle

>  <origin>  (7) 
adg

>  <m_score__min__energy>  (7) 
-15.34

>  <m_primary>  (7) 
energy

$$$$
7:0
     RDKit          3D

 55 58  0  0  0  0  0  0  0  0999 V2000
   55.9120   31.0850   44.5480 O   0  0  0  0  0  0  0  0  0  0  0  0
   57.1510   30.8550   44.4810 C   0  0  0  0  0  0  0  0  0  0  0  0
   58.0340   31.9080   44.0830 N   0  0  0  0  0  0  0  0  0  0  0  0
   58.5430   32.9080   44.9790 C   0  0  0  0  0  0  0  0  0  0  0  0
   58.7490   34.2060   44.4970 C   0  0  0  0  0  0  0  0  0  0  0  0
   59.2750   35.1930   45.3350 C   0  0  0  0  0  0  0  0  0  0  0  0
   59.6190   34.8880   46.6520 C   0  0  0  0  0  0  0  0  0  0  0  0
   59.4270   33.5910   47.1460 C   0  0  0  0  0  0  0  0  0  0  0  0
   59.9010   33.1950   48.8000 S   0  0  0  0  0  0  0  0  0  0  0  0
   59.6900   34.3900   49.6860 O   0  0  0  0  0  0  0  0  0  0  0  0
   59.0420   32.0630   49.2910 O   0  0  0  0  0  0  0  0  0  0  0  0
   61.5800   32.7180   48.8530 N   0  0  0  0  0  0  0  0  0  0  0  0
   61.9130   31.7530   47.7980 C   0  0  0  0  0  0  0  0  0  0  0  0
   63.3620   32.0080   47.3920 C   0  0  0  0  0  0  0  0  0  0  0  0
   63.7640   33.2980   48.0910 C   0  0  0  0  0  0  0  0  0  0  0  0
   62.4700   33.8620   48.6490 C   0  0  0  0  0  0  0  0  0  0  0  0
   58.8830   32.6010   46.3090 C   0  0  0  0  0  0  0  0  0  0  0  0
   57.6820   29.5130   44.8090 C   0  0  0  0  0  0  0  0  0  0  0  0
   59.0700   29.2930   44.8670 C   0  0  0  0  0  0  0  0  0  0  0  0
   59.5700   28.0340   45.2060 C   0  0  0  0  0  0  0  0  0  0  0  0
   58.6950   26.9810   45.4790 C   0  0  0  0  0  0  0  0  0  0  0  0
   57.3060   27.1810   45.4320 C   0  0  0  0  0  0  0  0  0  0  0  0
   56.3890   26.0460   45.6670 C   0  0  0  0  0  0  0  0  0  0  0  0
   55.3420   26.2390   46.3410 O   0  0  0  0  0  0  0  0  0  0  0  0
   56.6720   24.7270   45.1660 N   0  0  0  0  0  0  0  0  0  0  0  0
   57.2740   24.4680   43.8670 C   0  0  0  0  0  0  0  0  0  0  0  0
   57.3700   22.9510   43.7540 C   0  0  0  0  0  0  0  0  0  0  0  0
   56.4240   22.3890   44.8170 C   0  0  0  0  0  0  0  0  0  0  0  0
   56.1660   23.5220   45.8030 C   0  0  0  0  0  0  0  0  0  0  0  0
   56.8050   28.4470   45.0850 C   0  0  0  0  0  0  0  0  0  0  0  0
   58.4959   34.4500   43.4547 H   0  0  0  0  0  0  0  0  0  0  0  0
   59.4184   36.2150   44.9543 H   0  0  0  0  0  0  0  0  0  0  0  0
   60.0416   35.6669   47.3037 H   0  0  0  0  0  0  0  0  0  0  0  0
   61.7830   32.2940   49.7900 H   0  0  0  0  0  0  0  0  0  0  0  0
   61.8035   30.7266   48.1782 H   0  0  0  0  0  0  0  0  0  0  0  0
   61.2401   31.8704   46.9358 H   0  0  0  0  0  0  0  0  0  0  0  0
   64.0042   31.1775   47.7204 H   0  0  0  0  0  0  0  0  0  0  0  0
   63.4700   32.0870   46.3002 H   0  0  0  0  0  0  0  0  0  0  0  0
   64.4776   33.0919   48.9024 H   0  0  0  0  0  0  0  0  0  0  0  0
   64.2602   34.0016   47.4064 H   0  0  0  0  0  0  0  0  0  0  0  0
   62.6579   34.3740   49.6043 H   0  0  0  0  0  0  0  0  0  0  0  0
   62.0253   34.5984   47.9635 H   0  0  0  0  0  0  0  0  0  0  0  0
   58.7228   31.5836   46.6952 H   0  0  0  0  0  0  0  0  0  0  0  0
   59.7647   30.1163   44.6443 H   0  0  0  0  0  0  0  0  0  0  0  0
   60.6567   27.8714   45.2581 H   0  0  0  0  0  0  0  0  0  0  0  0
   59.0961   25.9886   45.7325 H   0  0  0  0  0  0  0  0  0  0  0  0
   56.6419   24.8735   43.0633 H   0  0  0  0  0  0  0  0  0  0  0  0
   58.2602   24.9461   43.7732 H   0  0  0  0  0  0  0  0  0  0  0  0
   57.0579   22.6217   42.7519 H   0  0  0  0  0  0  0  0  0  0  0  0
   58.4013   22.5998   43.9058 H   0  0  0  0  0  0  0  0  0  0  0  0
   55.4803   22.0650   44.3539 H   0  0  0  0  0  0  0  0  0  0  0  0
   56.8623   21.5141   45.3195 H   0  0  0  0  0  0  0  0  0  0  0  0
   55.0885   23.6180   46.0022 H   0  0  0  0  0  0  0  0  0  0  0  0
   56.6597   23.3376   46.7685 H   0  0  0  0  0  0  0  0  0  0  0  0
   55.7181   28.6065   45.0285 H   0  0  0  0  0  0  0  0  0  0  0  0
  1  2  2  0
  2  3  1  0
  3  4  1  0
  4  5  2  0
  5  6  1  0
  6  7  2  0
  7  8  1  0
  8  9  1  0
  9 10  2  0
  9 11  2  0
  9 12  1  0
 12 13  1  0
 13 14  1  0
 14 15  1  0
 15 16  1  0
  8 17  2  0
  2 18  1  0
 18 19  2  0
 19 20  1  0
 20 21  2  0
 21 22  1  0
 22 23  1  0
 23 24  2  0
 23 25  1  0
 25 26  1  0
 26 27  1  0
 27 28  1  0
 28 29  1  0
 22 30  2  0
 17  4  1  0
 30 18  1  0
 16 12  1  0
 29 25  1  0
  5 31  1  0
  6 32  1  0
  7 33  1  0
 12 34  1  0
 13 35  1  0
 13 36  1  0
 14 37  1  0
 14 38  1  0
 15 39  1  0
 15 40  1  0
 16 41  1  0
 16 42  1  0
 17 43  1  0
 19 44  1  0
 20 45  1  0
 21 46  1  0
 26 47  1  0
 26 48  1  0
 27 49  1  0
 27 50  1  0
 28 51  1  0
 28 52  1  0
 29 53  1  0
 29 54  1  0
 30 55  1  0
M  CHG  2   3  -1  12   1
M  END
>  <UniqueID>  (8) 
8

>  <SMILES>  (8) 
O=C([N-]c1cccc(S(=O)(=O)[NH+]2CCCC2)c1)c1cccc(C(=O)N2CCCC2)c1

>  <Energy>  (8) 
71.93756020423866

>  <Genealogy>  (8) 
O=C([N-]c1cccc(S(=O)(=O)[NH+]2CCCC2)c1)c1cccc(C(=O)N2CCCC2)c1 (protonated)
O=C([N-]c1cccc(S(=O)(=O)[NH+]2CCCC2)c1)c1cccc(C(=O)N2CCCC2)c1 (3D coordinates assigned)
O=C([N-]c1cccc(S(=O)(=O)[NH+]2CCCC2)c1)c1cccc(C(=O)N2CCCC2)c1 (nonaromatic ring conformer: 71.93756020423866 kcal/mol)

>  <smiles>  (8) 
O=C(Nc1cccc(S(=O)(=O)N2CCCC2)c1)c1cccc(C(=O)N2CCCC2)c1

>  <score_type>  (8) 
oracle

>  <origin>  (8) 
adg

>  <m_score__min__energy>  (8) 
-10.6

>  <m_primary>  (8) 
energy

$$$$
8:0
     RDKit          3D

 42 44  0  0  0  0  0  0  0  0999 V2000
   58.8221   34.0271   48.3010 H   0  0  0  0  0  0  0  0  0  0  0  0
   59.2900   33.1850   48.8320 C   0  0  0  0  0  0  0  0  0  0  0  0
   60.1270   32.4000   48.1370 C   0  0  0  0  0  0  0  0  0  0  0  0
   61.4840   33.0900   47.2170 S   0  0  0  0  0  0  0  0  0  0  0  0
   62.1500   31.4240   47.2040 C   0  0  0  0  0  0  0  0  0  0  0  0
   63.3510   31.2320   47.0960 O   0  0  0  0  0  0  0  0  0  0  0  0
   61.2340   30.3310   47.4020 N   0  0  2  0  0  0  0  0  0  0  0  0
   61.6620   29.6280   48.0510 H   0  0  0  0  0  0  0  0  0  0  0  0
   60.8890   29.7340   46.0960 C   0  0  0  0  0  0  0  0  0  0  0  0
   60.6696   30.5417   45.3822 H   0  0  0  0  0  0  0  0  0  0  0  0
   61.7447   29.1303   45.7594 H   0  0  0  0  0  0  0  0  0  0  0  0
   59.6840   28.8270   46.1940 C   0  0  0  0  0  0  0  0  0  0  0  0
   58.5130   29.1170   45.4760 C   0  0  0  0  0  0  0  0  0  0  0  0
   58.4761   30.0027   44.8247 H   0  0  0  0  0  0  0  0  0  0  0  0
   57.3940   28.2870   45.5840 C   0  0  0  0  0  0  0  0  0  0  0  0
   56.4819   28.5232   45.0163 H   0  0  0  0  0  0  0  0  0  0  0  0
   57.4260   27.1510   46.4140 C   0  0  0  0  0  0  0  0  0  0  0  0
   56.2430   26.2710   46.5320 C   0  0  0  0  0  0  0  0  0  0  0  0
   56.3260   25.1600   47.1200 O   0  0  0  0  0  0  0  0  0  0  0  0
   55.0200   26.6600   45.9950 O   0  0  0  0  0  0  0  0  0  0  0  0
   58.6000   26.8650   47.1310 C   0  0  0  0  0  0  0  0  0  0  0  0
   58.6393   25.9804   47.7837 H   0  0  0  0  0  0  0  0  0  0  0  0
   59.7180   27.6960   47.0210 C   0  0  0  0  0  0  0  0  0  0  0  0
   60.6312   27.4608   47.5874 H   0  0  0  0  0  0  0  0  0  0  0  0
   60.0950   30.9350   48.0330 C   0  0  0  0  0  0  0  0  0  0  0  0
   59.1370   30.2380   48.4630 O   0  0  0  0  0  0  0  0  0  0  0  0
   58.9510   33.0020   50.2560 C   0  0  0  0  0  0  0  0  0  0  0  0
   59.2810   33.9810   51.2060 C   0  0  0  0  0  0  0  0  0  0  0  0
   59.8317   34.8818   50.8973 H   0  0  0  0  0  0  0  0  0  0  0  0
   58.9120   33.8140   52.5410 C   0  0  0  0  0  0  0  0  0  0  0  0
   59.1864   34.5767   53.2846 H   0  0  0  0  0  0  0  0  0  0  0  0
   58.1960   32.6830   52.9370 C   0  0  0  0  0  0  0  0  0  0  0  0
   57.9174   32.5567   53.9936 H   0  0  0  0  0  0  0  0  0  0  0  0
   57.8270   31.7020   51.9960 C   0  0  0  0  0  0  0  0  0  0  0  0
   57.0520   30.5080   52.4300 C   0  0  0  0  0  0  0  0  0  0  0  0
   57.0200   29.4830   51.6970 O   0  0  0  0  0  0  0  0  0  0  0  0
   56.2970   30.4810   53.7260 C   0  0  0  0  0  0  0  0  0  0  0  0
   57.0079   30.5064   54.5651 H   0  0  0  0  0  0  0  0  0  0  0  0
   55.6327   31.3560   53.7816 H   0  0  0  0  0  0  0  0  0  0  0  0
   55.6969   29.5608   53.7816 H   0  0  0  0  0  0  0  0  0  0  0  0
   58.2040   31.8820   50.6490 C   0  0  0  0  0  0  0  0  0  0  0  0
   57.9086   31.1349   49.8976 H   0  0  0  0  0  0  0  0  0  0  0  0
  1  2  1  0
  2  3  2  0
  3  4  1  0
  4  5  1  0
  5  6  2  0
  5  7  1  0
  7  8  1  1
  7  9  1  0
  9 10  1  0
  9 11  1  0
  9 12  1  0
 12 13  2  0
 13 14  1  0
 13 15  1  0
 15 16  1  0
 15 17  2  0
 17 18  1  0
 18 19  2  0
 18 20  1  0
 17 21  1  0
 21 22  1  0
 21 23  2  0
 23 24  1  0
  7 25  1  0
 25 26  2  0
  2 27  1  0
 27 28  2  0
 28 29  1  0
 28 30  1  0
 30 31  1  0
 30 32  2  0
 32 33  1  0
 32 34  1  0
 34 35  1  0
 35 36  2  0
 35 37  1  0
 37 38  1  0
 37 39  1  0
 37 40  1  0
 34 41  2  0
 41 42  1  0
 25  3  1  0
 41 27  1  0
 23 12  1  0
M  CHG  2   7   1  20  -1
M  END
>  <UniqueID>  (9) 
9

>  <SMILES>  (9) 
CC(=O)c1cccc(/C=C2/SC(=O)[N@H+](Cc3ccc(C(=O)[O-])cc3)C2=O)c1

>  <Energy>  (9) 
69.55317130485473

>  <Genealogy>  (9) 
CC(=O)c1cccc(C=C2SC(=O)[NH+](Cc3ccc(C(=O)[O-])cc3)C2=O)c1 (protonated)
CC(=O)c1cccc(C=C2SC(=O)[N@H+](Cc3ccc(C(=O)[O-])cc3)C2=O)c1 (chirality)
CC(=O)c1cccc(/C=C2/SC(=O)[N@H+](Cc3ccc(C(=O)[O-])cc3)C2=O)c1 (cis-trans isomerization)
CC(=O)c1cccc(/C=C2/SC(=O)[N@H+](Cc3ccc(C(=O)[O-])cc3)C2=O)c1 (3D coordinates assigned)
CC(=O)c1cccc(/C=C2/SC(=O)[N@H+](Cc3ccc(C(=O)[O-])cc3)C2=O)c1 (nonaromatic ring conformer: 69.55317130485473 kcal/mol)

>  <smiles>  (9) 
CC(=O)c1cccc(C=C2SC(=O)N(Cc3ccc(C(=O)O)cc3)C2=O)c1

>  <score_type>  (9) 
oracle

>  <origin>  (9) 
adg

>  <m_score__min__energy>  (9) 
-10.19

>  <m_primary>  (9) 
energy

$$$$
9:0
     RDKit          3D

 42 44  0  0  0  0  0  0  0  0999 V2000
   57.5820   31.4150   43.2060 C   0  0  0  0  0  0  0  0  0  0  0  0
   56.9520   30.3820   44.0800 C   0  0  0  0  0  0  0  0  0  0  0  0
   55.6660   30.4140   44.4840 N   0  0  0  0  0  0  0  0  0  0  0  0
   55.4150   29.3150   45.1830 N   0  0  0  0  0  0  0  0  0  0  0  0
   56.5370   28.5690   45.2280 C   0  0  0  0  0  0  0  0  0  0  0  0
   56.6370   27.2320   45.8830 C   0  0  0  0  0  0  0  0  0  0  0  0
   57.5230   29.2090   44.5180 C   0  0  0  0  0  0  0  0  0  0  0  0
   58.8590   28.7610   44.3060 N   0  0  0  0  0  0  0  0  0  0  0  0
   60.1570   29.2850   45.3230 S   0  0  0  0  0  0  0  0  0  0  0  0
   60.0050   30.7490   45.6240 O   0  0  0  0  0  0  0  0  0  0  0  0
   61.4530   29.0970   44.5850 O   0  0  0  0  0  0  0  0  0  0  0  0
   60.2030   28.3110   46.7940 C   0  0  0  0  0  0  0  0  0  0  0  0
   60.6080   26.9690   46.7520 C   0  0  0  0  0  0  0  0  0  0  0  0
   60.7030   26.3670   47.9980 C   0  0  0  0  0  0  0  0  0  0  0  0
   60.2880   27.5060   49.1600 S   0  0  0  0  0  0  0  0  0  0  0  0
   59.9660   28.7680   48.0960 C   0  0  0  0  0  0  0  0  0  0  0  0
   59.5100   30.0950   48.5340 C   0  0  0  0  0  0  0  0  0  0  0  0
   59.8540   30.5170   49.6700 O   0  0  0  0  0  0  0  0  0  0  0  0
   58.6280   30.8700   47.7150 N   0  0  0  0  0  0  0  0  0  0  0  0
   58.2100   32.2170   48.1000 C   0  0  0  0  0  0  0  0  0  0  0  0
   58.5140   33.1970   46.9980 C   0  0  0  0  0  0  0  0  0  0  0  0
   57.6280   33.3390   45.9180 C   0  0  0  0  0  0  0  0  0  0  0  0
   57.9250   34.2220   44.8760 C   0  0  0  0  0  0  0  0  0  0  0  0
   59.1080   34.9620   44.9000 C   0  0  0  0  0  0  0  0  0  0  0  0
   60.0010   34.8160   45.9640 C   0  0  0  0  0  0  0  0  0  0  0  0
   59.7100   33.9320   47.0090 C   0  0  0  0  0  0  0  0  0  0  0  0
   58.0530   32.1872   43.8320 H   0  0  0  0  0  0  0  0  0  0  0  0
   58.3455   30.9419   42.5709 H   0  0  0  0  0  0  0  0  0  0  0  0
   56.8119   31.8772   42.5709 H   0  0  0  0  0  0  0  0  0  0  0  0
   56.6276   27.3574   46.9758 H   0  0  0  0  0  0  0  0  0  0  0  0
   55.7829   26.6095   45.5780 H   0  0  0  0  0  0  0  0  0  0  0  0
   57.5742   26.7435   45.5780 H   0  0  0  0  0  0  0  0  0  0  0  0
   60.8307   26.4403   45.8135 H   0  0  0  0  0  0  0  0  0  0  0  0
   60.9986   25.3252   48.1912 H   0  0  0  0  0  0  0  0  0  0  0  0
   58.2510   30.4410   46.8420 H   0  0  0  0  0  0  0  0  0  0  0  0
   57.1278   32.2180   48.2973 H   0  0  0  0  0  0  0  0  0  0  0  0
   58.7599   32.5160   49.0046 H   0  0  0  0  0  0  0  0  0  0  0  0
   56.6972   32.7535   45.8919 H   0  0  0  0  0  0  0  0  0  0  0  0
   57.2247   34.3339   44.0351 H   0  0  0  0  0  0  0  0  0  0  0  0
   59.3371   35.6600   44.0813 H   0  0  0  0  0  0  0  0  0  0  0  0
   60.9349   35.3971   45.9805 H   0  0  0  0  0  0  0  0  0  0  0  0
   60.4199   33.8128   47.8408 H   0  0  0  0  0  0  0  0  0  0  0  0
  1  2  1  0
  2  3  2  0
  3  4  1  0
  4  5  1  0
  5  6  1  0
  5  7  2  0
  7  8  1  0
  8  9  1  0
  9 10  2  0
  9 11  2  0
  9 12  1  0
 12 13  1  0
 13 14  2  0
 14 15  1  0
 15 16  1  0
 16 17  1  0
 17 18  2  0
 17 19  1  0
 19 20  1  0
 20 21  1  0
 21 22  2  0
 22 23  1  0
 23 24  2  0
 24 25  1  0
 25 26  2  0
  7  2  1  0
 16 12  2  0
 26 21  1  0
  1 27  1  0
  1 28  1  0
  1 29  1  0
  6 30  1  0
  6 31  1  0
  6 32  1  0
 13 33  1  0
 14 34  1  0
 19 35  1  0
 20 36  1  0
 20 37  1  0
 22 38  1  0
 23 39  1  0
 24 40  1  0
 25 41  1  0
 26 42  1  0
M  CHG  2   4  -1   8  -1
M  END
>  <UniqueID>  (10) 
10

>  <SMILES>  (10) 
Cc1n[n-]c(C)c1[N-]S(=O)(=O)c1ccsc1C(=O)NCc1ccccc1

>  <Energy>  (10) 
105.9629592999191

>  <Genealogy>  (10) 
Cc1n[n-]c(C)c1[N-]S(=O)(=O)c1ccsc1C(=O)NCc1ccccc1 (protonated)
Cc1n[n-]c(C)c1[N-]S(=O)(=O)c1ccsc1C(=O)NCc1ccccc1 (3D coordinates assigned)
Cc1n[n-]c(C)c1[N-]S(=O)(=O)c1ccsc1C(=O)NCc1ccccc1 (optimized conformer: 105.9629592999191 kcal/mol)

>  <smiles>  (10) 
Cc1n[nH]c(C)c1NS(=O)(=O)c1ccsc1C(=O)NCc1ccccc1

>  <score_type>  (10) 
oracle

>  <origin>  (10) 
adg

>  <m_score__min__energy>  (10) 
-11.01

>  <m_primary>  (10) 
energy

$$$$
10:0
     RDKit          3D

 59 61  0  0  0  0  0  0  0  0999 V2000
   59.0330   34.9860   50.7560 H   0  0  0  0  0  0  0  0  0  0  0  0
   59.5970   34.6000   50.0110 O   0  0  0  0  0  0  0  0  0  0  0  0
   59.8300   33.2320   49.8520 C   0  0  0  0  0  0  0  0  0  0  0  0
   58.7510   32.3580   50.0030 C   0  0  0  0  0  0  0  0  0  0  0  0
   57.7588   32.7589   50.2576 H   0  0  0  0  0  0  0  0  0  0  0  0
   58.9160   30.9830   49.8350 C   0  0  0  0  0  0  0  0  0  0  0  0
   58.0539   30.3105   49.9556 H   0  0  0  0  0  0  0  0  0  0  0  0
   60.1750   30.4520   49.5130 C   0  0  0  0  0  0  0  0  0  0  0  0
   60.3790   28.9960   49.3120 C   0  0  0  0  0  0  0  0  0  0  0  0
   60.2510   28.2270   50.3030 O   0  0  0  0  0  0  0  0  0  0  0  0
   60.7530   28.4370   47.9870 C   0  0  0  0  0  0  0  0  0  0  0  0
   61.4721   29.0070   47.3804 H   0  0  0  0  0  0  0  0  0  0  0  0
   60.2810   27.2900   47.4730 C   0  0  0  0  0  0  0  0  0  0  0  0
   60.9922   26.4595   47.3527 H   0  0  0  0  0  0  0  0  0  0  0  0
   58.8840   27.0530   47.0560 C   0  0  0  0  0  0  0  0  0  0  0  0
   58.2510   25.8620   47.4230 C   0  0  0  0  0  0  0  0  0  0  0  0
   58.7873   25.1256   48.0395 H   0  0  0  0  0  0  0  0  0  0  0  0
   56.9420   25.6010   47.0120 C   0  0  0  0  0  0  0  0  0  0  0  0
   56.4458   24.6702   47.3243 H   0  0  0  0  0  0  0  0  0  0  0  0
   56.2540   26.5230   46.2000 C   0  0  0  0  0  0  0  0  0  0  0  0
   54.9370   26.2990   45.7690 O   0  0  0  0  0  0  0  0  0  0  0  0
   54.3480   25.0110   45.6110 C   0  0  0  0  0  0  0  0  0  0  0  0
   54.1486   24.5750   46.6010 H   0  0  0  0  0  0  0  0  0  0  0  0
   53.4036   25.1054   45.0550 H   0  0  0  0  0  0  0  0  0  0  0  0
   55.0372   24.3584   45.0550 H   0  0  0  0  0  0  0  0  0  0  0  0
   56.8960   27.7050   45.7970 C   0  0  0  0  0  0  0  0  0  0  0  0
   56.1910   28.5960   44.9720 O   0  0  0  0  0  0  0  0  0  0  0  0
   56.6320   29.0310   43.6890 C   0  0  0  0  0  0  0  0  0  0  0  0
   57.6296   28.6162   43.4824 H   0  0  0  0  0  0  0  0  0  0  0  0
   55.9282   28.6838   42.9182 H   0  0  0  0  0  0  0  0  0  0  0  0
   56.6980   30.5210   43.6740 C   0  0  0  0  0  0  0  0  0  0  0  0
   56.6940   31.1330   42.5710 O   0  0  0  0  0  0  0  0  0  0  0  0
   56.8200   31.2260   44.9210 N   0  0  0  0  0  0  0  0  0  0  0  0
   57.8730   31.8460   45.3680 C   0  0  0  0  0  0  0  0  0  0  0  0
   58.0520   33.1830   45.1630 N   0  0  0  0  0  0  0  0  0  0  0  0
   59.1380   33.8510   45.6410 C   0  0  0  0  0  0  0  0  0  0  0  0
   59.2930   35.3110   45.3620 C   0  0  0  0  0  0  0  0  0  0  0  0
   59.3515   35.8617   46.3124 H   0  0  0  0  0  0  0  0  0  0  0  0
   60.2139   35.4781   44.7841 H   0  0  0  0  0  0  0  0  0  0  0  0
   58.4277   35.6678   44.7841 H   0  0  0  0  0  0  0  0  0  0  0  0
   60.1230   33.1530   46.3510 C   0  0  0  0  0  0  0  0  0  0  0  0
   61.0118   33.6787   46.7300 H   0  0  0  0  0  0  0  0  0  0  0  0
   59.9660   31.7840   46.5730 C   0  0  0  0  0  0  0  0  0  0  0  0
   60.7308   31.2254   47.1324 H   0  0  0  0  0  0  0  0  0  0  0  0
   58.8370   31.1250   46.0840 C   0  0  0  0  0  0  0  0  0  0  0  0
   58.7052   30.0471   46.2597 H   0  0  0  0  0  0  0  0  0  0  0  0
   58.2140   27.9620   46.2220 C   0  0  0  0  0  0  0  0  0  0  0  0
   58.7223   28.8821   45.8979 H   0  0  0  0  0  0  0  0  0  0  0  0
   61.2610   31.3300   49.3530 C   0  0  0  0  0  0  0  0  0  0  0  0
   62.2468   30.9261   49.0791 H   0  0  0  0  0  0  0  0  0  0  0  0
   61.1090   32.7150   49.5370 C   0  0  0  0  0  0  0  0  0  0  0  0
   62.3070   33.6160   49.3600 C   0  0  0  0  0  0  0  0  0  0  0  0
   62.8095   33.7417   50.3304 H   0  0  0  0  0  0  0  0  0  0  0  0
   61.9620   34.5877   48.9769 H   0  0  0  0  0  0  0  0  0  0  0  0
   63.2800   33.0290   48.3740 C   0  0  0  0  0  0  0  0  0  0  0  0
   63.9082   32.1770   48.6731 H   0  0  0  0  0  0  0  0  0  0  0  0
   63.3910   33.5280   47.1420 C   0  0  0  0  0  0  0  0  0  0  0  0
   64.1072   33.0876   46.4327 H   0  0  0  0  0  0  0  0  0  0  0  0
   62.7663   34.3799   46.8353 H   0  0  0  0  0  0  0  0  0  0  0  0
  1  2  1  0
  2  3  1  0
  3  4  2  0
  4  5  1  0
  4  6  1  0
  6  7  1  0
  6  8  2  0
  8  9  1  0
  9 10  2  0
  9 11  1  0
 11 12  1  0
 11 13  2  0
 13 14  1  0
 13 15  1  0
 15 16  2  0
 16 17  1  0
 16 18  1  0
 18 19  1  0
 18 20  2  0
 20 21  1  0
 21 22  1  0
 22 23  1  0
 22 24  1  0
 22 25  1  0
 20 26  1  0
 26 27  1  0
 27 28  1  0
 28 29  1  0
 28 30  1  0
 28 31  1  0
 31 32  2  0
 31 33  1  0
 33 34  2  3
 34 35  1  0
 35 36  1  0
 36 37  1  0
 37 38  1  0
 37 39  1  0
 37 40  1  0
 36 41  2  0
 41 42  1  0
 41 43  1  0
 43 44  1  0
 43 45  2  0
 45 46  1  0
 26 47  2  0
 47 48  1  0
  8 49  1  0
 49 50  1  0
 49 51  2  0
 51 52  1  0
 52 53  1  0
 52 54  1  0
 52 55  1  0
 55 56  1  0
 55 57  2  0
 57 58  1  0
 57 59  1  0
 51  3  1  0
 47 15  1  0
 45 34  1  0
M  CHG  1  35  -1
M  END
>  <UniqueID>  (11) 
11

>  <SMILES>  (11) 
C=CCc1cc(C(=O)/C=C\c2ccc(OC)c(OCC(=O)N=c3cccc(C)[n-]3)c2)ccc1O

>  <Energy>  (11) 
70.4233920348205

>  <Genealogy>  (11) 
C=CCc1cc(C(=O)C=Cc2ccc(OC)c(OCC(=O)N=c3cccc(C)[n-]3)c2)ccc1O (protonated)
C=CCc1cc(C(=O)/C=C\c2ccc(OC)c(OCC(=O)N=c3cccc(C)[n-]3)c2)ccc1O (cis-trans isomerization)
C=CCc1cc(C(=O)/C=C\c2ccc(OC)c(OCC(=O)N=c3cccc(C)[n-]3)c2)ccc1O (3D coordinates assigned)
C=CCc1cc(C(=O)/C=C\c2ccc(OC)c(OCC(=O)N=c3cccc(C)[n-]3)c2)ccc1O (optimized conformer: 70.4233920348205 kcal/mol)

>  <smiles>  (11) 
C=CCc1cc(C(=O)C=Cc2ccc(OC)c(OCC(=O)N=c3cccc(C)[nH]3)c2)ccc1O

>  <score_type>  (11) 
oracle

>  <origin>  (11) 
adg

>  <m_score__min__energy>  (11) 
-10.119999999999999

>  <m_primary>  (11) 
energy

$$$$
11:0
     RDKit          3D

 45 48  0  0  0  0  0  0  0  0999 V2000
   58.6435   25.5684   47.8710 H   0  0  0  0  0  0  0  0  0  0  0  0
   58.4030   25.9480   46.8670 C   0  0  0  0  0  0  0  0  0  0  0  0
   58.9790   27.1050   46.4800 C   0  0  0  0  0  0  0  0  0  0  0  0
   58.1430   28.2800   46.1620 C   0  0  0  0  0  0  0  0  0  0  0  0
   56.9710   28.1120   45.6160 N   0  0  0  0  0  0  0  0  0  0  0  0
   56.2130   29.2030   45.0910 C   0  0  0  0  0  0  0  0  0  0  0  0
   55.1410   28.9870   44.4690 O   0  0  0  0  0  0  0  0  0  0  0  0
   56.7020   30.5330   45.2370 N   0  0  0  0  0  0  0  0  0  0  0  0
   57.7670   30.7890   46.2010 C   0  0  2  0  0  0  0  0  0  0  0  0
   57.3281   30.8043   47.2095 H   0  0  0  0  0  0  0  0  0  0  0  0
   58.3830   32.1560   45.9880 C   0  0  0  0  0  0  0  0  0  0  0  0
   57.7810   33.0580   45.0930 C   0  0  0  0  0  0  0  0  0  0  0  0
   56.8868   32.7526   44.5298 H   0  0  0  0  0  0  0  0  0  0  0  0
   58.3090   34.3390   44.9130 C   0  0  0  0  0  0  0  0  0  0  0  0
   57.8357   35.0334   44.2033 H   0  0  0  0  0  0  0  0  0  0  0  0
   59.4370   34.7390   45.6330 C   0  0  0  0  0  0  0  0  0  0  0  0
   59.9610   36.0130   45.4530 O   0  0  0  0  0  0  0  0  0  0  0  0
   60.0370   33.8580   46.5370 C   0  0  0  0  0  0  0  0  0  0  0  0
   60.9242   34.1741   47.1054 H   0  0  0  0  0  0  0  0  0  0  0  0
   59.5110   32.5750   46.7200 C   0  0  0  0  0  0  0  0  0  0  0  0
   59.9811   31.8890   47.4400 H   0  0  0  0  0  0  0  0  0  0  0  0
   58.8140   29.6390   46.1960 C   0  0  2  0  0  0  0  0  0  0  0  0
   59.3690   29.7766   47.1357 H   0  0  0  0  0  0  0  0  0  0  0  0
   59.8360   29.7080   45.0450 C   0  0  0  0  0  0  0  0  0  0  0  0
   60.4589   30.6026   45.1923 H   0  0  0  0  0  0  0  0  0  0  0  0
   59.2537   29.7367   44.1122 H   0  0  0  0  0  0  0  0  0  0  0  0
   60.9540   28.2410   44.9200 S   0  0  0  0  0  0  0  0  0  0  0  0
   60.4770   27.3190   46.4360 C   0  0  0  0  0  0  0  0  0  0  0  0
   60.7862   27.8941   47.3212 H   0  0  0  0  0  0  0  0  0  0  0  0
   60.9753   26.3384   46.4263 H   0  0  0  0  0  0  0  0  0  0  0  0
   57.4740   25.1560   46.0400 C   0  0  0  0  0  0  0  0  0  0  0  0
   57.9500   24.3600   44.9890 C   0  0  0  0  0  0  0  0  0  0  0  0
   59.0314   24.2920   44.7992 H   0  0  0  0  0  0  0  0  0  0  0  0
   57.0560   23.6530   44.1820 C   0  0  0  0  0  0  0  0  0  0  0  0
   57.4361   23.0173   43.3687 H   0  0  0  0  0  0  0  0  0  0  0  0
   55.6790   23.7510   44.4050 C   0  0  0  0  0  0  0  0  0  0  0  0
   54.7990   23.0410   43.5970 O   0  0  0  0  0  0  0  0  0  0  0  0
   55.1840   24.5660   45.4340 C   0  0  0  0  0  0  0  0  0  0  0  0
   53.7950   24.6450   45.6170 O   0  0  0  0  0  0  0  0  0  0  0  0
   52.9290   23.5170   45.7030 C   0  0  0  0  0  0  0  0  0  0  0  0
   52.7442   23.2763   46.7603 H   0  0  0  0  0  0  0  0  0  0  0  0
   51.9747   23.7488   45.2075 H   0  0  0  0  0  0  0  0  0  0  0  0
   53.3995   22.6549   45.2075 H   0  0  0  0  0  0  0  0  0  0  0  0
   56.0910   25.2770   46.2450 C   0  0  0  0  0  0  0  0  0  0  0  0
   55.7124   25.9312   47.0441 H   0  0  0  0  0  0  0  0  0  0  0  0
  1  2  1  0
  2  3  2  0
  3  4  1  0
  4  5  2  0
  5  6  1  0
  6  7  2  0
  6  8  1  0
  8  9  1  0
  9 10  1  1
  9 11  1  0
 11 12  2  0
 12 13  1  0
 12 14  1  0
 14 15  1  0
 14 16  2  0
 16 17  1  0
 16 18  1  0
 18 19  1  0
 18 20  2  0
 20 21  1  0
  9 22  1  0
 22 23  1  1
 22 24  1  0
 24 25  1  0
 24 26  1  0
 24 27  1  0
 27 28  1  0
 28 29  1  0
 28 30  1  0
  2 31  1  0
 31 32  2  0
 32 33  1  0
 32 34  1  0
 34 35  1  0
 34 36  2  0
 36 37  1  0
 36 38  1  0
 38 39  1  0
 39 40  1  0
 40 41  1  0
 40 42  1  0
 40 43  1  0
 38 44  2  0
 44 45  1  0
 28  3  1  0
 44 31  1  0
 22  4  1  0
 20 11  1  0
M  CHG  3   8  -1  17  -1  37  -1
M  END
>  <UniqueID>  (12) 
12

>  <SMILES>  (12) 
COc1cc(/C=C2\CSC[C@@H]3C2=NC(=O)[N-][C@@H]3c2ccc([O-])cc2)ccc1[O-]

>  <Energy>  (12) 
65.53586825630086

>  <Genealogy>  (12) 
COc1cc(C=C2CSCC3C2=NC(=O)[N-]C3c2ccc([O-])cc2)ccc1[O-] (protonated)
COc1cc(C=C2CSC[C@@H]3C2=NC(=O)[N-][C@@H]3c2ccc([O-])cc2)ccc1[O-] (chirality)
COc1cc(/C=C2\CSC[C@@H]3C2=NC(=O)[N-][C@@H]3c2ccc([O-])cc2)ccc1[O-] (cis-trans isomerization)
COc1cc(/C=C2\CSC[C@@H]3C2=NC(=O)[N-][C@@H]3c2ccc([O-])cc2)ccc1[O-] (3D coordinates assigned)
COc1cc(/C=C2\CSC[C@@H]3C2=NC(=O)[N-][C@@H]3c2ccc([O-])cc2)ccc1[O-] (nonaromatic ring conformer: 65.53586825630086 kcal/mol)

>  <smiles>  (12) 
COc1cc(C=C2CSCC3C2=NC(=O)NC3c2ccc(O)cc2)ccc1O

>  <score_type>  (12) 
oracle

>  <origin>  (12) 
adg

>  <m_score__min__energy>  (12) 
-12.66

>  <m_primary>  (12) 
energy

$$$$
12:0
     RDKit          3D

 63 67  0  0  0  0  0  0  0  0999 V2000
   55.8850   31.5920   51.9900 C   0  0  0  0  0  0  0  0  0  0  0  0
   55.3900   30.4350   52.4580 C   0  0  0  0  0  0  0  0  0  0  0  0
   54.0690   30.1760   52.8510 C   0  0  0  0  0  0  0  0  0  0  0  0
   52.9330   30.8770   52.6640 C   0  0  0  0  0  0  0  0  0  0  0  0
   52.2680   31.1200   51.3700 C   0  0  0  0  0  0  0  0  0  0  0  0
   52.2580   30.2600   50.3330 N   0  0  0  0  0  0  0  0  0  0  0  0
   51.3690   30.8040   49.4780 C   0  0  0  0  0  0  0  0  0  0  0  0
   51.0920   30.2880   48.3650 O   0  0  0  0  0  0  0  0  0  0  0  0
   50.7850   31.9370   49.9210 N   0  0  0  0  0  0  0  0  0  0  0  0
   51.3580   32.1180   51.1210 C   0  0  0  0  0  0  0  0  0  0  0  0
   51.0370   33.1560   51.9900 O   0  0  0  0  0  0  0  0  0  0  0  0
   54.0880   28.9440   53.4850 C   0  0  0  0  0  0  0  0  0  0  0  0
   55.3790   28.4680   53.3950 C   0  0  0  0  0  0  0  0  0  0  0  0
   55.8310   27.1240   53.8810 C   0  0  0  0  0  0  0  0  0  0  0  0
   56.1650   29.3620   52.7600 N   0  0  0  0  0  0  0  0  0  0  0  0
   57.5800   29.2180   52.5560 C   0  0  0  0  0  0  0  0  0  0  0  0
   58.3850   28.7180   53.5880 C   0  0  0  0  0  0  0  0  0  0  0  0
   59.7720   28.6860   53.4430 C   0  0  0  0  0  0  0  0  0  0  0  0
   60.3670   29.1660   52.2730 C   0  0  0  0  0  0  0  0  0  0  0  0
   59.5710   29.6530   51.2220 C   0  0  0  0  0  0  0  0  0  0  0  0
   60.2050   30.1870   50.0030 C   0  0  0  0  0  0  0  0  0  0  0  0
   61.2800   30.8350   50.1070 O   0  0  0  0  0  0  0  0  0  0  0  0
   59.6300   29.9620   48.7020 N   0  0  0  0  0  0  0  0  0  0  0  0
   59.5800   31.1190   47.7710 C   0  0  0  0  0  0  0  0  0  0  0  0
   58.7040   30.8730   46.5240 C   0  0  0  0  0  0  0  0  0  0  0  0
   58.9800   29.4710   45.9720 C   0  0  1  0  0  0  0  0  0  0  0  0
   58.6080   28.4570   47.0220 C   0  0  1  0  0  0  0  0  0  0  0  0
   58.6510   27.1610   46.2490 C   0  0  0  0  0  0  0  0  0  0  0  0
   58.2420   27.5760   44.8280 C   0  0  0  0  0  0  0  0  0  0  0  0
   58.3220   29.0510   44.7200 N   0  0  0  0  0  0  0  0  0  0  0  0
   56.7360   29.7520   44.4410 S   0  0  0  0  0  0  0  0  0  0  0  0
   56.3110   29.6870   42.7010 C   0  0  0  0  0  0  0  0  0  0  0  0
   56.7490   31.2050   44.8370 O   0  0  0  0  0  0  0  0  0  0  0  0
   55.6780   29.0220   45.2300 O   0  0  0  0  0  0  0  0  0  0  0  0
   59.5620   28.5660   48.2120 C   0  0  0  0  0  0  0  0  0  0  0  0
   58.1740   29.6720   51.3670 C   0  0  0  0  0  0  0  0  0  0  0  0
   56.9476   31.6644   51.7150 H   0  0  0  0  0  0  0  0  0  0  0  0
   55.2279   32.4675   51.8816 H   0  0  0  0  0  0  0  0  0  0  0  0
   52.4584   31.3072   53.5582 H   0  0  0  0  0  0  0  0  0  0  0  0
   51.3720   33.1490   52.9440 H   0  0  0  0  0  0  0  0  0  0  0  0
   53.2365   28.4420   53.9676 H   0  0  0  0  0  0  0  0  0  0  0  0
   55.8344   27.1140   54.9809 H   0  0  0  0  0  0  0  0  0  0  0  0
   55.1439   26.3496   53.5094 H   0  0  0  0  0  0  0  0  0  0  0  0
   56.8465   26.9222   53.5094 H   0  0  0  0  0  0  0  0  0  0  0  0
   57.9219   28.3496   54.5153 H   0  0  0  0  0  0  0  0  0  0  0  0
   60.3990   28.2820   54.2515 H   0  0  0  0  0  0  0  0  0  0  0  0
   61.4626   29.1626   52.1743 H   0  0  0  0  0  0  0  0  0  0  0  0
   59.1752   31.9853   48.3147 H   0  0  0  0  0  0  0  0  0  0  0  0
   60.6065   31.2903   47.4147 H   0  0  0  0  0  0  0  0  0  0  0  0
   57.6424   30.9555   46.8000 H   0  0  0  0  0  0  0  0  0  0  0  0
   58.9433   31.6225   45.7552 H   0  0  0  0  0  0  0  0  0  0  0  0
   60.0486   29.5231   45.7164 H   0  0  0  0  0  0  0  0  0  0  0  0
   57.6224   28.5820   47.4942 H   0  0  0  0  0  0  0  0  0  0  0  0
   59.6639   26.7321   46.2569 H   0  0  0  0  0  0  0  0  0  0  0  0
   57.9952   26.3870   46.6743 H   0  0  0  0  0  0  0  0  0  0  0  0
   58.9228   27.1143   44.0976 H   0  0  0  0  0  0  0  0  0  0  0  0
   57.2146   27.2413   44.6220 H   0  0  0  0  0  0  0  0  0  0  0  0
   55.2288   29.5215   42.5938 H   0  0  0  0  0  0  0  0  0  0  0  0
   56.5859   30.6376   42.2206 H   0  0  0  0  0  0  0  0  0  0  0  0
   56.8575   28.8620   42.2206 H   0  0  0  0  0  0  0  0  0  0  0  0
   59.2032   27.9156   49.0233 H   0  0  0  0  0  0  0  0  0  0  0  0
   60.5666   28.2549   47.8896 H   0  0  0  0  0  0  0  0  0  0  0  0
   57.5429   30.0438   50.5464 H   0  0  0  0  0  0  0  0  0  0  0  0
  1  2  2  0
  2  3  1  0
  3  4  2  3
  4  5  1  0
  5  6  1  0
  6  7  1  0
  7  8  2  0
  7  9  1  0
  9 10  1  0
 10 11  1  0
  3 12  1  0
 12 13  2  0
 13 14  1  0
 13 15  1  0
 15 16  1  0
 16 17  2  0
 17 18  1  0
 18 19  2  0
 19 20  1  0
 20 21  1  0
 21 22  2  0
 21 23  1  0
 23 24  1  0
 24 25  1  0
 25 26  1  0
 26 27  1  0
 27 28  1  0
 28 29  1  0
 29 30  1  0
 30 31  1  0
 31 32  1  0
 31 33  2  0
 31 34  2  0
 27 35  1  0
 20 36  2  0
 15  2  1  0
 36 16  1  0
 10  5  2  0
 35 23  1  0
 30 26  1  0
  1 37  1  0
  1 38  1  0
  4 39  1  0
 11 40  1  0
 12 41  1  0
 14 42  1  0
 14 43  1  0
 14 44  1  0
 17 45  1  0
 18 46  1  0
 19 47  1  0
 24 48  1  0
 24 49  1  0
 25 50  1  0
 25 51  1  0
 26 52  1  6
 27 53  1  1
 28 54  1  0
 28 55  1  0
 29 56  1  0
 29 57  1  0
 32 58  1  0
 32 59  1  0
 32 60  1  0
 35 61  1  0
 35 62  1  0
 36 63  1  0
M  CHG  2   6  -1   9  -1
M  END
>  <UniqueID>  (13) 
13

>  <SMILES>  (13) 
C=c1c(=Cc2[n-]c(=O)[n-]c2O)cc(C)n1-c1cccc(C(=O)N2CC[C@H]3[C@@H](CCN3S(C)(=O)=O)C2)c1

>  <Energy>  (13) 
155.85973556455164

>  <Genealogy>  (13) 
C=c1c(=Cc2[n-]c(=O)[n-]c2O)cc(C)n1-c1cccc(C(=O)N2CCC3C(CCN3S(C)(=O)=O)C2)c1 (protonated)
C=c1c(=Cc2[n-]c(=O)[n-]c2O)cc(C)n1-c1cccc(C(=O)N2CC[C@H]3[C@@H](CCN3S(C)(=O)=O)C2)c1 (chirality)
C=c1c(=Cc2[n-]c(=O)[n-]c2O)cc(C)n1-c1cccc(C(=O)N2CC[C@H]3[C@@H](CCN3S(C)(=O)=O)C2)c1 (3D coordinates assigned)
C=c1c(=Cc2[n-]c(=O)[n-]c2O)cc(C)n1-c1cccc(C(=O)N2CC[C@H]3[C@@H](CCN3S(C)(=O)=O)C2)c1 (nonaromatic ring conformer: 155.85973556455164 kcal/mol)

>  <smiles>  (13) 
C=c1c(=Cc2[nH]c(=O)[nH]c2O)cc(C)n1-c1cccc(C(=O)N2CCC3C(CCN3S(C)(=O)=O)C2)c1

>  <score_type>  (13) 
oracle

>  <origin>  (13) 
adg

>  <m_score__min__energy>  (13) 
-16.07

>  <m_primary>  (13) 
energy

$$$$
13:0
     RDKit          3D

 59 62  0  0  0  0  0  0  0  0999 V2000
   59.6223   36.2396   44.7725 H   0  0  0  0  0  0  0  0  0  0  0  0
   59.2840   35.3160   45.2650 C   0  0  0  0  0  0  0  0  0  0  0  0
   58.4270   34.4790   44.6240 N   0  0  0  0  0  0  0  0  0  0  0  0
   57.9700   33.3310   45.1990 C   0  0  0  0  0  0  0  0  0  0  0  0
   57.1560   32.5270   44.5730 N   0  0  0  0  0  0  0  0  0  0  0  0
   57.3600   31.7750   43.3620 C   0  0  0  0  0  0  0  0  0  0  0  0
   58.1410   32.2570   42.4960 O   0  0  0  0  0  0  0  0  0  0  0  0
   56.6610   30.4630   43.0830 C   0  0  0  0  0  0  0  0  0  0  0  0
   56.7541   30.2326   42.0114 H   0  0  0  0  0  0  0  0  0  0  0  0
   55.6070   30.5718   43.3784 H   0  0  0  0  0  0  0  0  0  0  0  0
   57.2510   29.3230   43.8790 C   0  0  0  0  0  0  0  0  0  0  0  0
   57.6520   28.1440   43.2360 C   0  0  0  0  0  0  0  0  0  0  0  0
   57.4776   28.0213   42.1569 H   0  0  0  0  0  0  0  0  0  0  0  0
   58.2720   27.1250   43.9610 C   0  0  0  0  0  0  0  0  0  0  0  0
   58.5758   26.2000   43.4491 H   0  0  0  0  0  0  0  0  0  0  0  0
   58.5110   27.2680   45.3320 C   0  0  0  0  0  0  0  0  0  0  0  0
   59.1530   26.2240   46.0080 O   0  0  0  0  0  0  0  0  0  0  0  0
   58.5210   25.0380   46.4060 C   0  0  0  0  0  0  0  0  0  0  0  0
   58.8330   23.9360   45.8780 O   0  0  0  0  0  0  0  0  0  0  0  0
   57.3940   25.0870   47.3900 C   0  0  0  0  0  0  0  0  0  0  0  0
   57.4234   24.1842   48.0178 H   0  0  0  0  0  0  0  0  0  0  0  0
   57.5060   25.9879   48.0112 H   0  0  0  0  0  0  0  0  0  0  0  0
   56.0780   25.1510   46.6840 C   0  0  0  0  0  0  0  0  0  0  0  0
   55.5030   26.2990   46.2830 N   0  0  0  0  0  0  0  0  0  0  0  0
   54.4040   25.9620   45.6290 N   0  0  0  0  0  0  0  0  0  0  0  0
   54.3570   24.6210   45.6440 C   0  0  0  0  0  0  0  0  0  0  0  0
   53.4420   23.9560   45.0950 O   0  0  0  0  0  0  0  0  0  0  0  0
   55.3910   24.0580   46.2900 N   0  0  0  0  0  0  0  0  0  0  0  0
   58.0720   28.4310   46.0020 C   0  0  0  0  0  0  0  0  0  0  0  0
   58.2310   28.5170   47.3940 O   0  0  0  0  0  0  0  0  0  0  0  0
   59.2700   29.2450   48.0440 C   0  0  0  0  0  0  0  0  0  0  0  0
   59.1500   29.1609   49.1342 H   0  0  0  0  0  0  0  0  0  0  0  0
   60.2463   28.8324   47.7497 H   0  0  0  0  0  0  0  0  0  0  0  0
   59.2155   30.3035   47.7497 H   0  0  0  0  0  0  0  0  0  0  0  0
   57.4670   29.4650   45.2600 C   0  0  0  0  0  0  0  0  0  0  0  0
   57.1610   30.3921   45.7668 H   0  0  0  0  0  0  0  0  0  0  0  0
   58.3960   32.9910   46.4900 C   0  0  0  0  0  0  0  0  0  0  0  0
   58.0189   32.0777   46.9734 H   0  0  0  0  0  0  0  0  0  0  0  0
   59.3050   33.8200   47.1630 C   0  0  0  0  0  0  0  0  0  0  0  0
   59.7970   33.4460   48.5050 C   0  0  0  0  0  0  0  0  0  0  0  0
   58.9740   33.3700   49.4560 O   0  0  0  0  0  0  0  0  0  0  0  0
   61.1890   33.1380   48.7350 N   0  0  0  0  0  0  0  0  0  0  0  0
   61.7380   33.2390   50.0990 C   0  0  0  0  0  0  0  0  0  0  0  0
   61.1892   34.0147   50.6532 H   0  0  0  0  0  0  0  0  0  0  0  0
   61.6283   32.2653   50.5988 H   0  0  0  0  0  0  0  0  0  0  0  0
   63.2300   33.6090   50.0550 C   0  0  0  0  0  0  0  0  0  0  0  0
   63.3183   34.6617   49.7484 H   0  0  0  0  0  0  0  0  0  0  0  0
   63.6363   33.4309   51.0616 H   0  0  0  0  0  0  0  0  0  0  0  0
   64.0570   32.7400   49.0700 C   0  0  0  0  0  0  0  0  0  0  0  0
   64.9920   32.0070   49.7820 F   0  0  0  0  0  0  0  0  0  0  0  0
   64.7390   33.5720   48.1940 F   0  0  0  0  0  0  0  0  0  0  0  0
   63.1970   31.7570   48.2570 C   0  0  0  0  0  0  0  0  0  0  0  0
   63.7984   31.3555   47.4281 H   0  0  0  0  0  0  0  0  0  0  0  0
   62.8676   30.9483   48.9259 H   0  0  0  0  0  0  0  0  0  0  0  0
   61.9550   32.4470   47.6840 C   0  0  0  0  0  0  0  0  0  0  0  0
   62.2707   33.1826   46.9295 H   0  0  0  0  0  0  0  0  0  0  0  0
   61.3091   31.6782   47.2347 H   0  0  0  0  0  0  0  0  0  0  0  0
   59.7350   35.0040   46.5480 C   0  0  0  0  0  0  0  0  0  0  0  0
   60.4233   35.6825   47.0733 H   0  0  0  0  0  0  0  0  0  0  0  0
  1  2  1  0
  2  3  1  0
  3  4  1  0
  4  5  2  0
  5  6  1  0
  6  7  2  0
  6  8  1  0
  8  9  1  0
  8 10  1  0
  8 11  1  0
 11 12  2  0
 12 13  1  0
 12 14  1  0
 14 15  1  0
 14 16  2  0
 16 17  1  0
 17 18  1  0
 18 19  2  0
 18 20  1  0
 20 21  1  0
 20 22  1  0
 20 23  1  0
 23 24  2  0
 24 25  1  0
 25 26  1  0
 26 27  2  0
 26 28  1  0
 16 29  1  0
 29 30  1  0
 30 31  1  0
 31 32  1  0
 31 33  1  0
 31 34  1  0
 29 35  2  0
 35 36  1  0
  4 37  1  0
 37 38  1  0
 37 39  2  0
 39 40  1  0
 40 41  2  0
 40 42  1  0
 42 43  1  0
 43 44  1  0
 43 45  1  0
 43 46  1  0
 46 47  1  0
 46 48  1  0
 46 49  1  0
 49 50  1  0
 49 51  1  0
 49 52  1  0
 52 53  1  0
 52 54  1  0
 52 55  1  0
 55 56  1  0
 55 57  1  0
 39 58  1  0
 58 59  1  0
 58  2  2  0
 35 11  1  0
 55 42  1  0
 28 23  1  0
M  CHG  3   3  -1  25  -1  28  -1
M  END
>  <UniqueID>  (14) 
14

>  <SMILES>  (14) 
COc1cc(CC(=O)/N=c2/cc(C(=O)N3CCC(F)(F)CC3)cc[n-]2)ccc1OC(=O)Cc1n[n-]c(=O)[n-]1

>  <Energy>  (14) 
110.37249247804709

>  <Genealogy>  (14) 
COc1cc(CC(=O)N=c2cc(C(=O)N3CCC(F)(F)CC3)cc[n-]2)ccc1OC(=O)Cc1n[n-]c(=O)[n-]1 (protonated)
COc1cc(CC(=O)/N=c2/cc(C(=O)N3CCC(F)(F)CC3)cc[n-]2)ccc1OC(=O)Cc1n[n-]c(=O)[n-]1 (cis-trans isomerization)
COc1cc(CC(=O)/N=c2/cc(C(=O)N3CCC(F)(F)CC3)cc[n-]2)ccc1OC(=O)Cc1n[n-]c(=O)[n-]1 (3D coordinates assigned)
COc1cc(CC(=O)/N=c2/cc(C(=O)N3CCC(F)(F)CC3)cc[n-]2)ccc1OC(=O)Cc1n[n-]c(=O)[n-]1 (nonaromatic ring conformer: 110.37249247804709 kcal/mol)

>  <smiles>  (14) 
COc1cc(CC(=O)N=c2cc(C(=O)N3CCC(F)(F)CC3)cc[nH]2)ccc1OC(=O)Cc1n[nH]c(=O)[nH]1

>  <score_type>  (14) 
oracle

>  <origin>  (14) 
adg

>  <m_score__min__energy>  (14) 
-15.449999999999999

>  <m_primary>  (14) 
energy

$$$$
14:0
     RDKit          3D

 59 62  0  0  0  0  0  0  0  0999 V2000
   54.5991   28.5685   55.2116 H   0  0  0  0  0  0  0  0  0  0  0  0
   53.9370   29.0330   54.4660 C   0  0  0  0  0  0  0  0  0  0  0  0
   52.8455   28.9403   54.5661 H   0  0  0  0  0  0  0  0  0  0  0  0
   54.4610   29.7130   53.4340 C   0  0  0  0  0  0  0  0  0  0  0  0
   53.7440   30.3520   52.4160 C   0  0  0  0  0  0  0  0  0  0  0  0
   52.4060   30.4370   52.2880 C   0  0  0  0  0  0  0  0  0  0  0  0
   51.7866   30.1868   53.1619 H   0  0  0  0  0  0  0  0  0  0  0  0
   51.7210   30.8450   51.0480 C   0  0  0  0  0  0  0  0  0  0  0  0
   51.7020   30.0940   49.9340 N   0  0  0  0  0  0  0  0  0  0  0  0
   51.0520   30.8710   49.0410 C   0  0  0  0  0  0  0  0  0  0  0  0
   50.8210   30.4990   47.8600 O   0  0  0  0  0  0  0  0  0  0  0  0
   50.6780   32.0800   49.5090 N   0  0  0  0  0  0  0  0  0  0  0  0
   51.1180   32.0550   50.7770 C   0  0  0  0  0  0  0  0  0  0  0  0
   51.0140   33.1320   51.6480 O   0  0  0  0  0  0  0  0  0  0  0  0
   54.6880   30.9470   51.5930 C   0  0  0  0  0  0  0  0  0  0  0  0
   54.4883   31.5372   50.6865 H   0  0  0  0  0  0  0  0  0  0  0  0
   55.9260   30.6570   52.1290 C   0  0  0  0  0  0  0  0  0  0  0  0
   57.1930   31.1830   51.5780 C   0  0  0  0  0  0  0  0  0  0  0  0
   57.6340   32.2750   52.0330 O   0  0  0  0  0  0  0  0  0  0  0  0
   58.0080   30.3880   50.6800 N   0  0  1  0  0  0  0  0  0  0  0  0
   57.4010   29.6540   50.2460 H   0  0  0  0  0  0  0  0  0  0  0  0
   58.5390   31.2270   49.5680 C   0  0  0  0  0  0  0  0  0  0  0  0
   58.7677   32.2300   49.9573 H   0  0  0  0  0  0  0  0  0  0  0  0
   57.7731   31.2725   48.7798 H   0  0  0  0  0  0  0  0  0  0  0  0
   59.8140   30.6290   48.9580 C   0  0  0  0  0  0  0  0  0  0  0  0
   60.1472   31.2686   48.1274 H   0  0  0  0  0  0  0  0  0  0  0  0
   59.5838   29.6141   48.6016 H   0  0  0  0  0  0  0  0  0  0  0  0
   60.9510   30.5310   50.0060 C   0  0  1  0  0  0  0  0  0  0  0  0
   61.4984   29.6034   49.7824 H   0  0  0  0  0  0  0  0  0  0  0  0
   61.9720   31.6830   49.8820 C   0  0  0  0  0  0  0  0  0  0  0  0
   61.8678   32.3504   50.7502 H   0  0  0  0  0  0  0  0  0  0  0  0
   62.9831   31.2512   49.8453 H   0  0  0  0  0  0  0  0  0  0  0  0
   61.7480   32.4640   48.6410 N   0  0  0  0  0  0  0  0  0  0  0  0
   63.0170   32.7740   47.9410 C   0  0  0  0  0  0  0  0  0  0  0  0
   63.7083   33.2458   48.6548 H   0  0  0  0  0  0  0  0  0  0  0  0
   63.4244   31.8299   47.5503 H   0  0  0  0  0  0  0  0  0  0  0  0
   62.8100   33.7300   46.7440 C   0  0  0  0  0  0  0  0  0  0  0  0
   63.1880   34.7268   47.0150 H   0  0  0  0  0  0  0  0  0  0  0  0
   63.3564   33.3210   45.8813 H   0  0  0  0  0  0  0  0  0  0  0  0
   61.3320   33.8480   46.3590 C   0  0  0  0  0  0  0  0  0  0  0  0
   61.2291   34.5855   45.5494 H   0  0  0  0  0  0  0  0  0  0  0  0
   60.9763   32.8608   46.0290 H   0  0  0  0  0  0  0  0  0  0  0  0
   60.4830   34.2980   47.5600 C   0  0  0  0  0  0  0  0  0  0  0  0
   60.5218   35.3952   47.6285 H   0  0  0  0  0  0  0  0  0  0  0  0
   59.4558   33.9398   47.3970 H   0  0  0  0  0  0  0  0  0  0  0  0
   60.9820   33.7020   48.8890 C   0  0  0  0  0  0  0  0  0  0  0  0
   61.6292   34.4339   49.3944 H   0  0  0  0  0  0  0  0  0  0  0  0
   60.1145   33.4647   49.5224 H   0  0  0  0  0  0  0  0  0  0  0  0
   60.4020   30.3990   51.4480 C   0  0  0  0  0  0  0  0  0  0  0  0
   60.2647   31.4032   51.8754 H   0  0  0  0  0  0  0  0  0  0  0  0
   61.1215   29.8234   52.0489 H   0  0  0  0  0  0  0  0  0  0  0  0
   59.0560   29.6620   51.4510 C   0  0  0  0  0  0  0  0  0  0  0  0
   58.7162   29.5518   52.4914 H   0  0  0  0  0  0  0  0  0  0  0  0
   59.2084   28.6843   50.9704 H   0  0  0  0  0  0  0  0  0  0  0  0
   55.7940   29.8810   53.2320 N   0  0  0  0  0  0  0  0  0  0  0  0
   56.8810   29.3030   54.0290 C   0  0  0  0  0  0  0  0  0  0  0  0
   56.6551   29.4231   55.0988 H   0  0  0  0  0  0  0  0  0  0  0  0
   56.9799   28.2332   53.7930 H   0  0  0  0  0  0  0  0  0  0  0  0
   57.8232   29.8192   53.7930 H   0  0  0  0  0  0  0  0  0  0  0  0
  1  2  1  0
  2  3  1  0
  2  4  2  0
  4  5  1  0
  5  6  2  0
  6  7  1  0
  6  8  1  0
  8  9  1  0
  9 10  1  0
 10 11  2  0
 10 12  1  0
 12 13  1  0
 13 14  1  0
  5 15  1  0
 15 16  1  0
 15 17  2  0
 17 18  1  0
 18 19  2  0
 18 20  1  0
 20 21  1  1
 20 22  1  0
 22 23  1  0
 22 24  1  0
 22 25  1  0
 25 26  1  0
 25 27  1  0
 25 28  1  0
 28 29  1  1
 28 30  1  0
 30 31  1  0
 30 32  1  0
 30 33  1  0
 33 34  1  0
 34 35  1  0
 34 36  1  0
 34 37  1  0
 37 38  1  0
 37 39  1  0
 37 40  1  0
 40 41  1  0
 40 42  1  0
 40 43  1  0
 43 44  1  0
 43 45  1  0
 43 46  1  0
 46 47  1  0
 46 48  1  0
 28 49  1  0
 49 50  1  0
 49 51  1  0
 49 52  1  0
 52 53  1  0
 52 54  1  0
 17 55  1  0
 55 56  1  0
 56 57  1  0
 56 58  1  0
 56 59  1  0
 55  4  1  0
 13  8  2  0
 52 20  1  0
 46 33  1  0
M  CHG  4   9  -1  12  -1  14  -1  20   1
M  END
>  <UniqueID>  (15) 
15

>  <SMILES>  (15) 
C=c1/c(=C/c2[n-]c(=O)[n-]c2[O-])cc(C(=O)[NH+]2CCC(CN3CCCCC3)CC2)n1C

>  <Energy>  (15) 
146.3868232347546

>  <Genealogy>  (15) 
C=c1c(=Cc2[n-]c(=O)[n-]c2[O-])cc(C(=O)[NH+]2CCC(CN3CCCCC3)CC2)n1C (protonated)
C=c1/c(=C/c2[n-]c(=O)[n-]c2[O-])cc(C(=O)[NH+]2CCC(CN3CCCCC3)CC2)n1C (cis-trans isomerization)
C=c1/c(=C/c2[n-]c(=O)[n-]c2[O-])cc(C(=O)[NH+]2CCC(CN3CCCCC3)CC2)n1C (3D coordinates assigned)
C=c1/c(=C/c2[n-]c(=O)[n-]c2[O-])cc(C(=O)[NH+]2CCC(CN3CCCCC3)CC2)n1C (nonaromatic ring conformer: 146.3868232347546 kcal/mol)

>  <smiles>  (15) 
C=c1c(=Cc2[nH]c(=O)[nH]c2O)cc(C(=O)N2CCC(CN3CCCCC3)CC2)n1C

>  <score_type>  (15) 
oracle

>  <origin>  (15) 
adg

>  <m_score__min__energy>  (15) 
-17.050000000000001

>  <m_primary>  (15) 
energy

$$$$
15:0
     RDKit          3D

 48 50  0  0  0  0  0  0  0  0999 V2000
   60.7390   26.9230   46.3610 C   0  0  0  0  0  0  0  0  0  0  0  0
   59.2440   26.8730   46.2630 C   0  0  0  0  0  0  0  0  0  0  0  0
   58.5270   25.8220   46.8500 C   0  0  0  0  0  0  0  0  0  0  0  0
   57.1350   25.7760   46.7460 C   0  0  0  0  0  0  0  0  0  0  0  0
   56.4440   26.7800   46.0620 C   0  0  0  0  0  0  0  0  0  0  0  0
   55.0560   26.7140   45.9880 O   0  0  0  0  0  0  0  0  0  0  0  0
   57.1510   27.8430   45.4640 C   0  0  0  0  0  0  0  0  0  0  0  0
   56.4260   28.9700   44.7580 C   0  0  0  0  0  0  0  0  0  0  0  0
   57.3740   29.8670   44.0910 N   0  0  0  0  0  0  0  0  0  0  0  0
   57.6750   31.1850   44.5830 C   0  0  0  0  0  0  0  0  0  0  0  0
   57.9430   32.2140   43.6710 C   0  0  0  0  0  0  0  0  0  0  0  0
   58.4100   33.4520   44.1210 C   0  0  0  0  0  0  0  0  0  0  0  0
   58.6210   33.6750   45.4920 C   0  0  0  0  0  0  0  0  0  0  0  0
   59.2640   34.9600   45.9740 C   0  0  0  0  0  0  0  0  0  0  0  0
   60.3730   34.7440   46.9350 N   0  0  0  0  0  0  0  0  0  0  0  0
   59.9120   34.4860   48.3210 C   0  0  0  0  0  0  0  0  0  0  0  0
   61.0490   33.9550   49.1990 C   0  0  0  0  0  0  0  0  0  0  0  0
   61.5820   32.6130   48.6610 C   0  0  0  0  0  0  0  0  0  0  0  0
   61.4150   32.4720   47.1370 C   0  0  0  0  0  0  0  0  0  0  0  0
   61.4470   33.8440   46.4460 C   0  0  0  0  0  0  0  0  0  0  0  0
   58.2460   32.6800   46.4090 C   0  0  0  0  0  0  0  0  0  0  0  0
   57.7870   31.4410   45.9590 C   0  0  0  0  0  0  0  0  0  0  0  0
   58.5550   27.8620   45.5450 C   0  0  0  0  0  0  0  0  0  0  0  0
   61.0369   26.9330   47.4198 H   0  0  0  0  0  0  0  0  0  0  0  0
   61.1686   26.0387   45.8675 H   0  0  0  0  0  0  0  0  0  0  0  0
   61.1085   27.8340   45.8675 H   0  0  0  0  0  0  0  0  0  0  0  0
   59.0624   25.0303   47.3947 H   0  0  0  0  0  0  0  0  0  0  0  0
   56.5794   24.9449   47.2050 H   0  0  0  0  0  0  0  0  0  0  0  0
   55.7440   28.5445   44.0071 H   0  0  0  0  0  0  0  0  0  0  0  0
   55.8631   29.5478   45.5059 H   0  0  0  0  0  0  0  0  0  0  0  0
   57.9960   29.4520   43.3600 H   0  0  0  0  0  0  0  0  0  0  0  0
   57.7851   32.0468   42.5953 H   0  0  0  0  0  0  0  0  0  0  0  0
   58.6134   34.2558   43.3981 H   0  0  0  0  0  0  0  0  0  0  0  0
   59.6602   35.4995   45.1011 H   0  0  0  0  0  0  0  0  0  0  0  0
   58.4865   35.5321   46.5014 H   0  0  0  0  0  0  0  0  0  0  0  0
   59.5347   35.4246   48.7531 H   0  0  0  0  0  0  0  0  0  0  0  0
   59.1182   33.7254   48.2856 H   0  0  0  0  0  0  0  0  0  0  0  0
   61.8681   34.6891   49.2095 H   0  0  0  0  0  0  0  0  0  0  0  0
   60.6611   33.7955   50.2159 H   0  0  0  0  0  0  0  0  0  0  0  0
   62.6517   32.5362   48.9058 H   0  0  0  0  0  0  0  0  0  0  0  0
   60.9963   31.8108   49.1337 H   0  0  0  0  0  0  0  0  0  0  0  0
   62.2333   31.8520   46.7421 H   0  0  0  0  0  0  0  0  0  0  0  0
   60.4410   32.0025   46.9350 H   0  0  0  0  0  0  0  0  0  0  0  0
   62.4210   34.3163   46.6414 H   0  0  0  0  0  0  0  0  0  0  0  0
   61.2883   33.6833   45.3694 H   0  0  0  0  0  0  0  0  0  0  0  0
   58.3144   32.8782   47.4888 H   0  0  0  0  0  0  0  0  0  0  0  0
   57.5119   30.6620   46.6853 H   0  0  0  0  0  0  0  0  0  0  0  0
   59.1186   28.6605   45.0402 H   0  0  0  0  0  0  0  0  0  0  0  0
  1  2  1  0
  2  3  2  0
  3  4  1  0
  4  5  2  0
  5  6  1  0
  5  7  1  0
  7  8  1  0
  8  9  1  0
  9 10  1  0
 10 11  2  0
 11 12  1  0
 12 13  2  0
 13 14  1  0
 14 15  1  0
 15 16  1  0
 16 17  1  0
 17 18  1  0
 18 19  1  0
 19 20  1  0
 13 21  1  0
 21 22  2  0
  7 23  2  0
 23  2  1  0
 22 10  1  0
 20 15  1  0
  1 24  1  0
  1 25  1  0
  1 26  1  0
  3 27  1  0
  4 28  1  0
  8 29  1  0
  8 30  1  0
  9 31  1  0
 11 32  1  0
 12 33  1  0
 14 34  1  0
 14 35  1  0
 16 36  1  0
 16 37  1  0
 17 38  1  0
 17 39  1  0
 18 40  1  0
 18 41  1  0
 19 42  1  0
 19 43  1  0
 20 44  1  0
 20 45  1  0
 21 46  1  0
 22 47  1  0
 23 48  1  0
M  CHG  1   6  -1
M  END
>  <UniqueID>  (16) 
16

>  <SMILES>  (16) 
Cc1ccc([O-])c(CNc2ccc(CN3CCCCC3)cc2)c1

>  <Energy>  (16) 
56.56360540204548

>  <Genealogy>  (16) 
Cc1ccc([O-])c(CNc2ccc(CN3CCCCC3)cc2)c1 (protonated)
Cc1ccc([O-])c(CNc2ccc(CN3CCCCC3)cc2)c1 (3D coordinates assigned)
Cc1ccc([O-])c(CNc2ccc(CN3CCCCC3)cc2)c1 (nonaromatic ring conformer: 56.56360540204548 kcal/mol)

>  <smiles>  (16) 
Cc1ccc(O)c(CNc2ccc(CN3CCCCC3)cc2)c1

>  <score_type>  (16) 
oracle

>  <origin>  (16) 
adg

>  <m_score__min__energy>  (16) 
-12.630000000000001

>  <m_primary>  (16) 
energy

$$$$
16:0
     RDKit          3D

 48 50  0  0  0  0  0  0  0  0999 V2000
   63.8700   33.0900   46.8040 C   0  0  0  0  0  0  0  0  0  0  0  0
   63.4180   34.1230   47.8340 C   0  0  0  0  0  0  0  0  0  0  0  0
   62.1240   33.7300   48.4370 N   0  0  0  0  0  0  0  0  0  0  0  0
   62.1080   33.3730   49.7660 C   0  0  0  0  0  0  0  0  0  0  0  0
   63.1610   33.4130   50.4590 O   0  0  0  0  0  0  0  0  0  0  0  0
   60.9300   32.9620   50.3830 C   0  0  0  0  0  0  0  0  0  0  0  0
   59.7450   32.8990   49.6660 C   0  0  0  0  0  0  0  0  0  0  0  0
   58.2640   32.3220   50.5250 S   0  0  0  0  0  0  0  0  0  0  0  0
   59.0730   30.8990   51.3360 C   0  0  0  0  0  0  0  0  0  0  0  0
   59.5920   29.9200   50.3270 C   0  0  0  0  0  0  0  0  0  0  0  0
   60.7920   29.5410   50.3930 O   0  0  0  0  0  0  0  0  0  0  0  0
   58.7150   29.3930   49.3210 N   0  0  0  0  0  0  0  0  0  0  0  0
   59.1780   28.5560   48.2170 C   0  0  0  0  0  0  0  0  0  0  0  0
   58.9790   29.2690   46.9140 C   0  0  0  0  0  0  0  0  0  0  0  0
   57.8500   29.2340   46.1220 C   0  0  0  0  0  0  0  0  0  0  0  0
   58.0490   30.0530   45.0720 N   0  0  0  0  0  0  0  0  0  0  0  0
   57.0610   30.3910   44.0570 C   0  0  0  0  0  0  0  0  0  0  0  0
   59.2360   30.6310   45.1630 N   0  0  0  0  0  0  0  0  0  0  0  0
   59.8350   30.1500   46.2700 C   0  0  0  0  0  0  0  0  0  0  0  0
   61.1680   30.6200   46.7590 C   0  0  0  0  0  0  0  0  0  0  0  0
   59.7280   33.3100   48.3190 C   0  0  0  0  0  0  0  0  0  0  0  0
   58.5310   33.3160   47.5730 C   0  0  0  0  0  0  0  0  0  0  0  0
   58.5150   33.7710   46.2580 C   0  0  0  0  0  0  0  0  0  0  0  0
   57.0130   33.7870   45.3520 Cl  0  0  0  0  0  0  0  0  0  0  0  0
   59.6880   34.2240   45.6630 C   0  0  0  0  0  0  0  0  0  0  0  0
   60.8870   34.2180   46.3740 C   0  0  0  0  0  0  0  0  0  0  0  0
   60.9420   33.7500   47.7120 C   0  0  0  0  0  0  0  0  0  0  0  0
   64.2589   32.2012   47.3224 H   0  0  0  0  0  0  0  0  0  0  0  0
   63.0155   32.8023   46.1738 H   0  0  0  0  0  0  0  0  0  0  0  0
   64.6612   33.5224   46.1738 H   0  0  0  0  0  0  0  0  0  0  0  0
   64.1773   34.1989   48.6263 H   0  0  0  0  0  0  0  0  0  0  0  0
   63.2932   35.0930   47.3305 H   0  0  0  0  0  0  0  0  0  0  0  0
   60.9393   32.6851   51.4475 H   0  0  0  0  0  0  0  0  0  0  0  0
   59.9125   31.2639   51.9460 H   0  0  0  0  0  0  0  0  0  0  0  0
   58.3286   30.3882   51.9644 H   0  0  0  0  0  0  0  0  0  0  0  0
   57.7240   29.7290   49.3000 H   0  0  0  0  0  0  0  0  0  0  0  0
   60.2471   28.3346   48.3514 H   0  0  0  0  0  0  0  0  0  0  0  0
   58.6010   27.6195   48.2076 H   0  0  0  0  0  0  0  0  0  0  0  0
   56.9444   28.6401   46.3148 H   0  0  0  0  0  0  0  0  0  0  0  0
   56.1283   30.7101   44.5451 H   0  0  0  0  0  0  0  0  0  0  0  0
   57.4449   31.2089   43.4296 H   0  0  0  0  0  0  0  0  0  0  0  0
   56.8635   29.5093   43.4296 H   0  0  0  0  0  0  0  0  0  0  0  0
   61.1750   30.6225   47.8590 H   0  0  0  0  0  0  0  0  0  0  0  0
   61.9533   29.9446   46.3888 H   0  0  0  0  0  0  0  0  0  0  0  0
   61.3560   31.6386   46.3888 H   0  0  0  0  0  0  0  0  0  0  0  0
   57.5999   32.9571   48.0358 H   0  0  0  0  0  0  0  0  0  0  0  0
   59.6693   34.5890   44.6255 H   0  0  0  0  0  0  0  0  0  0  0  0
   61.8052   34.5820   45.8898 H   0  0  0  0  0  0  0  0  0  0  0  0
  1  2  1  0
  2  3  1  0
  3  4  1  0
  4  5  2  0
  4  6  1  0
  6  7  2  0
  7  8  1  0
  8  9  1  0
  9 10  1  0
 10 11  2  0
 10 12  1  0
 12 13  1  0
 13 14  1  0
 14 15  2  0
 15 16  1  0
 16 17  1  0
 16 18  1  0
 18 19  2  0
 19 20  1  0
  7 21  1  0
 21 22  2  0
 22 23  1  0
 23 24  1  0
 23 25  2  0
 25 26  1  0
 26 27  2  0
 27  3  1  0
 19 14  1  0
 27 21  1  0
  1 28  1  0
  1 29  1  0
  1 30  1  0
  2 31  1  0
  2 32  1  0
  6 33  1  0
  9 34  1  0
  9 35  1  0
 12 36  1  0
 13 37  1  0
 13 38  1  0
 15 39  1  0
 17 40  1  0
 17 41  1  0
 17 42  1  0
 20 43  1  0
 20 44  1  0
 20 45  1  0
 22 46  1  0
 25 47  1  0
 26 48  1  0
M  END
>  <UniqueID>  (17) 
17

>  <SMILES>  (17) 
CCn1c(=O)cc(SCC(=O)NCc2cn(C)nc2C)c2cc(Cl)ccc21

>  <Energy>  (17) 
73.14195342241204

>  <Genealogy>  (17) 
CCn1c(=O)cc(SCC(=O)NCc2cn(C)nc2C)c2cc(Cl)ccc21 (3D coordinates assigned)
CCn1c(=O)cc(SCC(=O)NCc2cn(C)nc2C)c2cc(Cl)ccc21 (optimized conformer: 73.14195342241204 kcal/mol)

>  <smiles>  (17) 
CCn1c(=O)cc(SCC(=O)NCc2cn(C)nc2C)c2cc(Cl)ccc21

>  <score_type>  (17) 
oracle

>  <origin>  (17) 
adg

>  <m_score__min__energy>  (17) 
-7.9299999999999997

>  <m_primary>  (17) 
energy

$$$$
17:0
     RDKit          3D

 44 46  0  0  0  0  0  0  0  0999 V2000
   59.0100   23.8480   45.6400 C   0  0  0  0  0  0  0  0  0  0  0  0
   57.6180   24.2910   45.9940 C   0  0  0  0  0  0  0  0  0  0  0  0
   56.7650   23.6500   46.8950 C   0  0  0  0  0  0  0  0  0  0  0  0
   57.0140   22.4290   47.6880 C   0  0  0  0  0  0  0  0  0  0  0  0
   57.4210   21.2160   47.0620 N   0  0  0  0  0  0  0  0  0  0  0  0
   56.8570   22.4550   48.9370 O   0  0  0  0  0  0  0  0  0  0  0  0
   55.5800   24.3670   46.9010 C   0  0  0  0  0  0  0  0  0  0  0  0
   55.7530   25.3930   46.0020 C   0  0  0  0  0  0  0  0  0  0  0  0
   54.7840   26.3410   45.6910 O   0  0  0  0  0  0  0  0  0  0  0  0
   56.9820   25.3590   45.4480 N   0  0  0  0  0  0  0  0  0  0  0  0
   57.4750   26.2640   44.4040 C   0  0  0  0  0  0  0  0  0  0  0  0
   57.8450   27.5990   44.9950 C   0  0  0  0  0  0  0  0  0  0  0  0
   58.8840   27.6880   45.9370 C   0  0  0  0  0  0  0  0  0  0  0  0
   59.2270   28.9230   46.4940 C   0  0  0  0  0  0  0  0  0  0  0  0
   58.5420   30.0850   46.1110 C   0  0  0  0  0  0  0  0  0  0  0  0
   58.9660   31.6460   46.8080 S   0  0  0  0  0  0  0  0  0  0  0  0
   58.7620   31.5740   48.2940 O   0  0  0  0  0  0  0  0  0  0  0  0
   60.4100   31.9590   46.5230 O   0  0  0  0  0  0  0  0  0  0  0  0
   57.9430   32.8940   46.1280 N   0  0  0  0  0  0  0  0  0  0  0  0
   58.2430   33.0890   44.7050 C   0  0  0  0  0  0  0  0  0  0  0  0
   59.2530   34.2210   44.5830 C   0  0  0  0  0  0  0  0  0  0  0  0
   59.2470   34.9210   45.9280 C   0  0  0  0  0  0  0  0  0  0  0  0
   58.2130   34.1850   46.7670 C   0  0  0  0  0  0  0  0  0  0  0  0
   57.5080   30.0000   45.1710 C   0  0  0  0  0  0  0  0  0  0  0  0
   57.1640   28.7660   44.6120 C   0  0  0  0  0  0  0  0  0  0  0  0
   59.5823   23.6659   46.5616 H   0  0  0  0  0  0  0  0  0  0  0  0
   58.9608   22.9211   45.0497 H   0  0  0  0  0  0  0  0  0  0  0  0
   59.5056   24.6328   45.0497 H   0  0  0  0  0  0  0  0  0  0  0  0
   58.2100   20.6510   47.4470 H   0  0  0  0  0  0  0  0  0  0  0  0
   54.6830   24.1582   47.5025 H   0  0  0  0  0  0  0  0  0  0  0  0
   58.3623   25.8198   43.9293 H   0  0  0  0  0  0  0  0  0  0  0  0
   56.6805   26.4130   43.6580 H   0  0  0  0  0  0  0  0  0  0  0  0
   59.4298   26.7814   46.2373 H   0  0  0  0  0  0  0  0  0  0  0  0
   60.0372   28.9837   47.2355 H   0  0  0  0  0  0  0  0  0  0  0  0
   58.6662   32.1652   44.2836 H   0  0  0  0  0  0  0  0  0  0  0  0
   57.3244   33.3382   44.1536 H   0  0  0  0  0  0  0  0  0  0  0  0
   60.2537   33.8205   44.3632 H   0  0  0  0  0  0  0  0  0  0  0  0
   58.9949   34.9097   43.7650 H   0  0  0  0  0  0  0  0  0  0  0  0
   60.2392   34.8573   46.3985 H   0  0  0  0  0  0  0  0  0  0  0  0
   59.0059   35.9897   45.8298 H   0  0  0  0  0  0  0  0  0  0  0  0
   58.6034   34.0238   47.7827 H   0  0  0  0  0  0  0  0  0  0  0  0
   57.2881   34.7764   46.8367 H   0  0  0  0  0  0  0  0  0  0  0  0
   56.9642   30.9079   44.8712 H   0  0  0  0  0  0  0  0  0  0  0  0
   56.3556   28.7086   43.8682 H   0  0  0  0  0  0  0  0  0  0  0  0
  1  2  1  0
  2  3  2  0
  3  4  1  0
  4  5  1  0
  4  6  2  0
  3  7  1  0
  7  8  2  0
  8  9  1  0
  8 10  1  0
 10 11  1  0
 11 12  1  0
 12 13  2  0
 13 14  1  0
 14 15  2  0
 15 16  1  0
 16 17  2  0
 16 18  2  0
 16 19  1  0
 19 20  1  0
 20 21  1  0
 21 22  1  0
 22 23  1  0
 15 24  1  0
 24 25  2  0
 10  2  1  0
 25 12  1  0
 23 19  1  0
  1 26  1  0
  1 27  1  0
  1 28  1  0
  5 29  1  0
  7 30  1  0
 11 31  1  0
 11 32  1  0
 13 33  1  0
 14 34  1  0
 20 35  1  0
 20 36  1  0
 21 37  1  0
 21 38  1  0
 22 39  1  0
 22 40  1  0
 23 41  1  0
 23 42  1  0
 24 43  1  0
 25 44  1  0
M  CHG  2   5  -1   9  -1
M  END
>  <UniqueID>  (18) 
18

>  <SMILES>  (18) 
Cc1c(C([NH-])=O)cc([O-])n1Cc1ccc(S(=O)(=O)N2CCCC2)cc1

>  <Energy>  (18) 
71.98495814815354

>  <Genealogy>  (18) 
Cc1c(C([NH-])=O)cc([O-])n1Cc1ccc(S(=O)(=O)N2CCCC2)cc1 (protonated)
Cc1c(C([NH-])=O)cc([O-])n1Cc1ccc(S(=O)(=O)N2CCCC2)cc1 (3D coordinates assigned)
Cc1c(C([NH-])=O)cc([O-])n1Cc1ccc(S(=O)(=O)N2CCCC2)cc1 (nonaromatic ring conformer: 71.98495814815354 kcal/mol)

>  <smiles>  (18) 
Cc1c(C(N)=O)cc(O)n1Cc1ccc(S(=O)(=O)N2CCCC2)cc1

>  <score_type>  (18) 
oracle

>  <origin>  (18) 
adg

>  <m_score__min__energy>  (18) 
-13.35

>  <m_primary>  (18) 
energy

$$$$
18:0
     RDKit          3D

 48 50  0  0  0  0  0  0  0  0999 V2000
   64.4860   31.7170   46.6780 H   0  0  0  0  0  0  0  0  0  0  0  0
   63.7420   31.6750   47.4100 N   0  0  0  0  0  0  0  0  0  0  0  0
   63.6430   33.2480   48.1180 S   0  0  0  0  0  0  0  0  0  0  0  0
   64.7670   33.4250   49.1000 O   0  0  0  0  0  0  0  0  0  0  0  0
   63.7580   34.2840   47.0360 O   0  0  0  0  0  0  0  0  0  0  0  0
   62.0760   33.4200   48.9560 C   0  0  0  0  0  0  0  0  0  0  0  0
   62.2581   33.6141   50.0233 H   0  0  0  0  0  0  0  0  0  0  0  0
   61.5047   32.4890   48.8260 H   0  0  0  0  0  0  0  0  0  0  0  0
   61.2670   34.5730   48.3700 C   0  0  0  0  0  0  0  0  0  0  0  0
   61.8671   35.4944   48.4006 H   0  0  0  0  0  0  0  0  0  0  0  0
   60.3489   34.7127   48.9596 H   0  0  0  0  0  0  0  0  0  0  0  0
   60.9150   34.2690   46.9900 N   0  0  0  0  0  0  0  0  0  0  0  0
   59.6100   33.8320   46.5970 C   0  0  0  0  0  0  0  0  0  0  0  0
   58.7110   34.6840   46.3620 O   0  0  0  0  0  0  0  0  0  0  0  0
   59.3160   32.3850   46.4680 C   0  0  0  0  0  0  0  0  0  0  0  0
   58.1030   31.9500   45.9050 C   0  0  0  0  0  0  0  0  0  0  0  0
   57.3650   32.6899   45.5616 H   0  0  0  0  0  0  0  0  0  0  0  0
   57.8270   30.5860   45.7780 C   0  0  0  0  0  0  0  0  0  0  0  0
   56.8753   30.2585   45.3341 H   0  0  0  0  0  0  0  0  0  0  0  0
   58.7580   29.6340   46.2140 C   0  0  0  0  0  0  0  0  0  0  0  0
   58.4810   28.2280   46.0720 N   0  0  0  0  0  0  0  0  0  0  0  0
   58.8080   27.2660   46.9630 C   0  0  0  0  0  0  0  0  0  0  0  0
   59.5290   27.4990   48.2570 C   0  0  0  0  0  0  0  0  0  0  0  0
   58.8537   27.2808   49.0975 H   0  0  0  0  0  0  0  0  0  0  0  0
   60.4073   26.8389   48.3114 H   0  0  0  0  0  0  0  0  0  0  0  0
   59.8549   28.5482   48.3114 H   0  0  0  0  0  0  0  0  0  0  0  0
   58.4050   26.0290   46.5050 C   0  0  0  0  0  0  0  0  0  0  0  0
   58.5619   25.0619   47.0051 H   0  0  0  0  0  0  0  0  0  0  0  0
   57.7650   26.2380   45.2950 C   0  0  0  0  0  0  0  0  0  0  0  0
   57.1870   25.2390   44.5970 C   0  0  0  0  0  0  0  0  0  0  0  0
   57.7426   24.8412   43.7350 H   0  0  0  0  0  0  0  0  0  0  0  0
   55.8740   24.6340   44.8900 C   0  0  0  0  0  0  0  0  0  0  0  0
   54.8830   25.3440   45.5890 C   0  0  0  0  0  0  0  0  0  0  0  0
   55.1000   26.6560   45.9930 O   0  0  0  0  0  0  0  0  0  0  0  0
   53.6980   24.7460   45.8800 N   0  0  0  0  0  0  0  0  0  0  0  0
   53.4580   23.4580   45.5230 C   0  0  0  0  0  0  0  0  0  0  0  0
   52.3540   22.9250   45.8010 O   0  0  0  0  0  0  0  0  0  0  0  0
   54.4120   22.7420   44.8740 N   0  0  0  0  0  0  0  0  0  0  0  0
   55.6110   23.2960   44.5580 C   0  0  0  0  0  0  0  0  0  0  0  0
   56.4760   22.6000   43.9600 O   0  0  0  0  0  0  0  0  0  0  0  0
   57.8600   27.6150   45.0310 C   0  0  0  0  0  0  0  0  0  0  0  0
   57.5270   28.2510   43.8950 C   0  0  0  0  0  0  0  0  0  0  0  0
   57.6514   29.3412   43.8183 H   0  0  0  0  0  0  0  0  0  0  0  0
   57.1300   27.6814   43.0418 H   0  0  0  0  0  0  0  0  0  0  0  0
   59.9690   30.0600   46.7740 C   0  0  0  0  0  0  0  0  0  0  0  0
   60.7053   29.3173   47.1149 H   0  0  0  0  0  0  0  0  0  0  0  0
   60.2470   31.4240   46.9020 C   0  0  0  0  0  0  0  0  0  0  0  0
   61.2002   31.7480   47.3451 H   0  0  0  0  0  0  0  0  0  0  0  0
  1  2  1  0
  2  3  1  0
  3  4  2  0
  3  5  2  0
  3  6  1  0
  6  7  1  0
  6  8  1  0
  6  9  1  0
  9 10  1  0
  9 11  1  0
  9 12  1  0
 12 13  1  0
 13 14  2  0
 13 15  1  0
 15 16  2  0
 16 17  1  0
 16 18  1  0
 18 19  1  0
 18 20  2  0
 20 21  1  0
 21 22  1  0
 22 23  1  0
 23 24  1  0
 23 25  1  0
 23 26  1  0
 22 27  2  0
 27 28  1  0
 27 29  1  0
 29 30  2  0
 30 31  1  0
 30 32  1  0
 32 33  2  0
 33 34  1  0
 33 35  1  0
 35 36  1  0
 36 37  2  0
 36 38  1  0
 38 39  1  0
 39 40  2  0
 29 41  1  0
 41 42  2  0
 42 43  1  0
 42 44  1  0
 20 45  1  0
 45 46  1  0
 45 47  2  0
 47 48  1  0
 47 15  1  0
 41 21  1  0
 39 32  1  0
M  CHG  5   2  -1  12  -1  34  -1  35  -1  38  -1
M  END
>  <UniqueID>  (19) 
19

>  <SMILES>  (19) 
C=c1/c(=C\c2c([O-])[n-]c(=O)[n-]c2=O)cc(C)n1-c1ccc(C(=O)[N-]CCS([NH-])(=O)=O)cc1

>  <Energy>  (19) 
90.50004128768411

>  <Genealogy>  (19) 
C=c1c(=Cc2c([O-])[n-]c(=O)[n-]c2=O)cc(C)n1-c1ccc(C(=O)[N-]CCS([NH-])(=O)=O)cc1 (protonated)
C=c1/c(=C\c2c([O-])[n-]c(=O)[n-]c2=O)cc(C)n1-c1ccc(C(=O)[N-]CCS([NH-])(=O)=O)cc1 (cis-trans isomerization)
C=c1/c(=C\c2c([O-])[n-]c(=O)[n-]c2=O)cc(C)n1-c1ccc(C(=O)[N-]CCS([NH-])(=O)=O)cc1 (3D coordinates assigned)
C=c1/c(=C\c2c([O-])[n-]c(=O)[n-]c2=O)cc(C)n1-c1ccc(C(=O)[N-]CCS([NH-])(=O)=O)cc1 (optimized conformer: 90.50004128768411 kcal/mol)

>  <smiles>  (19) 
C=c1c(=Cc2c(O)[nH]c(=O)[nH]c2=O)cc(C)n1-c1ccc(C(=O)NCCS(N)(=O)=O)cc1

>  <score_type>  (19) 
oracle

>  <origin>  (19) 
adg

>  <m_score__min__energy>  (19) 
-17.16

>  <m_primary>  (19) 
energy

$$$$
19:0
     RDKit          3D

 59 62  0  0  0  0  0  0  0  0999 V2000
   65.8030   32.3100   50.7860 O   0  0  0  0  0  0  0  0  0  0  0  0
   64.8260   31.9460   50.0780 C   0  0  0  0  0  0  0  0  0  0  0  0
   63.9400   30.8560   50.5430 C   0  0  0  0  0  0  0  0  0  0  0  0
   62.6920   31.0220   51.0110 C   0  0  0  0  0  0  0  0  0  0  0  0
   61.4580   30.6730   50.2780 C   0  0  0  0  0  0  0  0  0  0  0  0
   61.5270   30.4600   48.8930 C   0  0  0  0  0  0  0  0  0  0  0  0
   60.3820   30.0980   48.1770 C   0  0  0  0  0  0  0  0  0  0  0  0
   59.1650   29.9280   48.8410 C   0  0  0  0  0  0  0  0  0  0  0  0
   59.0930   30.1050   50.2240 C   0  0  0  0  0  0  0  0  0  0  0  0
   60.2350   30.4640   50.9470 C   0  0  0  0  0  0  0  0  0  0  0  0
   60.1530   30.5720   52.2960 F   0  0  0  0  0  0  0  0  0  0  0  0
   64.5350   32.6850   48.8850 N   0  0  0  0  0  0  0  0  0  0  0  0
   63.2560   33.1890   48.4740 C   0  0  0  0  0  0  0  0  0  0  0  0
   62.8380   33.1540   47.1320 C   0  0  0  0  0  0  0  0  0  0  0  0
   61.5920   33.6730   46.7680 C   0  0  0  0  0  0  0  0  0  0  0  0
   60.7560   34.2570   47.7330 C   0  0  0  0  0  0  0  0  0  0  0  0
   59.4180   34.8270   47.3420 C   0  0  0  0  0  0  0  0  0  0  0  0
   58.6500   33.8570   46.4830 C   0  0  0  0  0  0  0  0  0  0  0  0
   58.0950   34.2790   45.2640 C   0  0  0  0  0  0  0  0  0  0  0  0
   57.3810   33.3790   44.4650 C   0  0  0  0  0  0  0  0  0  0  0  0
   57.1990   32.0540   44.8810 C   0  0  0  0  0  0  0  0  0  0  0  0
   56.4500   31.1590   44.0460 N   0  0  0  0  0  0  0  0  0  0  0  0
   56.3090   29.7480   44.2590 C   0  0  0  0  0  0  0  0  0  0  0  0
   55.2960   29.3330   44.8810 O   0  0  0  0  0  0  0  0  0  0  0  0
   57.3800   28.8100   43.8350 C   0  0  0  0  0  0  0  0  0  0  0  0
   57.5400   27.5570   44.2880 C   0  0  0  0  0  0  0  0  0  0  0  0
   58.2000   27.2120   45.5630 C   0  0  0  0  0  0  0  0  0  0  0  0
   57.5580   26.4520   46.5730 C   0  0  0  0  0  0  0  0  0  0  0  0
   56.1840   25.9100   46.4440 C   0  0  0  0  0  0  0  0  0  0  0  0
   55.9110   24.7200   46.7520 O   0  0  0  0  0  0  0  0  0  0  0  0
   55.1620   26.7360   45.9940 O   0  0  0  0  0  0  0  0  0  0  0  0
   58.2290   26.1920   47.7280 N   0  0  0  0  0  0  0  0  0  0  0  0
   59.4960   26.6270   47.9320 C   0  0  0  0  0  0  0  0  0  0  0  0
   60.0850   26.3620   49.0130 O   0  0  0  0  0  0  0  0  0  0  0  0
   60.1320   27.3380   46.9680 N   0  0  0  0  0  0  0  0  0  0  0  0
   59.5190   27.6360   45.7950 C   0  0  0  0  0  0  0  0  0  0  0  0
   60.1430   28.2990   44.9230 O   0  0  0  0  0  0  0  0  0  0  0  0
   57.7930   31.6180   46.0790 C   0  0  0  0  0  0  0  0  0  0  0  0
   57.7150   30.3180   46.4580 F   0  0  0  0  0  0  0  0  0  0  0  0
   58.5080   32.5170   46.8750 C   0  0  0  0  0  0  0  0  0  0  0  0
   61.1930   34.3240   49.0670 C   0  0  0  0  0  0  0  0  0  0  0  0
   62.4350   33.7990   49.4310 C   0  0  0  0  0  0  0  0  0  0  0  0
   64.3341   29.8298   50.5022 H   0  0  0  0  0  0  0  0  0  0  0  0
   62.5803   31.4509   52.0178 H   0  0  0  0  0  0  0  0  0  0  0  0
   62.4864   30.5784   48.3680 H   0  0  0  0  0  0  0  0  0  0  0  0
   60.4397   29.9468   47.0890 H   0  0  0  0  0  0  0  0  0  0  0  0
   58.2629   29.6545   48.2740 H   0  0  0  0  0  0  0  0  0  0  0  0
   58.1356   29.9617   50.7463 H   0  0  0  0  0  0  0  0  0  0  0  0
   63.4942   32.7164   46.3652 H   0  0  0  0  0  0  0  0  0  0  0  0
   61.2646   33.6235   45.7190 H   0  0  0  0  0  0  0  0  0  0  0  0
   58.8376   35.0398   48.2518 H   0  0  0  0  0  0  0  0  0  0  0  0
   59.5840   35.7500   46.7670 H   0  0  0  0  0  0  0  0  0  0  0  0
   58.2220   35.3212   44.9359 H   0  0  0  0  0  0  0  0  0  0  0  0
   56.9605   33.7139   43.5053 H   0  0  0  0  0  0  0  0  0  0  0  0
   58.1015   29.1724   43.0880 H   0  0  0  0  0  0  0  0  0  0  0  0
   57.1544   26.7333   43.6692 H   0  0  0  0  0  0  0  0  0  0  0  0
   58.9626   32.1719   47.8153 H   0  0  0  0  0  0  0  0  0  0  0  0
   60.5530   34.7927   49.8290 H   0  0  0  0  0  0  0  0  0  0  0  0
   62.7708   33.8650   50.4764 H   0  0  0  0  0  0  0  0  0  0  0  0
  1  2  2  0
  2  3  1  0
  3  4  2  3
  4  5  1  0
  5  6  2  0
  6  7  1  0
  7  8  2  0
  8  9  1  0
  9 10  2  0
 10 11  1  0
  2 12  1  0
 12 13  1  0
 13 14  2  0
 14 15  1  0
 15 16  2  0
 16 17  1  0
 17 18  1  0
 18 19  2  0
 19 20  1  0
 20 21  2  0
 21 22  1  0
 22 23  1  0
 23 24  2  0
 23 25  1  0
 25 26  2  3
 26 27  1  0
 27 28  2  0
 28 29  1  0
 29 30  2  0
 29 31  1  0
 28 32  1  0
 32 33  1  0
 33 34  2  0
 33 35  1  0
 35 36  1  0
 36 37  2  0
 21 38  1  0
 38 39  1  0
 38 40  2  0
 16 41  1  0
 41 42  2  0
 10  5  1  0
 42 13  1  0
 40 18  1  0
 36 27  1  0
  3 43  1  0
  4 44  1  0
  6 45  1  0
  7 46  1  0
  8 47  1  0
  9 48  1  0
 14 49  1  0
 15 50  1  0
 17 51  1  0
 17 52  1  0
 19 53  1  0
 20 54  1  0
 25 55  1  0
 26 56  1  0
 40 57  1  0
 41 58  1  0
 42 59  1  0
M  CHG  5  12  -1  22  -1  31  -1  32  -1  35  -1
M  END
>  <UniqueID>  (20) 
20

>  <SMILES>  (20) 
O=C(C=Cc1ccccc1F)[N-]c1ccc(Cc2ccc([N-]C(=O)C=Cc3c(C(=O)[O-])[n-]c(=O)[n-]c3=O)c(F)c2)cc1

>  <Energy>  (20) 
95.13491886609071

>  <Genealogy>  (20) 
O=C(C=Cc1ccccc1F)[N-]c1ccc(Cc2ccc([N-]C(=O)C=Cc3c(C(=O)[O-])[n-]c(=O)[n-]c3=O)c(F)c2)cc1 (protonated)
O=C(C=Cc1ccccc1F)[N-]c1ccc(Cc2ccc([N-]C(=O)C=Cc3c(C(=O)[O-])[n-]c(=O)[n-]c3=O)c(F)c2)cc1 (3D coordinates assigned)
O=C(C=Cc1ccccc1F)[N-]c1ccc(Cc2ccc([N-]C(=O)C=Cc3c(C(=O)[O-])[n-]c(=O)[n-]c3=O)c(F)c2)cc1 (optimized conformer: 95.13491886609071 kcal/mol)

>  <smiles>  (20) 
O=C(C=Cc1ccccc1F)Nc1ccc(Cc2ccc(NC(=O)C=Cc3c(C(=O)O)[nH]c(=O)[nH]c3=O)c(F)c2)cc1

>  <score_type>  (20) 
oracle

>  <origin>  (20) 
adg

>  <m_score__min__energy>  (20) 
-17.550000000000001

>  <m_primary>  (20) 
energy

$$$$
20:0
     RDKit          3D

 59 62  0  0  0  0  0  0  0  0999 V2000
   61.1300   30.4280   47.4310 C   0  0  0  0  0  0  0  0  0  0  0  0
   60.6620   31.1960   48.6350 C   0  0  0  0  0  0  0  0  0  0  0  0
   60.1670   30.6380   49.8200 C   0  0  0  0  0  0  0  0  0  0  0  0
   59.9980   29.1790   50.1560 C   0  0  0  0  0  0  0  0  0  0  0  0
   59.9840   28.3210   48.9160 C   0  0  0  0  0  0  0  0  0  0  0  0
   60.9620   27.5690   48.6640 O   0  0  0  0  0  0  0  0  0  0  0  0
   58.8450   28.2770   48.0490 N   0  0  0  0  0  0  0  0  0  0  0  0
   58.9000   27.9490   46.6290 C   0  0  0  0  0  0  0  0  0  0  0  0
   57.4860   27.7930   46.0680 C   0  0  0  0  0  0  0  0  0  0  0  0
   57.1900   26.3580   45.7060 C   0  0  0  0  0  0  0  0  0  0  0  0
   58.2480   25.4750   45.4260 C   0  0  0  0  0  0  0  0  0  0  0  0
   57.9880   24.1380   45.1160 C   0  0  0  0  0  0  0  0  0  0  0  0
   56.6740   23.6670   45.0890 C   0  0  0  0  0  0  0  0  0  0  0  0
   55.6150   24.5310   45.3780 C   0  0  0  0  0  0  0  0  0  0  0  0
   55.8670   25.8720   45.6900 C   0  0  0  0  0  0  0  0  0  0  0  0
   54.7990   26.7140   45.9860 O   0  0  0  0  0  0  0  0  0  0  0  0
   59.7340   31.7090   50.5790 C   0  0  0  0  0  0  0  0  0  0  0  0
   59.0980   31.7460   51.8220 C   0  0  0  0  0  0  0  0  0  0  0  0
   58.7320   33.0010   52.3370 C   0  0  0  0  0  0  0  0  0  0  0  0
   58.9910   34.1780   51.6050 C   0  0  0  0  0  0  0  0  0  0  0  0
   59.6220   34.1120   50.3490 C   0  0  0  0  0  0  0  0  0  0  0  0
   59.9890   32.8520   49.8610 C   0  0  0  0  0  0  0  0  0  0  0  0
   60.5660   32.5530   48.6760 N   0  0  0  0  0  0  0  0  0  0  0  0
   60.9060   33.4920   47.6000 C   0  0  0  0  0  0  0  0  0  0  0  0
   59.6600   34.0490   46.9660 C   0  0  0  0  0  0  0  0  0  0  0  0
   59.4480   35.2910   47.0250 O   0  0  0  0  0  0  0  0  0  0  0  0
   58.7760   33.2160   46.1920 N   0  0  0  0  0  0  0  0  0  0  0  0
   58.1700   32.0200   46.7900 C   0  0  0  0  0  0  0  0  0  0  0  0
   57.7510   31.0430   45.6880 C   0  0  0  0  0  0  0  0  0  0  0  0
   56.9420   31.6900   44.7230 O   0  0  0  0  0  0  0  0  0  0  0  0
   57.6970   32.6810   44.0540 C   0  0  0  0  0  0  0  0  0  0  0  0
   58.1070   33.7950   45.0220 C   0  0  0  0  0  0  0  0  0  0  0  0
   61.6766   29.5311   47.7579 H   0  0  0  0  0  0  0  0  0  0  0  0
   60.2610   30.1280   46.8269 H   0  0  0  0  0  0  0  0  0  0  0  0
   61.7950   31.0627   46.8269 H   0  0  0  0  0  0  0  0  0  0  0  0
   60.8318   28.8622   50.7997 H   0  0  0  0  0  0  0  0  0  0  0  0
   59.0341   29.0543   50.6711 H   0  0  0  0  0  0  0  0  0  0  0  0
   59.4180   28.7556   46.0895 H   0  0  0  0  0  0  0  0  0  0  0  0
   59.4438   27.0016   46.5002 H   0  0  0  0  0  0  0  0  0  0  0  0
   56.7619   28.1272   46.8257 H   0  0  0  0  0  0  0  0  0  0  0  0
   57.4074   28.4025   45.1557 H   0  0  0  0  0  0  0  0  0  0  0  0
   59.2857   25.8390   45.4512 H   0  0  0  0  0  0  0  0  0  0  0  0
   58.8205   23.4546   44.8926 H   0  0  0  0  0  0  0  0  0  0  0  0
   56.4724   22.6147   44.8400 H   0  0  0  0  0  0  0  0  0  0  0  0
   54.5808   24.1566   45.3603 H   0  0  0  0  0  0  0  0  0  0  0  0
   58.8901   30.8213   52.3804 H   0  0  0  0  0  0  0  0  0  0  0  0
   58.2397   33.0658   53.3186 H   0  0  0  0  0  0  0  0  0  0  0  0
   58.6978   35.1542   52.0185 H   0  0  0  0  0  0  0  0  0  0  0  0
   59.8212   35.0241   49.7673 H   0  0  0  0  0  0  0  0  0  0  0  0
   61.4996   34.3190   48.0167 H   0  0  0  0  0  0  0  0  0  0  0  0
   61.4838   32.9560   46.8326 H   0  0  0  0  0  0  0  0  0  0  0  0
   58.9012   31.5323   47.4514 H   0  0  0  0  0  0  0  0  0  0  0  0
   57.2830   32.3144   47.3701 H   0  0  0  0  0  0  0  0  0  0  0  0
   58.6515   30.6465   45.1962 H   0  0  0  0  0  0  0  0  0  0  0  0
   57.1717   30.2260   46.1429 H   0  0  0  0  0  0  0  0  0  0  0  0
   58.6013   32.2206   43.6295 H   0  0  0  0  0  0  0  0  0  0  0  0
   57.0793   33.1166   43.2549 H   0  0  0  0  0  0  0  0  0  0  0  0
   58.7949   34.4861   44.5130 H   0  0  0  0  0  0  0  0  0  0  0  0
   57.2093   34.3397   45.3498 H   0  0  0  0  0  0  0  0  0  0  0  0
  1  2  1  0
  2  3  2  0
  3  4  1  0
  4  5  1  0
  5  6  2  0
  5  7  1  0
  7  8  1  0
  8  9  1  0
  9 10  1  0
 10 11  2  0
 11 12  1  0
 12 13  2  0
 13 14  1  0
 14 15  2  0
 15 16  1  0
  3 17  1  0
 17 18  2  0
 18 19  1  0
 19 20  2  0
 20 21  1  0
 21 22  2  0
 22 23  1  0
 23 24  1  0
 24 25  1  0
 25 26  2  0
 25 27  1  0
 27 28  1  0
 28 29  1  0
 29 30  1  0
 30 31  1  0
 31 32  1  0
 23  2  1  0
 32 27  1  0
 15 10  1  0
 22 17  1  0
  1 33  1  0
  1 34  1  0
  1 35  1  0
  4 36  1  0
  4 37  1  0
  8 38  1  0
  8 39  1  0
  9 40  1  0
  9 41  1  0
 11 42  1  0
 12 43  1  0
 13 44  1  0
 14 45  1  0
 18 46  1  0
 19 47  1  0
 20 48  1  0
 21 49  1  0
 24 50  1  0
 24 51  1  0
 28 52  1  0
 28 53  1  0
 29 54  1  0
 29 55  1  0
 31 56  1  0
 31 57  1  0
 32 58  1  0
 32 59  1  0
M  CHG  2   7  -1  16  -1
M  END
>  <UniqueID>  (21) 
21

>  <SMILES>  (21) 
Cc1c(CC(=O)[N-]CCc2ccccc2[O-])c2ccccc2n1CC(=O)N1CCOCC1

>  <Energy>  (21) 
94.33399883197028

>  <Genealogy>  (21) 
Cc1c(CC(=O)[N-]CCc2ccccc2[O-])c2ccccc2n1CC(=O)N1CCOCC1 (protonated)
Cc1c(CC(=O)[N-]CCc2ccccc2[O-])c2ccccc2n1CC(=O)N1CCOCC1 (3D coordinates assigned)
Cc1c(CC(=O)[N-]CCc2ccccc2[O-])c2ccccc2n1CC(=O)N1CCOCC1 (nonaromatic ring conformer: 94.33399883197028 kcal/mol)

>  <smiles>  (21) 
Cc1c(CC(=O)NCCc2ccccc2O)c2ccccc2n1CC(=O)N1CCOCC1

>  <score_type>  (21) 
oracle

>  <origin>  (21) 
adg

>  <m_score__min__energy>  (21) 
-13.76

>  <m_primary>  (21) 
energy

$$$$
21:0
     RDKit          3D

 33 34  0  0  1  0  0  0  0  0999 V2000
   59.6470   35.3890   45.7900 C   0  0  0  0  0  0  0  0  0  0  0  0
   58.9010   34.5550   46.7840 C   0  0  0  0  0  0  0  0  0  0  0  0
   58.8110   33.1570   46.4070 N   0  0  0  0  0  0  0  0  0  0  0  0
   57.7490   32.7770   45.6660 C   0  0  0  0  0  0  0  0  0  0  0  0
   56.8510   33.5870   45.3000 O   0  0  0  0  0  0  0  0  0  0  0  0
   57.6540   31.4380   45.2990 C   0  0  0  0  0  0  0  0  0  0  0  0
   58.6020   30.5250   45.6720 C   0  0  0  0  0  0  0  0  0  0  0  0
   59.6450   30.9660   46.4140 N   0  0  0  0  0  0  0  0  0  0  0  0
   60.6860   30.0360   46.8410 C   0  0  0  0  0  0  0  0  0  0  0  0
   60.3100   29.2100   48.0210 C   0  0  0  0  0  0  0  0  0  0  0  0
   59.7580   32.2510   46.7810 C   0  0  0  0  0  0  0  0  0  0  0  0
   60.7410   32.6590   47.4790 O   0  0  0  0  0  0  0  0  0  0  0  0
   58.4930   29.3090   45.3250 N   0  0  0  0  0  0  0  0  0  0  0  0
   57.4360   28.7320   44.5420 C   0  0  0  0  0  0  0  0  0  0  0  0
   56.3920   29.7300   44.1300 C   0  0  2  0  0  0  0  0  0  0  0  0
   56.2530   29.7270   42.6280 C   0  0  0  0  0  0  0  0  0  0  0  0
   56.6570   31.0620   44.6000 N   0  0  0  0  0  0  0  0  0  0  0  0
   60.2889   36.1067   46.3218 H   0  0  0  0  0  0  0  0  0  0  0  0
   60.2696   34.7379   45.1588 H   0  0  0  0  0  0  0  0  0  0  0  0
   58.9307   35.9354   45.1588 H   0  0  0  0  0  0  0  0  0  0  0  0
   59.4163   34.6228   47.7534 H   0  0  0  0  0  0  0  0  0  0  0  0
   57.8741   34.9463   46.8324 H   0  0  0  0  0  0  0  0  0  0  0  0
   60.9117   29.3602   46.0029 H   0  0  0  0  0  0  0  0  0  0  0  0
   61.5535   30.6429   47.1395 H   0  0  0  0  0  0  0  0  0  0  0  0
   60.5580   29.7547   48.9439 H   0  0  0  0  0  0  0  0  0  0  0  0
   59.2297   29.0045   47.9955 H   0  0  0  0  0  0  0  0  0  0  0  0
   60.8645   28.2603   47.9955 H   0  0  0  0  0  0  0  0  0  0  0  0
   57.8742   28.2899   43.6350 H   0  0  0  0  0  0  0  0  0  0  0  0
   56.9380   27.9786   45.1700 H   0  0  0  0  0  0  0  0  0  0  0  0
   55.4488   29.4181   44.6024 H   0  0  0  0  0  0  0  0  0  0  0  0
   55.1868   29.7040   42.3585 H   0  0  0  0  0  0  0  0  0  0  0  0
   56.7160   30.6353   42.2151 H   0  0  0  0  0  0  0  0  0  0  0  0
   56.7548   28.8395   42.2151 H   0  0  0  0  0  0  0  0  0  0  0  0
  1  2  1  0
  2  3  1  0
  3  4  1  0
  4  5  2  0
  4  6  1  0
  6  7  1  0
  7  8  1  0
  8  9  1  0
  9 10  1  0
  8 11  1  0
 11 12  2  0
  7 13  2  0
 13 14  1  0
 14 15  1  0
 15 16  1  0
 15 17  1  0
 11  3  1  0
 17  6  2  0
  1 18  1  0
  1 19  1  0
  1 20  1  0
  2 21  1  0
  2 22  1  0
  9 23  1  0
  9 24  1  0
 10 25  1  0
 10 26  1  0
 10 27  1  0
 14 28  1  0
 14 29  1  0
 15 30  1  1
 16 31  1  0
 16 32  1  0
 16 33  1  0
M  END
>  <smiles>  (22) 
CCn1c(=O)c2c(n(CC)c1=O)=NCC(C)N=2

>  <score_type>  (22) 
oracle

>  <origin>  (22) 
adg

>  <m_score__min__energy>  (22) 
-5.6100000000000003

>  <m_primary>  (22) 
energy

$$$$
22:0
     RDKit          3D

 22 23  0  0  0  0  0  0  0  0999 V2000
   58.0420   32.3320   41.6480 C   0  0  0  0  0  0  0  0  0  0  0  0
   57.4220   31.7010   42.6030 C   0  0  0  0  0  0  0  0  0  0  0  0
   56.8090   31.0610   43.5640 C   0  0  0  0  0  0  0  0  0  0  0  0
   57.3620   29.8530   44.2310 C   0  0  0  0  0  0  0  0  0  0  0  0
   58.7710   29.6840   44.2220 C   0  0  0  0  0  0  0  0  0  0  0  0
   59.3770   28.5700   44.8300 C   0  0  0  0  0  0  0  0  0  0  0  0
   60.7650   28.4350   44.8030 O   0  0  0  0  0  0  0  0  0  0  0  0
   58.5460   27.6290   45.4460 C   0  0  0  0  0  0  0  0  0  0  0  0
   58.9040   26.4980   46.0830 N   0  0  0  0  0  0  0  0  0  0  0  0
   57.7520   25.9290   46.5040 C   0  0  0  0  0  0  0  0  0  0  0  0
   56.6570   26.7000   46.1360 C   0  0  0  0  0  0  0  0  0  0  0  0
   57.1860   27.7800   45.4610 C   0  0  0  0  0  0  0  0  0  0  0  0
   56.5520   28.8710   44.8680 C   0  0  0  0  0  0  0  0  0  0  0  0
   55.1650   28.9700   44.9150 O   0  0  0  0  0  0  0  0  0  0  0  0
   58.7938   33.0971   41.8919 H   0  0  0  0  0  0  0  0  0  0  0  0
   57.8141   32.1001   40.5971 H   0  0  0  0  0  0  0  0  0  0  0  0
   55.8304   31.4369   43.8973 H   0  0  0  0  0  0  0  0  0  0  0  0
   59.4015   30.4391   43.7298 H   0  0  0  0  0  0  0  0  0  0  0  0
   61.2700   28.2090   43.9540 H   0  0  0  0  0  0  0  0  0  0  0  0
   59.8660   26.1220   46.2310 H   0  0  0  0  0  0  0  0  0  0  0  0
   57.6904   24.9833   47.0625 H   0  0  0  0  0  0  0  0  0  0  0  0
   55.5958   26.4936   46.3393 H   0  0  0  0  0  0  0  0  0  0  0  0
  1  2  2  0
  2  3  2  0
  3  4  1  0
  4  5  2  0
  5  6  1  0
  6  7  1  0
  6  8  2  0
  8  9  1  0
  9 10  1  0
 10 11  2  0
 11 12  1  0
 12 13  2  0
 13 14  1  0
 13  4  1  0
 12  8  1  0
  1 15  1  0
  1 16  1  0
  3 17  1  0
  5 18  1  0
  7 19  1  0
  9 20  1  0
 10 21  1  0
 11 22  1  0
M  CHG  1  14  -1
M  END
>  <UniqueID>  (23) 
22

>  <SMILES>  (23) 
C=C=Cc1cc(O)c2[nH]ccc2c1[O-]

>  <Energy>  (23) 
55.02873822806749

>  <Genealogy>  (23) 
C=C=Cc1cc(O)c2[nH]ccc2c1[O-] (protonated)
C=C=Cc1cc(O)c2[nH]ccc2c1[O-] (3D coordinates assigned)
C=C=Cc1cc(O)c2[nH]ccc2c1[O-] (optimized conformer: 55.02873822806749 kcal/mol)

>  <smiles>  (23) 
C=C=Cc1cc(O)c2[nH]ccc2c1O

>  <score_type>  (23) 
oracle

>  <origin>  (23) 
adg

>  <m_score__min__energy>  (23) 
-8.3900000000000006

>  <m_primary>  (23) 
energy

$$$$
23:0
     RDKit          3D

 44 46  0  0  0  0  0  0  0  0999 V2000
   60.1815   25.4605   45.6018 H   0  0  0  0  0  0  0  0  0  0  0  0
   59.8260   26.4000   46.0500 C   0  0  0  0  0  0  0  0  0  0  0  0
   60.4780   26.9290   47.1670 C   0  0  0  0  0  0  0  0  0  0  0  0
   61.3395   26.3999   47.6003 H   0  0  0  0  0  0  0  0  0  0  0  0
   60.0390   28.1290   47.7360 C   0  0  0  0  0  0  0  0  0  0  0  0
   60.6770   28.6180   48.9270 N   0  0  0  0  0  0  0  0  0  0  0  0
   60.6430   29.9720   49.4070 C   0  0  0  0  0  0  0  0  0  0  0  0
   60.1420   30.2020   50.5380 O   0  0  0  0  0  0  0  0  0  0  0  0
   61.1630   31.1030   48.6010 C   0  0  0  0  0  0  0  0  0  0  0  0
   62.5360   31.3960   48.6050 C   0  0  0  0  0  0  0  0  0  0  0  0
   63.2142   30.8373   49.2667 H   0  0  0  0  0  0  0  0  0  0  0  0
   63.0430   32.3950   47.7710 C   0  0  0  0  0  0  0  0  0  0  0  0
   64.1210   32.6140   47.7709 H   0  0  0  0  0  0  0  0  0  0  0  0
   62.1860   33.1170   46.9370 C   0  0  0  0  0  0  0  0  0  0  0  0
   62.5955   33.8932   46.2738 H   0  0  0  0  0  0  0  0  0  0  0  0
   60.8100   32.8600   46.9390 C   0  0  0  0  0  0  0  0  0  0  0  0
   59.9940   33.6160   46.0820 O   0  0  0  0  0  0  0  0  0  0  0  0
   59.2340   34.7610   46.4630 C   0  0  0  0  0  0  0  0  0  0  0  0
   57.8950   34.5550   46.1870 F   0  0  0  0  0  0  0  0  0  0  0  0
   59.3840   34.9660   47.8210 F   0  0  0  0  0  0  0  0  0  0  0  0
   59.6860   35.8830   45.7900 F   0  0  0  0  0  0  0  0  0  0  0  0
   60.3000   31.8580   47.7870 C   0  0  0  0  0  0  0  0  0  0  0  0
   59.2175   31.6643   47.8128 H   0  0  0  0  0  0  0  0  0  0  0  0
   58.9800   28.8290   47.1330 C   0  0  0  0  0  0  0  0  0  0  0  0
   58.6930   29.8183   47.5190 H   0  0  0  0  0  0  0  0  0  0  0  0
   58.2840   28.2810   46.0440 C   0  0  0  0  0  0  0  0  0  0  0  0
   57.0580   28.9430   45.5430 C   0  0  0  0  0  0  0  0  0  0  0  0
   56.0380   28.2630   45.2460 O   0  0  0  0  0  0  0  0  0  0  0  0
   57.0270   30.3670   45.3960 N   0  0  0  0  0  0  0  0  0  0  0  0
   57.2850   31.0950   44.3410 C   0  0  0  0  0  0  0  0  0  0  0  0
   56.8970   30.7440   43.0120 C   0  0  0  0  0  0  0  0  0  0  0  0
   55.9890   29.6770   42.7130 N   0  0  0  0  0  0  0  0  0  0  0  0
   55.7640   28.9600   43.4380 H   0  0  0  0  0  0  0  0  0  0  0  0
   55.7520   29.4330   41.7280 H   0  0  0  0  0  0  0  0  0  0  0  0
   57.3320   31.5500   41.9520 C   0  0  0  0  0  0  0  0  0  0  0  0
   57.0893   31.2670   40.9171 H   0  0  0  0  0  0  0  0  0  0  0  0
   58.0680   32.7050   42.1960 C   0  0  0  0  0  0  0  0  0  0  0  0
   58.4104   33.3329   41.3603 H   0  0  0  0  0  0  0  0  0  0  0  0
   58.3660   33.0570   43.5070 C   0  0  0  0  0  0  0  0  0  0  0  0
   58.9218   33.9837   43.7129 H   0  0  0  0  0  0  0  0  0  0  0  0
   57.9730   32.2600   44.5360 N   0  0  0  0  0  0  0  0  0  0  0  0
   58.2350   32.5470   45.5060 H   0  0  0  0  0  0  0  0  0  0  0  0
   58.7230   27.0610   45.5000 C   0  0  0  0  0  0  0  0  0  0  0  0
   58.1967   26.6246   44.6382 H   0  0  0  0  0  0  0  0  0  0  0  0
  1  2  1  0
  2  3  2  0
  3  4  1  0
  3  5  1  0
  5  6  1  0
  6  7  1  0
  7  8  2  0
  7  9  1  0
  9 10  2  0
 10 11  1  0
 10 12  1  0
 12 13  1  0
 12 14  2  0
 14 15  1  0
 14 16  1  0
 16 17  1  0
 17 18  1  0
 18 19  1  0
 18 20  1  0
 18 21  1  0
 16 22  2  0
 22 23  1  0
  5 24  2  0
 24 25  1  0
 24 26  1  0
 26 27  1  0
 27 28  2  0
 27 29  1  0
 29 30  2  0
 30 31  1  0
 31 32  1  0
 32 33  1  0
 32 34  1  0
 31 35  2  0
 35 36  1  0
 35 37  1  0
 37 38  1  0
 37 39  2  0
 39 40  1  0
 39 41  1  0
 41 42  1  0
 26 43  2  0
 43 44  1  0
 43  2  1  0
 22  9  1  0
 41 30  1  0
M  CHG  1   6  -1
M  END
>  <UniqueID>  (24) 
23

>  <SMILES>  (24) 
Nc1ccc[nH]/c1=N/C(=O)c1cccc([N-]C(=O)c2cccc(OC(F)(F)F)c2)c1

>  <Energy>  (24) 
67.6086022719916

>  <Genealogy>  (24) 
Nc1ccc[nH]c1=NC(=O)c1cccc([N-]C(=O)c2cccc(OC(F)(F)F)c2)c1 (protonated)
Nc1ccc[nH]/c1=N/C(=O)c1cccc([N-]C(=O)c2cccc(OC(F)(F)F)c2)c1 (cis-trans isomerization)
Nc1ccc[nH]/c1=N/C(=O)c1cccc([N-]C(=O)c2cccc(OC(F)(F)F)c2)c1 (3D coordinates assigned)
Nc1ccc[nH]/c1=N/C(=O)c1cccc([N-]C(=O)c2cccc(OC(F)(F)F)c2)c1 (optimized conformer: 67.6086022719916 kcal/mol)

>  <smiles>  (24) 
Nc1ccc[nH]c1=NC(=O)c1cccc(NC(=O)c2cccc(OC(F)(F)F)c2)c1

>  <score_type>  (24) 
oracle

>  <origin>  (24) 
adg

>  <m_score__min__energy>  (24) 
-9.7899999999999991

>  <m_primary>  (24) 
energy

$$$$
24:0
     RDKit          3D

 39 41  0  0  0  0  0  0  0  0999 V2000
   61.3253   30.1303   47.2177 H   0  0  0  0  0  0  0  0  0  0  0  0
   60.5700   29.6740   46.5610 C   0  0  0  0  0  0  0  0  0  0  0  0
   60.6719   28.6229   46.2529 H   0  0  0  0  0  0  0  0  0  0  0  0
   59.5250   30.3990   46.1360 C   0  0  0  0  0  0  0  0  0  0  0  0
   58.4890   29.9630   45.3030 C   0  0  0  0  0  0  0  0  0  0  0  0
   58.3440   28.7440   44.7480 C   0  0  0  0  0  0  0  0  0  0  0  0
   58.7643   28.5744   43.7457 H   0  0  0  0  0  0  0  0  0  0  0  0
   57.6490   27.6210   45.4160 C   0  0  0  0  0  0  0  0  0  0  0  0
   56.2620   27.6760   45.6210 C   0  0  0  0  0  0  0  0  0  0  0  0
   55.5370   28.7980   45.2310 O   0  0  0  0  0  0  0  0  0  0  0  0
   55.6180   26.6340   46.2130 N   0  0  0  0  0  0  0  0  0  0  0  0
   54.5870   26.6910   46.3700 H   0  0  0  0  0  0  0  0  0  0  0  0
   56.2990   25.5220   46.6010 C   0  0  0  0  0  0  0  0  0  0  0  0
   55.6910   24.5680   47.1530 O   0  0  0  0  0  0  0  0  0  0  0  0
   57.6360   25.4350   46.3880 N   0  0  0  0  0  0  0  0  0  0  0  0
   58.3230   26.4480   45.8000 C   0  0  0  0  0  0  0  0  0  0  0  0
   59.5580   26.3140   45.5880 O   0  0  0  0  0  0  0  0  0  0  0  0
   57.6510   31.0560   45.1150 C   0  0  0  0  0  0  0  0  0  0  0  0
   56.7356   31.0855   44.5058 H   0  0  0  0  0  0  0  0  0  0  0  0
   58.1920   32.0970   45.8420 C   0  0  0  0  0  0  0  0  0  0  0  0
   57.6340   33.4850   45.9010 C   0  0  0  0  0  0  0  0  0  0  0  0
   57.5126   33.7870   46.9517 H   0  0  0  0  0  0  0  0  0  0  0  0
   58.3230   34.1789   45.3973 H   0  0  0  0  0  0  0  0  0  0  0  0
   56.6564   33.5089   45.3973 H   0  0  0  0  0  0  0  0  0  0  0  0
   59.3260   31.7010   46.4580 N   0  0  0  0  0  0  0  0  0  0  0  0
   60.1640   32.5290   47.2800 C   0  0  0  0  0  0  0  0  0  0  0  0
   61.3620   33.0310   46.7520 C   0  0  0  0  0  0  0  0  0  0  0  0
   61.6450   32.7946   45.7156 H   0  0  0  0  0  0  0  0  0  0  0  0
   62.1980   33.8300   47.5360 C   0  0  0  0  0  0  0  0  0  0  0  0
   63.1361   34.2220   47.1161 H   0  0  0  0  0  0  0  0  0  0  0  0
   61.8430   34.1310   48.8520 C   0  0  0  0  0  0  0  0  0  0  0  0
   62.6610   34.9020   49.6130 F   0  0  0  0  0  0  0  0  0  0  0  0
   60.6490   33.6410   49.3870 C   0  0  0  0  0  0  0  0  0  0  0  0
   60.3777   33.8775   50.4265 H   0  0  0  0  0  0  0  0  0  0  0  0
   59.7930   32.8480   48.6050 C   0  0  0  0  0  0  0  0  0  0  0  0
   58.5130   32.3220   49.1940 C   0  0  0  0  0  0  0  0  0  0  0  0
   58.5766   32.3481   50.2918 H   0  0  0  0  0  0  0  0  0  0  0  0
   57.6717   32.9473   48.8605 H   0  0  0  0  0  0  0  0  0  0  0  0
   58.3545   31.2858   48.8605 H   0  0  0  0  0  0  0  0  0  0  0  0
  1  2  1  0
  2  3  1  0
  2  4  2  0
  4  5  1  0
  5  6  2  0
  6  7  1  0
  6  8  1  0
  8  9  2  0
  9 10  1  0
  9 11  1  0
 11 12  1  0
 11 13  1  0
 13 14  2  0
 13 15  1  0
 15 16  1  0
 16 17  2  0
  5 18  1  0
 18 19  1  0
 18 20  2  0
 20 21  1  0
 21 22  1  0
 21 23  1  0
 21 24  1  0
 20 25  1  0
 25 26  1  0
 26 27  2  0
 27 28  1  0
 27 29  1  0
 29 30  1  0
 29 31  2  0
 31 32  1  0
 31 33  1  0
 33 34  1  0
 33 35  2  0
 35 36  1  0
 36 37  1  0
 36 38  1  0
 36 39  1  0
 25  4  1  0
 35 26  1  0
 16  8  1  0
M  CHG  2  10  -1  15  -1
M  END
>  <UniqueID>  (25) 
24

>  <SMILES>  (25) 
C=c1/c(=C/c2c([O-])[nH]c(=O)[n-]c2=O)cc(C)n1-c1ccc(F)cc1C

>  <Energy>  (25) 
85.73444601670866

>  <Genealogy>  (25) 
C=c1c(=Cc2c([O-])[nH]c(=O)[n-]c2=O)cc(C)n1-c1ccc(F)cc1C (protonated)
C=c1/c(=C/c2c([O-])[nH]c(=O)[n-]c2=O)cc(C)n1-c1ccc(F)cc1C (cis-trans isomerization)
C=c1/c(=C/c2c([O-])[nH]c(=O)[n-]c2=O)cc(C)n1-c1ccc(F)cc1C (3D coordinates assigned)
C=c1/c(=C/c2c([O-])[nH]c(=O)[n-]c2=O)cc(C)n1-c1ccc(F)cc1C (optimized conformer: 85.73444601670866 kcal/mol)

>  <smiles>  (25) 
C=c1c(=Cc2c(O)[nH]c(=O)[nH]c2=O)cc(C)n1-c1ccc(F)cc1C

>  <score_type>  (25) 
oracle

>  <origin>  (25) 
adg

>  <m_score__min__energy>  (25) 
-13.48

>  <m_primary>  (25) 
energy

$$$$
25:0
     RDKit          3D

 40 42  0  0  0  0  0  0  0  0999 V2000
   54.9830   26.3380   45.9710 N   0  0  0  0  0  0  0  0  0  0  0  0
   56.5270   25.5700   45.8650 S   0  0  0  0  0  0  0  0  0  0  0  0
   56.5940   24.4380   46.8510 O   0  0  0  0  0  0  0  0  0  0  0  0
   56.7140   25.0150   44.4810 O   0  0  0  0  0  0  0  0  0  0  0  0
   57.7930   26.7440   46.2150 C   0  0  0  0  0  0  0  0  0  0  0  0
   58.2920   27.5640   45.1950 C   0  0  0  0  0  0  0  0  0  0  0  0
   59.3040   28.4890   45.4680 C   0  0  0  0  0  0  0  0  0  0  0  0
   59.8380   28.5940   46.7620 C   0  0  0  0  0  0  0  0  0  0  0  0
   60.9020   29.6150   47.0640 C   0  0  0  0  0  0  0  0  0  0  0  0
   60.6860   30.2220   48.4500 C   0  0  0  0  0  0  0  0  0  0  0  0
   60.6800   31.6790   48.3500 N   0  0  0  0  0  0  0  0  0  0  0  0
   59.9700   32.3440   47.4900 C   0  0  0  0  0  0  0  0  0  0  0  0
   59.2360   31.6980   46.5410 N   0  0  0  0  0  0  0  0  0  0  0  0
   58.4860   32.3780   45.6310 C   0  0  0  0  0  0  0  0  0  0  0  0
   57.7020   31.6350   44.6150 C   0  0  0  0  0  0  0  0  0  0  0  0
   57.8270   31.9290   43.2460 C   0  0  0  0  0  0  0  0  0  0  0  0
   57.0730   31.2090   42.3150 C   0  0  0  0  0  0  0  0  0  0  0  0
   56.2050   30.2080   42.7490 C   0  0  0  0  0  0  0  0  0  0  0  0
   56.1020   29.9400   44.1130 C   0  0  0  0  0  0  0  0  0  0  0  0
   56.8430   30.6490   45.0050 N   0  0  0  0  0  0  0  0  0  0  0  0
   58.4720   33.7810   45.6770 C   0  0  0  0  0  0  0  0  0  0  0  0
   59.2290   34.4270   46.6560 C   0  0  0  0  0  0  0  0  0  0  0  0
   59.2350   35.6840   46.7220 O   0  0  0  0  0  0  0  0  0  0  0  0
   59.9600   33.7000   47.5390 N   0  0  0  0  0  0  0  0  0  0  0  0
   59.3310   27.7740   47.7830 C   0  0  0  0  0  0  0  0  0  0  0  0
   58.3190   26.8500   47.5090 C   0  0  0  0  0  0  0  0  0  0  0  0
   55.1570   27.3670   46.0160 H   0  0  0  0  0  0  0  0  0  0  0  0
   57.8863   27.4799   44.1760 H   0  0  0  0  0  0  0  0  0  0  0  0
   59.6837   29.1377   44.6649 H   0  0  0  0  0  0  0  0  0  0  0  0
   61.8886   29.1297   47.0315 H   0  0  0  0  0  0  0  0  0  0  0  0
   60.8479   30.4169   46.3129 H   0  0  0  0  0  0  0  0  0  0  0  0
   59.7223   29.8786   48.8541 H   0  0  0  0  0  0  0  0  0  0  0  0
   61.4993   29.9046   49.1191 H   0  0  0  0  0  0  0  0  0  0  0  0
   58.5134   32.7201   42.9098 H   0  0  0  0  0  0  0  0  0  0  0  0
   57.1643   31.4318   41.2417 H   0  0  0  0  0  0  0  0  0  0  0  0
   55.6082   29.6362   42.0232 H   0  0  0  0  0  0  0  0  0  0  0  0
   55.4199   29.1534   44.4681 H   0  0  0  0  0  0  0  0  0  0  0  0
   57.8763   34.3599   44.9559 H   0  0  0  0  0  0  0  0  0  0  0  0
   59.7324   27.8594   48.8036 H   0  0  0  0  0  0  0  0  0  0  0  0
   57.9343   26.2040   48.3119 H   0  0  0  0  0  0  0  0  0  0  0  0
  1  2  1  0
  2  3  2  0
  2  4  2  0
  2  5  1  0
  5  6  2  0
  6  7  1  0
  7  8  2  0
  8  9  1  0
  9 10  1  0
 10 11  1  0
 11 12  2  3
 12 13  1  0
 13 14  1  0
 14 15  1  0
 15 16  2  0
 16 17  1  0
 17 18  2  0
 18 19  1  0
 19 20  2  0
 14 21  2  0
 21 22  1  0
 22 23  2  0
 22 24  1  0
  8 25  1  0
 25 26  2  0
 26  5  1  0
 24 12  1  0
 20 15  1  0
  1 27  1  0
  6 28  1  0
  7 29  1  0
  9 30  1  0
  9 31  1  0
 10 32  1  0
 10 33  1  0
 16 34  1  0
 17 35  1  0
 18 36  1  0
 19 37  1  0
 21 38  1  0
 25 39  1  0
 26 40  1  0
M  CHG  3   1  -1  13  -1  24  -1
M  END
>  <UniqueID>  (26) 
25

>  <SMILES>  (26) 
[NH-]S(=O)(=O)c1ccc(CCN=c2[n-]c(-c3ccccn3)cc(=O)[n-]2)cc1

>  <Energy>  (26) 
41.59747412642434

>  <Genealogy>  (26) 
[NH-]S(=O)(=O)c1ccc(CCN=c2[n-]c(-c3ccccn3)cc(=O)[n-]2)cc1 (protonated)
[NH-]S(=O)(=O)c1ccc(CCN=c2[n-]c(-c3ccccn3)cc(=O)[n-]2)cc1 (3D coordinates assigned)
[NH-]S(=O)(=O)c1ccc(CCN=c2[n-]c(-c3ccccn3)cc(=O)[n-]2)cc1 (optimized conformer: 41.59747412642434 kcal/mol)

>  <smiles>  (26) 
NS(=O)(=O)c1ccc(CCN=c2[nH]c(-c3ccccn3)cc(=O)[nH]2)cc1

>  <score_type>  (26) 
oracle

>  <origin>  (26) 
adg

>  <m_score__min__energy>  (26) 
-12.859999999999999

>  <m_primary>  (26) 
energy

$$$$
26:0
     RDKit          3D

 68 71  0  0  0  0  0  0  0  0999 V2000
   59.6620   34.5690   49.3340 C   0  0  0  0  0  0  0  0  0  0  0  0
   61.0390   34.4090   49.6600 O   0  0  0  0  0  0  0  0  0  0  0  0
   61.9370   33.5920   48.9520 C   0  0  0  0  0  0  0  0  0  0  0  0
   62.1820   33.7780   47.5770 C   0  0  0  0  0  0  0  0  0  0  0  0
   63.0730   32.9410   46.9000 C   0  0  0  0  0  0  0  0  0  0  0  0
   63.7290   31.9150   47.5830 C   0  0  0  0  0  0  0  0  0  0  0  0
   63.4970   31.7210   48.9460 C   0  0  0  0  0  0  0  0  0  0  0  0
   62.6050   32.5550   49.6410 C   0  0  0  0  0  0  0  0  0  0  0  0
   62.3420   32.3200   51.1060 C   0  0  0  0  0  0  0  0  0  0  0  0
   60.9600   32.0960   51.2960 O   0  0  0  0  0  0  0  0  0  0  0  0
   60.7420   31.0210   52.1930 C   0  0  0  0  0  0  0  0  0  0  0  0
   61.9270   30.0570   52.1270 C   0  0  0  0  0  0  0  0  0  0  0  0
   61.8960   29.2190   50.8420 C   0  0  0  0  0  0  0  0  0  0  0  0
   60.5560   29.0450   50.3850 O   0  0  0  0  0  0  0  0  0  0  0  0
   59.9890   29.6550   49.2550 C   0  0  0  0  0  0  0  0  0  0  0  0
   60.0440   28.9650   48.0420 C   0  0  0  0  0  0  0  0  0  0  0  0
   59.5130   29.5250   46.8780 C   0  0  0  0  0  0  0  0  0  0  0  0
   58.9180   30.7970   46.9070 C   0  0  0  0  0  0  0  0  0  0  0  0
   58.3760   31.3710   45.6950 N   0  0  0  0  0  0  0  0  0  0  0  0
   58.3540   32.7990   45.5120 C   0  0  0  0  0  0  0  0  0  0  0  0
   58.3550   33.5720   46.5060 O   0  0  0  0  0  0  0  0  0  0  0  0
   58.4130   33.3770   44.1260 C   0  0  0  0  0  0  0  0  0  0  0  0
   57.7380   32.5180   43.1460 N   0  0  0  0  0  0  0  0  0  0  0  0
   58.2010   31.1260   43.2450 C   0  0  0  0  0  0  0  0  0  0  0  0
   57.8580   30.5120   44.6180 C   0  0  2  0  0  0  0  0  0  0  0  0
   56.3700   30.3040   44.7550 C   0  0  0  0  0  0  0  0  0  0  0  0
   55.5810   31.2900   44.7330 O   0  0  0  0  0  0  0  0  0  0  0  0
   55.8690   28.9790   44.9570 N   0  0  0  0  0  0  0  0  0  0  0  0
   56.6410   27.8090   45.2680 C   0  0  0  0  0  0  0  0  0  0  0  0
   57.9470   27.7230   44.7710 C   0  0  0  0  0  0  0  0  0  0  0  0
   58.7310   26.5950   45.0220 C   0  0  0  0  0  0  0  0  0  0  0  0
   58.2110   25.5150   45.7540 C   0  0  0  0  0  0  0  0  0  0  0  0
   59.0400   24.3180   46.0090 C   0  0  0  0  0  0  0  0  0  0  0  0
   58.5060   23.2270   46.3460 O   0  0  0  0  0  0  0  0  0  0  0  0
   60.4230   24.3720   45.8640 O   0  0  0  0  0  0  0  0  0  0  0  0
   56.8880   25.5870   46.2270 C   0  0  0  0  0  0  0  0  0  0  0  0
   56.1010   26.7170   45.9780 C   0  0  0  0  0  0  0  0  0  0  0  0
   54.8030   26.7090   46.3780 F   0  0  0  0  0  0  0  0  0  0  0  0
   58.8470   31.4860   48.1290 C   0  0  0  0  0  0  0  0  0  0  0  0
   59.3840   30.9250   49.2930 C   0  0  0  0  0  0  0  0  0  0  0  0
   59.0716   34.6376   50.2596 H   0  0  0  0  0  0  0  0  0  0  0  0
   59.5290   35.4886   48.7453 H   0  0  0  0  0  0  0  0  0  0  0  0
   59.3217   33.7044   48.7453 H   0  0  0  0  0  0  0  0  0  0  0  0
   61.6696   34.5858   47.0340 H   0  0  0  0  0  0  0  0  0  0  0  0
   63.2581   33.0909   45.8261 H   0  0  0  0  0  0  0  0  0  0  0  0
   64.4297   31.2585   47.0463 H   0  0  0  0  0  0  0  0  0  0  0  0
   64.0156   30.9104   49.4789 H   0  0  0  0  0  0  0  0  0  0  0  0
   62.9082   31.4402   51.4457 H   0  0  0  0  0  0  0  0  0  0  0  0
   62.6587   33.1995   51.6858 H   0  0  0  0  0  0  0  0  0  0  0  0
   60.6429   31.4114   53.2166 H   0  0  0  0  0  0  0  0  0  0  0  0
   59.8201   30.4900   51.9134 H   0  0  0  0  0  0  0  0  0  0  0  0
   62.8616   30.6364   52.1540 H   0  0  0  0  0  0  0  0  0  0  0  0
   61.8661   29.3741   52.9872 H   0  0  0  0  0  0  0  0  0  0  0  0
   62.4795   29.7313   50.0628 H   0  0  0  0  0  0  0  0  0  0  0  0
   62.3281   28.2300   51.0546 H   0  0  0  0  0  0  0  0  0  0  0  0
   60.5106   27.9696   48.0030 H   0  0  0  0  0  0  0  0  0  0  0  0
   59.5611   28.9660   45.9318 H   0  0  0  0  0  0  0  0  0  0  0  0
   57.9250   34.3628   44.1307 H   0  0  0  0  0  0  0  0  0  0  0  0
   59.4708   33.4597   43.8357 H   0  0  0  0  0  0  0  0  0  0  0  0
   56.7050   32.5580   43.3110 H   0  0  0  0  0  0  0  0  0  0  0  0
   57.7166   30.5313   42.4565 H   0  0  0  0  0  0  0  0  0  0  0  0
   59.2946   31.1169   43.1265 H   0  0  0  0  0  0  0  0  0  0  0  0
   58.3394   29.5261   44.6968 H   0  0  0  0  0  0  0  0  0  0  0  0
   58.3595   28.5519   44.1771 H   0  0  0  0  0  0  0  0  0  0  0  0
   59.7630   26.5520   44.6438 H   0  0  0  0  0  0  0  0  0  0  0  0
   56.4678   24.7463   46.7985 H   0  0  0  0  0  0  0  0  0  0  0  0
   58.3656   32.4741   48.1712 H   0  0  0  0  0  0  0  0  0  0  0  0
   59.3330   31.4791   50.2419 H   0  0  0  0  0  0  0  0  0  0  0  0
  1  2  1  0
  2  3  1  0
  3  4  2  0
  4  5  1  0
  5  6  2  0
  6  7  1  0
  7  8  2  0
  8  9  1  0
  9 10  1  0
 10 11  1  0
 11 12  1  0
 12 13  1  0
 13 14  1  0
 14 15  1  0
 15 16  2  0
 16 17  1  0
 17 18  2  0
 18 19  1  0
 19 20  1  0
 20 21  2  0
 20 22  1  0
 22 23  1  0
 23 24  1  0
 24 25  1  0
 25 26  1  0
 26 27  2  0
 26 28  1  0
 28 29  1  0
 29 30  2  0
 30 31  1  0
 31 32  2  0
 32 33  1  0
 33 34  2  0
 33 35  1  0
 32 36  1  0
 36 37  2  0
 37 38  1  0
 18 39  1  0
 39 40  2  0
  8  3  1  0
 40 15  1  0
 25 19  1  0
 37 29  1  0
  1 41  1  0
  1 42  1  0
  1 43  1  0
  4 44  1  0
  5 45  1  0
  6 46  1  0
  7 47  1  0
  9 48  1  0
  9 49  1  0
 11 50  1  0
 11 51  1  0
 12 52  1  0
 12 53  1  0
 13 54  1  0
 13 55  1  0
 16 56  1  0
 17 57  1  0
 22 58  1  0
 22 59  1  0
 23 60  1  0
 24 61  1  0
 24 62  1  0
 25 63  1  6
 30 64  1  0
 31 65  1  0
 36 66  1  0
 39 67  1  0
 40 68  1  0
M  CHG  2  28  -1  35  -1
M  END
>  <UniqueID>  (27) 
26

>  <SMILES>  (27) 
COc1ccccc1COCCCOc1ccc(N2C(=O)CNC[C@@H]2C(=O)[N-]c2ccc(C(=O)[O-])cc2F)cc1

>  <Energy>  (27) 
82.72598054630575

>  <Genealogy>  (27) 
COc1ccccc1COCCCOc1ccc(N2C(=O)CNCC2C(=O)[N-]c2ccc(C(=O)[O-])cc2F)cc1 (protonated)
COc1ccccc1COCCCOc1ccc(N2C(=O)CNC[C@@H]2C(=O)[N-]c2ccc(C(=O)[O-])cc2F)cc1 (chirality)
COc1ccccc1COCCCOc1ccc(N2C(=O)CNC[C@@H]2C(=O)[N-]c2ccc(C(=O)[O-])cc2F)cc1 (3D coordinates assigned)
COc1ccccc1COCCCOc1ccc(N2C(=O)CNC[C@@H]2C(=O)[N-]c2ccc(C(=O)[O-])cc2F)cc1 (nonaromatic ring conformer: 82.72598054630575 kcal/mol)

>  <smiles>  (27) 
COc1ccccc1COCCCOc1ccc(N2C(=O)CNCC2C(=O)Nc2ccc(C(=O)O)cc2F)cc1

>  <score_type>  (27) 
oracle

>  <origin>  (27) 
adg

>  <m_score__min__energy>  (27) 
-12.17

>  <m_primary>  (27) 
energy

$$$$
27:0
     RDKit          3D

 64 66  0  0  0  0  0  0  0  0999 V2000
   56.2510   29.7260   42.9520 C   0  0  0  0  0  0  0  0  0  0  0  0
   57.1480   30.9650   42.8860 C   0  0  0  0  0  0  0  0  0  0  0  0
   57.6690   31.4360   44.2580 C   0  0  1  0  0  0  0  0  0  0  0  0
   57.3760   32.9290   44.5040 C   0  0  0  0  0  0  0  0  0  0  0  0
   58.2710   33.5100   45.5700 C   0  0  0  0  0  0  0  0  0  0  0  0
   58.0980   33.1310   46.9140 C   0  0  0  0  0  0  0  0  0  0  0  0
   58.9100   33.6790   47.9100 C   0  0  0  0  0  0  0  0  0  0  0  0
   59.9010   34.6060   47.5730 C   0  0  0  0  0  0  0  0  0  0  0  0
   60.0740   34.9940   46.2430 C   0  0  0  0  0  0  0  0  0  0  0  0
   59.2610   34.4520   45.2430 C   0  0  0  0  0  0  0  0  0  0  0  0
   57.0760   30.6140   45.3090 N   0  0  0  0  0  0  0  0  0  0  0  0
   57.7820   29.6060   46.0420 C   0  0  0  0  0  0  0  0  0  0  0  0
   57.4960   28.3880   45.8970 O   0  0  0  0  0  0  0  0  0  0  0  0
   58.8250   30.0150   47.0370 C   0  0  0  0  0  0  0  0  0  0  0  0
   59.1200   28.8830   48.0350 C   0  0  0  0  0  0  0  0  0  0  0  0
   59.3170   29.3730   49.4760 C   0  0  0  0  0  0  0  0  0  0  0  0
   58.2160   30.1840   49.8860 O   0  0  0  0  0  0  0  0  0  0  0  0
   58.1870   30.9070   51.0840 C   0  0  0  0  0  0  0  0  0  0  0  0
   59.1200   31.9420   51.2460 C   0  0  0  0  0  0  0  0  0  0  0  0
   59.9880   32.2660   50.2090 O   0  0  0  0  0  0  0  0  0  0  0  0
   59.1990   32.6400   52.4550 C   0  0  0  0  0  0  0  0  0  0  0  0
   58.3520   32.3050   53.5130 C   0  0  0  0  0  0  0  0  0  0  0  0
   57.3930   31.3030   53.3480 C   0  0  0  0  0  0  0  0  0  0  0  0
   57.2720   30.6260   52.1280 C   0  0  0  0  0  0  0  0  0  0  0  0
   56.1810   29.7090   51.9710 N   0  0  0  0  0  0  0  0  0  0  0  0
   54.9990   29.6560   52.7830 C   0  0  0  0  0  0  0  0  0  0  0  0
   55.0190   28.9460   53.8240 O   0  0  0  0  0  0  0  0  0  0  0  0
   53.7750   30.4260   52.4650 C   0  0  0  0  0  0  0  0  0  0  0  0
   53.5850   30.9960   51.1950 C   0  0  0  0  0  0  0  0  0  0  0  0
   52.4380   31.7460   50.9240 C   0  0  0  0  0  0  0  0  0  0  0  0
   51.4790   31.9530   51.9180 C   0  0  0  0  0  0  0  0  0  0  0  0
   50.3520   32.7140   51.6360 O   0  0  0  0  0  0  0  0  0  0  0  0
   51.6540   31.4030   53.1940 C   0  0  0  0  0  0  0  0  0  0  0  0
   50.6700   31.6380   54.1690 O   0  0  0  0  0  0  0  0  0  0  0  0
   50.2650   32.9310   54.6100 C   0  0  0  0  0  0  0  0  0  0  0  0
   52.8070   30.6380   53.4610 C   0  0  0  0  0  0  0  0  0  0  0  0
   56.0624   29.4655   44.0039 H   0  0  0  0  0  0  0  0  0  0  0  0
   55.2956   29.9379   42.4497 H   0  0  0  0  0  0  0  0  0  0  0  0
   56.7506   28.8845   42.4497 H   0  0  0  0  0  0  0  0  0  0  0  0
   58.0138   30.7316   42.2489 H   0  0  0  0  0  0  0  0  0  0  0  0
   56.5325   31.7822   42.4819 H   0  0  0  0  0  0  0  0  0  0  0  0
   58.7627   31.3188   44.2706 H   0  0  0  0  0  0  0  0  0  0  0  0
   57.5349   33.4817   43.5663 H   0  0  0  0  0  0  0  0  0  0  0  0
   56.3347   33.0199   44.8466 H   0  0  0  0  0  0  0  0  0  0  0  0
   57.3204   32.4004   47.1815 H   0  0  0  0  0  0  0  0  0  0  0  0
   58.7697   33.3811   48.9596 H   0  0  0  0  0  0  0  0  0  0  0  0
   60.5454   35.0303   48.3570 H   0  0  0  0  0  0  0  0  0  0  0  0
   60.8512   35.7273   45.9815 H   0  0  0  0  0  0  0  0  0  0  0  0
   59.3968   34.7640   44.1969 H   0  0  0  0  0  0  0  0  0  0  0  0
   59.7510   30.2703   46.5009 H   0  0  0  0  0  0  0  0  0  0  0  0
   58.4480   30.8828   47.5981 H   0  0  0  0  0  0  0  0  0  0  0  0
   58.2768   28.1768   48.0196 H   0  0  0  0  0  0  0  0  0  0  0  0
   60.0637   28.4129   47.7213 H   0  0  0  0  0  0  0  0  0  0  0  0
   59.3950   28.5040   50.1458 H   0  0  0  0  0  0  0  0  0  0  0  0
   60.2371   29.9739   49.5235 H   0  0  0  0  0  0  0  0  0  0  0  0
   59.9294   33.4540   52.5726 H   0  0  0  0  0  0  0  0  0  0  0  0
   58.4398   32.8297   54.4758 H   0  0  0  0  0  0  0  0  0  0  0  0
   56.7268   31.0433   54.1839 H   0  0  0  0  0  0  0  0  0  0  0  0
   54.3426   30.8511   50.4107 H   0  0  0  0  0  0  0  0  0  0  0  0
   52.2894   32.1758   49.9224 H   0  0  0  0  0  0  0  0  0  0  0  0
   50.2567   32.9574   55.7097 H   0  0  0  0  0  0  0  0  0  0  0  0
   50.9699   33.6853   54.2304 H   0  0  0  0  0  0  0  0  0  0  0  0
   49.2557   33.1484   54.2304 H   0  0  0  0  0  0  0  0  0  0  0  0
   52.9508   30.2019   54.4606 H   0  0  0  0  0  0  0  0  0  0  0  0
  1  2  1  0
  2  3  1  0
  3  4  1  0
  4  5  1  0
  5  6  2  0
  6  7  1  0
  7  8  2  0
  8  9  1  0
  9 10  2  0
  3 11  1  0
 11 12  1  0
 12 13  2  0
 12 14  1  0
 14 15  1  0
 15 16  1  0
 16 17  1  0
 17 18  1  0
 18 19  2  0
 19 20  1  0
 19 21  1  0
 21 22  2  0
 22 23  1  0
 23 24  2  0
 24 25  1  0
 25 26  1  0
 26 27  2  0
 26 28  1  0
 28 29  2  0
 29 30  1  0
 30 31  2  0
 31 32  1  0
 31 33  1  0
 33 34  1  0
 34 35  1  0
 33 36  2  0
 10  5  1  0
 24 18  1  0
 36 28  1  0
  1 37  1  0
  1 38  1  0
  1 39  1  0
  2 40  1  0
  2 41  1  0
  3 42  1  6
  4 43  1  0
  4 44  1  0
  6 45  1  0
  7 46  1  0
  8 47  1  0
  9 48  1  0
 10 49  1  0
 14 50  1  0
 14 51  1  0
 15 52  1  0
 15 53  1  0
 16 54  1  0
 16 55  1  0
 21 56  1  0
 22 57  1  0
 23 58  1  0
 29 59  1  0
 30 60  1  0
 35 61  1  0
 35 62  1  0
 35 63  1  0
 36 64  1  0
M  CHG  4  11  -1  20  -1  25  -1  32  -1
M  END
>  <UniqueID>  (28) 
27

>  <SMILES>  (28) 
CC[C@@H](Cc1ccccc1)[N-]C(=O)CCCOc1c([O-])cccc1[N-]C(=O)c1ccc([O-])c(OC)c1

>  <Energy>  (28) 
63.416480147680225

>  <Genealogy>  (28) 
CCC(Cc1ccccc1)[N-]C(=O)CCCOc1c([O-])cccc1[N-]C(=O)c1ccc([O-])c(OC)c1 (protonated)
CC[C@@H](Cc1ccccc1)[N-]C(=O)CCCOc1c([O-])cccc1[N-]C(=O)c1ccc([O-])c(OC)c1 (chirality)
CC[C@@H](Cc1ccccc1)[N-]C(=O)CCCOc1c([O-])cccc1[N-]C(=O)c1ccc([O-])c(OC)c1 (3D coordinates assigned)
CC[C@@H](Cc1ccccc1)[N-]C(=O)CCCOc1c([O-])cccc1[N-]C(=O)c1ccc([O-])c(OC)c1 (optimized conformer: 63.416480147680225 kcal/mol)

>  <smiles>  (28) 
CCC(Cc1ccccc1)NC(=O)CCCOc1c(O)cccc1NC(=O)c1ccc(O)c(OC)c1

>  <score_type>  (28) 
oracle

>  <origin>  (28) 
adg

>  <m_score__min__energy>  (28) 
-16.559999999999999

>  <m_primary>  (28) 
energy

$$$$
28:0
     RDKit          3D

 52 55  0  0  0  0  0  0  0  0999 V2000
   56.6440   30.9460   45.6210 H   0  0  0  0  0  0  0  0  0  0  0  0
   56.7310   30.1210   45.0430 O   0  0  0  0  0  0  0  0  0  0  0  0
   56.9100   28.8410   45.5730 C   0  0  0  0  0  0  0  0  0  0  0  0
   55.9040   27.9370   45.4430 N   0  0  0  0  0  0  0  0  0  0  0  0
   56.0090   26.6840   45.9540 C   0  0  0  0  0  0  0  0  0  0  0  0
   55.0620   25.8680   45.8160 O   0  0  0  0  0  0  0  0  0  0  0  0
   57.1330   26.3130   46.6170 N   0  0  0  0  0  0  0  0  0  0  0  0
   58.1720   27.1730   46.7760 C   0  0  0  0  0  0  0  0  0  0  0  0
   59.1980   26.7950   47.4010 O   0  0  0  0  0  0  0  0  0  0  0  0
   58.0980   28.4670   46.2360 C   0  0  0  0  0  0  0  0  0  0  0  0
   59.2130   29.4140   46.4270 C   0  0  0  0  0  0  0  0  0  0  0  0
   59.7454   29.7522   45.5258 H   0  0  0  0  0  0  0  0  0  0  0  0
   59.6350   29.9000   47.6100 C   0  0  0  0  0  0  0  0  0  0  0  0
   60.6920   29.3380   48.3100 C   0  0  0  0  0  0  0  0  0  0  0  0
   61.3164   28.4925   47.9856 H   0  0  0  0  0  0  0  0  0  0  0  0
   60.8110   30.0410   49.4900 C   0  0  0  0  0  0  0  0  0  0  0  0
   61.7920   29.7210   50.5770 C   0  0  0  0  0  0  0  0  0  0  0  0
   61.3169   29.8760   51.5569 H   0  0  0  0  0  0  0  0  0  0  0  0
   62.1110   28.6722   50.4859 H   0  0  0  0  0  0  0  0  0  0  0  0
   62.6681   30.3800   50.4859 H   0  0  0  0  0  0  0  0  0  0  0  0
   59.8730   31.0110   49.5540 N   0  0  0  0  0  0  0  0  0  0  0  0
   59.7100   31.9440   50.6360 C   0  0  0  0  0  0  0  0  0  0  0  0
   59.3390   31.4650   51.9010 C   0  0  0  0  0  0  0  0  0  0  0  0
   59.2135   30.3839   52.0605 H   0  0  0  0  0  0  0  0  0  0  0  0
   59.1280   32.3510   52.9590 C   0  0  0  0  0  0  0  0  0  0  0  0
   58.8379   31.9671   53.9482 H   0  0  0  0  0  0  0  0  0  0  0  0
   59.2850   33.7230   52.7620 C   0  0  0  0  0  0  0  0  0  0  0  0
   59.1162   34.4196   53.5964 H   0  0  0  0  0  0  0  0  0  0  0  0
   59.6560   34.2150   51.5080 C   0  0  0  0  0  0  0  0  0  0  0  0
   59.7822   35.2978   51.3612 H   0  0  0  0  0  0  0  0  0  0  0  0
   59.8690   33.3350   50.4330 C   0  0  0  0  0  0  0  0  0  0  0  0
   60.2980   33.8810   49.1220 C   0  0  0  0  0  0  0  0  0  0  0  0
   59.4740   34.5360   48.4280 O   0  0  0  0  0  0  0  0  0  0  0  0
   61.6210   33.6380   48.6080 N   0  0  0  0  0  0  0  0  0  0  0  0
   62.7980   33.7080   49.4870 C   0  0  0  0  0  0  0  0  0  0  0  0
   63.2821   34.6879   49.3631 H   0  0  0  0  0  0  0  0  0  0  0  0
   62.4680   33.5709   50.5273 H   0  0  0  0  0  0  0  0  0  0  0  0
   63.8120   32.5960   49.1410 C   0  0  0  0  0  0  0  0  0  0  0  0
   64.8277   33.0025   49.2554 H   0  0  0  0  0  0  0  0  0  0  0  0
   63.6200   31.7571   49.8261 H   0  0  0  0  0  0  0  0  0  0  0  0
   63.6680   32.0780   47.7680 N   0  0  0  0  0  0  0  0  0  0  0  0
   64.5990   31.7110   47.4560 H   0  0  0  0  0  0  0  0  0  0  0  0
   63.2520   33.1230   46.8290 C   0  0  0  0  0  0  0  0  0  0  0  0
   63.9251   33.9883   46.9195 H   0  0  0  0  0  0  0  0  0  0  0  0
   63.2958   32.7351   45.8006 H   0  0  0  0  0  0  0  0  0  0  0  0
   61.8190   33.5520   47.1570 C   0  0  0  0  0  0  0  0  0  0  0  0
   61.6255   34.5371   46.7075 H   0  0  0  0  0  0  0  0  0  0  0  0
   61.1243   32.8026   46.7498 H   0  0  0  0  0  0  0  0  0  0  0  0
   59.1600   30.9610   48.4010 C   0  0  0  0  0  0  0  0  0  0  0  0
   58.1940   31.8440   48.0990 C   0  0  0  0  0  0  0  0  0  0  0  0
   57.9222   32.6297   48.8193 H   0  0  0  0  0  0  0  0  0  0  0  0
   57.6746   31.7815   47.1313 H   0  0  0  0  0  0  0  0  0  0  0  0
  1  2  1  0
  2  3  1  0
  3  4  1  0
  4  5  1  0
  5  6  2  0
  5  7  1  0
  7  8  1  0
  8  9  2  0
  8 10  1  0
 10 11  1  0
 11 12  1  0
 11 13  2  0
 13 14  1  0
 14 15  1  0
 14 16  2  0
 16 17  1  0
 17 18  1  0
 17 19  1  0
 17 20  1  0
 16 21  1  0
 21 22  1  0
 22 23  2  0
 23 24  1  0
 23 25  1  0
 25 26  1  0
 25 27  2  0
 27 28  1  0
 27 29  1  0
 29 30  1  0
 29 31  2  0
 31 32  1  0
 32 33  2  0
 32 34  1  0
 34 35  1  0
 35 36  1  0
 35 37  1  0
 35 38  1  0
 38 39  1  0
 38 40  1  0
 38 41  1  0
 41 42  1  0
 41 43  1  0
 43 44  1  0
 43 45  1  0
 43 46  1  0
 46 47  1  0
 46 48  1  0
 21 49  1  0
 49 50  2  0
 50 51  1  0
 50 52  1  0
 10  3  2  0
 49 13  1  0
 31 22  1  0
 46 34  1  0
M  CHG  2   4  -1   7  -1
M  END
>  <UniqueID>  (29) 
28

>  <SMILES>  (29) 
C=c1/c(=C\c2c(O)[n-]c(=O)[n-]c2=O)cc(C)n1-c1ccccc1C(=O)N1CCNCC1

>  <Energy>  (29) 
112.8037249944681

>  <Genealogy>  (29) 
C=c1c(=Cc2c(O)[n-]c(=O)[n-]c2=O)cc(C)n1-c1ccccc1C(=O)N1CCNCC1 (protonated)
C=c1/c(=C\c2c(O)[n-]c(=O)[n-]c2=O)cc(C)n1-c1ccccc1C(=O)N1CCNCC1 (cis-trans isomerization)
C=c1/c(=C\c2c(O)[n-]c(=O)[n-]c2=O)cc(C)n1-c1ccccc1C(=O)N1CCNCC1 (3D coordinates assigned)
C=c1/c(=C\c2c(O)[n-]c(=O)[n-]c2=O)cc(C)n1-c1ccccc1C(=O)N1CCNCC1 (nonaromatic ring conformer: 112.8037249944681 kcal/mol)

>  <smiles>  (29) 
C=c1c(=Cc2c(O)[nH]c(=O)[nH]c2=O)cc(C)n1-c1ccccc1C(=O)N1CCNCC1

>  <score_type>  (29) 
oracle

>  <origin>  (29) 
adg

>  <m_score__min__energy>  (29) 
-13.92

>  <m_primary>  (29) 
energy

$$$$
29:0
     RDKit          3D

 44 47  0  0  0  0  0  0  0  0999 V2000
   54.7770   26.3010   45.9490 N   0  0  0  0  0  0  0  0  0  0  0  0
   56.1270   25.2380   46.1290 S   0  0  0  0  0  0  0  0  0  0  0  0
   55.9070   24.3460   47.3170 O   0  0  0  0  0  0  0  0  0  0  0  0
   56.2600   24.4000   44.8890 O   0  0  0  0  0  0  0  0  0  0  0  0
   57.5900   26.1750   46.3620 C   0  0  0  0  0  0  0  0  0  0  0  0
   57.6470   27.5440   46.5660 C   0  0  0  0  0  0  0  0  0  0  0  0
   58.9620   28.0300   46.7000 C   0  0  0  0  0  0  0  0  0  0  0  0
   59.2910   29.4600   46.9240 C   0  0  0  0  0  0  0  0  0  0  0  0
   58.2900   30.3700   47.3660 C   0  0  0  0  0  0  0  0  0  0  0  0
   58.5900   31.7260   47.5810 C   0  0  0  0  0  0  0  0  0  0  0  0
   59.8960   32.1470   47.3410 C   0  0  0  0  0  0  0  0  0  0  0  0
   60.5320   33.3660   47.4560 C   0  0  0  0  0  0  0  0  0  0  0  0
   59.9280   34.6560   47.8450 C   0  0  0  0  0  0  0  0  0  0  0  0
   59.8520   34.9550   49.0650 O   0  0  0  0  0  0  0  0  0  0  0  0
   59.4180   35.5890   46.8820 N   0  0  0  0  0  0  0  0  0  0  0  0
   59.3540   35.3910   45.4360 C   0  0  0  0  0  0  0  0  0  0  0  0
   58.5600   34.1550   45.0980 C   0  0  0  0  0  0  0  0  0  0  0  0
   57.3660   33.8700   45.7740 C   0  0  0  0  0  0  0  0  0  0  0  0
   56.6350   32.7250   45.4530 C   0  0  0  0  0  0  0  0  0  0  0  0
   57.1090   31.8570   44.4580 C   0  0  0  0  0  0  0  0  0  0  0  0
   56.3590   30.6380   44.0890 C   0  0  0  0  0  0  0  0  0  0  0  0
   56.9200   29.6790   43.1890 N   0  0  0  0  0  0  0  0  0  0  0  0
   55.2110   30.4310   44.5660 O   0  0  0  0  0  0  0  0  0  0  0  0
   58.2810   32.1460   43.8260 N   0  0  0  0  0  0  0  0  0  0  0  0
   59.0100   33.2550   44.1220 C   0  0  0  0  0  0  0  0  0  0  0  0
   61.8280   33.2010   47.0990 N   0  0  0  0  0  0  0  0  0  0  0  0
   62.0360   31.9280   46.7780 N   0  0  0  0  0  0  0  0  0  0  0  0
   60.8660   31.2830   46.9240 C   0  0  0  0  0  0  0  0  0  0  0  0
   60.6080   29.9350   46.7040 C   0  0  0  0  0  0  0  0  0  0  0  0
   59.9260   27.0230   46.5930 C   0  0  0  0  0  0  0  0  0  0  0  0
   59.1480   25.5550   46.3390 S   0  0  0  0  0  0  0  0  0  0  0  0
   54.8510   27.0190   46.7040 H   0  0  0  0  0  0  0  0  0  0  0  0
   56.7555   28.1863   46.6181 H   0  0  0  0  0  0  0  0  0  0  0  0
   57.2667   30.0067   47.5419 H   0  0  0  0  0  0  0  0  0  0  0  0
   57.8197   32.4310   47.9270 H   0  0  0  0  0  0  0  0  0  0  0  0
   58.8734   36.2657   44.9734 H   0  0  0  0  0  0  0  0  0  0  0  0
   60.3774   35.2677   45.0521 H   0  0  0  0  0  0  0  0  0  0  0  0
   57.0041   34.5500   46.5592 H   0  0  0  0  0  0  0  0  0  0  0  0
   55.6932   32.5047   45.9769 H   0  0  0  0  0  0  0  0  0  0  0  0
   57.8660   29.8130   42.7690 H   0  0  0  0  0  0  0  0  0  0  0  0
   56.3800   28.8210   42.9350 H   0  0  0  0  0  0  0  0  0  0  0  0
   59.9558   33.4465   43.5940 H   0  0  0  0  0  0  0  0  0  0  0  0
   61.4048   29.2551   46.3681 H   0  0  0  0  0  0  0  0  0  0  0  0
   61.0142   27.1677   46.6634 H   0  0  0  0  0  0  0  0  0  0  0  0
  1  2  1  0
  2  3  2  0
  2  4  2  0
  2  5  1  0
  5  6  2  0
  6  7  1  0
  7  8  1  0
  8  9  1  0
  9 10  2  0
 10 11  1  0
 11 12  2  0
 12 13  1  0
 13 14  2  0
 13 15  1  0
 15 16  1  0
 16 17  1  0
 17 18  2  0
 18 19  1  0
 19 20  2  0
 20 21  1  0
 21 22  1  0
 21 23  2  0
 20 24  1  0
 24 25  2  0
 12 26  1  0
 26 27  1  0
 27 28  2  0
 28 29  1  0
  7 30  2  0
 30 31  1  0
 31  5  1  0
 29  8  2  0
 28 11  1  0
 25 17  1  0
  1 32  1  0
  6 33  1  0
  9 34  1  0
 10 35  1  0
 16 36  1  0
 16 37  1  0
 18 38  1  0
 19 39  1  0
 22 40  1  0
 22 41  1  0
 25 42  1  0
 29 43  1  0
 30 44  1  0
M  CHG  3   1  -1  15  -1  26  -1
M  END
>  <UniqueID>  (30) 
29

>  <SMILES>  (30) 
[NH-]S(=O)(=O)c1cc(-c2ccc3c(C(=O)[N-]Cc4ccc(C(N)=O)nc4)[n-]nc3c2)cs1

>  <Energy>  (30) 
115.76829111499934

>  <Genealogy>  (30) 
[NH-]S(=O)(=O)c1cc(-c2ccc3c(C(=O)[N-]Cc4ccc(C(N)=O)nc4)[n-]nc3c2)cs1 (protonated)
[NH-]S(=O)(=O)c1cc(-c2ccc3c(C(=O)[N-]Cc4ccc(C(N)=O)nc4)[n-]nc3c2)cs1 (3D coordinates assigned)
[NH-]S(=O)(=O)c1cc(-c2ccc3c(C(=O)[N-]Cc4ccc(C(N)=O)nc4)[n-]nc3c2)cs1 (optimized conformer: 115.76829111499934 kcal/mol)

>  <smiles>  (30) 
NC(=O)c1ccc(CNC(=O)c2[nH]nc3cc(-c4csc(S(N)(=O)=O)c4)ccc23)cn1

>  <score_type>  (30) 
oracle

>  <origin>  (30) 
adg

>  <m_score__min__energy>  (30) 
-14.77

>  <m_primary>  (30) 
energy

$$$$
30:0
     RDKit          3D

 62 65  0  0  0  0  0  0  0  0999 V2000
   58.1450   31.8140   43.8400 O   0  0  0  0  0  0  0  0  0  0  0  0
   57.5020   31.7200   44.9180 C   0  0  0  0  0  0  0  0  0  0  0  0
   57.4210   32.9140   45.8290 C   0  0  0  0  0  0  0  0  0  0  0  0
   58.6270   33.0050   46.6530 N   0  0  0  0  0  0  0  0  0  0  0  0
   58.8820   32.0360   47.6780 C   0  0  0  0  0  0  0  0  0  0  0  0
   58.5290   32.3200   49.0060 C   0  0  0  0  0  0  0  0  0  0  0  0
   58.7650   31.3800   50.0130 C   0  0  0  0  0  0  0  0  0  0  0  0
   59.3570   30.1530   49.7010 C   0  0  0  0  0  0  0  0  0  0  0  0
   59.7190   29.8660   48.3820 C   0  0  0  0  0  0  0  0  0  0  0  0
   59.4880   30.8050   47.3670 C   0  0  0  0  0  0  0  0  0  0  0  0
   59.8710   30.5270   46.0550 O   0  0  0  0  0  0  0  0  0  0  0  0
   59.7890   34.2590   46.3510 S   0  0  0  0  0  0  0  0  0  0  0  0
   59.2870   35.5710   46.8870 O   0  0  0  0  0  0  0  0  0  0  0  0
   59.9990   34.3980   44.8690 O   0  0  0  0  0  0  0  0  0  0  0  0
   61.2960   33.8440   47.1570 C   0  0  0  0  0  0  0  0  0  0  0  0
   62.4120   33.4700   46.3950 C   0  0  0  0  0  0  0  0  0  0  0  0
   63.6210   33.1600   47.0260 C   0  0  0  0  0  0  0  0  0  0  0  0
   63.7210   33.2270   48.4190 C   0  0  0  0  0  0  0  0  0  0  0  0
   62.6130   33.6090   49.1800 C   0  0  0  0  0  0  0  0  0  0  0  0
   61.4030   33.9200   48.5520 C   0  0  0  0  0  0  0  0  0  0  0  0
   56.8200   30.4940   45.2140 N   0  0  0  0  0  0  0  0  0  0  0  0
   57.3180   29.1700   44.9790 C   0  0  0  0  0  0  0  0  0  0  0  0
   58.4160   28.9370   44.1340 C   0  0  0  0  0  0  0  0  0  0  0  0
   58.8570   27.6330   43.9000 C   0  0  0  0  0  0  0  0  0  0  0  0
   58.2000   26.5530   44.4940 C   0  0  0  0  0  0  0  0  0  0  0  0
   57.0940   26.7730   45.3230 C   0  0  0  0  0  0  0  0  0  0  0  0
   56.2500   25.3990   46.0330 S   0  0  0  0  0  0  0  0  0  0  0  0
   54.7630   25.6160   45.9630 O   0  0  0  0  0  0  0  0  0  0  0  0
   56.6500   25.2850   47.4780 O   0  0  0  0  0  0  0  0  0  0  0  0
   56.6810   23.9340   45.1870 N   0  0  0  0  0  0  0  0  0  0  0  0
   58.0940   23.5930   45.4630 C   0  0  0  0  0  0  0  0  0  0  0  0
   58.6490   22.5300   44.4890 C   0  0  0  0  0  0  0  0  0  0  0  0
   57.5250   21.7830   43.7690 C   0  0  0  0  0  0  0  0  0  0  0  0
   56.6160   22.7620   43.0070 C   0  0  0  0  0  0  0  0  0  0  0  0
   56.4500   24.1060   43.7440 C   0  0  0  0  0  0  0  0  0  0  0  0
   56.6460   28.0820   45.5490 C   0  0  0  0  0  0  0  0  0  0  0  0
   57.3253   33.8272   45.2232 H   0  0  0  0  0  0  0  0  0  0  0  0
   56.5454   32.8050   46.4859 H   0  0  0  0  0  0  0  0  0  0  0  0
   58.0650   33.2857   49.2553 H   0  0  0  0  0  0  0  0  0  0  0  0
   58.4845   31.6061   51.0523 H   0  0  0  0  0  0  0  0  0  0  0  0
   59.5381   29.4127   50.4942 H   0  0  0  0  0  0  0  0  0  0  0  0
   60.1866   28.9003   48.1395 H   0  0  0  0  0  0  0  0  0  0  0  0
   59.2180   30.6020   45.2840 H   0  0  0  0  0  0  0  0  0  0  0  0
   62.3365   33.4203   45.2987 H   0  0  0  0  0  0  0  0  0  0  0  0
   64.4939   32.8633   46.4260 H   0  0  0  0  0  0  0  0  0  0  0  0
   64.6709   32.9793   48.9154 H   0  0  0  0  0  0  0  0  0  0  0  0
   62.6929   33.6652   50.2757 H   0  0  0  0  0  0  0  0  0  0  0  0
   60.5341   34.2247   49.1538 H   0  0  0  0  0  0  0  0  0  0  0  0
   58.9295   29.7840   43.6556 H   0  0  0  0  0  0  0  0  0  0  0  0
   59.7238   27.4559   43.2464 H   0  0  0  0  0  0  0  0  0  0  0  0
   58.5526   25.5274   44.3099 H   0  0  0  0  0  0  0  0  0  0  0  0
   58.7011   24.5057   45.3718 H   0  0  0  0  0  0  0  0  0  0  0  0
   58.1435   23.1730   46.4785 H   0  0  0  0  0  0  0  0  0  0  0  0
   59.2829   23.0281   43.7406 H   0  0  0  0  0  0  0  0  0  0  0  0
   59.2288   21.7993   45.0719 H   0  0  0  0  0  0  0  0  0  0  0  0
   57.9652   21.0706   43.0557 H   0  0  0  0  0  0  0  0  0  0  0  0
   56.9196   21.2518   44.5182 H   0  0  0  0  0  0  0  0  0  0  0  0
   57.0553   22.9541   42.0170 H   0  0  0  0  0  0  0  0  0  0  0  0
   55.6211   22.3002   42.9242 H   0  0  0  0  0  0  0  0  0  0  0  0
   57.1758   24.8298   43.3449 H   0  0  0  0  0  0  0  0  0  0  0  0
   55.4246   24.4727   43.5889 H   0  0  0  0  0  0  0  0  0  0  0  0
   55.7606   28.2555   46.1783 H   0  0  0  0  0  0  0  0  0  0  0  0
  1  2  2  0
  2  3  1  0
  3  4  1  0
  4  5  1  0
  5  6  2  0
  6  7  1  0
  7  8  2  0
  8  9  1  0
  9 10  2  0
 10 11  1  0
  4 12  1  0
 12 13  2  0
 12 14  2  0
 12 15  1  0
 15 16  2  0
 16 17  1  0
 17 18  2  0
 18 19  1  0
 19 20  2  0
  2 21  1  0
 21 22  1  0
 22 23  2  0
 23 24  1  0
 24 25  2  0
 25 26  1  0
 26 27  1  0
 27 28  2  0
 27 29  2  0
 27 30  1  0
 30 31  1  0
 31 32  1  0
 32 33  1  0
 33 34  1  0
 34 35  1  0
 26 36  2  0
 10  5  1  0
 20 15  1  0
 36 22  1  0
 35 30  1  0
  3 37  1  0
  3 38  1  0
  6 39  1  0
  7 40  1  0
  8 41  1  0
  9 42  1  0
 11 43  1  0
 16 44  1  0
 17 45  1  0
 18 46  1  0
 19 47  1  0
 20 48  1  0
 23 49  1  0
 24 50  1  0
 25 51  1  0
 31 52  1  0
 31 53  1  0
 32 54  1  0
 32 55  1  0
 33 56  1  0
 33 57  1  0
 34 58  1  0
 34 59  1  0
 35 60  1  0
 35 61  1  0
 36 62  1  0
M  CHG  1  21  -1
M  END
>  <UniqueID>  (31) 
30

>  <SMILES>  (31) 
O=C(CN(c1ccccc1O)S(=O)(=O)c1ccccc1)[N-]c1cccc(S(=O)(=O)N2CCCCC2)c1

>  <Energy>  (31) 
76.9414653978441

>  <Genealogy>  (31) 
O=C(CN(c1ccccc1O)S(=O)(=O)c1ccccc1)[N-]c1cccc(S(=O)(=O)N2CCCCC2)c1 (protonated)
O=C(CN(c1ccccc1O)S(=O)(=O)c1ccccc1)[N-]c1cccc(S(=O)(=O)N2CCCCC2)c1 (3D coordinates assigned)
O=C(CN(c1ccccc1O)S(=O)(=O)c1ccccc1)[N-]c1cccc(S(=O)(=O)N2CCCCC2)c1 (nonaromatic ring conformer: 76.9414653978441 kcal/mol)

>  <smiles>  (31) 
O=C(CN(c1ccccc1O)S(=O)(=O)c1ccccc1)Nc1cccc(S(=O)(=O)N2CCCCC2)c1

>  <score_type>  (31) 
oracle

>  <origin>  (31) 
adg

>  <m_score__min__energy>  (31) 
-14.09

>  <m_primary>  (31) 
energy

$$$$
31:0
     RDKit          3D

 35 37  0  0  0  0  0  0  0  0999 V2000
   57.7650   29.0100   46.8330 O   0  0  0  0  0  0  0  0  0  0  0  0
   57.2630   28.2310   45.9790 C   0  0  0  0  0  0  0  0  0  0  0  0
   56.7180   28.7450   44.7520 N   0  0  0  0  0  0  0  0  0  0  0  0
   56.8860   29.9220   44.2190 C   0  0  0  0  0  0  0  0  0  0  0  0
   56.9540   30.2490   42.8690 C   0  0  0  0  0  0  0  0  0  0  0  0
   57.1420   31.6200   42.8630 C   0  0  0  0  0  0  0  0  0  0  0  0
   57.1670   32.0610   44.1360 N   0  0  0  0  0  0  0  0  0  0  0  0
   57.4230   33.4330   44.5650 C   0  0  0  0  0  0  0  0  0  0  0  0
   58.6750   33.4830   45.3950 C   0  0  0  0  0  0  0  0  0  0  0  0
   59.2750   34.7170   45.6970 C   0  0  0  0  0  0  0  0  0  0  0  0
   60.4130   34.7660   46.5080 C   0  0  0  0  0  0  0  0  0  0  0  0
   60.9520   33.5860   47.0310 C   0  0  0  0  0  0  0  0  0  0  0  0
   62.5040   33.6570   48.1430 Br  0  0  0  0  0  0  0  0  0  0  0  0
   60.3530   32.3560   46.7440 C   0  0  0  0  0  0  0  0  0  0  0  0
   59.2140   32.3040   45.9340 C   0  0  0  0  0  0  0  0  0  0  0  0
   57.0220   31.0360   44.9580 N   0  0  0  0  0  0  0  0  0  0  0  0
   57.2130   26.7680   46.2480 C   0  0  0  0  0  0  0  0  0  0  0  0
   58.4070   26.0450   46.4250 C   0  0  0  0  0  0  0  0  0  0  0  0
   58.3740   24.6730   46.6770 C   0  0  0  0  0  0  0  0  0  0  0  0
   57.1430   24.0220   46.7530 C   0  0  0  0  0  0  0  0  0  0  0  0
   57.0940   22.7850   46.9810 O   0  0  0  0  0  0  0  0  0  0  0  0
   55.9930   24.7240   46.5830 N   0  0  0  0  0  0  0  0  0  0  0  0
   55.9920   26.0610   46.3370 C   0  0  0  0  0  0  0  0  0  0  0  0
   54.7710   26.7070   46.1730 O   0  0  0  0  0  0  0  0  0  0  0  0
   56.8762   29.5732   42.0046 H   0  0  0  0  0  0  0  0  0  0  0  0
   57.2529   32.2470   41.9660 H   0  0  0  0  0  0  0  0  0  0  0  0
   57.5457   34.0751   43.6803 H   0  0  0  0  0  0  0  0  0  0  0  0
   56.5742   33.7890   45.1673 H   0  0  0  0  0  0  0  0  0  0  0  0
   58.8482   35.6474   45.2942 H   0  0  0  0  0  0  0  0  0  0  0  0
   60.8848   35.7334   46.7349 H   0  0  0  0  0  0  0  0  0  0  0  0
   60.7777   31.4285   47.1555 H   0  0  0  0  0  0  0  0  0  0  0  0
   58.7387   31.3357   45.7184 H   0  0  0  0  0  0  0  0  0  0  0  0
   57.0270   31.0970   46.0020 H   0  0  0  0  0  0  0  0  0  0  0  0
   59.3742   26.5655   46.3642 H   0  0  0  0  0  0  0  0  0  0  0  0
   59.3094   24.1106   46.8143 H   0  0  0  0  0  0  0  0  0  0  0  0
  1  2  2  0
  2  3  1  0
  3  4  2  3
  4  5  1  0
  5  6  2  0
  6  7  1  0
  7  8  1  0
  8  9  1  0
  9 10  2  0
 10 11  1  0
 11 12  2  0
 12 13  1  0
 12 14  1  0
 14 15  2  0
  7 16  1  0
  2 17  1  0
 17 18  1  0
 18 19  2  0
 19 20  1  0
 20 21  2  0
 20 22  1  0
 22 23  1  0
 23 24  1  0
 16  4  1  0
 23 17  2  0
 15  9  1  0
  5 25  1  0
  6 26  1  0
  8 27  1  0
  8 28  1  0
 10 29  1  0
 11 30  1  0
 14 31  1  0
 15 32  1  0
 16 33  1  0
 18 34  1  0
 19 35  1  0
M  CHG  2  22  -1  24  -1
M  END
>  <UniqueID>  (32) 
31

>  <SMILES>  (32) 
O=C(N=c1ccn(Cc2ccc(Br)cc2)[nH]1)c1ccc(=O)[n-]c1[O-]

>  <Energy>  (32) 
74.61754729196419

>  <Genealogy>  (32) 
O=C(N=c1ccn(Cc2ccc(Br)cc2)[nH]1)c1ccc(=O)[n-]c1[O-] (protonated)
O=C(N=c1ccn(Cc2ccc(Br)cc2)[nH]1)c1ccc(=O)[n-]c1[O-] (3D coordinates assigned)
O=C(N=c1ccn(Cc2ccc(Br)cc2)[nH]1)c1ccc(=O)[n-]c1[O-] (optimized conformer: 74.61754729196419 kcal/mol)

>  <smiles>  (32) 
O=C(N=c1ccn(Cc2ccc(Br)cc2)[nH]1)c1ccc(=O)[nH]c1O

>  <score_type>  (32) 
oracle

>  <origin>  (32) 
adg

>  <m_score__min__energy>  (32) 
-14.48

>  <m_primary>  (32) 
energy

$$$$
32:0
     RDKit          3D

 40 42  0  0  0  0  0  0  0  0999 V2000
   60.7501   34.6693   46.4019 H   0  0  0  0  0  0  0  0  0  0  0  0
   60.1980   33.7550   46.6650 C   0  0  0  0  0  0  0  0  0  0  0  0
   60.6710   32.9630   47.6380 C   0  0  0  0  0  0  0  0  0  0  0  0
   61.9210   33.2800   48.2770 N   0  0  0  0  0  0  0  0  0  0  0  0
   63.1780   32.9280   47.6140 C   0  0  0  0  0  0  0  0  0  0  0  0
   63.0429   31.9983   47.0418 H   0  0  0  0  0  0  0  0  0  0  0  0
   63.4723   33.7390   46.9317 H   0  0  0  0  0  0  0  0  0  0  0  0
   64.2710   32.7250   48.6670 C   0  0  0  0  0  0  0  0  0  0  0  0
   64.0385   31.8278   49.2594 H   0  0  0  0  0  0  0  0  0  0  0  0
   65.2366   32.6061   48.1537 H   0  0  0  0  0  0  0  0  0  0  0  0
   64.3520   33.8430   49.5310 O   0  0  0  0  0  0  0  0  0  0  0  0
   63.1530   33.9620   50.2770 C   0  0  0  0  0  0  0  0  0  0  0  0
   62.9631   33.0173   50.8075 H   0  0  0  0  0  0  0  0  0  0  0  0
   63.2648   34.7883   50.9944 H   0  0  0  0  0  0  0  0  0  0  0  0
   61.9680   34.2680   49.3570 C   0  0  0  0  0  0  0  0  0  0  0  0
   61.0335   34.2236   49.9356 H   0  0  0  0  0  0  0  0  0  0  0  0
   62.0864   35.2742   48.9287 H   0  0  0  0  0  0  0  0  0  0  0  0
   59.9120   31.7650   48.0670 C   0  0  0  0  0  0  0  0  0  0  0  0
   60.4000   31.0000   48.9410 O   0  0  0  0  0  0  0  0  0  0  0  0
   58.5230   31.4900   47.5570 C   0  0  0  0  0  0  0  0  0  0  0  0
   58.4024   30.4041   47.4297 H   0  0  0  0  0  0  0  0  0  0  0  0
   57.8108   31.8922   48.2925 H   0  0  0  0  0  0  0  0  0  0  0  0
   58.2500   32.1630   46.2410 C   0  0  0  0  0  0  0  0  0  0  0  0
   57.3740   31.6130   45.4440 N   0  0  0  0  0  0  0  0  0  0  0  0
   57.6050   30.6550   44.3630 C   0  0  0  0  0  0  0  0  0  0  0  0
   56.8328   30.7912   43.5916 H   0  0  0  0  0  0  0  0  0  0  0  0
   58.6063   30.8357   43.9450 H   0  0  0  0  0  0  0  0  0  0  0  0
   57.5480   29.2340   44.8720 C   0  0  0  0  0  0  0  0  0  0  0  0
   58.7290   28.4800   44.9810 C   0  0  0  0  0  0  0  0  0  0  0  0
   59.6925   28.9298   44.6994 H   0  0  0  0  0  0  0  0  0  0  0  0
   58.6870   27.1620   45.4450 C   0  0  0  0  0  0  0  0  0  0  0  0
   59.6177   26.5830   45.5376 H   0  0  0  0  0  0  0  0  0  0  0  0
   57.4670   26.5790   45.7910 C   0  0  0  0  0  0  0  0  0  0  0  0
   57.4379   25.5442   46.1629 H   0  0  0  0  0  0  0  0  0  0  0  0
   56.2820   27.3100   45.6650 C   0  0  0  0  0  0  0  0  0  0  0  0
   55.0690   26.7180   46.0010 O   0  0  0  0  0  0  0  0  0  0  0  0
   56.3160   28.6310   45.2010 C   0  0  0  0  0  0  0  0  0  0  0  0
   55.1250   29.3390   45.0660 O   0  0  0  0  0  0  0  0  0  0  0  0
   58.9600   33.4320   45.9410 C   0  0  0  0  0  0  0  0  0  0  0  0
   58.5180   34.2530   45.0960 O   0  0  0  0  0  0  0  0  0  0  0  0
  1  2  1  0
  2  3  2  0
  3  4  1  0
  4  5  1  0
  5  6  1  0
  5  7  1  0
  5  8  1  0
  8  9  1  0
  8 10  1  0
  8 11  1  0
 11 12  1  0
 12 13  1  0
 12 14  1  0
 12 15  1  0
 15 16  1  0
 15 17  1  0
  3 18  1  0
 18 19  2  0
 18 20  1  0
 20 21  1  0
 20 22  1  0
 20 23  1  0
 23 24  2  0
 24 25  1  0
 25 26  1  0
 25 27  1  0
 25 28  1  0
 28 29  2  0
 29 30  1  0
 29 31  1  0
 31 32  1  0
 31 33  2  0
 33 34  1  0
 33 35  1  0
 35 36  1  0
 35 37  2  0
 37 38  1  0
 23 39  1  0
 39 40  2  0
 39  2  1  0
 15  4  1  0
 37 28  1  0
M  CHG  2  36  -1  38  -1
M  END
>  <UniqueID>  (33) 
32

>  <SMILES>  (33) 
O=C1C/C(=N/Cc2cccc([O-])c2[O-])C(=O)C=C1N1CCOCC1

>  <Energy>  (33) 
50.84644483649576

>  <Genealogy>  (33) 
O=C1C=C(N2CCOCC2)C(=O)CC1=NCc1cccc([O-])c1[O-] (protonated)
O=C1C/C(=N/Cc2cccc([O-])c2[O-])C(=O)C=C1N1CCOCC1 (cis-trans isomerization)
O=C1C/C(=N/Cc2cccc([O-])c2[O-])C(=O)C=C1N1CCOCC1 (3D coordinates assigned)
O=C1C/C(=N/Cc2cccc([O-])c2[O-])C(=O)C=C1N1CCOCC1 (nonaromatic ring conformer: 50.84644483649576 kcal/mol)

>  <smiles>  (33) 
O=C1C=C(N2CCOCC2)C(=O)CC1=NCc1cccc(O)c1O

>  <score_type>  (33) 
oracle

>  <origin>  (33) 
adg

>  <m_score__min__energy>  (33) 
-15.529999999999999

>  <m_primary>  (33) 
energy

$$$$
33:0
     RDKit          3D

 54 57  0  0  0  0  0  0  0  0999 V2000
   52.9050   22.4260   45.5880 O   0  0  0  0  0  0  0  0  0  0  0  0
   53.7530   23.2380   46.0440 C   0  0  0  0  0  0  0  0  0  0  0  0
   54.2100   24.3070   45.2060 N   0  0  0  0  0  0  0  0  0  0  0  0
   55.4890   24.9490   45.2940 C   0  0  0  0  0  0  0  0  0  0  0  0
   56.5690   24.5500   44.4890 C   0  0  0  0  0  0  0  0  0  0  0  0
   57.7960   25.2140   44.5760 C   0  0  0  0  0  0  0  0  0  0  0  0
   57.9640   26.2880   45.4670 C   0  0  0  0  0  0  0  0  0  0  0  0
   59.2240   26.9870   45.5370 N   0  0  0  0  0  0  0  0  0  0  0  0
   60.0690   26.9210   46.7290 C   0  0  0  0  0  0  0  0  0  0  0  0
   60.2440   28.3280   47.3090 C   0  0  0  0  0  0  0  0  0  0  0  0
   60.4390   29.3690   46.2680 N   0  0  0  0  0  0  0  0  0  0  0  0
   59.5740   30.5620   46.3920 C   0  0  0  0  0  0  0  0  0  0  0  0
   58.4350   30.5910   45.3970 C   0  0  0  0  0  0  0  0  0  0  0  0
   58.4790   31.4380   44.2750 C   0  0  0  0  0  0  0  0  0  0  0  0
   57.4080   31.4780   43.3780 C   0  0  0  0  0  0  0  0  0  0  0  0
   56.2920   30.6630   43.5800 C   0  0  0  0  0  0  0  0  0  0  0  0
   56.2490   29.7970   44.6770 C   0  0  0  0  0  0  0  0  0  0  0  0
   55.1440   28.9780   44.8730 O   0  0  0  0  0  0  0  0  0  0  0  0
   57.3170   29.7570   45.5800 C   0  0  0  0  0  0  0  0  0  0  0  0
   60.6860   28.8890   44.8900 C   0  0  0  0  0  0  0  0  0  0  0  0
   59.6540   27.8430   44.4270 C   0  0  0  0  0  0  0  0  0  0  0  0
   56.8710   26.6990   46.2500 C   0  0  0  0  0  0  0  0  0  0  0  0
   55.6420   26.0420   46.1540 C   0  0  0  0  0  0  0  0  0  0  0  0
   54.1950   23.1270   47.4040 N   0  0  0  0  0  0  0  0  0  0  0  0
   53.8100   21.9900   48.2400 C   0  0  0  0  0  0  0  0  0  0  0  0
   54.8680   21.7030   49.2570 C   0  0  0  0  0  0  0  0  0  0  0  0
   56.2020   22.0420   49.1480 C   0  0  0  0  0  0  0  0  0  0  0  0
   56.8000   21.5550   50.2920 C   0  0  0  0  0  0  0  0  0  0  0  0
   55.7970   20.9490   51.0220 C   0  0  0  0  0  0  0  0  0  0  0  0
   54.6570   21.0520   50.3780 O   0  0  0  0  0  0  0  0  0  0  0  0
   56.4486   23.7115   43.7873 H   0  0  0  0  0  0  0  0  0  0  0  0
   58.6363   24.8936   43.9425 H   0  0  0  0  0  0  0  0  0  0  0  0
   59.5946   26.2714   47.4793 H   0  0  0  0  0  0  0  0  0  0  0  0
   61.0532   26.5107   46.4587 H   0  0  0  0  0  0  0  0  0  0  0  0
   59.3459   28.5802   47.8919 H   0  0  0  0  0  0  0  0  0  0  0  0
   61.1503   28.3146   47.9322 H   0  0  0  0  0  0  0  0  0  0  0  0
   59.1497   30.5798   47.4067 H   0  0  0  0  0  0  0  0  0  0  0  0
   60.2042   31.4398   46.1862 H   0  0  0  0  0  0  0  0  0  0  0  0
   59.3610   32.0723   44.1026 H   0  0  0  0  0  0  0  0  0  0  0  0
   57.4441   32.1533   42.5104 H   0  0  0  0  0  0  0  0  0  0  0  0
   55.4473   30.7023   42.8765 H   0  0  0  0  0  0  0  0  0  0  0  0
   57.2822   29.0695   46.4380 H   0  0  0  0  0  0  0  0  0  0  0  0
   60.6453   29.7493   44.2058 H   0  0  0  0  0  0  0  0  0  0  0  0
   61.6740   28.4056   44.8803 H   0  0  0  0  0  0  0  0  0  0  0  0
   58.7765   28.3637   44.0161 H   0  0  0  0  0  0  0  0  0  0  0  0
   60.1247   27.2075   43.6624 H   0  0  0  0  0  0  0  0  0  0  0  0
   56.9846   27.5449   46.9439 H   0  0  0  0  0  0  0  0  0  0  0  0
   54.7895   26.3860   46.7581 H   0  0  0  0  0  0  0  0  0  0  0  0
   54.7570   23.9040   47.8180 H   0  0  0  0  0  0  0  0  0  0  0  0
   52.8667   22.2232   48.7555 H   0  0  0  0  0  0  0  0  0  0  0  0
   53.6844   21.1048   47.5992 H   0  0  0  0  0  0  0  0  0  0  0  0
   56.6859   22.5856   48.3232 H   0  0  0  0  0  0  0  0  0  0  0  0
   57.8621   21.6337   50.5671 H   0  0  0  0  0  0  0  0  0  0  0  0
   55.9322   20.4548   51.9954 H   0  0  0  0  0  0  0  0  0  0  0  0
  1  2  2  0
  2  3  1  0
  3  4  1  0
  4  5  2  0
  5  6  1  0
  6  7  2  0
  7  8  1  0
  8  9  1  0
  9 10  1  0
 10 11  1  0
 11 12  1  0
 12 13  1  0
 13 14  2  0
 14 15  1  0
 15 16  2  0
 16 17  1  0
 17 18  1  0
 17 19  2  0
 11 20  1  0
 20 21  1  0
  7 22  1  0
 22 23  2  0
  2 24  1  0
 24 25  1  0
 25 26  1  0
 26 27  2  0
 27 28  1  0
 28 29  2  0
 29 30  1  0
 23  4  1  0
 30 26  1  0
 21  8  1  0
 19 13  1  0
  5 31  1  0
  6 32  1  0
  9 33  1  0
  9 34  1  0
 10 35  1  0
 10 36  1  0
 12 37  1  0
 12 38  1  0
 14 39  1  0
 15 40  1  0
 16 41  1  0
 19 42  1  0
 20 43  1  0
 20 44  1  0
 21 45  1  0
 21 46  1  0
 22 47  1  0
 23 48  1  0
 24 49  1  0
 25 50  1  0
 25 51  1  0
 27 52  1  0
 28 53  1  0
 29 54  1  0
M  CHG  2   3  -1  18  -1
M  END
>  <UniqueID>  (34) 
33

>  <SMILES>  (34) 
O=C([N-]c1ccc(N2CCN(Cc3cccc([O-])c3)CC2)cc1)NCc1ccco1

>  <Energy>  (34) 
97.96656088391131

>  <Genealogy>  (34) 
O=C([N-]c1ccc(N2CCN(Cc3cccc([O-])c3)CC2)cc1)NCc1ccco1 (protonated)
O=C([N-]c1ccc(N2CCN(Cc3cccc([O-])c3)CC2)cc1)NCc1ccco1 (3D coordinates assigned)
O=C([N-]c1ccc(N2CCN(Cc3cccc([O-])c3)CC2)cc1)NCc1ccco1 (nonaromatic ring conformer: 97.96656088391131 kcal/mol)

>  <smiles>  (34) 
O=C(NCc1ccco1)Nc1ccc(N2CCN(Cc3cccc(O)c3)CC2)cc1

>  <score_type>  (34) 
oracle

>  <origin>  (34) 
adg

>  <m_score__min__energy>  (34) 
-12.869999999999999

>  <m_primary>  (34) 
energy

$$$$
34:0
     RDKit          3D

 44 46  0  0  0  0  0  0  0  0999 V2000
   57.0140   33.2400   46.7210 N   0  0  0  0  0  0  0  0  0  0  0  0
   57.4460   33.9740   45.2190 S   0  0  0  0  0  0  0  0  0  0  0  0
   57.6130   32.9190   44.1640 O   0  0  0  0  0  0  0  0  0  0  0  0
   56.3600   34.9220   44.7980 O   0  0  0  0  0  0  0  0  0  0  0  0
   58.9060   34.8470   45.4040 O   0  0  0  0  0  0  0  0  0  0  0  0
   59.8620   34.6000   46.4000 C   0  0  0  0  0  0  0  0  0  0  0  0
   59.6170   34.8330   47.7670 C   0  0  0  0  0  0  0  0  0  0  0  0
   60.6020   34.5560   48.7180 C   0  0  0  0  0  0  0  0  0  0  0  0
   61.8470   34.0480   48.3230 C   0  0  0  0  0  0  0  0  0  0  0  0
   62.8970   33.7720   49.3220 C   0  0  0  0  0  0  0  0  0  0  0  0
   63.2610   34.6930   50.1010 O   0  0  0  0  0  0  0  0  0  0  0  0
   63.5440   32.4970   49.4120 N   0  0  0  0  0  0  0  0  0  0  0  0
   62.8670   31.2530   49.7580 C   0  0  0  0  0  0  0  0  0  0  0  0
   61.9010   30.8950   48.6800 C   0  0  0  0  0  0  0  0  0  0  0  0
   62.1960   30.8890   47.3650 N   0  0  0  0  0  0  0  0  0  0  0  0
   61.0920   30.5080   46.7400 N   0  0  0  0  0  0  0  0  0  0  0  0
   60.1710   30.3030   47.6990 C   0  0  0  0  0  0  0  0  0  0  0  0
   58.4980   29.7450   47.3860 S   0  0  0  0  0  0  0  0  0  0  0  0
   58.4170   30.4510   45.7030 C   0  0  0  0  0  0  0  0  0  0  0  0
   57.4080   29.7180   44.8760 C   0  0  0  0  0  0  0  0  0  0  0  0
   57.2120   30.0660   43.6800 O   0  0  0  0  0  0  0  0  0  0  0  0
   56.6500   28.6540   45.4750 N   0  0  0  0  0  0  0  0  0  0  0  0
   57.0670   27.4450   45.7220 C   0  0  0  0  0  0  0  0  0  0  0  0
   58.3950   27.1360   45.6950 N   0  0  0  0  0  0  0  0  0  0  0  0
   58.8460   25.8730   45.9210 C   0  0  0  0  0  0  0  0  0  0  0  0
   57.9410   24.8430   46.1870 C   0  0  0  0  0  0  0  0  0  0  0  0
   56.5750   25.1280   46.2180 C   0  0  0  0  0  0  0  0  0  0  0  0
   56.1310   26.4320   45.9850 C   0  0  0  0  0  0  0  0  0  0  0  0
   54.7690   26.7140   46.0130 O   0  0  0  0  0  0  0  0  0  0  0  0
   60.6550   30.5480   48.8910 O   0  0  0  0  0  0  0  0  0  0  0  0
   62.1040   33.8420   46.9600 C   0  0  0  0  0  0  0  0  0  0  0  0
   61.1120   34.1040   46.0090 C   0  0  0  0  0  0  0  0  0  0  0  0
   56.2560   33.8260   47.1400 H   0  0  0  0  0  0  0  0  0  0  0  0
   58.6447   35.2353   48.0877 H   0  0  0  0  0  0  0  0  0  0  0  0
   60.3991   34.7378   49.7837 H   0  0  0  0  0  0  0  0  0  0  0  0
   63.6101   30.4492   49.8660 H   0  0  0  0  0  0  0  0  0  0  0  0
   62.3255   31.3824   50.7067 H   0  0  0  0  0  0  0  0  0  0  0  0
   58.1304   31.5110   45.7684 H   0  0  0  0  0  0  0  0  0  0  0  0
   59.4046   30.3541   45.2283 H   0  0  0  0  0  0  0  0  0  0  0  0
   59.9253   25.6623   45.8943 H   0  0  0  0  0  0  0  0  0  0  0  0
   58.3004   23.8196   46.3699 H   0  0  0  0  0  0  0  0  0  0  0  0
   55.8496   24.3276   46.4254 H   0  0  0  0  0  0  0  0  0  0  0  0
   63.0889   33.4732   46.6375 H   0  0  0  0  0  0  0  0  0  0  0  0
   61.3157   33.9187   44.9440 H   0  0  0  0  0  0  0  0  0  0  0  0
  1  2  1  0
  2  3  2  0
  2  4  2  0
  2  5  1  0
  5  6  1  0
  6  7  2  0
  7  8  1  0
  8  9  2  0
  9 10  1  0
 10 11  2  0
 10 12  1  0
 12 13  1  0
 13 14  1  0
 14 15  2  0
 15 16  1  0
 16 17  2  0
 17 18  1  0
 18 19  1  0
 19 20  1  0
 20 21  2  0
 20 22  1  0
 22 23  2  3
 23 24  1  0
 24 25  1  0
 25 26  2  0
 26 27  1  0
 27 28  2  0
 28 29  1  0
 17 30  1  0
  9 31  1  0
 31 32  2  0
 32  6  1  0
 30 14  1  0
 28 23  1  0
  1 33  1  0
  7 34  1  0
  8 35  1  0
 13 36  1  0
 13 37  1  0
 19 38  1  0
 19 39  1  0
 25 40  1  0
 26 41  1  0
 27 42  1  0
 31 43  1  0
 32 44  1  0
M  CHG  4   1  -1  12  -1  24  -1  29  -1
M  END
>  <UniqueID>  (35) 
34

>  <SMILES>  (35) 
[NH-]S(=O)(=O)Oc1ccc(C(=O)[N-]Cc2nnc(SCC(=O)N=c3[n-]cccc3[O-])o2)cc1

>  <Energy>  (35) 
77.51902200329133

>  <Genealogy>  (35) 
[NH-]S(=O)(=O)Oc1ccc(C(=O)[N-]Cc2nnc(SCC(=O)N=c3[n-]cccc3[O-])o2)cc1 (protonated)
[NH-]S(=O)(=O)Oc1ccc(C(=O)[N-]Cc2nnc(SCC(=O)N=c3[n-]cccc3[O-])o2)cc1 (3D coordinates assigned)
[NH-]S(=O)(=O)Oc1ccc(C(=O)[N-]Cc2nnc(SCC(=O)N=c3[n-]cccc3[O-])o2)cc1 (optimized conformer: 77.51902200329133 kcal/mol)

>  <smiles>  (35) 
NS(=O)(=O)Oc1ccc(C(=O)NCc2nnc(SCC(=O)N=c3[nH]cccc3O)o2)cc1

>  <score_type>  (35) 
oracle

>  <origin>  (35) 
adg

>  <m_score__min__energy>  (35) 
-17.050000000000001

>  <m_primary>  (35) 
energy

$$$$
35:0
     RDKit          3D

 67 71  0  0  0  0  0  0  0  0999 V2000
   60.5580   30.7530   47.9020 C   0  0  0  0  0  0  0  0  0  0  0  0
   60.1030   30.3890   49.2890 C   0  0  0  0  0  0  0  0  0  0  0  0
   60.1350   29.0770   49.8020 C   0  0  0  0  0  0  0  0  0  0  0  0
   60.5120   27.8280   49.0270 C   0  0  0  0  0  0  0  0  0  0  0  0
   59.7710   27.6290   47.7630 N   0  0  0  0  0  0  0  0  0  0  0  0
   58.3320   27.9440   47.8640 C   0  0  0  0  0  0  0  0  0  0  0  0
   57.5380   27.4860   46.6260 C   0  0  0  0  0  0  0  0  0  0  0  0
   58.4150   27.2780   45.4640 N   0  0  0  0  0  0  0  0  0  0  0  0
   58.0140   27.7240   44.1560 C   0  0  0  0  0  0  0  0  0  0  0  0
   58.4280   27.1170   43.1330 O   0  0  0  0  0  0  0  0  0  0  0  0
   57.1590   28.8670   44.0230 N   0  0  0  0  0  0  0  0  0  0  0  0
   57.4720   30.2080   44.4230 C   0  0  0  0  0  0  0  0  0  0  0  0
   57.4590   31.2180   43.4550 C   0  0  0  0  0  0  0  0  0  0  0  0
   57.7680   32.5350   43.8010 C   0  0  0  0  0  0  0  0  0  0  0  0
   58.1110   32.8610   45.1220 C   0  0  0  0  0  0  0  0  0  0  0  0
   58.4760   34.2520   45.4640 C   0  0  0  0  0  0  0  0  0  0  0  0
   58.7320   35.0580   44.5280 O   0  0  0  0  0  0  0  0  0  0  0  0
   58.5470   34.7230   46.8150 N   0  0  0  0  0  0  0  0  0  0  0  0
   59.7630   34.7860   47.6250 C   0  0  0  0  0  0  0  0  0  0  0  0
   60.9320   34.1640   46.8590 C   0  0  0  0  0  0  0  0  0  0  0  0
   62.0570   33.7880   47.7930 C   0  0  0  0  0  0  0  0  0  0  0  0
   63.0470   32.8760   47.3860 C   0  0  0  0  0  0  0  0  0  0  0  0
   64.0520   32.4830   48.2770 C   0  0  0  0  0  0  0  0  0  0  0  0
   64.0790   32.9950   49.5750 C   0  0  0  0  0  0  0  0  0  0  0  0
   63.1020   33.9080   49.9850 C   0  0  0  0  0  0  0  0  0  0  0  0
   62.0900   34.2980   49.1010 C   0  0  0  0  0  0  0  0  0  0  0  0
   58.1830   31.8390   46.0800 C   0  0  0  0  0  0  0  0  0  0  0  0
   57.8580   30.5220   45.7370 C   0  0  0  0  0  0  0  0  0  0  0  0
   59.6470   26.4910   45.6090 C   0  0  0  0  0  0  0  0  0  0  0  0
   60.0420   26.3540   47.0810 C   0  0  0  0  0  0  0  0  0  0  0  0
   59.5030   29.0950   51.3760 S   0  0  0  0  0  0  0  0  0  0  0  0
   59.2630   30.7490   51.4460 C   0  0  0  0  0  0  0  0  0  0  0  0
   58.7650   31.4980   52.5100 C   0  0  0  0  0  0  0  0  0  0  0  0
   58.6420   32.8850   52.3440 C   0  0  0  0  0  0  0  0  0  0  0  0
   59.0190   33.4910   51.1320 C   0  0  0  0  0  0  0  0  0  0  0  0
   59.5200   32.7170   50.0720 C   0  0  0  0  0  0  0  0  0  0  0  0
   59.6390   31.3270   50.2390 C   0  0  0  0  0  0  0  0  0  0  0  0
   61.4155   31.4390   47.9656 H   0  0  0  0  0  0  0  0  0  0  0  0
   60.8567   29.8417   47.3631 H   0  0  0  0  0  0  0  0  0  0  0  0
   59.7345   31.2444   47.3631 H   0  0  0  0  0  0  0  0  0  0  0  0
   61.5843   27.8852   48.7885 H   0  0  0  0  0  0  0  0  0  0  0  0
   60.2528   26.9759   49.6725 H   0  0  0  0  0  0  0  0  0  0  0  0
   57.9223   27.4400   48.7518 H   0  0  0  0  0  0  0  0  0  0  0  0
   58.2342   29.0372   47.9374 H   0  0  0  0  0  0  0  0  0  0  0  0
   57.0263   26.5408   46.8602 H   0  0  0  0  0  0  0  0  0  0  0  0
   56.8136   28.2739   46.3723 H   0  0  0  0  0  0  0  0  0  0  0  0
   57.2034   30.9728   42.4136 H   0  0  0  0  0  0  0  0  0  0  0  0
   57.7424   33.3221   43.0330 H   0  0  0  0  0  0  0  0  0  0  0  0
   59.9947   35.8367   47.8538 H   0  0  0  0  0  0  0  0  0  0  0  0
   59.6047   34.2279   48.5596 H   0  0  0  0  0  0  0  0  0  0  0  0
   60.5803   33.2609   46.3387 H   0  0  0  0  0  0  0  0  0  0  0  0
   61.3098   34.9040   46.1381 H   0  0  0  0  0  0  0  0  0  0  0  0
   63.0314   32.4701   46.3637 H   0  0  0  0  0  0  0  0  0  0  0  0
   64.8230   31.7684   47.9533 H   0  0  0  0  0  0  0  0  0  0  0  0
   64.8676   32.6809   50.2747 H   0  0  0  0  0  0  0  0  0  0  0  0
   63.1293   34.3203   51.0045 H   0  0  0  0  0  0  0  0  0  0  0  0
   61.3170   35.0071   49.4320 H   0  0  0  0  0  0  0  0  0  0  0  0
   58.4970   32.0744   47.1076 H   0  0  0  0  0  0  0  0  0  0  0  0
   57.9049   29.7297   46.4987 H   0  0  0  0  0  0  0  0  0  0  0  0
   59.4852   25.4888   45.1855 H   0  0  0  0  0  0  0  0  0  0  0  0
   60.4578   27.0092   45.0760 H   0  0  0  0  0  0  0  0  0  0  0  0
   59.4531   25.5514   47.5491 H   0  0  0  0  0  0  0  0  0  0  0  0
   61.1108   26.1063   47.1606 H   0  0  0  0  0  0  0  0  0  0  0  0
   58.4761   31.0144   53.4548 H   0  0  0  0  0  0  0  0  0  0  0  0
   58.2488   33.5019   53.1655 H   0  0  0  0  0  0  0  0  0  0  0  0
   58.9207   34.5801   51.0131 H   0  0  0  0  0  0  0  0  0  0  0  0
   59.8149   33.1924   49.1249 H   0  0  0  0  0  0  0  0  0  0  0  0
  1  2  1  0
  2  3  2  0
  3  4  1  0
  4  5  1  0
  5  6  1  0
  6  7  1  0
  7  8  1  0
  8  9  1  0
  9 10  2  0
  9 11  1  0
 11 12  1  0
 12 13  2  0
 13 14  1  0
 14 15  2  0
 15 16  1  0
 16 17  2  0
 16 18  1  0
 18 19  1  0
 19 20  1  0
 20 21  1  0
 21 22  2  0
 22 23  1  0
 23 24  2  0
 24 25  1  0
 25 26  2  0
 15 27  1  0
 27 28  2  0
  8 29  1  0
 29 30  1  0
  3 31  1  0
 31 32  1  0
 32 33  2  0
 33 34  1  0
 34 35  2  0
 35 36  1  0
 36 37  2  0
 37  2  1  0
 30  5  1  0
 37 32  1  0
 28 12  1  0
 26 21  1  0
  1 38  1  0
  1 39  1  0
  1 40  1  0
  4 41  1  0
  4 42  1  0
  6 43  1  0
  6 44  1  0
  7 45  1  0
  7 46  1  0
 13 47  1  0
 14 48  1  0
 19 49  1  0
 19 50  1  0
 20 51  1  0
 20 52  1  0
 22 53  1  0
 23 54  1  0
 24 55  1  0
 25 56  1  0
 26 57  1  0
 27 58  1  0
 28 59  1  0
 29 60  1  0
 29 61  1  0
 30 62  1  0
 30 63  1  0
 33 64  1  0
 34 65  1  0
 35 66  1  0
 36 67  1  0
M  CHG  2  11  -1  18  -1
M  END
>  <UniqueID>  (36) 
35

>  <SMILES>  (36) 
Cc1c(CN2CCN(C(=O)[N-]c3ccc(C(=O)[N-]CCc4ccccc4)cc3)CC2)sc2ccccc12

>  <Energy>  (36) 
120.56579450028563

>  <Genealogy>  (36) 
Cc1c(CN2CCN(C(=O)[N-]c3ccc(C(=O)[N-]CCc4ccccc4)cc3)CC2)sc2ccccc12 (protonated)
Cc1c(CN2CCN(C(=O)[N-]c3ccc(C(=O)[N-]CCc4ccccc4)cc3)CC2)sc2ccccc12 (3D coordinates assigned)
Cc1c(CN2CCN(C(=O)[N-]c3ccc(C(=O)[N-]CCc4ccccc4)cc3)CC2)sc2ccccc12 (nonaromatic ring conformer: 120.56579450028563 kcal/mol)

>  <smiles>  (36) 
Cc1c(CN2CCN(C(=O)Nc3ccc(C(=O)NCCc4ccccc4)cc3)CC2)sc2ccccc12

>  <score_type>  (36) 
oracle

>  <origin>  (36) 
adg

>  <m_score__min__energy>  (36) 
-13.24

>  <m_primary>  (36) 
energy

$$$$
36:0
     RDKit          3D

 44 46  0  0  0  0  0  0  0  0999 V2000
   64.0236   33.5015   47.6814 H   0  0  0  0  0  0  0  0  0  0  0  0
   63.0940   32.9320   47.8280 C   0  0  0  0  0  0  0  0  0  0  0  0
   62.9050   31.7180   47.1620 C   0  0  0  0  0  0  0  0  0  0  0  0
   63.6884   31.3308   46.4939 H   0  0  0  0  0  0  0  0  0  0  0  0
   61.7230   30.9950   47.3430 C   0  0  0  0  0  0  0  0  0  0  0  0
   61.5836   30.0350   46.8244 H   0  0  0  0  0  0  0  0  0  0  0  0
   60.7110   31.4890   48.1850 C   0  0  0  0  0  0  0  0  0  0  0  0
   59.4430   30.7040   48.3990 C   0  0  0  0  0  0  0  0  0  0  0  0
   58.8473   31.1889   49.1864 H   0  0  0  0  0  0  0  0  0  0  0  0
   59.7091   29.6789   48.6964 H   0  0  0  0  0  0  0  0  0  0  0  0
   58.6530   30.6450   47.1670 N   0  0  0  0  0  0  0  0  0  0  0  0
   58.3220   29.6960   46.8910 H   0  0  0  0  0  0  0  0  0  0  0  0
   58.2880   31.7960   46.3700 C   0  0  0  0  0  0  0  0  0  0  0  0
   58.3680   33.0960   46.9120 C   0  0  0  0  0  0  0  0  0  0  0  0
   58.7440   33.2344   47.9364 H   0  0  0  0  0  0  0  0  0  0  0  0
   57.9770   34.2080   46.1670 C   0  0  0  0  0  0  0  0  0  0  0  0
   58.0516   35.2147   46.6040 H   0  0  0  0  0  0  0  0  0  0  0  0
   57.4930   34.0480   44.8730 C   0  0  0  0  0  0  0  0  0  0  0  0
   57.1725   34.9262   44.2933 H   0  0  0  0  0  0  0  0  0  0  0  0
   57.4140   32.7760   44.3110 C   0  0  0  0  0  0  0  0  0  0  0  0
   57.0248   32.6580   43.2890 H   0  0  0  0  0  0  0  0  0  0  0  0
   57.8250   31.6400   45.0320 C   0  0  0  0  0  0  0  0  0  0  0  0
   57.7720   30.2900   44.3460 C   0  0  0  0  0  0  0  0  0  0  0  0
   58.7639   29.8189   44.4102 H   0  0  0  0  0  0  0  0  0  0  0  0
   57.4773   30.4504   43.2984 H   0  0  0  0  0  0  0  0  0  0  0  0
   56.7540   29.3750   44.9850 C   0  0  0  0  0  0  0  0  0  0  0  0
   55.5310   29.6480   44.8630 O   0  0  0  0  0  0  0  0  0  0  0  0
   57.1270   28.2460   45.7910 N   0  0  0  0  0  0  0  0  0  0  0  0
   56.6600   27.0380   45.6960 C   0  0  0  0  0  0  0  0  0  0  0  0
   55.4560   26.6420   46.1630 N   0  0  0  0  0  0  0  0  0  0  0  0
   55.2250   25.3450   45.9720 N   0  0  0  0  0  0  0  0  0  0  0  0
   56.2530   24.7030   45.3710 C   0  0  0  0  0  0  0  0  0  0  0  0
   56.2140   23.2590   44.9920 C   0  0  0  0  0  0  0  0  0  0  0  0
   55.2124   22.8567   45.2042 H   0  0  0  0  0  0  0  0  0  0  0  0
   56.9733   22.7188   45.5765 H   0  0  0  0  0  0  0  0  0  0  0  0
   56.5200   23.0840   43.5090 C   0  0  0  0  0  0  0  0  0  0  0  0
   57.4695   22.5410   43.3921 H   0  0  0  0  0  0  0  0  0  0  0  0
   55.7098   22.5127   43.0324 H   0  0  0  0  0  0  0  0  0  0  0  0
   56.6016   24.0720   43.0324 H   0  0  0  0  0  0  0  0  0  0  0  0
   57.5220   25.7590   45.0250 S   0  0  0  0  0  0  0  0  0  0  0  0
   60.9160   32.7030   48.8650 C   0  0  0  0  0  0  0  0  0  0  0  0
   60.1412   33.0880   49.5444 H   0  0  0  0  0  0  0  0  0  0  0  0
   62.1000   33.4220   48.6810 C   0  0  0  0  0  0  0  0  0  0  0  0
   62.2505   34.3756   49.2083 H   0  0  0  0  0  0  0  0  0  0  0  0
  1  2  1  0
  2  3  2  0
  3  4  1  0
  3  5  1  0
  5  6  1  0
  5  7  2  0
  7  8  1  0
  8  9  1  0
  8 10  1  0
  8 11  1  0
 11 12  1  0
 11 13  1  0
 13 14  2  0
 14 15  1  0
 14 16  1  0
 16 17  1  0
 16 18  2  0
 18 19  1  0
 18 20  1  0
 20 21  1  0
 20 22  2  0
 22 23  1  0
 23 24  1  0
 23 25  1  0
 23 26  1  0
 26 27  2  0
 26 28  1  0
 28 29  2  0
 29 30  1  0
 30 31  1  0
 31 32  2  0
 32 33  1  0
 33 34  1  0
 33 35  1  0
 33 36  1  0
 36 37  1  0
 36 38  1  0
 36 39  1  0
 32 40  1  0
  7 41  1  0
 41 42  1  0
 41 43  2  0
 43 44  1  0
 43  2  1  0
 22 13  1  0
 40 29  1  0
M  CHG  1  30  -1
M  END
>  <UniqueID>  (37) 
36

>  <SMILES>  (37) 
CCc1n[n-]/c(=N\C(=O)Cc2ccccc2NCc2ccccc2)s1

>  <Energy>  (37) 
81.85155037542656

>  <Genealogy>  (37) 
CCc1n[n-]c(=NC(=O)Cc2ccccc2NCc2ccccc2)s1 (protonated)
CCc1n[n-]/c(=N\C(=O)Cc2ccccc2NCc2ccccc2)s1 (cis-trans isomerization)
CCc1n[n-]/c(=N\C(=O)Cc2ccccc2NCc2ccccc2)s1 (3D coordinates assigned)
CCc1n[n-]/c(=N\C(=O)Cc2ccccc2NCc2ccccc2)s1 (optimized conformer: 81.85155037542656 kcal/mol)

>  <smiles>  (37) 
CCc1n[nH]c(=NC(=O)Cc2ccccc2NCc2ccccc2)s1

>  <score_type>  (37) 
oracle

>  <origin>  (37) 
adg

>  <m_score__min__energy>  (37) 
-10.57

>  <m_primary>  (37) 
energy

$$$$
37:0
     RDKit          3D

 39 41  0  0  0  0  0  0  0  0999 V2000
   55.8220   22.6300   41.7920 H   0  0  0  0  0  0  0  0  0  0  0  0
   55.5350   22.6140   42.7970 N   0  0  0  0  0  0  0  0  0  0  0  0
   56.2100   23.2450   43.7020 C   0  0  0  0  0  0  0  0  0  0  0  0
   56.1200   22.8750   45.0070 N   0  0  0  0  0  0  0  0  0  0  0  0
   56.8020   23.5130   45.9980 C   0  0  0  0  0  0  0  0  0  0  0  0
   56.6190   23.0370   47.4090 C   0  0  0  0  0  0  0  0  0  0  0  0
   56.9243   23.8311   48.1063 H   0  0  0  0  0  0  0  0  0  0  0  0
   55.5610   22.7878   47.5776 H   0  0  0  0  0  0  0  0  0  0  0  0
   57.2376   22.1432   47.5776 H   0  0  0  0  0  0  0  0  0  0  0  0
   57.6210   24.6240   45.6770 C   0  0  0  0  0  0  0  0  0  0  0  0
   58.3540   25.4240   46.7330 C   0  0  0  0  0  0  0  0  0  0  0  0
   58.4549   24.8107   47.6405 H   0  0  0  0  0  0  0  0  0  0  0  0
   59.3421   25.6985   46.3351 H   0  0  0  0  0  0  0  0  0  0  0  0
   57.6350   26.6530   47.0670 N   0  0  0  0  0  0  0  0  0  0  0  0
   58.2090   27.9660   47.0870 C   0  0  0  0  0  0  0  0  0  0  0  0
   59.1550   28.2140   47.8780 O   0  0  0  0  0  0  0  0  0  0  0  0
   57.6840   29.0430   46.2390 C   0  0  0  0  0  0  0  0  0  0  0  0
   58.2500   30.2740   46.3310 N   0  0  0  0  0  0  0  0  0  0  0  0
   57.7710   31.3360   45.6280 C   0  0  0  0  0  0  0  0  0  0  0  0
   58.3810   32.6820   45.8100 C   0  0  0  0  0  0  0  0  0  0  0  0
   58.6730   33.4740   44.6830 C   0  0  0  0  0  0  0  0  0  0  0  0
   58.4273   33.1027   43.6771 H   0  0  0  0  0  0  0  0  0  0  0  0
   59.2710   34.7250   44.8310 C   0  0  0  0  0  0  0  0  0  0  0  0
   59.5011   35.3385   43.9475 H   0  0  0  0  0  0  0  0  0  0  0  0
   59.5740   35.1900   46.1080 C   0  0  0  0  0  0  0  0  0  0  0  0
   60.0461   36.1752   46.2365 H   0  0  0  0  0  0  0  0  0  0  0  0
   59.2870   34.4280   47.1950 N   0  0  0  0  0  0  0  0  0  0  0  0
   58.7050   33.2020   47.0850 C   0  0  0  0  0  0  0  0  0  0  0  0
   58.4600   32.5520   48.1360 O   0  0  0  0  0  0  0  0  0  0  0  0
   56.7010   31.1590   44.8070 N   0  0  0  0  0  0  0  0  0  0  0  0
   56.1030   29.9480   44.6720 C   0  0  0  0  0  0  0  0  0  0  0  0
   55.1160   29.8230   43.9000 O   0  0  0  0  0  0  0  0  0  0  0  0
   56.5780   28.8490   45.3940 C   0  0  0  0  0  0  0  0  0  0  0  0
   55.9520   27.6070   45.2610 O   0  0  0  0  0  0  0  0  0  0  0  0
   56.4700   26.7380   45.2320 H   0  0  0  0  0  0  0  0  0  0  0  0
   57.7400   24.9970   44.3280 C   0  0  0  0  0  0  0  0  0  0  0  0
   58.3958   25.8349   44.0490 H   0  0  0  0  0  0  0  0  0  0  0  0
   57.0330   24.3130   43.3400 C   0  0  0  0  0  0  0  0  0  0  0  0
   57.1228   24.6120   42.2852 H   0  0  0  0  0  0  0  0  0  0  0  0
  1  2  1  0
  2  3  2  0
  3  4  1  0
  4  5  1  0
  5  6  1  0
  6  7  1  0
  6  8  1  0
  6  9  1  0
  5 10  2  0
 10 11  1  0
 11 12  1  0
 11 13  1  0
 11 14  1  0
 14 15  1  0
 15 16  2  0
 15 17  1  0
 17 18  1  0
 18 19  2  0
 19 20  1  0
 20 21  2  0
 21 22  1  0
 21 23  1  0
 23 24  1  0
 23 25  2  0
 25 26  1  0
 25 27  1  0
 27 28  1  0
 28 29  2  0
 19 30  1  0
 30 31  1  0
 31 32  2  0
 31 33  1  0
 33 34  1  0
 34 35  1  0
 10 36  1  0
 36 37  1  0
 36 38  2  0
 38 39  1  0
 38  3  1  0
 33 17  2  0
 28 20  1  0
M  CHG  4   4  -1  14  -1  27  -1  30  -1
M  END
>  <UniqueID>  (38) 
37

>  <SMILES>  (38) 
[H]/N=c1/ccc(C[N-]C(=O)c2nc(-c3ccc[n-]c3=O)[n-]c(=O)c2O)c(C)[n-]1

>  <Energy>  (38) 
49.812331259580155

>  <Genealogy>  (38) 
Cc1[n-]c(=N)ccc1C[N-]C(=O)c1nc(-c2ccc[n-]c2=O)[n-]c(=O)c1O (protonated)
[H]/N=c1/ccc(C[N-]C(=O)c2nc(-c3ccc[n-]c3=O)[n-]c(=O)c2O)c(C)[n-]1 (cis-trans isomerization)
[H]/N=c1/ccc(C[N-]C(=O)c2nc(-c3ccc[n-]c3=O)[n-]c(=O)c2O)c(C)[n-]1 (3D coordinates assigned)
[H]/N=c1/ccc(C[N-]C(=O)c2nc(-c3ccc[n-]c3=O)[n-]c(=O)c2O)c(C)[n-]1 (optimized conformer: 49.812331259580155 kcal/mol)

>  <smiles>  (38) 
Cc1[nH]c(=N)ccc1CNC(=O)c1nc(-c2ccc[nH]c2=O)[nH]c(=O)c1O

>  <score_type>  (38) 
oracle

>  <origin>  (38) 
adg

>  <m_score__min__energy>  (38) 
-13.1

>  <m_primary>  (38) 
energy

$$$$
38:0
     RDKit          3D

 69 73  0  0  0  0  0  0  0  0999 V2000
   61.6970   29.3900   49.8820 O   0  0  0  0  0  0  0  0  0  0  0  0
   60.6030   28.7650   49.9500 C   0  0  0  0  0  0  0  0  0  0  0  0
   60.3940   27.7670   51.0480 C   0  0  0  0  0  0  0  0  0  0  0  0
   61.7170   27.2400   51.5320 C   0  0  0  0  0  0  0  0  0  0  0  0
   62.6360   28.0960   52.1600 C   0  0  0  0  0  0  0  0  0  0  0  0
   63.8820   27.6140   52.5700 C   0  0  0  0  0  0  0  0  0  0  0  0
   64.2250   26.2770   52.3480 C   0  0  0  0  0  0  0  0  0  0  0  0
   63.3210   25.4210   51.7120 C   0  0  0  0  0  0  0  0  0  0  0  0
   62.0720   25.8980   51.3050 C   0  0  0  0  0  0  0  0  0  0  0  0
   59.5850   28.9750   48.9610 N   0  0  0  0  0  0  0  0  0  0  0  0
   59.6160   30.0750   48.0390 C   0  0  0  0  0  0  0  0  0  0  0  0
   59.9580   31.3480   48.5190 C   0  0  0  0  0  0  0  0  0  0  0  0
   59.9790   32.4530   47.6580 C   0  0  0  0  0  0  0  0  0  0  0  0
   60.3760   34.0540   48.2820 S   0  0  0  0  0  0  0  0  0  0  0  0
   59.8300   35.0910   47.3380 O   0  0  0  0  0  0  0  0  0  0  0  0
   59.6910   34.2420   49.6080 O   0  0  0  0  0  0  0  0  0  0  0  0
   62.0960   34.3100   48.4870 N   0  0  0  0  0  0  0  0  0  0  0  0
   62.6040   33.8700   49.8000 C   0  0  0  0  0  0  0  0  0  0  0  0
   63.1010   32.4170   49.7860 C   0  0  0  0  0  0  0  0  0  0  0  0
   64.0290   32.2160   48.7440 O   0  0  0  0  0  0  0  0  0  0  0  0
   63.3790   32.3940   47.5050 C   0  0  0  0  0  0  0  0  0  0  0  0
   62.9030   33.8440   47.3420 C   0  0  0  0  0  0  0  0  0  0  0  0
   59.6430   32.2870   46.3100 C   0  0  0  0  0  0  0  0  0  0  0  0
   59.3270   31.0190   45.8150 C   0  0  0  0  0  0  0  0  0  0  0  0
   59.3240   29.9010   46.6650 C   0  0  0  0  0  0  0  0  0  0  0  0
   59.0990   28.5960   46.1060 N   0  0  0  0  0  0  0  0  0  0  0  0
   58.1720   28.4510   44.9720 C   0  0  0  0  0  0  0  0  0  0  0  0
   57.9670   26.9780   44.6000 C   0  0  0  0  0  0  0  0  0  0  0  0
   57.7110   26.1810   45.8080 N   0  0  0  0  0  0  0  0  0  0  0  0
   56.7410   25.1190   45.7820 C   0  0  0  0  0  0  0  0  0  0  0  0
   57.1640   23.7860   45.6390 C   0  0  0  0  0  0  0  0  0  0  0  0
   56.2310   22.7460   45.6170 C   0  0  0  0  0  0  0  0  0  0  0  0
   54.8670   23.0270   45.7350 C   0  0  0  0  0  0  0  0  0  0  0  0
   54.4350   24.3490   45.8730 C   0  0  0  0  0  0  0  0  0  0  0  0
   55.3640   25.3960   45.8930 C   0  0  0  0  0  0  0  0  0  0  0  0
   54.9100   26.7050   46.0020 O   0  0  0  0  0  0  0  0  0  0  0  0
   58.5140   26.3950   47.0230 C   0  0  0  0  0  0  0  0  0  0  0  0
   59.6360   27.4060   46.7790 C   0  0  0  0  0  0  0  0  0  0  0  0
   59.8685   28.2517   51.8840 H   0  0  0  0  0  0  0  0  0  0  0  0
   59.7946   26.9295   50.6615 H   0  0  0  0  0  0  0  0  0  0  0  0
   62.3740   29.1507   52.3300 H   0  0  0  0  0  0  0  0  0  0  0  0
   64.5943   28.2879   53.0684 H   0  0  0  0  0  0  0  0  0  0  0  0
   65.2053   25.8989   52.6735 H   0  0  0  0  0  0  0  0  0  0  0  0
   63.5932   24.3706   51.5317 H   0  0  0  0  0  0  0  0  0  0  0  0
   61.3636   25.2211   50.8050 H   0  0  0  0  0  0  0  0  0  0  0  0
   58.8710   28.2250   48.8170 H   0  0  0  0  0  0  0  0  0  0  0  0
   60.2120   31.4798   49.5811 H   0  0  0  0  0  0  0  0  0  0  0  0
   63.4384   34.5246   50.0920 H   0  0  0  0  0  0  0  0  0  0  0  0
   61.7709   33.9295   50.5158 H   0  0  0  0  0  0  0  0  0  0  0  0
   63.5845   32.1918   50.7481 H   0  0  0  0  0  0  0  0  0  0  0  0
   62.2403   31.7512   49.6253 H   0  0  0  0  0  0  0  0  0  0  0  0
   64.0793   32.1509   46.6923 H   0  0  0  0  0  0  0  0  0  0  0  0
   62.5033   31.7294   47.4678 H   0  0  0  0  0  0  0  0  0  0  0  0
   63.7843   34.4950   47.2443 H   0  0  0  0  0  0  0  0  0  0  0  0
   62.2654   33.8861   46.4466 H   0  0  0  0  0  0  0  0  0  0  0  0
   59.6275   33.1575   45.6377 H   0  0  0  0  0  0  0  0  0  0  0  0
   59.0785   30.8955   44.7506 H   0  0  0  0  0  0  0  0  0  0  0  0
   57.2009   28.8892   45.2457 H   0  0  0  0  0  0  0  0  0  0  0  0
   58.6044   28.9697   44.1037 H   0  0  0  0  0  0  0  0  0  0  0  0
   57.1078   26.8914   43.9186 H   0  0  0  0  0  0  0  0  0  0  0  0
   58.8759   26.6020   44.1075 H   0  0  0  0  0  0  0  0  0  0  0  0
   58.2364   23.5602   45.5438 H   0  0  0  0  0  0  0  0  0  0  0  0
   56.5703   21.7055   45.5067 H   0  0  0  0  0  0  0  0  0  0  0  0
   54.1334   22.2075   45.7193 H   0  0  0  0  0  0  0  0  0  0  0  0
   53.3610   24.5676   45.9662 H   0  0  0  0  0  0  0  0  0  0  0  0
   57.8597   26.7724   47.8227 H   0  0  0  0  0  0  0  0  0  0  0  0
   58.9687   25.4357   47.3112 H   0  0  0  0  0  0  0  0  0  0  0  0
   60.0779   27.7001   47.7425 H   0  0  0  0  0  0  0  0  0  0  0  0
   60.4057   26.9460   46.1419 H   0  0  0  0  0  0  0  0  0  0  0  0
  1  2  2  0
  2  3  1  0
  3  4  1  0
  4  5  2  0
  5  6  1  0
  6  7  2  0
  7  8  1  0
  8  9  2  0
  2 10  1  0
 10 11  1  0
 11 12  2  0
 12 13  1  0
 13 14  1  0
 14 15  2  0
 14 16  2  0
 14 17  1  0
 17 18  1  0
 18 19  1  0
 19 20  1  0
 20 21  1  0
 21 22  1  0
 13 23  2  0
 23 24  1  0
 24 25  2  0
 25 26  1  0
 26 27  1  0
 27 28  1  0
 28 29  1  0
 29 30  1  0
 30 31  2  0
 31 32  1  0
 32 33  2  0
 33 34  1  0
 34 35  2  0
 35 36  1  0
 29 37  1  0
 37 38  1  0
  9  4  1  0
 25 11  1  0
 38 26  1  0
 22 17  1  0
 35 30  1  0
  3 39  1  0
  3 40  1  0
  5 41  1  0
  6 42  1  0
  7 43  1  0
  8 44  1  0
  9 45  1  0
 10 46  1  0
 12 47  1  0
 18 48  1  0
 18 49  1  0
 19 50  1  0
 19 51  1  0
 21 52  1  0
 21 53  1  0
 22 54  1  0
 22 55  1  0
 23 56  1  0
 24 57  1  0
 27 58  1  0
 27 59  1  0
 28 60  1  0
 28 61  1  0
 31 62  1  0
 32 63  1  0
 33 64  1  0
 34 65  1  0
 37 66  1  0
 37 67  1  0
 38 68  1  0
 38 69  1  0
M  CHG  1  36  -1
M  END
>  <UniqueID>  (39) 
38

>  <SMILES>  (39) 
O=C(Cc1ccccc1)Nc1cc(S(=O)(=O)N2CCOCC2)ccc1N1CCN(c2ccccc2[O-])CC1

>  <Energy>  (39) 
91.17063694833814

>  <Genealogy>  (39) 
O=C(Cc1ccccc1)Nc1cc(S(=O)(=O)N2CCOCC2)ccc1N1CCN(c2ccccc2[O-])CC1 (protonated)
O=C(Cc1ccccc1)Nc1cc(S(=O)(=O)N2CCOCC2)ccc1N1CCN(c2ccccc2[O-])CC1 (3D coordinates assigned)
O=C(Cc1ccccc1)Nc1cc(S(=O)(=O)N2CCOCC2)ccc1N1CCN(c2ccccc2[O-])CC1 (nonaromatic ring conformer: 91.17063694833814 kcal/mol)

>  <smiles>  (39) 
O=C(Cc1ccccc1)Nc1cc(S(=O)(=O)N2CCOCC2)ccc1N1CCN(c2ccccc2O)CC1

>  <score_type>  (39) 
oracle

>  <origin>  (39) 
adg

>  <m_score__min__energy>  (39) 
-13.32

>  <m_primary>  (39) 
energy

$$$$
39:0
     RDKit          3D

 44 46  0  0  0  0  0  0  0  0999 V2000
   56.3180   28.8420   52.3930 O   0  0  0  0  0  0  0  0  0  0  0  0
   56.0970   30.0840   52.3550 C   0  0  0  0  0  0  0  0  0  0  0  0
   54.8740   30.6310   53.0490 C   0  0  0  0  0  0  0  0  0  0  0  0
   53.6920   30.6990   52.1180 C   0  0  0  0  0  0  0  0  0  0  0  0
   53.5990   29.8250   51.0210 C   0  0  0  0  0  0  0  0  0  0  0  0
   52.5160   29.9120   50.1410 C   0  0  0  0  0  0  0  0  0  0  0  0
   51.5230   30.8730   50.3460 C   0  0  0  0  0  0  0  0  0  0  0  0
   51.6130   31.7550   51.4280 C   0  0  0  0  0  0  0  0  0  0  0  0
   50.6280   32.7150   51.6260 O   0  0  0  0  0  0  0  0  0  0  0  0
   52.6960   31.6710   52.3100 C   0  0  0  0  0  0  0  0  0  0  0  0
   57.0490   30.9580   51.7110 N   0  0  0  0  0  0  0  0  0  0  0  0
   58.0700   30.3870   50.8190 C   0  0  0  0  0  0  0  0  0  0  0  0
   58.4000   31.3620   49.6830 C   0  0  0  0  0  0  0  0  0  0  0  0
   58.6570   32.7210   50.1880 N   0  0  0  0  0  0  0  0  0  0  0  0
   59.3270   33.6820   49.3470 C   0  0  0  0  0  0  0  0  0  0  0  0
   60.0450   34.5780   49.8660 O   0  0  0  0  0  0  0  0  0  0  0  0
   59.2230   33.6170   47.8750 C   0  0  0  0  0  0  0  0  0  0  0  0
   57.9990   33.2420   47.2970 C   0  0  0  0  0  0  0  0  0  0  0  0
   57.8540   33.2060   45.9080 C   0  0  0  0  0  0  0  0  0  0  0  0
   58.9290   33.5350   45.0820 C   0  0  0  0  0  0  0  0  0  0  0  0
   60.1590   33.8850   45.6450 C   0  0  0  0  0  0  0  0  0  0  0  0
   60.3230   33.9150   47.0350 C   0  0  0  0  0  0  0  0  0  0  0  0
   61.5870   34.2160   47.5470 O   0  0  0  0  0  0  0  0  0  0  0  0
   58.4070   33.0400   51.5990 C   0  0  0  0  0  0  0  0  0  0  0  0
   57.1050   32.3850   52.0690 C   0  0  0  0  0  0  0  0  0  0  0  0
   54.6229   29.9776   53.8976 H   0  0  0  0  0  0  0  0  0  0  0  0
   55.1007   31.6512   53.3923 H   0  0  0  0  0  0  0  0  0  0  0  0
   54.3812   29.0698   50.8543 H   0  0  0  0  0  0  0  0  0  0  0  0
   52.4458   29.2230   49.2864 H   0  0  0  0  0  0  0  0  0  0  0  0
   50.6690   30.9362   49.6555 H   0  0  0  0  0  0  0  0  0  0  0  0
   52.7678   32.3689   53.1572 H   0  0  0  0  0  0  0  0  0  0  0  0
   58.9831   30.1840   51.3978 H   0  0  0  0  0  0  0  0  0  0  0  0
   57.6800   29.4548   50.3843 H   0  0  0  0  0  0  0  0  0  0  0  0
   59.2953   31.0031   49.1542 H   0  0  0  0  0  0  0  0  0  0  0  0
   57.5335   31.4060   49.0069 H   0  0  0  0  0  0  0  0  0  0  0  0
   57.1491   32.9749   47.9422 H   0  0  0  0  0  0  0  0  0  0  0  0
   56.8896   32.9175   45.4644 H   0  0  0  0  0  0  0  0  0  0  0  0
   58.8085   33.5189   43.9887 H   0  0  0  0  0  0  0  0  0  0  0  0
   61.0057   34.1391   44.9904 H   0  0  0  0  0  0  0  0  0  0  0  0
   61.7480   34.4270   48.5240 H   0  0  0  0  0  0  0  0  0  0  0  0
   59.2423   32.6659   52.2092 H   0  0  0  0  0  0  0  0  0  0  0  0
   58.3190   34.1309   51.7092 H   0  0  0  0  0  0  0  0  0  0  0  0
   57.0332   32.4806   53.1625 H   0  0  0  0  0  0  0  0  0  0  0  0
   56.2672   32.8950   51.5710 H   0  0  0  0  0  0  0  0  0  0  0  0
  1  2  2  0
  2  3  1  0
  3  4  1  0
  4  5  2  0
  5  6  1  0
  6  7  2  0
  7  8  1  0
  8  9  1  0
  8 10  2  0
  2 11  1  0
 11 12  1  0
 12 13  1  0
 13 14  1  0
 14 15  1  0
 15 16  2  0
 15 17  1  0
 17 18  2  0
 18 19  1  0
 19 20  2  0
 20 21  1  0
 21 22  2  0
 22 23  1  0
 14 24  1  0
 24 25  1  0
 10  4  1  0
 25 11  1  0
 22 17  1  0
  3 26  1  0
  3 27  1  0
  5 28  1  0
  6 29  1  0
  7 30  1  0
 10 31  1  0
 12 32  1  0
 12 33  1  0
 13 34  1  0
 13 35  1  0
 18 36  1  0
 19 37  1  0
 20 38  1  0
 21 39  1  0
 23 40  1  0
 24 41  1  0
 24 42  1  0
 25 43  1  0
 25 44  1  0
M  CHG  1   9  -1
M  END
>  <UniqueID>  (40) 
39

>  <SMILES>  (40) 
O=C(Cc1cccc([O-])c1)N1CCN(C(=O)c2ccccc2O)CC1

>  <Energy>  (40) 
52.54037650841216

>  <Genealogy>  (40) 
O=C(Cc1cccc([O-])c1)N1CCN(C(=O)c2ccccc2O)CC1 (protonated)
O=C(Cc1cccc([O-])c1)N1CCN(C(=O)c2ccccc2O)CC1 (3D coordinates assigned)
O=C(Cc1cccc([O-])c1)N1CCN(C(=O)c2ccccc2O)CC1 (nonaromatic ring conformer: 52.54037650841216 kcal/mol)

>  <smiles>  (40) 
O=C(Cc1cccc(O)c1)N1CCN(C(=O)c2ccccc2O)CC1

>  <score_type>  (40) 
oracle

>  <origin>  (40) 
adg

>  <m_score__min__energy>  (40) 
-11.66

>  <m_primary>  (40) 
energy

$$$$
40:0
     RDKit          3D

 39 41  0  0  0  0  0  0  0  0999 V2000
   58.9750   27.4540   43.6610 O   0  0  0  0  0  0  0  0  0  0  0  0
   57.8580   27.1410   44.1540 C   0  0  0  0  0  0  0  0  0  0  0  0
   57.4090   25.7150   44.1150 C   0  0  0  0  0  0  0  0  0  0  0  0
   57.0600   25.2500   45.4940 C   0  0  0  0  0  0  0  0  0  0  0  0
   57.6900   24.2480   46.1330 N   0  0  0  0  0  0  0  0  0  0  0  0
   57.0060   24.1440   47.2940 C   0  0  0  0  0  0  0  0  0  0  0  0
   57.3030   23.3030   48.1810 O   0  0  0  0  0  0  0  0  0  0  0  0
   55.9770   25.0080   47.4260 N   0  0  0  0  0  0  0  0  0  0  0  0
   56.0220   25.6970   46.2760 C   0  0  0  0  0  0  0  0  0  0  0  0
   55.1310   26.7100   45.9450 O   0  0  0  0  0  0  0  0  0  0  0  0
   56.9920   28.1520   44.6890 N   0  0  0  0  0  0  0  0  0  0  0  0
   57.3940   29.5240   44.8080 C   0  0  0  0  0  0  0  0  0  0  0  0
   56.6420   30.5060   44.1470 C   0  0  0  0  0  0  0  0  0  0  0  0
   57.0200   31.8470   44.2090 C   0  0  0  0  0  0  0  0  0  0  0  0
   58.1450   32.2240   44.9450 C   0  0  0  0  0  0  0  0  0  0  0  0
   58.5060   33.5290   45.0100 F   0  0  0  0  0  0  0  0  0  0  0  0
   58.8870   31.2590   45.6310 C   0  0  0  0  0  0  0  0  0  0  0  0
   58.5190   29.9030   45.5790 C   0  0  0  0  0  0  0  0  0  0  0  0
   59.2470   28.9430   46.3700 N   0  0  0  0  0  0  0  0  0  0  0  0
   60.5650   28.4650   45.9310 C   0  0  0  0  0  0  0  0  0  0  0  0
   60.7070   26.9410   46.1340 C   0  0  0  0  0  0  0  0  0  0  0  0
   59.8770   26.3990   47.2290 N   0  0  0  0  0  0  0  0  0  0  0  0
   59.5760   27.3960   48.2590 C   0  0  0  0  0  0  0  0  0  0  0  0
   58.6950   28.4870   47.6530 C   0  0  0  0  0  0  0  0  0  0  0  0
   56.5243   25.6293   43.4670 H   0  0  0  0  0  0  0  0  0  0  0  0
   58.2236   25.0908   43.7190 H   0  0  0  0  0  0  0  0  0  0  0  0
   55.9840   27.9190   44.8340 H   0  0  0  0  0  0  0  0  0  0  0  0
   55.7477   30.2165   43.5756 H   0  0  0  0  0  0  0  0  0  0  0  0
   56.4310   32.6088   43.6773 H   0  0  0  0  0  0  0  0  0  0  0  0
   59.7669   31.5629   46.2170 H   0  0  0  0  0  0  0  0  0  0  0  0
   60.6928   28.6974   44.8635 H   0  0  0  0  0  0  0  0  0  0  0  0
   61.3348   28.9682   46.5345 H   0  0  0  0  0  0  0  0  0  0  0  0
   60.4163   26.4393   45.1992 H   0  0  0  0  0  0  0  0  0  0  0  0
   61.7557   26.7536   46.4080 H   0  0  0  0  0  0  0  0  0  0  0  0
   60.3960   25.6100   47.6790 H   0  0  0  0  0  0  0  0  0  0  0  0
   59.0455   26.9150   49.0940 H   0  0  0  0  0  0  0  0  0  0  0  0
   60.5113   27.8384   48.6325 H   0  0  0  0  0  0  0  0  0  0  0  0
   57.6838   28.0861   47.4896 H   0  0  0  0  0  0  0  0  0  0  0  0
   58.6582   29.3398   48.3468 H   0  0  0  0  0  0  0  0  0  0  0  0
  1  2  2  0
  2  3  1  0
  3  4  1  0
  4  5  1  0
  5  6  1  0
  6  7  2  0
  6  8  1  0
  8  9  1  0
  9 10  1  0
  2 11  1  0
 11 12  1  0
 12 13  2  0
 13 14  1  0
 14 15  2  0
 15 16  1  0
 15 17  1  0
 17 18  2  0
 18 19  1  0
 19 20  1  0
 20 21  1  0
 21 22  1  0
 22 23  1  0
 23 24  1  0
  9  4  2  0
 18 12  1  0
 24 19  1  0
  3 25  1  0
  3 26  1  0
 11 27  1  0
 13 28  1  0
 14 29  1  0
 17 30  1  0
 20 31  1  0
 20 32  1  0
 21 33  1  0
 21 34  1  0
 22 35  1  0
 23 36  1  0
 23 37  1  0
 24 38  1  0
 24 39  1  0
M  CHG  3   5  -1   8  -1  10  -1
M  END
>  <UniqueID>  (41) 
40

>  <SMILES>  (41) 
O=C(Cc1[n-]c(=O)[n-]c1[O-])Nc1ccc(F)cc1N1CCNCC1

>  <Energy>  (41) 
80.23900008068351

>  <Genealogy>  (41) 
O=C(Cc1[n-]c(=O)[n-]c1[O-])Nc1ccc(F)cc1N1CCNCC1 (protonated)
O=C(Cc1[n-]c(=O)[n-]c1[O-])Nc1ccc(F)cc1N1CCNCC1 (3D coordinates assigned)
O=C(Cc1[n-]c(=O)[n-]c1[O-])Nc1ccc(F)cc1N1CCNCC1 (nonaromatic ring conformer: 80.23900008068351 kcal/mol)

>  <smiles>  (41) 
O=C(Cc1[nH]c(=O)[nH]c1O)Nc1ccc(F)cc1N1CCNCC1

>  <score_type>  (41) 
oracle

>  <origin>  (41) 
adg

>  <m_score__min__energy>  (41) 
-15.33

>  <m_primary>  (41) 
energy

$$$$
41:0
     RDKit          3D

 51 54  0  0  0  0  0  0  0  0999 V2000
   58.4040   30.2990   44.8870 C   0  0  0  0  0  0  0  0  0  0  0  0
   58.5960   29.6330   46.0390 C   0  0  0  0  0  0  0  0  0  0  0  0
   58.3100   28.2820   46.3010 C   0  0  0  0  0  0  0  0  0  0  0  0
   57.6430   27.3610   45.5780 C   0  0  0  0  0  0  0  0  0  0  0  0
   57.2080   26.0370   46.0630 C   0  0  0  0  0  0  0  0  0  0  0  0
   55.8480   25.7500   46.2760 C   0  0  0  0  0  0  0  0  0  0  0  0
   54.8700   26.6980   46.0010 O   0  0  0  0  0  0  0  0  0  0  0  0
   55.4810   24.5360   46.7610 N   0  0  0  0  0  0  0  0  0  0  0  0
   56.4100   23.5920   47.0630 C   0  0  0  0  0  0  0  0  0  0  0  0
   55.9380   22.1410   47.6420 S   0  0  0  0  0  0  0  0  0  0  0  0
   57.7310   23.8570   46.8930 N   0  0  0  0  0  0  0  0  0  0  0  0
   58.1490   25.0550   46.4110 C   0  0  0  0  0  0  0  0  0  0  0  0
   59.3830   25.2710   46.2720 O   0  0  0  0  0  0  0  0  0  0  0  0
   58.8590   28.0040   47.5430 C   0  0  0  0  0  0  0  0  0  0  0  0
   59.3980   29.1810   48.0170 C   0  0  0  0  0  0  0  0  0  0  0  0
   60.0840   29.3290   49.3400 C   0  0  0  0  0  0  0  0  0  0  0  0
   59.2410   30.1700   47.1070 N   0  0  0  0  0  0  0  0  0  0  0  0
   59.7000   31.5260   47.2560 C   0  0  0  0  0  0  0  0  0  0  0  0
   58.8070   32.5310   47.6500 C   0  0  0  0  0  0  0  0  0  0  0  0
   59.2540   33.8440   47.8080 C   0  0  0  0  0  0  0  0  0  0  0  0
   60.5950   34.1620   47.5790 C   0  0  0  0  0  0  0  0  0  0  0  0
   61.5070   33.1660   47.1840 C   0  0  0  0  0  0  0  0  0  0  0  0
   62.9300   33.5010   46.9470 C   0  0  0  0  0  0  0  0  0  0  0  0
   63.2570   34.2120   45.9580 O   0  0  0  0  0  0  0  0  0  0  0  0
   63.9410   33.0190   47.8420 N   0  0  0  0  0  0  0  0  0  0  0  0
   64.0790   33.4680   49.2230 C   0  0  0  0  0  0  0  0  0  0  0  0
   62.9480   32.9350   50.0580 C   0  0  0  0  0  0  0  0  0  0  0  0
   62.9230   31.5860   50.4530 C   0  0  0  0  0  0  0  0  0  0  0  0
   61.8790   31.1050   51.2480 C   0  0  0  0  0  0  0  0  0  0  0  0
   60.8560   31.9650   51.6580 C   0  0  0  0  0  0  0  0  0  0  0  0
   60.8760   33.3090   51.2750 C   0  0  0  0  0  0  0  0  0  0  0  0
   59.8610   34.1640   51.6850 O   0  0  0  0  0  0  0  0  0  0  0  0
   61.9190   33.7940   50.4790 C   0  0  0  0  0  0  0  0  0  0  0  0
   61.0450   31.8470   47.0230 C   0  0  0  0  0  0  0  0  0  0  0  0
   58.6732   31.3632   44.8155 H   0  0  0  0  0  0  0  0  0  0  0  0
   57.9777   29.7798   44.0160 H   0  0  0  0  0  0  0  0  0  0  0  0
   57.4019   27.6185   44.5361 H   0  0  0  0  0  0  0  0  0  0  0  0
   58.8637   27.0296   48.0534 H   0  0  0  0  0  0  0  0  0  0  0  0
   59.3564   29.1720   50.1499 H   0  0  0  0  0  0  0  0  0  0  0  0
   60.8892   28.5839   49.4209 H   0  0  0  0  0  0  0  0  0  0  0  0
   60.5103   30.3398   49.4209 H   0  0  0  0  0  0  0  0  0  0  0  0
   57.7510   32.2849   47.8353 H   0  0  0  0  0  0  0  0  0  0  0  0
   58.5483   34.6305   48.1137 H   0  0  0  0  0  0  0  0  0  0  0  0
   60.9403   35.1983   47.7084 H   0  0  0  0  0  0  0  0  0  0  0  0
   65.0339   33.1037   49.6298 H   0  0  0  0  0  0  0  0  0  0  0  0
   64.0555   34.5675   49.2469 H   0  0  0  0  0  0  0  0  0  0  0  0
   63.7278   30.9068   50.1353 H   0  0  0  0  0  0  0  0  0  0  0  0
   61.8623   30.0479   51.5516 H   0  0  0  0  0  0  0  0  0  0  0  0
   60.0347   31.5837   52.2825 H   0  0  0  0  0  0  0  0  0  0  0  0
   61.9336   34.8528   50.1813 H   0  0  0  0  0  0  0  0  0  0  0  0
   61.7463   31.0591   46.7110 H   0  0  0  0  0  0  0  0  0  0  0  0
  1  2  2  0
  2  3  1  0
  3  4  2  3
  4  5  1  0
  5  6  2  0
  6  7  1  0
  6  8  1  0
  8  9  1  0
  9 10  2  0
  9 11  1  0
 11 12  1  0
 12 13  2  0
  3 14  1  0
 14 15  2  0
 15 16  1  0
 15 17  1  0
 17 18  1  0
 18 19  2  0
 19 20  1  0
 20 21  2  0
 21 22  1  0
 22 23  1  0
 23 24  2  0
 23 25  1  0
 25 26  1  0
 26 27  1  0
 27 28  2  0
 28 29  1  0
 29 30  2  0
 30 31  1  0
 31 32  1  0
 31 33  2  0
 22 34  2  0
 17  2  1  0
 34 18  1  0
 12  5  1  0
 33 27  1  0
  1 35  1  0
  1 36  1  0
  4 37  1  0
 14 38  1  0
 16 39  1  0
 16 40  1  0
 16 41  1  0
 19 42  1  0
 20 43  1  0
 21 44  1  0
 26 45  1  0
 26 46  1  0
 28 47  1  0
 29 48  1  0
 30 49  1  0
 33 50  1  0
 34 51  1  0
M  CHG  5   7  -1   8  -1  11  -1  25  -1  32  -1
M  END
>  <UniqueID>  (42) 
41

>  <SMILES>  (42) 
C=c1c(=Cc2c([O-])[n-]c(=S)[n-]c2=O)cc(C)n1-c1cccc(C(=O)[N-]Cc2cccc([O-])c2)c1

>  <Energy>  (42) 
102.67728509869208

>  <Genealogy>  (42) 
C=c1c(=Cc2c([O-])[n-]c(=S)[n-]c2=O)cc(C)n1-c1cccc(C(=O)[N-]Cc2cccc([O-])c2)c1 (protonated)
C=c1c(=Cc2c([O-])[n-]c(=S)[n-]c2=O)cc(C)n1-c1cccc(C(=O)[N-]Cc2cccc([O-])c2)c1 (3D coordinates assigned)
C=c1c(=Cc2c([O-])[n-]c(=S)[n-]c2=O)cc(C)n1-c1cccc(C(=O)[N-]Cc2cccc([O-])c2)c1 (optimized conformer: 102.67728509869208 kcal/mol)

>  <smiles>  (42) 
C=c1c(=Cc2c(O)[nH]c(=S)[nH]c2=O)cc(C)n1-c1cccc(C(=O)NCc2cccc(O)c2)c1

>  <score_type>  (42) 
oracle

>  <origin>  (42) 
adg

>  <m_score__min__energy>  (42) 
-21.949999999999999

>  <m_primary>  (42) 
energy

$$$$
42:0
     RDKit          3D

 70 74  0  0  0  0  0  0  0  0999 V2000
   63.2460   31.6240   47.1180 C   0  0  0  0  0  0  0  0  0  0  0  0
   62.8740   32.6290   48.1120 N   0  0  0  0  0  0  0  0  0  0  0  0
   63.6730   33.1070   49.0810 C   0  0  0  0  0  0  0  0  0  0  0  0
   62.9710   34.0610   49.7800 C   0  0  0  0  0  0  0  0  0  0  0  0
   61.7380   34.1930   49.2540 N   0  0  0  0  0  0  0  0  0  0  0  0
   61.7060   33.3050   48.2360 C   0  0  0  0  0  0  0  0  0  0  0  0
   60.5180   33.1310   47.3600 C   0  0  0  0  0  0  0  0  0  0  0  0
   60.5750   32.3170   46.3980 O   0  0  0  0  0  0  0  0  0  0  0  0
   59.3240   33.9350   47.5560 N   0  0  1  0  0  0  0  0  0  0  0  0
   59.2810   35.0320   46.5610 C   0  0  0  0  0  0  0  0  0  0  0  0
   58.8860   34.5460   45.1520 C   0  0  0  0  0  0  0  0  0  0  0  0
   57.6580   33.5880   45.1480 C   0  0  1  0  0  0  0  0  0  0  0  0
   57.9560   32.2070   44.5900 C   0  0  0  0  0  0  0  0  0  0  0  0
   58.2550   32.0500   43.3750 O   0  0  0  0  0  0  0  0  0  0  0  0
   57.7360   31.0560   45.4210 N   0  0  0  0  0  0  0  0  0  0  0  0
   58.5520   30.0600   45.6310 C   0  0  0  0  0  0  0  0  0  0  0  0
   58.8750   29.5990   46.9250 C   0  0  0  0  0  0  0  0  0  0  0  0
   59.7320   28.4980   47.0760 C   0  0  0  0  0  0  0  0  0  0  0  0
   60.0620   27.9740   48.4160 C   0  0  0  0  0  0  0  0  0  0  0  0
   59.6590   26.8200   48.7270 O   0  0  0  0  0  0  0  0  0  0  0  0
   60.7730   28.7740   49.3880 N   0  0  0  0  0  0  0  0  0  0  0  0
   60.7240   30.2430   49.3130 C   0  0  0  0  0  0  0  0  0  0  0  0
   61.0200   30.8980   50.6720 C   0  0  0  0  0  0  0  0  0  0  0  0
   60.3450   30.1430   51.8370 C   0  0  0  0  0  0  0  0  0  0  0  0
   58.8460   30.4090   51.8620 C   0  0  0  0  0  0  0  0  0  0  0  0
   57.9730   29.3980   52.3060 C   0  0  0  0  0  0  0  0  0  0  0  0
   56.5950   29.6250   52.3790 C   0  0  0  0  0  0  0  0  0  0  0  0
   56.0700   30.8710   52.0240 C   0  0  0  0  0  0  0  0  0  0  0  0
   54.6520   31.1040   52.0990 C   0  0  0  0  0  0  0  0  0  0  0  0
   53.5110   31.2900   52.1600 N   0  0  0  0  0  0  0  0  0  0  0  0
   56.9280   31.8910   51.5990 C   0  0  0  0  0  0  0  0  0  0  0  0
   58.3050   31.6660   51.5250 C   0  0  0  0  0  0  0  0  0  0  0  0
   60.7070   28.6280   51.8570 C   0  0  0  0  0  0  0  0  0  0  0  0
   61.3840   28.1410   50.5670 C   0  0  0  0  0  0  0  0  0  0  0  0
   60.2780   27.8940   45.9380 C   0  0  0  0  0  0  0  0  0  0  0  0
   59.9260   28.3670   44.6740 C   0  0  0  0  0  0  0  0  0  0  0  0
   59.0760   29.4190   44.5520 N   0  0  0  0  0  0  0  0  0  0  0  0
   57.0310   33.4870   46.5520 C   0  0  0  0  0  0  0  0  0  0  0  0
   58.0860   33.0980   47.6040 C   0  0  0  0  0  0  0  0  0  0  0  0
   63.5841   30.7105   47.6290 H   0  0  0  0  0  0  0  0  0  0  0  0
   62.3746   31.3908   46.4885 H   0  0  0  0  0  0  0  0  0  0  0  0
   64.0592   32.0144   46.4885 H   0  0  0  0  0  0  0  0  0  0  0  0
   64.7075   32.7906   49.2803 H   0  0  0  0  0  0  0  0  0  0  0  0
   63.3578   34.6299   50.6384 H   0  0  0  0  0  0  0  0  0  0  0  0
   59.3990   34.3980   48.4920 H   0  0  0  0  0  0  0  0  0  0  0  0
   60.2768   35.4960   46.5063 H   0  0  0  0  0  0  0  0  0  0  0  0
   58.5143   35.7484   46.8911 H   0  0  0  0  0  0  0  0  0  0  0  0
   59.7437   34.0148   44.7135 H   0  0  0  0  0  0  0  0  0  0  0  0
   58.6048   35.4357   44.5694 H   0  0  0  0  0  0  0  0  0  0  0  0
   56.9298   34.0413   44.4594 H   0  0  0  0  0  0  0  0  0  0  0  0
   58.4572   30.1000   47.8107 H   0  0  0  0  0  0  0  0  0  0  0  0
   61.4713   30.5867   48.5826 H   0  0  0  0  0  0  0  0  0  0  0  0
   59.7079   30.5345   49.0089 H   0  0  0  0  0  0  0  0  0  0  0  0
   62.1079   30.9025   50.8347 H   0  0  0  0  0  0  0  0  0  0  0  0
   60.6166   31.9212   50.6511 H   0  0  0  0  0  0  0  0  0  0  0  0
   60.7529   30.5430   52.7770 H   0  0  0  0  0  0  0  0  0  0  0  0
   58.3792   28.4186   52.5988 H   0  0  0  0  0  0  0  0  0  0  0  0
   55.9232   28.8219   52.7163 H   0  0  0  0  0  0  0  0  0  0  0  0
   56.5173   32.8732   51.3222 H   0  0  0  0  0  0  0  0  0  0  0  0
   58.9731   32.4775   51.2007 H   0  0  0  0  0  0  0  0  0  0  0  0
   61.3906   28.4448   52.6991 H   0  0  0  0  0  0  0  0  0  0  0  0
   59.7631   28.0718   51.9560 H   0  0  0  0  0  0  0  0  0  0  0  0
   62.4531   28.3976   50.6012 H   0  0  0  0  0  0  0  0  0  0  0  0
   61.2553   27.0513   50.4898 H   0  0  0  0  0  0  0  0  0  0  0  0
   60.9794   27.0527   46.0395 H   0  0  0  0  0  0  0  0  0  0  0  0
   60.3378   27.8869   43.7740 H   0  0  0  0  0  0  0  0  0  0  0  0
   56.2394   32.7234   46.5378 H   0  0  0  0  0  0  0  0  0  0  0  0
   56.6158   34.4696   46.8206 H   0  0  0  0  0  0  0  0  0  0  0  0
   58.3704   32.0484   47.4381 H   0  0  0  0  0  0  0  0  0  0  0  0
   57.6284   33.2595   48.5912 H   0  0  0  0  0  0  0  0  0  0  0  0
  1  2  1  0
  2  3  1  0
  3  4  2  0
  4  5  1  0
  5  6  2  0
  6  7  1  0
  7  8  2  0
  7  9  1  0
  9 10  1  0
 10 11  1  0
 11 12  1  0
 12 13  1  0
 13 14  2  0
 13 15  1  0
 15 16  2  3
 16 17  1  0
 17 18  2  0
 18 19  1  0
 19 20  2  0
 19 21  1  0
 21 22  1  0
 22 23  1  0
 23 24  1  0
 24 25  1  0
 25 26  2  0
 26 27  1  0
 27 28  2  0
 28 29  1  0
 29 30  3  0
 28 31  1  0
 31 32  2  0
 24 33  1  0
 33 34  1  0
 18 35  1  0
 35 36  2  0
 36 37  1  0
 12 38  1  0
 38 39  1  0
  6  2  1  0
 39  9  1  0
 37 16  1  0
 34 21  1  0
 32 25  1  0
  1 40  1  0
  1 41  1  0
  1 42  1  0
  3 43  1  0
  4 44  1  0
  9 45  1  1
 10 46  1  0
 10 47  1  0
 11 48  1  0
 11 49  1  0
 12 50  1  6
 17 51  1  0
 22 52  1  0
 22 53  1  0
 23 54  1  0
 23 55  1  0
 24 56  1  0
 26 57  1  0
 27 58  1  0
 31 59  1  0
 32 60  1  0
 33 61  1  0
 33 62  1  0
 34 63  1  0
 34 64  1  0
 35 65  1  0
 36 66  1  0
 38 67  1  0
 38 68  1  0
 39 69  1  0
 39 70  1  0
M  CHG  2   9   1  37  -1
M  END
>  <UniqueID>  (43) 
42

>  <SMILES>  (43) 
Cn1ccnc1C(=O)[NH+]1CCC(C(=O)N=c2cc(C(=O)N3CCC(c4ccc(C#N)cc4)CC3)cc[n-]2)CC1

>  <Energy>  (43) 
132.69173794047205

>  <Genealogy>  (43) 
Cn1ccnc1C(=O)[NH+]1CCC(C(=O)N=c2cc(C(=O)N3CCC(c4ccc(C#N)cc4)CC3)cc[n-]2)CC1 (protonated)
Cn1ccnc1C(=O)[NH+]1CCC(C(=O)N=c2cc(C(=O)N3CCC(c4ccc(C#N)cc4)CC3)cc[n-]2)CC1 (3D coordinates assigned)
Cn1ccnc1C(=O)[NH+]1CCC(C(=O)N=c2cc(C(=O)N3CCC(c4ccc(C#N)cc4)CC3)cc[n-]2)CC1 (nonaromatic ring conformer: 132.69173794047205 kcal/mol)

>  <smiles>  (43) 
Cn1ccnc1C(=O)N1CCC(C(=O)N=c2cc(C(=O)N3CCC(c4ccc(C#N)cc4)CC3)cc[nH]2)CC1

>  <score_type>  (43) 
oracle

>  <origin>  (43) 
adg

>  <m_score__min__energy>  (43) 
-9.3800000000000008

>  <m_primary>  (43) 
energy

$$$$
43:0
     RDKit          3D

 53 56  0  0  0  0  0  0  0  0999 V2000
   60.2350   28.9550   51.5250 C   0  0  0  0  0  0  0  0  0  0  0  0
   58.9360   29.6890   51.7220 C   0  0  0  0  0  0  0  0  0  0  0  0
   57.8730   28.9710   52.1680 N   0  0  0  0  0  0  0  0  0  0  0  0
   56.6640   29.5390   52.3800 C   0  0  0  0  0  0  0  0  0  0  0  0
   55.5950   28.7590   52.8390 C   0  0  0  0  0  0  0  0  0  0  0  0
   54.3460   29.3450   53.0560 C   0  0  0  0  0  0  0  0  0  0  0  0
   54.1600   30.7090   52.8180 C   0  0  0  0  0  0  0  0  0  0  0  0
   55.2240   31.4940   52.3620 C   0  0  0  0  0  0  0  0  0  0  0  0
   56.4870   30.9110   52.1390 C   0  0  0  0  0  0  0  0  0  0  0  0
   57.5890   31.6530   51.6790 C   0  0  0  0  0  0  0  0  0  0  0  0
   57.4480   32.8880   51.4530 O   0  0  0  0  0  0  0  0  0  0  0  0
   58.8050   31.0410   51.4730 N   0  0  0  0  0  0  0  0  0  0  0  0
   59.9470   31.8300   50.9580 C   0  0  0  0  0  0  0  0  0  0  0  0
   59.8540   32.0090   49.4690 C   0  0  0  0  0  0  0  0  0  0  0  0
   60.6830   31.4170   48.7270 O   0  0  0  0  0  0  0  0  0  0  0  0
   58.8200   32.8290   48.8990 N   0  0  0  0  0  0  0  0  0  0  0  0
   58.6750   33.0690   47.4900 C   0  0  0  0  0  0  0  0  0  0  0  0
   59.0030   34.3120   46.9200 C   0  0  0  0  0  0  0  0  0  0  0  0
   58.8480   34.5180   45.5470 C   0  0  0  0  0  0  0  0  0  0  0  0
   58.3600   33.4940   44.7330 C   0  0  0  0  0  0  0  0  0  0  0  0
   58.0140   32.2560   45.2910 C   0  0  0  0  0  0  0  0  0  0  0  0
   57.4180   30.9540   44.2630 S   0  0  0  0  0  0  0  0  0  0  0  0
   56.0790   30.4960   44.7720 O   0  0  0  0  0  0  0  0  0  0  0  0
   57.2190   31.4880   42.8710 O   0  0  0  0  0  0  0  0  0  0  0  0
   58.5150   29.5900   44.2020 N   0  0  0  0  0  0  0  0  0  0  0  0
   57.8100   28.2940   44.1870 C   0  0  0  0  0  0  0  0  0  0  0  0
   57.3950   27.8110   45.5970 C   0  0  0  0  0  0  0  0  0  0  0  0
   57.9390   28.5960   46.6390 O   0  0  0  0  0  0  0  0  0  0  0  0
   59.3230   28.7620   46.4350 C   0  0  0  0  0  0  0  0  0  0  0  0
   59.5820   29.6690   45.2220 C   0  0  0  0  0  0  0  0  0  0  0  0
   58.1540   32.0560   46.6720 C   0  0  0  0  0  0  0  0  0  0  0  0
   60.6697   28.7094   52.5052 H   0  0  0  0  0  0  0  0  0  0  0  0
   60.0506   28.0276   50.9629 H   0  0  0  0  0  0  0  0  0  0  0  0
   60.9342   29.5915   50.9629 H   0  0  0  0  0  0  0  0  0  0  0  0
   55.7392   27.6851   53.0285 H   0  0  0  0  0  0  0  0  0  0  0  0
   53.5068   28.7312   53.4151 H   0  0  0  0  0  0  0  0  0  0  0  0
   53.1745   31.1666   52.9896 H   0  0  0  0  0  0  0  0  0  0  0  0
   55.0745   32.5680   52.1772 H   0  0  0  0  0  0  0  0  0  0  0  0
   59.9463   32.8191   51.4394 H   0  0  0  0  0  0  0  0  0  0  0  0
   60.8768   31.2888   51.1871 H   0  0  0  0  0  0  0  0  0  0  0  0
   58.0540   33.1610   49.5250 H   0  0  0  0  0  0  0  0  0  0  0  0
   59.3827   35.1244   47.5570 H   0  0  0  0  0  0  0  0  0  0  0  0
   59.1114   35.4905   45.1056 H   0  0  0  0  0  0  0  0  0  0  0  0
   58.2469   33.6594   43.6514 H   0  0  0  0  0  0  0  0  0  0  0  0
   56.9041   28.3956   43.5713 H   0  0  0  0  0  0  0  0  0  0  0  0
   58.5060   27.5474   43.7768 H   0  0  0  0  0  0  0  0  0  0  0  0
   56.2980   27.8463   45.6694 H   0  0  0  0  0  0  0  0  0  0  0  0
   57.7856   26.7901   45.7200 H   0  0  0  0  0  0  0  0  0  0  0  0
   59.7689   29.2190   47.3307 H   0  0  0  0  0  0  0  0  0  0  0  0
   59.7760   27.7774   46.2468 H   0  0  0  0  0  0  0  0  0  0  0  0
   59.6559   30.7093   45.5719 H   0  0  0  0  0  0  0  0  0  0  0  0
   60.5144   29.3270   44.7492 H   0  0  0  0  0  0  0  0  0  0  0  0
   57.8526   31.0964   47.1174 H   0  0  0  0  0  0  0  0  0  0  0  0
  1  2  1  0
  2  3  2  0
  3  4  1  0
  4  5  2  0
  5  6  1  0
  6  7  2  0
  7  8  1  0
  8  9  2  0
  9 10  1  0
 10 11  2  0
 10 12  1  0
 12 13  1  0
 13 14  1  0
 14 15  2  0
 14 16  1  0
 16 17  1  0
 17 18  2  0
 18 19  1  0
 19 20  2  0
 20 21  1  0
 21 22  1  0
 22 23  2  0
 22 24  2  0
 22 25  1  0
 25 26  1  0
 26 27  1  0
 27 28  1  0
 28 29  1  0
 29 30  1  0
 21 31  2  0
 12  2  1  0
 31 17  1  0
  9  4  1  0
 30 25  1  0
  1 32  1  0
  1 33  1  0
  1 34  1  0
  5 35  1  0
  6 36  1  0
  7 37  1  0
  8 38  1  0
 13 39  1  0
 13 40  1  0
 16 41  1  0
 18 42  1  0
 19 43  1  0
 20 44  1  0
 26 45  1  0
 26 46  1  0
 27 47  1  0
 27 48  1  0
 29 49  1  0
 29 50  1  0
 30 51  1  0
 30 52  1  0
 31 53  1  0
M  END
>  <UniqueID>  (44) 
43

>  <SMILES>  (44) 
Cc1nc2ccccc2c(=O)n1CC(=O)Nc1cccc(S(=O)(=O)N2CCOCC2)c1

>  <Energy>  (44) 
77.1655840659451

>  <Genealogy>  (44) 
Cc1nc2ccccc2c(=O)n1CC(=O)Nc1cccc(S(=O)(=O)N2CCOCC2)c1 (3D coordinates assigned)
Cc1nc2ccccc2c(=O)n1CC(=O)Nc1cccc(S(=O)(=O)N2CCOCC2)c1 (nonaromatic ring conformer: 77.1655840659451 kcal/mol)

>  <smiles>  (44) 
Cc1nc2ccccc2c(=O)n1CC(=O)Nc1cccc(S(=O)(=O)N2CCOCC2)c1

>  <score_type>  (44) 
oracle

>  <origin>  (44) 
adg

>  <m_score__min__energy>  (44) 
-9.2400000000000002

>  <m_primary>  (44) 
energy

$$$$
44:0
     RDKit          3D

 48 50  0  0  0  0  0  0  0  0999 V2000
   55.5320   26.9950   45.7210 N   0  0  0  0  0  0  0  0  0  0  0  0
   56.9170   27.0790   46.0440 C   0  0  0  0  0  0  0  0  0  0  0  0
   57.3400   26.5900   47.1250 O   0  0  0  0  0  0  0  0  0  0  0  0
   57.8560   27.8020   45.1290 C   0  0  0  0  0  0  0  0  0  0  0  0
   57.6910   29.2850   45.3010 C   0  0  0  0  0  0  0  0  0  0  0  0
   58.2020   29.9330   46.4390 C   0  0  0  0  0  0  0  0  0  0  0  0
   58.1360   31.3270   46.5450 C   0  0  0  0  0  0  0  0  0  0  0  0
   57.5860   32.0830   45.5040 C   0  0  0  0  0  0  0  0  0  0  0  0
   57.6550   33.8790   45.5450 S   0  0  0  0  0  0  0  0  0  0  0  0
   59.4390   34.0300   45.1290 C   0  0  0  0  0  0  0  0  0  0  0  0
   60.3300   33.9180   46.3390 C   0  0  0  0  0  0  0  0  0  0  0  0
   61.6980   33.6380   46.1850 C   0  0  0  0  0  0  0  0  0  0  0  0
   62.5510   33.6530   47.2910 C   0  0  0  0  0  0  0  0  0  0  0  0
   62.0520   33.9610   48.5660 C   0  0  0  0  0  0  0  0  0  0  0  0
   62.9700   34.0170   49.7230 C   0  0  0  0  0  0  0  0  0  0  0  0
   62.9770   35.0490   50.4480 O   0  0  0  0  0  0  0  0  0  0  0  0
   63.8490   32.9210   50.0440 N   0  0  0  0  0  0  0  0  0  0  0  0
   65.1040   33.1890   50.7540 C   0  0  0  0  0  0  0  0  0  0  0  0
   65.9340   31.9080   50.8920 C   0  0  0  0  0  0  0  0  0  0  0  0
   65.1520   30.8220   51.5030 N   0  0  0  0  0  0  0  0  0  0  0  0
   63.8030   30.6260   50.9260 C   0  0  0  0  0  0  0  0  0  0  0  0
   63.4900   31.5330   49.7270 C   0  0  0  0  0  0  0  0  0  0  0  0
   60.6780   34.2050   48.7250 C   0  0  0  0  0  0  0  0  0  0  0  0
   59.8230   34.1840   47.6190 C   0  0  0  0  0  0  0  0  0  0  0  0
   57.0500   31.4390   44.3830 C   0  0  0  0  0  0  0  0  0  0  0  0
   57.1010   30.0470   44.2810 C   0  0  0  0  0  0  0  0  0  0  0  0
   55.1500   27.4660   44.8730 H   0  0  0  0  0  0  0  0  0  0  0  0
   58.8913   27.5191   45.3700 H   0  0  0  0  0  0  0  0  0  0  0  0
   57.6309   27.5294   44.0874 H   0  0  0  0  0  0  0  0  0  0  0  0
   58.6552   29.3425   47.2489 H   0  0  0  0  0  0  0  0  0  0  0  0
   58.5167   31.8284   47.4470 H   0  0  0  0  0  0  0  0  0  0  0  0
   59.7042   33.2305   44.4215 H   0  0  0  0  0  0  0  0  0  0  0  0
   59.5951   35.0277   44.6928 H   0  0  0  0  0  0  0  0  0  0  0  0
   62.0997   33.4056   45.1877 H   0  0  0  0  0  0  0  0  0  0  0  0
   63.6188   33.4223   47.1620 H   0  0  0  0  0  0  0  0  0  0  0  0
   65.6840   33.9360   50.1923 H   0  0  0  0  0  0  0  0  0  0  0  0
   64.8671   33.5663   51.7597 H   0  0  0  0  0  0  0  0  0  0  0  0
   66.2685   31.5896   49.8937 H   0  0  0  0  0  0  0  0  0  0  0  0
   66.7941   32.1226   51.5433 H   0  0  0  0  0  0  0  0  0  0  0  0
   65.0520   31.0310   52.5250 H   0  0  0  0  0  0  0  0  0  0  0  0
   63.7175   29.5796   50.5978 H   0  0  0  0  0  0  0  0  0  0  0  0
   63.0823   30.8872   51.7149 H   0  0  0  0  0  0  0  0  0  0  0  0
   64.0688   31.1967   48.8542 H   0  0  0  0  0  0  0  0  0  0  0  0
   62.4145   31.4790   49.5027 H   0  0  0  0  0  0  0  0  0  0  0  0
   60.2721   34.4139   49.7258 H   0  0  0  0  0  0  0  0  0  0  0  0
   58.7484   34.3769   47.7535 H   0  0  0  0  0  0  0  0  0  0  0  0
   56.5871   32.0310   43.5797 H   0  0  0  0  0  0  0  0  0  0  0  0
   56.6772   29.5463   43.3980 H   0  0  0  0  0  0  0  0  0  0  0  0
  1  2  1  0
  2  3  2  0
  2  4  1  0
  4  5  1  0
  5  6  2  0
  6  7  1  0
  7  8  2  0
  8  9  1  0
  9 10  1  0
 10 11  1  0
 11 12  2  0
 12 13  1  0
 13 14  2  0
 14 15  1  0
 15 16  2  0
 15 17  1  0
 17 18  1  0
 18 19  1  0
 19 20  1  0
 20 21  1  0
 21 22  1  0
 14 23  1  0
 23 24  2  0
  8 25  1  0
 25 26  2  0
 26  5  1  0
 24 11  1  0
 22 17  1  0
  1 27  1  0
  4 28  1  0
  4 29  1  0
  6 30  1  0
  7 31  1  0
 10 32  1  0
 10 33  1  0
 12 34  1  0
 13 35  1  0
 18 36  1  0
 18 37  1  0
 19 38  1  0
 19 39  1  0
 20 40  1  0
 21 41  1  0
 21 42  1  0
 22 43  1  0
 22 44  1  0
 23 45  1  0
 24 46  1  0
 25 47  1  0
 26 48  1  0
M  CHG  1   1  -1
M  END
>  <UniqueID>  (45) 
44

>  <SMILES>  (45) 
[NH-]C(=O)Cc1ccc(SCc2ccc(C(=O)N3CCNCC3)cc2)cc1

>  <Energy>  (45) 
49.30328906120081

>  <Genealogy>  (45) 
[NH-]C(=O)Cc1ccc(SCc2ccc(C(=O)N3CCNCC3)cc2)cc1 (protonated)
[NH-]C(=O)Cc1ccc(SCc2ccc(C(=O)N3CCNCC3)cc2)cc1 (3D coordinates assigned)
[NH-]C(=O)Cc1ccc(SCc2ccc(C(=O)N3CCNCC3)cc2)cc1 (nonaromatic ring conformer: 49.30328906120081 kcal/mol)

>  <smiles>  (45) 
NC(=O)Cc1ccc(SCc2ccc(C(=O)N3CCNCC3)cc2)cc1

>  <score_type>  (45) 
oracle

>  <origin>  (45) 
adg

>  <m_score__min__energy>  (45) 
-12.130000000000001

>  <m_primary>  (45) 
energy

$$$$
45:0
     RDKit          3D

 47 50  0  0  0  0  0  0  0  0999 V2000
   60.4300   28.1020   45.2560 C   0  0  0  0  0  0  0  0  0  0  0  0
   59.2570   28.7380   45.1890 C   0  0  0  0  0  0  0  0  0  0  0  0
   59.1600   30.0750   45.3410 N   0  0  0  0  0  0  0  0  0  0  0  0
   57.8840   30.4050   45.2340 N   0  0  0  0  0  0  0  0  0  0  0  0
   57.4140   31.7580   45.3140 C   0  0  0  0  0  0  0  0  0  0  0  0
   56.2700   32.0380   44.8590 O   0  0  0  0  0  0  0  0  0  0  0  0
   58.2500   32.8400   45.8830 C   0  0  0  0  0  0  0  0  0  0  0  0
   58.5480   33.9790   45.1160 C   0  0  0  0  0  0  0  0  0  0  0  0
   59.3600   34.9890   45.6370 C   0  0  0  0  0  0  0  0  0  0  0  0
   59.9000   34.8640   46.9190 C   0  0  0  0  0  0  0  0  0  0  0  0
   59.6290   33.7270   47.6940 C   0  0  0  0  0  0  0  0  0  0  0  0
   60.2540   33.5770   49.0550 C   0  0  0  0  0  0  0  0  0  0  0  0
   61.6070   33.0310   48.9440 N   0  0  0  0  0  0  0  0  0  0  0  0
   62.6760   33.6480   49.4240 N   0  0  0  0  0  0  0  0  0  0  0  0
   63.7380   32.8510   49.1970 C   0  0  0  0  0  0  0  0  0  0  0  0
   65.1240   33.1570   49.6550 C   0  0  0  0  0  0  0  0  0  0  0  0
   63.3340   31.6840   48.5770 C   0  0  0  0  0  0  0  0  0  0  0  0
   61.9720   31.8410   48.4180 C   0  0  0  0  0  0  0  0  0  0  0  0
   61.0390   30.7930   47.8990 C   0  0  0  0  0  0  0  0  0  0  0  0
   58.8000   32.7180   47.1720 C   0  0  0  0  0  0  0  0  0  0  0  0
   57.1570   29.2970   44.9860 C   0  0  0  0  0  0  0  0  0  0  0  0
   55.9200   29.3210   44.7600 O   0  0  0  0  0  0  0  0  0  0  0  0
   57.9900   28.1800   44.9640 C   0  0  0  0  0  0  0  0  0  0  0  0
   57.7080   26.8690   44.7800 C   0  0  0  0  0  0  0  0  0  0  0  0
   57.2380   25.8890   45.7890 C   0  0  0  0  0  0  0  0  0  0  0  0
   57.9630   24.9090   46.3570 N   0  0  0  0  0  0  0  0  0  0  0  0
   57.0910   24.3100   47.1950 C   0  0  0  0  0  0  0  0  0  0  0  0
   57.4090   23.3280   47.9140 O   0  0  0  0  0  0  0  0  0  0  0  0
   55.8540   24.8460   47.2030 N   0  0  0  0  0  0  0  0  0  0  0  0
   55.9640   25.8430   46.3100 C   0  0  0  0  0  0  0  0  0  0  0  0
   54.9190   26.6980   45.9790 O   0  0  0  0  0  0  0  0  0  0  0  0
   60.4719   27.0104   45.1273 H   0  0  0  0  0  0  0  0  0  0  0  0
   61.3539   28.6700   45.4399 H   0  0  0  0  0  0  0  0  0  0  0  0
   58.1394   34.0758   44.0993 H   0  0  0  0  0  0  0  0  0  0  0  0
   59.5747   35.8851   45.0362 H   0  0  0  0  0  0  0  0  0  0  0  0
   60.5411   35.6614   47.3229 H   0  0  0  0  0  0  0  0  0  0  0  0
   60.3008   34.5623   49.5417 H   0  0  0  0  0  0  0  0  0  0  0  0
   59.6410   32.8859   49.6521 H   0  0  0  0  0  0  0  0  0  0  0  0
   65.1538   33.1636   50.7546 H   0  0  0  0  0  0  0  0  0  0  0  0
   65.8139   32.3895   49.2741 H   0  0  0  0  0  0  0  0  0  0  0  0
   65.4266   34.1436   49.2741 H   0  0  0  0  0  0  0  0  0  0  0  0
   63.9553   30.8267   48.2787 H   0  0  0  0  0  0  0  0  0  0  0  0
   60.5711   30.2674   48.7445 H   0  0  0  0  0  0  0  0  0  0  0  0
   60.2591   31.2677   47.2855 H   0  0  0  0  0  0  0  0  0  0  0  0
   61.6008   30.0733   47.2855 H   0  0  0  0  0  0  0  0  0  0  0  0
   58.5798   31.8259   47.7767 H   0  0  0  0  0  0  0  0  0  0  0  0
   57.8439   26.4839   43.7586 H   0  0  0  0  0  0  0  0  0  0  0  0
  1  2  2  0
  2  3  1  0
  3  4  1  0
  4  5  1  0
  5  6  2  0
  5  7  1  0
  7  8  2  0
  8  9  1  0
  9 10  2  0
 10 11  1  0
 11 12  1  0
 12 13  1  0
 13 14  1  0
 14 15  2  0
 15 16  1  0
 15 17  1  0
 17 18  2  0
 18 19  1  0
 11 20  2  0
  4 21  1  0
 21 22  2  0
 21 23  1  0
 23 24  2  3
 24 25  1  0
 25 26  1  0
 26 27  1  0
 27 28  2  0
 27 29  1  0
 29 30  1  0
 30 31  1  0
 23  2  1  0
 30 25  2  0
 20  7  1  0
 18 13  1  0
  1 32  1  0
  1 33  1  0
  8 34  1  0
  9 35  1  0
 10 36  1  0
 12 37  1  0
 12 38  1  0
 16 39  1  0
 16 40  1  0
 16 41  1  0
 17 42  1  0
 19 43  1  0
 19 44  1  0
 19 45  1  0
 20 46  1  0
 24 47  1  0
M  CHG  4   3  -1  26  -1  29  -1  31  -1
M  END
>  <UniqueID>  (46) 
45

>  <SMILES>  (46) 
C=c1[n-]n(C(=O)c2cccc(Cn3nc(C)cc3C)c2)c(=O)c1=Cc1[n-]c(=O)[n-]c1[O-]

>  <Energy>  (46) 
151.4074213207411

>  <Genealogy>  (46) 
C=c1[n-]n(C(=O)c2cccc(Cn3nc(C)cc3C)c2)c(=O)c1=Cc1[n-]c(=O)[n-]c1[O-] (protonated)
C=c1[n-]n(C(=O)c2cccc(Cn3nc(C)cc3C)c2)c(=O)c1=Cc1[n-]c(=O)[n-]c1[O-] (3D coordinates assigned)
C=c1[n-]n(C(=O)c2cccc(Cn3nc(C)cc3C)c2)c(=O)c1=Cc1[n-]c(=O)[n-]c1[O-] (optimized conformer: 151.4074213207411 kcal/mol)

>  <smiles>  (46) 
C=c1[nH]n(C(=O)c2cccc(Cn3nc(C)cc3C)c2)c(=O)c1=Cc1[nH]c(=O)[nH]c1O

>  <score_type>  (46) 
oracle

>  <origin>  (46) 
adg

>  <m_score__min__energy>  (46) 
-19.02

>  <m_primary>  (46) 
energy

$$$$
46:0
     RDKit          3D

 51 54  0  0  0  0  0  0  0  0999 V2000
   55.1260   30.1140   53.9950 C   0  0  0  0  0  0  0  0  0  0  0  0
   55.8890   30.4520   52.4220 S   0  0  0  0  0  0  0  0  0  0  0  0
   56.7750   29.3100   52.0100 O   0  0  0  0  0  0  0  0  0  0  0  0
   54.8080   30.6140   51.3910 O   0  0  0  0  0  0  0  0  0  0  0  0
   56.8090   31.9220   52.5030 N   0  0  0  0  0  0  0  0  0  0  0  0
   57.9190   32.2420   51.6410 C   0  0  0  0  0  0  0  0  0  0  0  0
   58.3790   31.3340   50.6580 C   0  0  0  0  0  0  0  0  0  0  0  0
   59.4540   31.6950   49.8460 C   0  0  0  0  0  0  0  0  0  0  0  0
   60.0690   32.9210   49.9900 C   0  0  0  0  0  0  0  0  0  0  0  0
   59.6480   33.8420   50.9440 C   0  0  0  0  0  0  0  0  0  0  0  0
   58.5660   33.5010   51.7730 C   0  0  0  0  0  0  0  0  0  0  0  0
   58.1390   34.4160   52.7280 O   0  0  0  0  0  0  0  0  0  0  0  0
   61.1430   33.0090   49.0230 C   0  0  0  0  0  0  0  0  0  0  0  0
   62.0690   34.0320   48.8150 C   0  0  0  0  0  0  0  0  0  0  0  0
   63.0610   33.8420   47.8420 C   0  0  0  0  0  0  0  0  0  0  0  0
   63.1210   32.6380   47.1140 C   0  0  0  0  0  0  0  0  0  0  0  0
   62.1840   31.6180   47.3460 C   0  0  0  0  0  0  0  0  0  0  0  0
   61.1750   31.8330   48.2910 C   0  0  0  0  0  0  0  0  0  0  0  0
   60.0820   30.8850   48.7430 C   0  0  2  0  0  0  0  0  0  0  0  0
   59.0710   30.5590   47.7080 N   0  0  0  0  0  0  0  0  0  0  0  0
   58.4410   31.7120   47.0120 C   0  0  0  0  0  0  0  0  0  0  0  0
   58.8920   31.8300   45.5460 C   0  0  0  0  0  0  0  0  0  0  0  0
   58.6710   30.5860   44.7680 N   0  0  0  0  0  0  0  0  0  0  0  0
   57.2610   30.7190   43.7430 S   0  0  0  0  0  0  0  0  0  0  0  0
   57.5320   31.9590   42.4950 C   0  0  0  0  0  0  0  0  0  0  0  0
   57.0060   29.4050   43.0580 O   0  0  0  0  0  0  0  0  0  0  0  0
   56.0560   31.0880   44.5640 O   0  0  0  0  0  0  0  0  0  0  0  0
   58.5770   29.3670   45.5960 C   0  0  0  0  0  0  0  0  0  0  0  0
   59.4920   29.4580   46.8200 C   0  0  0  0  0  0  0  0  0  0  0  0
   55.8065   30.4155   54.8049 H   0  0  0  0  0  0  0  0  0  0  0  0
   54.1863   30.6800   54.0759 H   0  0  0  0  0  0  0  0  0  0  0  0
   54.9138   29.0377   54.0759 H   0  0  0  0  0  0  0  0  0  0  0  0
   56.5320   32.5960   53.2520 H   0  0  0  0  0  0  0  0  0  0  0  0
   57.8941   30.3543   50.5356 H   0  0  0  0  0  0  0  0  0  0  0  0
   60.1507   34.8150   51.0469 H   0  0  0  0  0  0  0  0  0  0  0  0
   62.0221   34.9631   49.3989 H   0  0  0  0  0  0  0  0  0  0  0  0
   63.7956   34.6371   47.6466 H   0  0  0  0  0  0  0  0  0  0  0  0
   63.9074   32.4955   46.3582 H   0  0  0  0  0  0  0  0  0  0  0  0
   62.2423   30.6677   46.7950 H   0  0  0  0  0  0  0  0  0  0  0  0
   60.4777   29.8965   49.0191 H   0  0  0  0  0  0  0  0  0  0  0  0
   57.3486   31.5853   47.0364 H   0  0  0  0  0  0  0  0  0  0  0  0
   58.7523   32.6292   47.5334 H   0  0  0  0  0  0  0  0  0  0  0  0
   58.3274   32.6455   45.0704 H   0  0  0  0  0  0  0  0  0  0  0  0
   59.9742   32.0268   45.5502 H   0  0  0  0  0  0  0  0  0  0  0  0
   57.7431   32.9248   42.9774 H   0  0  0  0  0  0  0  0  0  0  0  0
   58.3876   31.6675   41.8682 H   0  0  0  0  0  0  0  0  0  0  0  0
   56.6328   32.0510   41.8682 H   0  0  0  0  0  0  0  0  0  0  0  0
   57.5376   29.2416   45.9334 H   0  0  0  0  0  0  0  0  0  0  0  0
   58.8933   28.5070   44.9875 H   0  0  0  0  0  0  0  0  0  0  0  0
   59.4470   28.5095   47.3753 H   0  0  0  0  0  0  0  0  0  0  0  0
   60.5193   29.6534   46.4787 H   0  0  0  0  0  0  0  0  0  0  0  0
  1  2  1  0
  2  3  2  0
  2  4  2  0
  2  5  1  0
  5  6  1  0
  6  7  2  0
  7  8  1  0
  8  9  2  0
  9 10  1  0
 10 11  2  0
 11 12  1  0
  9 13  1  0
 13 14  2  0
 14 15  1  0
 15 16  2  0
 16 17  1  0
 17 18  2  0
 18 19  1  0
 19 20  1  0
 20 21  1  0
 21 22  1  0
 22 23  1  0
 23 24  1  0
 24 25  1  0
 24 26  2  0
 24 27  2  0
 23 28  1  0
 28 29  1  0
 11  6  1  0
 18 13  1  0
 29 20  1  0
 19  8  1  0
  1 30  1  0
  1 31  1  0
  1 32  1  0
  5 33  1  0
  7 34  1  0
 10 35  1  0
 14 36  1  0
 15 37  1  0
 16 38  1  0
 17 39  1  0
 19 40  1  1
 21 41  1  0
 21 42  1  0
 22 43  1  0
 22 44  1  0
 25 45  1  0
 25 46  1  0
 25 47  1  0
 28 48  1  0
 28 49  1  0
 29 50  1  0
 29 51  1  0
M  CHG  1  12  -1
M  END
>  <UniqueID>  (47) 
46

>  <SMILES>  (47) 
CS(=O)(=O)Nc1cc2c(cc1[O-])-c1ccccc1[C@@H]2N1CCN(S(C)(=O)=O)CC1

>  <Energy>  (47) 
86.14496963014895

>  <Genealogy>  (47) 
CS(=O)(=O)Nc1cc2c(cc1[O-])-c1ccccc1C2N1CCN(S(C)(=O)=O)CC1 (protonated)
CS(=O)(=O)Nc1cc2c(cc1[O-])-c1ccccc1[C@@H]2N1CCN(S(C)(=O)=O)CC1 (chirality)
CS(=O)(=O)Nc1cc2c(cc1[O-])-c1ccccc1[C@@H]2N1CCN(S(C)(=O)=O)CC1 (3D coordinates assigned)
CS(=O)(=O)Nc1cc2c(cc1[O-])-c1ccccc1[C@@H]2N1CCN(S(C)(=O)=O)CC1 (nonaromatic ring conformer: 86.14496963014895 kcal/mol)

>  <smiles>  (47) 
CS(=O)(=O)Nc1cc2c(cc1O)-c1ccccc1C2N1CCN(S(C)(=O)=O)CC1

>  <score_type>  (47) 
oracle

>  <origin>  (47) 
adg

>  <m_score__min__energy>  (47) 
-10.359999999999999

>  <m_primary>  (47) 
energy

$$$$
47:0
     RDKit          3D

 47 49  0  0  0  0  0  0  0  0999 V2000
   60.1390   26.9430   46.5090 O   0  0  0  0  0  0  0  0  0  0  0  0
   59.0100   27.4930   46.6320 C   0  0  0  0  0  0  0  0  0  0  0  0
   58.9150   28.8780   47.0030 N   0  0  0  0  0  0  0  0  0  0  0  0
   60.0110   29.6470   47.5270 C   0  0  0  0  0  0  0  0  0  0  0  0
   60.1560   29.8750   48.9070 C   0  0  0  0  0  0  0  0  0  0  0  0
   61.2150   30.6490   49.3890 C   0  0  0  0  0  0  0  0  0  0  0  0
   62.1400   31.2180   48.5000 C   0  0  0  0  0  0  0  0  0  0  0  0
   63.3100   32.0150   49.0200 C   0  0  0  0  0  0  0  0  0  0  0  0
   63.5550   33.3040   48.2080 C   0  0  0  0  0  0  0  0  0  0  0  0
   62.3210   34.0080   47.8200 N   0  0  0  0  0  0  0  0  0  0  0  0
   61.5750   34.5140   48.9810 C   0  0  0  0  0  0  0  0  0  0  0  0
   60.1470   33.9450   49.0010 C   0  0  1  0  0  0  0  0  0  0  0  0
   59.3600   34.7140   49.8730 O   0  0  0  0  0  0  0  0  0  0  0  0
   59.5370   33.9510   47.6150 C   0  0  0  0  0  0  0  0  0  0  0  0
   59.7740   35.0120   46.7250 C   0  0  0  0  0  0  0  0  0  0  0  0
   59.2330   34.9820   45.4390 C   0  0  0  0  0  0  0  0  0  0  0  0
   58.4560   33.8920   45.0500 C   0  0  0  0  0  0  0  0  0  0  0  0
   58.2370   32.8670   45.9160 N   0  0  0  0  0  0  0  0  0  0  0  0
   58.7550   32.8710   47.1730 C   0  0  0  0  0  0  0  0  0  0  0  0
   61.9860   31.0070   47.1210 C   0  0  0  0  0  0  0  0  0  0  0  0
   60.9250   30.2360   46.6400 C   0  0  0  0  0  0  0  0  0  0  0  0
   57.7920   26.7140   46.3510 C   0  0  0  0  0  0  0  0  0  0  0  0
   57.7580   25.3570   46.0760 C   0  0  0  0  0  0  0  0  0  0  0  0
   56.4330   25.0370   45.8820 C   0  0  0  0  0  0  0  0  0  0  0  0
   55.7390   26.2140   46.0520 C   0  0  0  0  0  0  0  0  0  0  0  0
   54.3600   26.3390   45.9420 O   0  0  0  0  0  0  0  0  0  0  0  0
   56.5530   27.2460   46.3380 N   0  0  0  0  0  0  0  0  0  0  0  0
   58.0220   29.3800   46.7990 H   0  0  0  0  0  0  0  0  0  0  0  0
   59.4312   29.4413   49.6116 H   0  0  0  0  0  0  0  0  0  0  0  0
   61.3242   30.8132   50.4712 H   0  0  0  0  0  0  0  0  0  0  0  0
   63.1123   32.2897   50.0666 H   0  0  0  0  0  0  0  0  0  0  0  0
   64.2086   31.3871   48.9293 H   0  0  0  0  0  0  0  0  0  0  0  0
   64.1661   33.9863   48.8171 H   0  0  0  0  0  0  0  0  0  0  0  0
   64.0580   33.0042   47.2768 H   0  0  0  0  0  0  0  0  0  0  0  0
   62.5560   34.7950   47.1710 H   0  0  0  0  0  0  0  0  0  0  0  0
   62.0956   34.2149   49.9027 H   0  0  0  0  0  0  0  0  0  0  0  0
   61.5173   35.6104   48.9131 H   0  0  0  0  0  0  0  0  0  0  0  0
   60.1860   32.9021   49.3485 H   0  0  0  0  0  0  0  0  0  0  0  0
   59.2730   35.6140   49.4610 H   0  0  0  0  0  0  0  0  0  0  0  0
   60.3873   35.8682   47.0426 H   0  0  0  0  0  0  0  0  0  0  0  0
   59.4179   35.8103   44.7392 H   0  0  0  0  0  0  0  0  0  0  0  0
   58.0194   33.8611   44.0408 H   0  0  0  0  0  0  0  0  0  0  0  0
   58.5607   32.0240   47.8475 H   0  0  0  0  0  0  0  0  0  0  0  0
   62.7041   31.4508   46.4157 H   0  0  0  0  0  0  0  0  0  0  0  0
   60.8050   30.0893   45.5564 H   0  0  0  0  0  0  0  0  0  0  0  0
   58.6173   24.6722   46.0232 H   0  0  0  0  0  0  0  0  0  0  0  0
   56.0160   24.0479   45.6415 H   0  0  0  0  0  0  0  0  0  0  0  0
  1  2  2  0
  2  3  1  0
  3  4  1  0
  4  5  2  0
  5  6  1  0
  6  7  2  0
  7  8  1  0
  8  9  1  0
  9 10  1  0
 10 11  1  0
 11 12  1  0
 12 13  1  0
 12 14  1  0
 14 15  2  0
 15 16  1  0
 16 17  2  0
 17 18  1  0
 18 19  2  0
  7 20  1  0
 20 21  2  0
  2 22  1  0
 22 23  2  0
 23 24  1  0
 24 25  2  0
 25 26  1  0
 25 27  1  0
 21  4  1  0
 27 22  1  0
 19 14  1  0
  3 28  1  0
  5 29  1  0
  6 30  1  0
  8 31  1  0
  8 32  1  0
  9 33  1  0
  9 34  1  0
 10 35  1  0
 11 36  1  0
 11 37  1  0
 12 38  1  1
 13 39  1  0
 15 40  1  0
 16 41  1  0
 17 42  1  0
 19 43  1  0
 20 44  1  0
 21 45  1  0
 23 46  1  0
 24 47  1  0
M  CHG  2  26  -1  27  -1
M  END
>  <UniqueID>  (48) 
47

>  <SMILES>  (48) 
O=C(Nc1ccc(CCNC[C@@H](O)c2cccnc2)cc1)c1ccc([O-])[n-]1

>  <Energy>  (48) 
72.52305168339632

>  <Genealogy>  (48) 
O=C(Nc1ccc(CCNCC(O)c2cccnc2)cc1)c1ccc([O-])[n-]1 (protonated)
O=C(Nc1ccc(CCNC[C@@H](O)c2cccnc2)cc1)c1ccc([O-])[n-]1 (chirality)
O=C(Nc1ccc(CCNC[C@@H](O)c2cccnc2)cc1)c1ccc([O-])[n-]1 (3D coordinates assigned)
O=C(Nc1ccc(CCNC[C@@H](O)c2cccnc2)cc1)c1ccc([O-])[n-]1 (optimized conformer: 72.52305168339632 kcal/mol)

>  <smiles>  (48) 
O=C(Nc1ccc(CCNCC(O)c2cccnc2)cc1)c1ccc(O)[nH]1

>  <score_type>  (48) 
oracle

>  <origin>  (48) 
adg

>  <m_score__min__energy>  (48) 
-12.24

>  <m_primary>  (48) 
energy

$$$$
48:0
     RDKit          3D

 34 36  0  0  0  0  0  0  0  0999 V2000
   60.7500   29.5100   45.5880 C   0  0  0  0  0  0  0  0  0  0  0  0
   60.5630   28.2080   45.3960 C   0  0  0  0  0  0  0  0  0  0  0  0
   59.7410   27.3970   46.3050 C   0  0  0  0  0  0  0  0  0  0  0  0
   60.2150   26.5910   47.3000 N   0  0  0  0  0  0  0  0  0  0  0  0
   59.1930   25.9610   47.8870 N   0  0  0  0  0  0  0  0  0  0  0  0
   58.1010   26.4070   47.2520 C   0  0  0  0  0  0  0  0  0  0  0  0
   56.8150   26.0290   47.3290 N   0  0  0  0  0  0  0  0  0  0  0  0
   56.2690   26.7590   46.3140 C   0  0  0  0  0  0  0  0  0  0  0  0
   54.9240   26.6830   45.9750 O   0  0  0  0  0  0  0  0  0  0  0  0
   57.2100   27.5550   45.6380 C   0  0  0  0  0  0  0  0  0  0  0  0
   57.0230   28.3350   44.3710 C   0  0  0  0  0  0  0  0  0  0  0  0
   56.3830   29.6530   44.6740 C   0  0  0  0  0  0  0  0  0  0  0  0
   55.2420   29.6900   45.2080 O   0  0  0  0  0  0  0  0  0  0  0  0
   57.0860   30.8640   44.3830 N   0  0  0  0  0  0  0  0  0  0  0  0
   56.6590   32.1650   44.8790 C   0  0  0  0  0  0  0  0  0  0  0  0
   57.7860   32.8080   45.6410 C   0  0  0  0  0  0  0  0  0  0  0  0
   58.3420   32.1550   46.7530 C   0  0  0  0  0  0  0  0  0  0  0  0
   59.3460   32.7740   47.5040 C   0  0  0  0  0  0  0  0  0  0  0  0
   59.7980   34.0490   47.1530 C   0  0  0  0  0  0  0  0  0  0  0  0
   60.7650   34.6520   47.8890 F   0  0  0  0  0  0  0  0  0  0  0  0
   59.2480   34.7070   46.0510 C   0  0  0  0  0  0  0  0  0  0  0  0
   58.2410   34.0920   45.2980 C   0  0  0  0  0  0  0  0  0  0  0  0
   58.3780   27.2620   46.2890 C   0  0  0  0  0  0  0  0  0  0  0  0
   61.3719   30.0856   44.8867 H   0  0  0  0  0  0  0  0  0  0  0  0
   60.2828   30.0118   46.4482 H   0  0  0  0  0  0  0  0  0  0  0  0
   61.0379   27.7229   44.5305 H   0  0  0  0  0  0  0  0  0  0  0  0
   58.0022   28.5049   43.8994 H   0  0  0  0  0  0  0  0  0  0  0  0
   56.3749   27.7663   43.6880 H   0  0  0  0  0  0  0  0  0  0  0  0
   56.3777   32.8062   44.0306 H   0  0  0  0  0  0  0  0  0  0  0  0
   55.7934   32.0364   45.5454 H   0  0  0  0  0  0  0  0  0  0  0  0
   57.9864   31.1528   47.0343 H   0  0  0  0  0  0  0  0  0  0  0  0
   59.7806   32.2568   48.3721 H   0  0  0  0  0  0  0  0  0  0  0  0
   59.6064   35.7095   45.7744 H   0  0  0  0  0  0  0  0  0  0  0  0
   57.8045   34.6159   44.4348 H   0  0  0  0  0  0  0  0  0  0  0  0
  1  2  2  0
  2  3  1  0
  3  4  2  0
  4  5  1  0
  5  6  1  0
  6  7  1  0
  7  8  1  0
  8  9  1  0
  8 10  2  0
 10 11  1  0
 11 12  1  0
 12 13  2  0
 12 14  1  0
 14 15  1  0
 15 16  1  0
 16 17  2  0
 17 18  1  0
 18 19  2  0
 19 20  1  0
 19 21  1  0
 21 22  2  0
 10 23  1  0
 23  3  1  0
 23  6  2  0
 22 16  1  0
  1 24  1  0
  1 25  1  0
  2 26  1  0
 11 27  1  0
 11 28  1  0
 15 29  1  0
 15 30  1  0
 17 31  1  0
 18 32  1  0
 21 33  1  0
 22 34  1  0
M  CHG  4   5  -1   7  -1   9  -1  14  -1
M  END
>  <UniqueID>  (49) 
48

>  <SMILES>  (49) 
C=Cc1n[n-]c2[n-]c([O-])c(CC(=O)[N-]Cc3ccc(F)cc3)c12

>  <Energy>  (49) 
114.01681324000495

>  <Genealogy>  (49) 
C=Cc1n[n-]c2[n-]c([O-])c(CC(=O)[N-]Cc3ccc(F)cc3)c12 (protonated)
C=Cc1n[n-]c2[n-]c([O-])c(CC(=O)[N-]Cc3ccc(F)cc3)c12 (3D coordinates assigned)
C=Cc1n[n-]c2[n-]c([O-])c(CC(=O)[N-]Cc3ccc(F)cc3)c12 (optimized conformer: 114.01681324000495 kcal/mol)

>  <smiles>  (49) 
C=Cc1n[nH]c2[nH]c(O)c(CC(=O)NCc3ccc(F)cc3)c12

>  <score_type>  (49) 
oracle

>  <origin>  (49) 
adg

>  <m_score__min__energy>  (49) 
-15.710000000000001

>  <m_primary>  (49) 
energy

$$$$
49:0
     RDKit          3D

 45 47  0  0  0  0  0  0  0  0999 V2000
   59.9520   27.2080   47.7410 C   0  0  0  0  0  0  0  0  0  0  0  0
   59.1130   27.7170   46.8280 C   0  0  0  0  0  0  0  0  0  0  0  0
   57.7960   27.0950   46.5860 C   0  0  0  0  0  0  0  0  0  0  0  0
   57.5160   25.9550   47.0470 O   0  0  0  0  0  0  0  0  0  0  0  0
   56.7880   27.8430   45.8210 C   0  0  0  0  0  0  0  0  0  0  0  0
   55.5270   27.2860   45.6300 O   0  0  0  0  0  0  0  0  0  0  0  0
   57.0990   29.0530   45.3170 C   0  0  0  0  0  0  0  0  0  0  0  0
   56.0950   29.8870   44.6210 C   0  0  0  0  0  0  0  0  0  0  0  0
   55.0540   29.3370   44.1750 O   0  0  0  0  0  0  0  0  0  0  0  0
   56.2570   31.3050   44.4460 N   0  0  0  0  0  0  0  0  0  0  0  0
   57.3620   31.9470   44.1840 C   0  0  0  0  0  0  0  0  0  0  0  0
   58.0070   32.8980   45.1140 C   0  0  0  0  0  0  0  0  0  0  0  0
   58.8590   33.8900   44.6040 C   0  0  0  0  0  0  0  0  0  0  0  0
   59.4640   34.8100   45.4660 C   0  0  0  0  0  0  0  0  0  0  0  0
   59.2390   34.7330   46.8430 C   0  0  0  0  0  0  0  0  0  0  0  0
   58.4190   33.7280   47.3620 C   0  0  0  0  0  0  0  0  0  0  0  0
   57.8150   32.8050   46.5040 C   0  0  0  0  0  0  0  0  0  0  0  0
   58.4360   29.5690   45.4370 N   0  0  0  0  0  0  0  0  0  0  0  0
   59.3950   28.9880   46.1010 C   0  0  0  0  0  0  0  0  0  0  0  0
   60.7270   29.6220   46.0870 C   0  0  0  0  0  0  0  0  0  0  0  0
   61.5490   29.3020   45.1860 O   0  0  0  0  0  0  0  0  0  0  0  0
   61.1130   30.5430   47.1190 N   0  0  0  0  0  0  0  0  0  0  0  0
   62.3970   31.2390   47.1060 C   0  0  0  0  0  0  0  0  0  0  0  0
   62.4230   32.3060   48.1670 C   0  0  0  0  0  0  0  0  0  0  0  0
   63.6440   32.7930   48.6630 C   0  0  0  0  0  0  0  0  0  0  0  0
   63.6580   33.7730   49.6600 C   0  0  0  0  0  0  0  0  0  0  0  0
   62.4560   34.2700   50.1720 C   0  0  0  0  0  0  0  0  0  0  0  0
   61.2370   33.7850   49.6870 C   0  0  0  0  0  0  0  0  0  0  0  0
   61.2190   32.8070   48.6890 C   0  0  0  0  0  0  0  0  0  0  0  0
   60.9306   27.6802   47.9124 H   0  0  0  0  0  0  0  0  0  0  0  0
   59.6620   26.3181   48.3189 H   0  0  0  0  0  0  0  0  0  0  0  0
   57.8435   31.7698   43.2110 H   0  0  0  0  0  0  0  0  0  0  0  0
   59.0515   33.9439   43.5223 H   0  0  0  0  0  0  0  0  0  0  0  0
   60.1180   35.5955   45.0595 H   0  0  0  0  0  0  0  0  0  0  0  0
   59.7076   35.4639   47.5185 H   0  0  0  0  0  0  0  0  0  0  0  0
   58.2487   33.6632   48.4468 H   0  0  0  0  0  0  0  0  0  0  0  0
   57.1868   32.0024   46.9176 H   0  0  0  0  0  0  0  0  0  0  0  0
   60.4730   30.7010   47.9310 H   0  0  0  0  0  0  0  0  0  0  0  0
   63.2036   30.5162   47.2983 H   0  0  0  0  0  0  0  0  0  0  0  0
   62.5394   31.7092   46.1218 H   0  0  0  0  0  0  0  0  0  0  0  0
   64.5922   32.4019   48.2655 H   0  0  0  0  0  0  0  0  0  0  0  0
   64.6167   34.1536   50.0422 H   0  0  0  0  0  0  0  0  0  0  0  0
   62.4688   35.0418   50.9556 H   0  0  0  0  0  0  0  0  0  0  0  0
   60.2911   34.1740   50.0918 H   0  0  0  0  0  0  0  0  0  0  0  0
   60.2582   32.4280   48.3107 H   0  0  0  0  0  0  0  0  0  0  0  0
  1  2  2  0
  2  3  1  0
  3  4  2  0
  3  5  1  0
  5  6  1  0
  5  7  2  0
  7  8  1  0
  8  9  2  0
  8 10  1  0
 10 11  2  3
 11 12  1  0
 12 13  2  0
 13 14  1  0
 14 15  2  0
 15 16  1  0
 16 17  2  0
  7 18  1  0
 18 19  2  0
 19 20  1  0
 20 21  2  0
 20 22  1  0
 22 23  1  0
 23 24  1  0
 24 25  2  0
 25 26  1  0
 26 27  2  0
 27 28  1  0
 28 29  2  0
 19  2  1  0
 29 24  1  0
 17 12  1  0
  1 30  1  0
  1 31  1  0
 11 32  1  0
 13 33  1  0
 14 34  1  0
 15 35  1  0
 16 36  1  0
 17 37  1  0
 22 38  1  0
 23 39  1  0
 23 40  1  0
 25 41  1  0
 26 42  1  0
 27 43  1  0
 28 44  1  0
 29 45  1  0
M  CHG  1   6  -1
M  END
>  <UniqueID>  (50) 
49

>  <SMILES>  (50) 
C=C1C(=O)C([O-])=C(C(=O)N=Cc2ccccc2)N=C1C(=O)NCc1ccccc1

>  <Energy>  (50) 
63.30788385062905

>  <Genealogy>  (50) 
C=C1C(=O)C([O-])=C(C(=O)N=Cc2ccccc2)N=C1C(=O)NCc1ccccc1 (protonated)
C=C1C(=O)C([O-])=C(C(=O)N=Cc2ccccc2)N=C1C(=O)NCc1ccccc1 (3D coordinates assigned)
C=C1C(=O)C([O-])=C(C(=O)N=Cc2ccccc2)N=C1C(=O)NCc1ccccc1 (nonaromatic ring conformer: 63.30788385062905 kcal/mol)

>  <smiles>  (50) 
C=C1C(=O)C(O)=C(C(=O)N=Cc2ccccc2)N=C1C(=O)NCc1ccccc1

>  <score_type>  (50) 
oracle

>  <origin>  (50) 
adg

>  <m_score__min__energy>  (50) 
-12.77

>  <m_primary>  (50) 
energy

$$$$
50:0
     RDKit          3D

 46 49  0  0  0  0  0  0  0  0999 V2000
   56.3020   22.5740   48.2570 C   0  0  0  0  0  0  0  0  0  0  0  0
   56.4410   23.5580   47.1890 N   0  0  0  0  0  0  0  0  0  0  0  0
   56.6670   24.8830   47.3530 C   0  0  0  0  0  0  0  0  0  0  0  0
   56.8310   25.4990   46.1160 C   0  0  0  0  0  0  0  0  0  0  0  0
   57.1570   26.9440   45.8790 C   0  0  0  0  0  0  0  0  0  0  0  0
   55.9480   27.7210   45.6190 N   0  0  0  0  0  0  0  0  0  0  0  0
   55.9320   28.9460   44.8800 C   0  0  0  0  0  0  0  0  0  0  0  0
   54.8290   29.4060   44.4820 O   0  0  0  0  0  0  0  0  0  0  0  0
   57.1540   29.6520   44.6370 N   0  0  0  0  0  0  0  0  0  0  0  0
   57.6330   30.8560   45.2590 C   0  0  0  0  0  0  0  0  0  0  0  0
   57.1460   32.1230   44.8860 C   0  0  0  0  0  0  0  0  0  0  0  0
   57.6730   33.2820   45.4610 C   0  0  0  0  0  0  0  0  0  0  0  0
   58.7030   33.1950   46.3960 C   0  0  0  0  0  0  0  0  0  0  0  0
   59.2180   31.9490   46.7540 C   0  0  0  0  0  0  0  0  0  0  0  0
   58.6930   30.7710   46.1920 C   0  0  0  0  0  0  0  0  0  0  0  0
   59.2760   29.4630   46.5770 C   0  0  0  0  0  0  0  0  0  0  0  0
   59.1310   28.9840   47.8900 C   0  0  0  0  0  0  0  0  0  0  0  0
   59.6880   27.7560   48.2600 C   0  0  0  0  0  0  0  0  0  0  0  0
   60.3880   26.9940   47.3220 C   0  0  0  0  0  0  0  0  0  0  0  0
   60.5300   27.4570   46.0110 C   0  0  0  0  0  0  0  0  0  0  0  0
   59.9740   28.6830   45.6370 C   0  0  0  0  0  0  0  0  0  0  0  0
   56.7060   24.4950   45.1750 C   0  0  0  0  0  0  0  0  0  0  0  0
   56.8070   24.5240   43.7840 C   0  0  0  0  0  0  0  0  0  0  0  0
   56.6680   23.3100   43.0900 C   0  0  0  0  0  0  0  0  0  0  0  0
   56.4380   22.1060   43.7910 C   0  0  0  0  0  0  0  0  0  0  0  0
   56.3450   22.1060   45.1950 C   0  0  0  0  0  0  0  0  0  0  0  0
   56.4800   23.3270   45.8610 C   0  0  0  0  0  0  0  0  0  0  0  0
   56.3733   23.0785   49.2319 H   0  0  0  0  0  0  0  0  0  0  0  0
   55.3246   22.0764   48.1722 H   0  0  0  0  0  0  0  0  0  0  0  0
   57.1033   21.8252   48.1722 H   0  0  0  0  0  0  0  0  0  0  0  0
   56.7141   25.3980   48.3238 H   0  0  0  0  0  0  0  0  0  0  0  0
   57.6598   27.3494   46.7694 H   0  0  0  0  0  0  0  0  0  0  0  0
   57.8128   27.0139   44.9986 H   0  0  0  0  0  0  0  0  0  0  0  0
   56.3447   32.2010   44.1364 H   0  0  0  0  0  0  0  0  0  0  0  0
   57.2738   34.2663   45.1750 H   0  0  0  0  0  0  0  0  0  0  0  0
   59.1101   34.1096   46.8519 H   0  0  0  0  0  0  0  0  0  0  0  0
   60.0409   31.8871   47.4813 H   0  0  0  0  0  0  0  0  0  0  0  0
   58.5762   29.5784   48.6309 H   0  0  0  0  0  0  0  0  0  0  0  0
   59.5747   27.3897   49.2910 H   0  0  0  0  0  0  0  0  0  0  0  0
   60.8277   26.0292   47.6151 H   0  0  0  0  0  0  0  0  0  0  0  0
   61.0803   26.8554   45.2726 H   0  0  0  0  0  0  0  0  0  0  0  0
   60.0826   29.0402   44.6023 H   0  0  0  0  0  0  0  0  0  0  0  0
   56.9896   25.4668   43.2476 H   0  0  0  0  0  0  0  0  0  0  0  0
   56.7389   23.2975   41.9924 H   0  0  0  0  0  0  0  0  0  0  0  0
   56.3309   21.1623   43.2361 H   0  0  0  0  0  0  0  0  0  0  0  0
   56.1713   21.1731   45.7514 H   0  0  0  0  0  0  0  0  0  0  0  0
  1  2  1  0
  2  3  1  0
  3  4  2  0
  4  5  1  0
  5  6  1  0
  6  7  1  0
  7  8  2  0
  7  9  1  0
  9 10  1  0
 10 11  2  0
 11 12  1  0
 12 13  2  0
 13 14  1  0
 14 15  2  0
 15 16  1  0
 16 17  2  0
 17 18  1  0
 18 19  2  0
 19 20  1  0
 20 21  2  0
  4 22  1  0
 22 23  2  0
 23 24  1  0
 24 25  2  0
 25 26  1  0
 26 27  2  0
 27  2  1  0
 15 10  1  0
 21 16  1  0
 27 22  1  0
  1 28  1  0
  1 29  1  0
  1 30  1  0
  3 31  1  0
  5 32  1  0
  5 33  1  0
 11 34  1  0
 12 35  1  0
 13 36  1  0
 14 37  1  0
 17 38  1  0
 18 39  1  0
 19 40  1  0
 20 41  1  0
 21 42  1  0
 23 43  1  0
 24 44  1  0
 25 45  1  0
 26 46  1  0
M  CHG  2   6  -1   9  -1
M  END
>  <UniqueID>  (51) 
50

>  <SMILES>  (51) 
Cn1cc(C[N-]C(=O)[N-]c2ccccc2-c2ccccc2)c2ccccc21

>  <Energy>  (51) 
87.10749395758977

>  <Genealogy>  (51) 
Cn1cc(C[N-]C(=O)[N-]c2ccccc2-c2ccccc2)c2ccccc21 (protonated)
Cn1cc(C[N-]C(=O)[N-]c2ccccc2-c2ccccc2)c2ccccc21 (3D coordinates assigned)
Cn1cc(C[N-]C(=O)[N-]c2ccccc2-c2ccccc2)c2ccccc21 (optimized conformer: 87.10749395758977 kcal/mol)

>  <smiles>  (51) 
Cn1cc(CNC(=O)Nc2ccccc2-c2ccccc2)c2ccccc21

>  <score_type>  (51) 
oracle

>  <origin>  (51) 
adg

>  <m_score__min__energy>  (51) 
-12.550000000000001

>  <m_primary>  (51) 
energy

$$$$
51:0
     RDKit          3D

 61 64  0  0  0  0  0  0  0  0999 V2000
   56.4746   32.6265   52.8230 H   0  0  0  0  0  0  0  0  0  0  0  0
   57.3920   32.6870   52.2190 C   0  0  0  0  0  0  0  0  0  0  0  0
   57.6040   31.7810   51.1760 C   0  0  0  0  0  0  0  0  0  0  0  0
   56.8503   31.0108   50.9554 H   0  0  0  0  0  0  0  0  0  0  0  0
   58.7760   31.8530   50.4110 C   0  0  0  0  0  0  0  0  0  0  0  0
   58.9414   31.1348   49.5944 H   0  0  0  0  0  0  0  0  0  0  0  0
   59.7420   32.8390   50.6820 C   0  0  0  0  0  0  0  0  0  0  0  0
   61.0170   32.9090   49.8730 C   0  0  0  0  0  0  0  0  0  0  0  0
   61.1052   31.9906   49.2741 H   0  0  0  0  0  0  0  0  0  0  0  0
   61.8542   33.0148   50.5787 H   0  0  0  0  0  0  0  0  0  0  0  0
   61.0490   34.0800   48.9570 N   0  0  1  0  0  0  0  0  0  0  0  0
   61.4990   34.8650   49.4870 H   0  0  0  0  0  0  0  0  0  0  0  0
   61.8950   33.8500   47.7580 C   0  0  0  0  0  0  0  0  0  0  0  0
   62.0093   34.8027   47.2201 H   0  0  0  0  0  0  0  0  0  0  0  0
   62.8631   33.4595   48.1048 H   0  0  0  0  0  0  0  0  0  0  0  0
   61.2930   32.8110   46.7960 C   0  0  0  0  0  0  0  0  0  0  0  0
   61.7770   32.9227   45.8145 H   0  0  0  0  0  0  0  0  0  0  0  0
   61.4709   31.8188   47.2363 H   0  0  0  0  0  0  0  0  0  0  0  0
   59.7630   32.9610   46.6090 C   0  0  1  0  0  0  0  0  0  0  0  0
   59.5606   32.8925   45.5300 H   0  0  0  0  0  0  0  0  0  0  0  0
   59.0590   31.9200   47.2960 O   0  0  0  0  0  0  0  0  0  0  0  0
   59.0030   30.5490   46.9710 C   0  0  0  0  0  0  0  0  0  0  0  0
   59.8760   29.7140   47.6770 C   0  0  0  0  0  0  0  0  0  0  0  0
   60.5624   30.1516   48.4169 H   0  0  0  0  0  0  0  0  0  0  0  0
   59.8910   28.3370   47.4590 C   0  0  0  0  0  0  0  0  0  0  0  0
   60.5866   27.7018   48.0271 H   0  0  0  0  0  0  0  0  0  0  0  0
   59.0260   27.7560   46.5210 C   0  0  0  0  0  0  0  0  0  0  0  0
   59.0270   26.2880   46.3040 C   0  0  0  0  0  0  0  0  0  0  0  0
   59.9630   25.5850   46.7760 O   0  0  0  0  0  0  0  0  0  0  0  0
   57.9960   25.6830   45.5070 N   0  0  0  0  0  0  0  0  0  0  0  0
   58.0330   24.5290   44.9080 C   0  0  0  0  0  0  0  0  0  0  0  0
   56.6890   24.0030   43.8710 S   0  0  0  0  0  0  0  0  0  0  0  0
   57.1230   22.2830   44.3020 C   0  0  0  0  0  0  0  0  0  0  0  0
   56.8988   21.6187   43.4544 H   0  0  0  0  0  0  0  0  0  0  0  0
   56.5392   21.9504   45.1729 H   0  0  0  0  0  0  0  0  0  0  0  0
   58.6200   22.2330   44.6180 C   0  0  0  0  0  0  0  0  0  0  0  0
   59.1948   22.0713   43.6941 H   0  0  0  0  0  0  0  0  0  0  0  0
   58.8454   21.4067   45.3082 H   0  0  0  0  0  0  0  0  0  0  0  0
   58.9780   23.5090   45.2090 N   0  0  0  0  0  0  0  0  0  0  0  0
   59.6400   23.5520   46.0140 H   0  0  0  0  0  0  0  0  0  0  0  0
   58.1520   28.5860   45.7990 C   0  0  0  0  0  0  0  0  0  0  0  0
   57.4726   28.1393   45.0582 H   0  0  0  0  0  0  0  0  0  0  0  0
   58.1290   29.9820   46.0060 C   0  0  0  0  0  0  0  0  0  0  0  0
   57.2710   30.8150   45.2660 O   0  0  0  0  0  0  0  0  0  0  0  0
   57.2370   30.9670   43.8460 C   0  0  0  0  0  0  0  0  0  0  0  0
   56.6978   31.8926   43.5960 H   0  0  0  0  0  0  0  0  0  0  0  0
   58.2709   31.0111   43.4731 H   0  0  0  0  0  0  0  0  0  0  0  0
   56.5320   29.7850   43.1870 C   0  0  0  0  0  0  0  0  0  0  0  0
   56.2090   30.0740   41.8750 F   0  0  0  0  0  0  0  0  0  0  0  0
   55.3710   29.4970   43.8780 F   0  0  0  0  0  0  0  0  0  0  0  0
   57.3580   28.6780   43.2160 F   0  0  0  0  0  0  0  0  0  0  0  0
   59.2740   34.3130   47.1330 C   0  0  0  0  0  0  0  0  0  0  0  0
   59.7183   35.1130   46.5226 H   0  0  0  0  0  0  0  0  0  0  0  0
   58.1761   34.3277   47.0670 H   0  0  0  0  0  0  0  0  0  0  0  0
   59.6680   34.5340   48.6090 C   0  0  0  0  0  0  0  0  0  0  0  0
   59.5950   35.6098   48.8266 H   0  0  0  0  0  0  0  0  0  0  0  0
   58.9777   33.9253   49.2114 H   0  0  0  0  0  0  0  0  0  0  0  0
   59.5180   33.7510   51.7290 C   0  0  0  0  0  0  0  0  0  0  0  0
   60.2640   34.5293   51.9475 H   0  0  0  0  0  0  0  0  0  0  0  0
   58.3480   33.6710   52.4940 C   0  0  0  0  0  0  0  0  0  0  0  0
   58.1798   34.3844   53.3142 H   0  0  0  0  0  0  0  0  0  0  0  0
  1  2  1  0
  2  3  2  0
  3  4  1  0
  3  5  1  0
  5  6  1  0
  5  7  2  0
  7  8  1  0
  8  9  1  0
  8 10  1  0
  8 11  1  0
 11 12  1  1
 11 13  1  0
 13 14  1  0
 13 15  1  0
 13 16  1  0
 16 17  1  0
 16 18  1  0
 16 19  1  0
 19 20  1  6
 19 21  1  0
 21 22  1  0
 22 23  2  0
 23 24  1  0
 23 25  1  0
 25 26  1  0
 25 27  2  0
 27 28  1  0
 28 29  2  0
 28 30  1  0
 30 31  2  0
 31 32  1  0
 32 33  1  0
 33 34  1  0
 33 35  1  0
 33 36  1  0
 36 37  1  0
 36 38  1  0
 36 39  1  0
 39 40  1  0
 27 41  1  0
 41 42  1  0
 41 43  2  0
 43 44  1  0
 44 45  1  0
 45 46  1  0
 45 47  1  0
 45 48  1  0
 48 49  1  0
 48 50  1  0
 48 51  1  0
 19 52  1  0
 52 53  1  0
 52 54  1  0
 52 55  1  0
 55 56  1  0
 55 57  1  0
  7 58  1  0
 58 59  1  0
 58 60  2  0
 60 61  1  0
 60  2  1  0
 55 11  1  0
 43 22  1  0
 39 31  1  0
M  CHG  1  11   1
M  END
>  <UniqueID>  (52) 
51

>  <SMILES>  (52) 
O=C(/N=C1\NCCS1)c1ccc(OC2CC[NH+](Cc3ccccc3)CC2)c(OCC(F)(F)F)c1

>  <Energy>  (52) 
87.09492985069976

>  <Genealogy>  (52) 
O=C(N=C1NCCS1)c1ccc(OC2CC[NH+](Cc3ccccc3)CC2)c(OCC(F)(F)F)c1 (protonated)
O=C(/N=C1\NCCS1)c1ccc(OC2CC[NH+](Cc3ccccc3)CC2)c(OCC(F)(F)F)c1 (cis-trans isomerization)
O=C(/N=C1\NCCS1)c1ccc(OC2CC[NH+](Cc3ccccc3)CC2)c(OCC(F)(F)F)c1 (3D coordinates assigned)
O=C(/N=C1\NCCS1)c1ccc(OC2CC[NH+](Cc3ccccc3)CC2)c(OCC(F)(F)F)c1 (nonaromatic ring conformer: 87.09492985069976 kcal/mol)

>  <smiles>  (52) 
O=C(N=C1NCCS1)c1ccc(OC2CCN(Cc3ccccc3)CC2)c(OCC(F)(F)F)c1

>  <score_type>  (52) 
oracle

>  <origin>  (52) 
adg

>  <m_score__min__energy>  (52) 
-7.0099999999999998

>  <m_primary>  (52) 
energy

$$$$
52:0
     RDKit          3D

 41 43  0  0  0  0  0  0  0  0999 V2000
   64.1210   32.7600   48.7020 C   0  0  0  0  0  0  0  0  0  0  0  0
   63.3140   31.6790   49.1570 O   0  0  0  0  0  0  0  0  0  0  0  0
   62.1300   31.2580   48.5340 C   0  0  0  0  0  0  0  0  0  0  0  0
   61.9210   31.6080   47.1950 C   0  0  0  0  0  0  0  0  0  0  0  0
   60.7560   31.2120   46.5310 C   0  0  0  0  0  0  0  0  0  0  0  0
   59.7820   30.4570   47.2000 C   0  0  0  0  0  0  0  0  0  0  0  0
   58.5800   30.0480   46.5150 N   0  0  0  0  0  0  0  0  0  0  0  0
   57.8130   30.9770   45.8620 C   0  0  0  0  0  0  0  0  0  0  0  0
   58.1400   32.1950   45.8590 O   0  0  0  0  0  0  0  0  0  0  0  0
   56.6830   30.5990   45.2160 N   0  0  0  0  0  0  0  0  0  0  0  0
   56.2720   29.3090   45.2000 C   0  0  0  0  0  0  0  0  0  0  0  0
   55.1210   28.9740   44.4950 O   0  0  0  0  0  0  0  0  0  0  0  0
   57.0160   28.3290   45.8710 C   0  0  0  0  0  0  0  0  0  0  0  0
   56.5810   26.9110   45.8800 C   0  0  0  0  0  0  0  0  0  0  0  0
   55.3580   26.6410   46.0150 O   0  0  0  0  0  0  0  0  0  0  0  0
   57.5180   25.8280   45.7900 N   0  0  0  0  0  0  0  0  0  0  0  0
   57.1960   24.4430   45.5970 C   0  0  0  0  0  0  0  0  0  0  0  0
   57.0810   23.5530   46.6800 C   0  0  0  0  0  0  0  0  0  0  0  0
   56.7900   22.2050   46.4540 C   0  0  0  0  0  0  0  0  0  0  0  0
   56.6220   21.7320   45.1500 C   0  0  0  0  0  0  0  0  0  0  0  0
   56.7410   22.6080   44.0610 C   0  0  0  0  0  0  0  0  0  0  0  0
   56.6120   22.0920   42.6590 C   0  0  0  0  0  0  0  0  0  0  0  0
   57.0520   23.9580   44.2910 C   0  0  0  0  0  0  0  0  0  0  0  0
   58.1980   28.7300   46.5220 C   0  0  0  0  0  0  0  0  0  0  0  0
   58.9030   27.8690   47.1210 O   0  0  0  0  0  0  0  0  0  0  0  0
   59.9870   30.1040   48.5420 C   0  0  0  0  0  0  0  0  0  0  0  0
   61.1510   30.5000   49.2070 C   0  0  0  0  0  0  0  0  0  0  0  0
   64.5271   33.3040   49.5675 H   0  0  0  0  0  0  0  0  0  0  0  0
   64.9494   32.3683   48.0935 H   0  0  0  0  0  0  0  0  0  0  0  0
   63.5100   33.4429   48.0935 H   0  0  0  0  0  0  0  0  0  0  0  0
   62.6793   32.1993   46.6608 H   0  0  0  0  0  0  0  0  0  0  0  0
   60.6028   31.4940   45.4789 H   0  0  0  0  0  0  0  0  0  0  0  0
   57.2205   23.9191   47.7079 H   0  0  0  0  0  0  0  0  0  0  0  0
   56.6930   21.5146   47.3048 H   0  0  0  0  0  0  0  0  0  0  0  0
   56.3958   20.6695   44.9769 H   0  0  0  0  0  0  0  0  0  0  0  0
   56.3453   21.0251   42.6840 H   0  0  0  0  0  0  0  0  0  0  0  0
   55.8267   22.6540   42.1322 H   0  0  0  0  0  0  0  0  0  0  0  0
   57.5694   22.2183   42.1322 H   0  0  0  0  0  0  0  0  0  0  0  0
   57.1836   24.6403   43.4383 H   0  0  0  0  0  0  0  0  0  0  0  0
   59.2275   29.5123   49.0740 H   0  0  0  0  0  0  0  0  0  0  0  0
   61.3034   30.2189   50.2595 H   0  0  0  0  0  0  0  0  0  0  0  0
  1  2  1  0
  2  3  1  0
  3  4  2  0
  4  5  1  0
  5  6  2  0
  6  7  1  0
  7  8  1  0
  8  9  2  0
  8 10  1  0
 10 11  1  0
 11 12  1  0
 11 13  2  0
 13 14  1  0
 14 15  2  0
 14 16  1  0
 16 17  1  0
 17 18  2  0
 18 19  1  0
 19 20  2  0
 20 21  1  0
 21 22  1  0
 21 23  2  0
 13 24  1  0
 24 25  2  0
  6 26  1  0
 26 27  2  0
 27  3  1  0
 24  7  1  0
 23 17  1  0
  1 28  1  0
  1 29  1  0
  1 30  1  0
  4 31  1  0
  5 32  1  0
 18 33  1  0
 19 34  1  0
 20 35  1  0
 22 36  1  0
 22 37  1  0
 22 38  1  0
 23 39  1  0
 26 40  1  0
 27 41  1  0
M  CHG  3  10  -1  12  -1  16  -1
M  END
>  <UniqueID>  (53) 
52

>  <SMILES>  (53) 
COc1ccc(-n2c(=O)[n-]c([O-])c(C(=O)[N-]c3cccc(C)c3)c2=O)cc1

>  <Energy>  (53) 
62.90770477761

>  <Genealogy>  (53) 
COc1ccc(-n2c(=O)[n-]c([O-])c(C(=O)[N-]c3cccc(C)c3)c2=O)cc1 (protonated)
COc1ccc(-n2c(=O)[n-]c([O-])c(C(=O)[N-]c3cccc(C)c3)c2=O)cc1 (3D coordinates assigned)
COc1ccc(-n2c(=O)[n-]c([O-])c(C(=O)[N-]c3cccc(C)c3)c2=O)cc1 (optimized conformer: 62.90770477761 kcal/mol)

>  <smiles>  (53) 
COc1ccc(-n2c(=O)[nH]c(O)c(C(=O)Nc3cccc(C)c3)c2=O)cc1

>  <score_type>  (53) 
oracle

>  <origin>  (53) 
adg

>  <m_score__min__energy>  (53) 
-13.609999999999999

>  <m_primary>  (53) 
energy

$$$$
53:0
     RDKit          3D

 62 65  0  0  0  0  0  0  0  0999 V2000
   50.0650   32.2920   49.7700 H   0  0  0  0  0  0  0  0  0  0  0  0
   51.0260   32.3270   50.1770 N   0  0  0  0  0  0  0  0  0  0  0  0
   51.3600   31.5440   51.3200 C   0  0  0  0  0  0  0  0  0  0  0  0
   51.1730   32.0090   52.4760 O   0  0  0  0  0  0  0  0  0  0  0  0
   51.9460   30.1780   51.1500 C   0  0  0  0  0  0  0  0  0  0  0  0
   51.3217   29.4468   51.6844 H   0  0  0  0  0  0  0  0  0  0  0  0
   51.9790   29.9351   50.0777 H   0  0  0  0  0  0  0  0  0  0  0  0
   53.3460   30.1340   51.7040 C   0  0  0  0  0  0  0  0  0  0  0  0
   53.7940   29.0090   52.4130 C   0  0  0  0  0  0  0  0  0  0  0  0
   53.1211   28.1515   52.5611 H   0  0  0  0  0  0  0  0  0  0  0  0
   55.0890   28.9730   52.9310 C   0  0  0  0  0  0  0  0  0  0  0  0
   55.4389   28.0776   53.4657 H   0  0  0  0  0  0  0  0  0  0  0  0
   55.9500   30.0740   52.7740 C   0  0  0  0  0  0  0  0  0  0  0  0
   57.2510   30.0970   53.3020 O   0  0  0  0  0  0  0  0  0  0  0  0
   58.2910   30.9850   52.8910 C   0  0  0  0  0  0  0  0  0  0  0  0
   57.8514   31.9526   52.6072 H   0  0  0  0  0  0  0  0  0  0  0  0
   58.9956   31.1223   53.7245 H   0  0  0  0  0  0  0  0  0  0  0  0
   59.0310   30.4100   51.7120 C   0  0  0  0  0  0  0  0  0  0  0  0
   59.3210   29.0380   51.6770 C   0  0  0  0  0  0  0  0  0  0  0  0
   59.0280   28.3948   52.5199 H   0  0  0  0  0  0  0  0  0  0  0  0
   59.9800   28.4850   50.5770 C   0  0  0  0  0  0  0  0  0  0  0  0
   60.2193   27.4114   50.5627 H   0  0  0  0  0  0  0  0  0  0  0  0
   60.3360   29.2940   49.4940 C   0  0  0  0  0  0  0  0  0  0  0  0
   60.8591   28.8544   48.6319 H   0  0  0  0  0  0  0  0  0  0  0  0
   60.0300   30.6640   49.5000 C   0  0  0  0  0  0  0  0  0  0  0  0
   60.3850   31.5030   48.3350 C   0  0  0  0  0  0  0  0  0  0  0  0
   61.4100   31.2030   47.6640 O   0  0  0  0  0  0  0  0  0  0  0  0
   59.5620   32.6160   47.9230 N   0  0  0  0  0  0  0  0  0  0  0  0
   60.1110   33.6550   47.0420 C   0  0  0  0  0  0  0  0  0  0  0  0
   59.8904   34.6469   47.4632 H   0  0  0  0  0  0  0  0  0  0  0  0
   61.2002   33.5260   46.9578 H   0  0  0  0  0  0  0  0  0  0  0  0
   59.4750   33.5370   45.6550 C   0  0  0  0  0  0  0  0  0  0  0  0
   59.7219   34.4406   45.0783 H   0  0  0  0  0  0  0  0  0  0  0  0
   59.8769   32.6271   45.1853 H   0  0  0  0  0  0  0  0  0  0  0  0
   57.9260   33.3890   45.7060 C   0  0  0  0  0  0  0  0  0  0  0  0
   57.5166   34.2569   45.1682 H   0  0  0  0  0  0  0  0  0  0  0  0
   57.4780   32.1350   45.0000 C   0  0  0  0  0  0  0  0  0  0  0  0
   56.2510   31.9290   44.7970 O   0  0  0  0  0  0  0  0  0  0  0  0
   58.4310   31.0950   44.7410 N   0  0  0  0  0  0  0  0  0  0  0  0
   58.5250   29.9140   45.2910 C   0  0  0  0  0  0  0  0  0  0  0  0
   59.7760   29.4510   45.5730 N   0  0  0  0  0  0  0  0  0  0  0  0
   59.9970   28.2540   46.1790 C   0  0  0  0  0  0  0  0  0  0  0  0
   61.0257   27.9256   46.3888 H   0  0  0  0  0  0  0  0  0  0  0  0
   58.9220   27.4440   46.5340 C   0  0  0  0  0  0  0  0  0  0  0  0
   59.0921   26.4877   47.0502 H   0  0  0  0  0  0  0  0  0  0  0  0
   57.6260   27.8600   46.2270 C   0  0  0  0  0  0  0  0  0  0  0  0
   56.7701   27.2208   46.4894 H   0  0  0  0  0  0  0  0  0  0  0  0
   57.4080   29.0880   45.5860 C   0  0  0  0  0  0  0  0  0  0  0  0
   56.1110   29.4380   45.2140 O   0  0  0  0  0  0  0  0  0  0  0  0
   55.9040   30.3120   44.7470 H   0  0  0  0  0  0  0  0  0  0  0  0
   57.3460   33.4690   47.1400 C   0  0  0  0  0  0  0  0  0  0  0  0
   57.4025   34.5122   47.4845 H   0  0  0  0  0  0  0  0  0  0  0  0
   56.3073   33.1093   47.0981 H   0  0  0  0  0  0  0  0  0  0  0  0
   58.1060   32.5780   48.1410 C   0  0  0  0  0  0  0  0  0  0  0  0
   57.8910   32.9280   49.1614 H   0  0  0  0  0  0  0  0  0  0  0  0
   57.7689   31.5412   47.9950 H   0  0  0  0  0  0  0  0  0  0  0  0
   59.4000   31.2220   50.6260 C   0  0  0  0  0  0  0  0  0  0  0  0
   59.1944   32.3022   50.6573 H   0  0  0  0  0  0  0  0  0  0  0  0
   55.5030   31.1930   52.0640 C   0  0  0  0  0  0  0  0  0  0  0  0
   56.1749   32.0517   51.9188 H   0  0  0  0  0  0  0  0  0  0  0  0
   54.2070   31.2280   51.5370 C   0  0  0  0  0  0  0  0  0  0  0  0
   53.8623   32.1176   50.9894 H   0  0  0  0  0  0  0  0  0  0  0  0
  1  2  1  0
  2  3  1  0
  3  4  2  0
  3  5  1  0
  5  6  1  0
  5  7  1  0
  5  8  1  0
  8  9  2  0
  9 10  1  0
  9 11  1  0
 11 12  1  0
 11 13  2  0
 13 14  1  0
 14 15  1  0
 15 16  1  0
 15 17  1  0
 15 18  1  0
 18 19  2  0
 19 20  1  0
 19 21  1  0
 21 22  1  0
 21 23  2  0
 23 24  1  0
 23 25  1  0
 25 26  1  0
 26 27  2  0
 26 28  1  0
 28 29  1  0
 29 30  1  0
 29 31  1  0
 29 32  1  0
 32 33  1  0
 32 34  1  0
 32 35  1  0
 35 36  1  0
 35 37  1  0
 37 38  2  0
 37 39  1  0
 39 40  2  0
 40 41  1  0
 41 42  1  0
 42 43  1  0
 42 44  2  0
 44 45  1  0
 44 46  1  0
 46 47  1  0
 46 48  2  0
 48 49  1  0
 49 50  1  0
 35 51  1  0
 51 52  1  0
 51 53  1  0
 51 54  1  0
 54 55  1  0
 54 56  1  0
 25 57  2  0
 57 58  1  0
 13 59  1  0
 59 60  1  0
 59 61  2  0
 61 62  1  0
 61  8  1  0
 57 18  1  0
 54 28  1  0
 48 40  1  0
M  CHG  2   2  -1  41  -1
M  END
>  <UniqueID>  (54) 
53

>  <SMILES>  (54) 
[NH-]C(=O)Cc1ccc(OCc2cccc(C(=O)N3CCC(C(=O)/N=c4/[n-]cccc4O)CC3)c2)cc1

>  <Energy>  (54) 
81.11601794138551

>  <Genealogy>  (54) 
[NH-]C(=O)Cc1ccc(OCc2cccc(C(=O)N3CCC(C(=O)N=c4[n-]cccc4O)CC3)c2)cc1 (protonated)
[NH-]C(=O)Cc1ccc(OCc2cccc(C(=O)N3CCC(C(=O)/N=c4/[n-]cccc4O)CC3)c2)cc1 (cis-trans isomerization)
[NH-]C(=O)Cc1ccc(OCc2cccc(C(=O)N3CCC(C(=O)/N=c4/[n-]cccc4O)CC3)c2)cc1 (3D coordinates assigned)
[NH-]C(=O)Cc1ccc(OCc2cccc(C(=O)N3CCC(C(=O)/N=c4/[n-]cccc4O)CC3)c2)cc1 (nonaromatic ring conformer: 81.11601794138551 kcal/mol)

>  <smiles>  (54) 
NC(=O)Cc1ccc(OCc2cccc(C(=O)N3CCC(C(=O)N=c4[nH]cccc4O)CC3)c2)cc1

>  <score_type>  (54) 
oracle

>  <origin>  (54) 
adg

>  <m_score__min__energy>  (54) 
-16.870000000000001

>  <m_primary>  (54) 
energy

$$$$
54:0
     RDKit          3D

 50 53  0  0  0  0  0  0  0  0999 V2000
   56.6007   29.8517   41.1385 H   0  0  0  0  0  0  0  0  0  0  0  0
   56.6740   30.1190   42.2030 C   0  0  0  0  0  0  0  0  0  0  0  0
   57.1060   31.3560   42.5640 N   0  0  0  0  0  0  0  0  0  0  0  0
   57.2310   31.7240   43.8660 C   0  0  0  0  0  0  0  0  0  0  0  0
   57.7140   33.0350   44.1920 N   0  0  0  0  0  0  0  0  0  0  0  0
   57.5010   33.8120   43.5250 H   0  0  0  0  0  0  0  0  0  0  0  0
   58.5180   33.3360   45.3490 C   0  0  0  0  0  0  0  0  0  0  0  0
   59.5780   34.2610   45.2880 C   0  0  0  0  0  0  0  0  0  0  0  0
   59.8406   34.7297   44.3281 H   0  0  0  0  0  0  0  0  0  0  0  0
   60.2990   34.5870   46.4420 C   0  0  0  0  0  0  0  0  0  0  0  0
   61.1291   35.3065   46.3855 H   0  0  0  0  0  0  0  0  0  0  0  0
   59.9670   34.0010   47.6650 C   0  0  0  0  0  0  0  0  0  0  0  0
   60.5345   34.2593   48.5712 H   0  0  0  0  0  0  0  0  0  0  0  0
   58.9120   33.0850   47.7370 C   0  0  0  0  0  0  0  0  0  0  0  0
   58.4540   32.2880   49.4120 Br  0  0  0  0  0  0  0  0  0  0  0  0
   58.1870   32.7620   46.5850 C   0  0  0  0  0  0  0  0  0  0  0  0
   57.3498   32.0514   46.6492 H   0  0  0  0  0  0  0  0  0  0  0  0
   56.8440   30.8290   44.8780 C   0  0  0  0  0  0  0  0  0  0  0  0
   56.9076   31.1318   45.9336 H   0  0  0  0  0  0  0  0  0  0  0  0
   56.3760   29.5480   44.5420 C   0  0  0  0  0  0  0  0  0  0  0  0
   56.0240   28.7440   45.5130 N   0  0  0  0  0  0  0  0  0  0  0  0
   56.6950   27.5470   45.9390 C   0  0  0  0  0  0  0  0  0  0  0  0
   55.9730   26.3370   45.9490 C   0  0  0  0  0  0  0  0  0  0  0  0
   54.6150   26.3350   45.6560 O   0  0  0  0  0  0  0  0  0  0  0  0
   56.6140   25.1290   46.2550 C   0  0  0  0  0  0  0  0  0  0  0  0
   56.0427   24.1890   46.2608 H   0  0  0  0  0  0  0  0  0  0  0  0
   57.9760   25.1190   46.5520 C   0  0  0  0  0  0  0  0  0  0  0  0
   58.4711   24.1756   46.8255 H   0  0  0  0  0  0  0  0  0  0  0  0
   58.7140   26.3050   46.5030 C   0  0  0  0  0  0  0  0  0  0  0  0
   59.7884   26.2904   46.7383 H   0  0  0  0  0  0  0  0  0  0  0  0
   58.0900   27.5190   46.1540 C   0  0  0  0  0  0  0  0  0  0  0  0
   58.8450   28.7260   45.9690 N   0  0  0  0  0  0  0  0  0  0  0  0
   60.5730   28.8480   45.8890 S   0  0  0  0  0  0  0  0  0  0  0  0
   61.1610   27.4810   46.0920 O   0  0  0  0  0  0  0  0  0  0  0  0
   60.9650   29.3450   44.5250 O   0  0  0  0  0  0  0  0  0  0  0  0
   61.1860   29.9180   47.1490 C   0  0  0  0  0  0  0  0  0  0  0  0
   60.8580   29.6770   48.4870 C   0  0  0  0  0  0  0  0  0  0  0  0
   60.2232   28.8177   48.7490 H   0  0  0  0  0  0  0  0  0  0  0  0
   61.3320   30.5210   49.4900 C   0  0  0  0  0  0  0  0  0  0  0  0
   61.0668   30.3277   50.5399 H   0  0  0  0  0  0  0  0  0  0  0  0
   62.1430   31.6120   49.1660 C   0  0  0  0  0  0  0  0  0  0  0  0
   62.5186   32.2693   49.9640 H   0  0  0  0  0  0  0  0  0  0  0  0
   62.4830   31.8760   47.8240 C   0  0  0  0  0  0  0  0  0  0  0  0
   63.3120   33.0030   47.4810 N   0  0  0  0  0  0  0  0  0  0  0  0
   64.1770   33.4210   48.2810 O   0  0  0  0  0  0  0  0  0  0  0  0
   63.1810   33.6220   46.2600 O   0  0  0  0  0  0  0  0  0  0  0  0
   61.9990   31.0140   46.8210 C   0  0  0  0  0  0  0  0  0  0  0  0
   62.2610   31.2017   45.7693 H   0  0  0  0  0  0  0  0  0  0  0  0
   56.3220   29.1840   43.1850 C   0  0  0  0  0  0  0  0  0  0  0  0
   56.0052   28.1710   42.8961 H   0  0  0  0  0  0  0  0  0  0  0  0
  1  2  1  0
  2  3  1  0
  3  4  1  0
  4  5  1  0
  5  6  1  0
  5  7  1  0
  7  8  2  0
  8  9  1  0
  8 10  1  0
 10 11  1  0
 10 12  2  0
 12 13  1  0
 12 14  1  0
 14 15  1  0
 14 16  2  0
 16 17  1  0
  4 18  2  0
 18 19  1  0
 18 20  1  0
 20 21  2  0
 21 22  1  0
 22 23  2  0
 23 24  1  0
 23 25  1  0
 25 26  1  0
 25 27  2  0
 27 28  1  0
 27 29  1  0
 29 30  1  0
 29 31  2  0
 31 32  1  0
 32 33  1  0
 33 34  2  0
 33 35  2  0
 33 36  1  0
 36 37  2  0
 37 38  1  0
 37 39  1  0
 39 40  1  0
 39 41  2  0
 41 42  1  0
 41 43  1  0
 43 44  1  0
 44 45  2  0
 44 46  1  0
 43 47  2  0
 47 48  1  0
 20 49  1  0
 49 50  1  0
 49  2  2  0
 16  7  1  0
 31 22  1  0
 47 36  1  0
M  CHG  5   3  -1  24  -1  32  -1  44   1  46  -1
M  END
>  <UniqueID>  (55) 
54

>  <SMILES>  (55) 
O=[N+]([O-])c1cccc(S(=O)(=O)[N-]c2cccc([O-])c2/N=c2\cc[n-]c(Nc3cccc(Br)c3)c2)c1

>  <Energy>  (55) 
77.24031320633462

>  <Genealogy>  (55) 
O=[N+]([O-])c1cccc(S(=O)(=O)[N-]c2cccc([O-])c2N=c2cc[n-]c(Nc3cccc(Br)c3)c2)c1 (protonated)
O=[N+]([O-])c1cccc(S(=O)(=O)[N-]c2cccc([O-])c2/N=c2\cc[n-]c(Nc3cccc(Br)c3)c2)c1 (cis-trans isomerization)
O=[N+]([O-])c1cccc(S(=O)(=O)[N-]c2cccc([O-])c2/N=c2\cc[n-]c(Nc3cccc(Br)c3)c2)c1 (3D coordinates assigned)
O=[N+]([O-])c1cccc(S(=O)(=O)[N-]c2cccc([O-])c2/N=c2\cc[n-]c(Nc3cccc(Br)c3)c2)c1 (optimized conformer: 77.24031320633462 kcal/mol)

>  <smiles>  (55) 
O=[N+]([O-])c1cccc(S(=O)(=O)Nc2cccc(O)c2N=c2cc[nH]c(Nc3cccc(Br)c3)c2)c1

>  <score_type>  (55) 
oracle

>  <origin>  (55) 
adg

>  <m_score__min__energy>  (55) 
-15.15

>  <m_primary>  (55) 
energy

$$$$
55:0
     RDKit          3D

 42 44  0  0  0  0  0  0  0  0999 V2000
   54.3710   26.7140   46.7490 H   0  0  0  0  0  0  0  0  0  0  0  0
   54.9380   26.3340   46.0010 O   0  0  0  0  0  0  0  0  0  0  0  0
   55.9350   25.3950   46.2520 C   0  0  0  0  0  0  0  0  0  0  0  0
   55.7690   24.3420   47.0690 N   0  0  0  0  0  0  0  0  0  0  0  0
   56.9620   23.7140   46.9910 C   0  0  0  0  0  0  0  0  0  0  0  0
   57.2130   22.6550   47.6220 O   0  0  0  0  0  0  0  0  0  0  0  0
   57.8610   24.3040   46.1740 N   0  0  0  0  0  0  0  0  0  0  0  0
   57.2070   25.3920   45.7250 C   0  0  0  0  0  0  0  0  0  0  0  0
   57.7240   26.3060   44.6920 C   0  0  0  0  0  0  0  0  0  0  0  0
   57.8359   25.9050   43.6738 H   0  0  0  0  0  0  0  0  0  0  0  0
   58.0710   27.5920   44.8910 C   0  0  0  0  0  0  0  0  0  0  0  0
   57.6800   28.6140   44.0400 C   0  0  0  0  0  0  0  0  0  0  0  0
   57.0147   28.5229   43.1688 H   0  0  0  0  0  0  0  0  0  0  0  0
   58.2850   29.7670   44.4950 C   0  0  0  0  0  0  0  0  0  0  0  0
   58.1360   31.1150   43.8570 C   0  0  0  0  0  0  0  0  0  0  0  0
   58.0510   31.8836   44.6394 H   0  0  0  0  0  0  0  0  0  0  0  0
   59.0165   31.3241   43.2317 H   0  0  0  0  0  0  0  0  0  0  0  0
   57.2311   31.1267   43.2317 H   0  0  0  0  0  0  0  0  0  0  0  0
   58.9960   29.5140   45.6160 N   0  0  0  0  0  0  0  0  0  0  0  0
   59.7150   30.4900   46.3910 C   0  0  0  0  0  0  0  0  0  0  0  0
   61.0740   30.3060   46.6710 C   0  0  0  0  0  0  0  0  0  0  0  0
   61.5934   29.4127   46.2939 H   0  0  0  0  0  0  0  0  0  0  0  0
   61.7750   31.2490   47.4260 C   0  0  0  0  0  0  0  0  0  0  0  0
   62.8429   31.0908   47.6372 H   0  0  0  0  0  0  0  0  0  0  0  0
   61.1300   32.4020   47.9210 C   0  0  0  0  0  0  0  0  0  0  0  0
   61.8570   33.3840   48.7060 N   0  0  0  0  0  0  0  0  0  0  0  0
   61.2370   34.0050   49.8830 C   0  0  0  0  0  0  0  0  0  0  0  0
   61.6696   33.5717   50.7968 H   0  0  0  0  0  0  0  0  0  0  0  0
   61.4240   35.0889   49.8670 H   0  0  0  0  0  0  0  0  0  0  0  0
   60.1528   33.8197   49.8670 H   0  0  0  0  0  0  0  0  0  0  0  0
   63.2250   33.7710   48.3370 C   0  0  0  0  0  0  0  0  0  0  0  0
   63.8172   33.9385   49.2487 H   0  0  0  0  0  0  0  0  0  0  0  0
   63.6856   32.9679   47.7430 H   0  0  0  0  0  0  0  0  0  0  0  0
   63.1967   34.6964   47.7430 H   0  0  0  0  0  0  0  0  0  0  0  0
   59.7600   32.5740   47.6350 C   0  0  0  0  0  0  0  0  0  0  0  0
   59.2345   33.4638   48.0120 H   0  0  0  0  0  0  0  0  0  0  0  0
   59.0600   31.6280   46.8780 C   0  0  0  0  0  0  0  0  0  0  0  0
   57.7400   31.8170   46.6280 F   0  0  0  0  0  0  0  0  0  0  0  0
   58.8510   28.1930   45.8920 C   0  0  0  0  0  0  0  0  0  0  0  0
   59.2610   27.6340   47.0420 C   0  0  0  0  0  0  0  0  0  0  0  0
   59.8724   28.2146   47.7485 H   0  0  0  0  0  0  0  0  0  0  0  0
   58.9855   26.5954   47.2776 H   0  0  0  0  0  0  0  0  0  0  0  0
  1  2  1  0
  2  3  1  0
  3  4  1  0
  4  5  1  0
  5  6  2  0
  5  7  1  0
  7  8  1  0
  8  9  1  0
  9 10  1  0
  9 11  2  0
 11 12  1  0
 12 13  1  0
 12 14  2  0
 14 15  1  0
 15 16  1  0
 15 17  1  0
 15 18  1  0
 14 19  1  0
 19 20  1  0
 20 21  2  0
 21 22  1  0
 21 23  1  0
 23 24  1  0
 23 25  2  0
 25 26  1  0
 26 27  1  0
 27 28  1  0
 27 29  1  0
 27 30  1  0
 26 31  1  0
 31 32  1  0
 31 33  1  0
 31 34  1  0
 25 35  1  0
 35 36  1  0
 35 37  2  0
 37 38  1  0
 19 39  1  0
 39 40  2  0
 40 41  1  0
 40 42  1  0
  8  3  2  0
 39 11  1  0
 37 20  1  0
M  CHG  2   4  -1   7  -1
M  END
>  <UniqueID>  (56) 
55

>  <SMILES>  (56) 
C=c1/c(=C\c2[n-]c(=O)[n-]c2O)cc(C)n1-c1ccc(N(C)C)cc1F

>  <Energy>  (56) 
119.59462121371207

>  <Genealogy>  (56) 
C=c1c(=Cc2[n-]c(=O)[n-]c2O)cc(C)n1-c1ccc(N(C)C)cc1F (protonated)
C=c1/c(=C\c2[n-]c(=O)[n-]c2O)cc(C)n1-c1ccc(N(C)C)cc1F (cis-trans isomerization)
C=c1/c(=C\c2[n-]c(=O)[n-]c2O)cc(C)n1-c1ccc(N(C)C)cc1F (3D coordinates assigned)
C=c1/c(=C\c2[n-]c(=O)[n-]c2O)cc(C)n1-c1ccc(N(C)C)cc1F (optimized conformer: 119.59462121371207 kcal/mol)

>  <smiles>  (56) 
C=c1c(=Cc2[nH]c(=O)[nH]c2O)cc(C)n1-c1ccc(N(C)C)cc1F

>  <score_type>  (56) 
oracle

>  <origin>  (56) 
adg

>  <m_score__min__energy>  (56) 
-11.880000000000001

>  <m_primary>  (56) 
energy

$$$$
56:0
     RDKit          3D

 57 60  0  0  0  0  0  0  0  0999 V2000
   59.8850   28.3040   46.5340 C   0  0  0  0  0  0  0  0  0  0  0  0
   58.7270   28.5620   45.9050 C   0  0  0  0  0  0  0  0  0  0  0  0
   57.9650   27.6680   45.1360 C   0  0  0  0  0  0  0  0  0  0  0  0
   58.0420   26.3300   45.0020 C   0  0  0  0  0  0  0  0  0  0  0  0
   57.3230   25.3450   45.8270 C   0  0  0  0  0  0  0  0  0  0  0  0
   57.8670   24.2080   46.3020 N   0  0  0  0  0  0  0  0  0  0  0  0
   56.9020   23.7130   47.1050 C   0  0  0  0  0  0  0  0  0  0  0  0
   57.0320   22.6290   47.7320 O   0  0  0  0  0  0  0  0  0  0  0  0
   55.7910   24.4740   47.1930 N   0  0  0  0  0  0  0  0  0  0  0  0
   56.0770   25.5110   46.3890 C   0  0  0  0  0  0  0  0  0  0  0  0
   55.2080   26.5780   46.1760 O   0  0  0  0  0  0  0  0  0  0  0  0
   57.0160   28.4340   44.4780 C   0  0  0  0  0  0  0  0  0  0  0  0
   57.1750   29.7330   44.9170 C   0  0  0  0  0  0  0  0  0  0  0  0
   56.3350   30.8900   44.4680 C   0  0  0  0  0  0  0  0  0  0  0  0
   58.2130   29.8130   45.7800 N   0  0  0  0  0  0  0  0  0  0  0  0
   58.6960   31.0180   46.4010 C   0  0  0  0  0  0  0  0  0  0  0  0
   59.1880   32.0710   45.6180 C   0  0  0  0  0  0  0  0  0  0  0  0
   59.6470   33.2440   46.2220 C   0  0  0  0  0  0  0  0  0  0  0  0
   59.6220   33.3780   47.6190 C   0  0  0  0  0  0  0  0  0  0  0  0
   60.0830   34.6620   48.2610 C   0  0  0  0  0  0  0  0  0  0  0  0
   61.4400   34.5100   48.8290 N   0  0  0  0  0  0  0  0  0  0  0  0
   62.3470   33.8030   47.8890 C   0  0  0  0  0  0  0  0  0  0  0  0
   62.5760   32.3390   48.2900 C   0  0  0  0  0  0  0  0  0  0  0  0
   63.2080   32.2410   49.6250 N   0  0  0  0  0  0  0  0  0  0  0  0
   63.0460   30.8820   50.1820 C   0  0  0  0  0  0  0  0  0  0  0  0
   61.6570   30.3340   49.8670 C   0  0  0  0  0  0  0  0  0  0  0  0
   62.7540   33.2960   50.5700 C   0  0  0  0  0  0  0  0  0  0  0  0
   61.3940   33.8900   50.1770 C   0  0  0  0  0  0  0  0  0  0  0  0
   59.1260   32.3240   48.4030 C   0  0  0  0  0  0  0  0  0  0  0  0
   58.6690   31.1500   47.7980 C   0  0  0  0  0  0  0  0  0  0  0  0
   60.3872   29.0962   47.1086 H   0  0  0  0  0  0  0  0  0  0  0  0
   60.3314   27.3004   46.4747 H   0  0  0  0  0  0  0  0  0  0  0  0
   58.6974   25.9402   44.2092 H   0  0  0  0  0  0  0  0  0  0  0  0
   54.3890   26.7150   46.7550 H   0  0  0  0  0  0  0  0  0  0  0  0
   56.2774   28.0755   43.7460 H   0  0  0  0  0  0  0  0  0  0  0  0
   55.9469   31.4245   45.3476 H   0  0  0  0  0  0  0  0  0  0  0  0
   56.9475   31.5750   43.8634 H   0  0  0  0  0  0  0  0  0  0  0  0
   55.4940   30.5197   43.8634 H   0  0  0  0  0  0  0  0  0  0  0  0
   59.2129   31.9734   44.5226 H   0  0  0  0  0  0  0  0  0  0  0  0
   60.0298   34.0665   45.5999 H   0  0  0  0  0  0  0  0  0  0  0  0
   60.0970   35.4590   47.5030 H   0  0  0  0  0  0  0  0  0  0  0  0
   59.3880   34.9178   49.0743 H   0  0  0  0  0  0  0  0  0  0  0  0
   61.9034   33.8289   46.8827 H   0  0  0  0  0  0  0  0  0  0  0  0
   63.3206   34.3144   47.9123 H   0  0  0  0  0  0  0  0  0  0  0  0
   61.6076   31.8177   48.3126 H   0  0  0  0  0  0  0  0  0  0  0  0
   63.2486   31.8774   47.5521 H   0  0  0  0  0  0  0  0  0  0  0  0
   63.8048   30.2182   49.7419 H   0  0  0  0  0  0  0  0  0  0  0  0
   63.1690   30.9295   51.2741 H   0  0  0  0  0  0  0  0  0  0  0  0
   61.1241   30.1238   50.8061 H   0  0  0  0  0  0  0  0  0  0  0  0
   61.0932   31.0771   49.2839 H   0  0  0  0  0  0  0  0  0  0  0  0
   61.7524   29.4061   49.2839 H   0  0  0  0  0  0  0  0  0  0  0  0
   62.6703   32.8572   51.5752 H   0  0  0  0  0  0  0  0  0  0  0  0
   63.4943   34.1092   50.5447 H   0  0  0  0  0  0  0  0  0  0  0  0
   60.6407   33.0884   50.1762 H   0  0  0  0  0  0  0  0  0  0  0  0
   61.1345   34.6707   50.9072 H   0  0  0  0  0  0  0  0  0  0  0  0
   59.0970   32.4228   49.4982 H   0  0  0  0  0  0  0  0  0  0  0  0
   58.2868   30.3264   48.4190 H   0  0  0  0  0  0  0  0  0  0  0  0
  1  2  2  0
  2  3  1  0
  3  4  2  3
  4  5  1  0
  5  6  1  0
  6  7  1  0
  7  8  2  0
  7  9  1  0
  9 10  1  0
 10 11  1  0
  3 12  1  0
 12 13  2  0
 13 14  1  0
 13 15  1  0
 15 16  1  0
 16 17  2  0
 17 18  1  0
 18 19  2  0
 19 20  1  0
 20 21  1  0
 21 22  1  0
 22 23  1  0
 23 24  1  0
 24 25  1  0
 25 26  1  0
 24 27  1  0
 27 28  1  0
 19 29  1  0
 29 30  2  0
 15  2  1  0
 30 16  1  0
 10  5  2  0
 28 21  1  0
  1 31  1  0
  1 32  1  0
  4 33  1  0
 11 34  1  0
 12 35  1  0
 14 36  1  0
 14 37  1  0
 14 38  1  0
 17 39  1  0
 18 40  1  0
 20 41  1  0
 20 42  1  0
 22 43  1  0
 22 44  1  0
 23 45  1  0
 23 46  1  0
 25 47  1  0
 25 48  1  0
 26 49  1  0
 26 50  1  0
 26 51  1  0
 27 52  1  0
 27 53  1  0
 28 54  1  0
 28 55  1  0
 29 56  1  0
 30 57  1  0
M  CHG  2   6  -1   9  -1
M  END
>  <UniqueID>  (57) 
56

>  <SMILES>  (57) 
C=c1c(=Cc2[n-]c(=O)[n-]c2O)cc(C)n1-c1ccc(CN2CCN(CC)CC2)cc1

>  <Energy>  (57) 
144.66839114605736

>  <Genealogy>  (57) 
C=c1c(=Cc2[n-]c(=O)[n-]c2O)cc(C)n1-c1ccc(CN2CCN(CC)CC2)cc1 (protonated)
C=c1c(=Cc2[n-]c(=O)[n-]c2O)cc(C)n1-c1ccc(CN2CCN(CC)CC2)cc1 (3D coordinates assigned)
C=c1c(=Cc2[n-]c(=O)[n-]c2O)cc(C)n1-c1ccc(CN2CCN(CC)CC2)cc1 (nonaromatic ring conformer: 144.66839114605736 kcal/mol)

>  <smiles>  (57) 
C=c1c(=Cc2[nH]c(=O)[nH]c2O)cc(C)n1-c1ccc(CN2CCN(CC)CC2)cc1

>  <score_type>  (57) 
oracle

>  <origin>  (57) 
adg

>  <m_score__min__energy>  (57) 
-13.42

>  <m_primary>  (57) 
energy

$$$$
57:0
     RDKit          3D

 35 37  0  0  0  0  0  0  0  0999 V2000
   55.1000   29.4700   54.6110 H   0  0  0  0  0  0  0  0  0  0  0  0
   55.5580   30.0820   53.8200 C   0  0  0  0  0  0  0  0  0  0  0  0
   56.6670   30.8410   54.0300 N   0  0  0  0  0  0  0  0  0  0  0  0
   57.0440   31.5020   52.9130 C   0  0  0  0  0  0  0  0  0  0  0  0
   58.0560   32.3190   52.9060 N   0  0  0  0  0  0  0  0  0  0  0  0
   58.5760   33.0240   51.7710 C   0  0  0  0  0  0  0  0  0  0  0  0
   58.8380   34.2500   51.8890 O   0  0  0  0  0  0  0  0  0  0  0  0
   58.9070   32.3340   50.5560 N   0  0  0  0  0  0  0  0  0  0  0  0
   59.1780   31.3270   50.6290 H   0  0  0  0  0  0  0  0  0  0  0  0
   59.0190   32.9760   49.2740 C   0  0  0  0  0  0  0  0  0  0  0  0
   58.1540   32.5970   48.2350 C   0  0  0  0  0  0  0  0  0  0  0  0
   57.4127   31.8020   48.4036 H   0  0  0  0  0  0  0  0  0  0  0  0
   58.2290   33.2240   46.9870 C   0  0  0  0  0  0  0  0  0  0  0  0
   57.5549   32.9137   46.1750 H   0  0  0  0  0  0  0  0  0  0  0  0
   59.1600   34.2450   46.7700 C   0  0  0  0  0  0  0  0  0  0  0  0
   59.2330   34.8660   45.5300 O   0  0  0  0  0  0  0  0  0  0  0  0
   60.0130   34.6420   47.8040 C   0  0  0  0  0  0  0  0  0  0  0  0
   60.7424   35.4478   47.6348 H   0  0  0  0  0  0  0  0  0  0  0  0
   59.9410   34.0170   49.0530 C   0  0  0  0  0  0  0  0  0  0  0  0
   60.6075   34.3400   49.8663 H   0  0  0  0  0  0  0  0  0  0  0  0
   55.9970   31.1940   51.6220 S   0  0  0  0  0  0  0  0  0  0  0  0
   55.0480   30.1400   52.5270 C   0  0  0  0  0  0  0  0  0  0  0  0
   53.7980   29.4760   52.0470 C   0  0  0  0  0  0  0  0  0  0  0  0
   53.9895   28.9996   51.0742 H   0  0  0  0  0  0  0  0  0  0  0  0
   53.4886   28.7171   52.7807 H   0  0  0  0  0  0  0  0  0  0  0  0
   52.7000   30.4910   51.8960 C   0  0  0  0  0  0  0  0  0  0  0  0
   52.0690   31.0280   53.0280 C   0  0  0  0  0  0  0  0  0  0  0  0
   52.3543   30.6883   54.0346 H   0  0  0  0  0  0  0  0  0  0  0  0
   51.0760   31.9970   52.8680 C   0  0  0  0  0  0  0  0  0  0  0  0
   50.5692   32.4152   53.7502 H   0  0  0  0  0  0  0  0  0  0  0  0
   50.7350   32.4240   51.6230 N   0  0  0  0  0  0  0  0  0  0  0  0
   51.3370   31.9320   50.5080 C   0  0  0  0  0  0  0  0  0  0  0  0
   50.9970   32.3560   49.3730 O   0  0  0  0  0  0  0  0  0  0  0  0
   52.3360   30.9590   50.6250 C   0  0  0  0  0  0  0  0  0  0  0  0
   52.8323   30.5640   49.7263 H   0  0  0  0  0  0  0  0  0  0  0  0
  1  2  1  0
  2  3  1  0
  3  4  1  0
  4  5  2  0
  5  6  1  0
  6  7  2  0
  6  8  1  0
  8  9  1  0
  8 10  1  0
 10 11  2  0
 11 12  1  0
 11 13  1  0
 13 14  1  0
 13 15  2  0
 15 16  1  0
 15 17  1  0
 17 18  1  0
 17 19  2  0
 19 20  1  0
  4 21  1  0
 21 22  1  0
 22 23  1  0
 23 24  1  0
 23 25  1  0
 23 26  1  0
 26 27  1  0
 27 28  1  0
 27 29  2  0
 29 30  1  0
 29 31  1  0
 31 32  1  0
 32 33  2  0
 32 34  1  0
 34 35  1  0
 22  2  2  0
 34 26  2  0
 19 10  1  0
M  CHG  3   3  -1  16  -1  31  -1
M  END
>  <UniqueID>  (58) 
57

>  <SMILES>  (58) 
O=C(/N=c1/[n-]cc(Cc2cc[n-]c(=O)c2)s1)Nc1ccc([O-])cc1

>  <Energy>  (58) 
75.1494313070041

>  <Genealogy>  (58) 
O=C(N=c1[n-]cc(Cc2cc[n-]c(=O)c2)s1)Nc1ccc([O-])cc1 (protonated)
O=C(/N=c1/[n-]cc(Cc2cc[n-]c(=O)c2)s1)Nc1ccc([O-])cc1 (cis-trans isomerization)
O=C(/N=c1/[n-]cc(Cc2cc[n-]c(=O)c2)s1)Nc1ccc([O-])cc1 (3D coordinates assigned)
O=C(/N=c1/[n-]cc(Cc2cc[n-]c(=O)c2)s1)Nc1ccc([O-])cc1 (optimized conformer: 75.1494313070041 kcal/mol)

>  <smiles>  (58) 
O=C(N=c1[nH]cc(Cc2cc[nH]c(=O)c2)s1)Nc1ccc(O)cc1

>  <score_type>  (58) 
oracle

>  <origin>  (58) 
adg

>  <m_score__min__energy>  (58) 
-12.26

>  <m_primary>  (58) 
energy

$$$$
58:0
     RDKit          3D

 47 50  0  0  0  0  0  0  0  0999 V2000
   58.8190   30.4540   47.3700 H   0  0  0  0  0  0  0  0  0  0  0  0
   58.1590   31.1760   47.1070 O   0  0  0  0  0  0  0  0  0  0  0  0
   58.1260   31.7050   45.8180 C   0  0  0  0  0  0  0  0  0  0  0  0
   57.6680   30.9180   44.7500 C   0  0  0  0  0  0  0  0  0  0  0  0
   57.3467   29.8819   44.9325 H   0  0  0  0  0  0  0  0  0  0  0  0
   57.6180   31.4430   43.4570 C   0  0  0  0  0  0  0  0  0  0  0  0
   57.2596   30.8202   42.6241 H   0  0  0  0  0  0  0  0  0  0  0  0
   58.0230   32.7590   43.2210 C   0  0  0  0  0  0  0  0  0  0  0  0
   57.9806   33.1724   42.2025 H   0  0  0  0  0  0  0  0  0  0  0  0
   58.4820   33.5510   44.2770 C   0  0  0  0  0  0  0  0  0  0  0  0
   58.7913   34.5894   44.0870 H   0  0  0  0  0  0  0  0  0  0  0  0
   58.5510   33.0290   45.5810 C   0  0  0  0  0  0  0  0  0  0  0  0
   59.0210   33.9120   46.7090 C   0  0  0  0  0  0  0  0  0  0  0  0
   59.3545   33.2815   47.5464 H   0  0  0  0  0  0  0  0  0  0  0  0
   58.1873   34.5562   47.0252 H   0  0  0  0  0  0  0  0  0  0  0  0
   60.1630   34.7830   46.2610 C   0  0  0  0  0  0  0  0  0  0  0  0
   59.9200   35.9270   45.7920 O   0  0  0  0  0  0  0  0  0  0  0  0
   61.5230   34.3290   46.3000 N   0  0  0  0  0  0  0  0  0  0  0  0
   62.1300   33.5560   47.3450 C   0  0  0  0  0  0  0  0  0  0  0  0
   63.3090   33.9780   47.9810 C   0  0  0  0  0  0  0  0  0  0  0  0
   63.7790   34.9290   47.6898 H   0  0  0  0  0  0  0  0  0  0  0  0
   63.8870   33.1930   48.9830 C   0  0  0  0  0  0  0  0  0  0  0  0
   64.7987   33.5372   49.4932 H   0  0  0  0  0  0  0  0  0  0  0  0
   63.3080   31.9720   49.3370 C   0  0  0  0  0  0  0  0  0  0  0  0
   63.7506   31.3684   50.1431 H   0  0  0  0  0  0  0  0  0  0  0  0
   62.1630   31.5130   48.6670 C   0  0  0  0  0  0  0  0  0  0  0  0
   61.5160   30.2460   49.0600 C   0  0  0  0  0  0  0  0  0  0  0  0
   61.8567   29.7812   49.9970 H   0  0  0  0  0  0  0  0  0  0  0  0
   60.5450   29.6050   48.3760 C   0  0  0  0  0  0  0  0  0  0  0  0
   60.7420   29.4070   47.0450 N   0  0  0  0  0  0  0  0  0  0  0  0
   59.8390   28.7780   46.2490 C   0  0  0  0  0  0  0  0  0  0  0  0
   60.0740   28.7040   45.0150 O   0  0  0  0  0  0  0  0  0  0  0  0
   58.6450   28.2740   46.8200 C   0  0  0  0  0  0  0  0  0  0  0  0
   57.6750   27.6260   46.1430 C   0  0  0  0  0  0  0  0  0  0  0  0
   57.2107   28.1706   45.3077 H   0  0  0  0  0  0  0  0  0  0  0  0
   57.1700   26.2630   46.4040 C   0  0  0  0  0  0  0  0  0  0  0  0
   57.9050   25.2440   46.8840 N   0  0  0  0  0  0  0  0  0  0  0  0
   56.9930   24.2680   47.0890 C   0  0  0  0  0  0  0  0  0  0  0  0
   57.3050   23.1320   47.5290 O   0  0  0  0  0  0  0  0  0  0  0  0
   55.7210   24.6130   46.7970 N   0  0  0  0  0  0  0  0  0  0  0  0
   55.8500   25.8820   46.3790 C   0  0  0  0  0  0  0  0  0  0  0  0
   54.7810   26.6800   45.9890 O   0  0  0  0  0  0  0  0  0  0  0  0
   58.4460   28.4820   48.1500 N   0  0  0  0  0  0  0  0  0  0  0  0
   59.3470   29.1130   48.9450 C   0  0  0  0  0  0  0  0  0  0  0  0
   59.1010   29.2100   50.1770 O   0  0  0  0  0  0  0  0  0  0  0  0
   61.5700   32.3170   47.6830 C   0  0  0  0  0  0  0  0  0  0  0  0
   60.6585   31.9724   47.1727 H   0  0  0  0  0  0  0  0  0  0  0  0
  1  2  1  0
  2  3  1  0
  3  4  2  0
  4  5  1  0
  4  6  1  0
  6  7  1  0
  6  8  2  0
  8  9  1  0
  8 10  1  0
 10 11  1  0
 10 12  2  0
 12 13  1  0
 13 14  1  0
 13 15  1  0
 13 16  1  0
 16 17  2  0
 16 18  1  0
 18 19  1  0
 19 20  2  0
 20 21  1  0
 20 22  1  0
 22 23  1  0
 22 24  2  0
 24 25  1  0
 24 26  1  0
 26 27  1  0
 27 28  1  0
 27 29  2  0
 29 30  1  0
 30 31  1  0
 31 32  2  0
 31 33  1  0
 33 34  2  3
 34 35  1  0
 34 36  1  0
 36 37  1  0
 37 38  1  0
 38 39  2  0
 38 40  1  0
 40 41  1  0
 41 42  1  0
 33 43  1  0
 43 44  1  0
 44 45  2  0
 26 46  2  0
 46 47  1  0
 12  3  1  0
 46 19  1  0
 44 29  1  0
 41 36  2  0
M  CHG  6  18  -1  30  -1  37  -1  40  -1  42  -1  43  -1
M  END
>  <UniqueID>  (59) 
58

>  <SMILES>  (59) 
O=C(Cc1ccccc1O)[N-]c1cccc(/C=c2/[n-]c(=O)c(=Cc3[n-]c(=O)[n-]c3[O-])[n-]c2=O)c1

>  <Energy>  (59) 
110.47778830504988

>  <Genealogy>  (59) 
O=C(Cc1ccccc1O)[N-]c1cccc(C=c2[n-]c(=O)c(=Cc3[n-]c(=O)[n-]c3[O-])[n-]c2=O)c1 (protonated)
O=C(Cc1ccccc1O)[N-]c1cccc(/C=c2/[n-]c(=O)c(=Cc3[n-]c(=O)[n-]c3[O-])[n-]c2=O)c1 (cis-trans isomerization)
O=C(Cc1ccccc1O)[N-]c1cccc(/C=c2/[n-]c(=O)c(=Cc3[n-]c(=O)[n-]c3[O-])[n-]c2=O)c1 (3D coordinates assigned)
O=C(Cc1ccccc1O)[N-]c1cccc(/C=c2/[n-]c(=O)c(=Cc3[n-]c(=O)[n-]c3[O-])[n-]c2=O)c1 (optimized conformer: 110.47778830504988 kcal/mol)

>  <smiles>  (59) 
O=C(Cc1ccccc1O)Nc1cccc(C=c2[nH]c(=O)c(=Cc3[nH]c(=O)[nH]c3O)[nH]c2=O)c1

>  <score_type>  (59) 
oracle

>  <origin>  (59) 
adg

>  <m_score__min__energy>  (59) 
-21.350000000000001

>  <m_primary>  (59) 
energy

$$$$
59:0
     RDKit          3D

 46 49  0  0  0  0  0  0  0  0999 V2000
   60.4000   33.9440   46.6360 C   0  0  0  0  0  0  0  0  0  0  0  0
   60.2920   32.6010   46.7290 C   0  0  0  0  0  0  0  0  0  0  0  0
   59.4440   31.9050   45.8340 C   0  0  0  0  0  0  0  0  0  0  0  0
   58.7680   32.5430   44.9790 O   0  0  0  0  0  0  0  0  0  0  0  0
   59.3420   30.4970   45.9380 C   0  0  0  0  0  0  0  0  0  0  0  0
   58.5840   29.7240   45.1330 C   0  0  0  0  0  0  0  0  0  0  0  0
   58.0790   28.3720   45.4500 C   0  0  0  0  0  0  0  0  0  0  0  0
   58.9920   27.3460   45.7440 C   0  0  0  0  0  0  0  0  0  0  0  0
   58.5350   26.0740   46.0970 C   0  0  0  0  0  0  0  0  0  0  0  0
   57.1650   25.8210   46.1770 C   0  0  0  0  0  0  0  0  0  0  0  0
   56.2460   26.8400   45.9090 C   0  0  0  0  0  0  0  0  0  0  0  0
   54.8840   26.5770   46.0000 O   0  0  0  0  0  0  0  0  0  0  0  0
   56.6930   28.1190   45.5500 C   0  0  0  0  0  0  0  0  0  0  0  0
   55.7460   29.1130   45.2900 O   0  0  0  0  0  0  0  0  0  0  0  0
   60.0320   29.8730   46.9240 N   0  0  0  0  0  0  0  0  0  0  0  0
   60.8370   30.5360   47.7860 C   0  0  0  0  0  0  0  0  0  0  0  0
   61.4510   29.8800   48.6710 O   0  0  0  0  0  0  0  0  0  0  0  0
   60.9850   31.8940   47.6920 N   0  0  0  0  0  0  0  0  0  0  0  0
   61.8750   32.5470   48.6220 C   0  0  0  0  0  0  0  0  0  0  0  0
   61.4140   32.9240   49.8890 C   0  0  0  0  0  0  0  0  0  0  0  0
   62.2770   33.5560   50.7900 C   0  0  0  0  0  0  0  0  0  0  0  0
   63.6140   33.8060   50.4380 C   0  0  0  0  0  0  0  0  0  0  0  0
   64.5100   34.4880   51.3970 C   0  0  0  0  0  0  0  0  0  0  0  0
   64.1660   35.6040   51.8690 O   0  0  0  0  0  0  0  0  0  0  0  0
   65.7490   33.9130   51.8310 N   0  0  0  0  0  0  0  0  0  0  0  0
   66.9540   33.8400   51.0140 C   0  0  0  0  0  0  0  0  0  0  0  0
   67.0290   32.5530   50.2120 C   0  0  0  0  0  0  0  0  0  0  0  0
   67.9160   32.7420   51.4310 C   0  0  0  0  0  0  0  0  0  0  0  0
   64.0650   33.4430   49.1570 C   0  0  0  0  0  0  0  0  0  0  0  0
   63.2020   32.8100   48.2580 C   0  0  0  0  0  0  0  0  0  0  0  0
   61.0567   34.4922   47.3276 H   0  0  0  0  0  0  0  0  0  0  0  0
   59.8313   34.4897   45.8687 H   0  0  0  0  0  0  0  0  0  0  0  0
   58.3172   30.1386   44.1497 H   0  0  0  0  0  0  0  0  0  0  0  0
   60.0728   27.5451   45.6960 H   0  0  0  0  0  0  0  0  0  0  0  0
   59.2556   25.2712   46.3121 H   0  0  0  0  0  0  0  0  0  0  0  0
   56.8073   24.8176   46.4515 H   0  0  0  0  0  0  0  0  0  0  0  0
   54.7510   28.9670   45.4080 H   0  0  0  0  0  0  0  0  0  0  0  0
   60.3714   32.7228   50.1763 H   0  0  0  0  0  0  0  0  0  0  0  0
   61.9067   33.8592   51.7804 H   0  0  0  0  0  0  0  0  0  0  0  0
   67.0554   34.9137   50.7973 H   0  0  0  0  0  0  0  0  0  0  0  0
   66.1957   31.8356   50.2439 H   0  0  0  0  0  0  0  0  0  0  0  0
   67.2025   32.3042   49.1546 H   0  0  0  0  0  0  0  0  0  0  0  0
   67.7250   32.1614   52.3456 H   0  0  0  0  0  0  0  0  0  0  0  0
   68.9979   32.6867   51.6220 H   0  0  0  0  0  0  0  0  0  0  0  0
   65.1022   33.6582   48.8606 H   0  0  0  0  0  0  0  0  0  0  0  0
   63.5658   32.5175   47.2619 H   0  0  0  0  0  0  0  0  0  0  0  0
  1  2  2  0
  2  3  1  0
  3  4  2  0
  3  5  1  0
  5  6  2  3
  6  7  1  0
  7  8  2  0
  8  9  1  0
  9 10  2  0
 10 11  1  0
 11 12  1  0
 11 13  2  0
 13 14  1  0
  5 15  1  0
 15 16  1  0
 16 17  2  0
 16 18  1  0
 18 19  1  0
 19 20  2  0
 20 21  1  0
 21 22  2  0
 22 23  1  0
 23 24  2  0
 23 25  1  0
 25 26  1  0
 26 27  1  0
 27 28  1  0
 22 29  1  0
 29 30  2  0
 18  2  1  0
 30 19  1  0
 13  7  1  0
 28 26  1  0
  1 31  1  0
  1 32  1  0
  6 33  1  0
  8 34  1  0
  9 35  1  0
 10 36  1  0
 14 37  1  0
 20 38  1  0
 21 39  1  0
 26 40  1  0
 27 41  1  0
 27 42  1  0
 28 43  1  0
 28 44  1  0
 29 45  1  0
 30 46  1  0
M  CHG  3  12  -1  15  -1  25  -1
M  END
>  <UniqueID>  (60) 
59

>  <SMILES>  (60) 
C=c1c(=O)c(=Cc2cccc([O-])c2O)[n-]c(=O)n1-c1ccc(C(=O)[N-]C2CC2)cc1

>  <Energy>  (60) 
347.3821742638184

>  <Genealogy>  (60) 
C=c1c(=O)c(=Cc2cccc([O-])c2O)[n-]c(=O)n1-c1ccc(C(=O)[N-]C2CC2)cc1 (protonated)
C=c1c(=O)c(=Cc2cccc([O-])c2O)[n-]c(=O)n1-c1ccc(C(=O)[N-]C2CC2)cc1 (3D coordinates assigned)
C=c1c(=O)c(=Cc2cccc([O-])c2O)[n-]c(=O)n1-c1ccc(C(=O)[N-]C2CC2)cc1 (nonaromatic ring conformer: 347.3821742638184 kcal/mol)

>  <smiles>  (60) 
C=c1c(=O)c(=Cc2cccc(O)c2O)[nH]c(=O)n1-c1ccc(C(=O)NC2CC2)cc1

>  <score_type>  (60) 
oracle

>  <origin>  (60) 
adg

>  <m_score__min__energy>  (60) 
-13.85

>  <m_primary>  (60) 
energy

$$$$
60:0
     RDKit          3D

 65 69  0  0  0  0  0  0  0  0999 V2000
   56.5770   20.1450   45.4860 C   0  0  0  0  0  0  0  0  0  0  0  0
   56.8750   21.5530   45.3090 N   0  0  0  0  0  0  0  0  0  0  0  0
   58.2930   21.7140   45.2590 C   0  0  0  0  0  0  0  0  0  0  0  0
   58.7180   23.1590   45.1220 C   0  0  0  0  0  0  0  0  0  0  0  0
   57.7670   23.9190   44.3100 N   0  0  0  0  0  0  0  0  0  0  0  0
   57.6260   25.3300   44.4240 C   0  0  0  0  0  0  0  0  0  0  0  0
   57.1910   25.9050   45.6100 C   0  0  0  0  0  0  0  0  0  0  0  0
   57.0550   27.2920   45.7400 C   0  0  0  0  0  0  0  0  0  0  0  0
   57.3490   28.1390   44.6890 C   0  0  0  0  0  0  0  0  0  0  0  0
   57.1740   29.5890   44.8940 C   0  0  0  0  0  0  0  0  0  0  0  0
   56.0010   30.0060   44.8540 O   0  0  0  0  0  0  0  0  0  0  0  0
   58.2330   30.4760   45.1190 N   0  0  0  0  0  0  0  0  0  0  0  0
   58.1650   31.8640   45.3190 C   0  0  0  0  0  0  0  0  0  0  0  0
   57.0300   32.6320   45.2340 C   0  0  0  0  0  0  0  0  0  0  0  0
   57.0370   34.0130   45.4500 C   0  0  0  0  0  0  0  0  0  0  0  0
   58.2170   34.6450   45.7590 C   0  0  0  0  0  0  0  0  0  0  0  0
   59.3710   33.9120   45.8520 C   0  0  0  0  0  0  0  0  0  0  0  0
   60.6740   34.5310   46.1890 C   0  0  0  0  0  0  0  0  0  0  0  0
   61.4950   33.7580   47.1330 C   0  0  0  0  0  0  0  0  0  0  0  0
   62.7290   33.3950   46.7250 N   0  0  0  0  0  0  0  0  0  0  0  0
   63.5990   32.7050   47.4090 N   0  0  0  0  0  0  0  0  0  0  0  0
   63.2820   32.2930   48.6440 C   0  0  0  0  0  0  0  0  0  0  0  0
   64.0930   31.6150   49.3620 O   0  0  0  0  0  0  0  0  0  0  0  0
   62.0370   32.6320   49.1190 C   0  0  0  0  0  0  0  0  0  0  0  0
   61.1140   33.3650   48.3870 C   0  0  0  0  0  0  0  0  0  0  0  0
   59.7880   33.7080   48.9240 C   0  0  0  0  0  0  0  0  0  0  0  0
   59.7130   33.7340   50.4240 C   0  0  0  0  0  0  0  0  0  0  0  0
   60.9960   33.4680   51.1320 C   0  0  0  0  0  0  0  0  0  0  0  0
   61.6050   32.2210   50.4860 C   0  0  0  0  0  0  0  0  0  0  0  0
   59.3390   32.5580   45.6360 C   0  0  0  0  0  0  0  0  0  0  0  0
   57.7760   27.5830   43.5240 C   0  0  0  0  0  0  0  0  0  0  0  0
   57.9120   26.1950   43.3980 C   0  0  0  0  0  0  0  0  0  0  0  0
   56.9710   23.1140   43.3900 C   0  0  0  0  0  0  0  0  0  0  0  0
   56.1650   22.1480   44.2290 C   0  0  0  0  0  0  0  0  0  0  0  0
   56.5279   19.9128   46.5601 H   0  0  0  0  0  0  0  0  0  0  0  0
   55.6099   19.9130   45.0161 H   0  0  0  0  0  0  0  0  0  0  0  0
   57.3672   19.5411   45.0161 H   0  0  0  0  0  0  0  0  0  0  0  0
   58.7250   21.3076   46.1854 H   0  0  0  0  0  0  0  0  0  0  0  0
   58.6543   21.1784   44.3687 H   0  0  0  0  0  0  0  0  0  0  0  0
   58.7763   23.6116   46.1229 H   0  0  0  0  0  0  0  0  0  0  0  0
   59.6986   23.1864   44.6243 H   0  0  0  0  0  0  0  0  0  0  0  0
   56.9481   25.2574   46.4653 H   0  0  0  0  0  0  0  0  0  0  0  0
   56.7084   27.7145   46.6946 H   0  0  0  0  0  0  0  0  0  0  0  0
   59.2050   30.0390   45.1410 H   0  0  0  0  0  0  0  0  0  0  0  0
   56.0774   32.1410   44.9861 H   0  0  0  0  0  0  0  0  0  0  0  0
   56.1037   34.5900   45.3731 H   0  0  0  0  0  0  0  0  0  0  0  0
   58.2353   35.7314   45.9305 H   0  0  0  0  0  0  0  0  0  0  0  0
   61.2463   34.6536   45.2577 H   0  0  0  0  0  0  0  0  0  0  0  0
   60.4456   35.4859   46.6851 H   0  0  0  0  0  0  0  0  0  0  0  0
   64.5410   32.4710   47.0040 H   0  0  0  0  0  0  0  0  0  0  0  0
   59.5122   34.7045   48.5486 H   0  0  0  0  0  0  0  0  0  0  0  0
   59.1000   32.9176   48.5892 H   0  0  0  0  0  0  0  0  0  0  0  0
   59.3570   34.7292   50.7289 H   0  0  0  0  0  0  0  0  0  0  0  0
   59.0346   32.9160   50.7080 H   0  0  0  0  0  0  0  0  0  0  0  0
   61.6765   34.3247   51.0180 H   0  0  0  0  0  0  0  0  0  0  0  0
   60.8293   33.3145   52.2084 H   0  0  0  0  0  0  0  0  0  0  0  0
   62.4689   31.8716   51.0704 H   0  0  0  0  0  0  0  0  0  0  0  0
   60.8804   31.3943   50.4467 H   0  0  0  0  0  0  0  0  0  0  0  0
   60.2785   31.9914   45.7154 H   0  0  0  0  0  0  0  0  0  0  0  0
   58.0178   28.2319   42.6693 H   0  0  0  0  0  0  0  0  0  0  0  0
   58.2614   25.7824   42.4400 H   0  0  0  0  0  0  0  0  0  0  0  0
   56.2981   23.7607   42.8078 H   0  0  0  0  0  0  0  0  0  0  0  0
   57.6170   22.5738   42.6823 H   0  0  0  0  0  0  0  0  0  0  0  0
   55.3047   22.6928   44.6450 H   0  0  0  0  0  0  0  0  0  0  0  0
   55.8775   21.3244   43.5590 H   0  0  0  0  0  0  0  0  0  0  0  0
  1  2  1  0
  2  3  1  0
  3  4  1  0
  4  5  1  0
  5  6  1  0
  6  7  2  0
  7  8  1  0
  8  9  2  0
  9 10  1  0
 10 11  2  0
 10 12  1  0
 12 13  1  0
 13 14  2  0
 14 15  1  0
 15 16  2  0
 16 17  1  0
 17 18  1  0
 18 19  1  0
 19 20  2  0
 20 21  1  0
 21 22  1  0
 22 23  2  0
 22 24  1  0
 24 25  2  0
 25 26  1  0
 26 27  1  0
 27 28  1  0
 28 29  1  0
 17 30  2  0
  9 31  1  0
 31 32  2  0
  5 33  1  0
 33 34  1  0
 34  2  1  0
 32  6  1  0
 30 13  1  0
 25 19  1  0
 29 24  1  0
  1 35  1  0
  1 36  1  0
  1 37  1  0
  3 38  1  0
  3 39  1  0
  4 40  1  0
  4 41  1  0
  7 42  1  0
  8 43  1  0
 12 44  1  0
 14 45  1  0
 15 46  1  0
 16 47  1  0
 18 48  1  0
 18 49  1  0
 21 50  1  0
 26 51  1  0
 26 52  1  0
 27 53  1  0
 27 54  1  0
 28 55  1  0
 28 56  1  0
 29 57  1  0
 29 58  1  0
 30 59  1  0
 31 60  1  0
 32 61  1  0
 33 62  1  0
 33 63  1  0
 34 64  1  0
 34 65  1  0
M  END
>  <smiles>  (61) 
CN1CCN(c2ccc(C(=O)Nc3cccc(Cc4n[nH]c(=O)c5c4CCCC5)c3)cc2)CC1

>  <score_type>  (61) 
oracle

>  <origin>  (61) 
adg

>  <m_score__min__energy>  (61) 
-10.460000000000001

>  <m_primary>  (61) 
energy

$$$$
61:0
     RDKit          3D

 45 48  0  0  0  0  0  0  0  0999 V2000
   61.2500   29.6210   49.2570 N   0  0  0  0  0  0  0  0  0  0  0  0
   61.0100   30.1990   47.9730 C   0  0  0  0  0  0  0  0  0  0  0  0
   61.8760   30.9610   47.4660 O   0  0  0  0  0  0  0  0  0  0  0  0
   59.7710   29.9110   47.2320 C   0  0  0  0  0  0  0  0  0  0  0  0
   59.0730   28.7720   47.4770 N   0  0  0  0  0  0  0  0  0  0  0  0
   57.9370   28.4710   46.7960 C   0  0  0  0  0  0  0  0  0  0  0  0
   57.3310   27.4000   47.0660 O   0  0  0  0  0  0  0  0  0  0  0  0
   57.4580   29.3550   45.8060 C   0  0  0  0  0  0  0  0  0  0  0  0
   56.2890   29.1120   45.0500 C   0  0  0  0  0  0  0  0  0  0  0  0
   55.5240   27.9670   45.2460 O   0  0  0  0  0  0  0  0  0  0  0  0
   55.8830   30.0340   44.0790 C   0  0  0  0  0  0  0  0  0  0  0  0
   56.6260   31.1920   43.8470 C   0  0  0  0  0  0  0  0  0  0  0  0
   57.7850   31.4450   44.5850 C   0  0  0  0  0  0  0  0  0  0  0  0
   58.5500   32.6200   44.3120 N   0  0  0  0  0  0  0  0  0  0  0  0
   58.3770   34.0300   45.2990 S   0  0  0  0  0  0  0  0  0  0  0  0
   56.9360   34.1790   45.6970 O   0  0  0  0  0  0  0  0  0  0  0  0
   58.7870   35.2470   44.5170 O   0  0  0  0  0  0  0  0  0  0  0  0
   59.3750   33.8720   46.7400 C   0  0  0  0  0  0  0  0  0  0  0  0
   58.8060   33.4270   47.9410 C   0  0  0  0  0  0  0  0  0  0  0  0
   59.5820   33.3510   49.1010 C   0  0  0  0  0  0  0  0  0  0  0  0
   60.9350   33.7340   49.0760 C   0  0  0  0  0  0  0  0  0  0  0  0
   61.7510   33.6590   50.2150 O   0  0  0  0  0  0  0  0  0  0  0  0
   62.9530   32.9430   50.3050 C   0  0  0  0  0  0  0  0  0  0  0  0
   64.0890   33.4580   49.6670 C   0  0  0  0  0  0  0  0  0  0  0  0
   65.3090   32.7780   49.7400 C   0  0  0  0  0  0  0  0  0  0  0  0
   65.4040   31.5860   50.4640 C   0  0  0  0  0  0  0  0  0  0  0  0
   64.2820   31.0790   51.1240 C   0  0  0  0  0  0  0  0  0  0  0  0
   63.0600   31.7550   51.0540 C   0  0  0  0  0  0  0  0  0  0  0  0
   61.9990   31.2750   51.7470 F   0  0  0  0  0  0  0  0  0  0  0  0
   61.5020   34.1630   47.8710 C   0  0  0  0  0  0  0  0  0  0  0  0
   60.7270   34.2410   46.7110 C   0  0  0  0  0  0  0  0  0  0  0  0
   58.2010   30.5360   45.5700 C   0  0  0  0  0  0  0  0  0  0  0  0
   59.3280   30.7810   46.2880 N   0  0  0  0  0  0  0  0  0  0  0  0
   62.1360   29.8340   49.7680 H   0  0  0  0  0  0  0  0  0  0  0  0
   60.5610   28.9740   49.6990 H   0  0  0  0  0  0  0  0  0  0  0  0
   54.9710   29.8444   43.4940 H   0  0  0  0  0  0  0  0  0  0  0  0
   56.2978   31.9088   43.0798 H   0  0  0  0  0  0  0  0  0  0  0  0
   57.7454   33.1366   47.9708 H   0  0  0  0  0  0  0  0  0  0  0  0
   59.1324   32.9900   50.0378 H   0  0  0  0  0  0  0  0  0  0  0  0
   64.0211   34.4017   49.1059 H   0  0  0  0  0  0  0  0  0  0  0  0
   66.1946   33.1815   49.2272 H   0  0  0  0  0  0  0  0  0  0  0  0
   66.3618   31.0475   50.5140 H   0  0  0  0  0  0  0  0  0  0  0  0
   64.3601   30.1454   51.7004 H   0  0  0  0  0  0  0  0  0  0  0  0
   62.5658   34.4409   47.8366 H   0  0  0  0  0  0  0  0  0  0  0  0
   61.1792   34.5931   45.7721 H   0  0  0  0  0  0  0  0  0  0  0  0
  1  2  1  0
  2  3  2  0
  2  4  1  0
  4  5  2  0
  5  6  1  0
  6  7  2  0
  6  8  1  0
  8  9  2  0
  9 10  1  0
  9 11  1  0
 11 12  2  0
 12 13  1  0
 13 14  1  0
 14 15  1  0
 15 16  2  0
 15 17  2  0
 15 18  1  0
 18 19  2  0
 19 20  1  0
 20 21  2  0
 21 22  1  0
 22 23  1  0
 23 24  2  0
 24 25  1  0
 25 26  2  0
 26 27  1  0
 27 28  2  0
 28 29  1  0
 21 30  1  0
 30 31  2  0
 13 32  2  0
 32 33  1  0
 33  4  1  0
 32  8  1  0
 31 18  1  0
 28 23  1  0
  1 34  1  0
  1 35  1  0
 11 36  1  0
 12 37  1  0
 19 38  1  0
 20 39  1  0
 24 40  1  0
 25 41  1  0
 26 42  1  0
 27 43  1  0
 30 44  1  0
 31 45  1  0
M  CHG  3  10  -1  14  -1  33  -1
M  END
>  <UniqueID>  (62) 
60

>  <SMILES>  (62) 
NC(=O)c1nc(=O)c2c([O-])ccc([N-]S(=O)(=O)c3ccc(Oc4ccccc4F)cc3)c2[n-]1

>  <Energy>  (62) 
67.85978209274273

>  <Genealogy>  (62) 
NC(=O)c1nc(=O)c2c([O-])ccc([N-]S(=O)(=O)c3ccc(Oc4ccccc4F)cc3)c2[n-]1 (protonated)
NC(=O)c1nc(=O)c2c([O-])ccc([N-]S(=O)(=O)c3ccc(Oc4ccccc4F)cc3)c2[n-]1 (3D coordinates assigned)
NC(=O)c1nc(=O)c2c([O-])ccc([N-]S(=O)(=O)c3ccc(Oc4ccccc4F)cc3)c2[n-]1 (optimized conformer: 67.85978209274273 kcal/mol)

>  <smiles>  (62) 
NC(=O)c1nc(=O)c2c(O)ccc(NS(=O)(=O)c3ccc(Oc4ccccc4F)cc3)c2[nH]1

>  <score_type>  (62) 
oracle

>  <origin>  (62) 
adg

>  <m_score__min__energy>  (62) 
-14.029999999999999

>  <m_primary>  (62) 
energy

$$$$
62:0
     RDKit          3D

 49 51  0  0  0  0  0  0  0  0999 V2000
   56.2380   24.2750   44.4760 C   0  0  0  0  0  0  0  0  0  0  0  0
   55.3560   25.0050   45.8390 S   0  0  0  0  0  0  0  0  0  0  0  0
   53.9010   24.6520   45.7150 O   0  0  0  0  0  0  0  0  0  0  0  0
   55.8730   24.4720   47.1440 O   0  0  0  0  0  0  0  0  0  0  0  0
   55.5140   26.7310   45.7970 N   0  0  0  0  0  0  0  0  0  0  0  0
   56.7330   27.4660   45.9710 C   0  0  0  0  0  0  0  0  0  0  0  0
   57.7570   27.0310   46.8320 C   0  0  0  0  0  0  0  0  0  0  0  0
   58.9290   27.7820   46.9670 C   0  0  0  0  0  0  0  0  0  0  0  0
   59.0900   28.9710   46.2490 C   0  0  0  0  0  0  0  0  0  0  0  0
   60.5900   29.9370   46.4320 S   0  0  0  0  0  0  0  0  0  0  0  0
   60.3670   30.2770   48.2140 C   0  0  0  0  0  0  0  0  0  0  0  0
   59.2130   31.2110   48.3960 C   0  0  0  0  0  0  0  0  0  0  0  0
   58.6160   31.2520   49.5060 O   0  0  0  0  0  0  0  0  0  0  0  0
   58.8110   32.0650   47.3170 N   0  0  0  0  0  0  0  0  0  0  0  0
   57.7770   33.0960   47.4410 C   0  0  0  0  0  0  0  0  0  0  0  0
   57.3250   33.6400   46.0660 C   0  0  1  0  0  0  0  0  0  0  0  0
   58.3990   34.4890   45.3790 C   0  0  0  0  0  0  0  0  0  0  0  0
   58.8800   33.6670   44.1850 C   0  0  0  0  0  0  0  0  0  0  0  0
   58.2570   32.3470   44.2940 N   0  0  0  0  0  0  0  0  0  0  0  0
   58.2290   31.6300   42.9930 C   0  0  0  0  0  0  0  0  0  0  0  0
   57.4200   32.2600   41.8660 C   0  0  0  0  0  0  0  0  0  0  0  0
   56.9120   30.9960   42.5550 C   0  0  0  0  0  0  0  0  0  0  0  0
   57.0200   32.5330   45.0610 C   0  0  0  0  0  0  0  0  0  0  0  0
   58.0730   29.4110   45.3960 C   0  0  0  0  0  0  0  0  0  0  0  0
   56.9010   28.6610   45.2580 C   0  0  0  0  0  0  0  0  0  0  0  0
   57.0314   23.6183   44.8623 H   0  0  0  0  0  0  0  0  0  0  0  0
   55.5411   23.6859   43.8617 H   0  0  0  0  0  0  0  0  0  0  0  0
   56.6865   25.0697   43.8617 H   0  0  0  0  0  0  0  0  0  0  0  0
   57.6355   26.0973   47.4008 H   0  0  0  0  0  0  0  0  0  0  0  0
   59.7270   27.4361   47.6404 H   0  0  0  0  0  0  0  0  0  0  0  0
   60.1656   29.3354   48.7458 H   0  0  0  0  0  0  0  0  0  0  0  0
   61.2809   30.7353   48.6199 H   0  0  0  0  0  0  0  0  0  0  0  0
   59.3050   31.9720   46.4010 H   0  0  0  0  0  0  0  0  0  0  0  0
   56.9056   32.6635   47.9545 H   0  0  0  0  0  0  0  0  0  0  0  0
   58.2034   33.9342   48.0116 H   0  0  0  0  0  0  0  0  0  0  0  0
   56.4297   34.2300   46.3118 H   0  0  0  0  0  0  0  0  0  0  0  0
   57.9725   35.4443   45.0392 H   0  0  0  0  0  0  0  0  0  0  0  0
   59.2253   34.7281   46.0646 H   0  0  0  0  0  0  0  0  0  0  0  0
   58.5756   34.1518   43.2457 H   0  0  0  0  0  0  0  0  0  0  0  0
   59.9769   33.5839   44.1825 H   0  0  0  0  0  0  0  0  0  0  0  0
   59.2619   31.2691   43.1065 H   0  0  0  0  0  0  0  0  0  0  0  0
   56.9058   33.2189   42.0277 H   0  0  0  0  0  0  0  0  0  0  0  0
   57.6294   32.5476   40.8251 H   0  0  0  0  0  0  0  0  0  0  0  0
   56.0323   31.0439   43.2136 H   0  0  0  0  0  0  0  0  0  0  0  0
   56.6040   29.9955   42.2172 H   0  0  0  0  0  0  0  0  0  0  0  0
   56.1970   32.8338   44.3960 H   0  0  0  0  0  0  0  0  0  0  0  0
   56.7061   31.6043   45.5601 H   0  0  0  0  0  0  0  0  0  0  0  0
   58.1951   30.3481   44.8330 H   0  0  0  0  0  0  0  0  0  0  0  0
   56.1048   29.0115   44.5848 H   0  0  0  0  0  0  0  0  0  0  0  0
  1  2  1  0
  2  3  2  0
  2  4  2  0
  2  5  1  0
  5  6  1  0
  6  7  2  0
  7  8  1  0
  8  9  2  0
  9 10  1  0
 10 11  1  0
 11 12  1  0
 12 13  2  0
 12 14  1  0
 14 15  1  0
 15 16  1  0
 16 17  1  0
 17 18  1  0
 18 19  1  0
 19 20  1  0
 20 21  1  0
 21 22  1  0
 19 23  1  0
  9 24  1  0
 24 25  2  0
 25  6  1  0
 23 16  1  0
 22 20  1  0
  1 26  1  0
  1 27  1  0
  1 28  1  0
  7 29  1  0
  8 30  1  0
 11 31  1  0
 11 32  1  0
 14 33  1  0
 15 34  1  0
 15 35  1  0
 16 36  1  1
 17 37  1  0
 17 38  1  0
 18 39  1  0
 18 40  1  0
 20 41  1  0
 21 42  1  0
 21 43  1  0
 22 44  1  0
 22 45  1  0
 23 46  1  0
 23 47  1  0
 24 48  1  0
 25 49  1  0
M  CHG  1   5  -1
M  END
>  <UniqueID>  (63) 
61

>  <SMILES>  (63) 
CS(=O)(=O)[N-]c1ccc(SCC(=O)NC[C@H]2CCN(C3CC3)C2)cc1

>  <Energy>  (63) 
316.83151140419795

>  <Genealogy>  (63) 
CS(=O)(=O)[N-]c1ccc(SCC(=O)NCC2CCN(C3CC3)C2)cc1 (protonated)
CS(=O)(=O)[N-]c1ccc(SCC(=O)NC[C@H]2CCN(C3CC3)C2)cc1 (chirality)
CS(=O)(=O)[N-]c1ccc(SCC(=O)NC[C@H]2CCN(C3CC3)C2)cc1 (3D coordinates assigned)
CS(=O)(=O)[N-]c1ccc(SCC(=O)NC[C@H]2CCN(C3CC3)C2)cc1 (nonaromatic ring conformer: 316.83151140419795 kcal/mol)

>  <smiles>  (63) 
CS(=O)(=O)Nc1ccc(SCC(=O)NCC2CCN(C3CC3)C2)cc1

>  <score_type>  (63) 
oracle

>  <origin>  (63) 
adg

>  <m_score__min__energy>  (63) 
-10.01

>  <m_primary>  (63) 
energy

$$$$
63:0
     RDKit          3D

 51 53  0  0  0  0  0  0  0  0999 V2000
   59.6600   35.3060   46.2220 C   0  0  0  0  0  0  0  0  0  0  0  0
   58.9100   34.0850   45.7770 C   0  0  0  0  0  0  0  0  0  0  0  0
   58.4610   33.1460   46.7190 C   0  0  0  0  0  0  0  0  0  0  0  0
   57.7940   31.9920   46.2980 C   0  0  0  0  0  0  0  0  0  0  0  0
   57.5800   31.7560   44.9340 C   0  0  0  0  0  0  0  0  0  0  0  0
   56.7330   30.2980   44.4190 S   0  0  0  0  0  0  0  0  0  0  0  0
   57.0920   30.0120   42.9880 O   0  0  0  0  0  0  0  0  0  0  0  0
   55.2460   30.5060   44.5000 O   0  0  0  0  0  0  0  0  0  0  0  0
   57.1970   28.9370   45.4010 N   0  0  0  0  0  0  0  0  0  0  0  0
   58.5970   29.0240   45.8230 C   0  0  0  0  0  0  0  0  0  0  0  0
   58.8750   28.0650   46.9860 C   0  0  0  0  0  0  0  0  0  0  0  0
   59.9760   28.5870   47.8720 C   0  0  0  0  0  0  0  0  0  0  0  0
   60.6950   27.7640   48.4980 O   0  0  0  0  0  0  0  0  0  0  0  0
   60.3090   29.9800   47.9350 N   0  0  0  0  0  0  0  0  0  0  0  0
   59.8470   30.9310   48.9050 C   0  0  0  0  0  0  0  0  0  0  0  0
   58.6790   30.6910   49.6500 C   0  0  0  0  0  0  0  0  0  0  0  0
   58.2340   31.6260   50.5870 C   0  0  0  0  0  0  0  0  0  0  0  0
   58.9550   32.8010   50.8000 C   0  0  0  0  0  0  0  0  0  0  0  0
   60.1320   33.0370   50.0880 C   0  0  0  0  0  0  0  0  0  0  0  0
   60.5960   32.1020   49.1500 C   0  0  0  0  0  0  0  0  0  0  0  0
   61.8190   32.3650   48.4410 N   0  0  0  0  0  0  0  0  0  0  0  0
   63.1190   32.0670   49.0460 C   0  0  0  0  0  0  0  0  0  0  0  0
   64.1380   33.1190   48.5990 C   0  0  0  0  0  0  0  0  0  0  0  0
   64.1550   33.2320   47.1870 O   0  0  0  0  0  0  0  0  0  0  0  0
   62.9090   33.7270   46.7290 C   0  0  0  0  0  0  0  0  0  0  0  0
   61.7840   32.7310   47.0250 C   0  0  0  0  0  0  0  0  0  0  0  0
   58.0400   32.6860   43.9900 C   0  0  0  0  0  0  0  0  0  0  0  0
   58.7070   33.8410   44.4100 C   0  0  0  0  0  0  0  0  0  0  0  0
   59.6823   35.3423   47.3212 H   0  0  0  0  0  0  0  0  0  0  0  0
   60.6891   35.2653   45.8355 H   0  0  0  0  0  0  0  0  0  0  0  0
   59.1585   36.2055   45.8355 H   0  0  0  0  0  0  0  0  0  0  0  0
   58.6345   33.3188   47.7914 H   0  0  0  0  0  0  0  0  0  0  0  0
   57.4353   31.2653   47.0418 H   0  0  0  0  0  0  0  0  0  0  0  0
   59.2464   28.7606   44.9751 H   0  0  0  0  0  0  0  0  0  0  0  0
   58.8016   30.0520   46.1568 H   0  0  0  0  0  0  0  0  0  0  0  0
   57.9583   27.9499   47.5830 H   0  0  0  0  0  0  0  0  0  0  0  0
   59.1918   27.0969   46.5708 H   0  0  0  0  0  0  0  0  0  0  0  0
   58.1123   29.7612   49.4939 H   0  0  0  0  0  0  0  0  0  0  0  0
   57.3133   31.4356   51.1581 H   0  0  0  0  0  0  0  0  0  0  0  0
   58.5958   33.5419   51.5294 H   0  0  0  0  0  0  0  0  0  0  0  0
   60.7000   33.9625   50.2634 H   0  0  0  0  0  0  0  0  0  0  0  0
   63.0274   32.0865   50.1420 H   0  0  0  0  0  0  0  0  0  0  0  0
   63.4545   31.0695   48.7260 H   0  0  0  0  0  0  0  0  0  0  0  0
   63.8679   34.0917   49.0358 H   0  0  0  0  0  0  0  0  0  0  0  0
   65.1371   32.8111   48.9410 H   0  0  0  0  0  0  0  0  0  0  0  0
   62.6907   34.6783   47.2364 H   0  0  0  0  0  0  0  0  0  0  0  0
   62.9686   33.8772   45.6409 H   0  0  0  0  0  0  0  0  0  0  0  0
   60.8138   33.1925   46.7891 H   0  0  0  0  0  0  0  0  0  0  0  0
   61.9198   31.8297   46.4091 H   0  0  0  0  0  0  0  0  0  0  0  0
   57.8757   32.5064   42.9173 H   0  0  0  0  0  0  0  0  0  0  0  0
   59.0745   34.5621   43.6650 H   0  0  0  0  0  0  0  0  0  0  0  0
  1  2  1  0
  2  3  2  0
  3  4  1  0
  4  5  2  0
  5  6  1  0
  6  7  2  0
  6  8  2  0
  6  9  1  0
  9 10  1  0
 10 11  1  0
 11 12  1  0
 12 13  2  0
 12 14  1  0
 14 15  1  0
 15 16  2  0
 16 17  1  0
 17 18  2  0
 18 19  1  0
 19 20  2  0
 20 21  1  0
 21 22  1  0
 22 23  1  0
 23 24  1  0
 24 25  1  0
 25 26  1  0
  5 27  1  0
 27 28  2  0
 28  2  1  0
 20 15  1  0
 26 21  1  0
  1 29  1  0
  1 30  1  0
  1 31  1  0
  3 32  1  0
  4 33  1  0
 10 34  1  0
 10 35  1  0
 11 36  1  0
 11 37  1  0
 16 38  1  0
 17 39  1  0
 18 40  1  0
 19 41  1  0
 22 42  1  0
 22 43  1  0
 23 44  1  0
 23 45  1  0
 25 46  1  0
 25 47  1  0
 26 48  1  0
 26 49  1  0
 27 50  1  0
 28 51  1  0
M  CHG  2   9  -1  14  -1
M  END
>  <UniqueID>  (64) 
62

>  <SMILES>  (64) 
Cc1ccc(S(=O)(=O)[N-]CCC(=O)[N-]c2ccccc2N2CCOCC2)cc1

>  <Energy>  (64) 
60.59338349687178

>  <Genealogy>  (64) 
Cc1ccc(S(=O)(=O)[N-]CCC(=O)[N-]c2ccccc2N2CCOCC2)cc1 (protonated)
Cc1ccc(S(=O)(=O)[N-]CCC(=O)[N-]c2ccccc2N2CCOCC2)cc1 (3D coordinates assigned)
Cc1ccc(S(=O)(=O)[N-]CCC(=O)[N-]c2ccccc2N2CCOCC2)cc1 (nonaromatic ring conformer: 60.59338349687178 kcal/mol)

>  <smiles>  (64) 
Cc1ccc(S(=O)(=O)NCCC(=O)Nc2ccccc2N2CCOCC2)cc1

>  <score_type>  (64) 
oracle

>  <origin>  (64) 
adg

>  <m_score__min__energy>  (64) 
-12

>  <m_primary>  (64) 
energy

$$$$
64:0
     RDKit          3D

 47 50  0  0  0  0  0  0  0  0999 V2000
   55.9710   23.1580   47.7740 C   0  0  0  0  0  0  0  0  0  0  0  0
   57.0950   23.3970   47.0960 C   0  0  0  0  0  0  0  0  0  0  0  0
   57.7380   22.4450   46.3950 N   0  0  0  0  0  0  0  0  0  0  0  0
   58.7980   23.0980   45.8770 C   0  0  0  0  0  0  0  0  0  0  0  0
   59.6480   22.5380   45.1380 O   0  0  0  0  0  0  0  0  0  0  0  0
   58.8700   24.4030   46.2060 N   0  0  0  0  0  0  0  0  0  0  0  0
   57.7870   24.5980   46.9840 C   0  0  0  0  0  0  0  0  0  0  0  0
   57.4420   25.7900   47.4980 C   0  0  0  0  0  0  0  0  0  0  0  0
   57.0860   26.9390   46.6470 C   0  0  0  0  0  0  0  0  0  0  0  0
   55.8940   27.1210   45.9590 C   0  0  0  0  0  0  0  0  0  0  0  0
   54.8210   26.2380   45.9930 O   0  0  0  0  0  0  0  0  0  0  0  0
   55.8910   28.2570   45.2220 N   0  0  0  0  0  0  0  0  0  0  0  0
   57.0980   28.8040   45.4640 C   0  0  0  0  0  0  0  0  0  0  0  0
   57.5880   29.9980   44.9350 C   0  0  0  0  0  0  0  0  0  0  0  0
   58.8710   30.4190   45.3300 C   0  0  0  0  0  0  0  0  0  0  0  0
   59.6210   29.6600   46.2570 C   0  0  0  0  0  0  0  0  0  0  0  0
   61.2290   30.2440   46.7940 S   0  0  0  0  0  0  0  0  0  0  0  0
   60.6260   30.8160   48.4200 C   0  0  0  0  0  0  0  0  0  0  0  0
   60.1690   32.2870   48.3670 C   0  0  0  0  0  0  0  0  0  0  0  0
   59.5060   32.6720   47.1010 N   0  0  0  0  0  0  0  0  0  0  0  0
   58.0740   33.0000   47.2480 C   0  0  0  0  0  0  0  0  0  0  0  0
   57.4780   33.3560   45.8840 C   0  0  0  0  0  0  0  0  0  0  0  0
   58.1610   34.5980   45.2810 C   0  0  0  0  0  0  0  0  0  0  0  0
   59.5350   34.8970   45.9080 C   0  0  0  0  0  0  0  0  0  0  0  0
   60.2950   33.6060   46.2540 C   0  0  0  0  0  0  0  0  0  0  0  0
   59.0990   28.4620   46.7790 C   0  0  0  0  0  0  0  0  0  0  0  0
   57.8440   28.0460   46.3330 C   0  0  0  0  0  0  0  0  0  0  0  0
   55.4822   23.9700   48.3323 H   0  0  0  0  0  0  0  0  0  0  0  0
   55.5331   22.1489   47.7747 H   0  0  0  0  0  0  0  0  0  0  0  0
   57.4246   25.9126   48.5910 H   0  0  0  0  0  0  0  0  0  0  0  0
   56.9890   30.5929   44.2298 H   0  0  0  0  0  0  0  0  0  0  0  0
   59.2936   31.3457   44.9144 H   0  0  0  0  0  0  0  0  0  0  0  0
   59.7763   30.1885   48.7271 H   0  0  0  0  0  0  0  0  0  0  0  0
   61.4521   30.7369   49.1420 H   0  0  0  0  0  0  0  0  0  0  0  0
   59.4623   32.4584   49.1923 H   0  0  0  0  0  0  0  0  0  0  0  0
   61.0769   32.9027   48.4478 H   0  0  0  0  0  0  0  0  0  0  0  0
   57.5417   32.1314   47.6631 H   0  0  0  0  0  0  0  0  0  0  0  0
   57.9674   33.8602   47.9253 H   0  0  0  0  0  0  0  0  0  0  0  0
   57.6142   32.5050   45.2005 H   0  0  0  0  0  0  0  0  0  0  0  0
   56.4095   33.5793   46.0199 H   0  0  0  0  0  0  0  0  0  0  0  0
   58.2972   34.4332   44.2020 H   0  0  0  0  0  0  0  0  0  0  0  0
   57.5117   35.4616   45.4875 H   0  0  0  0  0  0  0  0  0  0  0  0
   60.1330   35.4823   45.1939 H   0  0  0  0  0  0  0  0  0  0  0  0
   59.3720   35.4592   46.8393 H   0  0  0  0  0  0  0  0  0  0  0  0
   60.5567   33.0924   45.3172 H   0  0  0  0  0  0  0  0  0  0  0  0
   61.1870   33.8953   46.8291 H   0  0  0  0  0  0  0  0  0  0  0  0
   59.6630   27.8716   47.5161 H   0  0  0  0  0  0  0  0  0  0  0  0
  1  2  2  0
  2  3  1  0
  3  4  1  0
  4  5  2  0
  4  6  1  0
  6  7  1  0
  7  8  2  3
  8  9  1  0
  9 10  2  0
 10 11  1  0
 10 12  1  0
 12 13  1  0
 13 14  2  0
 14 15  1  0
 15 16  2  0
 16 17  1  0
 17 18  1  0
 18 19  1  0
 19 20  1  0
 20 21  1  0
 21 22  1  0
 22 23  1  0
 23 24  1  0
 24 25  1  0
 16 26  1  0
 26 27  2  0
  7  2  1  0
 27  9  1  0
 27 13  1  0
 25 20  1  0
  1 28  1  0
  1 29  1  0
  8 30  1  0
 14 31  1  0
 15 32  1  0
 18 33  1  0
 18 34  1  0
 19 35  1  0
 19 36  1  0
 21 37  1  0
 21 38  1  0
 22 39  1  0
 22 40  1  0
 23 41  1  0
 23 42  1  0
 24 43  1  0
 24 44  1  0
 25 45  1  0
 25 46  1  0
 26 47  1  0
M  CHG  4   3  -1   6  -1  11  -1  12  -1
M  END
>  <UniqueID>  (65) 
63

>  <SMILES>  (65) 
C=c1[n-]c(=O)[n-]c1=Cc1c([O-])[n-]c2ccc(SCCN3CCCCC3)cc12

>  <Energy>  (65) 
122.33876584097483

>  <Genealogy>  (65) 
C=c1[n-]c(=O)[n-]c1=Cc1c([O-])[n-]c2ccc(SCCN3CCCCC3)cc12 (protonated)
C=c1[n-]c(=O)[n-]c1=Cc1c([O-])[n-]c2ccc(SCCN3CCCCC3)cc12 (3D coordinates assigned)
C=c1[n-]c(=O)[n-]c1=Cc1c([O-])[n-]c2ccc(SCCN3CCCCC3)cc12 (nonaromatic ring conformer: 122.33876584097483 kcal/mol)

>  <smiles>  (65) 
C=c1[nH]c(=O)[nH]c1=Cc1c(O)[nH]c2ccc(SCCN3CCCCC3)cc12

>  <score_type>  (65) 
oracle

>  <origin>  (65) 
adg

>  <m_score__min__energy>  (65) 
-17

>  <m_primary>  (65) 
energy

$$$$
65:0
     RDKit          3D

 49 52  0  0  0  0  0  0  0  0999 V2000
   59.6890   29.2780   44.6950 C   0  0  0  0  0  0  0  0  0  0  0  0
   59.3620   28.8560   45.9260 C   0  0  0  0  0  0  0  0  0  0  0  0
   58.5080   27.7930   46.2650 C   0  0  0  0  0  0  0  0  0  0  0  0
   57.9760   26.8120   45.5110 C   0  0  0  0  0  0  0  0  0  0  0  0
   57.2020   25.6660   46.0160 C   0  0  0  0  0  0  0  0  0  0  0  0
   57.7390   24.5140   46.4580 N   0  0  0  0  0  0  0  0  0  0  0  0
   56.6740   23.8400   46.9430 C   0  0  0  0  0  0  0  0  0  0  0  0
   56.7700   22.6880   47.4410 O   0  0  0  0  0  0  0  0  0  0  0  0
   55.5000   24.5030   46.8650 N   0  0  0  0  0  0  0  0  0  0  0  0
   55.8570   25.6630   46.2890 C   0  0  0  0  0  0  0  0  0  0  0  0
   54.9700   26.6990   46.0240 O   0  0  0  0  0  0  0  0  0  0  0  0
   58.2910   27.8910   47.6310 C   0  0  0  0  0  0  0  0  0  0  0  0
   59.0440   28.9560   48.0810 C   0  0  0  0  0  0  0  0  0  0  0  0
   59.2050   29.3360   49.5220 C   0  0  0  0  0  0  0  0  0  0  0  0
   59.7080   29.5260   47.0530 N   0  0  0  0  0  0  0  0  0  0  0  0
   60.5610   30.6780   47.1450 C   0  0  0  0  0  0  0  0  0  0  0  0
   61.9220   30.5100   47.4200 C   0  0  0  0  0  0  0  0  0  0  0  0
   62.7600   31.6200   47.5360 C   0  0  0  0  0  0  0  0  0  0  0  0
   62.2470   32.9170   47.3750 C   0  0  0  0  0  0  0  0  0  0  0  0
   63.1390   34.0910   47.5020 C   0  0  0  0  0  0  0  0  0  0  0  0
   63.3770   34.5970   48.6320 O   0  0  0  0  0  0  0  0  0  0  0  0
   63.7280   34.6530   46.3750 O   0  0  0  0  0  0  0  0  0  0  0  0
   60.8800   33.0830   47.0890 C   0  0  0  0  0  0  0  0  0  0  0  0
   60.0290   31.9660   46.9730 C   0  0  0  0  0  0  0  0  0  0  0  0
   58.6600   32.0870   46.6780 O   0  0  0  0  0  0  0  0  0  0  0  0
   58.1000   32.9110   45.6560 C   0  0  0  0  0  0  0  0  0  0  0  0
   57.5990   32.0660   44.5150 C   0  0  0  0  0  0  0  0  0  0  0  0
   56.8950   30.8810   44.7800 C   0  0  0  0  0  0  0  0  0  0  0  0
   56.4130   30.0970   43.7280 C   0  0  0  0  0  0  0  0  0  0  0  0
   56.6380   30.4870   42.4040 C   0  0  0  0  0  0  0  0  0  0  0  0
   57.3470   31.6600   42.1330 C   0  0  0  0  0  0  0  0  0  0  0  0
   57.8290   32.4480   43.1830 C   0  0  0  0  0  0  0  0  0  0  0  0
   60.3744   30.1291   44.5694 H   0  0  0  0  0  0  0  0  0  0  0  0
   59.2717   28.7728   43.8115 H   0  0  0  0  0  0  0  0  0  0  0  0
   58.1334   26.8722   44.4240 H   0  0  0  0  0  0  0  0  0  0  0  0
   57.6426   27.2435   48.2395 H   0  0  0  0  0  0  0  0  0  0  0  0
   58.8554   28.5109   50.1600 H   0  0  0  0  0  0  0  0  0  0  0  0
   60.2658   29.5376   49.7317 H   0  0  0  0  0  0  0  0  0  0  0  0
   58.6119   30.2383   49.7317 H   0  0  0  0  0  0  0  0  0  0  0  0
   62.3340   29.4978   47.5455 H   0  0  0  0  0  0  0  0  0  0  0  0
   63.8286   31.4779   47.7548 H   0  0  0  0  0  0  0  0  0  0  0  0
   60.4710   34.0952   46.9545 H   0  0  0  0  0  0  0  0  0  0  0  0
   57.2623   33.4882   46.0744 H   0  0  0  0  0  0  0  0  0  0  0  0
   58.8783   33.5916   45.2805 H   0  0  0  0  0  0  0  0  0  0  0  0
   56.7218   30.5679   45.8202 H   0  0  0  0  0  0  0  0  0  0  0  0
   55.8563   29.1726   43.9417 H   0  0  0  0  0  0  0  0  0  0  0  0
   56.2570   29.8706   41.5764 H   0  0  0  0  0  0  0  0  0  0  0  0
   57.5265   31.9644   41.0913 H   0  0  0  0  0  0  0  0  0  0  0  0
   58.3895   33.3691   42.9653 H   0  0  0  0  0  0  0  0  0  0  0  0
  1  2  2  0
  2  3  1  0
  3  4  2  3
  4  5  1  0
  5  6  1  0
  6  7  1  0
  7  8  2  0
  7  9  1  0
  9 10  1  0
 10 11  1  0
  3 12  1  0
 12 13  2  0
 13 14  1  0
 13 15  1  0
 15 16  1  0
 16 17  2  0
 17 18  1  0
 18 19  2  0
 19 20  1  0
 20 21  2  0
 20 22  1  0
 19 23  1  0
 23 24  2  0
 24 25  1  0
 25 26  1  0
 26 27  1  0
 27 28  2  0
 28 29  1  0
 29 30  2  0
 30 31  1  0
 31 32  2  0
 15  2  1  0
 24 16  1  0
 32 27  1  0
 10  5  2  0
  1 33  1  0
  1 34  1  0
  4 35  1  0
 12 36  1  0
 14 37  1  0
 14 38  1  0
 14 39  1  0
 17 40  1  0
 18 41  1  0
 23 42  1  0
 26 43  1  0
 26 44  1  0
 28 45  1  0
 29 46  1  0
 30 47  1  0
 31 48  1  0
 32 49  1  0
M  CHG  4   6  -1   9  -1  11  -1  22  -1
M  END
>  <UniqueID>  (66) 
64

>  <SMILES>  (66) 
C=c1c(=Cc2[n-]c(=O)[n-]c2[O-])cc(C)n1-c1ccc(C(=O)[O-])cc1OCc1ccccc1

>  <Energy>  (66) 
127.82875755229605

>  <Genealogy>  (66) 
C=c1c(=Cc2[n-]c(=O)[n-]c2[O-])cc(C)n1-c1ccc(C(=O)[O-])cc1OCc1ccccc1 (protonated)
C=c1c(=Cc2[n-]c(=O)[n-]c2[O-])cc(C)n1-c1ccc(C(=O)[O-])cc1OCc1ccccc1 (3D coordinates assigned)
C=c1c(=Cc2[n-]c(=O)[n-]c2[O-])cc(C)n1-c1ccc(C(=O)[O-])cc1OCc1ccccc1 (optimized conformer: 127.82875755229605 kcal/mol)

>  <smiles>  (66) 
C=c1c(=Cc2[nH]c(=O)[nH]c2O)cc(C)n1-c1ccc(C(=O)O)cc1OCc1ccccc1

>  <score_type>  (66) 
oracle

>  <origin>  (66) 
adg

>  <m_score__min__energy>  (66) 
-17.010000000000002

>  <m_primary>  (66) 
energy

$$$$
66:0
     RDKit          3D

 27 28  0  0  0  0  0  0  0  0999 V2000
   59.2600   34.8560   44.8120 C   0  0  0  0  0  0  0  0  0  0  0  0
   58.3420   33.7300   44.9260 N   0  0  0  0  0  0  0  0  0  0  0  0
   57.9150   32.6960   43.7000 S   0  0  0  0  0  0  0  0  0  0  0  0
   56.9820   31.6820   44.6450 C   0  0  0  0  0  0  0  0  0  0  0  0
   56.3160   30.4250   44.1920 C   0  0  0  0  0  0  0  0  0  0  0  0
   56.9270   29.2420   44.8870 C   0  0  0  0  0  0  0  0  0  0  0  0
   58.2790   29.2670   45.2590 C   0  0  0  0  0  0  0  0  0  0  0  0
   58.8230   28.1790   45.9360 C   0  0  0  0  0  0  0  0  0  0  0  0
   58.0220   27.0820   46.2480 C   0  0  0  0  0  0  0  0  0  0  0  0
   56.6670   27.0840   45.8790 C   0  0  0  0  0  0  0  0  0  0  0  0
   55.7980   25.9300   46.2110 C   0  0  0  0  0  0  0  0  0  0  0  0
   54.3940   25.9800   45.9580 N   0  0  0  0  0  0  0  0  0  0  0  0
   56.2930   24.8910   46.7210 O   0  0  0  0  0  0  0  0  0  0  0  0
   56.1550   28.1650   45.2140 N   0  0  0  0  0  0  0  0  0  0  0  0
   57.0220   32.1060   45.9310 N   0  0  0  0  0  0  0  0  0  0  0  0
   57.7780   33.2370   46.0610 C   0  0  0  0  0  0  0  0  0  0  0  0
   57.9490   33.7850   47.1830 O   0  0  0  0  0  0  0  0  0  0  0  0
   59.5422   35.2022   45.8172 H   0  0  0  0  0  0  0  0  0  0  0  0
   60.1615   34.5404   44.2664 H   0  0  0  0  0  0  0  0  0  0  0  0
   58.7692   35.6754   44.2664 H   0  0  0  0  0  0  0  0  0  0  0  0
   55.2434   30.4742   44.4311 H   0  0  0  0  0  0  0  0  0  0  0  0
   56.4509   30.3156   43.1058 H   0  0  0  0  0  0  0  0  0  0  0  0
   58.9044   30.1392   45.0178 H   0  0  0  0  0  0  0  0  0  0  0  0
   59.8845   28.1851   46.2245 H   0  0  0  0  0  0  0  0  0  0  0  0
   58.4488   26.2192   46.7804 H   0  0  0  0  0  0  0  0  0  0  0  0
   53.7980   26.7240   46.3840 H   0  0  0  0  0  0  0  0  0  0  0  0
   55.1450   28.1750   44.9460 H   0  0  0  0  0  0  0  0  0  0  0  0
  1  2  1  0
  2  3  1  0
  3  4  1  0
  4  5  1  0
  5  6  1  0
  6  7  2  0
  7  8  1  0
  8  9  2  0
  9 10  1  0
 10 11  1  0
 11 12  1  0
 11 13  2  0
 10 14  2  0
  4 15  2  0
 15 16  1  0
 16 17  2  0
 16  2  1  0
 14  6  1  0
  1 18  1  0
  1 19  1  0
  1 20  1  0
  5 21  1  0
  5 22  1  0
  7 23  1  0
  8 24  1  0
  9 25  1  0
 12 26  1  0
 14 27  1  0
M  CHG  2  12  -1  14   1
M  END
>  <UniqueID>  (67) 
65

>  <SMILES>  (67) 
Cn1sc(Cc2cccc(C([NH-])=O)[nH+]2)nc1=O

>  <Energy>  (67) 
62.98688939952627

>  <Genealogy>  (67) 
Cn1sc(Cc2cccc(C([NH-])=O)[nH+]2)nc1=O (protonated)
Cn1sc(Cc2cccc(C([NH-])=O)[nH+]2)nc1=O (3D coordinates assigned)
Cn1sc(Cc2cccc(C([NH-])=O)[nH+]2)nc1=O (optimized conformer: 62.98688939952627 kcal/mol)

>  <smiles>  (67) 
Cn1sc(Cc2cccc(C(N)=O)n2)nc1=O

>  <score_type>  (67) 
oracle

>  <origin>  (67) 
adg

>  <m_score__min__energy>  (67) 
-8.4900000000000002

>  <m_primary>  (67) 
energy

$$$$
67:0
     RDKit          3D

 63 67  0  0  0  0  0  0  0  0999 V2000
   58.7880   34.5060   45.2770 C   0  0  0  0  0  0  0  0  0  0  0  0
   58.4640   33.1660   45.6300 O   0  0  0  0  0  0  0  0  0  0  0  0
   57.8980   32.2600   44.7290 C   0  0  0  0  0  0  0  0  0  0  0  0
   58.0000   32.5020   43.3560 C   0  0  0  0  0  0  0  0  0  0  0  0
   57.4020   31.6180   42.4580 C   0  0  0  0  0  0  0  0  0  0  0  0
   56.7220   30.4950   42.9350 C   0  0  0  0  0  0  0  0  0  0  0  0
   56.6730   30.2550   44.3170 C   0  0  0  0  0  0  0  0  0  0  0  0
   55.9700   29.0370   44.8630 C   0  0  0  0  0  0  0  0  0  0  0  0
   56.8660   27.8750   45.0520 N   0  0  0  0  0  0  0  0  0  0  0  0
   57.2300   27.5850   46.4630 C   0  0  0  0  0  0  0  0  0  0  0  0
   58.7400   27.4460   46.6720 C   0  0  0  0  0  0  0  0  0  0  0  0
   59.4180   28.4920   45.9050 N   0  0  0  0  0  0  0  0  0  0  0  0
   60.1370   29.5820   46.5210 C   0  0  0  0  0  0  0  0  0  0  0  0
   60.8550   29.4260   47.7120 C   0  0  0  0  0  0  0  0  0  0  0  0
   61.4590   30.5000   48.2750 N   0  0  0  0  0  0  0  0  0  0  0  0
   61.3770   31.7280   47.6990 C   0  0  0  0  0  0  0  0  0  0  0  0
   62.0370   32.8530   48.3100 N   0  0  0  0  0  0  0  0  0  0  0  0
   61.3100   33.7500   49.2070 C   0  0  0  0  0  0  0  0  0  0  0  0
   61.7770   33.5010   50.6400 C   0  0  0  0  0  0  0  0  0  0  0  0
   63.2890   33.4610   50.7460 C   0  0  0  0  0  0  0  0  0  0  0  0
   64.0930   33.1910   49.6080 C   0  0  0  0  0  0  0  0  0  0  0  0
   65.4870   33.1300   49.7440 C   0  0  0  0  0  0  0  0  0  0  0  0
   66.0840   33.2950   50.9910 C   0  0  0  0  0  0  0  0  0  0  0  0
   65.2980   33.5220   52.1210 C   0  0  0  0  0  0  0  0  0  0  0  0
   63.8960   33.5980   52.0130 C   0  0  0  0  0  0  0  0  0  0  0  0
   63.0810   33.8050   53.1380 O   0  0  0  0  0  0  0  0  0  0  0  0
   63.5660   34.0020   54.4630 C   0  0  0  0  0  0  0  0  0  0  0  0
   63.4920   33.0160   48.2310 C   0  0  0  0  0  0  0  0  0  0  0  0
   60.6700   31.8740   46.5440 N   0  0  0  0  0  0  0  0  0  0  0  0
   60.0660   30.8280   45.9800 N   0  0  0  0  0  0  0  0  0  0  0  0
   59.2420   28.4730   44.4490 C   0  0  0  0  0  0  0  0  0  0  0  0
   57.9460   27.7380   44.0470 C   0  0  0  0  0  0  0  0  0  0  0  0
   57.2470   31.1470   45.1720 N   0  0  0  0  0  0  0  0  0  0  0  0
   58.9319   35.1013   46.1907 H   0  0  0  0  0  0  0  0  0  0  0  0
   59.7142   34.5152   44.6837 H   0  0  0  0  0  0  0  0  0  0  0  0
   57.9683   34.9373   44.6837 H   0  0  0  0  0  0  0  0  0  0  0  0
   58.5472   33.3820   42.9870 H   0  0  0  0  0  0  0  0  0  0  0  0
   57.4658   31.8049   41.3759 H   0  0  0  0  0  0  0  0  0  0  0  0
   56.2294   29.8051   42.2340 H   0  0  0  0  0  0  0  0  0  0  0  0
   55.5270   29.2972   45.8357 H   0  0  0  0  0  0  0  0  0  0  0  0
   55.2098   28.7432   44.1242 H   0  0  0  0  0  0  0  0  0  0  0  0
   56.8621   28.4058   47.0962 H   0  0  0  0  0  0  0  0  0  0  0  0
   56.7696   26.6228   46.7317 H   0  0  0  0  0  0  0  0  0  0  0  0
   58.9776   27.5573   47.7402 H   0  0  0  0  0  0  0  0  0  0  0  0
   59.0757   26.4550   46.3326 H   0  0  0  0  0  0  0  0  0  0  0  0
   60.9285   28.4372   48.1882 H   0  0  0  0  0  0  0  0  0  0  0  0
   61.5128   34.7947   48.9287 H   0  0  0  0  0  0  0  0  0  0  0  0
   60.2293   33.5604   49.1287 H   0  0  0  0  0  0  0  0  0  0  0  0
   61.3972   34.3089   51.2827 H   0  0  0  0  0  0  0  0  0  0  0  0
   61.3881   32.5227   50.9588 H   0  0  0  0  0  0  0  0  0  0  0  0
   66.1142   32.9503   48.8584 H   0  0  0  0  0  0  0  0  0  0  0  0
   67.1788   33.2462   51.0855 H   0  0  0  0  0  0  0  0  0  0  0  0
   65.7770   33.6425   53.1038 H   0  0  0  0  0  0  0  0  0  0  0  0
   62.7972   33.6897   55.1851 H   0  0  0  0  0  0  0  0  0  0  0  0
   64.4756   33.4021   54.6135 H   0  0  0  0  0  0  0  0  0  0  0  0
   63.7997   35.0663   54.6135 H   0  0  0  0  0  0  0  0  0  0  0  0
   63.7222   33.9030   47.6226 H   0  0  0  0  0  0  0  0  0  0  0  0
   63.9217   32.1128   47.7731 H   0  0  0  0  0  0  0  0  0  0  0  0
   60.5650   32.8140   46.1000 H   0  0  0  0  0  0  0  0  0  0  0  0
   59.1949   29.5085   44.0808 H   0  0  0  0  0  0  0  0  0  0  0  0
   60.0946   27.9386   44.0046 H   0  0  0  0  0  0  0  0  0  0  0  0
   57.5904   28.1519   43.0919 H   0  0  0  0  0  0  0  0  0  0  0  0
   58.1866   26.6676   43.9671 H   0  0  0  0  0  0  0  0  0  0  0  0
  1  2  1  0
  2  3  1  0
  3  4  2  0
  4  5  1  0
  5  6  2  0
  6  7  1  0
  7  8  1  0
  8  9  1  0
  9 10  1  0
 10 11  1  0
 11 12  1  0
 12 13  1  0
 13 14  2  0
 14 15  1  0
 15 16  2  0
 16 17  1  0
 17 18  1  0
 18 19  1  0
 19 20  1  0
 20 21  2  0
 21 22  1  0
 22 23  2  0
 23 24  1  0
 24 25  2  0
 25 26  1  0
 26 27  1  0
 21 28  1  0
 16 29  1  0
 29 30  2  0
 12 31  1  0
 31 32  1  0
  7 33  2  0
 33  3  1  0
 32  9  1  0
 30 13  1  0
 28 17  1  0
 25 20  1  0
  1 34  1  0
  1 35  1  0
  1 36  1  0
  4 37  1  0
  5 38  1  0
  6 39  1  0
  8 40  1  0
  8 41  1  0
 10 42  1  0
 10 43  1  0
 11 44  1  0
 11 45  1  0
 14 46  1  0
 18 47  1  0
 18 48  1  0
 19 49  1  0
 19 50  1  0
 22 51  1  0
 23 52  1  0
 24 53  1  0
 27 54  1  0
 27 55  1  0
 27 56  1  0
 28 57  1  0
 28 58  1  0
 29 59  1  0
 31 60  1  0
 31 61  1  0
 32 62  1  0
 32 63  1  0
M  CHG  1  29   1
M  END
>  <UniqueID>  (68) 
66

>  <SMILES>  (68) 
COc1cccc(CN2CCN(c3cnc(N4CCc5c(cccc5OC)C4)[nH+]n3)CC2)n1

>  <Energy>  (68) 
83.06935503463014

>  <Genealogy>  (68) 
COc1cccc(CN2CCN(c3cnc(N4CCc5c(cccc5OC)C4)[nH+]n3)CC2)n1 (protonated)
COc1cccc(CN2CCN(c3cnc(N4CCc5c(cccc5OC)C4)[nH+]n3)CC2)n1 (3D coordinates assigned)
COc1cccc(CN2CCN(c3cnc(N4CCc5c(cccc5OC)C4)[nH+]n3)CC2)n1 (nonaromatic ring conformer: 83.06935503463014 kcal/mol)

>  <smiles>  (68) 
COc1cccc(CN2CCN(c3cnc(N4CCc5c(cccc5OC)C4)nn3)CC2)n1

>  <score_type>  (68) 
oracle

>  <origin>  (68) 
adg

>  <m_score__min__energy>  (68) 
-7.25

>  <m_primary>  (68) 
energy

$$$$
68:0
     RDKit          3D

 59 63  0  0  0  0  0  0  0  0999 V2000
   54.6130   26.5530   45.1780 H   0  0  0  0  0  0  0  0  0  0  0  0
   55.5130   26.3280   45.6570 N   0  0  0  0  0  0  0  0  0  0  0  0
   56.4080   27.2220   45.9410 C   0  0  0  0  0  0  0  0  0  0  0  0
   57.5020   26.8570   46.6600 N   0  0  0  0  0  0  0  0  0  0  0  0
   58.4820   27.7410   46.9880 C   0  0  0  0  0  0  0  0  0  0  0  0
   59.3529   27.4019   47.5680 H   0  0  0  0  0  0  0  0  0  0  0  0
   58.3880   29.0850   46.5900 C   0  0  0  0  0  0  0  0  0  0  0  0
   59.4550   30.0600   46.9330 C   0  0  0  0  0  0  0  0  0  0  0  0
   59.3530   31.4040   46.5300 C   0  0  0  0  0  0  0  0  0  0  0  0
   58.4731   31.7381   45.9606 H   0  0  0  0  0  0  0  0  0  0  0  0
   60.3620   32.3180   46.8480 C   0  0  0  0  0  0  0  0  0  0  0  0
   60.2655   33.3689   46.5377 H   0  0  0  0  0  0  0  0  0  0  0  0
   61.4960   31.9030   47.5600 C   0  0  0  0  0  0  0  0  0  0  0  0
   62.5570   32.9060   47.9420 C   0  0  0  0  0  0  0  0  0  0  0  0
   62.7460   33.2750   49.4030 C   0  0  0  0  0  0  0  0  0  0  0  0
   61.7280   33.1030   50.2900 N   0  0  0  0  0  0  0  0  0  0  0  0
   61.8470   33.4290   51.6060 C   0  0  0  0  0  0  0  0  0  0  0  0
   60.7280   33.2220   52.4990 N   0  0  0  0  0  0  0  0  0  0  0  0
   60.8290   32.2690   53.6160 C   0  0  0  0  0  0  0  0  0  0  0  0
   61.2522   31.3242   53.2441 H   0  0  0  0  0  0  0  0  0  0  0  0
   61.4770   32.7071   54.3894 H   0  0  0  0  0  0  0  0  0  0  0  0
   59.4580   31.9920   54.2340 C   0  0  0  0  0  0  0  0  0  0  0  0
   59.4861   31.0415   54.7869 H   0  0  0  0  0  0  0  0  0  0  0  0
   59.1890   32.8010   54.9291 H   0  0  0  0  0  0  0  0  0  0  0  0
   58.4610   31.9070   53.1500 N   0  0  0  0  0  0  0  0  0  0  0  0
   57.1930   31.3020   53.6160 C   0  0  0  0  0  0  0  0  0  0  0  0
   57.4141   30.5410   54.3789 H   0  0  0  0  0  0  0  0  0  0  0  0
   56.5573   32.0925   54.0414 H   0  0  0  0  0  0  0  0  0  0  0  0
   56.4500   30.6440   52.4480 C   0  0  0  0  0  0  0  0  0  0  0  0
   55.8032   29.8449   52.8393 H   0  0  0  0  0  0  0  0  0  0  0  0
   55.8520   31.4141   51.9387 H   0  0  0  0  0  0  0  0  0  0  0  0
   57.3450   30.0940   51.5210 O   0  0  0  0  0  0  0  0  0  0  0  0
   58.2490   30.1550   51.9280 H   0  0  0  0  0  0  0  0  0  0  0  0
   58.2300   33.2460   52.5570 C   0  0  0  0  0  0  0  0  0  0  0  0
   57.7735   33.1155   51.5647 H   0  0  0  0  0  0  0  0  0  0  0  0
   57.5722   33.7997   53.2431 H   0  0  0  0  0  0  0  0  0  0  0  0
   59.5280   34.0700   52.3970 C   0  0  0  0  0  0  0  0  0  0  0  0
   59.5202   34.5596   51.4120 H   0  0  0  0  0  0  0  0  0  0  0  0
   59.5639   34.8136   53.2068 H   0  0  0  0  0  0  0  0  0  0  0  0
   63.0290   33.9440   52.0580 N   0  0  0  0  0  0  0  0  0  0  0  0
   63.1540   34.2140   53.0580 H   0  0  0  0  0  0  0  0  0  0  0  0
   64.0710   34.1460   51.2100 C   0  0  0  0  0  0  0  0  0  0  0  0
   65.0128   34.5681   51.5905 H   0  0  0  0  0  0  0  0  0  0  0  0
   63.9520   33.8210   49.8610 C   0  0  0  0  0  0  0  0  0  0  0  0
   64.7894   33.9899   49.1681 H   0  0  0  0  0  0  0  0  0  0  0  0
   63.8240   32.9040   47.0860 C   0  0  0  0  0  0  0  0  0  0  0  0
   64.7979   33.1286   47.5455 H   0  0  0  0  0  0  0  0  0  0  0  0
   64.3069   32.1781   46.4153 H   0  0  0  0  0  0  0  0  0  0  0  0
   62.7930   34.0110   46.9090 C   0  0  0  0  0  0  0  0  0  0  0  0
   63.0225   35.0342   47.2412 H   0  0  0  0  0  0  0  0  0  0  0  0
   62.2239   34.4144   46.0585 H   0  0  0  0  0  0  0  0  0  0  0  0
   61.5920   30.5700   47.9840 C   0  0  0  0  0  0  0  0  0  0  0  0
   62.4640   30.2437   48.5699 H   0  0  0  0  0  0  0  0  0  0  0  0
   60.5850   29.6530   47.6660 C   0  0  0  0  0  0  0  0  0  0  0  0
   60.6770   28.6062   47.9912 H   0  0  0  0  0  0  0  0  0  0  0  0
   57.2620   29.4820   45.8480 C   0  0  0  0  0  0  0  0  0  0  0  0
   57.1619   30.5284   45.5239 H   0  0  0  0  0  0  0  0  0  0  0  0
   56.2700   28.5560   45.5200 C   0  0  0  0  0  0  0  0  0  0  0  0
   55.1660   28.9670   44.7780 O   0  0  0  0  0  0  0  0  0  0  0  0
  1  2  1  0
  2  3  2  0
  3  4  1  0
  4  5  1  0
  5  6  1  0
  5  7  2  0
  7  8  1  0
  8  9  2  0
  9 10  1  0
  9 11  1  0
 11 12  1  0
 11 13  2  0
 13 14  1  0
 14 15  1  0
 15 16  2  0
 16 17  1  0
 17 18  1  0
 18 19  1  0
 19 20  1  0
 19 21  1  0
 19 22  1  0
 22 23  1  0
 22 24  1  0
 22 25  1  0
 25 26  1  0
 26 27  1  0
 26 28  1  0
 26 29  1  0
 29 30  1  0
 29 31  1  0
 29 32  1  0
 32 33  1  0
 25 34  1  0
 34 35  1  0
 34 36  1  0
 34 37  1  0
 37 38  1  0
 37 39  1  0
 17 40  2  0
 40 41  1  0
 40 42  1  0
 42 43  1  0
 42 44  2  0
 44 45  1  0
 14 46  1  0
 46 47  1  0
 46 48  1  0
 46 49  1  0
 49 50  1  0
 49 51  1  0
 13 52  1  0
 52 53  1  0
 52 54  2  0
 54 55  1  0
  7 56  1  0
 56 57  1  0
 56 58  2  0
 58 59  1  0
 58  3  1  0
 54  8  1  0
 49 14  1  0
 44 15  1  0
 37 18  1  0
M  CHG  3   4  -1  40   1  59  -1
M  END
>  <UniqueID>  (69) 
67

>  <SMILES>  (69) 
[H]/N=c1/[n-]cc(-c2ccc(C3(c4cc[nH+]c(N5CCN(CCO)CC5)n4)CC3)cc2)cc1[O-]

>  <Energy>  (69) 
346.2213982334232

>  <Genealogy>  (69) 
N=c1[n-]cc(-c2ccc(C3(c4cc[nH+]c(N5CCN(CCO)CC5)n4)CC3)cc2)cc1[O-] (protonated)
[H]/N=c1/[n-]cc(-c2ccc(C3(c4cc[nH+]c(N5CCN(CCO)CC5)n4)CC3)cc2)cc1[O-] (cis-trans isomerization)
[H]/N=c1/[n-]cc(-c2ccc(C3(c4cc[nH+]c(N5CCN(CCO)CC5)n4)CC3)cc2)cc1[O-] (3D coordinates assigned)
[H]/N=c1/[n-]cc(-c2ccc(C3(c4cc[nH+]c(N5CCN(CCO)CC5)n4)CC3)cc2)cc1[O-] (nonaromatic ring conformer: 346.2213982334232 kcal/mol)

>  <smiles>  (69) 
N=c1[nH]cc(-c2ccc(C3(c4ccnc(N5CCN(CCO)CC5)n4)CC3)cc2)cc1O

>  <score_type>  (69) 
oracle

>  <origin>  (69) 
adg

>  <m_score__min__energy>  (69) 
-11.48

>  <m_primary>  (69) 
energy

$$$$
69:0
     RDKit          3D

 66 68  0  0  0  0  0  0  0  0999 V2000
   58.2604   31.2989   49.8858 H   0  0  0  0  0  0  0  0  0  0  0  0
   59.0720   31.8730   49.4150 C   0  0  0  0  0  0  0  0  0  0  0  0
   59.6450   31.3760   48.3110 C   0  0  0  0  0  0  0  0  0  0  0  0
   60.7411   31.3925   48.2199 H   0  0  0  0  0  0  0  0  0  0  0  0
   58.8330   30.8030   47.2070 C   0  0  0  0  0  0  0  0  0  0  0  0
   58.2460   31.6610   46.2550 C   0  0  0  0  0  0  0  0  0  0  0  0
   58.3790   33.1620   46.3460 C   0  0  0  0  0  0  0  0  0  0  0  0
   58.4058   33.4643   47.4033 H   0  0  0  0  0  0  0  0  0  0  0  0
   59.3087   33.4784   45.8505 H   0  0  0  0  0  0  0  0  0  0  0  0
   57.5194   33.6370   45.8505 H   0  0  0  0  0  0  0  0  0  0  0  0
   57.4440   31.1260   45.2460 C   0  0  0  0  0  0  0  0  0  0  0  0
   56.9000   31.8071   44.5750 H   0  0  0  0  0  0  0  0  0  0  0  0
   57.3150   29.7430   45.0670 C   0  0  0  0  0  0  0  0  0  0  0  0
   56.4820   29.2900   43.8790 C   0  0  0  0  0  0  0  0  0  0  0  0
   56.8465   28.3099   43.5377 H   0  0  0  0  0  0  0  0  0  0  0  0
   55.4305   29.2233   44.1952 H   0  0  0  0  0  0  0  0  0  0  0  0
   56.5790   30.2880   42.7250 C   0  0  0  0  0  0  0  0  0  0  0  0
   56.6780   31.3065   43.1284 H   0  0  0  0  0  0  0  0  0  0  0  0
   57.4583   30.0509   42.1081 H   0  0  0  0  0  0  0  0  0  0  0  0
   55.6705   30.2247   42.1081 H   0  0  0  0  0  0  0  0  0  0  0  0
   58.0410   28.8500   45.9160 C   0  0  0  0  0  0  0  0  0  0  0  0
   58.1560   27.5360   45.5660 C   0  0  0  0  0  0  0  0  0  0  0  0
   58.7828   27.3003   44.6933 H   0  0  0  0  0  0  0  0  0  0  0  0
   57.5090   26.4020   46.2610 C   0  0  0  0  0  0  0  0  0  0  0  0
   56.1550   26.1930   46.3930 C   0  0  0  0  0  0  0  0  0  0  0  0
   55.1570   27.0620   45.9650 O   0  0  0  0  0  0  0  0  0  0  0  0
   55.9140   25.0240   47.0170 N   0  0  0  0  0  0  0  0  0  0  0  0
   57.1570   24.5400   47.2330 C   0  0  0  0  0  0  0  0  0  0  0  0
   57.3730   23.4370   47.7970 O   0  0  0  0  0  0  0  0  0  0  0  0
   58.1450   25.3390   46.7850 N   0  0  0  0  0  0  0  0  0  0  0  0
   59.1720   25.1420   46.7980 H   0  0  0  0  0  0  0  0  0  0  0  0
   58.6520   29.3940   47.0980 C   0  0  0  0  0  0  0  0  0  0  0  0
   58.9250   28.6130   48.1690 C   0  0  0  0  0  0  0  0  0  0  0  0
   58.7912   27.5231   48.1034 H   0  0  0  0  0  0  0  0  0  0  0  0
   59.2807   29.0681   49.1051 H   0  0  0  0  0  0  0  0  0  0  0  0
   59.4780   33.1630   50.0370 C   0  0  0  0  0  0  0  0  0  0  0  0
   60.1520   34.0920   49.3260 C   0  0  0  0  0  0  0  0  0  0  0  0
   59.7471   35.1147   49.3140 H   0  0  0  0  0  0  0  0  0  0  0  0
   61.3930   33.8400   48.5620 C   0  0  0  0  0  0  0  0  0  0  0  0
   61.3950   34.0320   47.1720 C   0  0  0  0  0  0  0  0  0  0  0  0
   60.4698   34.3351   46.6599 H   0  0  0  0  0  0  0  0  0  0  0  0
   62.5670   33.8400   46.4350 C   0  0  0  0  0  0  0  0  0  0  0  0
   62.5597   33.9808   45.3441 H   0  0  0  0  0  0  0  0  0  0  0  0
   63.7490   33.4690   47.0840 C   0  0  0  0  0  0  0  0  0  0  0  0
   64.6688   33.3094   46.5022 H   0  0  0  0  0  0  0  0  0  0  0  0
   63.7620   33.3010   48.4710 C   0  0  0  0  0  0  0  0  0  0  0  0
   64.6933   33.0137   48.9811 H   0  0  0  0  0  0  0  0  0  0  0  0
   62.5910   33.4980   49.2120 C   0  0  0  0  0  0  0  0  0  0  0  0
   62.6086   33.3848   50.3060 H   0  0  0  0  0  0  0  0  0  0  0  0
   58.9210   33.5700   51.3880 C   0  0  0  0  0  0  0  0  0  0  0  0
   59.7011   34.0950   51.9588 H   0  0  0  0  0  0  0  0  0  0  0  0
   58.0565   34.2324   51.2336 H   0  0  0  0  0  0  0  0  0  0  0  0
   58.4670   32.3320   52.1720 C   0  0  0  0  0  0  0  0  0  0  0  0
   59.0172   31.4538   51.8032 H   0  0  0  0  0  0  0  0  0  0  0  0
   58.6737   32.5040   53.2386 H   0  0  0  0  0  0  0  0  0  0  0  0
   56.9870   32.0870   52.0100 C   0  0  0  0  0  0  0  0  0  0  0  0
   56.3354   32.9407   51.7719 H   0  0  0  0  0  0  0  0  0  0  0  0
   56.4260   30.8620   52.1450 C   0  0  0  0  0  0  0  0  0  0  0  0
   57.2640   29.6260   52.3720 C   0  0  0  0  0  0  0  0  0  0  0  0
   57.3800   29.4550   53.4524 H   0  0  0  0  0  0  0  0  0  0  0  0
   56.7678   28.7574   51.9145 H   0  0  0  0  0  0  0  0  0  0  0  0
   58.2546   29.7655   51.9145 H   0  0  0  0  0  0  0  0  0  0  0  0
   54.9330   30.7030   52.0100 C   0  0  0  0  0  0  0  0  0  0  0  0
   54.4775   30.6545   53.0101 H   0  0  0  0  0  0  0  0  0  0  0  0
   54.5209   31.5623   51.4607 H   0  0  0  0  0  0  0  0  0  0  0  0
   54.7111   29.7761   51.4607 H   0  0  0  0  0  0  0  0  0  0  0  0
  1  2  1  0
  2  3  2  3
  3  4  1  0
  3  5  1  0
  5  6  2  0
  6  7  1  0
  7  8  1  0
  7  9  1  0
  7 10  1  0
  6 11  1  0
 11 12  1  0
 11 13  2  0
 13 14  1  0
 14 15  1  0
 14 16  1  0
 14 17  1  0
 17 18  1  0
 17 19  1  0
 17 20  1  0
 13 21  1  0
 21 22  2  0
 22 23  1  0
 22 24  1  0
 24 25  2  0
 25 26  1  0
 25 27  1  0
 27 28  1  0
 28 29  2  0
 28 30  1  0
 30 31  1  0
 21 32  1  0
 32 33  2  0
 33 34  1  0
 33 35  1  0
  2 36  1  0
 36 37  2  3
 37 38  1  0
 37 39  1  0
 39 40  2  0
 40 41  1  0
 40 42  1  0
 42 43  1  0
 42 44  2  0
 44 45  1  0
 44 46  1  0
 46 47  1  0
 46 48  2  0
 48 49  1  0
 36 50  1  0
 50 51  1  0
 50 52  1  0
 50 53  1  0
 53 54  1  0
 53 55  1  0
 53 56  1  0
 56 57  1  0
 56 58  2  3
 58 59  1  0
 59 60  1  0
 59 61  1  0
 59 62  1  0
 58 63  1  0
 63 64  1  0
 63 65  1  0
 63 66  1  0
 32  5  1  0
 48 39  1  0
 30 24  1  0
M  CHG  2  26  -1  27  -1
M  END
>  <UniqueID>  (70) 
68

>  <SMILES>  (70) 
C=c1c(C=CC(=Cc2ccccc2)CCC=C(C)C)c(C)cc(CC)/c1=C/c1[nH]c(=O)[n-]c1[O-]

>  <Energy>  (70) 
131.90417781488114

>  <Genealogy>  (70) 
C=c1c(C=CC(=Cc2ccccc2)CCC=C(C)C)c(C)cc(CC)c1=Cc1[nH]c(=O)[n-]c1[O-] (protonated)
C=c1c(C=CC(=Cc2ccccc2)CCC=C(C)C)c(C)cc(CC)/c1=C/c1[nH]c(=O)[n-]c1[O-] (cis-trans isomerization)
C=c1c(C=CC(=Cc2ccccc2)CCC=C(C)C)c(C)cc(CC)/c1=C/c1[nH]c(=O)[n-]c1[O-] (3D coordinates assigned)
C=c1c(C=CC(=Cc2ccccc2)CCC=C(C)C)c(C)cc(CC)/c1=C/c1[nH]c(=O)[n-]c1[O-] (optimized conformer: 131.90417781488114 kcal/mol)

>  <smiles>  (70) 
C=c1c(C=CC(=Cc2ccccc2)CCC=C(C)C)c(C)cc(CC)c1=Cc1[nH]c(=O)[nH]c1O

>  <score_type>  (70) 
oracle

>  <origin>  (70) 
adg

>  <m_score__min__energy>  (70) 
-15.59

>  <m_primary>  (70) 
energy

$$$$
70:0
     RDKit          3D

 67 70  0  0  0  0  0  0  0  0999 V2000
   59.1670   32.6920   49.7870 C   0  0  0  0  0  0  0  0  0  0  0  0
   58.6320   31.3860   49.9710 O   0  0  0  0  0  0  0  0  0  0  0  0
   58.0780   30.9140   51.1720 C   0  0  0  0  0  0  0  0  0  0  0  0
   57.0210   31.5890   51.8180 C   0  0  0  0  0  0  0  0  0  0  0  0
   56.4900   31.0940   53.0110 C   0  0  0  0  0  0  0  0  0  0  0  0
   56.9990   29.9240   53.5730 C   0  0  0  0  0  0  0  0  0  0  0  0
   58.0430   29.2440   52.9430 C   0  0  0  0  0  0  0  0  0  0  0  0
   58.5900   29.7300   51.7430 C   0  0  0  0  0  0  0  0  0  0  0  0
   59.6980   28.9640   51.0600 C   0  0  0  0  0  0  0  0  0  0  0  0
   59.5260   29.0020   49.6110 N   0  0  0  0  0  0  0  0  0  0  0  0
   59.6850   27.8380   48.7880 C   0  0  0  0  0  0  0  0  0  0  0  0
   60.1630   26.7740   49.2710 O   0  0  0  0  0  0  0  0  0  0  0  0
   59.2900   27.8790   47.3700 C   0  0  0  0  0  0  0  0  0  0  0  0
   58.5660   26.7970   46.8700 C   0  0  0  0  0  0  0  0  0  0  0  0
   58.0710   26.8150   45.5700 C   0  0  0  0  0  0  0  0  0  0  0  0
   57.1520   25.7060   45.1160 C   0  0  0  0  0  0  0  0  0  0  0  0
   55.9340   25.7070   45.9850 C   0  0  0  0  0  0  0  0  0  0  0  0
   55.1940   26.7280   46.0160 O   0  0  0  0  0  0  0  0  0  0  0  0
   55.7400   24.6370   46.9170 N   0  0  0  0  0  0  0  0  0  0  0  0
   56.6970   23.5500   47.0860 C   0  0  0  0  0  0  0  0  0  0  0  0
   56.8920   22.8280   45.7770 C   0  0  0  0  0  0  0  0  0  0  0  0
   58.1800   22.5550   45.2900 C   0  0  0  0  0  0  0  0  0  0  0  0
   58.3400   21.9140   44.0580 C   0  0  0  0  0  0  0  0  0  0  0  0
   57.2090   21.5590   43.3200 C   0  0  0  0  0  0  0  0  0  0  0  0
   55.9670   21.8320   43.8020 N   0  0  0  0  0  0  0  0  0  0  0  0
   55.7850   22.4500   45.0020 C   0  0  0  0  0  0  0  0  0  0  0  0
   58.3170   27.9400   44.7650 C   0  0  0  0  0  0  0  0  0  0  0  0
   57.8120   27.9810   43.6070 O   0  0  0  0  0  0  0  0  0  0  0  0
   59.0750   28.9930   45.2330 N   0  0  0  0  0  0  0  0  0  0  0  0
   59.2930   30.1640   44.3460 C   0  0  0  0  0  0  0  0  0  0  0  0
   58.6300   31.4250   44.8710 C   0  0  0  0  0  0  0  0  0  0  0  0
   59.3560   32.3630   45.6370 C   0  0  0  0  0  0  0  0  0  0  0  0
   58.7260   33.4990   46.1510 C   0  0  0  0  0  0  0  0  0  0  0  0
   57.3670   33.7110   45.9260 C   0  0  0  0  0  0  0  0  0  0  0  0
   56.6280   32.7830   45.1920 C   0  0  0  0  0  0  0  0  0  0  0  0
   57.2450   31.6390   44.6710 C   0  0  0  0  0  0  0  0  0  0  0  0
   56.2410   30.4900   43.7880 Cl  0  0  0  0  0  0  0  0  0  0  0  0
   59.5690   28.9830   46.5260 C   0  0  0  0  0  0  0  0  0  0  0  0
   60.3980   30.1450   47.0460 C   0  0  0  0  0  0  0  0  0  0  0  0
   59.3557   33.1525   50.7680 H   0  0  0  0  0  0  0  0  0  0  0  0
   60.1105   32.6260   49.2254 H   0  0  0  0  0  0  0  0  0  0  0  0
   58.4483   33.3069   49.2254 H   0  0  0  0  0  0  0  0  0  0  0  0
   56.6124   32.5112   51.3792 H   0  0  0  0  0  0  0  0  0  0  0  0
   55.6677   31.6288   53.5088 H   0  0  0  0  0  0  0  0  0  0  0  0
   56.5781   29.5367   54.5126 H   0  0  0  0  0  0  0  0  0  0  0  0
   58.4406   28.3206   53.3893 H   0  0  0  0  0  0  0  0  0  0  0  0
   60.6659   29.4163   51.3219 H   0  0  0  0  0  0  0  0  0  0  0  0
   59.6665   27.9168   51.3953 H   0  0  0  0  0  0  0  0  0  0  0  0
   59.2080   29.8960   49.1710 H   0  0  0  0  0  0  0  0  0  0  0  0
   58.3846   25.9208   47.5098 H   0  0  0  0  0  0  0  0  0  0  0  0
   56.8598   25.8727   44.0687 H   0  0  0  0  0  0  0  0  0  0  0  0
   57.6669   24.7370   45.1932 H   0  0  0  0  0  0  0  0  0  0  0  0
   57.6601   23.9614   47.4224 H   0  0  0  0  0  0  0  0  0  0  0  0
   56.3120   22.8426   47.8352 H   0  0  0  0  0  0  0  0  0  0  0  0
   59.0633   22.8454   45.8778 H   0  0  0  0  0  0  0  0  0  0  0  0
   59.3465   21.6916   43.6739 H   0  0  0  0  0  0  0  0  0  0  0  0
   57.3228   21.0578   42.3474 H   0  0  0  0  0  0  0  0  0  0  0  0
   54.7667   22.6535   45.3649 H   0  0  0  0  0  0  0  0  0  0  0  0
   60.3747   30.3443   44.2599 H   0  0  0  0  0  0  0  0  0  0  0  0
   58.8417   29.9316   43.3701 H   0  0  0  0  0  0  0  0  0  0  0  0
   60.4262   32.1979   45.8306 H   0  0  0  0  0  0  0  0  0  0  0  0
   59.3049   34.2291   46.7357 H   0  0  0  0  0  0  0  0  0  0  0  0
   56.8770   34.6103   46.3273 H   0  0  0  0  0  0  0  0  0  0  0  0
   55.5543   32.9509   45.0215 H   0  0  0  0  0  0  0  0  0  0  0  0
   60.3919   30.1365   48.1460 H   0  0  0  0  0  0  0  0  0  0  0  0
   61.4323   30.0483   46.6843 H   0  0  0  0  0  0  0  0  0  0  0  0
   59.9700   31.0916   46.6843 H   0  0  0  0  0  0  0  0  0  0  0  0
  1  2  1  0
  2  3  1  0
  3  4  2  0
  4  5  1  0
  5  6  2  0
  6  7  1  0
  7  8  2  0
  8  9  1  0
  9 10  1  0
 10 11  1  0
 11 12  2  0
 11 13  1  0
 13 14  1  0
 14 15  2  0
 15 16  1  0
 16 17  1  0
 17 18  2  0
 17 19  1  0
 19 20  1  0
 20 21  1  0
 21 22  2  0
 22 23  1  0
 23 24  2  0
 24 25  1  0
 25 26  2  0
 15 27  1  0
 27 28  2  0
 27 29  1  0
 29 30  1  0
 30 31  1  0
 31 32  2  0
 32 33  1  0
 33 34  2  0
 34 35  1  0
 35 36  2  0
 36 37  1  0
 29 38  1  0
 38 39  1  0
  8  3  1  0
 38 13  2  0
 26 21  1  0
 36 31  1  0
  1 40  1  0
  1 41  1  0
  1 42  1  0
  4 43  1  0
  5 44  1  0
  6 45  1  0
  7 46  1  0
  9 47  1  0
  9 48  1  0
 10 49  1  0
 14 50  1  0
 16 51  1  0
 16 52  1  0
 20 53  1  0
 20 54  1  0
 22 55  1  0
 23 56  1  0
 24 57  1  0
 26 58  1  0
 30 59  1  0
 30 60  1  0
 32 61  1  0
 33 62  1  0
 34 63  1  0
 35 64  1  0
 39 65  1  0
 39 66  1  0
 39 67  1  0
M  CHG  1  19  -1
M  END
>  <UniqueID>  (71) 
69

>  <SMILES>  (71) 
COc1ccccc1CNC(=O)c1cc(CC(=O)[N-]Cc2cccnc2)c(=O)n(Cc2ccccc2Cl)c1C

>  <Energy>  (71) 
78.22527306477792

>  <Genealogy>  (71) 
COc1ccccc1CNC(=O)c1cc(CC(=O)[N-]Cc2cccnc2)c(=O)n(Cc2ccccc2Cl)c1C (protonated)
COc1ccccc1CNC(=O)c1cc(CC(=O)[N-]Cc2cccnc2)c(=O)n(Cc2ccccc2Cl)c1C (3D coordinates assigned)
COc1ccccc1CNC(=O)c1cc(CC(=O)[N-]Cc2cccnc2)c(=O)n(Cc2ccccc2Cl)c1C (optimized conformer: 78.22527306477792 kcal/mol)

>  <smiles>  (71) 
COc1ccccc1CNC(=O)c1cc(CC(=O)NCc2cccnc2)c(=O)n(Cc2ccccc2Cl)c1C

>  <score_type>  (71) 
oracle

>  <origin>  (71) 
adg

>  <m_score__min__energy>  (71) 
-11.6

>  <m_primary>  (71) 
energy

$$$$
71:0
     RDKit          3D

 52 55  0  0  0  0  0  0  0  0999 V2000
   55.1330   26.6730   46.0150 N   0  0  0  0  0  0  0  0  0  0  0  0
   56.4990   27.0760   45.9390 C   0  0  0  0  0  0  0  0  0  0  0  0
   57.3840   26.3510   46.4690 O   0  0  0  0  0  0  0  0  0  0  0  0
   56.8770   28.3340   45.2500 C   0  0  0  0  0  0  0  0  0  0  0  0
   55.8890   29.2040   44.7590 C   0  0  0  0  0  0  0  0  0  0  0  0
   56.2470   30.3860   44.1030 C   0  0  0  0  0  0  0  0  0  0  0  0
   57.6000   30.7370   43.9550 C   0  0  0  0  0  0  0  0  0  0  0  0
   58.0150   31.9600   43.2320 C   0  0  0  0  0  0  0  0  0  0  0  0
   58.0550   33.2010   43.7470 C   0  0  0  0  0  0  0  0  0  0  0  0
   58.7500   33.5880   44.9940 C   0  0  0  0  0  0  0  0  0  0  0  0
   58.9670   34.9450   45.2630 C   0  0  0  0  0  0  0  0  0  0  0  0
   59.6280   35.3350   46.4290 C   0  0  0  0  0  0  0  0  0  0  0  0
   60.0950   34.3740   47.3280 C   0  0  0  0  0  0  0  0  0  0  0  0
   59.9140   33.0050   47.0630 C   0  0  0  0  0  0  0  0  0  0  0  0
   60.4150   31.9790   48.0140 C   0  0  0  0  0  0  0  0  0  0  0  0
   59.7530   30.7500   48.1430 C   0  0  0  0  0  0  0  0  0  0  0  0
   60.2040   29.7970   49.0510 C   0  0  0  0  0  0  0  0  0  0  0  0
   61.3240   30.0530   49.8450 C   0  0  0  0  0  0  0  0  0  0  0  0
   61.7260   29.1210   50.7410 N   0  0  0  0  0  0  0  0  0  0  0  0
   62.7920   29.3290   51.5450 C   0  0  0  0  0  0  0  0  0  0  0  0
   63.1290   28.4420   52.3730 O   0  0  0  0  0  0  0  0  0  0  0  0
   63.5080   30.5270   51.4520 C   0  0  0  0  0  0  0  0  0  0  0  0
   64.4910   30.7110   52.2230 O   0  0  0  0  0  0  0  0  0  0  0  0
   63.1420   31.4880   50.5340 N   0  0  0  0  0  0  0  0  0  0  0  0
   63.9500   32.7290   50.4660 C   0  0  0  0  0  0  0  0  0  0  0  0
   65.2810   32.4960   49.7370 C   0  0  0  0  0  0  0  0  0  0  0  0
   66.1870   31.6790   50.5380 N   0  0  0  0  0  0  0  0  0  0  0  0
   62.0320   31.2760   49.7320 C   0  0  0  0  0  0  0  0  0  0  0  0
   61.5530   32.2340   48.8040 C   0  0  0  0  0  0  0  0  0  0  0  0
   59.2560   32.6200   45.8820 C   0  0  0  0  0  0  0  0  0  0  0  0
   58.5860   29.8580   44.4260 C   0  0  0  0  0  0  0  0  0  0  0  0
   58.2290   28.6710   45.0710 C   0  0  0  0  0  0  0  0  0  0  0  0
   54.4880   27.0970   46.7180 H   0  0  0  0  0  0  0  0  0  0  0  0
   54.8261   28.9535   44.8916 H   0  0  0  0  0  0  0  0  0  0  0  0
   55.4644   31.0456   43.7000 H   0  0  0  0  0  0  0  0  0  0  0  0
   58.3173   31.8431   42.1808 H   0  0  0  0  0  0  0  0  0  0  0  0
   57.5277   33.9936   43.1959 H   0  0  0  0  0  0  0  0  0  0  0  0
   58.6150   35.7071   44.5522 H   0  0  0  0  0  0  0  0  0  0  0  0
   59.7816   36.4035   46.6404 H   0  0  0  0  0  0  0  0  0  0  0  0
   60.6074   34.6897   48.2487 H   0  0  0  0  0  0  0  0  0  0  0  0
   58.8704   30.5375   47.5218 H   0  0  0  0  0  0  0  0  0  0  0  0
   59.6755   28.8368   49.1439 H   0  0  0  0  0  0  0  0  0  0  0  0
   63.3778   33.4988   49.9275 H   0  0  0  0  0  0  0  0  0  0  0  0
   64.1720   33.0525   51.4937 H   0  0  0  0  0  0  0  0  0  0  0  0
   65.0830   31.9829   48.7843 H   0  0  0  0  0  0  0  0  0  0  0  0
   65.7566   33.4721   49.5611 H   0  0  0  0  0  0  0  0  0  0  0  0
   66.1120   31.9880   51.5340 H   0  0  0  0  0  0  0  0  0  0  0  0
   65.8360   30.6940   50.5120 H   0  0  0  0  0  0  0  0  0  0  0  0
   62.0794   33.1941   48.6987 H   0  0  0  0  0  0  0  0  0  0  0  0
   59.1353   31.5517   45.6494 H   0  0  0  0  0  0  0  0  0  0  0  0
   59.6488   30.1049   44.2866 H   0  0  0  0  0  0  0  0  0  0  0  0
   59.0133   27.9947   45.4418 H   0  0  0  0  0  0  0  0  0  0  0  0
  1  2  1  0
  2  3  2  0
  2  4  1  0
  4  5  2  0
  5  6  1  0
  6  7  2  0
  7  8  1  0
  8  9  2  3
  9 10  1  0
 10 11  2  0
 11 12  1  0
 12 13  2  0
 13 14  1  0
 14 15  1  0
 15 16  2  0
 16 17  1  0
 17 18  2  0
 18 19  1  0
 19 20  1  0
 20 21  2  0
 20 22  1  0
 22 23  2  0
 22 24  1  0
 24 25  1  0
 25 26  1  0
 26 27  1  0
 24 28  1  0
 28 29  2  0
 14 30  2  0
  7 31  1  0
 31 32  2  0
 32  4  1  0
 30 10  1  0
 29 15  1  0
 28 18  1  0
  1 33  1  0
  5 34  1  0
  6 35  1  0
  8 36  1  0
  9 37  1  0
 11 38  1  0
 12 39  1  0
 13 40  1  0
 16 41  1  0
 17 42  1  0
 25 43  1  0
 25 44  1  0
 26 45  1  0
 26 46  1  0
 27 47  1  0
 27 48  1  0
 29 49  1  0
 30 50  1  0
 31 51  1  0
 32 52  1  0
M  CHG  2   1  -1  19  -1
M  END
>  <UniqueID>  (72) 
70

>  <SMILES>  (72) 
[NH-]C(=O)c1ccc(C=Cc2cccc(-c3ccc4[n-]c(=O)c(=O)n(CCN)c4c3)c2)cc1

>  <Energy>  (72) 
75.56570061671007

>  <Genealogy>  (72) 
[NH-]C(=O)c1ccc(C=Cc2cccc(-c3ccc4[n-]c(=O)c(=O)n(CCN)c4c3)c2)cc1 (protonated)
[NH-]C(=O)c1ccc(C=Cc2cccc(-c3ccc4[n-]c(=O)c(=O)n(CCN)c4c3)c2)cc1 (3D coordinates assigned)
[NH-]C(=O)c1ccc(C=Cc2cccc(-c3ccc4[n-]c(=O)c(=O)n(CCN)c4c3)c2)cc1 (optimized conformer: 75.56570061671007 kcal/mol)

>  <smiles>  (72) 
NCCn1c(=O)c(=O)[nH]c2ccc(-c3cccc(C=Cc4ccc(C(N)=O)cc4)c3)cc21

>  <score_type>  (72) 
oracle

>  <origin>  (72) 
adg

>  <m_score__min__energy>  (72) 
-13.07

>  <m_primary>  (72) 
energy

$$$$
72:0
     RDKit          3D

 56 59  0  0  0  0  0  0  0  0999 V2000
   56.5060   29.6020   45.4700 O   0  0  0  0  0  0  0  0  0  0  0  0
   57.4480   29.4670   44.3100 S   0  0  0  0  0  0  0  0  0  0  0  0
   57.0900   28.2320   43.5300 O   0  0  0  0  0  0  0  0  0  0  0  0
   57.3280   30.9220   43.2690 C   0  0  0  0  0  0  0  0  0  0  0  0
   57.4050   32.2400   44.0620 C   0  0  0  0  0  0  0  0  0  0  0  0
   57.6310   32.0440   45.5070 N   0  0  0  0  0  0  0  0  0  0  0  0
   58.4110   33.1210   46.0850 C   0  0  0  0  0  0  0  0  0  0  0  0
   58.8790   34.1520   45.2460 C   0  0  0  0  0  0  0  0  0  0  0  0
   59.6210   35.2150   45.7590 C   0  0  0  0  0  0  0  0  0  0  0  0
   59.9130   35.2770   47.1190 C   0  0  0  0  0  0  0  0  0  0  0  0
   59.4680   34.2700   47.9790 C   0  0  0  0  0  0  0  0  0  0  0  0
   59.7680   34.3450   49.3050 N   0  0  0  0  0  0  0  0  0  0  0  0
   59.3640   33.3970   50.1880 C   0  0  0  0  0  0  0  0  0  0  0  0
   58.6220   32.3030   49.7450 C   0  0  0  0  0  0  0  0  0  0  0  0
   58.2970   32.1910   48.3930 C   0  0  0  0  0  0  0  0  0  0  0  0
   58.7130   33.1790   47.4760 C   0  0  0  0  0  0  0  0  0  0  0  0
   59.0660   29.3350   44.9310 N   0  0  0  0  0  0  0  0  0  0  0  0
   59.0440   28.8390   46.3050 C   0  0  0  0  0  0  0  0  0  0  0  0
   60.0380   29.6130   47.1200 C   0  0  0  0  0  0  0  0  0  0  0  0
   60.1820   29.3580   48.4920 C   0  0  0  0  0  0  0  0  0  0  0  0
   61.0790   30.1070   49.2590 C   0  0  0  0  0  0  0  0  0  0  0  0
   61.8390   31.1290   48.6690 C   0  0  0  0  0  0  0  0  0  0  0  0
   62.7470   31.9110   49.4670 N   0  0  0  0  0  0  0  0  0  0  0  0
   62.4670   32.1280   50.8940 C   0  0  0  0  0  0  0  0  0  0  0  0
   63.0290   33.4800   51.3950 C   0  0  0  0  0  0  0  0  0  0  0  0
   63.7210   34.2070   50.3960 O   0  0  0  0  0  0  0  0  0  0  0  0
   64.6970   33.3830   49.7980 C   0  0  0  0  0  0  0  0  0  0  0  0
   64.0130   32.3690   48.8810 C   0  0  0  0  0  0  0  0  0  0  0  0
   61.6790   31.3960   47.2980 C   0  0  0  0  0  0  0  0  0  0  0  0
   60.7830   30.6460   46.5310 C   0  0  0  0  0  0  0  0  0  0  0  0
   58.1537   30.9018   42.5425 H   0  0  0  0  0  0  0  0  0  0  0  0
   56.3450   30.8926   42.7761 H   0  0  0  0  0  0  0  0  0  0  0  0
   58.2328   32.8416   43.6584 H   0  0  0  0  0  0  0  0  0  0  0  0
   56.4325   32.7420   43.9513 H   0  0  0  0  0  0  0  0  0  0  0  0
   56.7110   31.9750   45.9980 H   0  0  0  0  0  0  0  0  0  0  0  0
   58.0960   31.1230   45.6740 H   0  0  0  0  0  0  0  0  0  0  0  0
   58.6554   34.1175   44.1695 H   0  0  0  0  0  0  0  0  0  0  0  0
   59.9775   36.0087   45.0860 H   0  0  0  0  0  0  0  0  0  0  0  0
   60.4955   36.1209   47.5172 H   0  0  0  0  0  0  0  0  0  0  0  0
   59.6219   33.4917   51.2531 H   0  0  0  0  0  0  0  0  0  0  0  0
   58.2945   31.5320   50.4580 H   0  0  0  0  0  0  0  0  0  0  0  0
   57.7134   31.3279   48.0402 H   0  0  0  0  0  0  0  0  0  0  0  0
   58.0374   28.9708   46.7286 H   0  0  0  0  0  0  0  0  0  0  0  0
   59.3043   27.7703   46.3184 H   0  0  0  0  0  0  0  0  0  0  0  0
   59.5860   28.5646   48.9666 H   0  0  0  0  0  0  0  0  0  0  0  0
   61.1901   29.8940   50.3325 H   0  0  0  0  0  0  0  0  0  0  0  0
   61.3779   32.1169   51.0481 H   0  0  0  0  0  0  0  0  0  0  0  0
   62.9570   31.3241   51.4629 H   0  0  0  0  0  0  0  0  0  0  0  0
   62.1904   34.0941   51.7551 H   0  0  0  0  0  0  0  0  0  0  0  0
   63.7526   33.2551   52.1924 H   0  0  0  0  0  0  0  0  0  0  0  0
   65.3891   34.0024   49.2086 H   0  0  0  0  0  0  0  0  0  0  0  0
   65.2580   32.8509   50.5804 H   0  0  0  0  0  0  0  0  0  0  0  0
   63.8108   32.8408   47.9081 H   0  0  0  0  0  0  0  0  0  0  0  0
   64.6780   31.5021   48.7538 H   0  0  0  0  0  0  0  0  0  0  0  0
   62.2626   32.2001   46.8260 H   0  0  0  0  0  0  0  0  0  0  0  0
   60.6613   30.8666   45.4603 H   0  0  0  0  0  0  0  0  0  0  0  0
  1  2  2  0
  2  3  2  0
  2  4  1  0
  4  5  1  0
  5  6  1  0
  6  7  1  0
  7  8  2  0
  8  9  1  0
  9 10  2  0
 10 11  1  0
 11 12  2  0
 12 13  1  0
 13 14  2  0
 14 15  1  0
 15 16  2  0
  2 17  1  0
 17 18  1  0
 18 19  1  0
 19 20  2  0
 20 21  1  0
 21 22  2  0
 22 23  1  0
 23 24  1  0
 24 25  1  0
 25 26  1  0
 26 27  1  0
 27 28  1  0
 22 29  1  0
 29 30  2  0
 16  7  1  0
 30 19  1  0
 16 11  1  0
 28 23  1  0
  4 31  1  0
  4 32  1  0
  5 33  1  0
  5 34  1  0
  6 35  1  0
  6 36  1  0
  8 37  1  0
  9 38  1  0
 10 39  1  0
 13 40  1  0
 14 41  1  0
 15 42  1  0
 18 43  1  0
 18 44  1  0
 20 45  1  0
 21 46  1  0
 24 47  1  0
 24 48  1  0
 25 49  1  0
 25 50  1  0
 27 51  1  0
 27 52  1  0
 28 53  1  0
 28 54  1  0
 29 55  1  0
 30 56  1  0
M  CHG  2   6   1  17  -1
M  END
>  <UniqueID>  (73) 
71

>  <SMILES>  (73) 
O=S(=O)(CC[NH2+]c1cccc2ncccc12)[N-]Cc1ccc(N2CCOCC2)cc1

>  <Energy>  (73) 
70.81404368924424

>  <Genealogy>  (73) 
O=S(=O)(CC[NH2+]c1cccc2ncccc12)[N-]Cc1ccc(N2CCOCC2)cc1 (protonated)
O=S(=O)(CC[NH2+]c1cccc2ncccc12)[N-]Cc1ccc(N2CCOCC2)cc1 (3D coordinates assigned)
O=S(=O)(CC[NH2+]c1cccc2ncccc12)[N-]Cc1ccc(N2CCOCC2)cc1 (nonaromatic ring conformer: 70.81404368924424 kcal/mol)

>  <smiles>  (73) 
O=S(=O)(CCNc1cccc2ncccc12)NCc1ccc(N2CCOCC2)cc1

>  <score_type>  (73) 
oracle

>  <origin>  (73) 
adg

>  <m_score__min__energy>  (73) 
-8.2400000000000002

>  <m_primary>  (73) 
energy

$$$$
73:0
     RDKit          3D

 39 42  0  0  0  0  0  0  0  0999 V2000
   60.2050   29.1890   44.8540 C   0  0  0  0  0  0  0  0  0  0  0  0
   59.7870   29.0090   46.1170 C   0  0  0  0  0  0  0  0  0  0  0  0
   58.9850   27.9660   46.6070 C   0  0  0  0  0  0  0  0  0  0  0  0
   58.6100   26.8020   46.0440 C   0  0  0  0  0  0  0  0  0  0  0  0
   57.2340   26.2790   46.0060 C   0  0  0  0  0  0  0  0  0  0  0  0
   56.8730   25.0550   46.4350 N   0  0  0  0  0  0  0  0  0  0  0  0
   55.5260   25.0750   46.3390 C   0  0  0  0  0  0  0  0  0  0  0  0
   54.8100   24.0850   46.6430 O   0  0  0  0  0  0  0  0  0  0  0  0
   55.0070   26.2410   45.9010 N   0  0  0  0  0  0  0  0  0  0  0  0
   56.0980   26.9990   45.7070 C   0  0  0  0  0  0  0  0  0  0  0  0
   56.0480   28.3180   45.2650 O   0  0  0  0  0  0  0  0  0  0  0  0
   58.6130   28.3340   47.8900 C   0  0  0  0  0  0  0  0  0  0  0  0
   59.2510   29.5260   48.1650 C   0  0  0  0  0  0  0  0  0  0  0  0
   59.1230   30.2910   49.4460 C   0  0  0  0  0  0  0  0  0  0  0  0
   59.9690   29.9300   47.0960 N   0  0  0  0  0  0  0  0  0  0  0  0
   60.6860   31.1740   46.9940 C   0  0  0  0  0  0  0  0  0  0  0  0
   61.9720   31.2590   47.5510 C   0  0  0  0  0  0  0  0  0  0  0  0
   62.6800   32.4600   47.5170 C   0  0  0  0  0  0  0  0  0  0  0  0
   62.1120   33.5890   46.9300 C   0  0  0  0  0  0  0  0  0  0  0  0
   60.8350   33.5190   46.3670 C   0  0  0  0  0  0  0  0  0  0  0  0
   60.1090   32.3150   46.3810 C   0  0  0  0  0  0  0  0  0  0  0  0
   58.7740   32.2840   45.7360 C   0  0  0  0  0  0  0  0  0  0  0  0
   58.0420   33.3710   45.4140 N   0  0  0  0  0  0  0  0  0  0  0  0
   56.9170   32.9280   44.8720 N   0  0  0  0  0  0  0  0  0  0  0  0
   57.0120   31.5890   44.8920 C   0  0  0  0  0  0  0  0  0  0  0  0
   56.1170   30.8190   44.4550 O   0  0  0  0  0  0  0  0  0  0  0  0
   58.1380   31.1800   45.4180 O   0  0  0  0  0  0  0  0  0  0  0  0
   60.8344   30.0550   44.6011 H   0  0  0  0  0  0  0  0  0  0  0  0
   59.9181   28.4705   44.0720 H   0  0  0  0  0  0  0  0  0  0  0  0
   59.3955   26.1919   45.5741 H   0  0  0  0  0  0  0  0  0  0  0  0
   56.2530   28.5610   44.3040 H   0  0  0  0  0  0  0  0  0  0  0  0
   57.9384   27.7817   48.5607 H   0  0  0  0  0  0  0  0  0  0  0  0
   59.2381   29.6033   50.2968 H   0  0  0  0  0  0  0  0  0  0  0  0
   59.9043   31.0640   49.4911 H   0  0  0  0  0  0  0  0  0  0  0  0
   58.1326   30.7676   49.4911 H   0  0  0  0  0  0  0  0  0  0  0  0
   62.4245   30.3716   48.0177 H   0  0  0  0  0  0  0  0  0  0  0  0
   63.6879   32.5162   47.9540 H   0  0  0  0  0  0  0  0  0  0  0  0
   62.6698   34.5369   46.9098 H   0  0  0  0  0  0  0  0  0  0  0  0
   60.3929   34.4155   45.9079 H   0  0  0  0  0  0  0  0  0  0  0  0
  1  2  2  0
  2  3  1  0
  3  4  2  3
  4  5  1  0
  5  6  1  0
  6  7  1  0
  7  8  2  0
  7  9  1  0
  9 10  1  0
 10 11  1  0
  3 12  1  0
 12 13  2  0
 13 14  1  0
 13 15  1  0
 15 16  1  0
 16 17  2  0
 17 18  1  0
 18 19  2  0
 19 20  1  0
 20 21  2  0
 21 22  1  0
 22 23  2  0
 23 24  1  0
 24 25  1  0
 25 26  2  0
 25 27  1  0
 15  2  1  0
 21 16  1  0
 27 22  1  0
 10  5  2  0
  1 28  1  0
  1 29  1  0
  4 30  1  0
 11 31  1  0
 12 32  1  0
 14 33  1  0
 14 34  1  0
 14 35  1  0
 17 36  1  0
 18 37  1  0
 19 38  1  0
 20 39  1  0
M  CHG  3   6  -1   9  -1  24  -1
M  END
>  <UniqueID>  (74) 
72

>  <SMILES>  (74) 
C=c1c(=Cc2[n-]c(=O)[n-]c2O)cc(C)n1-c1ccccc1-c1n[n-]c(=O)o1

>  <Energy>  (74) 
154.70502035865212

>  <Genealogy>  (74) 
C=c1c(=Cc2[n-]c(=O)[n-]c2O)cc(C)n1-c1ccccc1-c1n[n-]c(=O)o1 (protonated)
C=c1c(=Cc2[n-]c(=O)[n-]c2O)cc(C)n1-c1ccccc1-c1n[n-]c(=O)o1 (3D coordinates assigned)
C=c1c(=Cc2[n-]c(=O)[n-]c2O)cc(C)n1-c1ccccc1-c1n[n-]c(=O)o1 (optimized conformer: 154.70502035865212 kcal/mol)

>  <smiles>  (74) 
C=c1c(=Cc2[nH]c(=O)[nH]c2O)cc(C)n1-c1ccccc1-c1n[nH]c(=O)o1

>  <score_type>  (74) 
oracle

>  <origin>  (74) 
adg

>  <m_score__min__energy>  (74) 
-14.76

>  <m_primary>  (74) 
energy

$$$$
74:0
     RDKit          3D

 45 47  0  0  0  0  0  0  0  0999 V2000
   55.9270   30.4770   44.4420 N   0  0  0  0  0  0  0  0  0  0  0  0
   56.8870   29.9920   44.8710 C   0  0  0  0  0  0  0  0  0  0  0  0
   58.0800   29.3910   45.4040 C   0  0  0  0  0  0  0  0  0  0  0  0
   58.2910   28.0130   45.2740 C   0  0  0  0  0  0  0  0  0  0  0  0
   59.4450   27.4270   45.8010 C   0  0  0  0  0  0  0  0  0  0  0  0
   60.3960   28.2150   46.4560 C   0  0  0  0  0  0  0  0  0  0  0  0
   60.2020   29.6010   46.5780 C   0  0  0  0  0  0  0  0  0  0  0  0
   61.2040   30.4480   47.3190 C   0  0  0  0  0  0  0  0  0  0  0  0
   60.7600   30.6740   48.7030 N   0  0  0  0  0  0  0  0  0  0  0  0
   59.4680   31.3820   48.7810 C   0  0  0  0  0  0  0  0  0  0  0  0
   59.5470   32.8060   49.3850 C   0  0  0  0  0  0  0  0  0  0  0  0
   60.1040   33.8890   48.4290 C   0  0  2  0  0  0  0  0  0  0  0  0
   59.2480   34.0130   47.1820 C   0  0  0  0  0  0  0  0  0  0  0  0
   59.6550   34.8570   46.1310 C   0  0  0  0  0  0  0  0  0  0  0  0
   58.8770   34.9750   44.9750 C   0  0  0  0  0  0  0  0  0  0  0  0
   57.6880   34.2550   44.8530 C   0  0  0  0  0  0  0  0  0  0  0  0
   57.2730   33.4130   45.8870 C   0  0  0  0  0  0  0  0  0  0  0  0
   58.0450   33.2900   47.0460 C   0  0  0  0  0  0  0  0  0  0  0  0
   61.5480   33.6670   48.0540 C   0  0  0  0  0  0  0  0  0  0  0  0
   62.0650   33.4430   46.7810 C   0  0  0  0  0  0  0  0  0  0  0  0
   63.4610   33.3370   46.7610 C   0  0  0  0  0  0  0  0  0  0  0  0
   64.0510   33.4900   48.0090 C   0  0  0  0  0  0  0  0  0  0  0  0
   62.8330   33.7580   49.1360 S   0  0  0  0  0  0  0  0  0  0  0  0
   59.0330   30.1830   46.0600 C   0  0  0  0  0  0  0  0  0  0  0  0
   57.5468   27.3903   44.7559 H   0  0  0  0  0  0  0  0  0  0  0  0
   59.6054   26.3434   45.7002 H   0  0  0  0  0  0  0  0  0  0  0  0
   61.2988   27.7484   46.8771 H   0  0  0  0  0  0  0  0  0  0  0  0
   62.1762   29.9335   47.3296 H   0  0  0  0  0  0  0  0  0  0  0  0
   61.2960   31.4191   46.8105 H   0  0  0  0  0  0  0  0  0  0  0  0
   60.7130   29.7690   49.2260 H   0  0  0  0  0  0  0  0  0  0  0  0
   61.4710   31.2720   49.1870 H   0  0  0  0  0  0  0  0  0  0  0  0
   59.0598   31.4636   47.7628 H   0  0  0  0  0  0  0  0  0  0  0  0
   58.8304   30.7925   49.4563 H   0  0  0  0  0  0  0  0  0  0  0  0
   58.5327   33.1058   49.6873 H   0  0  0  0  0  0  0  0  0  0  0  0
   60.2520   32.7455   50.2272 H   0  0  0  0  0  0  0  0  0  0  0  0
   60.0625   34.8349   48.9889 H   0  0  0  0  0  0  0  0  0  0  0  0
   60.5913   35.4274   46.2199 H   0  0  0  0  0  0  0  0  0  0  0  0
   59.2033   35.6373   44.1596 H   0  0  0  0  0  0  0  0  0  0  0  0
   57.0778   34.3506   43.9428 H   0  0  0  0  0  0  0  0  0  0  0  0
   56.3361   32.8450   45.7892 H   0  0  0  0  0  0  0  0  0  0  0  0
   57.7120   32.6253   47.8567 H   0  0  0  0  0  0  0  0  0  0  0  0
   61.4391   33.3578   45.8805 H   0  0  0  0  0  0  0  0  0  0  0  0
   64.0367   33.1500   45.8426 H   0  0  0  0  0  0  0  0  0  0  0  0
   65.1290   33.4438   48.2229 H   0  0  0  0  0  0  0  0  0  0  0  0
   58.8647   31.2645   46.1695 H   0  0  0  0  0  0  0  0  0  0  0  0
  1  2  3  0
  2  3  1  0
  3  4  2  0
  4  5  1  0
  5  6  2  0
  6  7  1  0
  7  8  1  0
  8  9  1  0
  9 10  1  0
 10 11  1  0
 11 12  1  0
 12 13  1  0
 13 14  2  0
 14 15  1  0
 15 16  2  0
 16 17  1  0
 17 18  2  0
 12 19  1  0
 19 20  2  0
 20 21  1  0
 21 22  2  0
 22 23  1  0
  7 24  2  0
 24  3  1  0
 18 13  1  0
 23 19  1  0
  4 25  1  0
  5 26  1  0
  6 27  1  0
  8 28  1  0
  8 29  1  0
  9 30  1  0
  9 31  1  0
 10 32  1  0
 10 33  1  0
 11 34  1  0
 11 35  1  0
 12 36  1  1
 14 37  1  0
 15 38  1  0
 16 39  1  0
 17 40  1  0
 18 41  1  0
 20 42  1  0
 21 43  1  0
 22 44  1  0
 24 45  1  0
M  CHG  1   9   1
M  END
>  <UniqueID>  (75) 
73

>  <SMILES>  (75) 
N#Cc1cccc(C[NH2+]CC[C@H](c2ccccc2)c2cccs2)c1

>  <Energy>  (75) 
70.71340469336631

>  <Genealogy>  (75) 
N#Cc1cccc(C[NH2+]CCC(c2ccccc2)c2cccs2)c1 (protonated)
N#Cc1cccc(C[NH2+]CC[C@H](c2ccccc2)c2cccs2)c1 (chirality)
N#Cc1cccc(C[NH2+]CC[C@H](c2ccccc2)c2cccs2)c1 (3D coordinates assigned)
N#Cc1cccc(C[NH2+]CC[C@H](c2ccccc2)c2cccs2)c1 (optimized conformer: 70.71340469336631 kcal/mol)

>  <smiles>  (75) 
N#Cc1cccc(CNCCC(c2ccccc2)c2cccs2)c1

>  <score_type>  (75) 
oracle

>  <origin>  (75) 
adg

>  <m_score__min__energy>  (75) 
-6.7199999999999998

>  <m_primary>  (75) 
energy

$$$$
75:0
     RDKit          3D

 41 44  0  0  0  0  0  0  0  0999 V2000
   54.0180   26.3340   46.3860 H   0  0  0  0  0  0  0  0  0  0  0  0
   54.9470   26.3860   45.9850 O   0  0  0  0  0  0  0  0  0  0  0  0
   55.9140   25.4430   46.3150 C   0  0  0  0  0  0  0  0  0  0  0  0
   55.6780   24.3580   47.0710 N   0  0  0  0  0  0  0  0  0  0  0  0
   56.8740   23.7310   47.0710 C   0  0  0  0  0  0  0  0  0  0  0  0
   57.0700   22.6460   47.6780 O   0  0  0  0  0  0  0  0  0  0  0  0
   57.8410   24.3520   46.3610 N   0  0  0  0  0  0  0  0  0  0  0  0
   57.2290   25.4590   45.9050 C   0  0  0  0  0  0  0  0  0  0  0  0
   57.8540   26.4060   44.9700 C   0  0  0  0  0  0  0  0  0  0  0  0
   58.1792   26.0101   43.9966 H   0  0  0  0  0  0  0  0  0  0  0  0
   58.0630   27.7170   45.2020 C   0  0  0  0  0  0  0  0  0  0  0  0
   57.4620   28.7150   44.4520 C   0  0  0  0  0  0  0  0  0  0  0  0
   56.8123   28.5755   43.5754 H   0  0  0  0  0  0  0  0  0  0  0  0
   57.8350   29.9170   45.0160 C   0  0  0  0  0  0  0  0  0  0  0  0
   57.3870   31.2610   44.5240 C   0  0  0  0  0  0  0  0  0  0  0  0
   57.1699   31.9124   45.3834 H   0  0  0  0  0  0  0  0  0  0  0  0
   58.1833   31.7122   43.9139 H   0  0  0  0  0  0  0  0  0  0  0  0
   56.4792   31.1442   43.9139 H   0  0  0  0  0  0  0  0  0  0  0  0
   58.6780   29.7110   46.0520 N   0  0  0  0  0  0  0  0  0  0  0  0
   59.2870   30.7360   46.8580 C   0  0  0  0  0  0  0  0  0  0  0  0
   58.4900   31.6080   47.6150 C   0  0  0  0  0  0  0  0  0  0  0  0
   57.3947   31.5107   47.5878 H   0  0  0  0  0  0  0  0  0  0  0  0
   59.0800   32.5990   48.4030 C   0  0  0  0  0  0  0  0  0  0  0  0
   58.4483   33.2781   48.9944 H   0  0  0  0  0  0  0  0  0  0  0  0
   60.4720   32.7300   48.4420 C   0  0  0  0  0  0  0  0  0  0  0  0
   61.0440   33.6950   49.2070 N   0  0  0  0  0  0  0  0  0  0  0  0
   62.3950   33.8350   49.2670 C   0  0  0  0  0  0  0  0  0  0  0  0
   62.9950   34.9270   50.0850 C   0  0  0  0  0  0  0  0  0  0  0  0
   62.8685   34.6968   51.1532 H   0  0  0  0  0  0  0  0  0  0  0  0
   64.0668   35.0125   49.8528 H   0  0  0  0  0  0  0  0  0  0  0  0
   62.4925   35.8775   49.8528 H   0  0  0  0  0  0  0  0  0  0  0  0
   63.1950   33.0160   48.5340 N   0  0  0  0  0  0  0  0  0  0  0  0
   62.6770   32.0330   47.7510 C   0  0  0  0  0  0  0  0  0  0  0  0
   63.4550   31.2930   47.0940 O   0  0  0  0  0  0  0  0  0  0  0  0
   61.2840   31.8600   47.6840 C   0  0  0  0  0  0  0  0  0  0  0  0
   60.6850   30.8630   46.8940 C   0  0  0  0  0  0  0  0  0  0  0  0
   61.3132   30.1807   46.3026 H   0  0  0  0  0  0  0  0  0  0  0  0
   58.8520   28.3690   46.1640 C   0  0  0  0  0  0  0  0  0  0  0  0
   59.7670   27.8110   46.9740 C   0  0  0  0  0  0  0  0  0  0  0  0
   60.3221   28.4356   47.6894 H   0  0  0  0  0  0  0  0  0  0  0  0
   59.9611   26.7295   46.9219 H   0  0  0  0  0  0  0  0  0  0  0  0
  1  2  1  0
  2  3  1  0
  3  4  1  0
  4  5  1  0
  5  6  2  0
  5  7  1  0
  7  8  1  0
  8  9  1  0
  9 10  1  0
  9 11  2  0
 11 12  1  0
 12 13  1  0
 12 14  2  0
 14 15  1  0
 15 16  1  0
 15 17  1  0
 15 18  1  0
 14 19  1  0
 19 20  1  0
 20 21  2  0
 21 22  1  0
 21 23  1  0
 23 24  1  0
 23 25  2  0
 25 26  1  0
 26 27  1  0
 27 28  1  0
 28 29  1  0
 28 30  1  0
 28 31  1  0
 27 32  2  0
 32 33  1  0
 33 34  2  0
 33 35  1  0
 35 36  2  0
 36 37  1  0
 19 38  1  0
 38 39  2  0
 39 40  1  0
 39 41  1  0
  8  3  2  0
 38 11  1  0
 36 20  1  0
 35 25  1  0
M  CHG  3   4  -1   7  -1  26  -1
M  END
>  <UniqueID>  (76) 
74

>  <SMILES>  (76) 
C=c1/c(=C\c2[n-]c(=O)[n-]c2O)cc(C)n1-c1ccc2[n-]c(C)nc(=O)c2c1

>  <Energy>  (76) 
122.97607936223586

>  <Genealogy>  (76) 
C=c1c(=Cc2[n-]c(=O)[n-]c2O)cc(C)n1-c1ccc2[n-]c(C)nc(=O)c2c1 (protonated)
C=c1/c(=C\c2[n-]c(=O)[n-]c2O)cc(C)n1-c1ccc2[n-]c(C)nc(=O)c2c1 (cis-trans isomerization)
C=c1/c(=C\c2[n-]c(=O)[n-]c2O)cc(C)n1-c1ccc2[n-]c(C)nc(=O)c2c1 (3D coordinates assigned)
C=c1/c(=C\c2[n-]c(=O)[n-]c2O)cc(C)n1-c1ccc2[n-]c(C)nc(=O)c2c1 (optimized conformer: 122.97607936223586 kcal/mol)

>  <smiles>  (76) 
C=c1c(=Cc2[nH]c(=O)[nH]c2O)cc(C)n1-c1ccc2[nH]c(C)nc(=O)c2c1

>  <score_type>  (76) 
oracle

>  <origin>  (76) 
adg

>  <m_score__min__energy>  (76) 
-13.52

>  <m_primary>  (76) 
energy

$$$$
76:0
     RDKit          3D

 53 56  0  0  0  0  0  0  0  0999 V2000
   60.4340   29.6410   46.5560 C   0  0  0  0  0  0  0  0  0  0  0  0
   59.6060   30.5960   46.1030 C   0  0  0  0  0  0  0  0  0  0  0  0
   58.6340   30.4850   45.0920 C   0  0  0  0  0  0  0  0  0  0  0  0
   58.2050   29.4220   44.3830 C   0  0  0  0  0  0  0  0  0  0  0  0
   57.5530   28.2230   44.9440 C   0  0  0  0  0  0  0  0  0  0  0  0
   56.1760   28.2150   45.2370 C   0  0  0  0  0  0  0  0  0  0  0  0
   55.3590   29.3130   44.9600 O   0  0  0  0  0  0  0  0  0  0  0  0
   55.6150   27.1110   45.7950 N   0  0  0  0  0  0  0  0  0  0  0  0
   56.3580   26.0130   46.0890 C   0  0  0  0  0  0  0  0  0  0  0  0
   55.8110   25.0040   46.6020 O   0  0  0  0  0  0  0  0  0  0  0  0
   57.6900   26.0060   45.8340 N   0  0  0  0  0  0  0  0  0  0  0  0
   58.3040   27.0820   45.2790 C   0  0  0  0  0  0  0  0  0  0  0  0
   59.5460   27.0460   45.0710 O   0  0  0  0  0  0  0  0  0  0  0  0
   58.1060   31.7550   44.9210 C   0  0  0  0  0  0  0  0  0  0  0  0
   58.7350   32.5780   45.8300 C   0  0  0  0  0  0  0  0  0  0  0  0
   58.4430   34.0360   46.0100 C   0  0  0  0  0  0  0  0  0  0  0  0
   59.6360   31.8780   46.5510 N   0  0  0  0  0  0  0  0  0  0  0  0
   60.4890   32.4260   47.5710 C   0  0  0  0  0  0  0  0  0  0  0  0
   60.2850   32.0800   48.9130 C   0  0  0  0  0  0  0  0  0  0  0  0
   61.0990   32.6210   49.9110 C   0  0  0  0  0  0  0  0  0  0  0  0
   62.1270   33.5180   49.5770 C   0  0  0  0  0  0  0  0  0  0  0  0
   62.9920   34.1250   50.6510 C   0  0  0  0  0  0  0  0  0  0  0  0
   64.4220   33.8230   50.4140 N   0  0  0  0  0  0  0  0  0  0  0  0
   65.2710   34.0940   51.5940 C   0  0  0  0  0  0  0  0  0  0  0  0
   65.0600   33.0600   52.7210 C   0  0  0  0  0  0  0  0  0  0  0  0
   64.7270   31.7120   52.2260 N   0  0  0  0  0  0  0  0  0  0  0  0
   65.2510   31.4750   50.8790 C   0  0  0  0  0  0  0  0  0  0  0  0
   64.6370   32.4600   49.8640 C   0  0  0  0  0  0  0  0  0  0  0  0
   62.3230   33.8710   48.2340 C   0  0  0  0  0  0  0  0  0  0  0  0
   61.5090   33.3290   47.2350 C   0  0  0  0  0  0  0  0  0  0  0  0
   61.7020   33.6940   45.9420 F   0  0  0  0  0  0  0  0  0  0  0  0
   61.1506   29.8698   47.3585 H   0  0  0  0  0  0  0  0  0  0  0  0
   60.3957   28.6299   46.1246 H   0  0  0  0  0  0  0  0  0  0  0  0
   58.3536   29.4507   43.2935 H   0  0  0  0  0  0  0  0  0  0  0  0
   55.1970   30.0570   45.6270 H   0  0  0  0  0  0  0  0  0  0  0  0
   57.3319   32.0500   44.1972 H   0  0  0  0  0  0  0  0  0  0  0  0
   58.3960   34.2707   47.0836 H   0  0  0  0  0  0  0  0  0  0  0  0
   59.2399   34.6304   45.5393 H   0  0  0  0  0  0  0  0  0  0  0  0
   57.4786   34.2777   45.5393 H   0  0  0  0  0  0  0  0  0  0  0  0
   59.4806   31.3795   49.1820 H   0  0  0  0  0  0  0  0  0  0  0  0
   60.9343   32.3435   50.9626 H   0  0  0  0  0  0  0  0  0  0  0  0
   62.8503   35.2158   50.6534 H   0  0  0  0  0  0  0  0  0  0  0  0
   62.6992   33.6964   51.6208 H   0  0  0  0  0  0  0  0  0  0  0  0
   66.3260   34.0679   51.2836 H   0  0  0  0  0  0  0  0  0  0  0  0
   64.9913   35.0819   51.9886 H   0  0  0  0  0  0  0  0  0  0  0  0
   65.9854   32.9953   53.3122 H   0  0  0  0  0  0  0  0  0  0  0  0
   64.2053   33.4050   53.3214 H   0  0  0  0  0  0  0  0  0  0  0  0
   63.6870   31.5950   52.2050 H   0  0  0  0  0  0  0  0  0  0  0  0
   66.3432   31.6049   50.8903 H   0  0  0  0  0  0  0  0  0  0  0  0
   64.9869   30.4510   50.5762 H   0  0  0  0  0  0  0  0  0  0  0  0
   65.3138   32.5362   49.0002 H   0  0  0  0  0  0  0  0  0  0  0  0
   63.6488   32.0640   49.5873 H   0  0  0  0  0  0  0  0  0  0  0  0
   63.1215   34.5782   47.9652 H   0  0  0  0  0  0  0  0  0  0  0  0
  1  2  2  0
  2  3  1  0
  3  4  2  3
  4  5  1  0
  5  6  2  0
  6  7  1  0
  6  8  1  0
  8  9  1  0
  9 10  2  0
  9 11  1  0
 11 12  1  0
 12 13  2  0
  3 14  1  0
 14 15  2  0
 15 16  1  0
 15 17  1  0
 17 18  1  0
 18 19  2  0
 19 20  1  0
 20 21  2  0
 21 22  1  0
 22 23  1  0
 23 24  1  0
 24 25  1  0
 25 26  1  0
 26 27  1  0
 27 28  1  0
 21 29  1  0
 29 30  2  0
 30 31  1  0
 17  2  1  0
 30 18  1  0
 12  5  1  0
 28 23  1  0
  1 32  1  0
  1 33  1  0
  4 34  1  0
  7 35  1  0
 14 36  1  0
 16 37  1  0
 16 38  1  0
 16 39  1  0
 19 40  1  0
 20 41  1  0
 22 42  1  0
 22 43  1  0
 24 44  1  0
 24 45  1  0
 25 46  1  0
 25 47  1  0
 26 48  1  0
 27 49  1  0
 27 50  1  0
 28 51  1  0
 28 52  1  0
 29 53  1  0
M  CHG  2   8  -1  11  -1
M  END
>  <UniqueID>  (77) 
75

>  <SMILES>  (77) 
C=c1c(=Cc2c(O)[n-]c(=O)[n-]c2=O)cc(C)n1-c1ccc(CN2CCNCC2)cc1F

>  <Energy>  (77) 
116.98271793449932

>  <Genealogy>  (77) 
C=c1c(=Cc2c(O)[n-]c(=O)[n-]c2=O)cc(C)n1-c1ccc(CN2CCNCC2)cc1F (protonated)
C=c1c(=Cc2c(O)[n-]c(=O)[n-]c2=O)cc(C)n1-c1ccc(CN2CCNCC2)cc1F (3D coordinates assigned)
C=c1c(=Cc2c(O)[n-]c(=O)[n-]c2=O)cc(C)n1-c1ccc(CN2CCNCC2)cc1F (nonaromatic ring conformer: 116.98271793449932 kcal/mol)

>  <smiles>  (77) 
C=c1c(=Cc2c(O)[nH]c(=O)[nH]c2=O)cc(C)n1-c1ccc(CN2CCNCC2)cc1F

>  <score_type>  (77) 
oracle

>  <origin>  (77) 
adg

>  <m_score__min__energy>  (77) 
-13.48

>  <m_primary>  (77) 
energy

$$$$
77:0
     RDKit          3D

 54 56  0  0  0  0  0  0  0  0999 V2000
   55.1450   28.0030   44.9580 H   0  0  0  0  0  0  0  0  0  0  0  0
   55.4280   28.9740   45.0090 O   0  0  0  0  0  0  0  0  0  0  0  0
   56.7270   29.3360   45.3630 C   0  0  0  0  0  0  0  0  0  0  0  0
   57.4930   28.5160   46.2030 C   0  0  0  0  0  0  0  0  0  0  0  0
   57.0693   27.5771   46.5890 H   0  0  0  0  0  0  0  0  0  0  0  0
   58.7940   28.8890   46.5510 C   0  0  0  0  0  0  0  0  0  0  0  0
   59.3984   28.2333   47.1950 H   0  0  0  0  0  0  0  0  0  0  0  0
   59.3330   30.0990   46.0810 C   0  0  0  0  0  0  0  0  0  0  0  0
   60.7250   30.4820   46.3910 C   0  0  0  0  0  0  0  0  0  0  0  0
   61.5125   30.1007   45.7243 H   0  0  0  0  0  0  0  0  0  0  0  0
   59.8010   32.9560   50.5350 C   0  0  0  0  0  0  0  0  0  0  0  0
   60.1680   31.9620   48.3290 C   0  0  0  0  0  0  0  0  0  0  0  0
   58.9630   32.1360   47.9940 O   0  0  0  0  0  0  0  0  0  0  0  0
   60.6730   32.5480   49.5890 C   0  0  0  0  0  0  0  0  0  0  0  0
   61.1130   31.2610   47.4240 C   0  0  0  0  0  0  0  0  0  0  0  0
   59.8922   33.9865   50.9089 H   0  0  0  0  0  0  0  0  0  0  0  0
   58.7350   32.1100   51.0990 C   0  0  0  0  0  0  0  0  0  0  0  0
   57.6740   32.7010   51.7910 C   0  0  0  0  0  0  0  0  0  0  0  0
   57.6247   33.7959   51.8845 H   0  0  0  0  0  0  0  0  0  0  0  0
   56.6750   31.9090   52.3650 C   0  0  0  0  0  0  0  0  0  0  0  0
   55.8386   32.3890   52.8943 H   0  0  0  0  0  0  0  0  0  0  0  0
   56.7260   30.5020   52.2740 C   0  0  0  0  0  0  0  0  0  0  0  0
   55.6880   29.6780   52.8660 N   0  0  0  0  0  0  0  0  0  0  0  0
   54.2750   29.9080   52.5420 C   0  0  0  0  0  0  0  0  0  0  0  0
   53.6961   30.0022   53.4726 H   0  0  0  0  0  0  0  0  0  0  0  0
   54.1793   30.8335   51.9553 H   0  0  0  0  0  0  0  0  0  0  0  0
   53.8907   29.0606   51.9553 H   0  0  0  0  0  0  0  0  0  0  0  0
   56.0330   28.5950   53.7960 C   0  0  0  0  0  0  0  0  0  0  0  0
   55.9198   28.9504   54.8308 H   0  0  0  0  0  0  0  0  0  0  0  0
   55.3630   27.7391   53.6269 H   0  0  0  0  0  0  0  0  0  0  0  0
   57.0746   28.2843   53.6269 H   0  0  0  0  0  0  0  0  0  0  0  0
   57.8180   29.9170   51.5960 C   0  0  0  0  0  0  0  0  0  0  0  0
   57.8847   28.8219   51.5171 H   0  0  0  0  0  0  0  0  0  0  0  0
   58.8150   30.7120   51.0240 C   0  0  0  0  0  0  0  0  0  0  0  0
   59.6663   30.2390   50.5126 H   0  0  0  0  0  0  0  0  0  0  0  0
   62.1720   32.5250   49.8310 C   0  0  0  0  0  0  0  0  0  0  0  0
   62.4459   33.4135   50.4188 H   0  0  0  0  0  0  0  0  0  0  0  0
   62.4049   31.5919   50.3648 H   0  0  0  0  0  0  0  0  0  0  0  0
   62.9650   32.5270   48.5700 N   0  0  0  0  0  0  0  0  0  0  0  0
   64.4010   32.4070   48.9240 C   0  0  0  0  0  0  0  0  0  0  0  0
   64.5093   32.3980   50.0186 H   0  0  0  0  0  0  0  0  0  0  0  0
   64.8043   31.4720   48.5079 H   0  0  0  0  0  0  0  0  0  0  0  0
   64.9539   33.2621   48.5079 H   0  0  0  0  0  0  0  0  0  0  0  0
   62.7860   33.8060   47.8340 C   0  0  0  0  0  0  0  0  0  0  0  0
   62.6707   34.6300   48.5535 H   0  0  0  0  0  0  0  0  0  0  0  0
   63.6669   33.9917   47.2019 H   0  0  0  0  0  0  0  0  0  0  0  0
   61.8880   33.7427   47.2019 H   0  0  0  0  0  0  0  0  0  0  0  0
   62.5990   31.3660   47.7110 C   0  0  0  0  0  0  0  0  0  0  0  0
   63.1313   31.4619   46.7531 H   0  0  0  0  0  0  0  0  0  0  0  0
   62.8839   30.4575   48.2619 H   0  0  0  0  0  0  0  0  0  0  0  0
   58.5730   30.9010   45.2170 C   0  0  0  0  0  0  0  0  0  0  0  0
   59.0025   31.8287   44.8109 H   0  0  0  0  0  0  0  0  0  0  0  0
   57.2720   30.5260   44.8700 C   0  0  0  0  0  0  0  0  0  0  0  0
   56.6747   31.1690   44.2069 H   0  0  0  0  0  0  0  0  0  0  0  0
  1  2  1  0
  2  3  1  0
  3  4  2  0
  4  5  1  0
  4  6  1  0
  6  7  1  0
  6  8  2  0
  8  9  1  0
  9 10  1  0
  9 11  2  0
 11 12  1  0
 12 13  2  0
 12 14  1  0
 14 15  2  0
 15 16  1  0
 15 17  1  0
 17 18  2  0
 18 19  1  0
 18 20  1  0
 20 21  1  0
 20 22  2  0
 22 23  1  0
 23 24  1  0
 24 25  1  0
 24 26  1  0
 24 27  1  0
 23 28  1  0
 28 29  1  0
 28 30  1  0
 28 31  1  0
 22 32  1  0
 32 33  1  0
 32 34  2  0
 34 35  1  0
 14 36  1  0
 36 37  1  0
 36 38  1  0
 36 39  1  0
 39 40  1  0
 40 41  1  0
 40 42  1  0
 40 43  1  0
 39 44  1  0
 44 45  1  0
 44 46  1  0
 44 47  1  0
 39 48  1  0
 48 49  1  0
 48 50  1  0
  8 51  1  0
 51 52  1  0
 51 53  2  0
 53 54  1  0
 53  3  1  0
 48 11  1  0
 34 17  1  0
M  CHG  1  39   1
M  END
>  <UniqueID>  (78) 
76

>  <SMILES>  (78) 
CN(C)c1ccc(/C=C2\C[N+](C)(C)C/C(=C/c3ccc(O)cc3)C2=O)cc1

>  <Energy>  (78) 
82.85655136184172

>  <Genealogy>  (78) 
CN(C)c1ccc(/C=C2\C[N+](C)(C)C/C(=C/c3ccc(O)cc3)C2=O)cc1 (cis-trans isomerization)
CN(C)c1ccc(/C=C2\C[N+](C)(C)C/C(=C/c3ccc(O)cc3)C2=O)cc1 (3D coordinates assigned)
CN(C)c1ccc(/C=C2\C[N+](C)(C)C/C(=C/c3ccc(O)cc3)C2=O)cc1 (nonaromatic ring conformer: 82.85655136184172 kcal/mol)

>  <smiles>  (78) 
CN(C)c1ccc(C=C2C[N+](C)(C)CC(=Cc3ccc(O)cc3)C2=O)cc1

>  <score_type>  (78) 
oracle

>  <origin>  (78) 
adg

>  <m_score__min__energy>  (78) 
-6.96

>  <m_primary>  (78) 
energy

$$$$
78:0
     RDKit          3D

 36 37  0  0  0  0  0  0  0  0999 V2000
   64.5240   32.8780   49.0190 C   0  0  0  0  0  0  0  0  0  0  0  0
   63.1050   33.0810   47.9630 S   0  0  0  0  0  0  0  0  0  0  0  0
   63.3880   34.1890   46.9880 O   0  0  0  0  0  0  0  0  0  0  0  0
   62.8630   31.8090   47.1980 O   0  0  0  0  0  0  0  0  0  0  0  0
   61.7120   33.5170   48.9160 N   0  0  0  0  0  0  0  0  0  0  0  0
   60.8610   34.4880   48.2230 C   0  0  0  0  0  0  0  0  0  0  0  0
   59.8480   33.7980   47.3480 C   0  0  0  0  0  0  0  0  0  0  0  0
   59.4290   32.4900   47.6380 C   0  0  0  0  0  0  0  0  0  0  0  0
   58.4770   31.8600   46.8330 C   0  0  0  0  0  0  0  0  0  0  0  0
   57.9400   32.5240   45.7190 C   0  0  0  0  0  0  0  0  0  0  0  0
   56.9380   31.8370   44.8270 C   0  0  0  0  0  0  0  0  0  0  0  0
   57.2280   30.4080   44.7260 N   0  0  0  0  0  0  0  0  0  0  0  0
   56.2860   29.3440   44.9250 C   0  0  0  0  0  0  0  0  0  0  0  0
   55.1220   29.4700   44.4660 O   0  0  0  0  0  0  0  0  0  0  0  0
   56.6500   28.0890   45.6050 C   0  0  0  0  0  0  0  0  0  0  0  0
   57.9090   27.9220   46.1940 C   0  0  0  0  0  0  0  0  0  0  0  0
   58.1960   26.7070   46.8190 C   0  0  0  0  0  0  0  0  0  0  0  0
   59.3210   26.5190   47.3500 O   0  0  0  0  0  0  0  0  0  0  0  0
   57.2570   25.7260   46.8560 N   0  0  0  0  0  0  0  0  0  0  0  0
   56.0320   25.9120   46.2990 C   0  0  0  0  0  0  0  0  0  0  0  0
   55.1730   24.9940   46.3490 O   0  0  0  0  0  0  0  0  0  0  0  0
   55.7350   27.0870   45.6850 N   0  0  0  0  0  0  0  0  0  0  0  0
   58.3590   33.8320   45.4290 C   0  0  0  0  0  0  0  0  0  0  0  0
   59.3080   34.4630   46.2360 C   0  0  0  0  0  0  0  0  0  0  0  0
   64.2073   32.9233   50.0715 H   0  0  0  0  0  0  0  0  0  0  0  0
   64.9935   31.9035   48.8190 H   0  0  0  0  0  0  0  0  0  0  0  0
   65.2479   33.6817   48.8190 H   0  0  0  0  0  0  0  0  0  0  0  0
   60.3330   35.0995   48.9695 H   0  0  0  0  0  0  0  0  0  0  0  0
   61.4992   35.1184   47.5863 H   0  0  0  0  0  0  0  0  0  0  0  0
   59.8523   31.9587   48.5032 H   0  0  0  0  0  0  0  0  0  0  0  0
   58.1466   30.8387   47.0732 H   0  0  0  0  0  0  0  0  0  0  0  0
   55.9299   31.9718   45.2460 H   0  0  0  0  0  0  0  0  0  0  0  0
   56.9972   32.2810   43.8223 H   0  0  0  0  0  0  0  0  0  0  0  0
   58.6552   28.7297   46.1650 H   0  0  0  0  0  0  0  0  0  0  0  0
   57.9379   34.3623   44.5621 H   0  0  0  0  0  0  0  0  0  0  0  0
   59.6341   35.4865   45.9991 H   0  0  0  0  0  0  0  0  0  0  0  0
  1  2  1  0
  2  3  2  0
  2  4  2  0
  2  5  1  0
  5  6  1  0
  6  7  1  0
  7  8  2  0
  8  9  1  0
  9 10  2  0
 10 11  1  0
 11 12  1  0
 12 13  1  0
 13 14  2  0
 13 15  1  0
 15 16  2  0
 16 17  1  0
 17 18  2  0
 17 19  1  0
 19 20  1  0
 20 21  2  0
 20 22  1  0
 10 23  1  0
 23 24  2  0
 24  7  1  0
 22 15  1  0
  1 25  1  0
  1 26  1  0
  1 27  1  0
  6 28  1  0
  6 29  1  0
  8 30  1  0
  9 31  1  0
 11 32  1  0
 11 33  1  0
 16 34  1  0
 23 35  1  0
 24 36  1  0
M  CHG  4   5  -1  12  -1  19  -1  22  -1
M  END
>  <UniqueID>  (79) 
77

>  <SMILES>  (79) 
CS(=O)(=O)[N-]Cc1ccc(C[N-]C(=O)c2cc(=O)[n-]c(=O)[n-]2)cc1

>  <Energy>  (79) 
33.92843239020512

>  <Genealogy>  (79) 
CS(=O)(=O)[N-]Cc1ccc(C[N-]C(=O)c2cc(=O)[n-]c(=O)[n-]2)cc1 (protonated)
CS(=O)(=O)[N-]Cc1ccc(C[N-]C(=O)c2cc(=O)[n-]c(=O)[n-]2)cc1 (3D coordinates assigned)
CS(=O)(=O)[N-]Cc1ccc(C[N-]C(=O)c2cc(=O)[n-]c(=O)[n-]2)cc1 (optimized conformer: 33.92843239020512 kcal/mol)

>  <smiles>  (79) 
CS(=O)(=O)NCc1ccc(CNC(=O)c2cc(=O)[nH]c(=O)[nH]2)cc1

>  <score_type>  (79) 
oracle

>  <origin>  (79) 
adg

>  <m_score__min__energy>  (79) 
-13.99

>  <m_primary>  (79) 
energy

$$$$
79:0
     RDKit          3D

 38 40  0  0  0  0  0  0  0  0999 V2000
   65.0546   33.3327   49.5238 H   0  0  0  0  0  0  0  0  0  0  0  0
   64.1990   33.0710   48.8840 C   0  0  0  0  0  0  0  0  0  0  0  0
   63.4780   31.9310   49.0620 N   0  0  0  0  0  0  0  0  0  0  0  0
   62.4800   31.8240   48.1600 C   0  0  0  0  0  0  0  0  0  0  0  0
   61.6550   30.8190   48.1660 N   0  0  0  0  0  0  0  0  0  0  0  0
   60.7640   30.4090   47.1140 C   0  0  0  0  0  0  0  0  0  0  0  0
   61.1960   29.8230   46.0850 O   0  0  0  0  0  0  0  0  0  0  0  0
   59.2840   30.6440   47.2370 C   0  0  0  0  0  0  0  0  0  0  0  0
   59.0707   31.0263   48.2461 H   0  0  0  0  0  0  0  0  0  0  0  0
   58.7779   29.6852   47.0509 H   0  0  0  0  0  0  0  0  0  0  0  0
   58.7670   31.6390   46.2230 C   0  0  0  0  0  0  0  0  0  0  0  0
   58.4700   32.9390   46.6780 C   0  0  0  0  0  0  0  0  0  0  0  0
   58.6393   33.1960   47.7341 H   0  0  0  0  0  0  0  0  0  0  0  0
   57.9650   33.9030   45.8090 C   0  0  0  0  0  0  0  0  0  0  0  0
   57.7437   34.9146   46.1800 H   0  0  0  0  0  0  0  0  0  0  0  0
   57.7400   33.5890   44.4730 C   0  0  0  0  0  0  0  0  0  0  0  0
   57.3259   34.3476   43.7925 H   0  0  0  0  0  0  0  0  0  0  0  0
   58.0390   32.3130   43.9950 C   0  0  0  0  0  0  0  0  0  0  0  0
   57.8389   32.0697   42.9411 H   0  0  0  0  0  0  0  0  0  0  0  0
   58.5940   31.3290   44.8410 C   0  0  0  0  0  0  0  0  0  0  0  0
   58.8840   30.0170   44.2910 N   0  0  0  0  0  0  0  0  0  0  0  0
   59.8710   29.7350   44.4980 H   0  0  0  0  0  0  0  0  0  0  0  0
   58.8310   30.0920   43.2500 H   0  0  0  0  0  0  0  0  0  0  0  0
   58.0190   28.9670   44.8050 C   0  0  0  0  0  0  0  0  0  0  0  0
   56.6010   29.0460   44.7350 C   0  0  0  0  0  0  0  0  0  0  0  0
   55.8790   30.1940   44.0980 C   0  0  0  0  0  0  0  0  0  0  0  0
   55.4676   30.8482   44.8808 H   0  0  0  0  0  0  0  0  0  0  0  0
   56.5800   30.7665   43.4728 H   0  0  0  0  0  0  0  0  0  0  0  0
   55.0594   29.8102   43.4728 H   0  0  0  0  0  0  0  0  0  0  0  0
   55.8470   28.0390   45.2500 N   0  0  0  0  0  0  0  0  0  0  0  0
   56.4080   26.9750   45.8720 C   0  0  0  0  0  0  0  0  0  0  0  0
   55.6780   26.0590   46.3330 O   0  0  0  0  0  0  0  0  0  0  0  0
   57.7530   26.9020   46.0070 N   0  0  0  0  0  0  0  0  0  0  0  0
   58.5640   27.8680   45.5090 C   0  0  0  0  0  0  0  0  0  0  0  0
   59.8070   27.7680   45.6890 O   0  0  0  0  0  0  0  0  0  0  0  0
   62.4550   33.1430   47.1070 S   0  0  0  0  0  0  0  0  0  0  0  0
   63.7780   33.8810   47.8370 C   0  0  0  0  0  0  0  0  0  0  0  0
   64.2308   34.8378   47.5378 H   0  0  0  0  0  0  0  0  0  0  0  0
  1  2  1  0
  2  3  1  0
  3  4  1  0
  4  5  2  0
  5  6  1  0
  6  7  2  0
  6  8  1  0
  8  9  1  0
  8 10  1  0
  8 11  1  0
 11 12  2  0
 12 13  1  0
 12 14  1  0
 14 15  1  0
 14 16  2  0
 16 17  1  0
 16 18  1  0
 18 19  1  0
 18 20  2  0
 20 21  1  0
 21 22  1  0
 21 23  1  0
 21 24  1  0
 24 25  2  0
 25 26  1  0
 26 27  1  0
 26 28  1  0
 26 29  1  0
 25 30  1  0
 30 31  1  0
 31 32  2  0
 31 33  1  0
 33 34  1  0
 34 35  2  0
  4 36  1  0
 36 37  1  0
 37 38  1  0
 37  2  2  0
 20 11  1  0
 34 24  1  0
M  CHG  4   3  -1  21   1  30  -1  33  -1
M  END
>  <UniqueID>  (80) 
78

>  <SMILES>  (80) 
Cc1[n-]c(=O)[n-]c(=O)c1[NH2+]c1ccccc1CC(=O)/N=c1/[n-]ccs1

>  <Energy>  (80) 
79.94826113654516

>  <Genealogy>  (80) 
Cc1[n-]c(=O)[n-]c(=O)c1[NH2+]c1ccccc1CC(=O)N=c1[n-]ccs1 (protonated)
Cc1[n-]c(=O)[n-]c(=O)c1[NH2+]c1ccccc1CC(=O)/N=c1/[n-]ccs1 (cis-trans isomerization)
Cc1[n-]c(=O)[n-]c(=O)c1[NH2+]c1ccccc1CC(=O)/N=c1/[n-]ccs1 (3D coordinates assigned)
Cc1[n-]c(=O)[n-]c(=O)c1[NH2+]c1ccccc1CC(=O)/N=c1/[n-]ccs1 (optimized conformer: 79.94826113654516 kcal/mol)

>  <smiles>  (80) 
Cc1[nH]c(=O)[nH]c(=O)c1Nc1ccccc1CC(=O)N=c1[nH]ccs1

>  <score_type>  (80) 
oracle

>  <origin>  (80) 
adg

>  <m_score__min__energy>  (80) 
-12.5

>  <m_primary>  (80) 
energy

$$$$
80:0
     RDKit          3D

 71 76  0  0  0  0  0  0  0  0999 V2000
   60.6210   32.9140   46.3960 C   0  0  0  0  0  0  0  0  0  0  0  0
   59.1080   32.6820   46.1870 C   0  0  0  0  0  0  0  0  0  0  0  0
   58.6130   33.6510   45.0990 C   0  0  0  0  0  0  0  0  0  0  0  0
   58.8130   31.2390   45.7480 C   0  0  0  0  0  0  0  0  0  0  0  0
   59.1330   30.1620   46.7760 C   0  0  0  0  0  0  0  0  0  0  0  0
   59.3610   28.8360   46.3250 C   0  0  0  0  0  0  0  0  0  0  0  0
   59.2930   28.4980   44.9190 C   0  0  0  0  0  0  0  0  0  0  0  0
   59.2390   28.2280   43.7950 N   0  0  0  0  0  0  0  0  0  0  0  0
   59.6490   27.8270   47.2580 C   0  0  0  0  0  0  0  0  0  0  0  0
   60.0820   26.1570   46.7540 S   0  0  0  0  0  0  0  0  0  0  0  0
   58.3590   25.6820   46.6110 C   0  0  0  0  0  0  0  0  0  0  0  0
   57.7500   24.9350   47.6270 C   0  0  0  0  0  0  0  0  0  0  0  0
   56.4260   24.5110   47.4870 C   0  0  0  0  0  0  0  0  0  0  0  0
   55.6920   24.8410   46.3410 C   0  0  0  0  0  0  0  0  0  0  0  0
   54.3600   24.3270   46.1980 N   0  0  0  0  0  0  0  0  0  0  0  0
   53.9930   23.0480   45.6660 C   0  0  0  0  0  0  0  0  0  0  0  0
   53.0120   22.9770   44.8820 O   0  0  0  0  0  0  0  0  0  0  0  0
   54.7670   21.7990   45.9990 C   0  0  0  0  0  0  0  0  0  0  0  0
   56.1640   21.8740   45.4310 C   0  0  0  0  0  0  0  0  0  0  0  0
   57.2400   21.3760   46.1840 C   0  0  0  0  0  0  0  0  0  0  0  0
   58.5370   21.4780   45.6840 C   0  0  0  0  0  0  0  0  0  0  0  0
   58.7540   22.0790   44.4470 C   0  0  0  0  0  0  0  0  0  0  0  0
   57.6680   22.5760   43.7250 C   0  0  0  0  0  0  0  0  0  0  0  0
   56.4000   22.4730   44.2210 N   0  0  0  0  0  0  0  0  0  0  0  0
   55.3450   22.9840   43.4920 O   0  0  0  0  0  0  0  0  0  0  0  0
   56.3110   25.5830   45.3190 C   0  0  0  0  0  0  0  0  0  0  0  0
   57.6330   26.0120   45.4610 C   0  0  0  0  0  0  0  0  0  0  0  0
   59.6560   28.1150   48.5800 N   0  0  0  0  0  0  0  0  0  0  0  0
   59.3970   29.3540   49.0600 C   0  0  0  0  0  0  0  0  0  0  0  0
   59.4760   29.5660   50.4730 N   0  0  0  0  0  0  0  0  0  0  0  0
   58.2560   29.9100   51.2310 C   0  0  0  0  0  0  0  0  0  0  0  0
   58.1870   29.1610   52.5860 C   0  0  0  0  0  0  0  0  0  0  0  0
   59.5940   28.8620   53.1510 C   0  0  1  0  0  0  0  0  0  0  0  0
   60.3800   28.0700   52.1220 C   0  0  0  0  0  0  0  0  0  0  0  0
   60.7070   29.1940   51.1920 C   0  0  2  0  0  0  0  0  0  0  0  0
   61.0690   30.2860   52.1920 C   0  0  0  0  0  0  0  0  0  0  0  0
   60.2840   30.0800   53.3520 O   0  0  0  0  0  0  0  0  0  0  0  0
   59.1170   30.4200   48.1760 C   0  0  0  0  0  0  0  0  0  0  0  0
   58.9530   31.8050   48.7710 C   0  0  0  0  0  0  0  0  0  0  0  0
   58.1470   33.0330   47.6970 S   0  0  0  0  0  0  0  0  0  0  0  0
   60.8414   32.9478   47.4732 H   0  0  0  0  0  0  0  0  0  0  0  0
   61.1856   32.0919   45.9318 H   0  0  0  0  0  0  0  0  0  0  0  0
   60.9133   33.8675   45.9318 H   0  0  0  0  0  0  0  0  0  0  0  0
   58.1615   34.5349   45.5731 H   0  0  0  0  0  0  0  0  0  0  0  0
   59.4617   33.9640   44.4731 H   0  0  0  0  0  0  0  0  0  0  0  0
   57.8620   33.1468   44.4731 H   0  0  0  0  0  0  0  0  0  0  0  0
   57.7418   31.1703   45.5076 H   0  0  0  0  0  0  0  0  0  0  0  0
   59.4736   31.0434   44.8905 H   0  0  0  0  0  0  0  0  0  0  0  0
   58.3147   24.6817   48.5364 H   0  0  0  0  0  0  0  0  0  0  0  0
   55.9569   23.9137   48.2827 H   0  0  0  0  0  0  0  0  0  0  0  0
   54.8262   21.6907   47.0921 H   0  0  0  0  0  0  0  0  0  0  0  0
   54.2506   20.9331   45.5590 H   0  0  0  0  0  0  0  0  0  0  0  0
   57.0600   20.9080   47.1631 H   0  0  0  0  0  0  0  0  0  0  0  0
   59.3852   21.0855   46.2640 H   0  0  0  0  0  0  0  0  0  0  0  0
   59.7734   22.1614   44.0420 H   0  0  0  0  0  0  0  0  0  0  0  0
   57.8348   23.0545   42.7487 H   0  0  0  0  0  0  0  0  0  0  0  0
   54.7610   23.7310   43.8530 H   0  0  0  0  0  0  0  0  0  0  0  0
   55.7517   25.8267   44.4037 H   0  0  0  0  0  0  0  0  0  0  0  0
   58.1042   26.6104   44.6673 H   0  0  0  0  0  0  0  0  0  0  0  0
   58.2500   30.9932   51.4227 H   0  0  0  0  0  0  0  0  0  0  0  0
   57.3852   29.6088   50.6303 H   0  0  0  0  0  0  0  0  0  0  0  0
   57.6383   29.7829   53.3086 H   0  0  0  0  0  0  0  0  0  0  0  0
   57.6753   28.2016   52.4197 H   0  0  0  0  0  0  0  0  0  0  0  0
   59.4943   28.3045   54.0940 H   0  0  0  0  0  0  0  0  0  0  0  0
   61.2821   27.6100   52.5517 H   0  0  0  0  0  0  0  0  0  0  0  0
   59.8574   27.2119   51.6741 H   0  0  0  0  0  0  0  0  0  0  0  0
   61.4836   28.9876   50.4408 H   0  0  0  0  0  0  0  0  0  0  0  0
   62.1375   30.2232   52.4459 H   0  0  0  0  0  0  0  0  0  0  0  0
   60.8748   31.2811   51.7653 H   0  0  0  0  0  0  0  0  0  0  0  0
   58.3517   31.7105   49.6872 H   0  0  0  0  0  0  0  0  0  0  0  0
   59.9724   32.1803   48.9441 H   0  0  0  0  0  0  0  0  0  0  0  0
  1  2  1  0
  2  3  1  0
  2  4  1  0
  4  5  1  0
  5  6  2  0
  6  7  1  0
  7  8  3  0
  6  9  1  0
  9 10  1  0
 10 11  1  0
 11 12  2  0
 12 13  1  0
 13 14  2  0
 14 15  1  0
 15 16  1  0
 16 17  2  0
 16 18  1  0
 18 19  1  0
 19 20  2  0
 20 21  1  0
 21 22  2  0
 22 23  1  0
 23 24  2  0
 24 25  1  0
 14 26  1  0
 26 27  2  0
  9 28  2  0
 28 29  1  0
 29 30  1  0
 30 31  1  0
 31 32  1  0
 32 33  1  0
 33 34  1  0
 34 35  1  0
 35 36  1  0
 36 37  1  0
 29 38  2  0
 38 39  1  0
 39 40  1  0
 40  2  1  0
 38  5  1  0
 27 11  1  0
 35 30  1  0
 24 19  1  0
 37 33  1  0
  1 41  1  0
  1 42  1  0
  1 43  1  0
  3 44  1  0
  3 45  1  0
  3 46  1  0
  4 47  1  0
  4 48  1  0
 12 49  1  0
 13 50  1  0
 18 51  1  0
 18 52  1  0
 20 53  1  0
 21 54  1  0
 22 55  1  0
 23 56  1  0
 25 57  1  0
 26 58  1  0
 27 59  1  0
 31 60  1  0
 31 61  1  0
 32 62  1  0
 32 63  1  0
 33 64  1  1
 34 65  1  0
 34 66  1  0
 35 67  1  6
 36 68  1  0
 36 69  1  0
 39 70  1  0
 39 71  1  0
M  CHG  2  15  -1  24   1
M  END
>  <UniqueID>  (81) 
79

>  <SMILES>  (81) 
CC1(C)Cc2c(C#N)c(Sc3ccc([N-]C(=O)Cc4cccc[n+]4O)cc3)nc(N3CC[C@H]4C[C@@H]3CO4)c2CS1

>  <Energy>  (81) 
96.12097906673232

>  <Genealogy>  (81) 
CC1(C)Cc2c(C#N)c(Sc3ccc([N-]C(=O)Cc4cccc[n+]4O)cc3)nc(N3CCC4CC3CO4)c2CS1 (protonated)
CC1(C)Cc2c(C#N)c(Sc3ccc([N-]C(=O)Cc4cccc[n+]4O)cc3)nc(N3CC[C@H]4C[C@@H]3CO4)c2CS1 (chirality)
CC1(C)Cc2c(C#N)c(Sc3ccc([N-]C(=O)Cc4cccc[n+]4O)cc3)nc(N3CC[C@H]4C[C@@H]3CO4)c2CS1 (3D coordinates assigned)
CC1(C)Cc2c(C#N)c(Sc3ccc([N-]C(=O)Cc4cccc[n+]4O)cc3)nc(N3CC[C@H]4C[C@@H]3CO4)c2CS1 (nonaromatic ring conformer: 96.12097906673232 kcal/mol)

>  <smiles>  (81) 
CC1(C)Cc2c(C#N)c(Sc3ccc(NC(=O)Cc4cccc[n+]4[O-])cc3)nc(N3CCC4CC3CO4)c2CS1

>  <score_type>  (81) 
oracle

>  <origin>  (81) 
adg

>  <m_score__min__energy>  (81) 
-11.68

>  <m_primary>  (81) 
energy

$$$$
81:0
     RDKit          3D

 52 55  0  0  0  0  0  0  0  0999 V2000
   59.9170   35.2570   47.2960 C   0  0  0  0  0  0  0  0  0  0  0  0
   59.2960   34.2730   46.3510 C   0  0  0  0  0  0  0  0  0  0  0  0
   59.2080   34.5760   44.9680 C   0  0  0  0  0  0  0  0  0  0  0  0
   58.6460   33.6550   44.0670 C   0  0  0  0  0  0  0  0  0  0  0  0
   58.1910   32.4420   44.5770 C   0  0  0  0  0  0  0  0  0  0  0  0
   57.5980   31.3710   43.9460 C   0  0  0  0  0  0  0  0  0  0  0  0
   57.3500   30.4470   44.9600 C   0  0  0  0  0  0  0  0  0  0  0  0
   56.7590   29.1130   44.7340 C   0  0  0  0  0  0  0  0  0  0  0  0
   55.5130   28.9790   44.8580 O   0  0  0  0  0  0  0  0  0  0  0  0
   57.5390   27.9470   44.4280 N   0  0  0  0  0  0  0  0  0  0  0  0
   58.4890   27.2510   45.2940 C   0  0  0  0  0  0  0  0  0  0  0  0
   59.2730   28.2070   46.1560 C   0  0  0  0  0  0  0  0  0  0  0  0
   60.2380   29.0550   45.5890 C   0  0  0  0  0  0  0  0  0  0  0  0
   60.9370   29.9640   46.3880 C   0  0  0  0  0  0  0  0  0  0  0  0
   60.6700   30.0510   47.7600 C   0  0  0  0  0  0  0  0  0  0  0  0
   61.5530   31.1970   48.7700 S   0  0  0  0  0  0  0  0  0  0  0  0
   60.7330   32.4500   48.9180 O   0  0  0  0  0  0  0  0  0  0  0  0
   61.7210   30.5990   50.1400 O   0  0  0  0  0  0  0  0  0  0  0  0
   63.1280   31.6190   48.1210 N   0  0  0  0  0  0  0  0  0  0  0  0
   64.0910   31.9630   49.1910 C   0  0  0  0  0  0  0  0  0  0  0  0
   63.9390   33.4150   49.7040 C   0  0  0  0  0  0  0  0  0  0  0  0
   63.0620   34.1930   48.9160 O   0  0  0  0  0  0  0  0  0  0  0  0
   63.3980   34.0580   47.5560 C   0  0  0  0  0  0  0  0  0  0  0  0
   63.0430   32.6490   47.0560 C   0  0  0  0  0  0  0  0  0  0  0  0
   59.6850   29.2280   48.3250 C   0  0  0  0  0  0  0  0  0  0  0  0
   58.9930   28.3110   47.5290 C   0  0  0  0  0  0  0  0  0  0  0  0
   57.7870   30.9130   46.1550 N   0  0  0  0  0  0  0  0  0  0  0  0
   58.2860   32.1350   45.9080 C   0  0  0  0  0  0  0  0  0  0  0  0
   58.8430   33.0220   46.8260 C   0  0  0  0  0  0  0  0  0  0  0  0
   59.7200   34.9448   48.3322 H   0  0  0  0  0  0  0  0  0  0  0  0
   61.0029   35.2948   47.1246 H   0  0  0  0  0  0  0  0  0  0  0  0
   59.4838   36.2535   47.1246 H   0  0  0  0  0  0  0  0  0  0  0  0
   59.5832   35.5412   44.5970 H   0  0  0  0  0  0  0  0  0  0  0  0
   58.5682   33.8851   42.9941 H   0  0  0  0  0  0  0  0  0  0  0  0
   57.3697   31.2673   42.8750 H   0  0  0  0  0  0  0  0  0  0  0  0
   57.9348   26.5588   45.9449 H   0  0  0  0  0  0  0  0  0  0  0  0
   59.2005   26.7106   44.6524 H   0  0  0  0  0  0  0  0  0  0  0  0
   60.4450   29.0036   44.5099 H   0  0  0  0  0  0  0  0  0  0  0  0
   61.7008   30.6145   45.9369 H   0  0  0  0  0  0  0  0  0  0  0  0
   63.4770   30.7390   47.6740 H   0  0  0  0  0  0  0  0  0  0  0  0
   63.9354   31.2757   50.0356 H   0  0  0  0  0  0  0  0  0  0  0  0
   65.1006   31.8711   48.7641 H   0  0  0  0  0  0  0  0  0  0  0  0
   63.5506   33.3838   50.7327 H   0  0  0  0  0  0  0  0  0  0  0  0
   64.9315   33.8864   49.6521 H   0  0  0  0  0  0  0  0  0  0  0  0
   62.8404   34.8025   46.9689 H   0  0  0  0  0  0  0  0  0  0  0  0
   64.4799   34.2177   47.4373 H   0  0  0  0  0  0  0  0  0  0  0  0
   62.0153   32.6644   46.6640 H   0  0  0  0  0  0  0  0  0  0  0  0
   63.7740   32.3810   46.2789 H   0  0  0  0  0  0  0  0  0  0  0  0
   59.4563   29.3044   49.3982 H   0  0  0  0  0  0  0  0  0  0  0  0
   58.2242   27.6665   47.9803 H   0  0  0  0  0  0  0  0  0  0  0  0
   57.7980   30.4190   47.0720 H   0  0  0  0  0  0  0  0  0  0  0  0
   58.9277   32.7562   47.8900 H   0  0  0  0  0  0  0  0  0  0  0  0
  1  2  1  0
  2  3  2  0
  3  4  1  0
  4  5  2  0
  5  6  1  0
  6  7  2  0
  7  8  1  0
  8  9  2  0
  8 10  1  0
 10 11  1  0
 11 12  1  0
 12 13  2  0
 13 14  1  0
 14 15  2  0
 15 16  1  0
 16 17  2  0
 16 18  2  0
 16 19  1  0
 19 20  1  0
 20 21  1  0
 21 22  1  0
 22 23  1  0
 23 24  1  0
 15 25  1  0
 25 26  2  0
  7 27  1  0
 27 28  1  0
 28 29  2  0
 29  2  1  0
 28  5  1  0
 26 12  1  0
 24 19  1  0
  1 30  1  0
  1 31  1  0
  1 32  1  0
  3 33  1  0
  4 34  1  0
  6 35  1  0
 11 36  1  0
 11 37  1  0
 13 38  1  0
 14 39  1  0
 19 40  1  0
 20 41  1  0
 20 42  1  0
 21 43  1  0
 21 44  1  0
 23 45  1  0
 23 46  1  0
 24 47  1  0
 24 48  1  0
 25 49  1  0
 26 50  1  0
 27 51  1  0
 29 52  1  0
M  CHG  2  10  -1  19   1
M  END
>  <UniqueID>  (82) 
80

>  <SMILES>  (82) 
Cc1ccc2cc(C(=O)[N-]Cc3ccc(S(=O)(=O)[NH+]4CCOCC4)cc3)[nH]c2c1

>  <Energy>  (82) 
94.27672709152021

>  <Genealogy>  (82) 
Cc1ccc2cc(C(=O)[N-]Cc3ccc(S(=O)(=O)[NH+]4CCOCC4)cc3)[nH]c2c1 (protonated)
Cc1ccc2cc(C(=O)[N-]Cc3ccc(S(=O)(=O)[NH+]4CCOCC4)cc3)[nH]c2c1 (3D coordinates assigned)
Cc1ccc2cc(C(=O)[N-]Cc3ccc(S(=O)(=O)[NH+]4CCOCC4)cc3)[nH]c2c1 (nonaromatic ring conformer: 94.27672709152021 kcal/mol)

>  <smiles>  (82) 
Cc1ccc2cc(C(=O)NCc3ccc(S(=O)(=O)N4CCOCC4)cc3)[nH]c2c1

>  <score_type>  (82) 
oracle

>  <origin>  (82) 
adg

>  <m_score__min__energy>  (82) 
-9.4399999999999995

>  <m_primary>  (82) 
energy

$$$$
82:0
     RDKit          3D

 55 58  0  0  0  0  0  0  0  0999 V2000
   57.0120   30.1880   51.4390 O   0  0  0  0  0  0  0  0  0  0  0  0
   57.8650   29.4770   52.0380 C   0  0  0  0  0  0  0  0  0  0  0  0
   57.4450   28.6800   53.2420 C   0  0  0  0  0  0  0  0  0  0  0  0
   56.3510   29.3860   54.0010 C   0  0  0  0  0  0  0  0  0  0  0  0
   56.6020   29.9200   55.2760 C   0  0  0  0  0  0  0  0  0  0  0  0
   55.5770   30.5420   55.9940 C   0  0  0  0  0  0  0  0  0  0  0  0
   54.2930   30.6340   55.4470 C   0  0  0  0  0  0  0  0  0  0  0  0
   54.0290   30.1110   54.1680 C   0  0  0  0  0  0  0  0  0  0  0  0
   52.7090   30.1440   53.6010 N   0  0  0  0  0  0  0  0  0  0  0  0
   52.2610   29.3870   52.4690 C   0  0  0  0  0  0  0  0  0  0  0  0
   52.2910   28.1290   52.5290 O   0  0  0  0  0  0  0  0  0  0  0  0
   51.8340   30.0440   51.2190 C   0  0  0  0  0  0  0  0  0  0  0  0
   51.8610   29.4630   49.9620 C   0  0  0  0  0  0  0  0  0  0  0  0
   51.4060   30.4220   49.0820 C   0  0  0  0  0  0  0  0  0  0  0  0
   51.1370   31.5320   49.8530 C   0  0  0  0  0  0  0  0  0  0  0  0
   50.6580   32.7390   49.3570 O   0  0  0  0  0  0  0  0  0  0  0  0
   51.3970   31.3200   51.1570 N   0  0  0  0  0  0  0  0  0  0  0  0
   55.0560   29.4700   53.4600 C   0  0  0  0  0  0  0  0  0  0  0  0
   59.2320   29.4280   51.5870 N   0  0  0  0  0  0  0  0  0  0  0  0
   59.7020   29.9720   50.3390 C   0  0  0  0  0  0  0  0  0  0  0  0
   60.0650   29.0950   49.3030 C   0  0  0  0  0  0  0  0  0  0  0  0
   60.4920   29.5920   48.0680 C   0  0  0  0  0  0  0  0  0  0  0  0
   60.5530   30.9700   47.8510 C   0  0  0  0  0  0  0  0  0  0  0  0
   60.1840   31.8600   48.8700 C   0  0  0  0  0  0  0  0  0  0  0  0
   60.2470   33.6000   48.5870 S   0  0  0  0  0  0  0  0  0  0  0  0
   59.9160   34.3280   49.8620 O   0  0  0  0  0  0  0  0  0  0  0  0
   61.6440   33.9740   48.1740 O   0  0  0  0  0  0  0  0  0  0  0  0
   59.1260   34.0470   47.3240 N   0  0  0  0  0  0  0  0  0  0  0  0
   59.8450   34.2260   46.0530 C   0  0  0  0  0  0  0  0  0  0  0  0
   58.8550   34.4740   44.8960 C   0  0  0  0  0  0  0  0  0  0  0  0
   57.5180   34.5270   45.3560 O   0  0  0  0  0  0  0  0  0  0  0  0
   57.1810   33.3020   45.9770 C   0  0  0  0  0  0  0  0  0  0  0  0
   58.0950   33.0040   47.1820 C   0  0  0  0  0  0  0  0  0  0  0  0
   59.7430   31.3600   50.1040 C   0  0  0  0  0  0  0  0  0  0  0  0
   57.0778   27.6968   52.9126 H   0  0  0  0  0  0  0  0  0  0  0  0
   58.3140   28.5635   53.9062 H   0  0  0  0  0  0  0  0  0  0  0  0
   57.6098   29.8482   55.7111 H   0  0  0  0  0  0  0  0  0  0  0  0
   55.7803   30.9599   56.9910 H   0  0  0  0  0  0  0  0  0  0  0  0
   53.4869   31.1169   56.0188 H   0  0  0  0  0  0  0  0  0  0  0  0
   52.1816   28.4402   49.7149 H   0  0  0  0  0  0  0  0  0  0  0  0
   51.2835   30.3220   47.9934 H   0  0  0  0  0  0  0  0  0  0  0  0
   54.8468   29.0296   52.4740 H   0  0  0  0  0  0  0  0  0  0  0  0
   59.9500   29.0510   52.2500 H   0  0  0  0  0  0  0  0  0  0  0  0
   60.0128   28.0082   49.4650 H   0  0  0  0  0  0  0  0  0  0  0  0
   60.7803   28.8965   47.2661 H   0  0  0  0  0  0  0  0  0  0  0  0
   60.8911   31.3582   46.8789 H   0  0  0  0  0  0  0  0  0  0  0  0
   60.5222   35.0885   46.1397 H   0  0  0  0  0  0  0  0  0  0  0  0
   60.4171   33.3112   45.8387 H   0  0  0  0  0  0  0  0  0  0  0  0
   59.1040   35.4299   44.4120 H   0  0  0  0  0  0  0  0  0  0  0  0
   58.9411   33.6391   44.1850 H   0  0  0  0  0  0  0  0  0  0  0  0
   56.1385   33.3531   46.3242 H   0  0  0  0  0  0  0  0  0  0  0  0
   57.3115   32.4962   45.2397 H   0  0  0  0  0  0  0  0  0  0  0  0
   57.4862   32.9710   48.0976 H   0  0  0  0  0  0  0  0  0  0  0  0
   58.5913   32.0360   47.0187 H   0  0  0  0  0  0  0  0  0  0  0  0
   59.4268   32.0571   50.8940 H   0  0  0  0  0  0  0  0  0  0  0  0
  1  2  2  0
  2  3  1  0
  3  4  1  0
  4  5  2  0
  5  6  1  0
  6  7  2  0
  7  8  1  0
  8  9  1  0
  9 10  1  0
 10 11  2  0
 10 12  1  0
 12 13  2  0
 13 14  1  0
 14 15  2  0
 15 16  1  0
 15 17  1  0
  8 18  2  0
  2 19  1  0
 19 20  1  0
 20 21  2  0
 21 22  1  0
 22 23  2  0
 23 24  1  0
 24 25  1  0
 25 26  2  0
 25 27  2  0
 25 28  1  0
 28 29  1  0
 29 30  1  0
 30 31  1  0
 31 32  1  0
 32 33  1  0
 24 34  2  0
 18  4  1  0
 34 20  1  0
 17 12  1  0
 33 28  1  0
  3 35  1  0
  3 36  1  0
  5 37  1  0
  6 38  1  0
  7 39  1  0
 13 40  1  0
 14 41  1  0
 18 42  1  0
 19 43  1  0
 21 44  1  0
 22 45  1  0
 23 46  1  0
 29 47  1  0
 29 48  1  0
 30 49  1  0
 30 50  1  0
 32 51  1  0
 32 52  1  0
 33 53  1  0
 33 54  1  0
 34 55  1  0
M  CHG  3   9  -1  16  -1  17  -1
M  END
>  <UniqueID>  (83) 
81

>  <SMILES>  (83) 
O=C(Cc1cccc([N-]C(=O)c2ccc([O-])[n-]2)c1)Nc1cccc(S(=O)(=O)N2CCOCC2)c1

>  <Energy>  (83) 
97.80903016150037

>  <Genealogy>  (83) 
O=C(Cc1cccc([N-]C(=O)c2ccc([O-])[n-]2)c1)Nc1cccc(S(=O)(=O)N2CCOCC2)c1 (protonated)
O=C(Cc1cccc([N-]C(=O)c2ccc([O-])[n-]2)c1)Nc1cccc(S(=O)(=O)N2CCOCC2)c1 (3D coordinates assigned)
O=C(Cc1cccc([N-]C(=O)c2ccc([O-])[n-]2)c1)Nc1cccc(S(=O)(=O)N2CCOCC2)c1 (nonaromatic ring conformer: 97.80903016150037 kcal/mol)

>  <smiles>  (83) 
O=C(Cc1cccc(NC(=O)c2ccc(O)[nH]2)c1)Nc1cccc(S(=O)(=O)N2CCOCC2)c1

>  <score_type>  (83) 
oracle

>  <origin>  (83) 
adg

>  <m_score__min__energy>  (83) 
-16.780000000000001

>  <m_primary>  (83) 
energy

$$$$
