0:0
     RDKit          3D

 37 40  0  0  0  0  0  0  0  0999 V2000
   64.4093   32.8098   47.2047 H   0  0  0  0  0  0  0  0  0  0  0  0
   63.4140   32.6740   47.6530 C   0  0  0  0  0  0  0  0  0  0  0  0
   62.6630   31.5900   47.3250 N   0  0  0  0  0  0  0  0  0  0  0  0
   61.4200   31.3890   47.8390 C   0  0  0  0  0  0  0  0  0  0  0  0
   60.4910   29.7950   47.3210 Br  0  0  0  0  0  0  0  0  0  0  0  0
   60.8620   32.3330   48.7290 C   0  0  0  0  0  0  0  0  0  0  0  0
   59.4920   32.1130   49.3430 C   0  0  0  0  0  0  0  0  0  0  0  0
   59.4275   32.6902   50.2771 H   0  0  0  0  0  0  0  0  0  0  0  0
   59.3771   31.0342   49.5247 H   0  0  0  0  0  0  0  0  0  0  0  0
   58.4060   32.5320   48.4570 N   0  0  0  0  0  0  0  0  0  0  0  0
   58.3540   32.6350   47.1560 C   0  0  0  0  0  0  0  0  0  0  0  0
   57.7770   31.6080   46.4700 N   0  0  0  0  0  0  0  0  0  0  0  0
   57.6440   31.6000   45.1130 C   0  0  0  0  0  0  0  0  0  0  0  0
   57.0370   30.5120   44.4670 C   0  0  0  0  0  0  0  0  0  0  0  0
   56.5740   29.4380   45.2450 O   0  0  0  0  0  0  0  0  0  0  0  0
   57.3710   28.3240   45.6360 C   0  0  0  0  0  0  0  0  0  0  0  0
   57.4105   28.2688   46.7339 H   0  0  0  0  0  0  0  0  0  0  0  0
   56.9285   27.3989   45.2380 H   0  0  0  0  0  0  0  0  0  0  0  0
   58.3894   28.4441   45.2380 H   0  0  0  0  0  0  0  0  0  0  0  0
   56.9110   30.5300   43.0650 C   0  0  0  0  0  0  0  0  0  0  0  0
   56.4372   29.6824   42.5482 H   0  0  0  0  0  0  0  0  0  0  0  0
   57.3840   31.6180   42.3250 C   0  0  0  0  0  0  0  0  0  0  0  0
   57.2796   31.6208   41.2300 H   0  0  0  0  0  0  0  0  0  0  0  0
   57.9880   32.7010   42.9670 C   0  0  0  0  0  0  0  0  0  0  0  0
   58.3581   33.5538   42.3790 H   0  0  0  0  0  0  0  0  0  0  0  0
   58.1220   32.6990   44.3660 C   0  0  0  0  0  0  0  0  0  0  0  0
   58.7040   33.7220   45.0540 N   0  0  0  0  0  0  0  0  0  0  0  0
   59.2510   34.8720   44.6120 C   0  0  0  0  0  0  0  0  0  0  0  0
   59.2945   35.1652   43.5527 H   0  0  0  0  0  0  0  0  0  0  0  0
   59.7390   35.6210   45.6230 N   0  0  0  0  0  0  0  0  0  0  0  0
   59.4830   34.9070   46.7410 C   0  0  0  0  0  0  0  0  0  0  0  0
   59.7453   35.2115   47.7649 H   0  0  0  0  0  0  0  0  0  0  0  0
   58.8370   33.7290   46.3940 C   0  0  0  0  0  0  0  0  0  0  0  0
   61.6530   33.4360   49.1050 C   0  0  0  0  0  0  0  0  0  0  0  0
   61.2666   34.1622   49.8353 H   0  0  0  0  0  0  0  0  0  0  0  0
   62.9230   33.6130   48.5570 C   0  0  0  0  0  0  0  0  0  0  0  0
   63.5313   34.4860   48.8360 H   0  0  0  0  0  0  0  0  0  0  0  0
  1  2  1  0
  2  3  2  0
  3  4  1  0
  4  5  1  0
  4  6  2  0
  6  7  1  0
  7  8  1  0
  7  9  1  0
  7 10  1  0
 10 11  2  0
 11 12  1  0
 12 13  1  0
 13 14  2  0
 14 15  1  0
 15 16  1  0
 16 17  1  0
 16 18  1  0
 16 19  1  0
 14 20  1  0
 20 21  1  0
 20 22  2  0
 22 23  1  0
 22 24  1  0
 24 25  1  0
 24 26  2  0
 26 27  1  0
 27 28  1  0
 28 29  1  0
 28 30  2  0
 30 31  1  0
 31 32  1  0
 31 33  2  0
  6 34  1  0
 34 35  1  0
 34 36  2  0
 36 37  1  0
 36  2  1  0
 33 11  1  0
 26 13  1  0
 33 27  1  0
M  CHG  1  12  -1
M  END
>  <UniqueID>  (1) 
1

>  <SMILES>  (1) 
COc1cccc2c1[n-]/c(=N/Cc1cccnc1Br)c1cncn12

>  <Energy>  (1) 
92.33554428408334

>  <Genealogy>  (1) 
COc1cccc2c1[n-]c(=NCc1cccnc1Br)c1cncn12 (protonated)
COc1cccc2c1[n-]/c(=N/Cc1cccnc1Br)c1cncn12 (cis-trans isomerization)
COc1cccc2c1[n-]/c(=N/Cc1cccnc1Br)c1cncn12 (3D coordinates assigned)
COc1cccc2c1[n-]/c(=N/Cc1cccnc1Br)c1cncn12 (optimized conformer: 92.33554428408334 kcal/mol)

>  <smiles>  (1) 
COc1cccc2c1[nH]c(=NCc1cccnc1Br)c1cncn12

>  <score_type>  (1) 
oracle

>  <origin>  (1) 
adg

>  <m_score__min__energy>  (1) 
-10.25

>  <m_primary>  (1) 
energy

$$$$
1:0
     RDKit          3D

 59 63  0  0  0  0  0  0  0  0999 V2000
   59.9125   35.5240   47.2016 H   0  0  0  0  0  0  0  0  0  0  0  0
   59.3830   34.5610   47.1540 C   0  0  0  0  0  0  0  0  0  0  0  0
   58.8350   34.1440   45.9840 N   0  0  0  0  0  0  0  0  0  0  0  0
   58.1890   32.9530   45.8960 C   0  0  0  0  0  0  0  0  0  0  0  0
   57.6510   32.5990   44.7650 N   0  0  0  0  0  0  0  0  0  0  0  0
   58.0850   31.4720   43.9340 C   0  0  0  0  0  0  0  0  0  0  0  0
   57.3727   31.3422   43.1059 H   0  0  0  0  0  0  0  0  0  0  0  0
   59.0922   31.6913   43.5501 H   0  0  0  0  0  0  0  0  0  0  0  0
   58.1480   30.1880   44.7370 C   0  0  0  0  0  0  0  0  0  0  0  0
   59.3580   29.8540   45.3700 C   0  0  0  0  0  0  0  0  0  0  0  0
   60.2063   30.5529   45.3260 H   0  0  0  0  0  0  0  0  0  0  0  0
   59.4940   28.6460   46.0530 C   0  0  0  0  0  0  0  0  0  0  0  0
   60.4494   28.3922   46.5355 H   0  0  0  0  0  0  0  0  0  0  0  0
   58.4210   27.7600   46.1250 C   0  0  0  0  0  0  0  0  0  0  0  0
   58.5427   26.7954   46.6395 H   0  0  0  0  0  0  0  0  0  0  0  0
   57.1890   28.0890   45.5470 C   0  0  0  0  0  0  0  0  0  0  0  0
   56.1190   27.1330   45.6180 N   0  0  0  0  0  0  0  0  0  0  0  0
   55.1510   27.4780   45.4250 H   0  0  0  0  0  0  0  0  0  0  0  0
   56.3170   25.7200   45.7970 C   0  0  0  0  0  0  0  0  0  0  0  0
   56.2290   24.8640   44.6690 C   0  0  0  0  0  0  0  0  0  0  0  0
   56.0175   25.2953   43.6794 H   0  0  0  0  0  0  0  0  0  0  0  0
   56.4080   23.4670   44.7930 C   0  0  0  0  0  0  0  0  0  0  0  0
   56.2890   22.5890   43.6100 C   0  0  0  0  0  0  0  0  0  0  0  0
   55.9710   21.3780   43.7610 O   0  0  0  0  0  0  0  0  0  0  0  0
   56.5710   23.0800   42.2980 N   0  0  0  0  0  0  0  0  0  0  0  0
   57.0130   24.0140   42.1560 H   0  0  0  0  0  0  0  0  0  0  0  0
   56.4340   22.4620   41.4660 H   0  0  0  0  0  0  0  0  0  0  0  0
   56.7110   22.9790   46.0700 C   0  0  0  0  0  0  0  0  0  0  0  0
   57.0220   21.7240   46.5490 C   0  0  0  0  0  0  0  0  0  0  0  0
   57.0540   20.7979   45.9563 H   0  0  0  0  0  0  0  0  0  0  0  0
   57.2810   21.8270   47.8730 N   0  0  0  0  0  0  0  0  0  0  0  0
   57.1550   23.0960   48.2490 N   0  0  0  0  0  0  0  0  0  0  0  0
   56.8140   23.8010   47.1580 C   0  0  0  0  0  0  0  0  0  0  0  0
   56.6230   25.1750   47.0670 C   0  0  0  0  0  0  0  0  0  0  0  0
   56.7071   25.8190   47.9548 H   0  0  0  0  0  0  0  0  0  0  0  0
   57.0420   29.3090   44.8480 C   0  0  0  0  0  0  0  0  0  0  0  0
   55.4930   29.6910   44.0860 Cl  0  0  0  0  0  0  0  0  0  0  0  0
   58.0850   32.1630   47.0010 N   0  0  0  0  0  0  0  0  0  0  0  0
   58.6010   32.5390   48.2040 C   0  0  0  0  0  0  0  0  0  0  0  0
   58.4130   31.6970   49.3620 N   0  0  0  0  0  0  0  0  0  0  0  0
   58.1230   32.3220   50.6620 C   0  0  0  0  0  0  0  0  0  0  0  0
   57.5072   33.2178   50.4939 H   0  0  0  0  0  0  0  0  0  0  0  0
   59.0835   32.5764   51.1339 H   0  0  0  0  0  0  0  0  0  0  0  0
   57.3660   31.3710   51.6160 C   0  0  0  0  0  0  0  0  0  0  0  0
   56.2870   31.5079   51.4517 H   0  0  0  0  0  0  0  0  0  0  0  0
   57.6845   31.6342   52.6354 H   0  0  0  0  0  0  0  0  0  0  0  0
   57.6830   29.9310   51.4350 N   0  0  0  0  0  0  0  0  0  0  0  0
   57.6970   29.2300   52.7310 C   0  0  0  0  0  0  0  0  0  0  0  0
   57.6823   29.9675   53.5470 H   0  0  0  0  0  0  0  0  0  0  0  0
   56.8116   28.5816   52.8068 H   0  0  0  0  0  0  0  0  0  0  0  0
   58.6076   28.6175   52.8068 H   0  0  0  0  0  0  0  0  0  0  0  0
   58.9490   29.7020   50.7170 C   0  0  0  0  0  0  0  0  0  0  0  0
   59.1454   28.6216   50.6518 H   0  0  0  0  0  0  0  0  0  0  0  0
   59.7749   30.1880   51.2571 H   0  0  0  0  0  0  0  0  0  0  0  0
   58.8380   30.2880   49.3100 C   0  0  0  0  0  0  0  0  0  0  0  0
   58.0993   29.7095   48.7357 H   0  0  0  0  0  0  0  0  0  0  0  0
   59.8251   30.2352   48.8274 H   0  0  0  0  0  0  0  0  0  0  0  0
   59.2740   33.7670   48.2960 C   0  0  0  0  0  0  0  0  0  0  0  0
   59.7078   34.0976   49.2513 H   0  0  0  0  0  0  0  0  0  0  0  0
  1  2  1  0
  2  3  1  0
  3  4  1  0
  4  5  2  0
  5  6  1  0
  6  7  1  0
  6  8  1  0
  6  9  1  0
  9 10  2  0
 10 11  1  0
 10 12  1  0
 12 13  1  0
 12 14  2  0
 14 15  1  0
 14 16  1  0
 16 17  1  0
 17 18  1  0
 17 19  1  0
 19 20  2  0
 20 21  1  0
 20 22  1  0
 22 23  1  0
 23 24  2  0
 23 25  1  0
 25 26  1  0
 25 27  1  0
 22 28  2  0
 28 29  1  0
 29 30  1  0
 29 31  2  0
 31 32  1  0
 32 33  1  0
 33 34  2  0
 34 35  1  0
 16 36  2  0
 36 37  1  0
  4 38  1  0
 38 39  2  0
 39 40  1  0
 40 41  1  0
 41 42  1  0
 41 43  1  0
 41 44  1  0
 44 45  1  0
 44 46  1  0
 44 47  1  0
 47 48  1  0
 48 49  1  0
 48 50  1  0
 48 51  1  0
 47 52  1  0
 52 53  1  0
 52 54  1  0
 52 55  1  0
 55 56  1  0
 55 57  1  0
 39 58  1  0
 58 59  1  0
 58  2  2  0
 36  9  1  0
 55 40  1  0
 34 19  1  0
 33 28  1  0
M  CHG  2   3  -1  32  -1
M  END
>  <UniqueID>  (2) 
2

>  <SMILES>  (2) 
CN1CCN(c2cc[n-]/c(=N/Cc3cccc(Nc4cc(C(N)=O)c5cn[n-]c5c4)c3Cl)n2)CC1

>  <Energy>  (2) 
120.29797099238752

>  <Genealogy>  (2) 
CN1CCN(c2cc[n-]c(=NCc3cccc(Nc4cc(C(N)=O)c5cn[n-]c5c4)c3Cl)n2)CC1 (protonated)
CN1CCN(c2cc[n-]/c(=N/Cc3cccc(Nc4cc(C(N)=O)c5cn[n-]c5c4)c3Cl)n2)CC1 (cis-trans isomerization)
CN1CCN(c2cc[n-]/c(=N/Cc3cccc(Nc4cc(C(N)=O)c5cn[n-]c5c4)c3Cl)n2)CC1 (3D coordinates assigned)
CN1CCN(c2cc[n-]/c(=N/Cc3cccc(Nc4cc(C(N)=O)c5cn[n-]c5c4)c3Cl)n2)CC1 (nonaromatic ring conformer: 120.29797099238752 kcal/mol)

>  <smiles>  (2) 
CN1CCN(c2cc[nH]c(=NCc3cccc(Nc4cc(C(N)=O)c5cn[nH]c5c4)c3Cl)n2)CC1

>  <score_type>  (2) 
oracle

>  <origin>  (2) 
adg

>  <m_score__min__energy>  (2) 
-13.93

>  <m_primary>  (2) 
energy

$$$$
2:0
     RDKit          3D

 32 35  0  0  0  0  0  0  0  0999 V2000
   63.5210   32.8320   48.4380 C   0  0  0  0  0  0  0  0  0  0  0  0
   62.8870   33.4530   49.4950 C   0  0  0  0  0  0  0  0  0  0  0  0
   61.6900   34.1460   49.3470 C   0  0  0  0  0  0  0  0  0  0  0  0
   61.1080   34.2150   48.0950 C   0  0  0  0  0  0  0  0  0  0  0  0
   59.9690   34.7950   47.6150 N   0  0  0  0  0  0  0  0  0  0  0  0
   59.8850   34.5490   46.2980 C   0  0  0  0  0  0  0  0  0  0  0  0
   58.8460   34.9470   45.3130 C   0  0  0  0  0  0  0  0  0  0  0  0
   57.3090   33.9910   45.6240 S   0  0  0  0  0  0  0  0  0  0  0  0
   57.5700   32.2690   45.2340 C   0  0  0  0  0  0  0  0  0  0  0  0
   56.7090   31.3460   44.7860 N   0  0  0  0  0  0  0  0  0  0  0  0
   57.3820   30.1720   44.6340 C   0  0  0  0  0  0  0  0  0  0  0  0
   57.0210   28.9150   44.2150 C   0  0  0  0  0  0  0  0  0  0  0  0
   57.9460   27.8670   44.1560 C   0  0  0  0  0  0  0  0  0  0  0  0
   59.2770   28.0870   44.5300 C   0  0  0  0  0  0  0  0  0  0  0  0
   59.6450   29.3480   44.9520 C   0  0  0  0  0  0  0  0  0  0  0  0
   58.7000   30.3780   45.0010 C   0  0  0  0  0  0  0  0  0  0  0  0
   58.7890   31.6770   45.3670 N   0  0  0  0  0  0  0  0  0  0  0  0
   60.9740   33.8120   45.9500 N   0  0  0  0  0  0  0  0  0  0  0  0
   61.7400   33.5950   47.0420 C   0  0  0  0  0  0  0  0  0  0  0  0
   62.9350   32.9060   47.1940 C   0  0  0  0  0  0  0  0  0  0  0  0
   64.4684   32.2928   48.5852 H   0  0  0  0  0  0  0  0  0  0  0  0
   63.3460   33.3978   50.4931 H   0  0  0  0  0  0  0  0  0  0  0  0
   61.2143   34.6312   50.2121 H   0  0  0  0  0  0  0  0  0  0  0  0
   59.2660   35.3460   48.1720 H   0  0  0  0  0  0  0  0  0  0  0  0
   58.6362   36.0219   45.4155 H   0  0  0  0  0  0  0  0  0  0  0  0
   59.2073   34.7392   44.2950 H   0  0  0  0  0  0  0  0  0  0  0  0
   55.9785   28.7274   43.9184 H   0  0  0  0  0  0  0  0  0  0  0  0
   57.6276   26.8706   43.8159 H   0  0  0  0  0  0  0  0  0  0  0  0
   60.0141   27.2715   44.4883 H   0  0  0  0  0  0  0  0  0  0  0  0
   60.6853   29.5440   45.2510 H   0  0  0  0  0  0  0  0  0  0  0  0
   59.6860   32.0920   45.6890 H   0  0  0  0  0  0  0  0  0  0  0  0
   63.4104   32.4228   46.3277 H   0  0  0  0  0  0  0  0  0  0  0  0
  1  2  2  0
  2  3  1  0
  3  4  2  0
  4  5  1  0
  5  6  1  0
  6  7  1  0
  7  8  1  0
  8  9  1  0
  9 10  2  0
 10 11  1  0
 11 12  2  0
 12 13  1  0
 13 14  2  0
 14 15  1  0
 15 16  2  0
 16 17  1  0
  6 18  2  0
 18 19  1  0
 19 20  2  0
 20  1  1  0
 19  4  1  0
 17  9  1  0
 16 11  1  0
  1 21  1  0
  2 22  1  0
  3 23  1  0
  5 24  1  0
  7 25  1  0
  7 26  1  0
 12 27  1  0
 13 28  1  0
 14 29  1  0
 15 30  1  0
 17 31  1  0
 20 32  1  0
M  END
>  <smiles>  (3) 
c1ccc2[nH]c(CSc3nc4ccccc4[nH]3)nc2c1

>  <score_type>  (3) 
oracle

>  <origin>  (3) 
adg

>  <m_score__min__energy>  (3) 
-7.4699999999999998

>  <m_primary>  (3) 
energy

$$$$
3:0
     RDKit          3D

 43 46  0  0  0  0  0  0  0  0999 V2000
   59.2006   28.5386   47.1754 H   0  0  0  0  0  0  0  0  0  0  0  0
   58.1510   28.4380   46.8620 C   0  0  0  0  0  0  0  0  0  0  0  0
   57.4520   27.4170   47.2590 N   0  0  0  0  0  0  0  0  0  0  0  0
   57.4350   26.1070   46.6640 C   0  0  0  0  0  0  0  0  0  0  0  0
   57.4850   25.8970   45.2700 C   0  0  0  0  0  0  0  0  0  0  0  0
   57.5304   26.7583   44.5873 H   0  0  0  0  0  0  0  0  0  0  0  0
   57.4770   24.5980   44.7530 C   0  0  0  0  0  0  0  0  0  0  0  0
   57.5126   24.4405   43.6649 H   0  0  0  0  0  0  0  0  0  0  0  0
   57.4240   23.5000   45.6140 C   0  0  0  0  0  0  0  0  0  0  0  0
   57.4106   22.4794   45.2039 H   0  0  0  0  0  0  0  0  0  0  0  0
   57.3880   23.6980   46.9960 C   0  0  0  0  0  0  0  0  0  0  0  0
   57.3440   22.6040   47.8540 O   0  0  0  0  0  0  0  0  0  0  0  0
   57.3980   24.9960   47.5180 C   0  0  0  0  0  0  0  0  0  0  0  0
   57.3766   25.1460   48.6075 H   0  0  0  0  0  0  0  0  0  0  0  0
   57.5440   29.4600   45.9950 C   0  0  0  0  0  0  0  0  0  0  0  0
   56.3600   29.3760   45.2690 C   0  0  0  0  0  0  0  0  0  0  0  0
   55.5200   28.2690   45.2410 O   0  0  0  0  0  0  0  0  0  0  0  0
   56.1010   30.5090   44.5760 N   0  0  0  0  0  0  0  0  0  0  0  0
   57.1380   31.3170   44.8700 C   0  0  0  0  0  0  0  0  0  0  0  0
   57.3330   32.6140   44.4060 C   0  0  0  0  0  0  0  0  0  0  0  0
   56.6089   33.0853   43.7252 H   0  0  0  0  0  0  0  0  0  0  0  0
   58.4810   33.3060   44.8310 C   0  0  0  0  0  0  0  0  0  0  0  0
   58.6534   34.3370   44.4885 H   0  0  0  0  0  0  0  0  0  0  0  0
   59.4200   32.6870   45.6980 C   0  0  0  0  0  0  0  0  0  0  0  0
   60.5820   33.3950   46.1610 N   0  0  0  0  0  0  0  0  0  0  0  0
   61.2000   33.8410   45.4450 H   0  0  0  0  0  0  0  0  0  0  0  0
   60.9510   33.5350   47.5440 C   0  0  0  0  0  0  0  0  0  0  0  0
   60.0360   34.0130   48.4970 C   0  0  0  0  0  0  0  0  0  0  0  0
   59.0136   34.2781   48.1897 H   0  0  0  0  0  0  0  0  0  0  0  0
   60.4190   34.1530   49.8330 C   0  0  0  0  0  0  0  0  0  0  0  0
   59.6921   34.5100   50.5775 H   0  0  0  0  0  0  0  0  0  0  0  0
   61.7220   33.8410   50.2260 C   0  0  0  0  0  0  0  0  0  0  0  0
   62.0113   33.9330   51.2833 H   0  0  0  0  0  0  0  0  0  0  0  0
   62.6660   33.4100   49.2780 C   0  0  0  0  0  0  0  0  0  0  0  0
   64.0630   33.0370   49.7070 C   0  0  0  0  0  0  0  0  0  0  0  0
   64.0930   31.7520   50.2200 F   0  0  0  0  0  0  0  0  0  0  0  0
   64.9080   33.1050   48.6140 F   0  0  0  0  0  0  0  0  0  0  0  0
   64.5210   33.9030   50.6850 F   0  0  0  0  0  0  0  0  0  0  0  0
   62.2650   33.2460   47.9400 C   0  0  0  0  0  0  0  0  0  0  0  0
   62.9905   32.8868   47.1953 H   0  0  0  0  0  0  0  0  0  0  0  0
   59.1790   31.3780   46.1660 C   0  0  0  0  0  0  0  0  0  0  0  0
   59.8778   30.8896   46.8611 H   0  0  0  0  0  0  0  0  0  0  0  0
   58.0310   30.7190   45.7240 C   0  0  0  0  0  0  0  0  0  0  0  0
  1  2  1  0
  2  3  2  0
  3  4  1  0
  4  5  2  0
  5  6  1  0
  5  7  1  0
  7  8  1  0
  7  9  2  0
  9 10  1  0
  9 11  1  0
 11 12  1  0
 11 13  2  0
 13 14  1  0
  2 15  1  0
 15 16  2  0
 16 17  1  0
 16 18  1  0
 18 19  1  0
 19 20  2  0
 20 21  1  0
 20 22  1  0
 22 23  1  0
 22 24  2  0
 24 25  1  0
 25 26  1  0
 25 27  1  0
 27 28  2  0
 28 29  1  0
 28 30  1  0
 30 31  1  0
 30 32  2  0
 32 33  1  0
 32 34  1  0
 34 35  1  0
 35 36  1  0
 35 37  1  0
 35 38  1  0
 34 39  2  0
 39 40  1  0
 24 41  1  0
 41 42  1  0
 41 43  2  0
 13  4  1  0
 43 15  1  0
 43 19  1  0
 39 27  1  0
M  CHG  3  12  -1  17  -1  18  -1
M  END
>  <UniqueID>  (4) 
3

>  <SMILES>  (4) 
[O-]c1cccc(/N=C/c2c([O-])[n-]c3ccc(Nc4cccc(C(F)(F)F)c4)cc23)c1

>  <Energy>  (4) 
89.1340131633384

>  <Genealogy>  (4) 
[O-]c1cccc(N=Cc2c([O-])[n-]c3ccc(Nc4cccc(C(F)(F)F)c4)cc23)c1 (protonated)
[O-]c1cccc(/N=C/c2c([O-])[n-]c3ccc(Nc4cccc(C(F)(F)F)c4)cc23)c1 (cis-trans isomerization)
[O-]c1cccc(/N=C/c2c([O-])[n-]c3ccc(Nc4cccc(C(F)(F)F)c4)cc23)c1 (3D coordinates assigned)
[O-]c1cccc(/N=C/c2c([O-])[n-]c3ccc(Nc4cccc(C(F)(F)F)c4)cc23)c1 (optimized conformer: 89.1340131633384 kcal/mol)

>  <smiles>  (4) 
Oc1cccc(N=Cc2c(O)[nH]c3ccc(Nc4cccc(C(F)(F)F)c4)cc23)c1

>  <score_type>  (4) 
oracle

>  <origin>  (4) 
adg

>  <m_score__min__energy>  (4) 
-15.220000000000001

>  <m_primary>  (4) 
energy

$$$$
4:0
     RDKit          3D

 32 33  0  0  0  0  0  0  0  0999 V2000
   59.0000   31.0570   47.7180 C   0  0  0  0  0  0  0  0  0  0  0  0
   58.6410   31.9770   46.5830 C   0  0  0  0  0  0  0  0  0  0  0  0
   59.1570   33.2830   46.5550 C   0  0  0  0  0  0  0  0  0  0  0  0
   58.8160   34.1560   45.5210 C   0  0  0  0  0  0  0  0  0  0  0  0
   57.9390   33.7410   44.5190 C   0  0  0  0  0  0  0  0  0  0  0  0
   57.4080   32.4500   44.5410 C   0  0  0  0  0  0  0  0  0  0  0  0
   57.7650   31.5500   45.5630 C   0  0  0  0  0  0  0  0  0  0  0  0
   57.1960   30.2320   45.6300 N   0  0  0  0  0  0  0  0  0  0  0  0
   56.3880   29.5970   44.6320 C   0  0  0  0  0  0  0  0  0  0  0  0
   55.1660   29.3680   44.8390 O   0  0  0  0  0  0  0  0  0  0  0  0
   57.0100   29.2000   43.3290 C   0  0  0  0  0  0  0  0  0  0  0  0
   57.8040   27.8980   43.4710 C   0  0  0  0  0  0  0  0  0  0  0  0
   58.8520   28.0310   44.4830 N   0  0  0  0  0  0  0  0  0  0  0  0
   58.9780   27.3170   45.6180 C   0  0  0  0  0  0  0  0  0  0  0  0
   60.0540   27.8160   46.3220 C   0  0  0  0  0  0  0  0  0  0  0  0
   60.5890   28.8340   45.6230 N   0  0  0  0  0  0  0  0  0  0  0  0
   59.8380   28.9480   44.5110 C   0  0  0  0  0  0  0  0  0  0  0  0
   58.8031   31.5616   48.6754 H   0  0  0  0  0  0  0  0  0  0  0  0
   58.3930   30.1419   47.6542 H   0  0  0  0  0  0  0  0  0  0  0  0
   60.0664   30.7948   47.6542 H   0  0  0  0  0  0  0  0  0  0  0  0
   59.8344   33.6200   47.3534 H   0  0  0  0  0  0  0  0  0  0  0  0
   59.2388   35.1712   45.4962 H   0  0  0  0  0  0  0  0  0  0  0  0
   57.6649   34.4329   43.7090 H   0  0  0  0  0  0  0  0  0  0  0  0
   56.7064   32.1341   43.7549 H   0  0  0  0  0  0  0  0  0  0  0  0
   56.2164   29.0570   42.5809 H   0  0  0  0  0  0  0  0  0  0  0  0
   57.6995   29.9970   43.0138 H   0  0  0  0  0  0  0  0  0  0  0  0
   57.1192   27.0894   43.7664 H   0  0  0  0  0  0  0  0  0  0  0  0
   58.2769   27.6686   42.5047 H   0  0  0  0  0  0  0  0  0  0  0  0
   58.3345   26.4810   45.9295 H   0  0  0  0  0  0  0  0  0  0  0  0
   60.4145   27.4441   47.2924 H   0  0  0  0  0  0  0  0  0  0  0  0
   61.4060   29.4240   45.8950 H   0  0  0  0  0  0  0  0  0  0  0  0
   60.0086   29.6969   43.7236 H   0  0  0  0  0  0  0  0  0  0  0  0
  1  2  1  0
  2  3  2  0
  3  4  1  0
  4  5  2  0
  5  6  1  0
  6  7  2  0
  7  8  1  0
  8  9  1  0
  9 10  2  0
  9 11  1  0
 11 12  1  0
 12 13  1  0
 13 14  1  0
 14 15  2  0
 15 16  1  0
 16 17  2  0
  7  2  1  0
 17 13  1  0
  1 18  1  0
  1 19  1  0
  1 20  1  0
  3 21  1  0
  4 22  1  0
  5 23  1  0
  6 24  1  0
 11 25  1  0
 11 26  1  0
 12 27  1  0
 12 28  1  0
 14 29  1  0
 15 30  1  0
 16 31  1  0
 17 32  1  0
M  CHG  2   8  -1  16   1
M  END
>  <UniqueID>  (5) 
4

>  <SMILES>  (5) 
Cc1ccccc1[N-]C(=O)CCn1cc[nH+]c1

>  <Energy>  (5) 
60.012088229413784

>  <Genealogy>  (5) 
Cc1ccccc1[N-]C(=O)CCn1cc[nH+]c1 (protonated)
Cc1ccccc1[N-]C(=O)CCn1cc[nH+]c1 (3D coordinates assigned)
Cc1ccccc1[N-]C(=O)CCn1cc[nH+]c1 (optimized conformer: 60.012088229413784 kcal/mol)

>  <smiles>  (5) 
Cc1ccccc1NC(=O)CCn1ccnc1

>  <score_type>  (5) 
oracle

>  <origin>  (5) 
adg

>  <m_score__min__energy>  (5) 
-7.0199999999999996

>  <m_primary>  (5) 
energy

$$$$
5:0
     RDKit          3D

 48 50  0  0  0  0  0  0  0  0999 V2000
   54.9000   28.9680   44.5080 O   0  0  0  0  0  0  0  0  0  0  0  0
   56.1960   29.4680   44.5310 C   0  0  0  0  0  0  0  0  0  0  0  0
   57.2680   28.6190   44.8210 C   0  0  0  0  0  0  0  0  0  0  0  0
   58.5720   29.1210   44.8420 C   0  0  0  0  0  0  0  0  0  0  0  0
   58.8070   30.4730   44.5760 C   0  0  0  0  0  0  0  0  0  0  0  0
   57.7350   31.3340   44.2890 C   0  0  0  0  0  0  0  0  0  0  0  0
   57.9800   32.7880   43.9800 C   0  0  0  0  0  0  0  0  0  0  0  0
   57.6070   33.6420   45.1290 N   0  0  0  0  0  0  0  0  0  0  0  0
   57.6200   32.9170   46.4260 C   0  0  0  0  0  0  0  0  0  0  0  0
   58.8090   33.2760   47.3450 C   0  0  0  0  0  0  0  0  0  0  0  0
   60.0980   33.5160   46.5220 C   0  0  0  0  0  0  0  0  0  0  0  0
   61.2900   33.7500   47.3960 N   0  0  0  0  0  0  0  0  0  0  0  0
   61.0970   33.2240   48.7810 C   0  0  0  0  0  0  0  0  0  0  0  0
   61.9260   31.9760   49.1560 C   0  0  0  0  0  0  0  0  0  0  0  0
   63.4470   32.2160   49.3390 C   0  0  0  0  0  0  0  0  0  0  0  0
   63.9480   33.6190   48.9570 C   0  0  0  0  0  0  0  0  0  0  0  0
   63.8380   33.9320   47.4570 C   0  0  0  0  0  0  0  0  0  0  0  0
   62.5840   33.3730   46.7590 C   0  0  0  0  0  0  0  0  0  0  0  0
   59.8410   34.7150   45.5650 C   0  0  0  0  0  0  0  0  0  0  0  0
   58.3610   34.9120   45.1800 C   0  0  0  0  0  0  0  0  0  0  0  0
   56.4270   30.8220   44.2650 C   0  0  0  0  0  0  0  0  0  0  0  0
   57.0850   27.5552   45.0328 H   0  0  0  0  0  0  0  0  0  0  0  0
   59.4147   28.4512   45.0682 H   0  0  0  0  0  0  0  0  0  0  0  0
   59.8350   30.8640   44.5915 H   0  0  0  0  0  0  0  0  0  0  0  0
   59.0468   32.9335   43.7545 H   0  0  0  0  0  0  0  0  0  0  0  0
   57.3622   33.0725   43.1155 H   0  0  0  0  0  0  0  0  0  0  0  0
   56.6881   33.1521   46.9611 H   0  0  0  0  0  0  0  0  0  0  0  0
   57.7188   31.8477   46.1874 H   0  0  0  0  0  0  0  0  0  0  0  0
   58.5658   34.1903   47.9062 H   0  0  0  0  0  0  0  0  0  0  0  0
   58.9852   32.4354   48.0322 H   0  0  0  0  0  0  0  0  0  0  0  0
   60.3332   32.6142   45.9376 H   0  0  0  0  0  0  0  0  0  0  0  0
   61.3611   34.0268   49.4851 H   0  0  0  0  0  0  0  0  0  0  0  0
   60.0452   32.9061   48.8322 H   0  0  0  0  0  0  0  0  0  0  0  0
   61.5296   31.5772   50.1014 H   0  0  0  0  0  0  0  0  0  0  0  0
   61.8293   31.2827   48.3075 H   0  0  0  0  0  0  0  0  0  0  0  0
   63.6917   32.0457   50.3978 H   0  0  0  0  0  0  0  0  0  0  0  0
   63.9471   31.5195   48.6500 H   0  0  0  0  0  0  0  0  0  0  0  0
   63.3541   34.3614   49.5102 H   0  0  0  0  0  0  0  0  0  0  0  0
   65.0169   33.6573   49.2137 H   0  0  0  0  0  0  0  0  0  0  0  0
   63.8348   35.0255   47.3372 H   0  0  0  0  0  0  0  0  0  0  0  0
   64.6976   33.4392   46.9793 H   0  0  0  0  0  0  0  0  0  0  0  0
   62.5757   33.7436   45.7233 H   0  0  0  0  0  0  0  0  0  0  0  0
   62.6546   32.2775   46.8292 H   0  0  0  0  0  0  0  0  0  0  0  0
   60.1937   35.6323   46.0592 H   0  0  0  0  0  0  0  0  0  0  0  0
   60.3831   34.4968   44.6331 H   0  0  0  0  0  0  0  0  0  0  0  0
   57.8893   35.5708   45.9240 H   0  0  0  0  0  0  0  0  0  0  0  0
   58.3374   35.3511   44.1717 H   0  0  0  0  0  0  0  0  0  0  0  0
   55.5817   31.4878   44.0363 H   0  0  0  0  0  0  0  0  0  0  0  0
  1  2  1  0
  2  3  2  0
  3  4  1  0
  4  5  2  0
  5  6  1  0
  6  7  1  0
  7  8  1  0
  8  9  1  0
  9 10  1  0
 10 11  1  0
 11 12  1  0
 12 13  1  0
 13 14  1  0
 14 15  1  0
 15 16  1  0
 16 17  1  0
 17 18  1  0
 11 19  1  0
 19 20  1  0
  6 21  2  0
 21  2  1  0
 20  8  1  0
 18 12  1  0
  3 22  1  0
  4 23  1  0
  5 24  1  0
  7 25  1  0
  7 26  1  0
  9 27  1  0
  9 28  1  0
 10 29  1  0
 10 30  1  0
 11 31  1  0
 13 32  1  0
 13 33  1  0
 14 34  1  0
 14 35  1  0
 15 36  1  0
 15 37  1  0
 16 38  1  0
 16 39  1  0
 17 40  1  0
 17 41  1  0
 18 42  1  0
 18 43  1  0
 19 44  1  0
 19 45  1  0
 20 46  1  0
 20 47  1  0
 21 48  1  0
M  CHG  1   1  -1
M  END
>  <UniqueID>  (6) 
5

>  <SMILES>  (6) 
[O-]c1cccc(CN2CCC(N3CCCCCC3)CC2)c1

>  <Energy>  (6) 
78.02315577573319

>  <Genealogy>  (6) 
[O-]c1cccc(CN2CCC(N3CCCCCC3)CC2)c1 (protonated)
[O-]c1cccc(CN2CCC(N3CCCCCC3)CC2)c1 (3D coordinates assigned)
[O-]c1cccc(CN2CCC(N3CCCCCC3)CC2)c1 (nonaromatic ring conformer: 78.02315577573319 kcal/mol)

>  <smiles>  (6) 
Oc1cccc(CN2CCC(N3CCCCCC3)CC2)c1

>  <score_type>  (6) 
oracle

>  <origin>  (6) 
adg

>  <m_score__min__energy>  (6) 
-10.25

>  <m_primary>  (6) 
energy

$$$$
6:0
     RDKit          3D

 33 34  0  0  0  0  0  0  0  0999 V2000
   60.3400   27.7540   48.0020 C   0  0  0  0  0  0  0  0  0  0  0  0
   59.8410   27.0460   46.7800 C   0  0  0  0  0  0  0  0  0  0  0  0
   60.5860   26.1990   46.2180 O   0  0  0  0  0  0  0  0  0  0  0  0
   58.5050   27.3430   46.2040 C   0  0  0  0  0  0  0  0  0  0  0  0
   58.3000   28.4750   45.3720 C   0  0  0  0  0  0  0  0  0  0  0  0
   59.4730   29.3170   44.9150 C   0  0  0  0  0  0  0  0  0  0  0  0
   56.9800   28.7720   44.9420 C   0  0  0  0  0  0  0  0  0  0  0  0
   56.6290   29.9840   44.1720 C   0  0  0  0  0  0  0  0  0  0  0  0
   56.4270   29.8840   42.9310 O   0  0  0  0  0  0  0  0  0  0  0  0
   56.3970   31.2310   44.8400 N   0  0  0  0  0  0  0  0  0  0  0  0
   57.3910   32.1860   45.2380 C   0  0  0  0  0  0  0  0  0  0  0  0
   58.1370   31.9350   46.3980 C   0  0  0  0  0  0  0  0  0  0  0  0
   59.1300   32.8290   46.8070 C   0  0  0  0  0  0  0  0  0  0  0  0
   59.3960   33.9750   46.0520 C   0  0  0  0  0  0  0  0  0  0  0  0
   58.6750   34.2210   44.8810 C   0  0  0  0  0  0  0  0  0  0  0  0
   57.6800   33.3290   44.4680 C   0  0  0  0  0  0  0  0  0  0  0  0
   55.9690   27.9150   45.2480 N   0  0  0  0  0  0  0  0  0  0  0  0
   56.1510   26.8020   45.9960 C   0  0  0  0  0  0  0  0  0  0  0  0
   55.1680   26.0530   46.2370 O   0  0  0  0  0  0  0  0  0  0  0  0
   57.4180   26.5010   46.5110 C   0  0  0  0  0  0  0  0  0  0  0  0
   57.6010   25.3880   47.3360 O   0  0  0  0  0  0  0  0  0  0  0  0
   59.9747   27.2357   48.9009 H   0  0  0  0  0  0  0  0  0  0  0  0
   61.4400   27.7557   48.0013 H   0  0  0  0  0  0  0  0  0  0  0  0
   59.9717   28.7905   48.0013 H   0  0  0  0  0  0  0  0  0  0  0  0
   60.0112   29.7033   45.7931 H   0  0  0  0  0  0  0  0  0  0  0  0
   60.1536   28.7000   44.3100 H   0  0  0  0  0  0  0  0  0  0  0  0
   59.1061   30.1592   44.3100 H   0  0  0  0  0  0  0  0  0  0  0  0
   57.9395   31.0290   46.9897 H   0  0  0  0  0  0  0  0  0  0  0  0
   59.7033   32.6307   47.7246 H   0  0  0  0  0  0  0  0  0  0  0  0
   60.1722   34.6823   46.3796 H   0  0  0  0  0  0  0  0  0  0  0  0
   58.8903   35.1184   44.2823 H   0  0  0  0  0  0  0  0  0  0  0  0
   57.1220   33.5208   43.5396 H   0  0  0  0  0  0  0  0  0  0  0  0
   56.8440   24.7570   47.5710 H   0  0  0  0  0  0  0  0  0  0  0  0
  1  2  1  0
  2  3  2  0
  2  4  1  0
  4  5  1  0
  5  6  1  0
  5  7  2  0
  7  8  1  0
  8  9  2  0
  8 10  1  0
 10 11  1  0
 11 12  2  0
 12 13  1  0
 13 14  2  0
 14 15  1  0
 15 16  2  0
  7 17  1  0
 17 18  1  0
 18 19  2  0
 18 20  1  0
 20 21  1  0
 20  4  2  0
 16 11  1  0
  1 22  1  0
  1 23  1  0
  1 24  1  0
  6 25  1  0
  6 26  1  0
  6 27  1  0
 12 28  1  0
 13 29  1  0
 14 30  1  0
 15 31  1  0
 16 32  1  0
 21 33  1  0
M  CHG  2  10  -1  17  -1
M  END
>  <UniqueID>  (7) 
6

>  <SMILES>  (7) 
CC(=O)c1c(C)c(C(=O)[N-]c2ccccc2)[n-]c(=O)c1O

>  <Energy>  (7) 
49.34634327644793

>  <Genealogy>  (7) 
CC(=O)c1c(C)c(C(=O)[N-]c2ccccc2)[n-]c(=O)c1O (protonated)
CC(=O)c1c(C)c(C(=O)[N-]c2ccccc2)[n-]c(=O)c1O (3D coordinates assigned)
CC(=O)c1c(C)c(C(=O)[N-]c2ccccc2)[n-]c(=O)c1O (optimized conformer: 49.34634327644793 kcal/mol)

>  <smiles>  (7) 
CC(=O)c1c(C)c(C(=O)Nc2ccccc2)[nH]c(=O)c1O

>  <score_type>  (7) 
oracle

>  <origin>  (7) 
adg

>  <m_score__min__energy>  (7) 
-10.869999999999999

>  <m_primary>  (7) 
energy

$$$$
7:0
     RDKit          3D

 48 51  0  0  0  0  0  0  0  0999 V2000
   56.6280   30.7450   43.8910 C   0  0  0  0  0  0  0  0  0  0  0  0
   57.0350   30.6510   45.2520 O   0  0  0  0  0  0  0  0  0  0  0  0
   58.2430   31.1520   45.7610 C   0  0  0  0  0  0  0  0  0  0  0  0
   58.4700   32.5360   45.9070 C   0  0  0  0  0  0  0  0  0  0  0  0
   59.6910   33.0050   46.3960 C   0  0  0  0  0  0  0  0  0  0  0  0
   60.6980   32.1050   46.7450 C   0  0  0  0  0  0  0  0  0  0  0  0
   60.4850   30.7320   46.6090 C   0  0  0  0  0  0  0  0  0  0  0  0
   59.2620   30.2460   46.1190 C   0  0  0  0  0  0  0  0  0  0  0  0
   59.0560   28.8260   46.0090 N   0  0  0  0  0  0  0  0  0  0  0  0
   58.6690   28.2330   44.7230 C   0  0  0  0  0  0  0  0  0  0  0  0
   57.8200   26.9720   44.9450 C   0  0  0  0  0  0  0  0  0  0  0  0
   56.9700   27.1410   46.1430 N   0  0  0  0  0  0  0  0  0  0  0  0
   55.9970   26.0730   46.2480 C   0  0  0  0  0  0  0  0  0  0  0  0
   54.7800   26.2930   45.9920 O   0  0  0  0  0  0  0  0  0  0  0  0
   56.4320   24.6810   46.4930 C   0  0  0  0  0  0  0  0  0  0  0  0
   56.6600   24.2870   47.8190 C   0  0  0  0  0  0  0  0  0  0  0  0
   57.0160   22.9690   48.1050 C   0  0  0  0  0  0  0  0  0  0  0  0
   57.1520   22.0660   47.1020 N   0  0  0  0  0  0  0  0  0  0  0  0
   56.9580   22.4050   45.8000 C   0  0  0  0  0  0  0  0  0  0  0  0
   57.1270   21.4370   44.8030 C   0  0  0  0  0  0  0  0  0  0  0  0
   56.9590   21.7790   43.4590 C   0  0  0  0  0  0  0  0  0  0  0  0
   56.6330   23.0890   43.1050 C   0  0  0  0  0  0  0  0  0  0  0  0
   56.4610   24.0640   44.0910 C   0  0  0  0  0  0  0  0  0  0  0  0
   56.6020   23.7330   45.4550 C   0  0  0  0  0  0  0  0  0  0  0  0
   57.7820   27.1990   47.3830 C   0  0  0  0  0  0  0  0  0  0  0  0
   59.1080   27.9700   47.2000 C   0  0  0  0  0  0  0  0  0  0  0  0
   55.5572   30.9923   43.8448 H   0  0  0  0  0  0  0  0  0  0  0  0
   57.2083   31.5328   43.3883 H   0  0  0  0  0  0  0  0  0  0  0  0
   56.8041   29.7825   43.3883 H   0  0  0  0  0  0  0  0  0  0  0  0
   57.6800   33.2510   45.6339 H   0  0  0  0  0  0  0  0  0  0  0  0
   59.8591   34.0865   46.5062 H   0  0  0  0  0  0  0  0  0  0  0  0
   61.6599   32.4771   47.1274 H   0  0  0  0  0  0  0  0  0  0  0  0
   61.2809   30.0257   46.8877 H   0  0  0  0  0  0  0  0  0  0  0  0
   58.0845   28.9661   44.1477 H   0  0  0  0  0  0  0  0  0  0  0  0
   59.5793   27.9561   44.1710 H   0  0  0  0  0  0  0  0  0  0  0  0
   57.1812   26.8031   44.0656 H   0  0  0  0  0  0  0  0  0  0  0  0
   58.4858   26.1090   45.0927 H   0  0  0  0  0  0  0  0  0  0  0  0
   56.4560   28.0510   46.0550 H   0  0  0  0  0  0  0  0  0  0  0  0
   56.5580   25.0180   48.6347 H   0  0  0  0  0  0  0  0  0  0  0  0
   57.1870   22.6610   49.1471 H   0  0  0  0  0  0  0  0  0  0  0  0
   57.3925   20.4056   45.0782 H   0  0  0  0  0  0  0  0  0  0  0  0
   57.0839   21.0143   42.6782 H   0  0  0  0  0  0  0  0  0  0  0  0
   56.5109   23.3552   42.0447 H   0  0  0  0  0  0  0  0  0  0  0  0
   56.2141   25.0962   43.8018 H   0  0  0  0  0  0  0  0  0  0  0  0
   57.1916   27.6977   48.1657 H   0  0  0  0  0  0  0  0  0  0  0  0
   58.0376   26.1650   47.6579 H   0  0  0  0  0  0  0  0  0  0  0  0
   59.2855   28.5967   48.0864 H   0  0  0  0  0  0  0  0  0  0  0  0
   59.9232   27.2423   47.0744 H   0  0  0  0  0  0  0  0  0  0  0  0
  1  2  1  0
  2  3  1  0
  3  4  2  0
  4  5  1  0
  5  6  2  0
  6  7  1  0
  7  8  2  0
  8  9  1  0
  9 10  1  0
 10 11  1  0
 11 12  1  0
 12 13  1  0
 13 14  2  0
 13 15  1  0
 15 16  2  0
 16 17  1  0
 17 18  2  0
 18 19  1  0
 19 20  2  0
 20 21  1  0
 21 22  2  0
 22 23  1  0
 23 24  2  0
 12 25  1  0
 25 26  1  0
  8  3  1  0
 26  9  1  0
 24 15  1  0
 24 19  1  0
  1 27  1  0
  1 28  1  0
  1 29  1  0
  4 30  1  0
  5 31  1  0
  6 32  1  0
  7 33  1  0
 10 34  1  0
 10 35  1  0
 11 36  1  0
 11 37  1  0
 12 38  1  0
 16 39  1  0
 17 40  1  0
 20 41  1  0
 21 42  1  0
 22 43  1  0
 23 44  1  0
 25 45  1  0
 25 46  1  0
 26 47  1  0
 26 48  1  0
M  CHG  1  12   1
M  END
>  <UniqueID>  (8) 
7

>  <SMILES>  (8) 
COc1ccccc1N1CC[NH+](C(=O)c2ccnc3ccccc23)CC1

>  <Energy>  (8) 
74.76859716180432

>  <Genealogy>  (8) 
COc1ccccc1N1CC[NH+](C(=O)c2ccnc3ccccc23)CC1 (protonated)
COc1ccccc1N1CC[NH+](C(=O)c2ccnc3ccccc23)CC1 (3D coordinates assigned)
COc1ccccc1N1CC[NH+](C(=O)c2ccnc3ccccc23)CC1 (nonaromatic ring conformer: 74.76859716180432 kcal/mol)

>  <smiles>  (8) 
COc1ccccc1N1CCN(C(=O)c2ccnc3ccccc23)CC1

>  <score_type>  (8) 
oracle

>  <origin>  (8) 
adg

>  <m_score__min__energy>  (8) 
-6.25

>  <m_primary>  (8) 
energy

$$$$
8:0
     RDKit          3D

 35 37  0  0  0  0  0  0  0  0999 V2000
   59.9670   28.7390   48.6730 C   0  0  0  0  0  0  0  0  0  0  0  0
   60.3150   30.0950   48.4070 O   0  0  0  0  0  0  0  0  0  0  0  0
   59.4800   31.0130   47.7520 C   0  0  0  0  0  0  0  0  0  0  0  0
   59.0590   32.1470   48.4560 C   0  0  0  0  0  0  0  0  0  0  0  0
   58.2320   33.0930   47.8460 C   0  0  0  0  0  0  0  0  0  0  0  0
   57.8110   32.9090   46.5270 C   0  0  0  0  0  0  0  0  0  0  0  0
   58.2070   31.7700   45.8080 C   0  0  0  0  0  0  0  0  0  0  0  0
   57.7670   31.5900   44.4070 C   0  0  0  0  0  0  0  0  0  0  0  0
   58.0810   32.6870   43.1690 S   0  0  0  0  0  0  0  0  0  0  0  0
   57.3820   31.7960   41.9300 C   0  0  0  0  0  0  0  0  0  0  0  0
   56.8820   30.6210   42.4700 C   0  0  0  0  0  0  0  0  0  0  0  0
   57.0930   30.4930   43.8550 C   0  0  0  0  0  0  0  0  0  0  0  0
   56.5370   29.3670   44.6380 C   0  0  0  0  0  0  0  0  0  0  0  0
   55.2960   29.3390   44.8630 O   0  0  0  0  0  0  0  0  0  0  0  0
   57.3920   28.2660   45.1450 C   0  0  0  0  0  0  0  0  0  0  0  0
   56.8530   27.2400   45.9460 C   0  0  0  0  0  0  0  0  0  0  0  0
   57.6660   26.1990   46.4030 C   0  0  0  0  0  0  0  0  0  0  0  0
   59.0200   26.1650   46.0630 C   0  0  0  0  0  0  0  0  0  0  0  0
   59.5630   27.1700   45.2590 C   0  0  0  0  0  0  0  0  0  0  0  0
   58.7540   28.2130   44.7970 C   0  0  0  0  0  0  0  0  0  0  0  0
   59.0570   30.8330   46.4210 C   0  0  0  0  0  0  0  0  0  0  0  0
   59.9256   28.5776   49.7603 H   0  0  0  0  0  0  0  0  0  0  0  0
   58.9834   28.5196   48.2320 H   0  0  0  0  0  0  0  0  0  0  0  0
   60.7233   28.0731   48.2320 H   0  0  0  0  0  0  0  0  0  0  0  0
   59.3817   32.2943   49.4972 H   0  0  0  0  0  0  0  0  0  0  0  0
   57.9117   33.9844   48.4053 H   0  0  0  0  0  0  0  0  0  0  0  0
   57.1656   33.6606   46.0489 H   0  0  0  0  0  0  0  0  0  0  0  0
   57.3297   32.0931   40.8722 H   0  0  0  0  0  0  0  0  0  0  0  0
   56.3665   29.8572   41.8693 H   0  0  0  0  0  0  0  0  0  0  0  0
   55.7861   27.2583   46.2133 H   0  0  0  0  0  0  0  0  0  0  0  0
   57.2382   25.4045   47.0321 H   0  0  0  0  0  0  0  0  0  0  0  0
   59.6587   25.3472   46.4281 H   0  0  0  0  0  0  0  0  0  0  0  0
   60.6289   27.1410   44.9888 H   0  0  0  0  0  0  0  0  0  0  0  0
   59.1855   28.9970   44.1574 H   0  0  0  0  0  0  0  0  0  0  0  0
   59.3946   29.9516   45.8561 H   0  0  0  0  0  0  0  0  0  0  0  0
  1  2  1  0
  2  3  1  0
  3  4  2  0
  4  5  1  0
  5  6  2  0
  6  7  1  0
  7  8  1  0
  8  9  1  0
  9 10  1  0
 10 11  2  0
 11 12  1  0
 12 13  1  0
 13 14  2  0
 13 15  1  0
 15 16  2  0
 16 17  1  0
 17 18  2  0
 18 19  1  0
 19 20  2  0
  7 21  2  0
 21  3  1  0
 12  8  2  0
 20 15  1  0
  1 22  1  0
  1 23  1  0
  1 24  1  0
  4 25  1  0
  5 26  1  0
  6 27  1  0
 10 28  1  0
 11 29  1  0
 16 30  1  0
 17 31  1  0
 18 32  1  0
 19 33  1  0
 20 34  1  0
 21 35  1  0
M  END
>  <UniqueID>  (9) 
8

>  <SMILES>  (9) 
COc1cccc(-c2sccc2C(=O)c2ccccc2)c1

>  <Energy>  (9) 
72.94896625574198

>  <Genealogy>  (9) 
COc1cccc(-c2sccc2C(=O)c2ccccc2)c1 (3D coordinates assigned)
COc1cccc(-c2sccc2C(=O)c2ccccc2)c1 (optimized conformer: 72.94896625574198 kcal/mol)

>  <smiles>  (9) 
COc1cccc(-c2sccc2C(=O)c2ccccc2)c1

>  <score_type>  (9) 
oracle

>  <origin>  (9) 
adg

>  <m_score__min__energy>  (9) 
-7.5999999999999996

>  <m_primary>  (9) 
energy

$$$$
9:0
     RDKit          3D

 60 64  0  0  0  0  0  0  0  0999 V2000
   58.6610   29.0510   48.4430 O   0  0  0  0  0  0  0  0  0  0  0  0
   58.9380   28.8210   46.9840 S   0  0  0  0  0  0  0  0  0  0  0  0
   60.4180   28.7740   46.7350 O   0  0  0  0  0  0  0  0  0  0  0  0
   58.2200   27.3310   46.4930 N   0  0  0  0  0  0  0  0  0  0  0  0
   57.3880   27.2380   45.4900 C   0  0  0  0  0  0  0  0  0  0  0  0
   56.8360   25.9590   45.1130 N   0  0  0  0  0  0  0  0  0  0  0  0
   56.9060   24.7460   45.9400 C   0  0  0  0  0  0  0  0  0  0  0  0
   57.8900   23.7370   45.3760 C   0  0  0  0  0  0  0  0  0  0  0  0
   59.2490   23.8320   45.7260 C   0  0  0  0  0  0  0  0  0  0  0  0
   60.1730   22.9000   45.2430 C   0  0  0  0  0  0  0  0  0  0  0  0
   59.7500   21.8600   44.4120 C   0  0  0  0  0  0  0  0  0  0  0  0
   58.3990   21.7450   44.0690 C   0  0  0  0  0  0  0  0  0  0  0  0
   57.4720   22.6750   44.5500 C   0  0  0  0  0  0  0  0  0  0  0  0
   55.5330   24.1180   46.0870 C   0  0  0  0  0  0  0  0  0  0  0  0
   55.2640   23.1990   47.1210 C   0  0  0  0  0  0  0  0  0  0  0  0
   53.9930   22.6310   47.2500 C   0  0  0  0  0  0  0  0  0  0  0  0
   52.9820   22.9620   46.3460 C   0  0  0  0  0  0  0  0  0  0  0  0
   53.2380   23.8640   45.3110 C   0  0  0  0  0  0  0  0  0  0  0  0
   54.5050   24.4390   45.1790 C   0  0  0  0  0  0  0  0  0  0  0  0
   57.0030   28.3930   44.7150 N   0  0  0  0  0  0  0  0  0  0  0  0
   57.3380   29.7620   45.0090 C   0  0  0  0  0  0  0  0  0  0  0  0
   56.7640   30.7950   44.2480 C   0  0  0  0  0  0  0  0  0  0  0  0
   57.0640   32.1320   44.5210 C   0  0  0  0  0  0  0  0  0  0  0  0
   57.9570   32.4590   45.5520 C   0  0  0  0  0  0  0  0  0  0  0  0
   58.2470   33.8990   45.8800 C   0  0  0  0  0  0  0  0  0  0  0  0
   59.6770   34.2660   45.4680 C   0  0  0  0  0  0  0  0  0  0  0  0
   60.6200   34.1090   46.6300 C   0  0  0  0  0  0  0  0  0  0  0  0
   60.1500   34.2360   47.9470 C   0  0  0  0  0  0  0  0  0  0  0  0
   61.0220   34.0620   49.0270 C   0  0  0  0  0  0  0  0  0  0  0  0
   62.3650   33.7530   48.8010 C   0  0  0  0  0  0  0  0  0  0  0  0
   62.8380   33.6120   47.4940 C   0  0  0  0  0  0  0  0  0  0  0  0
   61.9700   33.7840   46.4110 C   0  0  0  0  0  0  0  0  0  0  0  0
   58.5300   31.4320   46.3160 C   0  0  0  0  0  0  0  0  0  0  0  0
   58.2230   30.0940   46.0420 C   0  0  0  0  0  0  0  0  0  0  0  0
   58.5120   26.4900   47.0370 H   0  0  0  0  0  0  0  0  0  0  0  0
   56.3200   25.9120   44.2050 H   0  0  0  0  0  0  0  0  0  0  0  0
   57.2676   25.0469   46.9343 H   0  0  0  0  0  0  0  0  0  0  0  0
   59.5875   24.6455   46.3846 H   0  0  0  0  0  0  0  0  0  0  0  0
   61.2346   22.9860   45.5179 H   0  0  0  0  0  0  0  0  0  0  0  0
   60.4792   21.1317   44.0275 H   0  0  0  0  0  0  0  0  0  0  0  0
   58.0652   20.9220   43.4200 H   0  0  0  0  0  0  0  0  0  0  0  0
   56.4097   22.5767   44.2817 H   0  0  0  0  0  0  0  0  0  0  0  0
   56.0589   22.9269   47.8310 H   0  0  0  0  0  0  0  0  0  0  0  0
   53.7892   21.9217   48.0657 H   0  0  0  0  0  0  0  0  0  0  0  0
   51.9835   22.5122   46.4489 H   0  0  0  0  0  0  0  0  0  0  0  0
   52.4409   24.1224   44.5983 H   0  0  0  0  0  0  0  0  0  0  0  0
   54.7008   25.1472   44.3604 H   0  0  0  0  0  0  0  0  0  0  0  0
   56.3760   28.2210   43.8980 H   0  0  0  0  0  0  0  0  0  0  0  0
   56.0718   30.5484   43.4295 H   0  0  0  0  0  0  0  0  0  0  0  0
   56.5983   32.9309   43.9253 H   0  0  0  0  0  0  0  0  0  0  0  0
   57.5379   34.5433   45.3395 H   0  0  0  0  0  0  0  0  0  0  0  0
   58.1409   34.0450   46.9651 H   0  0  0  0  0  0  0  0  0  0  0  0
   59.9984   33.6048   44.6498 H   0  0  0  0  0  0  0  0  0  0  0  0
   59.6926   35.3152   45.1380 H   0  0  0  0  0  0  0  0  0  0  0  0
   59.0917   34.4733   48.1303 H   0  0  0  0  0  0  0  0  0  0  0  0
   60.6490   34.1688   50.0563 H   0  0  0  0  0  0  0  0  0  0  0  0
   63.0500   33.6207   49.6515 H   0  0  0  0  0  0  0  0  0  0  0  0
   63.8952   33.3652   47.3164 H   0  0  0  0  0  0  0  0  0  0  0  0
   62.3451   33.6645   45.3839 H   0  0  0  0  0  0  0  0  0  0  0  0
   59.2233   31.6788   47.1336 H   0  0  0  0  0  0  0  0  0  0  0  0
  1  2  2  0
  2  3  2  0
  2  4  1  0
  4  5  2  0
  5  6  1  0
  6  7  1  0
  7  8  1  0
  8  9  2  0
  9 10  1  0
 10 11  2  0
 11 12  1  0
 12 13  2  0
  7 14  1  0
 14 15  2  0
 15 16  1  0
 16 17  2  0
 17 18  1  0
 18 19  2  0
  5 20  1  0
 20 21  1  0
 21 22  2  0
 22 23  1  0
 23 24  2  0
 24 25  1  0
 25 26  1  0
 26 27  1  0
 27 28  2  0
 28 29  1  0
 29 30  2  0
 30 31  1  0
 31 32  2  0
 24 33  1  0
 33 34  2  0
 34  2  1  0
 13  8  1  0
 19 14  1  0
 34 21  1  0
 32 27  1  0
  4 35  1  0
  6 36  1  0
  7 37  1  0
  9 38  1  0
 10 39  1  0
 11 40  1  0
 12 41  1  0
 13 42  1  0
 15 43  1  0
 16 44  1  0
 17 45  1  0
 18 46  1  0
 19 47  1  0
 20 48  1  0
 22 49  1  0
 23 50  1  0
 25 51  1  0
 25 52  1  0
 26 53  1  0
 26 54  1  0
 28 55  1  0
 29 56  1  0
 30 57  1  0
 31 58  1  0
 32 59  1  0
 33 60  1  0
M  CHG  1   4   1
M  END
>  <UniqueID>  (10) 
9

>  <SMILES>  (10) 
O=S1(=O)[NH+]=C(NC(c2ccccc2)c2ccccc2)Nc2ccc(CCc3ccccc3)cc21

>  <Energy>  (10) 
69.8441471274757

>  <Genealogy>  (10) 
O=S1(=O)[NH+]=C(NC(c2ccccc2)c2ccccc2)Nc2ccc(CCc3ccccc3)cc21 (protonated)
O=S1(=O)[NH+]=C(NC(c2ccccc2)c2ccccc2)Nc2ccc(CCc3ccccc3)cc21 (3D coordinates assigned)
O=S1(=O)[NH+]=C(NC(c2ccccc2)c2ccccc2)Nc2ccc(CCc3ccccc3)cc21 (nonaromatic ring conformer: 69.8441471274757 kcal/mol)

>  <smiles>  (10) 
O=S1(=O)N=C(NC(c2ccccc2)c2ccccc2)Nc2ccc(CCc3ccccc3)cc21

>  <score_type>  (10) 
oracle

>  <origin>  (10) 
adg

>  <m_score__min__energy>  (10) 
-8.6099999999999994

>  <m_primary>  (10) 
energy

$$$$
10:0
     RDKit          3D

 44 47  0  0  0  0  0  0  0  0999 V2000
   56.6770   27.5391   45.2131 H   0  0  0  0  0  0  0  0  0  0  0  0
   57.0680   28.5430   44.9910 C   0  0  0  0  0  0  0  0  0  0  0  0
   56.3300   29.6690   45.1720 N   0  0  0  0  0  0  0  0  0  0  0  0
   57.0250   30.7740   44.8240 C   0  0  0  0  0  0  0  0  0  0  0  0
   56.5530   31.9790   44.8930 N   0  0  0  0  0  0  0  0  0  0  0  0
   57.5520   33.3950   44.8360 S   0  0  0  0  0  0  0  0  0  0  0  0
   58.4120   33.3430   43.6050 O   0  0  0  0  0  0  0  0  0  0  0  0
   56.6920   34.6260   44.7630 O   0  0  0  0  0  0  0  0  0  0  0  0
   58.5770   33.4410   46.2660 C   0  0  0  0  0  0  0  0  0  0  0  0
   59.8050   34.1130   46.2370 C   0  0  0  0  0  0  0  0  0  0  0  0
   60.1542   34.5764   45.3025 H   0  0  0  0  0  0  0  0  0  0  0  0
   60.5880   34.1970   47.3900 C   0  0  0  0  0  0  0  0  0  0  0  0
   61.5568   34.7169   47.3569 H   0  0  0  0  0  0  0  0  0  0  0  0
   60.1440   33.6200   48.5940 C   0  0  0  0  0  0  0  0  0  0  0  0
   60.8930   33.7300   49.7770 O   0  0  0  0  0  0  0  0  0  0  0  0
   62.2230   33.3090   49.9250 C   0  0  0  0  0  0  0  0  0  0  0  0
   63.1380   34.2100   50.4820 C   0  0  0  0  0  0  0  0  0  0  0  0
   62.8071   35.2224   50.7569 H   0  0  0  0  0  0  0  0  0  0  0  0
   64.4670   33.8360   50.6920 C   0  0  0  0  0  0  0  0  0  0  0  0
   65.1746   34.5484   51.1413 H   0  0  0  0  0  0  0  0  0  0  0  0
   64.8970   32.5590   50.3320 C   0  0  0  0  0  0  0  0  0  0  0  0
   65.9409   32.2610   50.5093 H   0  0  0  0  0  0  0  0  0  0  0  0
   64.0050   31.6580   49.7470 C   0  0  0  0  0  0  0  0  0  0  0  0
   64.3529   30.6542   49.4619 H   0  0  0  0  0  0  0  0  0  0  0  0
   62.6660   32.0220   49.5190 C   0  0  0  0  0  0  0  0  0  0  0  0
   61.7710   31.0690   48.8180 C   0  0  0  0  0  0  0  0  0  0  0  0
   61.7100   31.0410   47.4140 C   0  0  0  0  0  0  0  0  0  0  0  0
   62.3539   31.7108   46.8252 H   0  0  0  0  0  0  0  0  0  0  0  0
   60.8360   30.1670   46.7620 C   0  0  0  0  0  0  0  0  0  0  0  0
   60.7798   30.1644   45.6634 H   0  0  0  0  0  0  0  0  0  0  0  0
   60.0330   29.2960   47.5040 C   0  0  0  0  0  0  0  0  0  0  0  0
   59.3415   28.6124   46.9897 H   0  0  0  0  0  0  0  0  0  0  0  0
   60.1090   29.2940   48.8980 C   0  0  0  0  0  0  0  0  0  0  0  0
   59.4893   28.5962   49.4802 H   0  0  0  0  0  0  0  0  0  0  0  0
   60.9710   30.1770   49.5560 C   0  0  0  0  0  0  0  0  0  0  0  0
   61.0239   30.1743   50.6547 H   0  0  0  0  0  0  0  0  0  0  0  0
   58.9270   32.9190   48.6130 C   0  0  0  0  0  0  0  0  0  0  0  0
   58.4510   32.3160   49.8330 C   0  0  0  0  0  0  0  0  0  0  0  0
   58.0700   31.8310   50.8120 N   0  0  0  0  0  0  0  0  0  0  0  0
   58.1430   32.8400   47.4550 C   0  0  0  0  0  0  0  0  0  0  0  0
   57.1827   32.3040   47.4791 H   0  0  0  0  0  0  0  0  0  0  0  0
   58.5720   30.4070   44.2880 S   0  0  0  0  0  0  0  0  0  0  0  0
   58.3550   28.7520   44.5040 C   0  0  0  0  0  0  0  0  0  0  0  0
   59.1011   27.9708   44.2963 H   0  0  0  0  0  0  0  0  0  0  0  0
  1  2  1  0
  2  3  1  0
  3  4  1  0
  4  5  2  0
  5  6  1  0
  6  7  2  0
  6  8  2  0
  6  9  1  0
  9 10  2  0
 10 11  1  0
 10 12  1  0
 12 13  1  0
 12 14  2  0
 14 15  1  0
 15 16  1  0
 16 17  2  0
 17 18  1  0
 17 19  1  0
 19 20  1  0
 19 21  2  0
 21 22  1  0
 21 23  1  0
 23 24  1  0
 23 25  2  0
 25 26  1  0
 26 27  2  0
 27 28  1  0
 27 29  1  0
 29 30  1  0
 29 31  2  0
 31 32  1  0
 31 33  1  0
 33 34  1  0
 33 35  2  0
 35 36  1  0
 14 37  1  0
 37 38  1  0
 38 39  3  0
 37 40  2  0
 40 41  1  0
  4 42  1  0
 42 43  1  0
 43 44  1  0
 43  2  2  0
 40  9  1  0
 25 16  1  0
 35 26  1  0
M  CHG  1   3  -1
M  END
>  <UniqueID>  (11) 
10

>  <SMILES>  (11) 
N#Cc1cc(S(=O)(=O)/N=c2\[n-]ccs2)ccc1Oc1ccccc1-c1ccccc1

>  <Energy>  (11) 
90.94789363250108

>  <Genealogy>  (11) 
N#Cc1cc(S(=O)(=O)N=c2[n-]ccs2)ccc1Oc1ccccc1-c1ccccc1 (protonated)
N#Cc1cc(S(=O)(=O)/N=c2\[n-]ccs2)ccc1Oc1ccccc1-c1ccccc1 (cis-trans isomerization)
N#Cc1cc(S(=O)(=O)/N=c2\[n-]ccs2)ccc1Oc1ccccc1-c1ccccc1 (3D coordinates assigned)
N#Cc1cc(S(=O)(=O)/N=c2\[n-]ccs2)ccc1Oc1ccccc1-c1ccccc1 (optimized conformer: 90.94789363250108 kcal/mol)

>  <smiles>  (11) 
N#Cc1cc(S(=O)(=O)N=c2[nH]ccs2)ccc1Oc1ccccc1-c1ccccc1

>  <score_type>  (11) 
oracle

>  <origin>  (11) 
adg

>  <m_score__min__energy>  (11) 
-11.119999999999999

>  <m_primary>  (11) 
energy

$$$$
11:0
     RDKit          3D

 54 58  0  0  0  0  0  0  0  0999 V2000
   61.6960   31.4060   50.8460 O   0  0  0  0  0  0  0  0  0  0  0  0
   60.7060   31.7480   50.1440 C   0  0  0  0  0  0  0  0  0  0  0  0
   59.9860   32.9320   50.5060 N   0  0  0  0  0  0  0  0  0  0  0  0
   60.0900   34.2170   49.8250 C   0  0  0  0  0  0  0  0  0  0  0  0
   61.1120   34.1140   48.7290 C   0  0  0  0  0  0  0  0  0  0  0  0
   60.7090   34.0140   47.3860 C   0  0  0  0  0  0  0  0  0  0  0  0
   61.6630   33.8610   46.3760 C   0  0  0  0  0  0  0  0  0  0  0  0
   63.0210   33.7990   46.6970 C   0  0  0  0  0  0  0  0  0  0  0  0
   63.4290   33.8880   48.0320 C   0  0  0  0  0  0  0  0  0  0  0  0
   62.4790   34.0400   49.0460 C   0  0  0  0  0  0  0  0  0  0  0  0
   60.3100   30.9000   48.9990 C   0  0  0  0  0  0  0  0  0  0  0  0
   59.1230   30.1520   49.0650 C   0  0  0  0  0  0  0  0  0  0  0  0
   58.7580   29.3120   48.0090 C   0  0  0  0  0  0  0  0  0  0  0  0
   59.5900   29.1840   46.8840 C   0  0  0  0  0  0  0  0  0  0  0  0
   59.1960   28.2930   45.7330 C   0  0  1  0  0  0  0  0  0  0  0  0
   59.6970   26.9590   45.9210 O   0  0  0  0  0  0  0  0  0  0  0  0
   58.6320   26.0760   45.8900 C   0  0  0  0  0  0  0  0  0  0  0  0
   58.6690   24.6850   45.9770 C   0  0  0  0  0  0  0  0  0  0  0  0
   57.4500   23.9880   45.8870 C   0  0  0  0  0  0  0  0  0  0  0  0
   56.2380   24.6920   45.7140 C   0  0  0  0  0  0  0  0  0  0  0  0
   56.2360   26.0960   45.6340 C   0  0  0  0  0  0  0  0  0  0  0  0
   57.4620   26.7580   45.7380 C   0  0  0  0  0  0  0  0  0  0  0  0
   57.7340   28.1530   45.6730 N   0  0  0  0  0  0  0  0  0  0  0  0
   56.8240   29.1660   45.2290 C   0  0  0  0  0  0  0  0  0  0  0  0
   55.5890   28.9210   45.2190 O   0  0  0  0  0  0  0  0  0  0  0  0
   57.3200   30.4840   44.7730 C   0  0  0  0  0  0  0  0  0  0  0  0
   57.3630   30.7970   43.4020 C   0  0  0  0  0  0  0  0  0  0  0  0
   57.8190   32.0470   42.9750 C   0  0  0  0  0  0  0  0  0  0  0  0
   58.2420   32.9940   43.9110 C   0  0  0  0  0  0  0  0  0  0  0  0
   58.2200   32.6860   45.2740 C   0  0  0  0  0  0  0  0  0  0  0  0
   57.7660   31.4370   45.7070 C   0  0  0  0  0  0  0  0  0  0  0  0
   60.7720   29.9360   46.8170 C   0  0  0  0  0  0  0  0  0  0  0  0
   61.1370   30.7780   47.8730 C   0  0  0  0  0  0  0  0  0  0  0  0
   59.1141   34.4850   49.3940 H   0  0  0  0  0  0  0  0  0  0  0  0
   60.3953   34.9922   50.5432 H   0  0  0  0  0  0  0  0  0  0  0  0
   59.6402   34.0563   47.1293 H   0  0  0  0  0  0  0  0  0  0  0  0
   61.3436   33.7892   45.3258 H   0  0  0  0  0  0  0  0  0  0  0  0
   63.7697   33.6802   45.8999 H   0  0  0  0  0  0  0  0  0  0  0  0
   64.4986   33.8383   48.2841 H   0  0  0  0  0  0  0  0  0  0  0  0
   62.8025   34.1019   50.0955 H   0  0  0  0  0  0  0  0  0  0  0  0
   58.4773   30.2276   49.9523 H   0  0  0  0  0  0  0  0  0  0  0  0
   57.8147   28.7484   48.0590 H   0  0  0  0  0  0  0  0  0  0  0  0
   59.6065   28.7544   44.8227 H   0  0  0  0  0  0  0  0  0  0  0  0
   59.6205   24.1497   46.1117 H   0  0  0  0  0  0  0  0  0  0  0  0
   57.4410   22.8899   45.9517 H   0  0  0  0  0  0  0  0  0  0  0  0
   55.2900   24.1389   45.6414 H   0  0  0  0  0  0  0  0  0  0  0  0
   55.2991   26.6552   45.4940 H   0  0  0  0  0  0  0  0  0  0  0  0
   57.0355   30.0527   42.6612 H   0  0  0  0  0  0  0  0  0  0  0  0
   57.8449   32.2854   41.9015 H   0  0  0  0  0  0  0  0  0  0  0  0
   58.5921   33.9813   43.5754 H   0  0  0  0  0  0  0  0  0  0  0  0
   58.5614   33.4297   46.0091 H   0  0  0  0  0  0  0  0  0  0  0  0
   57.7574   31.1985   46.7808 H   0  0  0  0  0  0  0  0  0  0  0  0
   61.4163   29.8633   45.9284 H   0  0  0  0  0  0  0  0  0  0  0  0
   62.0769   31.3469   47.8198 H   0  0  0  0  0  0  0  0  0  0  0  0
  1  2  2  0
  2  3  1  0
  3  4  1  0
  4  5  1  0
  5  6  2  0
  6  7  1  0
  7  8  2  0
  8  9  1  0
  9 10  2  0
  2 11  1  0
 11 12  2  0
 12 13  1  0
 13 14  2  0
 14 15  1  0
 15 16  1  0
 16 17  1  0
 17 18  2  0
 18 19  1  0
 19 20  2  0
 20 21  1  0
 21 22  2  0
 22 23  1  0
 23 24  1  0
 24 25  2  0
 24 26  1  0
 26 27  2  0
 27 28  1  0
 28 29  2  0
 29 30  1  0
 30 31  2  0
 14 32  1  0
 32 33  2  0
 10  5  1  0
 33 11  1  0
 23 15  1  0
 31 26  1  0
 22 17  1  0
  4 34  1  0
  4 35  1  0
  6 36  1  0
  7 37  1  0
  8 38  1  0
  9 39  1  0
 10 40  1  0
 12 41  1  0
 13 42  1  0
 15 43  1  6
 18 44  1  0
 19 45  1  0
 20 46  1  0
 21 47  1  0
 27 48  1  0
 28 49  1  0
 29 50  1  0
 30 51  1  0
 31 52  1  0
 32 53  1  0
 33 54  1  0
M  CHG  1   3  -1
M  END
>  <UniqueID>  (12) 
11

>  <SMILES>  (12) 
O=C([N-]Cc1ccccc1)c1ccc([C@H]2Oc3ccccc3N2C(=O)c2ccccc2)cc1

>  <Energy>  (12) 
94.47612726906341

>  <Genealogy>  (12) 
O=C([N-]Cc1ccccc1)c1ccc(C2Oc3ccccc3N2C(=O)c2ccccc2)cc1 (protonated)
O=C([N-]Cc1ccccc1)c1ccc([C@H]2Oc3ccccc3N2C(=O)c2ccccc2)cc1 (chirality)
O=C([N-]Cc1ccccc1)c1ccc([C@H]2Oc3ccccc3N2C(=O)c2ccccc2)cc1 (3D coordinates assigned)
O=C([N-]Cc1ccccc1)c1ccc([C@H]2Oc3ccccc3N2C(=O)c2ccccc2)cc1 (nonaromatic ring conformer: 94.47612726906341 kcal/mol)

>  <smiles>  (12) 
O=C(NCc1ccccc1)c1ccc(C2Oc3ccccc3N2C(=O)c2ccccc2)cc1

>  <score_type>  (12) 
oracle

>  <origin>  (12) 
adg

>  <m_score__min__energy>  (12) 
-10.960000000000001

>  <m_primary>  (12) 
energy

$$$$
12:0
     RDKit          3D

 38 40  0  0  0  0  0  0  0  0999 V2000
   56.1080   30.6940   44.5550 O   0  0  0  0  0  0  0  0  0  0  0  0
   57.3030   30.2990   44.6340 C   0  0  0  0  0  0  0  0  0  0  0  0
   58.3710   31.1520   44.1960 N   0  0  0  0  0  0  0  0  0  0  0  0
   58.1320   32.4280   43.5250 C   0  0  0  0  0  0  0  0  0  0  0  0
   57.4340   33.4070   44.4720 C   0  0  0  0  0  0  0  0  0  0  0  0
   58.2840   33.6660   45.6870 C   0  0  0  0  0  0  0  0  0  0  0  0
   58.0780   32.9320   46.8670 C   0  0  0  0  0  0  0  0  0  0  0  0
   58.8470   33.1970   48.0050 C   0  0  0  0  0  0  0  0  0  0  0  0
   59.8200   34.2000   47.9750 C   0  0  0  0  0  0  0  0  0  0  0  0
   60.0210   34.9450   46.8090 C   0  0  0  0  0  0  0  0  0  0  0  0
   59.2540   34.6830   45.6690 C   0  0  0  0  0  0  0  0  0  0  0  0
   57.5920   28.9780   45.2360 C   0  0  0  0  0  0  0  0  0  0  0  0
   56.5460   28.0430   45.3250 C   0  0  0  0  0  0  0  0  0  0  0  0
   56.7410   26.8200   45.9690 C   0  0  0  0  0  0  0  0  0  0  0  0
   55.7270   25.9200   46.0680 N   0  0  0  0  0  0  0  0  0  0  0  0
   55.9030   24.7280   46.6980 C   0  0  0  0  0  0  0  0  0  0  0  0
   54.9450   23.9130   46.7740 O   0  0  0  0  0  0  0  0  0  0  0  0
   57.1510   24.4210   47.2570 C   0  0  0  0  0  0  0  0  0  0  0  0
   57.3420   23.3240   47.8460 O   0  0  0  0  0  0  0  0  0  0  0  0
   58.1670   25.3200   47.1590 N   0  0  0  0  0  0  0  0  0  0  0  0
   57.9930   26.5130   46.5310 C   0  0  0  0  0  0  0  0  0  0  0  0
   59.0460   27.4230   46.4310 C   0  0  0  0  0  0  0  0  0  0  0  0
   58.8700   28.6520   45.7680 C   0  0  0  0  0  0  0  0  0  0  0  0
   60.0050   29.5180   45.5990 N   0  0  0  0  0  0  0  0  0  0  0  0
   60.1260   30.5450   46.2980 O   0  0  0  0  0  0  0  0  0  0  0  0
   60.8550   29.3380   44.5320 O   0  0  0  0  0  0  0  0  0  0  0  0
   59.3570   30.8960   44.4320 H   0  0  0  0  0  0  0  0  0  0  0  0
   59.0941   32.8557   43.2064 H   0  0  0  0  0  0  0  0  0  0  0  0
   57.4866   32.2559   42.6510 H   0  0  0  0  0  0  0  0  0  0  0  0
   57.2578   34.3563   43.9450 H   0  0  0  0  0  0  0  0  0  0  0  0
   56.4785   32.9679   44.7947 H   0  0  0  0  0  0  0  0  0  0  0  0
   57.3091   32.1459   46.8961 H   0  0  0  0  0  0  0  0  0  0  0  0
   58.6858   32.6153   48.9246 H   0  0  0  0  0  0  0  0  0  0  0  0
   60.4278   34.4033   48.8690 H   0  0  0  0  0  0  0  0  0  0  0  0
   60.7831   35.7380   46.7882 H   0  0  0  0  0  0  0  0  0  0  0  0
   59.4105   35.2750   44.7552 H   0  0  0  0  0  0  0  0  0  0  0  0
   55.5660   28.2770   44.8836 H   0  0  0  0  0  0  0  0  0  0  0  0
   60.0224   27.1777   46.8743 H   0  0  0  0  0  0  0  0  0  0  0  0
  1  2  2  0
  2  3  1  0
  3  4  1  0
  4  5  1  0
  5  6  1  0
  6  7  2  0
  7  8  1  0
  8  9  2  0
  9 10  1  0
 10 11  2  0
  2 12  1  0
 12 13  2  0
 13 14  1  0
 14 15  1  0
 15 16  1  0
 16 17  2  0
 16 18  1  0
 18 19  2  0
 18 20  1  0
 20 21  1  0
 21 22  1  0
 22 23  2  0
 23 24  1  0
 24 25  2  0
 24 26  1  0
 11  6  1  0
 23 12  1  0
 21 14  2  0
  3 27  1  0
  4 28  1  0
  4 29  1  0
  5 30  1  0
  5 31  1  0
  7 32  1  0
  8 33  1  0
  9 34  1  0
 10 35  1  0
 11 36  1  0
 13 37  1  0
 22 38  1  0
M  CHG  4  15  -1  20  -1  24   1  26  -1
M  END
>  <UniqueID>  (13) 
12

>  <SMILES>  (13) 
O=C(NCCc1ccccc1)c1cc2[n-]c(=O)c(=O)[n-]c2cc1[N+](=O)[O-]

>  <Energy>  (13) 
49.65588154226808

>  <Genealogy>  (13) 
O=C(NCCc1ccccc1)c1cc2[n-]c(=O)c(=O)[n-]c2cc1[N+](=O)[O-] (protonated)
O=C(NCCc1ccccc1)c1cc2[n-]c(=O)c(=O)[n-]c2cc1[N+](=O)[O-] (3D coordinates assigned)
O=C(NCCc1ccccc1)c1cc2[n-]c(=O)c(=O)[n-]c2cc1[N+](=O)[O-] (optimized conformer: 49.65588154226808 kcal/mol)

>  <smiles>  (13) 
O=C(NCCc1ccccc1)c1cc2[nH]c(=O)c(=O)[nH]c2cc1[N+](=O)[O-]

>  <score_type>  (13) 
oracle

>  <origin>  (13) 
adg

>  <m_score__min__energy>  (13) 
-11.789999999999999

>  <m_primary>  (13) 
energy

$$$$
13:0
     RDKit          3D

 40 43  0  0  0  0  0  0  0  0999 V2000
   60.7210   28.6760   49.4070 C   0  0  0  0  0  0  0  0  0  0  0  0
   60.3080   27.7760   48.3840 O   0  0  0  0  0  0  0  0  0  0  0  0
   59.2750   28.0340   47.4700 C   0  0  0  0  0  0  0  0  0  0  0  0
   58.3580   27.0530   47.0770 C   0  0  0  0  0  0  0  0  0  0  0  0
   57.3510   27.3640   46.1680 C   0  0  0  0  0  0  0  0  0  0  0  0
   57.2200   28.6520   45.6320 C   0  0  0  0  0  0  0  0  0  0  0  0
   58.1620   29.6630   46.0040 C   0  0  0  0  0  0  0  0  0  0  0  0
   59.1700   29.3190   46.9340 C   0  0  0  0  0  0  0  0  0  0  0  0
   58.1890   31.0620   45.4720 C   0  0  0  0  0  0  0  0  0  0  0  0
   58.9060   32.0320   46.1110 N   0  0  0  0  0  0  0  0  0  0  0  0
   58.8670   33.2220   45.4760 C   0  0  0  0  0  0  0  0  0  0  0  0
   59.5050   34.4610   46.0120 C   0  0  0  0  0  0  0  0  0  0  0  0
   60.6360   34.0990   46.9340 C   0  0  0  0  0  0  0  0  0  0  0  0
   61.9050   33.7960   46.4130 C   0  0  0  0  0  0  0  0  0  0  0  0
   62.9460   33.4220   47.2690 C   0  0  0  0  0  0  0  0  0  0  0  0
   62.7240   33.3370   48.6470 C   0  0  0  0  0  0  0  0  0  0  0  0
   61.4610   33.6230   49.1700 C   0  0  0  0  0  0  0  0  0  0  0  0
   60.4170   33.9980   48.3180 C   0  0  0  0  0  0  0  0  0  0  0  0
   57.9190   33.1510   44.0960 S   0  0  0  0  0  0  0  0  0  0  0  0
   57.5660   31.5180   44.3060 C   0  0  0  0  0  0  0  0  0  0  0  0
   56.6690   30.7480   43.4080 C   0  0  0  0  0  0  0  0  0  0  0  0
   55.6200   30.0400   44.2480 C   0  0  0  0  0  0  0  0  0  0  0  0
   56.1390   28.8200   44.7520 O   0  0  0  0  0  0  0  0  0  0  0  0
   60.5166   28.2305   50.3918 H   0  0  0  0  0  0  0  0  0  0  0  0
   61.7991   28.8718   49.3098 H   0  0  0  0  0  0  0  0  0  0  0  0
   60.1665   29.6210   49.3098 H   0  0  0  0  0  0  0  0  0  0  0  0
   58.4330   26.0350   47.4869 H   0  0  0  0  0  0  0  0  0  0  0  0
   56.6415   26.5805   45.8633 H   0  0  0  0  0  0  0  0  0  0  0  0
   59.8935   30.0871   47.2447 H   0  0  0  0  0  0  0  0  0  0  0  0
   59.8941   35.0612   45.1763 H   0  0  0  0  0  0  0  0  0  0  0  0
   58.7553   35.0408   46.5703 H   0  0  0  0  0  0  0  0  0  0  0  0
   62.0805   33.8531   45.3286 H   0  0  0  0  0  0  0  0  0  0  0  0
   63.9405   33.1945   46.8577 H   0  0  0  0  0  0  0  0  0  0  0  0
   63.5443   33.0448   49.3192 H   0  0  0  0  0  0  0  0  0  0  0  0
   61.2869   33.5532   50.2539 H   0  0  0  0  0  0  0  0  0  0  0  0
   59.4215   34.2145   48.7329 H   0  0  0  0  0  0  0  0  0  0  0  0
   56.1761   31.4332   42.7026 H   0  0  0  0  0  0  0  0  0  0  0  0
   57.2543   30.0082   42.8422 H   0  0  0  0  0  0  0  0  0  0  0  0
   55.3305   30.6870   45.0892 H   0  0  0  0  0  0  0  0  0  0  0  0
   54.7423   29.8252   43.6207 H   0  0  0  0  0  0  0  0  0  0  0  0
  1  2  1  0
  2  3  1  0
  3  4  2  0
  4  5  1  0
  5  6  2  0
  6  7  1  0
  7  8  2  0
  7  9  1  0
  9 10  1  0
 10 11  2  0
 11 12  1  0
 12 13  1  0
 13 14  2  0
 14 15  1  0
 15 16  2  0
 16 17  1  0
 17 18  2  0
 11 19  1  0
 19 20  1  0
 20 21  1  0
 21 22  1  0
 22 23  1  0
  8  3  1  0
 20  9  2  0
 23  6  1  0
 18 13  1  0
  1 24  1  0
  1 25  1  0
  1 26  1  0
  4 27  1  0
  5 28  1  0
  8 29  1  0
 12 30  1  0
 12 31  1  0
 14 32  1  0
 15 33  1  0
 16 34  1  0
 17 35  1  0
 18 36  1  0
 21 37  1  0
 21 38  1  0
 22 39  1  0
 22 40  1  0
M  END
>  <UniqueID>  (14) 
13

>  <SMILES>  (14) 
COc1ccc2c(c1)-c1nc(Cc3ccccc3)sc1CCO2

>  <Energy>  (14) 
80.20970332843012

>  <Genealogy>  (14) 
COc1ccc2c(c1)-c1nc(Cc3ccccc3)sc1CCO2 (3D coordinates assigned)
COc1ccc2c(c1)-c1nc(Cc3ccccc3)sc1CCO2 (nonaromatic ring conformer: 80.20970332843012 kcal/mol)

>  <smiles>  (14) 
COc1ccc2c(c1)-c1nc(Cc3ccccc3)sc1CCO2

>  <score_type>  (14) 
oracle

>  <origin>  (14) 
adg

>  <m_score__min__energy>  (14) 
-6.5499999999999998

>  <m_primary>  (14) 
energy

$$$$
14:0
     RDKit          3D

 45 48  0  0  0  0  0  0  0  0999 V2000
   57.0260   23.3050   46.9120 C   0  0  0  0  0  0  0  0  0  0  0  0
   57.0650   23.8820   45.4940 C   0  0  0  0  0  0  0  0  0  0  0  0
   56.4900   23.1910   44.4880 C   0  0  0  0  0  0  0  0  0  0  0  0
   56.6550   23.7940   43.2020 C   0  0  0  0  0  0  0  0  0  0  0  0
   57.5990   25.2840   43.4630 S   0  0  0  0  0  0  0  0  0  0  0  0
   57.7170   25.0310   45.2310 C   0  0  0  0  0  0  0  0  0  0  0  0
   58.4540   26.0060   46.0000 C   0  0  0  0  0  0  0  0  0  0  0  0
   59.5630   25.7080   46.7750 C   0  0  0  0  0  0  0  0  0  0  0  0
   60.2680   26.6640   47.4300 N   0  0  0  0  0  0  0  0  0  0  0  0
   59.9210   27.9620   47.3590 C   0  0  0  0  0  0  0  0  0  0  0  0
   60.7520   28.9290   48.1160 C   0  0  0  0  0  0  0  0  0  0  0  0
   60.4960   30.3290   47.7690 C   0  0  0  0  0  0  0  0  0  0  0  0
   59.1650   30.7610   47.7770 C   0  0  0  0  0  0  0  0  0  0  0  0
   58.8340   32.0770   47.4660 C   0  0  0  0  0  0  0  0  0  0  0  0
   59.8330   32.9930   47.1400 C   0  0  0  0  0  0  0  0  0  0  0  0
   59.5060   34.4140   46.8010 C   0  0  0  0  0  0  0  0  0  0  0  0
   59.9550   34.7280   45.5480 F   0  0  0  0  0  0  0  0  0  0  0  0
   60.0000   35.2580   47.7770 F   0  0  0  0  0  0  0  0  0  0  0  0
   58.1210   34.6060   46.7800 F   0  0  0  0  0  0  0  0  0  0  0  0
   61.1590   32.5540   47.1350 C   0  0  0  0  0  0  0  0  0  0  0  0
   62.4800   33.6520   46.7350 Cl  0  0  0  0  0  0  0  0  0  0  0  0
   61.4580   31.2580   47.4430 C   0  0  0  0  0  0  0  0  0  0  0  0
   58.8550   28.2910   46.6230 N   0  0  0  0  0  0  0  0  0  0  0  0
   58.1240   27.3720   45.9530 C   0  0  0  0  0  0  0  0  0  0  0  0
   57.0050   27.8730   45.1770 C   0  0  0  0  0  0  0  0  0  0  0  0
   55.8450   27.5770   45.6150 O   0  0  0  0  0  0  0  0  0  0  0  0
   57.1650   28.6580   43.9840 N   0  0  0  0  0  0  0  0  0  0  0  0
   57.2740   29.9420   44.1270 C   0  0  0  0  0  0  0  0  0  0  0  0
   56.6530   30.5760   45.1620 N   0  0  0  0  0  0  0  0  0  0  0  0
   56.9660   31.8780   45.0480 N   0  0  0  0  0  0  0  0  0  0  0  0
   57.7410   32.0350   43.9940 N   0  0  0  0  0  0  0  0  0  0  0  0
   57.9360   30.8560   43.4230 N   0  0  0  0  0  0  0  0  0  0  0  0
   57.0814   24.1250   47.6432 H   0  0  0  0  0  0  0  0  0  0  0  0
   56.0882   22.7484   47.0557 H   0  0  0  0  0  0  0  0  0  0  0  0
   57.8804   22.6272   47.0557 H   0  0  0  0  0  0  0  0  0  0  0  0
   55.9437   22.2489   44.6430 H   0  0  0  0  0  0  0  0  0  0  0  0
   56.2750   23.4141   42.2422 H   0  0  0  0  0  0  0  0  0  0  0  0
   59.8831   24.6592   46.8623 H   0  0  0  0  0  0  0  0  0  0  0  0
   60.5490   28.7951   49.1888 H   0  0  0  0  0  0  0  0  0  0  0  0
   61.8006   28.7217   47.8562 H   0  0  0  0  0  0  0  0  0  0  0  0
   58.3669   30.0488   48.0333 H   0  0  0  0  0  0  0  0  0  0  0  0
   57.7810   32.3950   47.4775 H   0  0  0  0  0  0  0  0  0  0  0  0
   62.5118   30.9430   47.4301 H   0  0  0  0  0  0  0  0  0  0  0  0
   58.1130   32.9660   43.7110 H   0  0  0  0  0  0  0  0  0  0  0  0
   58.5140   30.6460   42.5660 H   0  0  0  0  0  0  0  0  0  0  0  0
  1  2  1  0
  2  3  1  0
  3  4  2  0
  4  5  1  0
  5  6  1  0
  6  7  1  0
  7  8  2  0
  8  9  1  0
  9 10  2  0
 10 11  1  0
 11 12  1  0
 12 13  2  0
 13 14  1  0
 14 15  2  0
 15 16  1  0
 16 17  1  0
 16 18  1  0
 16 19  1  0
 15 20  1  0
 20 21  1  0
 20 22  2  0
 10 23  1  0
 23 24  2  0
 24 25  1  0
 25 26  2  0
 25 27  1  0
 27 28  2  3
 28 29  1  0
 29 30  2  0
 30 31  1  0
 31 32  1  0
  6  2  2  0
 24  7  1  0
 32 28  1  0
 22 12  1  0
  1 33  1  0
  1 34  1  0
  1 35  1  0
  3 36  1  0
  4 37  1  0
  8 38  1  0
 11 39  1  0
 11 40  1  0
 13 41  1  0
 14 42  1  0
 22 43  1  0
 31 44  1  0
 32 45  1  0
M  END
>  <smiles>  (15) 
Cc1ccsc1-c1cnc(Cc2ccc(C(F)(F)F)c(Cl)c2)nc1C(=O)N=c1nn[nH][nH]1

>  <score_type>  (15) 
oracle

>  <origin>  (15) 
adg

>  <m_score__min__energy>  (15) 
-8.9499999999999993

>  <m_primary>  (15) 
energy

$$$$
15:0
     RDKit          3D

 66 69  0  0  0  0  0  0  0  0999 V2000
   58.1470   27.0730   42.7590 C   0  0  0  0  0  0  0  0  0  0  0  0
   57.8150   26.7630   44.2140 C   0  0  0  0  0  0  0  0  0  0  0  0
   58.2590   27.8590   45.0790 N   0  0  0  0  0  0  0  0  0  0  0  0
   59.0250   27.7700   46.1950 C   0  0  0  0  0  0  0  0  0  0  0  0
   59.5180   26.6890   46.6180 O   0  0  0  0  0  0  0  0  0  0  0  0
   59.2100   28.9660   46.8080 N   0  0  0  0  0  0  0  0  0  0  0  0
   60.0410   29.2480   47.9790 C   0  0  0  0  0  0  0  0  0  0  0  0
   59.1740   29.2990   49.2400 C   0  0  0  0  0  0  0  0  0  0  0  0
   59.5500   30.4630   50.0740 N   0  0  0  0  0  0  0  0  0  0  0  0
   58.5310   31.5400   50.0370 C   0  0  0  0  0  0  0  0  0  0  0  0
   57.5120   31.4300   51.1900 C   0  0  0  0  0  0  0  0  0  0  0  0
   57.3780   30.0880   51.6060 O   0  0  0  0  0  0  0  0  0  0  0  0
   58.5730   29.6480   52.2280 C   0  0  0  0  0  0  0  0  0  0  0  0
   59.8500   30.0720   51.4650 C   0  0  0  0  0  0  0  0  0  0  0  0
   58.5350   29.8410   46.0340 C   0  0  0  0  0  0  0  0  0  0  0  0
   58.4000   31.2220   46.1850 C   0  0  0  0  0  0  0  0  0  0  0  0
   57.6380   31.9250   45.2310 C   0  0  0  0  0  0  0  0  0  0  0  0
   57.4780   33.3400   45.3970 N   0  0  0  0  0  0  0  0  0  0  0  0
   58.5240   34.3080   45.5630 C   0  0  0  0  0  0  0  0  0  0  0  0
   58.5450   35.3440   44.8430 O   0  0  0  0  0  0  0  0  0  0  0  0
   59.6130   34.0640   46.5390 C   0  0  0  0  0  0  0  0  0  0  0  0
   60.8480   33.5470   46.1170 C   0  0  0  0  0  0  0  0  0  0  0  0
   61.8730   33.3070   47.0360 C   0  0  0  0  0  0  0  0  0  0  0  0
   61.6960   33.5790   48.4120 C   0  0  0  0  0  0  0  0  0  0  0  0
   62.8010   33.3310   49.4620 C   0  0  0  0  0  0  0  0  0  0  0  0
   64.1470   33.0840   48.7450 C   0  0  0  0  0  0  0  0  0  0  0  0
   62.9970   34.5230   50.4300 C   0  0  0  0  0  0  0  0  0  0  0  0
   62.4380   32.0930   50.3100 C   0  0  0  0  0  0  0  0  0  0  0  0
   60.4500   34.1010   48.8220 C   0  0  0  0  0  0  0  0  0  0  0  0
   59.4270   34.3400   47.9020 C   0  0  0  0  0  0  0  0  0  0  0  0
   57.0040   31.2160   44.1740 C   0  0  0  0  0  0  0  0  0  0  0  0
   57.1630   29.8240   44.0460 C   0  0  0  0  0  0  0  0  0  0  0  0
   57.9490   29.1690   44.9950 C   0  0  0  0  0  0  0  0  0  0  0  0
   58.9504   27.8232   42.7180 H   0  0  0  0  0  0  0  0  0  0  0  0
   58.4780   26.1533   42.2545 H   0  0  0  0  0  0  0  0  0  0  0  0
   57.2521   27.4662   42.2545 H   0  0  0  0  0  0  0  0  0  0  0  0
   56.7276   26.6348   44.3192 H   0  0  0  0  0  0  0  0  0  0  0  0
   58.3326   25.8390   44.5112 H   0  0  0  0  0  0  0  0  0  0  0  0
   60.7961   28.4556   48.0885 H   0  0  0  0  0  0  0  0  0  0  0  0
   60.5361   30.2208   47.8431 H   0  0  0  0  0  0  0  0  0  0  0  0
   58.1165   29.3864   48.9502 H   0  0  0  0  0  0  0  0  0  0  0  0
   59.3303   28.3774   49.8198 H   0  0  0  0  0  0  0  0  0  0  0  0
   59.0419   32.5115   50.1094 H   0  0  0  0  0  0  0  0  0  0  0  0
   57.9772   31.4434   49.0915 H   0  0  0  0  0  0  0  0  0  0  0  0
   57.8582   32.0389   52.0382 H   0  0  0  0  0  0  0  0  0  0  0  0
   56.5351   31.7918   50.8367 H   0  0  0  0  0  0  0  0  0  0  0  0
   58.6153   30.0713   53.2424 H   0  0  0  0  0  0  0  0  0  0  0  0
   58.5494   28.5483   52.2393 H   0  0  0  0  0  0  0  0  0  0  0  0
   60.3086   30.9263   51.9845 H   0  0  0  0  0  0  0  0  0  0  0  0
   60.5356   29.2122   51.4393 H   0  0  0  0  0  0  0  0  0  0  0  0
   58.8758   31.7474   47.0262 H   0  0  0  0  0  0  0  0  0  0  0  0
   61.0107   33.3284   45.0513 H   0  0  0  0  0  0  0  0  0  0  0  0
   62.8323   32.9002   46.6834 H   0  0  0  0  0  0  0  0  0  0  0  0
   64.9399   32.9385   49.4935 H   0  0  0  0  0  0  0  0  0  0  0  0
   64.0676   32.1854   48.1155 H   0  0  0  0  0  0  0  0  0  0  0  0
   64.3919   33.9522   48.1155 H   0  0  0  0  0  0  0  0  0  0  0  0
   62.9382   34.1654   51.4686 H   0  0  0  0  0  0  0  0  0  0  0  0
   63.9823   34.9796   50.2546 H   0  0  0  0  0  0  0  0  0  0  0  0
   62.2098   35.2710   50.2546 H   0  0  0  0  0  0  0  0  0  0  0  0
   62.5121   32.3456   51.3780 H   0  0  0  0  0  0  0  0  0  0  0  0
   61.4098   31.7784   50.0781 H   0  0  0  0  0  0  0  0  0  0  0  0
   63.1335   31.2729   50.0781 H   0  0  0  0  0  0  0  0  0  0  0  0
   60.2819   34.3236   49.8860 H   0  0  0  0  0  0  0  0  0  0  0  0
   58.4664   34.7484   48.2491 H   0  0  0  0  0  0  0  0  0  0  0  0
   56.3826   31.7617   43.4487 H   0  0  0  0  0  0  0  0  0  0  0  0
   56.6837   29.2704   43.2252 H   0  0  0  0  0  0  0  0  0  0  0  0
  1  2  1  0
  2  3  1  0
  3  4  1  0
  4  5  2  0
  4  6  1  0
  6  7  1  0
  7  8  1  0
  8  9  1  0
  9 10  1  0
 10 11  1  0
 11 12  1  0
 12 13  1  0
 13 14  1  0
  6 15  1  0
 15 16  2  0
 16 17  1  0
 17 18  1  0
 18 19  1  0
 19 20  2  0
 19 21  1  0
 21 22  2  0
 22 23  1  0
 23 24  2  0
 24 25  1  0
 25 26  1  0
 25 27  1  0
 25 28  1  0
 24 29  1  0
 29 30  2  0
 17 31  2  0
 31 32  1  0
 32 33  2  0
 33  3  1  0
 14  9  1  0
 33 15  1  0
 30 21  1  0
  1 34  1  0
  1 35  1  0
  1 36  1  0
  2 37  1  0
  2 38  1  0
  7 39  1  0
  7 40  1  0
  8 41  1  0
  8 42  1  0
 10 43  1  0
 10 44  1  0
 11 45  1  0
 11 46  1  0
 13 47  1  0
 13 48  1  0
 14 49  1  0
 14 50  1  0
 16 51  1  0
 22 52  1  0
 23 53  1  0
 26 54  1  0
 26 55  1  0
 26 56  1  0
 27 57  1  0
 27 58  1  0
 27 59  1  0
 28 60  1  0
 28 61  1  0
 28 62  1  0
 29 63  1  0
 30 64  1  0
 31 65  1  0
 32 66  1  0
M  CHG  1  18  -1
M  END
>  <UniqueID>  (16) 
14

>  <SMILES>  (16) 
CCn1c(=O)n(CCN2CCOCC2)c2cc([N-]C(=O)c3ccc(C(C)(C)C)cc3)ccc21

>  <Energy>  (16) 
121.60739522111709

>  <Genealogy>  (16) 
CCn1c(=O)n(CCN2CCOCC2)c2cc([N-]C(=O)c3ccc(C(C)(C)C)cc3)ccc21 (protonated)
CCn1c(=O)n(CCN2CCOCC2)c2cc([N-]C(=O)c3ccc(C(C)(C)C)cc3)ccc21 (3D coordinates assigned)
CCn1c(=O)n(CCN2CCOCC2)c2cc([N-]C(=O)c3ccc(C(C)(C)C)cc3)ccc21 (nonaromatic ring conformer: 121.60739522111709 kcal/mol)

>  <smiles>  (16) 
CCn1c(=O)n(CCN2CCOCC2)c2cc(NC(=O)c3ccc(C(C)(C)C)cc3)ccc21

>  <score_type>  (16) 
oracle

>  <origin>  (16) 
adg

>  <m_score__min__energy>  (16) 
-9.8399999999999999

>  <m_primary>  (16) 
energy

$$$$
16:0
     RDKit          3D

 19 19  0  0  0  0  0  0  0  0999 V2000
   56.6490   30.3880   43.5000 C   0  0  0  0  0  0  0  0  0  0  0  0
   56.6980   30.9130   44.8620 N   0  0  0  0  0  0  0  0  0  0  0  0
   57.3980   31.9370   45.2650 C   0  0  0  0  0  0  0  0  0  0  0  0
   58.1550   31.9170   46.4510 C   0  0  0  0  0  0  0  0  0  0  0  0
   58.8820   33.0490   46.8250 C   0  0  0  0  0  0  0  0  0  0  0  0
   58.8530   34.1800   46.0600 N   0  0  0  0  0  0  0  0  0  0  0  0
   59.6530   35.3430   46.4500 C   0  0  0  0  0  0  0  0  0  0  0  0
   58.1380   34.2110   44.8950 C   0  0  0  0  0  0  0  0  0  0  0  0
   57.3990   33.0980   44.4870 C   0  0  0  0  0  0  0  0  0  0  0  0
   56.5468   29.2932   43.5325 H   0  0  0  0  0  0  0  0  0  0  0  0
   55.7874   30.8211   42.9709 H   0  0  0  0  0  0  0  0  0  0  0  0
   57.5759   30.6542   42.9709 H   0  0  0  0  0  0  0  0  0  0  0  0
   58.1740   31.0147   47.0799 H   0  0  0  0  0  0  0  0  0  0  0  0
   59.4843   33.0296   47.7453 H   0  0  0  0  0  0  0  0  0  0  0  0
   59.6968   35.4066   47.5473 H   0  0  0  0  0  0  0  0  0  0  0  0
   60.6715   35.2389   46.0478 H   0  0  0  0  0  0  0  0  0  0  0  0
   59.1916   36.2570   46.0478 H   0  0  0  0  0  0  0  0  0  0  0  0
   58.1447   35.1192   44.2744 H   0  0  0  0  0  0  0  0  0  0  0  0
   56.8180   33.1354   43.5537 H   0  0  0  0  0  0  0  0  0  0  0  0
  1  2  1  0
  2  3  2  3
  3  4  1  0
  4  5  2  0
  5  6  1  0
  6  7  1  0
  6  8  1  0
  8  9  2  0
  9  3  1  0
  1 10  1  0
  1 11  1  0
  1 12  1  0
  4 13  1  0
  5 14  1  0
  7 15  1  0
  7 16  1  0
  7 17  1  0
  8 18  1  0
  9 19  1  0
M  END
>  <UniqueID>  (17) 
15

>  <SMILES>  (17) 
CN=c1ccn(C)cc1

>  <Energy>  (17) 
18.36959745686363

>  <Genealogy>  (17) 
CN=c1ccn(C)cc1 (3D coordinates assigned)
CN=c1ccn(C)cc1 (optimized conformer: 18.36959745686363 kcal/mol)

>  <smiles>  (17) 
CN=c1ccn(C)cc1

>  <score_type>  (17) 
oracle

>  <origin>  (17) 
adg

>  <m_score__min__energy>  (17) 
-4

>  <m_primary>  (17) 
energy

$$$$
17:0
     RDKit          3D

 29 30  0  0  0  0  0  0  0  0999 V2000
   55.5150   29.7240   43.5330 C   0  0  0  0  0  0  0  0  0  0  0  0
   55.9990   29.6810   44.8720 O   0  0  0  0  0  0  0  0  0  0  0  0
   57.2320   29.1310   45.2600 C   0  0  0  0  0  0  0  0  0  0  0  0
   57.4180   27.7400   45.3620 C   0  0  0  0  0  0  0  0  0  0  0  0
   58.6440   27.2190   45.7730 C   0  0  0  0  0  0  0  0  0  0  0  0
   59.7010   28.0730   46.0820 C   0  0  0  0  0  0  0  0  0  0  0  0
   59.5460   29.4680   45.9790 C   0  0  0  0  0  0  0  0  0  0  0  0
   60.6030   30.3500   46.2610 O   0  0  0  0  0  0  0  0  0  0  0  0
   61.1020   30.6250   47.5650 C   0  0  0  0  0  0  0  0  0  0  0  0
   58.3030   29.9970   45.5680 C   0  0  0  0  0  0  0  0  0  0  0  0
   58.1220   31.4650   45.4590 C   0  0  0  0  0  0  0  0  0  0  0  0
   58.1340   32.2750   46.6050 C   0  0  0  0  0  0  0  0  0  0  0  0
   57.9630   33.6550   46.4880 C   0  0  0  0  0  0  0  0  0  0  0  0
   57.7820   34.2170   45.2230 C   0  0  0  0  0  0  0  0  0  0  0  0
   57.7730   33.4220   44.1200 N   0  0  0  0  0  0  0  0  0  0  0  0
   57.9370   32.0750   44.2080 C   0  0  0  0  0  0  0  0  0  0  0  0
   54.4194   29.8213   43.5421 H   0  0  0  0  0  0  0  0  0  0  0  0
   55.9554   30.5866   43.0114 H   0  0  0  0  0  0  0  0  0  0  0  0
   55.7965   28.7973   43.0114 H   0  0  0  0  0  0  0  0  0  0  0  0
   56.5901   27.0588   45.1157 H   0  0  0  0  0  0  0  0  0  0  0  0
   58.7775   26.1301   45.8537 H   0  0  0  0  0  0  0  0  0  0  0  0
   60.6639   27.6535   46.4089 H   0  0  0  0  0  0  0  0  0  0  0  0
   60.3983   30.2372   48.3162 H   0  0  0  0  0  0  0  0  0  0  0  0
   62.0802   30.1386   47.6934 H   0  0  0  0  0  0  0  0  0  0  0  0
   61.2132   31.7118   47.6934 H   0  0  0  0  0  0  0  0  0  0  0  0
   58.2784   31.8215   47.5967 H   0  0  0  0  0  0  0  0  0  0  0  0
   57.9708   34.2936   47.3836 H   0  0  0  0  0  0  0  0  0  0  0  0
   57.6466   35.3036   45.1185 H   0  0  0  0  0  0  0  0  0  0  0  0
   57.9247   31.4608   43.2955 H   0  0  0  0  0  0  0  0  0  0  0  0
  1  2  1  0
  2  3  1  0
  3  4  2  0
  4  5  1  0
  5  6  2  0
  6  7  1  0
  7  8  1  0
  8  9  1  0
  7 10  2  0
 10 11  1  0
 11 12  2  0
 12 13  1  0
 13 14  2  0
 14 15  1  0
 15 16  2  0
 10  3  1  0
 16 11  1  0
  1 17  1  0
  1 18  1  0
  1 19  1  0
  4 20  1  0
  5 21  1  0
  6 22  1  0
  9 23  1  0
  9 24  1  0
  9 25  1  0
 12 26  1  0
 13 27  1  0
 14 28  1  0
 16 29  1  0
M  END
>  <UniqueID>  (18) 
16

>  <SMILES>  (18) 
COc1cccc(OC)c1-c1cccnc1

>  <Energy>  (18) 
36.64348397701711

>  <Genealogy>  (18) 
COc1cccc(OC)c1-c1cccnc1 (3D coordinates assigned)
COc1cccc(OC)c1-c1cccnc1 (optimized conformer: 36.64348397701711 kcal/mol)

>  <smiles>  (18) 
COc1cccc(OC)c1-c1cccnc1

>  <score_type>  (18) 
oracle

>  <origin>  (18) 
adg

>  <m_score__min__energy>  (18) 
-5.1699999999999999

>  <m_primary>  (18) 
energy

$$$$
18:0
     RDKit          3D

 59 62  0  0  1  0  0  0  0  0999 V2000
   64.4420   32.7550   49.5960 C   0  0  0  0  0  0  0  0  0  0  0  0
   63.0600   33.1200   49.2140 C   0  0  0  0  0  0  0  0  0  0  0  0
   62.6780   33.2460   47.8800 C   0  0  0  0  0  0  0  0  0  0  0  0
   61.3850   33.5880   47.5280 C   0  0  0  0  0  0  0  0  0  0  0  0
   61.1240   33.6810   46.2750 N   0  0  0  0  0  0  0  0  0  0  0  0
   59.8040   33.4500   45.7970 C   0  0  2  0  0  0  0  0  0  0  0  0
   58.9040   34.6100   45.6010 C   0  0  0  0  0  0  0  0  0  0  0  0
   57.4410   34.2640   45.8950 C   0  0  0  0  0  0  0  0  0  0  0  0
   57.0370   33.0000   45.1790 C   0  0  0  0  0  0  0  0  0  0  0  0
   58.0440   31.9030   45.2100 C   0  0  2  0  0  0  0  0  0  0  0  0
   57.3790   30.6520   45.4040 N   0  0  0  0  0  0  0  0  0  0  0  0
   57.9980   29.7290   46.3090 C   0  0  0  0  0  0  0  0  0  0  0  0
   58.9570   28.9370   45.4670 C   0  0  0  0  0  0  0  0  0  0  0  0
   58.2390   28.8250   44.1520 C   0  0  0  0  0  0  0  0  0  0  0  0
   57.2500   29.9430   44.1480 C   0  0  1  0  0  0  0  0  0  0  0  0
   55.8220   29.3970   44.0200 C   0  0  0  0  0  0  0  0  0  0  0  0
   55.1730   29.3440   45.2390 O   0  0  0  0  0  0  0  0  0  0  0  0
   59.1430   32.1630   46.2180 C   0  0  0  0  0  0  0  0  0  0  0  0
   60.4880   33.7990   48.5060 N   0  0  0  0  0  0  0  0  0  0  0  0
   60.8640   33.6750   49.7810 C   0  0  0  0  0  0  0  0  0  0  0  0
   59.9910   33.8810   50.7290 N   0  0  0  0  0  0  0  0  0  0  0  0
   59.0480   32.8770   51.0920 C   0  0  0  0  0  0  0  0  0  0  0  0
   58.9490   31.6660   50.4360 C   0  0  0  0  0  0  0  0  0  0  0  0
   57.9930   30.7690   50.8800 C   0  0  0  0  0  0  0  0  0  0  0  0
   57.1550   31.0780   51.9570 C   0  0  0  0  0  0  0  0  0  0  0  0
   57.2650   32.2960   52.6050 C   0  0  0  0  0  0  0  0  0  0  0  0
   58.2120   33.1840   52.1660 C   0  0  0  0  0  0  0  0  0  0  0  0
   62.1170   33.3440   50.1590 N   0  0  0  0  0  0  0  0  0  0  0  0
   64.5256   32.7329   50.6926 H   0  0  0  0  0  0  0  0  0  0  0  0
   64.6846   31.7620   49.1897 H   0  0  0  0  0  0  0  0  0  0  0  0
   65.1433   33.4987   49.1897 H   0  0  0  0  0  0  0  0  0  0  0  0
   63.4217   33.0695   47.0889 H   0  0  0  0  0  0  0  0  0  0  0  0
   60.0618   33.2512   44.7463 H   0  0  0  0  0  0  0  0  0  0  0  0
   59.2187   35.4203   46.2751 H   0  0  0  0  0  0  0  0  0  0  0  0
   58.9731   34.9164   44.5468 H   0  0  0  0  0  0  0  0  0  0  0  0
   57.3146   34.1213   46.9783 H   0  0  0  0  0  0  0  0  0  0  0  0
   56.8050   35.0889   45.5414 H   0  0  0  0  0  0  0  0  0  0  0  0
   56.1127   32.6264   45.6438 H   0  0  0  0  0  0  0  0  0  0  0  0
   56.9174   33.2742   44.1205 H   0  0  0  0  0  0  0  0  0  0  0  0
   58.5600   31.8614   44.2394 H   0  0  0  0  0  0  0  0  0  0  0  0
   58.5358   30.2685   47.1026 H   0  0  0  0  0  0  0  0  0  0  0  0
   57.2597   29.0845   46.8086 H   0  0  0  0  0  0  0  0  0  0  0  0
   59.9133   29.4681   45.3513 H   0  0  0  0  0  0  0  0  0  0  0  0
   59.2146   27.9613   45.9048 H   0  0  0  0  0  0  0  0  0  0  0  0
   58.9461   28.9328   43.3163 H   0  0  0  0  0  0  0  0  0  0  0  0
   57.7523   27.8459   44.0321 H   0  0  0  0  0  0  0  0  0  0  0  0
   57.4442   30.6101   43.2952 H   0  0  0  0  0  0  0  0  0  0  0  0
   55.2520   30.0505   43.3432 H   0  0  0  0  0  0  0  0  0  0  0  0
   55.8860   28.3719   43.6262 H   0  0  0  0  0  0  0  0  0  0  0  0
   55.6850   29.7080   45.9850 H   0  0  0  0  0  0  0  0  0  0  0  0
   58.7181   32.2650   47.2275 H   0  0  0  0  0  0  0  0  0  0  0  0
   59.8643   31.3330   46.2475 H   0  0  0  0  0  0  0  0  0  0  0  0
   59.5370   34.0500   48.2350 H   0  0  0  0  0  0  0  0  0  0  0  0
   59.6076   31.4224   49.5893 H   0  0  0  0  0  0  0  0  0  0  0  0
   57.8902   29.7960   50.3773 H   0  0  0  0  0  0  0  0  0  0  0  0
   56.4034   30.3476   52.2911 H   0  0  0  0  0  0  0  0  0  0  0  0
   56.6084   32.5452   53.4516 H   0  0  0  0  0  0  0  0  0  0  0  0
   58.3149   34.1565   52.6696 H   0  0  0  0  0  0  0  0  0  0  0  0
   62.3440   33.2640   51.1880 H   0  0  0  0  0  0  0  0  0  0  0  0
  1  2  1  0
  2  3  2  0
  3  4  1  0
  4  5  2  0
  5  6  1  0
  6  7  1  0
  7  8  1  0
  8  9  1  0
  9 10  1  0
 10 11  1  0
 11 12  1  0
 12 13  1  0
 13 14  1  0
 14 15  1  0
 15 16  1  0
 16 17  1  0
 10 18  1  0
  4 19  1  0
 19 20  1  0
 20 21  2  0
 21 22  1  0
 22 23  2  0
 23 24  1  0
 24 25  2  0
 25 26  1  0
 26 27  2  0
 20 28  1  0
 28  2  1  0
 18  6  1  0
 27 22  1  0
 15 11  1  0
  1 29  1  0
  1 30  1  0
  1 31  1  0
  3 32  1  0
  6 33  1  6
  7 34  1  0
  7 35  1  0
  8 36  1  0
  8 37  1  0
  9 38  1  0
  9 39  1  0
 10 40  1  6
 12 41  1  0
 12 42  1  0
 13 43  1  0
 13 44  1  0
 14 45  1  0
 14 46  1  0
 15 47  1  6
 16 48  1  0
 16 49  1  0
 17 50  1  0
 18 51  1  0
 18 52  1  0
 19 53  1  0
 23 54  1  0
 24 55  1  0
 25 56  1  0
 26 57  1  0
 27 58  1  0
 28 59  1  0
M  END
>  <smiles>  (19) 
Cc1cc(=NC2CCCC(N3CCCC3CO)C2)[nH]c(=Nc2ccccc2)[nH]1

>  <score_type>  (19) 
oracle

>  <origin>  (19) 
adg

>  <m_score__min__energy>  (19) 
-9.9299999999999997

>  <m_primary>  (19) 
energy

$$$$
19:0
     RDKit          3D

 53 54  0  0  0  0  0  0  0  0999 V2000
   59.2000   28.9900   47.3940 C   0  0  0  0  0  0  0  0  0  0  0  0
   58.1370   29.8910   46.7730 C   0  0  0  0  0  0  0  0  0  0  0  0
   58.5980   30.5370   45.4450 C   0  0  1  0  0  0  0  0  0  0  0  0
   59.1240   29.4620   44.4810 C   0  0  0  0  0  0  0  0  0  0  0  0
   58.0070   28.6710   43.9340 N   0  0  0  0  0  0  0  0  0  0  0  0
   58.1710   27.2620   43.6780 C   0  0  0  0  0  0  0  0  0  0  0  0
   58.0810   26.8210   42.4990 O   0  0  0  0  0  0  0  0  0  0  0  0
   58.4360   26.3870   44.7450 O   0  0  0  0  0  0  0  0  0  0  0  0
   57.4750   25.5910   45.4540 C   0  0  0  0  0  0  0  0  0  0  0  0
   58.1560   24.7990   46.5870 C   0  0  0  0  0  0  0  0  0  0  0  0
   56.3430   26.4760   46.0120 C   0  0  0  0  0  0  0  0  0  0  0  0
   56.8770   24.5990   44.4450 C   0  0  0  0  0  0  0  0  0  0  0  0
   56.8620   29.3910   43.3510 C   0  0  0  0  0  0  0  0  0  0  0  0
   56.3690   30.4900   44.2980 C   0  0  0  0  0  0  0  0  0  0  0  0
   57.5140   31.2800   44.7730 N   0  0  0  0  0  0  0  0  0  0  0  0
   57.8100   32.5400   44.1290 C   0  0  0  0  0  0  0  0  0  0  0  0
   57.7400   32.6380   42.8750 O   0  0  0  0  0  0  0  0  0  0  0  0
   58.1160   33.7150   44.8910 N   0  0  0  0  0  0  0  0  0  0  0  0
   58.9860   33.7510   46.0290 C   0  0  0  0  0  0  0  0  0  0  0  0
   58.4310   33.8140   47.3110 C   0  0  0  0  0  0  0  0  0  0  0  0
   59.2590   33.8480   48.4360 C   0  0  0  0  0  0  0  0  0  0  0  0
   60.6560   33.8350   48.2920 C   0  0  0  0  0  0  0  0  0  0  0  0
   61.5360   33.8720   49.5110 C   0  0  0  0  0  0  0  0  0  0  0  0
   61.2150   33.8060   46.9990 C   0  0  0  0  0  0  0  0  0  0  0  0
   62.9570   33.8200   46.7470 Cl  0  0  0  0  0  0  0  0  0  0  0  0
   60.3790   33.7730   45.8770 C   0  0  0  0  0  0  0  0  0  0  0  0
   59.1334   29.0464   48.4905 H   0  0  0  0  0  0  0  0  0  0  0  0
   59.0358   27.9518   47.0696 H   0  0  0  0  0  0  0  0  0  0  0  0
   60.1972   29.3221   47.0696 H   0  0  0  0  0  0  0  0  0  0  0  0
   57.2373   29.2892   46.5771 H   0  0  0  0  0  0  0  0  0  0  0  0
   57.9370   30.7054   47.4849 H   0  0  0  0  0  0  0  0  0  0  0  0
   59.3968   31.2474   45.7045 H   0  0  0  0  0  0  0  0  0  0  0  0
   59.6624   29.9487   43.6544 H   0  0  0  0  0  0  0  0  0  0  0  0
   59.8010   28.7910   45.0301 H   0  0  0  0  0  0  0  0  0  0  0  0
   57.8209   25.1887   47.5595 H   0  0  0  0  0  0  0  0  0  0  0  0
   57.8856   23.7359   46.5051 H   0  0  0  0  0  0  0  0  0  0  0  0
   59.2476   24.9070   46.5051 H   0  0  0  0  0  0  0  0  0  0  0  0
   56.3695   26.4553   47.1115 H   0  0  0  0  0  0  0  0  0  0  0  0
   56.4790   27.5097   45.6614 H   0  0  0  0  0  0  0  0  0  0  0  0
   55.3727   26.0946   45.6614 H   0  0  0  0  0  0  0  0  0  0  0  0
   56.3826   23.7788   44.9862 H   0  0  0  0  0  0  0  0  0  0  0  0
   56.1409   25.1176   43.8132 H   0  0  0  0  0  0  0  0  0  0  0  0
   57.6793   24.1902   43.8132 H   0  0  0  0  0  0  0  0  0  0  0  0
   57.1703   29.8474   42.3988 H   0  0  0  0  0  0  0  0  0  0  0  0
   56.0432   28.6752   43.1860 H   0  0  0  0  0  0  0  0  0  0  0  0
   55.6674   31.1469   43.7631 H   0  0  0  0  0  0  0  0  0  0  0  0
   55.8595   30.0306   45.1579 H   0  0  0  0  0  0  0  0  0  0  0  0
   57.3382   33.8369   47.4343 H   0  0  0  0  0  0  0  0  0  0  0  0
   58.8137   33.8852   49.4412 H   0  0  0  0  0  0  0  0  0  0  0  0
   60.9107   33.8457   50.4156 H   0  0  0  0  0  0  0  0  0  0  0  0
   62.2082   33.0013   49.5045 H   0  0  0  0  0  0  0  0  0  0  0  0
   62.1328   34.7960   49.5045 H   0  0  0  0  0  0  0  0  0  0  0  0
   60.8185   33.7643   44.8686 H   0  0  0  0  0  0  0  0  0  0  0  0
  1  2  1  0
  2  3  1  0
  3  4  1  0
  4  5  1  0
  5  6  1  0
  6  7  2  0
  6  8  1  0
  8  9  1  0
  9 10  1  0
  9 11  1  0
  9 12  1  0
  5 13  1  0
 13 14  1  0
 14 15  1  0
 15 16  1  0
 16 17  2  0
 16 18  1  0
 18 19  1  0
 19 20  2  0
 20 21  1  0
 21 22  2  0
 22 23  1  0
 22 24  1  0
 24 25  1  0
 24 26  2  0
 15  3  1  0
 26 19  1  0
  1 27  1  0
  1 28  1  0
  1 29  1  0
  2 30  1  0
  2 31  1  0
  3 32  1  1
  4 33  1  0
  4 34  1  0
 10 35  1  0
 10 36  1  0
 10 37  1  0
 11 38  1  0
 11 39  1  0
 11 40  1  0
 12 41  1  0
 12 42  1  0
 12 43  1  0
 13 44  1  0
 13 45  1  0
 14 46  1  0
 14 47  1  0
 20 48  1  0
 21 49  1  0
 23 50  1  0
 23 51  1  0
 23 52  1  0
 26 53  1  0
M  CHG  1  18  -1
M  END
>  <UniqueID>  (20) 
17

>  <SMILES>  (20) 
CC[C@H]1CN(C(=O)OC(C)(C)C)CCN1C(=O)[N-]c1ccc(C)c(Cl)c1

>  <Energy>  (20) 
50.25558763817973

>  <Genealogy>  (20) 
CCC1CN(C(=O)OC(C)(C)C)CCN1C(=O)[N-]c1ccc(C)c(Cl)c1 (protonated)
CC[C@H]1CN(C(=O)OC(C)(C)C)CCN1C(=O)[N-]c1ccc(C)c(Cl)c1 (chirality)
CC[C@H]1CN(C(=O)OC(C)(C)C)CCN1C(=O)[N-]c1ccc(C)c(Cl)c1 (3D coordinates assigned)
CC[C@H]1CN(C(=O)OC(C)(C)C)CCN1C(=O)[N-]c1ccc(C)c(Cl)c1 (nonaromatic ring conformer: 50.25558763817973 kcal/mol)

>  <smiles>  (20) 
CCC1CN(C(=O)OC(C)(C)C)CCN1C(=O)Nc1ccc(C)c(Cl)c1

>  <score_type>  (20) 
oracle

>  <origin>  (20) 
adg

>  <m_score__min__energy>  (20) 
-9.6799999999999997

>  <m_primary>  (20) 
energy

$$$$
20:0
     RDKit          3D

 41 43  0  0  0  0  0  0  0  0999 V2000
   58.4050   25.2290   46.4230 N   0  0  0  0  0  0  0  0  0  0  0  0
   57.5360   26.3180   45.9490 C   0  0  0  0  0  0  0  0  0  0  0  0
   56.0890   25.8630   46.0460 C   0  0  0  0  0  0  0  0  0  0  0  0
   55.1540   26.7090   45.9950 O   0  0  0  0  0  0  0  0  0  0  0  0
   55.7870   24.4620   46.0950 N   0  0  0  0  0  0  0  0  0  0  0  0
   56.1970   23.4750   45.1390 C   0  0  0  0  0  0  0  0  0  0  0  0
   56.8430   22.3200   45.5980 C   0  0  0  0  0  0  0  0  0  0  0  0
   57.2420   21.3280   44.6960 C   0  0  0  0  0  0  0  0  0  0  0  0
   56.9810   21.4760   43.3320 C   0  0  0  0  0  0  0  0  0  0  0  0
   56.3130   22.6130   42.8670 C   0  0  0  0  0  0  0  0  0  0  0  0
   55.9140   23.6080   43.7660 C   0  0  0  0  0  0  0  0  0  0  0  0
   57.7340   27.5530   46.8830 C   0  0  0  0  0  0  0  0  0  0  0  0
   58.6600   28.5980   46.2630 C   0  0  0  0  0  0  0  0  0  0  0  0
   58.0720   29.0600   45.0000 N   0  0  0  0  0  0  0  0  0  0  0  0
   57.9730   30.4630   44.6910 C   0  0  0  0  0  0  0  0  0  0  0  0
   57.7400   31.3570   45.6920 N   0  0  0  0  0  0  0  0  0  0  0  0
   57.6490   32.6870   45.4400 C   0  0  0  0  0  0  0  0  0  0  0  0
   57.8020   33.1590   44.1390 C   0  0  0  0  0  0  0  0  0  0  0  0
   58.0610   32.2390   43.1260 C   0  0  0  0  0  0  0  0  0  0  0  0
   58.1470   30.9130   43.4130 N   0  0  0  0  0  0  0  0  0  0  0  0
   57.5780   28.0770   44.0270 C   0  0  0  0  0  0  0  0  0  0  0  0
   57.8900   26.6310   44.4560 C   0  0  0  0  0  0  0  0  0  0  0  0
   58.9270   24.8170   45.6140 H   0  0  0  0  0  0  0  0  0  0  0  0
   57.8180   24.4630   46.8300 H   0  0  0  0  0  0  0  0  0  0  0  0
   57.0375   22.1924   46.6731 H   0  0  0  0  0  0  0  0  0  0  0  0
   57.7620   20.4302   45.0615 H   0  0  0  0  0  0  0  0  0  0  0  0
   57.3010   20.6979   42.6233 H   0  0  0  0  0  0  0  0  0  0  0  0
   56.1010   22.7252   41.7935 H   0  0  0  0  0  0  0  0  0  0  0  0
   55.3781   24.4960   43.3995 H   0  0  0  0  0  0  0  0  0  0  0  0
   56.7540   28.0151   47.0729 H   0  0  0  0  0  0  0  0  0  0  0  0
   58.1964   27.2014   47.8171 H   0  0  0  0  0  0  0  0  0  0  0  0
   58.7718   29.4483   46.9518 H   0  0  0  0  0  0  0  0  0  0  0  0
   59.6499   28.1565   46.0754 H   0  0  0  0  0  0  0  0  0  0  0  0
   57.4546   33.3914   46.2622 H   0  0  0  0  0  0  0  0  0  0  0  0
   57.7202   34.2332   43.9166 H   0  0  0  0  0  0  0  0  0  0  0  0
   58.1963   32.5862   42.0910 H   0  0  0  0  0  0  0  0  0  0  0  0
   58.3820   30.2510   42.6430 H   0  0  0  0  0  0  0  0  0  0  0  0
   56.4883   28.1909   43.9296 H   0  0  0  0  0  0  0  0  0  0  0  0
   58.0856   28.2635   43.0691 H   0  0  0  0  0  0  0  0  0  0  0  0
   57.3145   25.9481   43.8138 H   0  0  0  0  0  0  0  0  0  0  0  0
   58.9767   26.4961   44.3521 H   0  0  0  0  0  0  0  0  0  0  0  0
  1  2  1  0
  2  3  1  0
  3  4  2  0
  3  5  1  0
  5  6  1  0
  6  7  2  0
  7  8  1  0
  8  9  2  0
  9 10  1  0
 10 11  2  0
  2 12  1  0
 12 13  1  0
 13 14  1  0
 14 15  1  0
 15 16  2  0
 16 17  1  0
 17 18  2  0
 18 19  1  0
 19 20  2  0
 14 21  1  0
 21 22  1  0
 22  2  1  0
 11  6  1  0
 20 15  1  0
  1 23  1  0
  1 24  1  0
  7 25  1  0
  8 26  1  0
  9 27  1  0
 10 28  1  0
 11 29  1  0
 12 30  1  0
 12 31  1  0
 13 32  1  0
 13 33  1  0
 17 34  1  0
 18 35  1  0
 19 36  1  0
 20 37  1  0
 21 38  1  0
 21 39  1  0
 22 40  1  0
 22 41  1  0
M  CHG  2   5  -1  20   1
M  END
>  <UniqueID>  (21) 
18

>  <SMILES>  (21) 
NC1(C(=O)[N-]c2ccccc2)CCN(c2nccc[nH+]2)CC1

>  <Energy>  (21) 
54.879357467527605

>  <Genealogy>  (21) 
NC1(C(=O)[N-]c2ccccc2)CCN(c2nccc[nH+]2)CC1 (protonated)
NC1(C(=O)[N-]c2ccccc2)CCN(c2nccc[nH+]2)CC1 (3D coordinates assigned)
NC1(C(=O)[N-]c2ccccc2)CCN(c2nccc[nH+]2)CC1 (nonaromatic ring conformer: 54.879357467527605 kcal/mol)

>  <smiles>  (21) 
NC1(C(=O)Nc2ccccc2)CCN(c2ncccn2)CC1

>  <score_type>  (21) 
oracle

>  <origin>  (21) 
adg

>  <m_score__min__energy>  (21) 
-7.6699999999999999

>  <m_primary>  (21) 
energy

$$$$
21:0
     RDKit          3D

 55 58  0  0  0  0  0  0  0  0999 V2000
   59.6230   34.9630   47.0530 C   0  0  0  0  0  0  0  0  0  0  0  0
   60.7740   34.3910   46.4370 O   0  0  0  0  0  0  0  0  0  0  0  0
   61.6610   33.5080   47.0760 C   0  0  0  0  0  0  0  0  0  0  0  0
   62.8560   33.9540   47.6770 C   0  0  0  0  0  0  0  0  0  0  0  0
   63.7090   33.0450   48.3130 C   0  0  0  0  0  0  0  0  0  0  0  0
   63.3880   31.6870   48.3450 C   0  0  0  0  0  0  0  0  0  0  0  0
   62.2110   31.2310   47.7460 C   0  0  0  0  0  0  0  0  0  0  0  0
   61.3420   32.1370   47.1220 C   0  0  0  0  0  0  0  0  0  0  0  0
   60.1020   31.6450   46.5000 C   0  0  0  0  0  0  0  0  0  0  0  0
   59.5050   32.2620   45.4540 N   0  0  0  0  0  0  0  0  0  0  0  0
   58.4060   31.5370   45.1820 C   0  0  0  0  0  0  0  0  0  0  0  0
   57.4710   31.7720   44.1760 C   0  0  0  0  0  0  0  0  0  0  0  0
   56.3880   30.8820   44.0630 C   0  0  0  0  0  0  0  0  0  0  0  0
   56.2640   29.7870   44.9480 C   0  0  0  0  0  0  0  0  0  0  0  0
   55.1910   28.9130   44.8220 O   0  0  0  0  0  0  0  0  0  0  0  0
   57.2240   29.5760   45.9560 C   0  0  0  0  0  0  0  0  0  0  0  0
   58.2860   30.4760   46.0440 C   0  0  0  0  0  0  0  0  0  0  0  0
   59.3650   30.5310   46.9090 C   0  0  0  0  0  0  0  0  0  0  0  0
   59.6780   29.5830   48.0360 C   0  0  0  0  0  0  0  0  0  0  0  0
   59.2610   28.1440   47.7190 C   0  0  0  0  0  0  0  0  0  0  0  0
   60.0160   27.6230   46.5650 N   0  0  0  0  0  0  0  0  0  0  0  0
   59.4580   26.3650   46.0400 C   0  0  0  0  0  0  0  0  0  0  0  0
   58.4750   26.6040   44.8830 C   0  0  0  0  0  0  0  0  0  0  0  0
   57.3290   25.6300   44.9590 C   0  0  0  0  0  0  0  0  0  0  0  0
   56.2820   25.8350   45.8710 C   0  0  0  0  0  0  0  0  0  0  0  0
   55.2010   24.9470   45.9120 C   0  0  0  0  0  0  0  0  0  0  0  0
   55.1500   23.8570   45.0380 C   0  0  0  0  0  0  0  0  0  0  0  0
   54.0690   22.9820   45.0910 O   0  0  0  0  0  0  0  0  0  0  0  0
   56.1860   23.6590   44.1150 C   0  0  0  0  0  0  0  0  0  0  0  0
   57.2680   24.5430   44.0730 C   0  0  0  0  0  0  0  0  0  0  0  0
   59.7283   34.9107   48.1467 H   0  0  0  0  0  0  0  0  0  0  0  0
   59.5259   36.0142   46.7439 H   0  0  0  0  0  0  0  0  0  0  0  0
   58.7265   34.4056   46.7439 H   0  0  0  0  0  0  0  0  0  0  0  0
   63.1190   35.0216   47.6458 H   0  0  0  0  0  0  0  0  0  0  0  0
   64.6345   33.4015   48.7888 H   0  0  0  0  0  0  0  0  0  0  0  0
   64.0627   30.9748   48.8425 H   0  0  0  0  0  0  0  0  0  0  0  0
   61.9657   30.1589   47.7640 H   0  0  0  0  0  0  0  0  0  0  0  0
   59.8340   33.1200   44.9560 H   0  0  0  0  0  0  0  0  0  0  0  0
   57.5766   32.6268   43.4917 H   0  0  0  0  0  0  0  0  0  0  0  0
   55.6317   31.0393   43.2799 H   0  0  0  0  0  0  0  0  0  0  0  0
   57.1392   28.7284   46.6520 H   0  0  0  0  0  0  0  0  0  0  0  0
   60.7615   29.6037   48.2248 H   0  0  0  0  0  0  0  0  0  0  0  0
   59.1095   29.9110   48.9188 H   0  0  0  0  0  0  0  0  0  0  0  0
   59.4588   27.5097   48.5956 H   0  0  0  0  0  0  0  0  0  0  0  0
   58.1889   28.1333   47.4731 H   0  0  0  0  0  0  0  0  0  0  0  0
   60.0320   28.3420   45.8020 H   0  0  0  0  0  0  0  0  0  0  0  0
   60.2839   25.7347   45.6786 H   0  0  0  0  0  0  0  0  0  0  0  0
   58.9067   25.8739   46.8554 H   0  0  0  0  0  0  0  0  0  0  0  0
   58.0835   27.6301   44.9459 H   0  0  0  0  0  0  0  0  0  0  0  0
   59.0039   26.4594   43.9294 H   0  0  0  0  0  0  0  0  0  0  0  0
   56.3111   26.6958   46.5553 H   0  0  0  0  0  0  0  0  0  0  0  0
   54.3878   25.1074   46.6352 H   0  0  0  0  0  0  0  0  0  0  0  0
   54.0200   22.1630   44.4960 H   0  0  0  0  0  0  0  0  0  0  0  0
   56.1475   22.8057   43.4219 H   0  0  0  0  0  0  0  0  0  0  0  0
   58.0752   24.3861   43.3424 H   0  0  0  0  0  0  0  0  0  0  0  0
  1  2  1  0
  2  3  1  0
  3  4  2  0
  4  5  1  0
  5  6  2  0
  6  7  1  0
  7  8  2  0
  8  9  1  0
  9 10  1  0
 10 11  1  0
 11 12  2  0
 12 13  1  0
 13 14  2  0
 14 15  1  0
 14 16  1  0
 16 17  2  0
 17 18  1  0
 18 19  1  0
 19 20  1  0
 20 21  1  0
 21 22  1  0
 22 23  1  0
 23 24  1  0
 24 25  2  0
 25 26  1  0
 26 27  2  0
 27 28  1  0
 27 29  1  0
 29 30  2  0
  8  3  1  0
 18  9  2  0
 30 24  1  0
 17 11  1  0
  1 31  1  0
  1 32  1  0
  1 33  1  0
  4 34  1  0
  5 35  1  0
  6 36  1  0
  7 37  1  0
 10 38  1  0
 12 39  1  0
 13 40  1  0
 16 41  1  0
 19 42  1  0
 19 43  1  0
 20 44  1  0
 20 45  1  0
 21 46  1  0
 22 47  1  0
 22 48  1  0
 23 49  1  0
 23 50  1  0
 25 51  1  0
 26 52  1  0
 28 53  1  0
 29 54  1  0
 30 55  1  0
M  CHG  1  15  -1
M  END
>  <UniqueID>  (22) 
19

>  <SMILES>  (22) 
COc1ccccc1-c1[nH]c2ccc([O-])cc2c1CCNCCc1ccc(O)cc1

>  <Energy>  (22) 
92.838546206498

>  <Genealogy>  (22) 
COc1ccccc1-c1[nH]c2ccc([O-])cc2c1CCNCCc1ccc(O)cc1 (protonated)
COc1ccccc1-c1[nH]c2ccc([O-])cc2c1CCNCCc1ccc(O)cc1 (3D coordinates assigned)
COc1ccccc1-c1[nH]c2ccc([O-])cc2c1CCNCCc1ccc(O)cc1 (optimized conformer: 92.838546206498 kcal/mol)

>  <smiles>  (22) 
COc1ccccc1-c1[nH]c2ccc(O)cc2c1CCNCCc1ccc(O)cc1

>  <score_type>  (22) 
oracle

>  <origin>  (22) 
adg

>  <m_score__min__energy>  (22) 
-11.5

>  <m_primary>  (22) 
energy

$$$$
22:0
     RDKit          3D

 30 31  0  0  0  0  0  0  0  0999 V2000
   59.1440   36.3720   47.2500 H   0  0  0  0  0  0  0  0  0  0  0  0
   59.6690   36.4920   46.3930 O   0  0  0  0  0  0  0  0  0  0  0  0
   60.0040   35.3950   45.6310 N   0  0  0  0  0  0  0  0  0  0  0  0
   60.1820   34.2140   46.1480 C   0  0  0  0  0  0  0  0  0  0  0  0
   61.3450   33.9450   47.0300 C   0  0  0  0  0  0  0  0  0  0  0  0
   61.1870   33.8870   48.4240 C   0  0  0  0  0  0  0  0  0  0  0  0
   60.1947   34.0499   48.8699 H   0  0  0  0  0  0  0  0  0  0  0  0
   62.2860   33.6230   49.2480 C   0  0  0  0  0  0  0  0  0  0  0  0
   62.1560   33.5804   50.3395 H   0  0  0  0  0  0  0  0  0  0  0  0
   63.5500   33.4130   48.6870 C   0  0  0  0  0  0  0  0  0  0  0  0
   64.9270   33.0800   49.7210 Cl  0  0  0  0  0  0  0  0  0  0  0  0
   63.7130   33.4650   47.2980 C   0  0  0  0  0  0  0  0  0  0  0  0
   64.7062   33.2985   46.8554 H   0  0  0  0  0  0  0  0  0  0  0  0
   62.6170   33.7280   46.4720 C   0  0  0  0  0  0  0  0  0  0  0  0
   62.7500   33.7654   45.3807 H   0  0  0  0  0  0  0  0  0  0  0  0
   59.2150   33.1300   45.8190 C   0  0  0  0  0  0  0  0  0  0  0  0
   59.3730   31.8440   46.3670 C   0  0  0  0  0  0  0  0  0  0  0  0
   60.2147   31.6408   47.0454 H   0  0  0  0  0  0  0  0  0  0  0  0
   58.4710   30.8220   46.0580 C   0  0  0  0  0  0  0  0  0  0  0  0
   58.6036   29.8228   46.4984 H   0  0  0  0  0  0  0  0  0  0  0  0
   57.3940   31.0660   45.1860 C   0  0  0  0  0  0  0  0  0  0  0  0
   56.4610   30.0740   44.8460 O   0  0  0  0  0  0  0  0  0  0  0  0
   56.1140   29.7220   43.5110 C   0  0  0  0  0  0  0  0  0  0  0  0
   55.3418   28.9387   43.5272 H   0  0  0  0  0  0  0  0  0  0  0  0
   55.7264   30.6082   42.9871 H   0  0  0  0  0  0  0  0  0  0  0  0
   57.0056   29.3471   42.9871 H   0  0  0  0  0  0  0  0  0  0  0  0
   57.2400   32.3400   44.6330 C   0  0  0  0  0  0  0  0  0  0  0  0
   56.4020   32.5392   43.9489 H   0  0  0  0  0  0  0  0  0  0  0  0
   58.1410   33.3640   44.9410 C   0  0  0  0  0  0  0  0  0  0  0  0
   58.0090   34.3601   44.4934 H   0  0  0  0  0  0  0  0  0  0  0  0
  1  2  1  0
  2  3  1  0
  3  4  2  0
  4  5  1  0
  5  6  2  0
  6  7  1  0
  6  8  1  0
  8  9  1  0
  8 10  2  0
 10 11  1  0
 10 12  1  0
 12 13  1  0
 12 14  2  0
 14 15  1  0
  4 16  1  0
 16 17  2  0
 17 18  1  0
 17 19  1  0
 19 20  1  0
 19 21  2  0
 21 22  1  0
 22 23  1  0
 23 24  1  0
 23 25  1  0
 23 26  1  0
 21 27  1  0
 27 28  1  0
 27 29  2  0
 29 30  1  0
 14  5  1  0
 29 16  1  0
M  END
>  <UniqueID>  (23) 
20

>  <SMILES>  (23) 
COc1ccc(/C(=N/O)c2ccc(Cl)cc2)cc1

>  <Energy>  (23) 
37.63436937376552

>  <Genealogy>  (23) 
COc1ccc(/C(=N/O)c2ccc(Cl)cc2)cc1 (cis-trans isomerization)
COc1ccc(/C(=N/O)c2ccc(Cl)cc2)cc1 (3D coordinates assigned)
COc1ccc(/C(=N/O)c2ccc(Cl)cc2)cc1 (optimized conformer: 37.63436937376552 kcal/mol)

>  <smiles>  (23) 
COc1ccc(C(=NO)c2ccc(Cl)cc2)cc1

>  <score_type>  (23) 
oracle

>  <origin>  (23) 
adg

>  <m_score__min__energy>  (23) 
-7.4500000000000002

>  <m_primary>  (23) 
energy

$$$$
23:0
     RDKit          3D

 23 24  0  0  0  0  0  0  0  0999 V2000
   55.2380   29.3360   44.6770 N   0  0  0  0  0  0  0  0  0  0  0  0
   56.5680   29.3890   45.1270 N   0  0  0  0  0  0  0  0  0  0  0  0
   57.4250   30.4270   45.1010 C   0  0  0  0  0  0  0  0  0  0  0  0
   57.1460   31.7770   44.5090 C   0  0  0  0  0  0  0  0  0  0  0  0
   57.8900   32.8430   45.2650 C   0  0  0  0  0  0  0  0  0  0  0  0
   58.6360   33.8100   44.5700 C   0  0  0  0  0  0  0  0  0  0  0  0
   59.3110   34.8170   45.2680 C   0  0  0  0  0  0  0  0  0  0  0  0
   59.2460   34.8660   46.6630 C   0  0  0  0  0  0  0  0  0  0  0  0
   58.5060   33.9100   47.3630 C   0  0  0  0  0  0  0  0  0  0  0  0
   57.8270   32.9020   46.6690 C   0  0  0  0  0  0  0  0  0  0  0  0
   58.6250   30.0670   45.6100 N   0  0  0  0  0  0  0  0  0  0  0  0
   58.5340   28.7950   45.9780 N   0  0  0  0  0  0  0  0  0  0  0  0
   57.2830   28.3990   45.6780 C   0  0  0  0  0  0  0  0  0  0  0  0
   56.8450   27.2380   45.8880 O   0  0  0  0  0  0  0  0  0  0  0  0
   54.7080   30.2170   44.4920 H   0  0  0  0  0  0  0  0  0  0  0  0
   54.7650   28.4240   44.5060 H   0  0  0  0  0  0  0  0  0  0  0  0
   57.4688   31.7857   43.4575 H   0  0  0  0  0  0  0  0  0  0  0  0
   56.0668   31.9798   44.5739 H   0  0  0  0  0  0  0  0  0  0  0  0
   58.6894   33.7750   43.4719 H   0  0  0  0  0  0  0  0  0  0  0  0
   59.8935   35.5710   44.7182 H   0  0  0  0  0  0  0  0  0  0  0  0
   59.7780   35.6580   47.2104 H   0  0  0  0  0  0  0  0  0  0  0  0
   58.4569   33.9495   48.4612 H   0  0  0  0  0  0  0  0  0  0  0  0
   57.2421   32.1533   47.2234 H   0  0  0  0  0  0  0  0  0  0  0  0
  1  2  1  0
  2  3  1  0
  3  4  1  0
  4  5  1  0
  5  6  2  0
  6  7  1  0
  7  8  2  0
  8  9  1  0
  9 10  2  0
  3 11  2  0
 11 12  1  0
 12 13  1  0
 13 14  2  0
 13  2  1  0
 10  5  1  0
  1 15  1  0
  1 16  1  0
  4 17  1  0
  4 18  1  0
  6 19  1  0
  7 20  1  0
  8 21  1  0
  9 22  1  0
 10 23  1  0
M  CHG  1  12  -1
M  END
>  <UniqueID>  (24) 
21

>  <SMILES>  (24) 
Nn1c(Cc2ccccc2)n[n-]c1=O

>  <Energy>  (24) 
59.00445205604777

>  <Genealogy>  (24) 
Nn1c(Cc2ccccc2)n[n-]c1=O (protonated)
Nn1c(Cc2ccccc2)n[n-]c1=O (3D coordinates assigned)
Nn1c(Cc2ccccc2)n[n-]c1=O (optimized conformer: 59.00445205604777 kcal/mol)

>  <smiles>  (24) 
Nn1c(Cc2ccccc2)n[nH]c1=O

>  <score_type>  (24) 
oracle

>  <origin>  (24) 
adg

>  <m_score__min__energy>  (24) 
-8.0899999999999999

>  <m_primary>  (24) 
energy

$$$$
24:0
     RDKit          3D

 48 51  0  0  0  0  0  0  0  0999 V2000
   58.6280   29.2710   47.0160 C   0  0  0  0  0  0  0  0  0  0  0  0
   59.4290   29.8360   46.0200 C   0  0  0  0  0  0  0  0  0  0  0  0
   60.4110   30.7720   46.3580 C   0  0  0  0  0  0  0  0  0  0  0  0
   60.5820   31.1670   47.6950 C   0  0  0  0  0  0  0  0  0  0  0  0
   61.6420   32.1360   48.0550 C   0  0  0  0  0  0  0  0  0  0  0  0
   62.9780   31.7540   47.8410 C   0  0  0  0  0  0  0  0  0  0  0  0
   64.0270   32.5940   48.2180 C   0  0  0  0  0  0  0  0  0  0  0  0
   63.7560   33.8190   48.8220 C   0  0  0  0  0  0  0  0  0  0  0  0
   62.4370   34.2220   49.0300 C   0  0  0  0  0  0  0  0  0  0  0  0
   61.3600   33.4130   48.6200 C   0  0  0  0  0  0  0  0  0  0  0  0
   59.9390   33.9370   48.8170 C   0  0  0  0  0  0  0  0  0  0  0  0
   59.2910   34.4960   47.6020 N   0  0  1  0  0  0  0  0  0  0  0  0
   60.1980   34.7540   46.4790 C   0  0  0  0  0  0  0  0  0  0  0  0
   59.3150   34.9010   45.2470 C   0  0  0  0  0  0  0  0  0  0  0  0
   58.0210   34.1540   45.5940 C   0  0  1  0  0  0  0  0  0  0  0  0
   57.7300   32.9990   44.6500 C   0  0  0  0  0  0  0  0  0  0  0  0
   57.0200   31.8630   45.0900 C   0  0  0  0  0  0  0  0  0  0  0  0
   56.7420   30.8180   44.2050 C   0  0  0  0  0  0  0  0  0  0  0  0
   57.1640   30.8940   42.8750 C   0  0  0  0  0  0  0  0  0  0  0  0
   57.8640   32.0160   42.4280 C   0  0  0  0  0  0  0  0  0  0  0  0
   58.1450   33.0650   43.3080 C   0  0  0  0  0  0  0  0  0  0  0  0
   58.1990   33.6900   47.0450 C   0  0  0  0  0  0  0  0  0  0  0  0
   59.7920   30.5740   48.6940 C   0  0  0  0  0  0  0  0  0  0  0  0
   58.8120   29.6360   48.3530 C   0  0  0  0  0  0  0  0  0  0  0  0
   57.8523   28.5386   46.7479 H   0  0  0  0  0  0  0  0  0  0  0  0
   59.2868   29.5440   44.9690 H   0  0  0  0  0  0  0  0  0  0  0  0
   61.0522   31.2008   45.5738 H   0  0  0  0  0  0  0  0  0  0  0  0
   63.1987   30.7838   47.3719 H   0  0  0  0  0  0  0  0  0  0  0  0
   65.0682   32.2882   48.0379 H   0  0  0  0  0  0  0  0  0  0  0  0
   64.5846   34.4708   49.1360 H   0  0  0  0  0  0  0  0  0  0  0  0
   62.2353   35.1853   49.5212 H   0  0  0  0  0  0  0  0  0  0  0  0
   59.3179   33.1050   49.1804 H   0  0  0  0  0  0  0  0  0  0  0  0
   60.0201   34.7721   49.5284 H   0  0  0  0  0  0  0  0  0  0  0  0
   58.8800   35.4200   47.8820 H   0  0  0  0  0  0  0  0  0  0  0  0
   60.7673   35.6790   46.6530 H   0  0  0  0  0  0  0  0  0  0  0  0
   60.9265   33.9391   46.3559 H   0  0  0  0  0  0  0  0  0  0  0  0
   59.1066   35.9621   45.0452 H   0  0  0  0  0  0  0  0  0  0  0  0
   59.7956   34.4969   44.3438 H   0  0  0  0  0  0  0  0  0  0  0  0
   57.1453   34.8101   45.4815 H   0  0  0  0  0  0  0  0  0  0  0  0
   56.6833   31.7991   46.1352 H   0  0  0  0  0  0  0  0  0  0  0  0
   56.1898   29.9337   44.5560 H   0  0  0  0  0  0  0  0  0  0  0  0
   56.9446   30.0698   42.1804 H   0  0  0  0  0  0  0  0  0  0  0  0
   58.1953   32.0747   41.3807 H   0  0  0  0  0  0  0  0  0  0  0  0
   58.6942   33.9477   42.9485 H   0  0  0  0  0  0  0  0  0  0  0  0
   57.2730   33.8568   47.6149 H   0  0  0  0  0  0  0  0  0  0  0  0
   58.4277   32.6153   47.0967 H   0  0  0  0  0  0  0  0  0  0  0  0
   59.9447   30.8484   49.7482 H   0  0  0  0  0  0  0  0  0  0  0  0
   58.1858   29.1853   49.1371 H   0  0  0  0  0  0  0  0  0  0  0  0
  1  2  2  0
  2  3  1  0
  3  4  2  0
  4  5  1  0
  5  6  2  0
  6  7  1  0
  7  8  2  0
  8  9  1  0
  9 10  2  0
 10 11  1  0
 11 12  1  0
 12 13  1  0
 13 14  1  0
 14 15  1  0
 15 16  1  0
 16 17  2  0
 17 18  1  0
 18 19  2  0
 19 20  1  0
 20 21  2  0
 15 22  1  0
  4 23  1  0
 23 24  2  0
 24  1  1  0
 10  5  1  0
 22 12  1  0
 21 16  1  0
  1 25  1  0
  2 26  1  0
  3 27  1  0
  6 28  1  0
  7 29  1  0
  8 30  1  0
  9 31  1  0
 11 32  1  0
 11 33  1  0
 12 34  1  1
 13 35  1  0
 13 36  1  0
 14 37  1  0
 14 38  1  0
 15 39  1  1
 17 40  1  0
 18 41  1  0
 19 42  1  0
 20 43  1  0
 21 44  1  0
 22 45  1  0
 22 46  1  0
 23 47  1  0
 24 48  1  0
M  CHG  1  12   1
M  END
>  <UniqueID>  (25) 
22

>  <SMILES>  (25) 
c1ccc(-c2ccccc2C[N@H+]2CC[C@@H](c3ccccc3)C2)cc1

>  <Energy>  (25) 
68.96584817950514

>  <Genealogy>  (25) 
c1ccc(-c2ccccc2C[NH+]2CCC(c3ccccc3)C2)cc1 (protonated)
c1ccc(-c2ccccc2C[N@H+]2CC[C@@H](c3ccccc3)C2)cc1 (chirality)
c1ccc(-c2ccccc2C[N@H+]2CC[C@@H](c3ccccc3)C2)cc1 (3D coordinates assigned)
c1ccc(-c2ccccc2C[N@H+]2CC[C@@H](c3ccccc3)C2)cc1 (nonaromatic ring conformer: 68.96584817950514 kcal/mol)

>  <smiles>  (25) 
c1ccc(-c2ccccc2CN2CCC(c3ccccc3)C2)cc1

>  <score_type>  (25) 
oracle

>  <origin>  (25) 
adg

>  <m_score__min__energy>  (25) 
-7.2199999999999998

>  <m_primary>  (25) 
energy

$$$$
25:0
     RDKit          3D

 40 42  0  0  0  0  0  0  0  0999 V2000
   62.1670   33.0600   51.6830 N   0  0  0  0  0  0  0  0  0  0  0  0
   62.9950   33.8530   50.8250 C   0  0  0  0  0  0  0  0  0  0  0  0
   63.9240   34.6010   51.3440 N   0  0  0  0  0  0  0  0  0  0  0  0
   62.7810   33.8210   49.3560 C   0  0  0  0  0  0  0  0  0  0  0  0
   63.8320   33.4950   48.4810 C   0  0  0  0  0  0  0  0  0  0  0  0
   63.6200   33.4710   47.1000 C   0  0  0  0  0  0  0  0  0  0  0  0
   62.3580   33.7580   46.5790 C   0  0  0  0  0  0  0  0  0  0  0  0
   61.2930   34.0620   47.4330 C   0  0  0  0  0  0  0  0  0  0  0  0
   60.0410   34.3540   46.8700 O   0  0  0  0  0  0  0  0  0  0  0  0
   59.2290   33.4420   46.1800 C   0  0  0  0  0  0  0  0  0  0  0  0
   58.2050   33.8670   45.3130 C   0  0  0  0  0  0  0  0  0  0  0  0
   57.4110   32.9280   44.6480 C   0  0  0  0  0  0  0  0  0  0  0  0
   57.6220   31.5580   44.8480 C   0  0  0  0  0  0  0  0  0  0  0  0
   56.6200   30.3810   44.0080 S   0  0  0  0  0  0  0  0  0  0  0  0
   56.6490   30.6690   42.5330 O   0  0  0  0  0  0  0  0  0  0  0  0
   55.2000   30.4620   44.4960 O   0  0  0  0  0  0  0  0  0  0  0  0
   57.2210   28.7850   44.3080 N   0  0  0  0  0  0  0  0  0  0  0  0
   57.2330   28.1610   45.4980 C   0  0  0  0  0  0  0  0  0  0  0  0
   57.8140   26.9160   45.3590 C   0  0  0  0  0  0  0  0  0  0  0  0
   58.1660   26.7910   44.0280 C   0  0  0  0  0  0  0  0  0  0  0  0
   57.7880   27.9650   43.4060 C   0  0  0  0  0  0  0  0  0  0  0  0
   58.6210   31.1340   45.7330 C   0  0  0  0  0  0  0  0  0  0  0  0
   59.4170   32.0730   46.3980 C   0  0  0  0  0  0  0  0  0  0  0  0
   61.5130   34.1100   48.8220 C   0  0  0  0  0  0  0  0  0  0  0  0
   62.2760   33.1040   52.7210 H   0  0  0  0  0  0  0  0  0  0  0  0
   61.4740   32.3860   51.2890 H   0  0  0  0  0  0  0  0  0  0  0  0
   63.8330   35.6420   51.3430 H   0  0  0  0  0  0  0  0  0  0  0  0
   64.7950   34.1940   51.7500 H   0  0  0  0  0  0  0  0  0  0  0  0
   64.8269   33.2575   48.8858 H   0  0  0  0  0  0  0  0  0  0  0  0
   64.4504   33.2251   46.4218 H   0  0  0  0  0  0  0  0  0  0  0  0
   62.1998   33.7451   45.4905 H   0  0  0  0  0  0  0  0  0  0  0  0
   58.0288   34.9417   45.1581 H   0  0  0  0  0  0  0  0  0  0  0  0
   56.6177   33.2664   43.9652 H   0  0  0  0  0  0  0  0  0  0  0  0
   56.8407   28.5775   46.4375 H   0  0  0  0  0  0  0  0  0  0  0  0
   57.9669   26.1695   46.1524 H   0  0  0  0  0  0  0  0  0  0  0  0
   58.6526   25.9248   43.5559 H   0  0  0  0  0  0  0  0  0  0  0  0
   57.9289   28.1933   42.3392 H   0  0  0  0  0  0  0  0  0  0  0  0
   58.7804   30.0594   45.9059 H   0  0  0  0  0  0  0  0  0  0  0  0
   60.1955   31.7327   47.0966 H   0  0  0  0  0  0  0  0  0  0  0  0
   60.6854   34.3760   49.4961 H   0  0  0  0  0  0  0  0  0  0  0  0
  1  2  1  0
  2  3  2  0
  2  4  1  0
  4  5  2  0
  5  6  1  0
  6  7  2  0
  7  8  1  0
  8  9  1  0
  9 10  1  0
 10 11  2  0
 11 12  1  0
 12 13  2  0
 13 14  1  0
 14 15  2  0
 14 16  2  0
 14 17  1  0
 17 18  1  0
 18 19  2  0
 19 20  1  0
 20 21  2  0
 13 22  1  0
 22 23  2  0
  8 24  2  0
 24  4  1  0
 23 10  1  0
 21 17  1  0
  1 25  1  0
  1 26  1  0
  3 27  1  0
  3 28  1  0
  5 29  1  0
  6 30  1  0
  7 31  1  0
 11 32  1  0
 12 33  1  0
 18 34  1  0
 19 35  1  0
 20 36  1  0
 21 37  1  0
 22 38  1  0
 23 39  1  0
 24 40  1  0
M  CHG  1   3   1
M  END
>  <UniqueID>  (26) 
23

>  <SMILES>  (26) 
NC(=[NH2+])c1cccc(Oc2ccc(S(=O)(=O)n3cccc3)cc2)c1

>  <Energy>  (26) 
77.97684177753263

>  <Genealogy>  (26) 
NC(=[NH2+])c1cccc(Oc2ccc(S(=O)(=O)n3cccc3)cc2)c1 (protonated)
NC(=[NH2+])c1cccc(Oc2ccc(S(=O)(=O)n3cccc3)cc2)c1 (3D coordinates assigned)
NC(=[NH2+])c1cccc(Oc2ccc(S(=O)(=O)n3cccc3)cc2)c1 (optimized conformer: 77.97684177753263 kcal/mol)

>  <smiles>  (26) 
N=C(N)c1cccc(Oc2ccc(S(=O)(=O)n3cccc3)cc2)c1

>  <score_type>  (26) 
oracle

>  <origin>  (26) 
adg

>  <m_score__min__energy>  (26) 
-6.8700000000000001

>  <m_primary>  (26) 
energy

$$$$
26:0
     RDKit          3D

 30 31  0  0  0  0  0  0  0  0999 V2000
   55.1170   26.2540   46.0160 N   0  0  0  0  0  0  0  0  0  0  0  0
   56.5130   25.9680   45.9460 C   0  0  0  0  0  0  0  0  0  0  0  0
   56.9070   24.7870   46.1370 O   0  0  0  0  0  0  0  0  0  0  0  0
   57.4880   27.0450   45.6530 C   0  0  0  0  0  0  0  0  0  0  0  0
   58.8690   26.7750   45.6490 C   0  0  0  0  0  0  0  0  0  0  0  0
   59.7880   27.7890   45.3690 C   0  0  0  0  0  0  0  0  0  0  0  0
   59.3430   29.0810   45.0870 C   0  0  0  0  0  0  0  0  0  0  0  0
   57.9720   29.3670   45.0830 C   0  0  0  0  0  0  0  0  0  0  0  0
   57.4050   30.9930   44.7100 S   0  0  0  0  0  0  0  0  0  0  0  0
   55.9160   31.0010   44.4980 O   0  0  0  0  0  0  0  0  0  0  0  0
   58.0820   31.4630   43.4520 O   0  0  0  0  0  0  0  0  0  0  0  0
   57.7980   32.0750   46.0090 N   0  0  0  0  0  0  0  0  0  0  0  0
   59.1430   32.4290   46.3790 C   0  0  0  0  0  0  0  0  0  0  0  0
   59.9210   31.5040   47.0930 C   0  0  0  0  0  0  0  0  0  0  0  0
   61.2280   31.8200   47.4770 C   0  0  0  0  0  0  0  0  0  0  0  0
   61.7730   33.0650   47.1480 C   0  0  0  0  0  0  0  0  0  0  0  0
   63.5580   33.4970   47.6750 Br  0  0  0  0  0  0  0  0  0  0  0  0
   61.0110   33.9900   46.4310 C   0  0  0  0  0  0  0  0  0  0  0  0
   59.7040   33.6780   46.0450 C   0  0  0  0  0  0  0  0  0  0  0  0
   57.0500   28.3520   45.3720 C   0  0  0  0  0  0  0  0  0  0  0  0
   54.7650   27.0850   46.5430 H   0  0  0  0  0  0  0  0  0  0  0  0
   59.2274   25.7583   45.8679 H   0  0  0  0  0  0  0  0  0  0  0  0
   60.8656   27.5683   45.3708 H   0  0  0  0  0  0  0  0  0  0  0  0
   60.0704   29.8764   44.8674 H   0  0  0  0  0  0  0  0  0  0  0  0
   56.9990   32.5520   46.4840 H   0  0  0  0  0  0  0  0  0  0  0  0
   59.4988   30.5220   47.3527 H   0  0  0  0  0  0  0  0  0  0  0  0
   61.8279   31.0885   48.0384 H   0  0  0  0  0  0  0  0  0  0  0  0
   61.4409   34.9680   46.1689 H   0  0  0  0  0  0  0  0  0  0  0  0
   59.1109   34.4106   45.4781 H   0  0  0  0  0  0  0  0  0  0  0  0
   55.9738   28.5794   45.3792 H   0  0  0  0  0  0  0  0  0  0  0  0
  1  2  1  0
  2  3  2  0
  2  4  1  0
  4  5  2  0
  5  6  1  0
  6  7  2  0
  7  8  1  0
  8  9  1  0
  9 10  2  0
  9 11  2  0
  9 12  1  0
 12 13  1  0
 13 14  2  0
 14 15  1  0
 15 16  2  0
 16 17  1  0
 16 18  1  0
 18 19  2  0
  8 20  2  0
 20  4  1  0
 19 13  1  0
  1 21  1  0
  5 22  1  0
  6 23  1  0
  7 24  1  0
 12 25  1  0
 14 26  1  0
 15 27  1  0
 18 28  1  0
 19 29  1  0
 20 30  1  0
M  CHG  1   1  -1
M  END
>  <UniqueID>  (27) 
24

>  <SMILES>  (27) 
[NH-]C(=O)c1cccc(S(=O)(=O)Nc2ccc(Br)cc2)c1

>  <Energy>  (27) 
33.21767210138585

>  <Genealogy>  (27) 
[NH-]C(=O)c1cccc(S(=O)(=O)Nc2ccc(Br)cc2)c1 (protonated)
[NH-]C(=O)c1cccc(S(=O)(=O)Nc2ccc(Br)cc2)c1 (3D coordinates assigned)
[NH-]C(=O)c1cccc(S(=O)(=O)Nc2ccc(Br)cc2)c1 (optimized conformer: 33.21767210138585 kcal/mol)

>  <smiles>  (27) 
NC(=O)c1cccc(S(=O)(=O)Nc2ccc(Br)cc2)c1

>  <score_type>  (27) 
oracle

>  <origin>  (27) 
adg

>  <m_score__min__energy>  (27) 
-11.609999999999999

>  <m_primary>  (27) 
energy

$$$$
27:0
     RDKit          3D

 67 70  0  0  0  0  0  0  0  0999 V2000
   60.3430   25.5410   46.0480 C   0  0  0  0  0  0  0  0  0  0  0  0
   59.2390   24.7950   45.9470 C   0  0  0  0  0  0  0  0  0  0  0  0
   58.1480   24.8790   46.9790 C   0  0  0  0  0  0  0  0  0  0  0  0
   57.2760   26.0370   46.7210 N   0  0  0  0  0  0  0  0  0  0  0  0
   55.9280   25.7470   46.3120 C   0  0  0  0  0  0  0  0  0  0  0  0
   55.1530   26.6930   46.0050 O   0  0  0  0  0  0  0  0  0  0  0  0
   55.5010   24.3860   46.1700 N   0  0  0  0  0  0  0  0  0  0  0  0
   56.0330   23.4440   45.2250 C   0  0  0  0  0  0  0  0  0  0  0  0
   55.7690   23.5700   43.8490 C   0  0  0  0  0  0  0  0  0  0  0  0
   56.2690   22.6280   42.9460 C   0  0  0  0  0  0  0  0  0  0  0  0
   57.0380   21.5590   43.4050 C   0  0  0  0  0  0  0  0  0  0  0  0
   57.2910   21.4140   44.7710 C   0  0  0  0  0  0  0  0  0  0  0  0
   56.7830   22.3520   45.6940 C   0  0  0  0  0  0  0  0  0  0  0  0
   57.0090   22.2350   47.0750 O   0  0  0  0  0  0  0  0  0  0  0  0
   56.0290   21.8140   48.0180 C   0  0  0  0  0  0  0  0  0  0  0  0
   57.7770   27.4070   46.7210 C   0  0  0  0  0  0  0  0  0  0  0  0
   58.7770   27.8130   47.6320 C   0  0  0  0  0  0  0  0  0  0  0  0
   59.2210   29.1330   47.6720 C   0  0  0  0  0  0  0  0  0  0  0  0
   58.6690   30.1010   46.8200 C   0  0  0  0  0  0  0  0  0  0  0  0
   59.1350   31.4610   46.8590 N   0  0  0  0  0  0  0  0  0  0  0  0
   59.5160   32.1790   48.0380 C   0  0  0  0  0  0  0  0  0  0  0  0
   58.6330   32.5900   48.8410 O   0  0  0  0  0  0  0  0  0  0  0  0
   60.9470   32.4910   48.2900 C   0  0  0  0  0  0  0  0  0  0  0  0
   61.8730   32.5140   47.2330 C   0  0  0  0  0  0  0  0  0  0  0  0
   63.2300   32.7490   47.4850 C   0  0  0  0  0  0  0  0  0  0  0  0
   63.6880   32.9490   48.7920 C   0  0  0  0  0  0  0  0  0  0  0  0
   65.0590   33.1480   48.9960 O   0  0  0  0  0  0  0  0  0  0  0  0
   65.7760   32.6960   50.1430 C   0  0  0  0  0  0  0  0  0  0  0  0
   62.7620   32.9340   49.8510 C   0  0  0  0  0  0  0  0  0  0  0  0
   61.4080   32.7130   49.6010 C   0  0  0  0  0  0  0  0  0  0  0  0
   57.6980   29.7150   45.8730 C   0  0  0  0  0  0  0  0  0  0  0  0
   57.0720   30.7160   44.9690 C   0  0  0  0  0  0  0  0  0  0  0  0
   56.1230   30.3520   44.2230 O   0  0  0  0  0  0  0  0  0  0  0  0
   57.5400   32.1230   44.9030 C   0  0  0  0  0  0  0  0  0  0  0  0
   57.0380   33.0750   45.8100 C   0  0  0  0  0  0  0  0  0  0  0  0
   57.4920   34.3980   45.7710 C   0  0  0  0  0  0  0  0  0  0  0  0
   58.4540   34.7810   44.8340 C   0  0  0  0  0  0  0  0  0  0  0  0
   58.9700   33.8400   43.9400 C   0  0  0  0  0  0  0  0  0  0  0  0
   58.5180   32.5180   43.9730 C   0  0  0  0  0  0  0  0  0  0  0  0
   57.2550   28.3800   45.8410 C   0  0  0  0  0  0  0  0  0  0  0  0
   61.1298   25.4654   45.2830 H   0  0  0  0  0  0  0  0  0  0  0  0
   60.4650   26.2307   46.8961 H   0  0  0  0  0  0  0  0  0  0  0  0
   59.1262   24.1082   45.0952 H   0  0  0  0  0  0  0  0  0  0  0  0
   57.5462   23.9589   46.9441 H   0  0  0  0  0  0  0  0  0  0  0  0
   58.6079   24.9966   47.9713 H   0  0  0  0  0  0  0  0  0  0  0  0
   55.1662   24.4139   43.4822 H   0  0  0  0  0  0  0  0  0  0  0  0
   56.0557   22.7298   41.8717 H   0  0  0  0  0  0  0  0  0  0  0  0
   57.4459   20.8290   42.6903 H   0  0  0  0  0  0  0  0  0  0  0  0
   57.8898   20.5635   45.1290 H   0  0  0  0  0  0  0  0  0  0  0  0
   56.4078   21.9767   49.0378 H   0  0  0  0  0  0  0  0  0  0  0  0
   55.1065   22.3952   47.8724 H   0  0  0  0  0  0  0  0  0  0  0  0
   55.8155   20.7448   47.8724 H   0  0  0  0  0  0  0  0  0  0  0  0
   59.2125   27.0748   48.3214 H   0  0  0  0  0  0  0  0  0  0  0  0
   60.0132   29.4192   48.3795 H   0  0  0  0  0  0  0  0  0  0  0  0
   61.5295   32.3464   46.2015 H   0  0  0  0  0  0  0  0  0  0  0  0
   63.9428   32.7767   46.6477 H   0  0  0  0  0  0  0  0  0  0  0  0
   65.2548   33.0246   51.0542 H   0  0  0  0  0  0  0  0  0  0  0  0
   65.8342   31.5976   50.1297 H   0  0  0  0  0  0  0  0  0  0  0  0
   66.7921   33.1172   50.1297 H   0  0  0  0  0  0  0  0  0  0  0  0
   63.1080   33.0975   50.8823 H   0  0  0  0  0  0  0  0  0  0  0  0
   60.6931   32.7122   50.4370 H   0  0  0  0  0  0  0  0  0  0  0  0
   56.2843   32.7773   46.5539 H   0  0  0  0  0  0  0  0  0  0  0  0
   57.0905   35.1375   46.4795 H   0  0  0  0  0  0  0  0  0  0  0  0
   58.8051   35.8229   44.8000 H   0  0  0  0  0  0  0  0  0  0  0  0
   59.7342   34.1403   43.2080 H   0  0  0  0  0  0  0  0  0  0  0  0
   58.9299   31.7818   43.2670 H   0  0  0  0  0  0  0  0  0  0  0  0
   56.4838   28.0874   45.1132 H   0  0  0  0  0  0  0  0  0  0  0  0
  1  2  2  0
  2  3  1  0
  3  4  1  0
  4  5  1  0
  5  6  2  0
  5  7  1  0
  7  8  1  0
  8  9  2  0
  9 10  1  0
 10 11  2  0
 11 12  1  0
 12 13  2  0
 13 14  1  0
 14 15  1  0
  4 16  1  0
 16 17  2  0
 17 18  1  0
 18 19  2  0
 19 20  1  0
 20 21  1  0
 21 22  2  0
 21 23  1  0
 23 24  2  0
 24 25  1  0
 25 26  2  0
 26 27  1  0
 27 28  1  0
 26 29  1  0
 29 30  2  0
 19 31  1  0
 31 32  1  0
 32 33  2  0
 32 34  1  0
 34 35  2  0
 35 36  1  0
 36 37  2  0
 37 38  1  0
 38 39  2  0
 31 40  2  0
 13  8  1  0
 40 16  1  0
 30 23  1  0
 39 34  1  0
  1 41  1  0
  1 42  1  0
  2 43  1  0
  3 44  1  0
  3 45  1  0
  9 46  1  0
 10 47  1  0
 11 48  1  0
 12 49  1  0
 15 50  1  0
 15 51  1  0
 15 52  1  0
 17 53  1  0
 18 54  1  0
 24 55  1  0
 25 56  1  0
 28 57  1  0
 28 58  1  0
 28 59  1  0
 29 60  1  0
 30 61  1  0
 35 62  1  0
 36 63  1  0
 37 64  1  0
 38 65  1  0
 39 66  1  0
 40 67  1  0
M  CHG  2   7  -1  20  -1
M  END
>  <UniqueID>  (28) 
25

>  <SMILES>  (28) 
C=CCN(C(=O)[N-]c1ccccc1OC)c1ccc([N-]C(=O)c2ccc(OC)cc2)c(C(=O)c2ccccc2)c1

>  <Energy>  (28) 
93.14976343141845

>  <Genealogy>  (28) 
C=CCN(C(=O)[N-]c1ccccc1OC)c1ccc([N-]C(=O)c2ccc(OC)cc2)c(C(=O)c2ccccc2)c1 (protonated)
C=CCN(C(=O)[N-]c1ccccc1OC)c1ccc([N-]C(=O)c2ccc(OC)cc2)c(C(=O)c2ccccc2)c1 (3D coordinates assigned)
C=CCN(C(=O)[N-]c1ccccc1OC)c1ccc([N-]C(=O)c2ccc(OC)cc2)c(C(=O)c2ccccc2)c1 (optimized conformer: 93.14976343141845 kcal/mol)

>  <smiles>  (28) 
C=CCN(C(=O)Nc1ccccc1OC)c1ccc(NC(=O)c2ccc(OC)cc2)c(C(=O)c2ccccc2)c1

>  <score_type>  (28) 
oracle

>  <origin>  (28) 
adg

>  <m_score__min__energy>  (28) 
-12.460000000000001

>  <m_primary>  (28) 
energy

$$$$
28:0
     RDKit          3D

 53 55  0  0  0  0  0  0  0  0999 V2000
   58.3140   30.4730   47.2720 O   0  0  0  0  0  0  0  0  0  0  0  0
   59.1140   29.6020   46.8300 C   0  0  0  0  0  0  0  0  0  0  0  0
   59.3260   29.4660   45.3450 C   0  0  0  0  0  0  0  0  0  0  0  0
   57.9980   29.3680   44.5490 C   0  0  1  0  0  0  0  0  0  0  0  0
   56.8580   28.7480   45.3250 C   0  0  0  0  0  0  0  0  0  0  0  0
   57.0710   27.9530   46.2790 O   0  0  0  0  0  0  0  0  0  0  0  0
   55.5170   28.9680   44.8830 N   0  0  0  0  0  0  0  0  0  0  0  0
   55.1650   30.0370   43.9540 C   0  0  0  0  0  0  0  0  0  0  0  0
   56.3820   30.5070   43.1320 C   0  0  0  0  0  0  0  0  0  0  0  0
   57.5890   30.6760   43.9740 N   0  0  0  0  0  0  0  0  0  0  0  0
   57.4280   31.7750   44.9620 C   0  0  0  0  0  0  0  0  0  0  0  0
   58.4390   32.8980   44.6980 C   0  0  0  0  0  0  0  0  0  0  0  0
   59.1660   33.2960   45.9580 C   0  0  0  0  0  0  0  0  0  0  0  0
   58.6460   34.2980   46.7910 C   0  0  0  0  0  0  0  0  0  0  0  0
   59.3150   34.6500   47.9700 C   0  0  0  0  0  0  0  0  0  0  0  0
   60.4980   33.9990   48.3280 C   0  0  0  0  0  0  0  0  0  0  0  0
   61.0120   32.9890   47.5100 C   0  0  0  0  0  0  0  0  0  0  0  0
   60.3470   32.6350   46.3330 C   0  0  0  0  0  0  0  0  0  0  0  0
   59.7820   28.7110   47.7360 N   0  0  0  0  0  0  0  0  0  0  0  0
   59.6470   28.8610   49.1860 C   0  0  0  0  0  0  0  0  0  0  0  0
   60.6160   29.9160   49.7380 C   0  0  0  0  0  0  0  0  0  0  0  0
   59.8880   31.0220   50.4570 C   0  0  0  0  0  0  0  0  0  0  0  0
   60.6030   32.0650   51.0690 C   0  0  0  0  0  0  0  0  0  0  0  0
   59.9210   33.0980   51.7190 C   0  0  0  0  0  0  0  0  0  0  0  0
   58.5250   33.0990   51.7610 C   0  0  0  0  0  0  0  0  0  0  0  0
   57.8620   34.1090   52.3870 F   0  0  0  0  0  0  0  0  0  0  0  0
   57.8070   32.0670   51.1530 C   0  0  0  0  0  0  0  0  0  0  0  0
   58.4850   31.0310   50.5020 C   0  0  0  0  0  0  0  0  0  0  0  0
   59.8841   30.3445   44.9888 H   0  0  0  0  0  0  0  0  0  0  0  0
   59.8802   28.5309   45.1763 H   0  0  0  0  0  0  0  0  0  0  0  0
   58.2220   28.6783   43.7219 H   0  0  0  0  0  0  0  0  0  0  0  0
   54.3908   29.6688   43.2647 H   0  0  0  0  0  0  0  0  0  0  0  0
   54.7986   30.8922   44.5408 H   0  0  0  0  0  0  0  0  0  0  0  0
   56.5942   29.7599   42.3530 H   0  0  0  0  0  0  0  0  0  0  0  0
   56.1366   31.4840   42.6902 H   0  0  0  0  0  0  0  0  0  0  0  0
   56.4089   32.1820   44.8856 H   0  0  0  0  0  0  0  0  0  0  0  0
   57.6049   31.3714   45.9699 H   0  0  0  0  0  0  0  0  0  0  0  0
   59.1734   32.5505   43.9564 H   0  0  0  0  0  0  0  0  0  0  0  0
   57.8901   33.7753   44.3250 H   0  0  0  0  0  0  0  0  0  0  0  0
   57.7107   34.8083   46.5175 H   0  0  0  0  0  0  0  0  0  0  0  0
   58.9076   35.4416   48.6161 H   0  0  0  0  0  0  0  0  0  0  0  0
   61.0241   34.2808   49.2520 H   0  0  0  0  0  0  0  0  0  0  0  0
   61.9409   32.4722   47.7930 H   0  0  0  0  0  0  0  0  0  0  0  0
   60.7509   31.8339   45.6965 H   0  0  0  0  0  0  0  0  0  0  0  0
   60.3880   27.9570   47.3420 H   0  0  0  0  0  0  0  0  0  0  0  0
   58.6163   29.1666   49.4188 H   0  0  0  0  0  0  0  0  0  0  0  0
   59.8861   27.8953   49.6554 H   0  0  0  0  0  0  0  0  0  0  0  0
   61.3089   29.4301   50.4407 H   0  0  0  0  0  0  0  0  0  0  0  0
   61.1591   30.3587   48.8900 H   0  0  0  0  0  0  0  0  0  0  0  0
   61.7025   32.0689   51.0367 H   0  0  0  0  0  0  0  0  0  0  0  0
   60.4851   33.9117   52.1983 H   0  0  0  0  0  0  0  0  0  0  0  0
   56.7075   32.0688   51.1860 H   0  0  0  0  0  0  0  0  0  0  0  0
   57.9164   30.2201   50.0234 H   0  0  0  0  0  0  0  0  0  0  0  0
  1  2  2  0
  2  3  1  0
  3  4  1  0
  4  5  1  0
  5  6  2  0
  5  7  1  0
  7  8  1  0
  8  9  1  0
  9 10  1  0
 10 11  1  0
 11 12  1  0
 12 13  1  0
 13 14  2  0
 14 15  1  0
 15 16  2  0
 16 17  1  0
 17 18  2  0
  2 19  1  0
 19 20  1  0
 20 21  1  0
 21 22  1  0
 22 23  2  0
 23 24  1  0
 24 25  2  0
 25 26  1  0
 25 27  1  0
 27 28  2  0
 10  4  1  0
 18 13  1  0
 28 22  1  0
  3 29  1  0
  3 30  1  0
  4 31  1  6
  8 32  1  0
  8 33  1  0
  9 34  1  0
  9 35  1  0
 11 36  1  0
 11 37  1  0
 12 38  1  0
 12 39  1  0
 14 40  1  0
 15 41  1  0
 16 42  1  0
 17 43  1  0
 18 44  1  0
 19 45  1  0
 20 46  1  0
 20 47  1  0
 21 48  1  0
 21 49  1  0
 23 50  1  0
 24 51  1  0
 27 52  1  0
 28 53  1  0
M  CHG  1   7  -1
M  END
>  <UniqueID>  (29) 
26

>  <SMILES>  (29) 
O=C(C[C@H]1C(=O)[N-]CCN1CCc1ccccc1)NCCc1ccc(F)cc1

>  <Energy>  (29) 
56.078313122550796

>  <Genealogy>  (29) 
O=C(CC1C(=O)[N-]CCN1CCc1ccccc1)NCCc1ccc(F)cc1 (protonated)
O=C(C[C@H]1C(=O)[N-]CCN1CCc1ccccc1)NCCc1ccc(F)cc1 (chirality)
O=C(C[C@H]1C(=O)[N-]CCN1CCc1ccccc1)NCCc1ccc(F)cc1 (3D coordinates assigned)
O=C(C[C@H]1C(=O)[N-]CCN1CCc1ccccc1)NCCc1ccc(F)cc1 (nonaromatic ring conformer: 56.078313122550796 kcal/mol)

>  <smiles>  (29) 
O=C(CC1C(=O)NCCN1CCc1ccccc1)NCCc1ccc(F)cc1

>  <score_type>  (29) 
oracle

>  <origin>  (29) 
adg

>  <m_score__min__energy>  (29) 
-10.720000000000001

>  <m_primary>  (29) 
energy

$$$$
29:0
     RDKit          3D

 43 45  0  0  0  0  0  0  0  0999 V2000
   59.5360   25.8460   46.5890 C   0  0  0  0  0  0  0  0  0  0  0  0
   58.6820   25.0270   45.6560 C   0  0  0  0  0  0  0  0  0  0  0  0
   58.6170   23.6350   45.8360 C   0  0  0  0  0  0  0  0  0  0  0  0
   57.8820   22.8390   44.9570 C   0  0  0  0  0  0  0  0  0  0  0  0
   57.1990   23.4230   43.8870 C   0  0  0  0  0  0  0  0  0  0  0  0
   56.2910   22.4170   42.7720 Cl  0  0  0  0  0  0  0  0  0  0  0  0
   57.2360   24.8080   43.7070 C   0  0  0  0  0  0  0  0  0  0  0  0
   57.9480   25.6230   44.5990 C   0  0  0  0  0  0  0  0  0  0  0  0
   57.9570   27.0420   44.3840 N   0  0  0  0  0  0  0  0  0  0  0  0
   57.0600   27.9300   45.0700 C   0  0  0  0  0  0  0  0  0  0  0  0
   56.0340   27.4650   45.6390 O   0  0  0  0  0  0  0  0  0  0  0  0
   57.3150   29.3890   45.1000 C   0  0  0  0  0  0  0  0  0  0  0  0
   56.7520   30.2380   44.1310 C   0  0  0  0  0  0  0  0  0  0  0  0
   57.0160   31.6110   44.1510 C   0  0  0  0  0  0  0  0  0  0  0  0
   57.8440   32.1560   45.1400 C   0  0  0  0  0  0  0  0  0  0  0  0
   58.1780   33.8840   45.1790 S   0  0  0  0  0  0  0  0  0  0  0  0
   59.2260   34.1990   44.1500 O   0  0  0  0  0  0  0  0  0  0  0  0
   56.9390   34.6780   44.8690 O   0  0  0  0  0  0  0  0  0  0  0  0
   58.7650   34.3350   46.7470 N   0  0  0  0  0  0  0  0  0  0  0  0
   60.1030   34.1240   47.2190 C   0  0  0  0  0  0  0  0  0  0  0  0
   60.3510   34.2240   48.5950 C   0  0  0  0  0  0  0  0  0  0  0  0
   61.6400   34.0290   49.0980 C   0  0  0  0  0  0  0  0  0  0  0  0
   62.6930   33.7310   48.2280 C   0  0  0  0  0  0  0  0  0  0  0  0
   62.4570   33.6310   46.8550 C   0  0  0  0  0  0  0  0  0  0  0  0
   61.1680   33.8240   46.3490 C   0  0  0  0  0  0  0  0  0  0  0  0
   58.4130   31.3170   46.1040 C   0  0  0  0  0  0  0  0  0  0  0  0
   58.1540   29.9430   46.0810 C   0  0  0  0  0  0  0  0  0  0  0  0
   59.2803   25.6008   47.6304 H   0  0  0  0  0  0  0  0  0  0  0  0
   60.5972   25.6193   46.4088 H   0  0  0  0  0  0  0  0  0  0  0  0
   59.3539   26.9158   46.4088 H   0  0  0  0  0  0  0  0  0  0  0  0
   59.1504   23.1687   46.6775 H   0  0  0  0  0  0  0  0  0  0  0  0
   57.8401   21.7500   45.1065 H   0  0  0  0  0  0  0  0  0  0  0  0
   56.7026   25.2627   42.8592 H   0  0  0  0  0  0  0  0  0  0  0  0
   58.4930   27.4090   43.5650 H   0  0  0  0  0  0  0  0  0  0  0  0
   56.0989   29.8190   43.3513 H   0  0  0  0  0  0  0  0  0  0  0  0
   56.5715   32.2655   43.3868 H   0  0  0  0  0  0  0  0  0  0  0  0
   59.5254   34.4575   49.2834 H   0  0  0  0  0  0  0  0  0  0  0  0
   61.8263   34.1100   50.1791 H   0  0  0  0  0  0  0  0  0  0  0  0
   63.7071   33.5753   48.6247 H   0  0  0  0  0  0  0  0  0  0  0  0
   63.2866   33.4000   46.1706 H   0  0  0  0  0  0  0  0  0  0  0  0
   60.9856   33.7411   45.2674 H   0  0  0  0  0  0  0  0  0  0  0  0
   59.0659   31.7392   46.8821 H   0  0  0  0  0  0  0  0  0  0  0  0
   58.6117   29.2897   46.8384 H   0  0  0  0  0  0  0  0  0  0  0  0
  1  2  1  0
  2  3  2  0
  3  4  1  0
  4  5  2  0
  5  6  1  0
  5  7  1  0
  7  8  2  0
  8  9  1  0
  9 10  1  0
 10 11  2  0
 10 12  1  0
 12 13  2  0
 13 14  1  0
 14 15  2  0
 15 16  1  0
 16 17  2  0
 16 18  2  0
 16 19  1  0
 19 20  1  0
 20 21  2  0
 21 22  1  0
 22 23  2  0
 23 24  1  0
 24 25  2  0
 15 26  1  0
 26 27  2  0
  8  2  1  0
 27 12  1  0
 25 20  1  0
  1 28  1  0
  1 29  1  0
  1 30  1  0
  3 31  1  0
  4 32  1  0
  7 33  1  0
  9 34  1  0
 13 35  1  0
 14 36  1  0
 21 37  1  0
 22 38  1  0
 23 39  1  0
 24 40  1  0
 25 41  1  0
 26 42  1  0
 27 43  1  0
M  CHG  1  19  -1
M  END
>  <UniqueID>  (30) 
27

>  <SMILES>  (30) 
Cc1ccc(Cl)cc1NC(=O)c1ccc(S(=O)(=O)[N-]c2ccccc2)cc1

>  <Energy>  (30) 
56.437503745671364

>  <Genealogy>  (30) 
Cc1ccc(Cl)cc1NC(=O)c1ccc(S(=O)(=O)[N-]c2ccccc2)cc1 (protonated)
Cc1ccc(Cl)cc1NC(=O)c1ccc(S(=O)(=O)[N-]c2ccccc2)cc1 (3D coordinates assigned)
Cc1ccc(Cl)cc1NC(=O)c1ccc(S(=O)(=O)[N-]c2ccccc2)cc1 (optimized conformer: 56.437503745671364 kcal/mol)

>  <smiles>  (30) 
Cc1ccc(Cl)cc1NC(=O)c1ccc(S(=O)(=O)Nc2ccccc2)cc1

>  <score_type>  (30) 
oracle

>  <origin>  (30) 
adg

>  <m_score__min__energy>  (30) 
-9.8300000000000001

>  <m_primary>  (30) 
energy

$$$$
30:0
     RDKit          3D

 52 55  0  0  1  0  0  0  0  0999 V2000
   58.0980   32.4590   43.3710 C   0  0  0  0  0  0  0  0  0  0  0  0
   57.4300   33.0350   44.6080 C   0  0  0  0  0  0  0  0  0  0  0  0
   58.3180   34.5830   44.9800 S   0  0  0  0  0  0  0  0  0  0  0  0
   59.5230   34.3250   46.2680 C   0  0  0  0  0  0  0  0  0  0  0  0
   60.7980   34.0130   45.9120 N   0  0  0  0  0  0  0  0  0  0  0  0
   61.7210   33.8140   46.8910 C   0  0  0  0  0  0  0  0  0  0  0  0
   63.4880   33.3910   46.7290 S   0  0  0  0  0  0  0  0  0  0  0  0
   63.7390   33.3720   48.4680 C   0  0  0  0  0  0  0  0  0  0  0  0
   62.5110   33.6760   49.0640 C   0  0  0  0  0  0  0  0  0  0  0  0
   61.4850   33.9010   48.2230 C   0  0  0  0  0  0  0  0  0  0  0  0
   60.1490   34.2270   48.5570 C   0  0  0  0  0  0  0  0  0  0  0  0
   59.7540   34.3440   49.7630 N   0  0  0  0  0  0  0  0  0  0  0  0
   59.4370   33.2380   50.6440 C   0  0  0  0  0  0  0  0  0  0  0  0
   58.3690   32.3480   49.9930 C   0  0  0  0  0  0  0  0  0  0  0  0
   58.9750   30.9510   49.9300 C   0  0  0  0  0  0  0  0  0  0  0  0
   59.7490   30.7600   48.7080 N   0  0  0  0  0  0  0  0  0  0  0  0
   61.0810   30.2070   48.6040 C   0  0  0  0  0  0  0  0  0  0  0  0
   61.4940   30.5340   47.2020 C   0  0  0  0  0  0  0  0  0  0  0  0
   60.2400   30.6530   46.3820 C   0  0  0  0  0  0  0  0  0  0  0  0
   59.2490   31.1160   47.4190 C   0  0  0  0  0  0  0  0  0  0  0  0
   58.1620   31.7160   47.1770 O   0  0  0  0  0  0  0  0  0  0  0  0
   59.2690   34.4140   47.5650 N   0  0  0  0  0  0  0  0  0  0  0  0
   62.5910   33.6950   50.5740 C   0  0  0  0  0  0  0  0  0  0  0  0
   63.3350   32.5110   51.0930 C   0  0  0  0  0  0  0  0  0  0  0  0
   64.4190   31.9640   50.2460 C   0  0  0  0  0  0  0  0  0  0  0  0
   64.9080   33.1120   49.3530 C   0  0  0  0  0  0  0  0  0  0  0  0
   58.8987   31.7686   43.6746 H   0  0  0  0  0  0  0  0  0  0  0  0
   57.3530   31.9155   42.7714 H   0  0  0  0  0  0  0  0  0  0  0  0
   58.5260   33.2759   42.7714 H   0  0  0  0  0  0  0  0  0  0  0  0
   56.3681   33.2415   44.4084 H   0  0  0  0  0  0  0  0  0  0  0  0
   57.4711   32.3325   45.4535 H   0  0  0  0  0  0  0  0  0  0  0  0
   60.3450   32.6449   50.8276 H   0  0  0  0  0  0  0  0  0  0  0  0
   59.0530   33.6300   51.5973 H   0  0  0  0  0  0  0  0  0  0  0  0
   57.4530   32.3411   50.6019 H   0  0  0  0  0  0  0  0  0  0  0  0
   58.0909   32.7142   48.9937 H   0  0  0  0  0  0  0  0  0  0  0  0
   59.6356   30.8082   50.7979 H   0  0  0  0  0  0  0  0  0  0  0  0
   58.1551   30.2178   49.9381 H   0  0  0  0  0  0  0  0  0  0  0  0
   61.7586   30.6770   49.3320 H   0  0  0  0  0  0  0  0  0  0  0  0
   61.1119   29.1281   48.8163 H   0  0  0  0  0  0  0  0  0  0  0  0
   62.0466   31.4850   47.1846 H   0  0  0  0  0  0  0  0  0  0  0  0
   62.1508   29.7501   46.7970 H   0  0  0  0  0  0  0  0  0  0  0  0
   60.3548   31.3933   45.5765 H   0  0  0  0  0  0  0  0  0  0  0  0
   59.9506   29.7256   45.8660 H   0  0  0  0  0  0  0  0  0  0  0  0
   58.2720   34.6600   47.8320 H   0  0  0  0  0  0  0  0  0  0  0  0
   63.1084   34.6115   50.8938 H   0  0  0  0  0  0  0  0  0  0  0  0
   61.5675   33.6650   50.9760 H   0  0  0  0  0  0  0  0  0  0  0  0
   63.7817   32.7980   52.0564 H   0  0  0  0  0  0  0  0  0  0  0  0
   62.5853   31.7077   51.1449 H   0  0  0  0  0  0  0  0  0  0  0  0
   65.2429   31.5972   50.8758 H   0  0  0  0  0  0  0  0  0  0  0  0
   64.0579   31.1198   49.6402 H   0  0  0  0  0  0  0  0  0  0  0  0
   65.1552   34.0007   49.9522 H   0  0  0  0  0  0  0  0  0  0  0  0
   65.8253   32.8674   48.7974 H   0  0  0  0  0  0  0  0  0  0  0  0
  1  2  1  0
  2  3  1  0
  3  4  1  0
  4  5  2  0
  5  6  1  0
  6  7  1  0
  7  8  1  0
  8  9  2  0
  9 10  1  0
 10 11  1  0
 11 12  2  0
 12 13  1  0
 13 14  1  0
 14 15  1  0
 15 16  1  0
 16 17  1  0
 17 18  1  0
 18 19  1  0
 19 20  1  0
 20 21  2  0
 11 22  1  0
  9 23  1  0
 23 24  1  0
 24 25  1  0
 25 26  1  0
 22  4  1  0
 10  6  2  0
 20 16  1  0
 26  8  1  0
  1 27  1  0
  1 28  1  0
  1 29  1  0
  2 30  1  0
  2 31  1  0
 13 32  1  0
 13 33  1  0
 14 34  1  0
 14 35  1  0
 15 36  1  0
 15 37  1  0
 17 38  1  0
 17 39  1  0
 18 40  1  0
 18 41  1  0
 19 42  1  0
 19 43  1  0
 22 44  1  0
 23 45  1  0
 23 46  1  0
 24 47  1  0
 24 48  1  0
 25 49  1  0
 25 50  1  0
 26 51  1  0
 26 52  1  0
M  END
>  <smiles>  (31) 
CCSc1nc2sc3c(c2c(=NCCCN2CCCC2=O)[nH]1)CCCC3

>  <score_type>  (31) 
oracle

>  <origin>  (31) 
adg

>  <m_score__min__energy>  (31) 
-8.6699999999999999

>  <m_primary>  (31) 
energy

$$$$
31:0
     RDKit          3D

 39 41  0  0  0  0  0  0  0  0999 V2000
   55.2540   29.4230   44.7870 O   0  0  0  0  0  0  0  0  0  0  0  0
   56.6640   29.4060   44.2630 S   0  0  0  0  0  0  0  0  0  0  0  0
   56.6090   29.1690   42.7790 O   0  0  0  0  0  0  0  0  0  0  0  0
   57.5790   28.1210   45.0420 C   0  0  0  0  0  0  0  0  0  0  0  0
   58.9820   28.1530   45.0460 C   0  0  0  0  0  0  0  0  0  0  0  0
   59.7050   27.1160   45.6430 C   0  0  0  0  0  0  0  0  0  0  0  0
   59.0330   26.0420   46.2330 C   0  0  0  0  0  0  0  0  0  0  0  0
   57.6360   26.0000   46.2220 C   0  0  0  0  0  0  0  0  0  0  0  0
   56.9090   27.0360   45.6260 C   0  0  0  0  0  0  0  0  0  0  0  0
   57.4510   30.9440   44.5960 C   0  0  0  0  0  0  0  0  0  0  0  0
   57.7120   31.8440   43.5550 C   0  0  0  0  0  0  0  0  0  0  0  0
   58.3020   33.0810   43.8270 C   0  0  0  0  0  0  0  0  0  0  0  0
   58.6140   33.4430   45.1460 C   0  0  0  0  0  0  0  0  0  0  0  0
   59.2440   34.7560   45.4050 C   0  0  0  0  0  0  0  0  0  0  0  0
   59.9540   35.0700   46.5010 C   0  0  0  0  0  0  0  0  0  0  0  0
   61.0120   34.2290   47.1030 C   0  0  0  0  0  0  0  0  0  0  0  0
   62.1510   33.8420   46.3730 C   0  0  0  0  0  0  0  0  0  0  0  0
   63.1240   33.0290   46.9620 C   0  0  0  0  0  0  0  0  0  0  0  0
   62.9590   32.5790   48.2750 C   0  0  0  0  0  0  0  0  0  0  0  0
   63.9030   31.7890   48.8440 F   0  0  0  0  0  0  0  0  0  0  0  0
   61.8150   32.9330   48.9960 C   0  0  0  0  0  0  0  0  0  0  0  0
   60.8410   33.7480   48.4100 C   0  0  0  0  0  0  0  0  0  0  0  0
   58.3760   32.5260   46.1840 C   0  0  0  0  0  0  0  0  0  0  0  0
   57.7860   31.2890   45.9100 C   0  0  0  0  0  0  0  0  0  0  0  0
   59.5135   28.9951   44.5788 H   0  0  0  0  0  0  0  0  0  0  0  0
   60.8046   27.1455   45.6484 H   0  0  0  0  0  0  0  0  0  0  0  0
   59.6038   25.2294   46.7062 H   0  0  0  0  0  0  0  0  0  0  0  0
   57.1079   25.1519   46.6822 H   0  0  0  0  0  0  0  0  0  0  0  0
   55.8097   26.9996   45.6154 H   0  0  0  0  0  0  0  0  0  0  0  0
   57.4517   31.5762   42.5203 H   0  0  0  0  0  0  0  0  0  0  0  0
   58.5230   33.7748   43.0025 H   0  0  0  0  0  0  0  0  0  0  0  0
   59.1214   35.5367   44.6398 H   0  0  0  0  0  0  0  0  0  0  0  0
   59.7310   36.0296   46.9904 H   0  0  0  0  0  0  0  0  0  0  0  0
   62.2764   34.1807   45.3340 H   0  0  0  0  0  0  0  0  0  0  0  0
   64.0201   32.7432   46.3917 H   0  0  0  0  0  0  0  0  0  0  0  0
   61.6806   32.5701   50.0257 H   0  0  0  0  0  0  0  0  0  0  0  0
   59.9363   34.0133   48.9767 H   0  0  0  0  0  0  0  0  0  0  0  0
   58.6552   32.7829   47.2165 H   0  0  0  0  0  0  0  0  0  0  0  0
   57.5843   30.5842   46.7301 H   0  0  0  0  0  0  0  0  0  0  0  0
  1  2  2  0
  2  3  2  0
  2  4  1  0
  4  5  2  0
  5  6  1  0
  6  7  2  0
  7  8  1  0
  8  9  2  0
  2 10  1  0
 10 11  2  0
 11 12  1  0
 12 13  2  0
 13 14  1  0
 14 15  2  3
 15 16  1  0
 16 17  2  0
 17 18  1  0
 18 19  2  0
 19 20  1  0
 19 21  1  0
 21 22  2  0
 13 23  1  0
 23 24  2  0
  9  4  1  0
 24 10  1  0
 22 16  1  0
  5 25  1  0
  6 26  1  0
  7 27  1  0
  8 28  1  0
  9 29  1  0
 11 30  1  0
 12 31  1  0
 14 32  1  0
 15 33  1  0
 17 34  1  0
 18 35  1  0
 21 36  1  0
 22 37  1  0
 23 38  1  0
 24 39  1  0
M  END
>  <UniqueID>  (32) 
28

>  <SMILES>  (32) 
O=S(=O)(c1ccccc1)c1ccc(C=Cc2ccc(F)cc2)cc1

>  <Energy>  (32) 
53.04338821044714

>  <Genealogy>  (32) 
O=S(=O)(c1ccccc1)c1ccc(C=Cc2ccc(F)cc2)cc1 (3D coordinates assigned)
O=S(=O)(c1ccccc1)c1ccc(C=Cc2ccc(F)cc2)cc1 (optimized conformer: 53.04338821044714 kcal/mol)

>  <smiles>  (32) 
O=S(=O)(c1ccccc1)c1ccc(C=Cc2ccc(F)cc2)cc1

>  <score_type>  (32) 
oracle

>  <origin>  (32) 
adg

>  <m_score__min__energy>  (32) 
-9.2699999999999996

>  <m_primary>  (32) 
energy

$$$$
32:0
     RDKit          3D

 45 47  0  0  0  0  0  0  0  0999 V2000
   59.0629   35.7410   46.4571 H   0  0  0  0  0  0  0  0  0  0  0  0
   59.1090   34.6620   46.6660 C   0  0  0  0  0  0  0  0  0  0  0  0
   58.0130   33.9390   46.3970 C   0  0  0  0  0  0  0  0  0  0  0  0
   57.0476   34.3503   46.7267 H   0  0  0  0  0  0  0  0  0  0  0  0
   57.9870   32.6370   45.6960 C   0  0  0  0  0  0  0  0  0  0  0  0
   57.3950   32.5710   44.4280 C   0  0  0  0  0  0  0  0  0  0  0  0
   56.8403   33.4343   44.0317 H   0  0  0  0  0  0  0  0  0  0  0  0
   57.5120   31.4070   43.6710 C   0  0  0  0  0  0  0  0  0  0  0  0
   57.0288   31.3388   42.6852 H   0  0  0  0  0  0  0  0  0  0  0  0
   58.2430   30.3300   44.1670 C   0  0  0  0  0  0  0  0  0  0  0  0
   58.3723   29.4215   43.5605 H   0  0  0  0  0  0  0  0  0  0  0  0
   58.8120   30.4130   45.4440 C   0  0  0  0  0  0  0  0  0  0  0  0
   59.6880   29.3290   45.9140 C   0  0  0  0  0  0  0  0  0  0  0  0
   60.7261   29.3203   45.5503 H   0  0  0  0  0  0  0  0  0  0  0  0
   59.3170   28.3510   46.7520 C   0  0  0  0  0  0  0  0  0  0  0  0
   59.7178   28.3950   47.7754 H   0  0  0  0  0  0  0  0  0  0  0  0
   58.4190   27.2160   46.4330 C   0  0  0  0  0  0  0  0  0  0  0  0
   58.8640   25.8810   46.4360 C   0  0  0  0  0  0  0  0  0  0  0  0
   59.9326   25.6616   46.5770 H   0  0  0  0  0  0  0  0  0  0  0  0
   57.9570   24.8320   46.2610 C   0  0  0  0  0  0  0  0  0  0  0  0
   58.3196   23.7936   46.2426 H   0  0  0  0  0  0  0  0  0  0  0  0
   56.5900   25.0940   46.1090 C   0  0  0  0  0  0  0  0  0  0  0  0
   55.6710   24.0070   45.9490 N   0  0  0  0  0  0  0  0  0  0  0  0
   54.6480   24.1850   45.8480 H   0  0  0  0  0  0  0  0  0  0  0  0
   56.0020   23.0170   45.9350 H   0  0  0  0  0  0  0  0  0  0  0  0
   56.1360   26.4230   46.1260 C   0  0  0  0  0  0  0  0  0  0  0  0
   54.7810   26.7090   45.9980 O   0  0  0  0  0  0  0  0  0  0  0  0
   57.0470   27.4720   46.2830 C   0  0  0  0  0  0  0  0  0  0  0  0
   56.6842   28.5104   46.2890 H   0  0  0  0  0  0  0  0  0  0  0  0
   58.6700   31.5550   46.1800 N   0  0  0  0  0  0  0  0  0  0  0  0
   59.1660   31.6220   47.0980 H   0  0  0  0  0  0  0  0  0  0  0  0
   60.3740   34.1350   47.2190 C   0  0  0  0  0  0  0  0  0  0  0  0
   60.5950   34.0660   48.6050 C   0  0  0  0  0  0  0  0  0  0  0  0
   59.7733   34.2859   49.3024 H   0  0  0  0  0  0  0  0  0  0  0  0
   61.8550   33.7190   49.1010 C   0  0  0  0  0  0  0  0  0  0  0  0
   62.0244   33.6806   50.1872 H   0  0  0  0  0  0  0  0  0  0  0  0
   62.9060   33.4190   48.2180 C   0  0  0  0  0  0  0  0  0  0  0  0
   64.2770   33.1060   48.7350 C   0  0  0  0  0  0  0  0  0  0  0  0
   64.2636   33.1091   49.8349 H   0  0  0  0  0  0  0  0  0  0  0  0
   64.5871   32.1140   48.3748 H   0  0  0  0  0  0  0  0  0  0  0  0
   64.9869   33.8652   48.3748 H   0  0  0  0  0  0  0  0  0  0  0  0
   62.6820   33.4780   46.8370 C   0  0  0  0  0  0  0  0  0  0  0  0
   63.4966   33.2334   46.1394 H   0  0  0  0  0  0  0  0  0  0  0  0
   61.4290   33.8460   46.3410 C   0  0  0  0  0  0  0  0  0  0  0  0
   61.2686   33.9096   45.2546 H   0  0  0  0  0  0  0  0  0  0  0  0
  1  2  1  0
  2  3  2  0
  3  4  1  0
  3  5  1  0
  5  6  2  0
  6  7  1  0
  6  8  1  0
  8  9  1  0
  8 10  2  0
 10 11  1  0
 10 12  1  0
 12 13  1  0
 13 14  1  0
 13 15  2  0
 15 16  1  0
 15 17  1  0
 17 18  2  0
 18 19  1  0
 18 20  1  0
 20 21  1  0
 20 22  2  0
 22 23  1  0
 23 24  1  0
 23 25  1  0
 22 26  1  0
 26 27  1  0
 26 28  2  0
 28 29  1  0
 12 30  2  0
 30 31  1  0
  2 32  1  0
 32 33  2  0
 33 34  1  0
 33 35  1  0
 35 36  1  0
 35 37  2  0
 37 38  1  0
 38 39  1  0
 38 40  1  0
 38 41  1  0
 37 42  1  0
 42 43  1  0
 42 44  2  0
 44 45  1  0
 30  5  1  0
 44 32  1  0
 28 17  1  0
M  CHG  2  27  -1  30   1
M  END
>  <UniqueID>  (33) 
29

>  <SMILES>  (33) 
Cc1ccc(/C=C\c2cccc(/C=C\c3ccc(N)c([O-])c3)[nH+]2)cc1

>  <Energy>  (33) 
64.47985235471484

>  <Genealogy>  (33) 
Cc1ccc(C=Cc2cccc(C=Cc3ccc(N)c([O-])c3)[nH+]2)cc1 (protonated)
Cc1ccc(/C=C\c2cccc(/C=C\c3ccc(N)c([O-])c3)[nH+]2)cc1 (cis-trans isomerization)
Cc1ccc(/C=C\c2cccc(/C=C\c3ccc(N)c([O-])c3)[nH+]2)cc1 (3D coordinates assigned)
Cc1ccc(/C=C\c2cccc(/C=C\c3ccc(N)c([O-])c3)[nH+]2)cc1 (optimized conformer: 64.47985235471484 kcal/mol)

>  <smiles>  (33) 
Cc1ccc(C=Cc2cccc(C=Cc3ccc(N)c(O)c3)n2)cc1

>  <score_type>  (33) 
oracle

>  <origin>  (33) 
adg

>  <m_score__min__energy>  (33) 
-11.359999999999999

>  <m_primary>  (33) 
energy

$$$$
33:0
     RDKit          3D

 48 50  0  0  0  0  0  0  0  0999 V2000
   57.0340   25.8180   45.3060 C   0  0  0  0  0  0  0  0  0  0  0  0
   56.3970   27.0530   45.6210 O   0  0  0  0  0  0  0  0  0  0  0  0
   57.0370   28.3020   45.6230 C   0  0  0  0  0  0  0  0  0  0  0  0
   56.7210   29.3040   44.6890 C   0  0  0  0  0  0  0  0  0  0  0  0
   57.3760   30.5440   44.7160 C   0  0  0  0  0  0  0  0  0  0  0  0
   58.3190   30.8210   45.7270 C   0  0  0  0  0  0  0  0  0  0  0  0
   58.6750   29.7880   46.6180 C   0  0  0  0  0  0  0  0  0  0  0  0
   58.0260   28.5410   46.5840 C   0  0  0  0  0  0  0  0  0  0  0  0
   58.3370   27.5130   47.4880 O   0  0  0  0  0  0  0  0  0  0  0  0
   59.6600   27.1460   47.8700 C   0  0  0  0  0  0  0  0  0  0  0  0
   59.0760   32.1540   45.7550 C   0  0  2  0  0  0  0  0  0  0  0  0
   59.4210   32.5960   47.1830 C   0  0  0  0  0  0  0  0  0  0  0  0
   58.5300   32.3890   48.2560 C   0  0  0  0  0  0  0  0  0  0  0  0
   58.8670   32.7960   49.5490 C   0  0  0  0  0  0  0  0  0  0  0  0
   60.0990   33.4160   49.7960 C   0  0  0  0  0  0  0  0  0  0  0  0
   60.4430   33.8330   51.1200 N   0  0  0  0  0  0  0  0  0  0  0  0
   60.9920   33.6210   48.7380 C   0  0  0  0  0  0  0  0  0  0  0  0
   60.6580   33.2140   47.4440 C   0  0  0  0  0  0  0  0  0  0  0  0
   58.4070   33.2380   44.9510 N   0  0  0  0  0  0  0  0  0  0  0  0
   59.3570   34.3610   44.7340 C   0  0  0  0  0  0  0  0  0  0  0  0
   57.1980   33.7880   45.6230 C   0  0  0  0  0  0  0  0  0  0  0  0
   58.0430   32.7060   43.6080 C   0  0  0  0  0  0  0  0  0  0  0  0
   57.0190   31.5670   43.6750 C   0  0  0  0  0  0  0  0  0  0  0  0
   57.3030   25.2964   46.2364 H   0  0  0  0  0  0  0  0  0  0  0  0
   56.3472   25.1904   44.7192 H   0  0  0  0  0  0  0  0  0  0  0  0
   57.9436   26.0138   44.7192 H   0  0  0  0  0  0  0  0  0  0  0  0
   55.9505   29.1132   43.9275 H   0  0  0  0  0  0  0  0  0  0  0  0
   59.4749   29.9606   47.3531 H   0  0  0  0  0  0  0  0  0  0  0  0
   59.7325   27.1259   48.9674 H   0  0  0  0  0  0  0  0  0  0  0  0
   59.8943   26.1490   47.4687 H   0  0  0  0  0  0  0  0  0  0  0  0
   60.3744   27.8799   47.4687 H   0  0  0  0  0  0  0  0  0  0  0  0
   60.0335   31.9682   45.2463 H   0  0  0  0  0  0  0  0  0  0  0  0
   57.5605   31.9025   48.0732 H   0  0  0  0  0  0  0  0  0  0  0  0
   58.1622   32.6291   50.3769 H   0  0  0  0  0  0  0  0  0  0  0  0
   61.4420   33.9270   51.4090 H   0  0  0  0  0  0  0  0  0  0  0  0
   59.7000   34.0500   51.8220 H   0  0  0  0  0  0  0  0  0  0  0  0
   61.9617   34.1050   48.9263 H   0  0  0  0  0  0  0  0  0  0  0  0
   61.3690   33.3783   46.6209 H   0  0  0  0  0  0  0  0  0  0  0  0
   59.6890   34.7535   45.7065 H   0  0  0  0  0  0  0  0  0  0  0  0
   60.2281   34.0001   44.1675 H   0  0  0  0  0  0  0  0  0  0  0  0
   58.8567   35.1602   44.1675 H   0  0  0  0  0  0  0  0  0  0  0  0
   57.3264   33.7296   46.7139 H   0  0  0  0  0  0  0  0  0  0  0  0
   57.0590   34.8379   45.3258 H   0  0  0  0  0  0  0  0  0  0  0  0
   56.3152   33.2029   45.3258 H   0  0  0  0  0  0  0  0  0  0  0  0
   57.6181   33.5252   43.0093 H   0  0  0  0  0  0  0  0  0  0  0  0
   58.9592   32.3000   43.1544 H   0  0  0  0  0  0  0  0  0  0  0  0
   56.0333   31.9905   43.9178 H   0  0  0  0  0  0  0  0  0  0  0  0
   57.0084   31.0641   42.6967 H   0  0  0  0  0  0  0  0  0  0  0  0
  1  2  1  0
  2  3  1  0
  3  4  2  0
  4  5  1  0
  5  6  2  0
  6  7  1  0
  7  8  2  0
  8  9  1  0
  9 10  1  0
  6 11  1  0
 11 12  1  0
 12 13  2  0
 13 14  1  0
 14 15  2  0
 15 16  1  0
 15 17  1  0
 17 18  2  0
 11 19  1  0
 19 20  1  0
 19 21  1  0
 19 22  1  0
 22 23  1  0
  8  3  1  0
 18 12  1  0
 23  5  1  0
  1 24  1  0
  1 25  1  0
  1 26  1  0
  4 27  1  0
  7 28  1  0
 10 29  1  0
 10 30  1  0
 10 31  1  0
 11 32  1  6
 13 33  1  0
 14 34  1  0
 16 35  1  0
 16 36  1  0
 17 37  1  0
 18 38  1  0
 20 39  1  0
 20 40  1  0
 20 41  1  0
 21 42  1  0
 21 43  1  0
 21 44  1  0
 22 45  1  0
 22 46  1  0
 23 47  1  0
 23 48  1  0
M  CHG  1  19   1
M  END
>  <UniqueID>  (34) 
30

>  <SMILES>  (34) 
COc1cc2c(cc1OC)[C@H](c1ccc(N)cc1)[N+](C)(C)CC2

>  <Energy>  (34) 
63.5893627190836

>  <Genealogy>  (34) 
COc1cc2c(cc1OC)[C@H](c1ccc(N)cc1)[N+](C)(C)CC2 (chirality)
COc1cc2c(cc1OC)[C@H](c1ccc(N)cc1)[N+](C)(C)CC2 (3D coordinates assigned)
COc1cc2c(cc1OC)[C@H](c1ccc(N)cc1)[N+](C)(C)CC2 (nonaromatic ring conformer: 63.5893627190836 kcal/mol)

>  <smiles>  (34) 
COc1cc2c(cc1OC)C(c1ccc(N)cc1)[N+](C)(C)CC2

>  <score_type>  (34) 
oracle

>  <origin>  (34) 
adg

>  <m_score__min__energy>  (34) 
-4.8899999999999997

>  <m_primary>  (34) 
energy

$$$$
34:0
     RDKit          3D

 36 37  0  0  0  0  0  0  0  0999 V2000
   62.0219   33.6517   45.4000 H   0  0  0  0  0  0  0  0  0  0  0  0
   61.5760   33.4700   46.3890 C   0  0  0  0  0  0  0  0  0  0  0  0
   60.2630   33.7500   46.5440 C   0  0  0  0  0  0  0  0  0  0  0  0
   59.8470   34.9890   47.2470 C   0  0  0  0  0  0  0  0  0  0  0  0
   59.6670   36.0610   46.6050 O   0  0  0  0  0  0  0  0  0  0  0  0
   59.6530   34.9630   48.6330 O   0  0  0  0  0  0  0  0  0  0  0  0
   59.6910   33.7620   49.3920 C   0  0  0  0  0  0  0  0  0  0  0  0
   59.6833   34.0057   50.4646 H   0  0  0  0  0  0  0  0  0  0  0  0
   58.8119   33.1470   49.1494 H   0  0  0  0  0  0  0  0  0  0  0  0
   60.6073   33.2038   49.1494 H   0  0  0  0  0  0  0  0  0  0  0  0
   59.2040   32.8840   45.9690 C   0  0  0  0  0  0  0  0  0  0  0  0
   59.3410   31.4870   45.9800 C   0  0  0  0  0  0  0  0  0  0  0  0
   60.2419   31.0289   46.4140 H   0  0  0  0  0  0  0  0  0  0  0  0
   58.3380   30.6750   45.4420 C   0  0  0  0  0  0  0  0  0  0  0  0
   58.4504   29.5809   45.4611 H   0  0  0  0  0  0  0  0  0  0  0  0
   57.1850   31.2510   44.8760 C   0  0  0  0  0  0  0  0  0  0  0  0
   56.1510   30.4800   44.3250 O   0  0  0  0  0  0  0  0  0  0  0  0
   56.2650   29.7210   43.1260 C   0  0  0  0  0  0  0  0  0  0  0  0
   56.4241   28.6617   43.3763 H   0  0  0  0  0  0  0  0  0  0  0  0
   55.3413   29.8240   42.5376 H   0  0  0  0  0  0  0  0  0  0  0  0
   57.1177   30.0908   42.5376 H   0  0  0  0  0  0  0  0  0  0  0  0
   57.0580   32.6450   44.8560 C   0  0  0  0  0  0  0  0  0  0  0  0
   56.1630   33.1049   44.4116 H   0  0  0  0  0  0  0  0  0  0  0  0
   58.0590   33.4570   45.3960 C   0  0  0  0  0  0  0  0  0  0  0  0
   57.9485   34.5512   45.3716 H   0  0  0  0  0  0  0  0  0  0  0  0
   62.4590   32.9370   47.4510 C   0  0  0  0  0  0  0  0  0  0  0  0
   63.6460   33.6190   47.7610 C   0  0  0  0  0  0  0  0  0  0  0  0
   63.9149   34.5292   47.2049 H   0  0  0  0  0  0  0  0  0  0  0  0
   64.4890   33.1480   48.7730 C   0  0  0  0  0  0  0  0  0  0  0  0
   65.4249   33.6794   49.0005 H   0  0  0  0  0  0  0  0  0  0  0  0
   64.1430   32.0030   49.4950 C   0  0  0  0  0  0  0  0  0  0  0  0
   64.8105   31.6289   50.2852 H   0  0  0  0  0  0  0  0  0  0  0  0
   62.9500   31.3330   49.2140 C   0  0  0  0  0  0  0  0  0  0  0  0
   62.6757   30.4358   49.7882 H   0  0  0  0  0  0  0  0  0  0  0  0
   62.1040   31.8010   48.2040 C   0  0  0  0  0  0  0  0  0  0  0  0
   61.1576   31.2800   47.9967 H   0  0  0  0  0  0  0  0  0  0  0  0
  1  2  1  0
  2  3  2  0
  3  4  1  0
  4  5  2  0
  4  6  1  0
  6  7  1  0
  7  8  1  0
  7  9  1  0
  7 10  1  0
  3 11  1  0
 11 12  2  0
 12 13  1  0
 12 14  1  0
 14 15  1  0
 14 16  2  0
 16 17  1  0
 17 18  1  0
 18 19  1  0
 18 20  1  0
 18 21  1  0
 16 22  1  0
 22 23  1  0
 22 24  2  0
 24 25  1  0
  2 26  1  0
 26 27  2  0
 27 28  1  0
 27 29  1  0
 29 30  1  0
 29 31  2  0
 31 32  1  0
 31 33  1  0
 33 34  1  0
 33 35  2  0
 35 36  1  0
 24 11  1  0
 35 26  1  0
M  END
>  <UniqueID>  (35) 
31

>  <SMILES>  (35) 
COC(=O)/C(=C/c1ccccc1)c1ccc(OC)cc1

>  <Energy>  (35) 
44.88500341129288

>  <Genealogy>  (35) 
COC(=O)/C(=C/c1ccccc1)c1ccc(OC)cc1 (cis-trans isomerization)
COC(=O)/C(=C/c1ccccc1)c1ccc(OC)cc1 (3D coordinates assigned)
COC(=O)/C(=C/c1ccccc1)c1ccc(OC)cc1 (optimized conformer: 44.88500341129288 kcal/mol)

>  <smiles>  (35) 
COC(=O)C(=Cc1ccccc1)c1ccc(OC)cc1

>  <score_type>  (35) 
oracle

>  <origin>  (35) 
adg

>  <m_score__min__energy>  (35) 
-6.29

>  <m_primary>  (35) 
energy

$$$$
35:0
     RDKit          3D

 40 42  0  0  0  0  0  0  0  0999 V2000
   57.4340   31.9840   41.7360 C   0  0  0  0  0  0  0  0  0  0  0  0
   56.9890   30.9170   42.5640 O   0  0  0  0  0  0  0  0  0  0  0  0
   56.7560   31.0730   43.9360 C   0  0  0  0  0  0  0  0  0  0  0  0
   55.8040   30.4550   44.4880 O   0  0  0  0  0  0  0  0  0  0  0  0
   57.6280   31.9630   44.7350 C   0  0  0  0  0  0  0  0  0  0  0  0
   58.5990   31.4210   45.5950 C   0  0  0  0  0  0  0  0  0  0  0  0
   59.4240   32.2600   46.3500 C   0  0  0  0  0  0  0  0  0  0  0  0
   59.3010   33.6490   46.2560 C   0  0  0  0  0  0  0  0  0  0  0  0
   60.1460   34.4530   47.0370 O   0  0  0  0  0  0  0  0  0  0  0  0
   60.5760   34.1280   48.3290 C   0  0  0  0  0  0  0  0  0  0  0  0
   59.6450   34.1460   49.3720 C   0  0  0  0  0  0  0  0  0  0  0  0
   60.0290   33.8360   50.6870 C   0  0  0  0  0  0  0  0  0  0  0  0
   59.0060   33.9320   51.7920 C   0  0  0  0  0  0  0  0  0  0  0  0
   58.3540   32.6400   51.9870 N   0  0  0  0  0  0  0  0  0  0  0  0
   58.7040   31.7010   52.8890 C   0  0  0  0  0  0  0  0  0  0  0  0
   57.8710   30.6110   52.7290 C   0  0  0  0  0  0  0  0  0  0  0  0
   57.0230   30.9560   51.6920 C   0  0  0  0  0  0  0  0  0  0  0  0
   57.3420   32.1900   51.2620 N   0  0  0  0  0  0  0  0  0  0  0  0
   61.3750   33.5050   50.9500 C   0  0  0  0  0  0  0  0  0  0  0  0
   61.9440   33.1320   52.5740 Cl  0  0  0  0  0  0  0  0  0  0  0  0
   62.3000   33.4590   49.9000 C   0  0  0  0  0  0  0  0  0  0  0  0
   61.9090   33.7600   48.5930 C   0  0  0  0  0  0  0  0  0  0  0  0
   63.0910   33.6150   47.2990 Cl  0  0  0  0  0  0  0  0  0  0  0  0
   58.3220   34.1970   45.4070 C   0  0  0  0  0  0  0  0  0  0  0  0
   57.4960   33.3600   44.6510 C   0  0  0  0  0  0  0  0  0  0  0  0
   57.7812   32.8165   42.3656 H   0  0  0  0  0  0  0  0  0  0  0  0
   58.2615   31.6347   41.1009 H   0  0  0  0  0  0  0  0  0  0  0  0
   56.6036   32.3262   41.1009 H   0  0  0  0  0  0  0  0  0  0  0  0
   58.7104   30.3295   45.6744 H   0  0  0  0  0  0  0  0  0  0  0  0
   60.1761   31.8233   47.0235 H   0  0  0  0  0  0  0  0  0  0  0  0
   58.5976   34.4065   49.1598 H   0  0  0  0  0  0  0  0  0  0  0  0
   59.5056   34.2317   52.7250 H   0  0  0  0  0  0  0  0  0  0  0  0
   58.2477   34.6795   51.5161 H   0  0  0  0  0  0  0  0  0  0  0  0
   59.5151   31.7882   53.6269 H   0  0  0  0  0  0  0  0  0  0  0  0
   57.8800   29.6721   53.3020 H   0  0  0  0  0  0  0  0  0  0  0  0
   56.2193   30.3245   51.2855 H   0  0  0  0  0  0  0  0  0  0  0  0
   56.8760   32.7130   50.4870 H   0  0  0  0  0  0  0  0  0  0  0  0
   63.3447   33.1832   50.1062 H   0  0  0  0  0  0  0  0  0  0  0  0
   58.2060   35.2887   45.3378 H   0  0  0  0  0  0  0  0  0  0  0  0
   56.7373   33.7977   43.9856 H   0  0  0  0  0  0  0  0  0  0  0  0
  1  2  1  0
  2  3  1  0
  3  4  2  0
  3  5  1  0
  5  6  2  0
  6  7  1  0
  7  8  2  0
  8  9  1  0
  9 10  1  0
 10 11  2  0
 11 12  1  0
 12 13  1  0
 13 14  1  0
 14 15  1  0
 15 16  2  0
 16 17  1  0
 17 18  2  0
 12 19  2  0
 19 20  1  0
 19 21  1  0
 21 22  2  0
 22 23  1  0
  8 24  1  0
 24 25  2  0
 25  5  1  0
 22 10  1  0
 18 14  1  0
  1 26  1  0
  1 27  1  0
  1 28  1  0
  6 29  1  0
  7 30  1  0
 11 31  1  0
 13 32  1  0
 13 33  1  0
 15 34  1  0
 16 35  1  0
 17 36  1  0
 18 37  1  0
 21 38  1  0
 24 39  1  0
 25 40  1  0
M  CHG  1  18   1
M  END
>  <UniqueID>  (36) 
32

>  <SMILES>  (36) 
COC(=O)c1ccc(Oc2cc(Cn3ccc[nH+]3)c(Cl)cc2Cl)cc1

>  <Energy>  (36) 
78.67542215271244

>  <Genealogy>  (36) 
COC(=O)c1ccc(Oc2cc(Cn3ccc[nH+]3)c(Cl)cc2Cl)cc1 (protonated)
COC(=O)c1ccc(Oc2cc(Cn3ccc[nH+]3)c(Cl)cc2Cl)cc1 (3D coordinates assigned)
COC(=O)c1ccc(Oc2cc(Cn3ccc[nH+]3)c(Cl)cc2Cl)cc1 (optimized conformer: 78.67542215271244 kcal/mol)

>  <smiles>  (36) 
COC(=O)c1ccc(Oc2cc(Cn3cccn3)c(Cl)cc2Cl)cc1

>  <score_type>  (36) 
oracle

>  <origin>  (36) 
adg

>  <m_score__min__energy>  (36) 
-6.5199999999999996

>  <m_primary>  (36) 
energy

$$$$
36:0
     RDKit          3D

 45 47  0  0  0  0  0  0  0  0999 V2000
   59.6410   35.3240   46.0490 C   0  0  0  0  0  0  0  0  0  0  0  0
   59.4100   34.9640   47.5130 C   0  0  0  0  0  0  0  0  0  0  0  0
   60.0330   33.7190   47.8310 O   0  0  0  0  0  0  0  0  0  0  0  0
   59.8920   32.5190   47.1110 C   0  0  0  0  0  0  0  0  0  0  0  0
   58.8120   32.2860   46.2390 C   0  0  0  0  0  0  0  0  0  0  0  0
   58.7090   31.0750   45.5380 C   0  0  0  0  0  0  0  0  0  0  0  0
   57.6640   30.8550   44.6980 N   0  0  0  0  0  0  0  0  0  0  0  0
   57.5390   29.6900   44.0040 C   0  0  0  0  0  0  0  0  0  0  0  0
   56.2340   29.5210   43.0100 S   0  0  0  0  0  0  0  0  0  0  0  0
   58.4820   28.6910   44.1420 N   0  0  0  0  0  0  0  0  0  0  0  0
   58.3740   27.4270   43.3760 C   0  0  0  0  0  0  0  0  0  0  0  0
   57.7600   26.3340   44.2180 C   0  0  0  0  0  0  0  0  0  0  0  0
   57.4650   26.5630   45.5740 C   0  0  0  0  0  0  0  0  0  0  0  0
   56.8930   25.5520   46.3510 C   0  0  0  0  0  0  0  0  0  0  0  0
   56.6040   24.3080   45.7830 C   0  0  0  0  0  0  0  0  0  0  0  0
   56.8850   24.0750   44.4340 C   0  0  0  0  0  0  0  0  0  0  0  0
   57.4580   25.0840   43.6520 C   0  0  0  0  0  0  0  0  0  0  0  0
   59.5520   28.8840   44.9860 C   0  0  0  0  0  0  0  0  0  0  0  0
   60.4270   27.9820   45.1230 O   0  0  0  0  0  0  0  0  0  0  0  0
   59.6870   30.0850   45.7040 C   0  0  0  0  0  0  0  0  0  0  0  0
   60.7700   30.3180   46.5720 C   0  0  0  0  0  0  0  0  0  0  0  0
   60.8780   31.5350   47.2720 C   0  0  0  0  0  0  0  0  0  0  0  0
   61.9440   31.8080   48.1490 O   0  0  0  0  0  0  0  0  0  0  0  0
   63.2770   32.1460   47.7650 C   0  0  0  0  0  0  0  0  0  0  0  0
   63.3020   33.4620   46.9940 C   0  0  0  0  0  0  0  0  0  0  0  0
   60.2341   36.2484   45.9879 H   0  0  0  0  0  0  0  0  0  0  0  0
   60.1836   34.5066   45.5516 H   0  0  0  0  0  0  0  0  0  0  0  0
   58.6718   35.4767   45.5516 H   0  0  0  0  0  0  0  0  0  0  0  0
   59.8348   35.7535   48.1504 H   0  0  0  0  0  0  0  0  0  0  0  0
   58.3279   34.8729   47.6883 H   0  0  0  0  0  0  0  0  0  0  0  0
   58.0419   33.0601   46.1059 H   0  0  0  0  0  0  0  0  0  0  0  0
   56.9380   31.5990   44.5790 H   0  0  0  0  0  0  0  0  0  0  0  0
   57.7436   27.5959   42.4905 H   0  0  0  0  0  0  0  0  0  0  0  0
   59.3843   27.1120   43.0758 H   0  0  0  0  0  0  0  0  0  0  0  0
   57.6854   27.5419   46.0248 H   0  0  0  0  0  0  0  0  0  0  0  0
   56.6696   25.7357   47.4123 H   0  0  0  0  0  0  0  0  0  0  0  0
   56.1558   23.5131   46.3972 H   0  0  0  0  0  0  0  0  0  0  0  0
   56.6554   23.0969   43.9862 H   0  0  0  0  0  0  0  0  0  0  0  0
   57.6730   24.8977   42.5894 H   0  0  0  0  0  0  0  0  0  0  0  0
   61.5389   29.5426   46.7048 H   0  0  0  0  0  0  0  0  0  0  0  0
   63.8980   32.2450   48.6675 H   0  0  0  0  0  0  0  0  0  0  0  0
   63.6692   31.3496   47.1155 H   0  0  0  0  0  0  0  0  0  0  0  0
   63.3180   34.3024   47.7035 H   0  0  0  0  0  0  0  0  0  0  0  0
   64.2010   33.4992   46.3612 H   0  0  0  0  0  0  0  0  0  0  0  0
   62.4050   33.5333   46.3612 H   0  0  0  0  0  0  0  0  0  0  0  0
  1  2  1  0
  2  3  1  0
  3  4  1  0
  4  5  2  0
  5  6  1  0
  6  7  1  0
  7  8  1  0
  8  9  2  0
  8 10  1  0
 10 11  1  0
 11 12  1  0
 12 13  2  0
 13 14  1  0
 14 15  2  0
 15 16  1  0
 16 17  2  0
 10 18  1  0
 18 19  2  0
 18 20  1  0
 20 21  1  0
 21 22  2  0
 22 23  1  0
 23 24  1  0
 24 25  1  0
 22  4  1  0
 20  6  2  0
 17 12  1  0
  1 26  1  0
  1 27  1  0
  1 28  1  0
  2 29  1  0
  2 30  1  0
  5 31  1  0
  7 32  1  0
 11 33  1  0
 11 34  1  0
 13 35  1  0
 14 36  1  0
 15 37  1  0
 16 38  1  0
 17 39  1  0
 21 40  1  0
 24 41  1  0
 24 42  1  0
 25 43  1  0
 25 44  1  0
 25 45  1  0
M  END
>  <UniqueID>  (37) 
33

>  <SMILES>  (37) 
CCOc1cc2[nH]c(=S)n(Cc3ccccc3)c(=O)c2cc1OCC

>  <Energy>  (37) 
54.1910632800911

>  <Genealogy>  (37) 
CCOc1cc2[nH]c(=S)n(Cc3ccccc3)c(=O)c2cc1OCC (3D coordinates assigned)
CCOc1cc2[nH]c(=S)n(Cc3ccccc3)c(=O)c2cc1OCC (optimized conformer: 54.1910632800911 kcal/mol)

>  <smiles>  (37) 
CCOc1cc2[nH]c(=S)n(Cc3ccccc3)c(=O)c2cc1OCC

>  <score_type>  (37) 
oracle

>  <origin>  (37) 
adg

>  <m_score__min__energy>  (37) 
-6.4800000000000004

>  <m_primary>  (37) 
energy

$$$$
37:0
     RDKit          3D

 49 52  0  0  0  0  0  0  0  0999 V2000
   56.6210   22.1620   43.3720 C   0  0  0  0  0  0  0  0  0  0  0  0
   55.9200   22.5590   44.6670 C   0  0  0  0  0  0  0  0  0  0  0  0
   56.1700   24.0080   44.9850 C   0  0  0  0  0  0  0  0  0  0  0  0
   57.3830   24.6210   44.6500 C   0  0  0  0  0  0  0  0  0  0  0  0
   57.5990   25.9210   44.9760 N   0  0  0  0  0  0  0  0  0  0  0  0
   56.6550   26.6490   45.6340 C   0  0  0  0  0  0  0  0  0  0  0  0
   56.8650   27.8910   45.9410 N   0  0  0  0  0  0  0  0  0  0  0  0
   56.6850   29.2060   44.8240 S   0  0  0  0  0  0  0  0  0  0  0  0
   55.2620   29.6920   44.8320 O   0  0  0  0  0  0  0  0  0  0  0  0
   57.0420   28.7490   43.4360 O   0  0  0  0  0  0  0  0  0  0  0  0
   57.7560   30.5160   45.3080 C   0  0  0  0  0  0  0  0  0  0  0  0
   58.8630   30.2560   46.1210 C   0  0  0  0  0  0  0  0  0  0  0  0
   59.7090   31.2930   46.5200 C   0  0  0  0  0  0  0  0  0  0  0  0
   59.4530   32.6230   46.1230 C   0  0  0  0  0  0  0  0  0  0  0  0
   60.2900   33.7010   46.5150 C   0  0  0  0  0  0  0  0  0  0  0  0
   61.4430   33.5230   47.4260 C   0  0  0  0  0  0  0  0  0  0  0  0
   61.2630   33.5910   48.8150 C   0  0  0  0  0  0  0  0  0  0  0  0
   62.3450   33.4020   49.6780 C   0  0  0  0  0  0  0  0  0  0  0  0
   63.6300   33.1490   49.1650 C   0  0  0  0  0  0  0  0  0  0  0  0
   64.7880   32.8960   50.0970 C   0  0  0  0  0  0  0  0  0  0  0  0
   64.7670   33.7880   51.1550 F   0  0  0  0  0  0  0  0  0  0  0  0
   64.7300   31.6130   50.6120 F   0  0  0  0  0  0  0  0  0  0  0  0
   65.9730   33.0490   49.4010 F   0  0  0  0  0  0  0  0  0  0  0  0
   63.7990   33.0410   47.7730 C   0  0  0  0  0  0  0  0  0  0  0  0
   62.7150   33.2310   46.9110 C   0  0  0  0  0  0  0  0  0  0  0  0
   60.0150   34.9930   46.0410 C   0  0  0  0  0  0  0  0  0  0  0  0
   58.9170   35.2320   45.2150 C   0  0  0  0  0  0  0  0  0  0  0  0
   58.0750   34.1850   44.8450 C   0  0  0  0  0  0  0  0  0  0  0  0
   58.3340   32.8800   45.2870 C   0  0  0  0  0  0  0  0  0  0  0  0
   57.4920   31.8270   44.8960 C   0  0  0  0  0  0  0  0  0  0  0  0
   55.4760   26.0680   45.9790 N   0  0  0  0  0  0  0  0  0  0  0  0
   55.2180   24.7700   45.6730 C   0  0  0  0  0  0  0  0  0  0  0  0
   57.5558   21.6326   43.6085 H   0  0  0  0  0  0  0  0  0  0  0  0
   55.9638   21.5020   42.7868 H   0  0  0  0  0  0  0  0  0  0  0  0
   56.8490   23.0650   42.7868 H   0  0  0  0  0  0  0  0  0  0  0  0
   54.8379   22.3951   44.5566 H   0  0  0  0  0  0  0  0  0  0  0  0
   56.3178   21.9434   45.4873 H   0  0  0  0  0  0  0  0  0  0  0  0
   58.1610   24.0495   44.1227 H   0  0  0  0  0  0  0  0  0  0  0  0
   59.0694   29.2265   46.4490 H   0  0  0  0  0  0  0  0  0  0  0  0
   60.5832   31.0711   47.1497 H   0  0  0  0  0  0  0  0  0  0  0  0
   60.2638   33.7944   49.2275 H   0  0  0  0  0  0  0  0  0  0  0  0
   62.1911   33.4514   50.7661 H   0  0  0  0  0  0  0  0  0  0  0  0
   64.7908   32.8054   47.3598 H   0  0  0  0  0  0  0  0  0  0  0  0
   62.8600   33.1512   45.8235 H   0  0  0  0  0  0  0  0  0  0  0  0
   60.6735   35.8273   46.3244 H   0  0  0  0  0  0  0  0  0  0  0  0
   58.7147   36.2512   44.8540 H   0  0  0  0  0  0  0  0  0  0  0  0
   57.2037   34.3833   44.2036 H   0  0  0  0  0  0  0  0  0  0  0  0
   56.6180   32.0340   44.2609 H   0  0  0  0  0  0  0  0  0  0  0  0
   54.2596   24.3168   45.9662 H   0  0  0  0  0  0  0  0  0  0  0  0
  1  2  1  0
  2  3  1  0
  3  4  1  0
  4  5  2  0
  5  6  1  0
  6  7  2  3
  7  8  1  0
  8  9  2  0
  8 10  2  0
  8 11  1  0
 11 12  2  0
 12 13  1  0
 13 14  2  0
 14 15  1  0
 15 16  1  0
 16 17  2  0
 17 18  1  0
 18 19  2  0
 19 20  1  0
 20 21  1  0
 20 22  1  0
 20 23  1  0
 19 24  1  0
 24 25  2  0
 15 26  2  0
 26 27  1  0
 27 28  2  0
 28 29  1  0
 29 30  2  0
  6 31  1  0
 31 32  1  0
 32  3  2  0
 30 11  1  0
 29 14  1  0
 25 16  1  0
  1 33  1  0
  1 34  1  0
  1 35  1  0
  2 36  1  0
  2 37  1  0
  4 38  1  0
 12 39  1  0
 13 40  1  0
 17 41  1  0
 18 42  1  0
 24 43  1  0
 25 44  1  0
 26 45  1  0
 27 46  1  0
 28 47  1  0
 30 48  1  0
 32 49  1  0
M  CHG  1  31  -1
M  END
>  <UniqueID>  (38) 
34

>  <SMILES>  (38) 
CCc1cnc(=NS(=O)(=O)c2ccc3c(-c4ccc(C(F)(F)F)cc4)cccc3c2)[n-]c1

>  <Energy>  (38) 
67.43463692828895

>  <Genealogy>  (38) 
CCc1cnc(=NS(=O)(=O)c2ccc3c(-c4ccc(C(F)(F)F)cc4)cccc3c2)[n-]c1 (protonated)
CCc1cnc(=NS(=O)(=O)c2ccc3c(-c4ccc(C(F)(F)F)cc4)cccc3c2)[n-]c1 (3D coordinates assigned)
CCc1cnc(=NS(=O)(=O)c2ccc3c(-c4ccc(C(F)(F)F)cc4)cccc3c2)[n-]c1 (optimized conformer: 67.43463692828895 kcal/mol)

>  <smiles>  (38) 
CCc1cnc(=NS(=O)(=O)c2ccc3c(-c4ccc(C(F)(F)F)cc4)cccc3c2)[nH]c1

>  <score_type>  (38) 
oracle

>  <origin>  (38) 
adg

>  <m_score__min__energy>  (38) 
-12.23

>  <m_primary>  (38) 
energy

$$$$
38:0
     RDKit          3D

 22 23  0  0  0  0  0  0  0  0999 V2000
   55.5080   24.0260   46.9010 C   0  0  0  0  0  0  0  0  0  0  0  0
   56.4170   25.1250   46.4610 C   0  0  0  0  0  0  0  0  0  0  0  0
   55.9010   26.3080   46.0490 N   0  0  0  0  0  0  0  0  0  0  0  0
   56.7030   27.3390   45.6770 C   0  0  0  0  0  0  0  0  0  0  0  0
   56.1390   28.5060   45.2620 N   0  0  0  0  0  0  0  0  0  0  0  0
   56.8940   29.5670   44.8770 C   0  0  0  0  0  0  0  0  0  0  0  0
   56.3370   30.6330   44.4990 O   0  0  0  0  0  0  0  0  0  0  0  0
   58.2850   29.4820   44.9010 C   0  0  0  0  0  0  0  0  0  0  0  0
   58.9160   28.3020   45.3220 C   0  0  0  0  0  0  0  0  0  0  0  0
   60.4250   28.2660   45.3270 C   0  0  0  0  0  0  0  0  0  0  0  0
   58.1120   27.1970   45.7220 C   0  0  0  0  0  0  0  0  0  0  0  0
   58.6190   25.9520   46.1730 C   0  0  0  0  0  0  0  0  0  0  0  0
   59.8550   25.7310   46.2570 O   0  0  0  0  0  0  0  0  0  0  0  0
   57.7610   24.9620   46.5310 N   0  0  0  0  0  0  0  0  0  0  0  0
   55.4796   23.9916   48.0001 H   0  0  0  0  0  0  0  0  0  0  0  0
   54.4952   24.2107   46.5136 H   0  0  0  0  0  0  0  0  0  0  0  0
   55.8793   23.0658   46.5136 H   0  0  0  0  0  0  0  0  0  0  0  0
   55.0960   28.5880   45.2370 H   0  0  0  0  0  0  0  0  0  0  0  0
   58.8913   30.3449   44.5881 H   0  0  0  0  0  0  0  0  0  0  0  0
   60.7881   28.2573   46.3653 H   0  0  0  0  0  0  0  0  0  0  0  0
   60.7719   27.3593   44.8097 H   0  0  0  0  0  0  0  0  0  0  0  0
   60.8147   29.1551   44.8097 H   0  0  0  0  0  0  0  0  0  0  0  0
  1  2  1  0
  2  3  2  0
  3  4  1  0
  4  5  1  0
  5  6  1  0
  6  7  2  0
  6  8  1  0
  8  9  2  0
  9 10  1  0
  9 11  1  0
 11 12  1  0
 12 13  2  0
 12 14  1  0
 14  2  1  0
 11  4  2  0
  1 15  1  0
  1 16  1  0
  1 17  1  0
  5 18  1  0
  8 19  1  0
 10 20  1  0
 10 21  1  0
 10 22  1  0
M  CHG  1  14  -1
M  END
>  <UniqueID>  (39) 
35

>  <SMILES>  (39) 
Cc1nc2[nH]c(=O)cc(C)c2c(=O)[n-]1

>  <Energy>  (39) 
29.75607478428486

>  <Genealogy>  (39) 
Cc1nc2[nH]c(=O)cc(C)c2c(=O)[n-]1 (protonated)
Cc1nc2[nH]c(=O)cc(C)c2c(=O)[n-]1 (3D coordinates assigned)
Cc1nc2[nH]c(=O)cc(C)c2c(=O)[n-]1 (optimized conformer: 29.75607478428486 kcal/mol)

>  <smiles>  (39) 
Cc1nc2[nH]c(=O)cc(C)c2c(=O)[nH]1

>  <score_type>  (39) 
oracle

>  <origin>  (39) 
adg

>  <m_score__min__energy>  (39) 
-7.5700000000000003

>  <m_primary>  (39) 
energy

$$$$
39:0
     RDKit          3D

 43 45  0  0  0  0  0  0  0  0999 V2000
   58.7900   23.9600   45.6470 C   0  0  0  0  0  0  0  0  0  0  0  0
   58.5440   25.0480   46.5320 O   0  0  0  0  0  0  0  0  0  0  0  0
   58.2880   26.3650   46.1200 C   0  0  0  0  0  0  0  0  0  0  0  0
   59.3250   27.2580   45.7900 C   0  0  0  0  0  0  0  0  0  0  0  0
   59.0300   28.5600   45.3800 C   0  0  0  0  0  0  0  0  0  0  0  0
   57.7030   28.9900   45.2970 C   0  0  0  0  0  0  0  0  0  0  0  0
   57.3540   30.6270   44.7460 S   0  0  0  0  0  0  0  0  0  0  0  0
   55.8910   30.7260   44.4190 O   0  0  0  0  0  0  0  0  0  0  0  0
   58.1490   30.9650   43.5150 O   0  0  0  0  0  0  0  0  0  0  0  0
   57.7360   31.7580   46.0030 N   0  0  0  0  0  0  0  0  0  0  0  0
   59.0090   31.8720   46.6540 C   0  0  0  0  0  0  0  0  0  0  0  0
   59.2800   31.0370   47.7400 C   0  0  0  0  0  0  0  0  0  0  0  0
   60.5080   31.1010   48.4010 C   0  0  0  0  0  0  0  0  0  0  0  0
   61.5080   32.0130   47.9900 C   0  0  0  0  0  0  0  0  0  0  0  0
   61.2220   32.8630   46.8910 C   0  0  0  0  0  0  0  0  0  0  0  0
   62.1850   33.7760   46.4610 C   0  0  0  0  0  0  0  0  0  0  0  0
   63.4090   33.8470   47.1090 C   0  0  0  0  0  0  0  0  0  0  0  0
   63.6760   33.0040   48.1900 C   0  0  0  0  0  0  0  0  0  0  0  0
   64.7990   33.0990   48.7560 O   0  0  0  0  0  0  0  0  0  0  0  0
   62.7350   32.0960   48.6240 N   0  0  0  0  0  0  0  0  0  0  0  0
   63.0460   31.2160   49.7690 C   0  0  0  0  0  0  0  0  0  0  0  0
   59.9830   32.7920   46.2360 C   0  0  0  0  0  0  0  0  0  0  0  0
   56.6670   28.1090   45.6290 C   0  0  0  0  0  0  0  0  0  0  0  0
   56.9520   26.7910   46.0380 C   0  0  0  0  0  0  0  0  0  0  0  0
   55.9400   25.8770   46.3690 O   0  0  0  0  0  0  0  0  0  0  0  0
   55.5130   24.8080   45.5320 C   0  0  0  0  0  0  0  0  0  0  0  0
   58.9955   23.0511   46.2316 H   0  0  0  0  0  0  0  0  0  0  0  0
   57.9062   23.7961   45.0129 H   0  0  0  0  0  0  0  0  0  0  0  0
   59.6583   24.1923   45.0129 H   0  0  0  0  0  0  0  0  0  0  0  0
   60.3725   26.9287   45.8554 H   0  0  0  0  0  0  0  0  0  0  0  0
   59.8462   29.2504   45.1211 H   0  0  0  0  0  0  0  0  0  0  0  0
   58.5171   30.3205   48.0786 H   0  0  0  0  0  0  0  0  0  0  0  0
   60.7006   30.4329   49.2533 H   0  0  0  0  0  0  0  0  0  0  0  0
   61.9738   34.4388   45.6089 H   0  0  0  0  0  0  0  0  0  0  0  0
   64.1692   34.5669   46.7717 H   0  0  0  0  0  0  0  0  0  0  0  0
   62.8553   31.7555   50.7085 H   0  0  0  0  0  0  0  0  0  0  0  0
   62.4103   30.3193   49.7256 H   0  0  0  0  0  0  0  0  0  0  0  0
   64.1039   30.9179   49.7256 H   0  0  0  0  0  0  0  0  0  0  0  0
   59.7737   33.4620   45.3891 H   0  0  0  0  0  0  0  0  0  0  0  0
   55.6223   28.4483   45.5701 H   0  0  0  0  0  0  0  0  0  0  0  0
   55.1768   23.9662   46.1552 H   0  0  0  0  0  0  0  0  0  0  0  0
   54.6820   25.1489   44.8970 H   0  0  0  0  0  0  0  0  0  0  0  0
   56.3502   24.4826   44.8970 H   0  0  0  0  0  0  0  0  0  0  0  0
  1  2  1  0
  2  3  1  0
  3  4  2  0
  4  5  1  0
  5  6  2  0
  6  7  1  0
  7  8  2  0
  7  9  2  0
  7 10  1  0
 10 11  1  0
 11 12  2  0
 12 13  1  0
 13 14  2  0
 14 15  1  0
 15 16  1  0
 16 17  2  0
 17 18  1  0
 18 19  2  0
 18 20  1  0
 20 21  1  0
 15 22  2  0
  6 23  1  0
 23 24  2  0
 24 25  1  0
 25 26  1  0
 24  3  1  0
 22 11  1  0
 20 14  1  0
  1 27  1  0
  1 28  1  0
  1 29  1  0
  4 30  1  0
  5 31  1  0
 12 32  1  0
 13 33  1  0
 16 34  1  0
 17 35  1  0
 21 36  1  0
 21 37  1  0
 21 38  1  0
 22 39  1  0
 23 40  1  0
 26 41  1  0
 26 42  1  0
 26 43  1  0
M  CHG  1  10  -1
M  END
>  <UniqueID>  (40) 
36

>  <SMILES>  (40) 
COc1ccc(S(=O)(=O)[N-]c2ccc3c(ccc(=O)n3C)c2)cc1OC

>  <Energy>  (40) 
56.7560687135985

>  <Genealogy>  (40) 
COc1ccc(S(=O)(=O)[N-]c2ccc3c(ccc(=O)n3C)c2)cc1OC (protonated)
COc1ccc(S(=O)(=O)[N-]c2ccc3c(ccc(=O)n3C)c2)cc1OC (3D coordinates assigned)
COc1ccc(S(=O)(=O)[N-]c2ccc3c(ccc(=O)n3C)c2)cc1OC (optimized conformer: 56.7560687135985 kcal/mol)

>  <smiles>  (40) 
COc1ccc(S(=O)(=O)Nc2ccc3c(ccc(=O)n3C)c2)cc1OC

>  <score_type>  (40) 
oracle

>  <origin>  (40) 
adg

>  <m_score__min__energy>  (40) 
-8.7799999999999994

>  <m_primary>  (40) 
energy

$$$$
40:0
     RDKit          3D

 48 50  0  0  0  0  0  0  0  0999 V2000
   60.7700   26.7210   47.3650 C   0  0  0  0  0  0  0  0  0  0  0  0
   59.7520   27.5400   46.6300 C   0  0  0  0  0  0  0  0  0  0  0  0
   59.1210   28.6200   47.2670 C   0  0  0  0  0  0  0  0  0  0  0  0
   58.1430   29.3610   46.5970 C   0  0  0  0  0  0  0  0  0  0  0  0
   57.7750   29.0220   45.2880 C   0  0  0  0  0  0  0  0  0  0  0  0
   56.5040   29.9360   44.4730 S   0  0  0  0  0  0  0  0  0  0  0  0
   55.1560   29.4000   44.8700 O   0  0  0  0  0  0  0  0  0  0  0  0
   56.6660   29.7590   42.9900 O   0  0  0  0  0  0  0  0  0  0  0  0
   56.5770   31.6370   44.8500 N   0  0  0  0  0  0  0  0  0  0  0  0
   57.8910   32.2070   44.5430 C   0  0  0  0  0  0  0  0  0  0  0  0
   58.3040   33.2250   45.5740 C   0  0  0  0  0  0  0  0  0  0  0  0
   57.8040   34.3810   45.5180 O   0  0  0  0  0  0  0  0  0  0  0  0
   59.2500   32.9080   46.6140 N   0  0  0  0  0  0  0  0  0  0  0  0
   59.1340   33.6060   47.9040 C   0  0  0  0  0  0  0  0  0  0  0  0
   59.9670   32.9220   48.9870 C   0  0  0  0  0  0  0  0  0  0  0  0
   61.3340   32.7130   48.4980 N   0  0  0  0  0  0  0  0  0  0  0  0
   62.4610   33.0680   49.3190 C   0  0  0  0  0  0  0  0  0  0  0  0
   63.7560   32.6440   48.9770 C   0  0  0  0  0  0  0  0  0  0  0  0
   64.8500   33.0060   49.7690 C   0  0  0  0  0  0  0  0  0  0  0  0
   64.6600   33.7930   50.9080 C   0  0  0  0  0  0  0  0  0  0  0  0
   63.3770   34.2210   51.2550 C   0  0  0  0  0  0  0  0  0  0  0  0
   62.2790   33.8630   50.4640 C   0  0  0  0  0  0  0  0  0  0  0  0
   61.5610   32.1750   47.1500 C   0  0  0  0  0  0  0  0  0  0  0  0
   60.2450   31.8360   46.4330 C   0  0  0  0  0  0  0  0  0  0  0  0
   58.3940   27.9360   44.6540 C   0  0  0  0  0  0  0  0  0  0  0  0
   59.3710   27.1930   45.3240 C   0  0  0  0  0  0  0  0  0  0  0  0
   60.6228   26.8394   48.4487 H   0  0  0  0  0  0  0  0  0  0  0  0
   60.6541   25.6615   47.0928 H   0  0  0  0  0  0  0  0  0  0  0  0
   61.7801   27.0611   47.0928 H   0  0  0  0  0  0  0  0  0  0  0  0
   59.3974   28.8846   48.2983 H   0  0  0  0  0  0  0  0  0  0  0  0
   57.6608   30.2128   47.0989 H   0  0  0  0  0  0  0  0  0  0  0  0
   58.6357   31.3977   44.5210 H   0  0  0  0  0  0  0  0  0  0  0  0
   57.8305   32.7091   43.5661 H   0  0  0  0  0  0  0  0  0  0  0  0
   59.4854   34.6413   47.7832 H   0  0  0  0  0  0  0  0  0  0  0  0
   58.0790   33.5846   48.2147 H   0  0  0  0  0  0  0  0  0  0  0  0
   59.9925   33.5570   49.8849 H   0  0  0  0  0  0  0  0  0  0  0  0
   59.5155   31.9503   49.2358 H   0  0  0  0  0  0  0  0  0  0  0  0
   63.9101   32.0240   48.0815 H   0  0  0  0  0  0  0  0  0  0  0  0
   65.8613   32.6709   49.4952 H   0  0  0  0  0  0  0  0  0  0  0  0
   65.5213   34.0754   51.5313 H   0  0  0  0  0  0  0  0  0  0  0  0
   63.2288   34.8407   52.1517 H   0  0  0  0  0  0  0  0  0  0  0  0
   61.2704   34.2049   50.7393 H   0  0  0  0  0  0  0  0  0  0  0  0
   62.1055   32.9241   46.5563 H   0  0  0  0  0  0  0  0  0  0  0  0
   62.1411   31.2458   47.2498 H   0  0  0  0  0  0  0  0  0  0  0  0
   60.4439   31.7083   45.3587 H   0  0  0  0  0  0  0  0  0  0  0  0
   59.8412   30.9084   46.8647 H   0  0  0  0  0  0  0  0  0  0  0  0
   58.1103   27.6672   43.6258 H   0  0  0  0  0  0  0  0  0  0  0  0
   59.8429   26.3333   44.8258 H   0  0  0  0  0  0  0  0  0  0  0  0
  1  2  1  0
  2  3  2  0
  3  4  1  0
  4  5  2  0
  5  6  1  0
  6  7  2  0
  6  8  2  0
  6  9  1  0
  9 10  1  0
 10 11  1  0
 11 12  2  0
 11 13  1  0
 13 14  1  0
 14 15  1  0
 15 16  1  0
 16 17  1  0
 17 18  2  0
 18 19  1  0
 19 20  2  0
 20 21  1  0
 21 22  2  0
 16 23  1  0
 23 24  1  0
  5 25  1  0
 25 26  2  0
 26  2  1  0
 24 13  1  0
 22 17  1  0
  1 27  1  0
  1 28  1  0
  1 29  1  0
  3 30  1  0
  4 31  1  0
 10 32  1  0
 10 33  1  0
 14 34  1  0
 14 35  1  0
 15 36  1  0
 15 37  1  0
 18 38  1  0
 19 39  1  0
 20 40  1  0
 21 41  1  0
 22 42  1  0
 23 43  1  0
 23 44  1  0
 24 45  1  0
 24 46  1  0
 25 47  1  0
 26 48  1  0
M  CHG  1   9  -1
M  END
>  <UniqueID>  (41) 
37

>  <SMILES>  (41) 
Cc1ccc(S(=O)(=O)[N-]CC(=O)N2CCN(c3ccccc3)CC2)cc1

>  <Energy>  (41) 
50.89403113836119

>  <Genealogy>  (41) 
Cc1ccc(S(=O)(=O)[N-]CC(=O)N2CCN(c3ccccc3)CC2)cc1 (protonated)
Cc1ccc(S(=O)(=O)[N-]CC(=O)N2CCN(c3ccccc3)CC2)cc1 (3D coordinates assigned)
Cc1ccc(S(=O)(=O)[N-]CC(=O)N2CCN(c3ccccc3)CC2)cc1 (nonaromatic ring conformer: 50.89403113836119 kcal/mol)

>  <smiles>  (41) 
Cc1ccc(S(=O)(=O)NCC(=O)N2CCN(c3ccccc3)CC2)cc1

>  <score_type>  (41) 
oracle

>  <origin>  (41) 
adg

>  <m_score__min__energy>  (41) 
-10.26

>  <m_primary>  (41) 
energy

$$$$
41:0
     RDKit          3D

 56 59  0  0  0  0  0  0  0  0999 V2000
   62.3620   27.6860   53.1180 C   0  0  0  0  0  0  0  0  0  0  0  0
   60.9490   27.8490   53.1680 O   0  0  0  0  0  0  0  0  0  0  0  0
   60.2010   28.5910   52.2420 C   0  0  0  0  0  0  0  0  0  0  0  0
   58.8660   28.9700   52.4780 C   0  0  0  0  0  0  0  0  0  0  0  0
   58.1530   29.7060   51.5130 C   0  0  0  0  0  0  0  0  0  0  0  0
   56.8200   30.0990   51.7000 O   0  0  0  0  0  0  0  0  0  0  0  0
   56.1820   30.2070   52.9680 C   0  0  0  0  0  0  0  0  0  0  0  0
   58.7870   30.0660   50.3200 C   0  0  0  0  0  0  0  0  0  0  0  0
   60.1230   29.7140   50.0820 C   0  0  0  0  0  0  0  0  0  0  0  0
   60.7520   30.0890   48.8440 N   0  0  0  0  0  0  0  0  0  0  0  0
   61.7910   30.9100   48.7940 N   0  0  0  0  0  0  0  0  0  0  0  0
   62.0810   31.1180   47.4980 C   0  0  0  0  0  0  0  0  0  0  0  0
   63.1370   31.9360   47.0790 O   0  0  0  0  0  0  0  0  0  0  0  0
   63.4210   33.2220   47.6340 C   0  0  2  0  0  0  0  0  0  0  0  0
   64.4800   33.0660   48.7430 C   0  0  0  0  0  0  0  0  0  0  0  0
   63.8260   32.7420   50.0900 C   0  0  0  0  0  0  0  0  0  0  0  0
   62.8010   33.8230   50.4960 C   0  0  0  0  0  0  0  0  0  0  0  0
   62.3950   34.6750   49.3650 N   0  0  0  0  0  0  0  0  0  0  0  0
   62.1210   33.8680   48.1700 C   0  0  0  0  0  0  0  0  0  0  0  0
   61.2070   30.4130   46.6900 C   0  0  0  0  0  0  0  0  0  0  0  0
   60.3780   29.7600   47.5830 C   0  0  0  0  0  0  0  0  0  0  0  0
   59.3320   28.7850   47.2030 C   0  0  0  0  0  0  0  0  0  0  0  0
   58.2850   29.1740   46.3550 C   0  0  0  0  0  0  0  0  0  0  0  0
   57.2950   28.2590   45.9850 C   0  0  0  0  0  0  0  0  0  0  0  0
   57.3400   26.9320   46.4480 C   0  0  0  0  0  0  0  0  0  0  0  0
   56.2910   25.9600   46.0590 C   0  0  0  0  0  0  0  0  0  0  0  0
   54.9210   26.3530   46.0080 N   0  0  0  0  0  0  0  0  0  0  0  0
   56.6000   24.7720   45.7720 O   0  0  0  0  0  0  0  0  0  0  0  0
   58.4030   26.5400   47.2820 C   0  0  0  0  0  0  0  0  0  0  0  0
   59.3920   27.4560   47.6490 C   0  0  0  0  0  0  0  0  0  0  0  0
   60.8160   28.9600   51.0400 C   0  0  0  0  0  0  0  0  0  0  0  0
   62.7622   27.6398   54.1416 H   0  0  0  0  0  0  0  0  0  0  0  0
   62.6050   26.7539   52.5869 H   0  0  0  0  0  0  0  0  0  0  0  0
   62.8109   28.5383   52.5869 H   0  0  0  0  0  0  0  0  0  0  0  0
   58.3769   28.6892   53.4225 H   0  0  0  0  0  0  0  0  0  0  0  0
   56.9285   30.0806   53.7660 H   0  0  0  0  0  0  0  0  0  0  0  0
   55.7122   31.1975   53.0589 H   0  0  0  0  0  0  0  0  0  0  0  0
   55.4124   29.4264   53.0589 H   0  0  0  0  0  0  0  0  0  0  0  0
   58.2306   30.6325   49.5587 H   0  0  0  0  0  0  0  0  0  0  0  0
   63.8237   33.8901   46.8584 H   0  0  0  0  0  0  0  0  0  0  0  0
   65.1665   32.2504   48.4718 H   0  0  0  0  0  0  0  0  0  0  0  0
   65.0263   34.0158   48.8399 H   0  0  0  0  0  0  0  0  0  0  0  0
   63.3118   31.7726   50.0137 H   0  0  0  0  0  0  0  0  0  0  0  0
   64.6139   32.7081   50.8569 H   0  0  0  0  0  0  0  0  0  0  0  0
   61.9071   33.3260   50.9008 H   0  0  0  0  0  0  0  0  0  0  0  0
   63.2804   34.4709   51.2446 H   0  0  0  0  0  0  0  0  0  0  0  0
   61.5110   35.1680   49.6330 H   0  0  0  0  0  0  0  0  0  0  0  0
   61.4034   33.0749   48.4270 H   0  0  0  0  0  0  0  0  0  0  0  0
   61.7047   34.5225   47.3901 H   0  0  0  0  0  0  0  0  0  0  0  0
   61.1783   30.3797   45.5909 H   0  0  0  0  0  0  0  0  0  0  0  0
   58.2424   30.2066   45.9783 H   0  0  0  0  0  0  0  0  0  0  0  0
   56.4743   28.5796   45.3265 H   0  0  0  0  0  0  0  0  0  0  0  0
   54.5390   27.0580   46.6780 H   0  0  0  0  0  0  0  0  0  0  0  0
   58.4559   25.5040   47.6481 H   0  0  0  0  0  0  0  0  0  0  0  0
   60.2238   27.1330   48.2923 H   0  0  0  0  0  0  0  0  0  0  0  0
   61.8547   28.6551   50.8446 H   0  0  0  0  0  0  0  0  0  0  0  0
  1  2  1  0
  2  3  1  0
  3  4  2  0
  4  5  1  0
  5  6  1  0
  6  7  1  0
  5  8  2  0
  8  9  1  0
  9 10  1  0
 10 11  1  0
 11 12  2  0
 12 13  1  0
 13 14  1  0
 14 15  1  0
 15 16  1  0
 16 17  1  0
 17 18  1  0
 18 19  1  0
 12 20  1  0
 20 21  2  0
 21 22  1  0
 22 23  2  0
 23 24  1  0
 24 25  2  0
 25 26  1  0
 26 27  1  0
 26 28  2  0
 25 29  1  0
 29 30  2  0
  9 31  2  0
 31  3  1  0
 21 10  1  0
 30 22  1  0
 19 14  1  0
  1 32  1  0
  1 33  1  0
  1 34  1  0
  4 35  1  0
  7 36  1  0
  7 37  1  0
  7 38  1  0
  8 39  1  0
 14 40  1  6
 15 41  1  0
 15 42  1  0
 16 43  1  0
 16 44  1  0
 17 45  1  0
 17 46  1  0
 18 47  1  0
 19 48  1  0
 19 49  1  0
 20 50  1  0
 23 51  1  0
 24 52  1  0
 27 53  1  0
 29 54  1  0
 30 55  1  0
 31 56  1  0
M  CHG  1  27  -1
M  END
>  <UniqueID>  (42) 
38

>  <SMILES>  (42) 
COc1cc(OC)cc(-n2nc(O[C@@H]3CCCNC3)cc2-c2ccc(C([NH-])=O)cc2)c1

>  <Energy>  (42) 
99.78069973335569

>  <Genealogy>  (42) 
COc1cc(OC)cc(-n2nc(OC3CCCNC3)cc2-c2ccc(C([NH-])=O)cc2)c1 (protonated)
COc1cc(OC)cc(-n2nc(O[C@@H]3CCCNC3)cc2-c2ccc(C([NH-])=O)cc2)c1 (chirality)
COc1cc(OC)cc(-n2nc(O[C@@H]3CCCNC3)cc2-c2ccc(C([NH-])=O)cc2)c1 (3D coordinates assigned)
COc1cc(OC)cc(-n2nc(O[C@@H]3CCCNC3)cc2-c2ccc(C([NH-])=O)cc2)c1 (nonaromatic ring conformer: 99.78069973335569 kcal/mol)

>  <smiles>  (42) 
COc1cc(OC)cc(-n2nc(OC3CCCNC3)cc2-c2ccc(C(N)=O)cc2)c1

>  <score_type>  (42) 
oracle

>  <origin>  (42) 
adg

>  <m_score__min__energy>  (42) 
-10.26

>  <m_primary>  (42) 
energy

$$$$
42:0
     RDKit          3D

 55 58  0  0  0  0  0  0  0  0999 V2000
   55.2650   29.5310   44.9070 N   0  0  0  0  0  0  0  0  0  0  0  0
   56.8530   29.3820   44.2400 S   0  0  0  0  0  0  0  0  0  0  0  0
   57.2790   27.9420   44.3070 O   0  0  0  0  0  0  0  0  0  0  0  0
   56.8430   29.8290   42.8050 O   0  0  0  0  0  0  0  0  0  0  0  0
   57.9600   30.3930   45.1600 C   0  0  0  0  0  0  0  0  0  0  0  0
   57.6040   31.7150   45.4600 C   0  0  0  0  0  0  0  0  0  0  0  0
   58.4400   32.5080   46.2530 C   0  0  0  0  0  0  0  0  0  0  0  0
   59.6280   31.9720   46.7820 C   0  0  0  0  0  0  0  0  0  0  0  0
   60.0390   30.6960   46.3720 C   0  0  0  0  0  0  0  0  0  0  0  0
   59.1970   29.8950   45.5950 C   0  0  0  0  0  0  0  0  0  0  0  0
   61.2970   30.2340   46.7520 O   0  0  0  0  0  0  0  0  0  0  0  0
   62.3000   31.1570   47.1650 C   0  0  0  0  0  0  0  0  0  0  0  0
   61.7310   32.1470   48.1870 C   0  0  0  0  0  0  0  0  0  0  0  0
   60.4090   32.6660   47.7880 N   0  0  0  0  0  0  0  0  0  0  0  0
   59.8250   33.6710   48.6440 C   0  0  0  0  0  0  0  0  0  0  0  0
   59.2410   34.6580   48.1250 O   0  0  0  0  0  0  0  0  0  0  0  0
   59.8940   33.5880   50.0790 N   0  0  0  0  0  0  0  0  0  0  0  0
   59.0520   32.7730   50.9080 C   0  0  0  0  0  0  0  0  0  0  0  0
   59.5070   32.2570   52.1300 C   0  0  0  0  0  0  0  0  0  0  0  0
   58.7450   31.3130   52.8240 C   0  0  0  0  0  0  0  0  0  0  0  0
   57.5070   30.8830   52.3120 C   0  0  0  0  0  0  0  0  0  0  0  0
   56.7600   29.7910   52.9760 C   0  0  0  0  0  0  0  0  0  0  0  0
   56.2870   28.8430   52.2930 O   0  0  0  0  0  0  0  0  0  0  0  0
   56.6030   29.7880   54.3990 N   0  0  0  0  0  0  0  0  0  0  0  0
   55.3120   29.8960   55.0670 C   0  0  0  0  0  0  0  0  0  0  0  0
   54.2480   29.1340   54.2760 C   0  0  0  0  0  0  0  0  0  0  0  0
   53.3120   30.0820   53.5780 C   0  0  0  0  0  0  0  0  0  0  0  0
   52.2160   30.6260   54.2680 C   0  0  0  0  0  0  0  0  0  0  0  0
   51.3400   31.5030   53.6200 C   0  0  0  0  0  0  0  0  0  0  0  0
   51.5570   31.8510   52.2820 C   0  0  0  0  0  0  0  0  0  0  0  0
   50.6790   32.7140   51.6370 O   0  0  0  0  0  0  0  0  0  0  0  0
   52.6550   31.3250   51.5930 C   0  0  0  0  0  0  0  0  0  0  0  0
   53.5340   30.4470   52.2390 C   0  0  0  0  0  0  0  0  0  0  0  0
   57.0190   31.4690   51.1290 C   0  0  0  0  0  0  0  0  0  0  0  0
   57.7820   32.4180   50.4420 C   0  0  0  0  0  0  0  0  0  0  0  0
   55.1600   28.7730   45.6180 H   0  0  0  0  0  0  0  0  0  0  0  0
   56.6631   32.1307   45.0702 H   0  0  0  0  0  0  0  0  0  0  0  0
   58.1678   33.5528   46.4633 H   0  0  0  0  0  0  0  0  0  0  0  0
   59.5046   28.8741   45.3247 H   0  0  0  0  0  0  0  0  0  0  0  0
   63.1342   30.6045   47.6220 H   0  0  0  0  0  0  0  0  0  0  0  0
   62.6519   31.7166   46.2858 H   0  0  0  0  0  0  0  0  0  0  0  0
   61.6328   31.6370   49.1567 H   0  0  0  0  0  0  0  0  0  0  0  0
   62.4224   33.0002   48.2499 H   0  0  0  0  0  0  0  0  0  0  0  0
   60.4678   32.5967   52.5441 H   0  0  0  0  0  0  0  0  0  0  0  0
   59.1152   30.9040   53.7757 H   0  0  0  0  0  0  0  0  0  0  0  0
   55.3885   29.4702   56.0784 H   0  0  0  0  0  0  0  0  0  0  0  0
   55.0253   30.9562   55.1290 H   0  0  0  0  0  0  0  0  0  0  0  0
   54.7431   28.5000   53.5257 H   0  0  0  0  0  0  0  0  0  0  0  0
   53.6647   28.5187   54.9768 H   0  0  0  0  0  0  0  0  0  0  0  0
   52.0460   30.3613   55.3220 H   0  0  0  0  0  0  0  0  0  0  0  0
   50.4790   31.9199   54.1630 H   0  0  0  0  0  0  0  0  0  0  0  0
   52.8281   31.6014   50.5425 H   0  0  0  0  0  0  0  0  0  0  0  0
   54.4010   30.0417   51.6968 H   0  0  0  0  0  0  0  0  0  0  0  0
   56.0310   31.1785   50.7425 H   0  0  0  0  0  0  0  0  0  0  0  0
   57.3818   32.8874   49.5312 H   0  0  0  0  0  0  0  0  0  0  0  0
  1  2  1  0
  2  3  2  0
  2  4  2  0
  2  5  1  0
  5  6  2  0
  6  7  1  0
  7  8  2  0
  8  9  1  0
  9 10  2  0
  9 11  1  0
 11 12  1  0
 12 13  1  0
 13 14  1  0
 14 15  1  0
 15 16  2  0
 15 17  1  0
 17 18  1  0
 18 19  2  0
 19 20  1  0
 20 21  2  0
 21 22  1  0
 22 23  2  0
 22 24  1  0
 24 25  1  0
 25 26  1  0
 26 27  1  0
 27 28  2  0
 28 29  1  0
 29 30  2  0
 30 31  1  0
 30 32  1  0
 32 33  2  0
 21 34  1  0
 34 35  2  0
 10  5  1  0
 35 18  1  0
 14  8  1  0
 33 27  1  0
  1 36  1  0
  6 37  1  0
  7 38  1  0
 10 39  1  0
 12 40  1  0
 12 41  1  0
 13 42  1  0
 13 43  1  0
 19 44  1  0
 20 45  1  0
 25 46  1  0
 25 47  1  0
 26 48  1  0
 26 49  1  0
 28 50  1  0
 29 51  1  0
 32 52  1  0
 33 53  1  0
 34 54  1  0
 35 55  1  0
M  CHG  4   1  -1  17  -1  24  -1  31  -1
M  END
>  <UniqueID>  (43) 
39

>  <SMILES>  (43) 
[NH-]S(=O)(=O)c1ccc2c(c1)OCCN2C(=O)[N-]c1ccc(C(=O)[N-]CCc2ccc([O-])cc2)cc1

>  <Energy>  (43) 
65.48074859155344

>  <Genealogy>  (43) 
[NH-]S(=O)(=O)c1ccc2c(c1)OCCN2C(=O)[N-]c1ccc(C(=O)[N-]CCc2ccc([O-])cc2)cc1 (protonated)
[NH-]S(=O)(=O)c1ccc2c(c1)OCCN2C(=O)[N-]c1ccc(C(=O)[N-]CCc2ccc([O-])cc2)cc1 (3D coordinates assigned)
[NH-]S(=O)(=O)c1ccc2c(c1)OCCN2C(=O)[N-]c1ccc(C(=O)[N-]CCc2ccc([O-])cc2)cc1 (nonaromatic ring conformer: 65.48074859155344 kcal/mol)

>  <smiles>  (43) 
NS(=O)(=O)c1ccc2c(c1)OCCN2C(=O)Nc1ccc(C(=O)NCCc2ccc(O)cc2)cc1

>  <score_type>  (43) 
oracle

>  <origin>  (43) 
adg

>  <m_score__min__energy>  (43) 
-17.239999999999998

>  <m_primary>  (43) 
energy

$$$$
43:0
     RDKit          3D

 61 65  0  0  0  0  0  0  0  0999 V2000
   56.5880   34.4210   45.1540 O   0  0  0  0  0  0  0  0  0  0  0  0
   57.5780   33.3000   44.9980 S   0  0  0  0  0  0  0  0  0  0  0  0
   58.2530   33.4470   43.6620 O   0  0  0  0  0  0  0  0  0  0  0  0
   56.7360   31.7820   45.0660 N   0  0  0  0  0  0  0  0  0  0  0  0
   57.0400   30.9910   43.8720 C   0  0  0  0  0  0  0  0  0  0  0  0
   58.5470   30.7310   43.7900 C   0  0  0  0  0  0  0  0  0  0  0  0
   58.9800   29.6690   44.8090 C   0  0  0  0  0  0  0  0  0  0  0  0
   59.1990   30.2870   46.1350 N   0  0  0  0  0  0  0  0  0  0  0  0
   58.1410   29.9200   47.1140 C   0  0  0  0  0  0  0  0  0  0  0  0
   58.5700   28.7990   48.0760 C   0  0  0  0  0  0  0  0  0  0  0  0
   59.8640   29.1570   48.8700 C   0  0  0  0  0  0  0  0  0  0  0  0
   60.7200   27.8760   49.1350 C   0  0  0  0  0  0  0  0  0  0  0  0
   61.2140   27.9510   50.5880 C   0  0  0  0  0  0  0  0  0  0  0  0
   60.3240   28.9610   51.2020 C   0  0  0  0  0  0  0  0  0  0  0  0
   60.2430   29.2740   52.5610 C   0  0  0  0  0  0  0  0  0  0  0  0
   59.3640   30.2860   52.9690 C   0  0  0  0  0  0  0  0  0  0  0  0
   58.5910   30.9750   52.0200 C   0  0  0  0  0  0  0  0  0  0  0  0
   58.6950   30.6530   50.6580 C   0  0  0  0  0  0  0  0  0  0  0  0
   59.5680   29.6280   50.2660 C   0  0  0  0  0  0  0  0  0  0  0  0
   60.7040   30.2320   48.1270 C   0  0  0  0  0  0  0  0  0  0  0  0
   60.5840   30.0450   46.6110 C   0  0  0  0  0  0  0  0  0  0  0  0
   58.7730   33.3990   46.2900 C   0  0  0  0  0  0  0  0  0  0  0  0
   58.3690   33.2910   47.6250 C   0  0  0  0  0  0  0  0  0  0  0  0
   59.3090   33.3420   48.6570 C   0  0  0  0  0  0  0  0  0  0  0  0
   60.6780   33.4940   48.3680 C   0  0  0  0  0  0  0  0  0  0  0  0
   61.6540   33.5430   49.3900 C   0  0  0  0  0  0  0  0  0  0  0  0
   61.2360   33.4250   51.0990 Cl  0  0  0  0  0  0  0  0  0  0  0  0
   63.0060   33.6880   49.0570 C   0  0  0  0  0  0  0  0  0  0  0  0
   63.4000   33.7850   47.7220 C   0  0  0  0  0  0  0  0  0  0  0  0
   62.4490   33.7390   46.7030 C   0  0  0  0  0  0  0  0  0  0  0  0
   61.0880   33.5950   47.0130 C   0  0  0  0  0  0  0  0  0  0  0  0
   60.1320   33.5480   45.9860 C   0  0  0  0  0  0  0  0  0  0  0  0
   57.1070   31.2690   45.9000 H   0  0  0  0  0  0  0  0  0  0  0  0
   56.5063   30.0306   43.9249 H   0  0  0  0  0  0  0  0  0  0  0  0
   56.7186   31.5457   42.9781 H   0  0  0  0  0  0  0  0  0  0  0  0
   58.7966   30.3805   42.7776 H   0  0  0  0  0  0  0  0  0  0  0  0
   59.0763   31.6685   44.0158 H   0  0  0  0  0  0  0  0  0  0  0  0
   58.1943   28.9035   44.8910 H   0  0  0  0  0  0  0  0  0  0  0  0
   59.9202   29.2101   44.4691 H   0  0  0  0  0  0  0  0  0  0  0  0
   57.8880   30.8117   47.7064 H   0  0  0  0  0  0  0  0  0  0  0  0
   57.2793   29.5476   46.5407 H   0  0  0  0  0  0  0  0  0  0  0  0
   57.7552   28.6177   48.7924 H   0  0  0  0  0  0  0  0  0  0  0  0
   58.7843   27.9044   47.4729 H   0  0  0  0  0  0  0  0  0  0  0  0
   60.1046   26.9755   48.9924 H   0  0  0  0  0  0  0  0  0  0  0  0
   61.5684   27.8224   48.4368 H   0  0  0  0  0  0  0  0  0  0  0  0
   61.1097   26.9777   51.0898 H   0  0  0  0  0  0  0  0  0  0  0  0
   62.2793   28.2137   50.6660 H   0  0  0  0  0  0  0  0  0  0  0  0
   60.8580   28.7359   53.2973 H   0  0  0  0  0  0  0  0  0  0  0  0
   59.2791   30.5416   54.0355 H   0  0  0  0  0  0  0  0  0  0  0  0
   57.9025   31.7689   52.3451 H   0  0  0  0  0  0  0  0  0  0  0  0
   58.1005   31.1966   49.9090 H   0  0  0  0  0  0  0  0  0  0  0  0
   60.3364   31.2323   48.3996 H   0  0  0  0  0  0  0  0  0  0  0  0
   61.7594   30.1265   48.4185 H   0  0  0  0  0  0  0  0  0  0  0  0
   61.2616   30.7520   46.1100 H   0  0  0  0  0  0  0  0  0  0  0  0
   60.8516   29.0052   46.3719 H   0  0  0  0  0  0  0  0  0  0  0  0
   57.3027   33.1649   47.8639 H   0  0  0  0  0  0  0  0  0  0  0  0
   58.9770   33.2628   49.7027 H   0  0  0  0  0  0  0  0  0  0  0  0
   63.7634   33.7257   49.8538 H   0  0  0  0  0  0  0  0  0  0  0  0
   64.4653   33.8982   47.4722 H   0  0  0  0  0  0  0  0  0  0  0  0
   62.7668   33.8158   45.6527 H   0  0  0  0  0  0  0  0  0  0  0  0
   60.4521   33.6287   44.9367 H   0  0  0  0  0  0  0  0  0  0  0  0
  1  2  2  0
  2  3  2  0
  2  4  1  0
  4  5  1  0
  5  6  1  0
  6  7  1  0
  7  8  1  0
  8  9  1  0
  9 10  1  0
 10 11  1  0
 11 12  1  0
 12 13  1  0
 13 14  1  0
 14 15  2  0
 15 16  1  0
 16 17  2  0
 17 18  1  0
 18 19  2  0
 11 20  1  0
 20 21  1  0
  2 22  1  0
 22 23  2  0
 23 24  1  0
 24 25  2  0
 25 26  1  0
 26 27  1  0
 26 28  2  0
 28 29  1  0
 29 30  2  0
 30 31  1  0
 31 32  2  0
 21  8  1  0
 32 22  1  0
 19 11  1  0
 31 25  1  0
 19 14  1  0
  4 33  1  0
  5 34  1  0
  5 35  1  0
  6 36  1  0
  6 37  1  0
  7 38  1  0
  7 39  1  0
  9 40  1  0
  9 41  1  0
 10 42  1  0
 10 43  1  0
 12 44  1  0
 12 45  1  0
 13 46  1  0
 13 47  1  0
 15 48  1  0
 16 49  1  0
 17 50  1  0
 18 51  1  0
 20 52  1  0
 20 53  1  0
 21 54  1  0
 21 55  1  0
 23 56  1  0
 24 57  1  0
 28 58  1  0
 29 59  1  0
 30 60  1  0
 32 61  1  0
M  END
>  <UniqueID>  (44) 
40

>  <SMILES>  (44) 
O=S(=O)(NCCCN1CCC2(CCc3ccccc32)CC1)c1ccc2c(Cl)cccc2c1

>  <Energy>  (44) 
83.82109882165767

>  <Genealogy>  (44) 
O=S(=O)(NCCCN1CCC2(CCc3ccccc32)CC1)c1ccc2c(Cl)cccc2c1 (3D coordinates assigned)
O=S(=O)(NCCCN1CCC2(CCc3ccccc32)CC1)c1ccc2c(Cl)cccc2c1 (nonaromatic ring conformer: 83.82109882165767 kcal/mol)

>  <smiles>  (44) 
O=S(=O)(NCCCN1CCC2(CCc3ccccc32)CC1)c1ccc2c(Cl)cccc2c1

>  <score_type>  (44) 
oracle

>  <origin>  (44) 
adg

>  <m_score__min__energy>  (44) 
-11

>  <m_primary>  (44) 
energy

$$$$
44:0
     RDKit          3D

 31 32  0  0  0  0  0  0  0  0999 V2000
   55.8020   29.2420   45.1720 O   0  0  0  0  0  0  0  0  0  0  0  0
   57.1420   28.8480   45.1230 C   0  0  0  0  0  0  0  0  0  0  0  0
   57.5500   27.5910   45.6160 C   0  0  0  0  0  0  0  0  0  0  0  0
   56.3990   26.4490   46.2960 Cl  0  0  0  0  0  0  0  0  0  0  0  0
   58.8970   27.2220   45.5580 C   0  0  0  0  0  0  0  0  0  0  0  0
   59.8440   28.0940   45.0190 C   0  0  0  0  0  0  0  0  0  0  0  0
   59.4480   29.3380   44.5240 C   0  0  0  0  0  0  0  0  0  0  0  0
   58.0970   29.7200   44.5590 C   0  0  0  0  0  0  0  0  0  0  0  0
   57.6770   31.0430   43.9660 C   0  0  0  0  0  0  0  0  0  0  0  0
   56.6700   31.7130   44.8060 N   0  0  0  0  0  0  0  0  0  0  0  0
   56.9980   33.1240   45.0700 C   0  0  0  0  0  0  0  0  0  0  0  0
   58.2290   33.2340   45.9330 C   0  0  0  0  0  0  0  0  0  0  0  0
   58.4330   32.3470   47.0040 C   0  0  0  0  0  0  0  0  0  0  0  0
   59.6010   32.4240   47.7690 C   0  0  0  0  0  0  0  0  0  0  0  0
   60.5660   33.3920   47.4790 C   0  0  0  0  0  0  0  0  0  0  0  0
   60.3610   34.2900   46.4280 C   0  0  0  0  0  0  0  0  0  0  0  0
   59.1960   34.2170   45.6600 C   0  0  0  0  0  0  0  0  0  0  0  0
   55.4970   30.0940   45.6230 H   0  0  0  0  0  0  0  0  0  0  0  0
   59.2122   26.2394   45.9391 H   0  0  0  0  0  0  0  0  0  0  0  0
   60.9037   27.8009   44.9841 H   0  0  0  0  0  0  0  0  0  0  0  0
   60.1990   30.0233   44.1039 H   0  0  0  0  0  0  0  0  0  0  0  0
   58.5603   31.6928   43.8792 H   0  0  0  0  0  0  0  0  0  0  0  0
   57.2328   30.8539   42.9776 H   0  0  0  0  0  0  0  0  0  0  0  0
   56.6610   31.2160   45.7280 H   0  0  0  0  0  0  0  0  0  0  0  0
   57.1804   33.6370   44.1142 H   0  0  0  0  0  0  0  0  0  0  0  0
   56.1534   33.5898   45.5989 H   0  0  0  0  0  0  0  0  0  0  0  0
   57.6713   31.5897   47.2412 H   0  0  0  0  0  0  0  0  0  0  0  0
   59.7603   31.7215   48.6003 H   0  0  0  0  0  0  0  0  0  0  0  0
   61.4870   33.4472   48.0779 H   0  0  0  0  0  0  0  0  0  0  0  0
   61.1184   35.0559   46.2049 H   0  0  0  0  0  0  0  0  0  0  0  0
   59.0350   34.9312   44.8390 H   0  0  0  0  0  0  0  0  0  0  0  0
  1  2  1  0
  2  3  2  0
  3  4  1  0
  3  5  1  0
  5  6  2  0
  6  7  1  0
  7  8  2  0
  8  9  1  0
  9 10  1  0
 10 11  1  0
 11 12  1  0
 12 13  2  0
 13 14  1  0
 14 15  2  0
 15 16  1  0
 16 17  2  0
  8  2  1  0
 17 12  1  0
  1 18  1  0
  5 19  1  0
  6 20  1  0
  7 21  1  0
  9 22  1  0
  9 23  1  0
 10 24  1  0
 11 25  1  0
 11 26  1  0
 13 27  1  0
 14 28  1  0
 15 29  1  0
 16 30  1  0
 17 31  1  0
M  END
>  <UniqueID>  (45) 
41

>  <SMILES>  (45) 
Oc1c(Cl)cccc1CNCc1ccccc1

>  <Energy>  (45) 
29.62755676955105

>  <Genealogy>  (45) 
Oc1c(Cl)cccc1CNCc1ccccc1 (3D coordinates assigned)
Oc1c(Cl)cccc1CNCc1ccccc1 (optimized conformer: 29.62755676955105 kcal/mol)

>  <smiles>  (45) 
Oc1c(Cl)cccc1CNCc1ccccc1

>  <score_type>  (45) 
oracle

>  <origin>  (45) 
adg

>  <m_score__min__energy>  (45) 
-7.9000000000000004

>  <m_primary>  (45) 
energy

$$$$
45:0
     RDKit          3D

 40 42  0  0  0  0  0  0  0  0999 V2000
   55.3061   24.1449   46.7066 H   0  0  0  0  0  0  0  0  0  0  0  0
   55.8920   25.0190   46.3860 C   0  0  0  0  0  0  0  0  0  0  0  0
   55.3100   26.1840   45.9960 N   0  0  0  0  0  0  0  0  0  0  0  0
   56.2370   27.1040   45.6490 C   0  0  0  0  0  0  0  0  0  0  0  0
   55.9520   28.3000   45.2390 N   0  0  0  0  0  0  0  0  0  0  0  0
   56.9650   29.1950   44.1540 S   0  0  0  0  0  0  0  0  0  0  0  0
   56.2170   30.3840   43.6200 O   0  0  0  0  0  0  0  0  0  0  0  0
   57.3820   28.3190   43.0050 O   0  0  0  0  0  0  0  0  0  0  0  0
   58.3930   29.7410   45.0260 C   0  0  0  0  0  0  0  0  0  0  0  0
   58.3390   30.8980   45.8130 C   0  0  0  0  0  0  0  0  0  0  0  0
   57.4043   31.4744   45.8764 H   0  0  0  0  0  0  0  0  0  0  0  0
   59.4680   31.3230   46.5180 C   0  0  0  0  0  0  0  0  0  0  0  0
   59.4141   32.2275   47.1416 H   0  0  0  0  0  0  0  0  0  0  0  0
   60.6700   30.6040   46.4360 C   0  0  0  0  0  0  0  0  0  0  0  0
   61.8090   31.0510   47.1910 N   0  0  0  0  0  0  0  0  0  0  0  0
   62.7000   31.2030   46.6670 H   0  0  0  0  0  0  0  0  0  0  0  0
   61.8120   31.2180   48.6200 C   0  0  0  0  0  0  0  0  0  0  0  0
   60.7720   30.9800   49.2920 O   0  0  0  0  0  0  0  0  0  0  0  0
   63.0290   31.6760   49.3240 C   0  0  0  0  0  0  0  0  0  0  0  0
   63.2150   31.3120   50.6680 C   0  0  0  0  0  0  0  0  0  0  0  0
   62.4641   30.6861   51.1724 H   0  0  0  0  0  0  0  0  0  0  0  0
   64.3450   31.7380   51.3690 C   0  0  0  0  0  0  0  0  0  0  0  0
   64.4773   31.4545   52.4236 H   0  0  0  0  0  0  0  0  0  0  0  0
   65.3060   32.5230   50.7320 C   0  0  0  0  0  0  0  0  0  0  0  0
   66.1915   32.8648   51.2879 H   0  0  0  0  0  0  0  0  0  0  0  0
   65.1470   32.8760   49.3910 C   0  0  0  0  0  0  0  0  0  0  0  0
   65.9098   33.4943   48.8952 H   0  0  0  0  0  0  0  0  0  0  0  0
   64.0160   32.4460   48.6670 C   0  0  0  0  0  0  0  0  0  0  0  0
   63.8600   32.7420   47.3030 O   0  0  0  0  0  0  0  0  0  0  0  0
   63.1990   33.8960   46.7940 C   0  0  0  0  0  0  0  0  0  0  0  0
   62.8445   34.5148   47.6315 H   0  0  0  0  0  0  0  0  0  0  0  0
   63.9003   34.4787   46.1786 H   0  0  0  0  0  0  0  0  0  0  0  0
   62.3416   33.5859   46.1786 H   0  0  0  0  0  0  0  0  0  0  0  0
   60.7110   29.4250   45.6720 C   0  0  0  0  0  0  0  0  0  0  0  0
   61.6374   28.8336   45.6276 H   0  0  0  0  0  0  0  0  0  0  0  0
   59.5800   29.0000   44.9680 C   0  0  0  0  0  0  0  0  0  0  0  0
   59.6228   28.0801   44.3663 H   0  0  0  0  0  0  0  0  0  0  0  0
   57.8020   26.5210   45.8090 S   0  0  0  0  0  0  0  0  0  0  0  0
   57.2830   25.0130   46.3500 C   0  0  0  0  0  0  0  0  0  0  0  0
   57.9317   24.1689   46.6271 H   0  0  0  0  0  0  0  0  0  0  0  0
  1  2  1  0
  2  3  1  0
  3  4  1  0
  4  5  2  0
  5  6  1  0
  6  7  2  0
  6  8  2  0
  6  9  1  0
  9 10  2  0
 10 11  1  0
 10 12  1  0
 12 13  1  0
 12 14  2  0
 14 15  1  0
 15 16  1  0
 15 17  1  0
 17 18  2  0
 17 19  1  0
 19 20  2  0
 20 21  1  0
 20 22  1  0
 22 23  1  0
 22 24  2  0
 24 25  1  0
 24 26  1  0
 26 27  1  0
 26 28  2  0
 28 29  1  0
 29 30  1  0
 30 31  1  0
 30 32  1  0
 30 33  1  0
 14 34  1  0
 34 35  1  0
 34 36  2  0
 36 37  1  0
  4 38  1  0
 38 39  1  0
 39 40  1  0
 39  2  2  0
 36  9  1  0
 28 19  1  0
M  CHG  1   3  -1
M  END
>  <UniqueID>  (46) 
42

>  <SMILES>  (46) 
COc1ccccc1C(=O)Nc1ccc(S(=O)(=O)/N=c2\[n-]ccs2)cc1

>  <Energy>  (46) 
84.34644753517482

>  <Genealogy>  (46) 
COc1ccccc1C(=O)Nc1ccc(S(=O)(=O)N=c2[n-]ccs2)cc1 (protonated)
COc1ccccc1C(=O)Nc1ccc(S(=O)(=O)/N=c2\[n-]ccs2)cc1 (cis-trans isomerization)
COc1ccccc1C(=O)Nc1ccc(S(=O)(=O)/N=c2\[n-]ccs2)cc1 (3D coordinates assigned)
COc1ccccc1C(=O)Nc1ccc(S(=O)(=O)/N=c2\[n-]ccs2)cc1 (optimized conformer: 84.34644753517482 kcal/mol)

>  <smiles>  (46) 
COc1ccccc1C(=O)Nc1ccc(S(=O)(=O)N=c2[nH]ccs2)cc1

>  <score_type>  (46) 
oracle

>  <origin>  (46) 
adg

>  <m_score__min__energy>  (46) 
-9.0199999999999996

>  <m_primary>  (46) 
energy

$$$$
46:0
     RDKit          3D

 52 54  0  0  0  0  0  0  0  0999 V2000
   60.7680   26.7690   48.4530 C   0  0  0  0  0  0  0  0  0  0  0  0
   60.7230   26.9150   47.0370 O   0  0  0  0  0  0  0  0  0  0  0  0
   59.7420   27.6460   46.3480 C   0  0  0  0  0  0  0  0  0  0  0  0
   58.3970   27.2960   46.5260 C   0  0  0  0  0  0  0  0  0  0  0  0
   57.3850   27.9950   45.8600 C   0  0  0  0  0  0  0  0  0  0  0  0
   57.7080   29.0540   45.0030 C   0  0  0  0  0  0  0  0  0  0  0  0
   56.4430   29.9210   44.1420 S   0  0  0  0  0  0  0  0  0  0  0  0
   55.1170   29.3200   44.5120 O   0  0  0  0  0  0  0  0  0  0  0  0
   56.6460   29.7760   42.6590 O   0  0  0  0  0  0  0  0  0  0  0  0
   56.4620   31.5910   44.6400 N   0  0  0  0  0  0  0  0  0  0  0  0
   57.5270   32.3910   44.0260 C   0  0  0  0  0  0  0  0  0  0  0  0
   58.5510   32.9200   45.0560 C   0  0  1  0  0  0  0  0  0  0  0  0
   58.7850   34.4400   44.9370 C   0  0  0  0  0  0  0  0  0  0  0  0
   59.6700   34.9030   46.1020 C   0  0  0  0  0  0  0  0  0  0  0  0
   59.0160   34.7250   47.4330 N   0  0  2  0  0  0  0  0  0  0  0  0
   60.0200   34.4610   48.4940 C   0  0  0  0  0  0  0  0  0  0  0  0
   61.1080   33.5220   48.0210 C   0  0  0  0  0  0  0  0  0  0  0  0
   62.3370   34.0340   47.5710 C   0  0  0  0  0  0  0  0  0  0  0  0
   63.3410   33.1680   47.1200 C   0  0  0  0  0  0  0  0  0  0  0  0
   63.1260   31.7880   47.1140 C   0  0  0  0  0  0  0  0  0  0  0  0
   64.1120   30.9510   46.6930 F   0  0  0  0  0  0  0  0  0  0  0  0
   61.9060   31.2730   47.5510 C   0  0  0  0  0  0  0  0  0  0  0  0
   60.8980   32.1340   48.0060 C   0  0  0  0  0  0  0  0  0  0  0  0
   57.9520   33.6810   47.4470 C   0  0  0  0  0  0  0  0  0  0  0  0
   58.2490   32.4890   46.5180 C   0  0  0  0  0  0  0  0  0  0  0  0
   59.0510   29.4220   44.8330 C   0  0  0  0  0  0  0  0  0  0  0  0
   60.0640   28.7160   45.4900 C   0  0  0  0  0  0  0  0  0  0  0  0
   60.4759   27.7168   48.9288 H   0  0  0  0  0  0  0  0  0  0  0  0
   60.0731   25.9742   48.7619 H   0  0  0  0  0  0  0  0  0  0  0  0
   61.7897   26.5033   48.7619 H   0  0  0  0  0  0  0  0  0  0  0  0
   58.1345   26.4638   47.1957 H   0  0  0  0  0  0  0  0  0  0  0  0
   56.3327   27.7120   46.0099 H   0  0  0  0  0  0  0  0  0  0  0  0
   58.0575   31.7657   43.2928 H   0  0  0  0  0  0  0  0  0  0  0  0
   57.0535   33.2638   43.5527 H   0  0  0  0  0  0  0  0  0  0  0  0
   59.4986   32.4284   44.7907 H   0  0  0  0  0  0  0  0  0  0  0  0
   57.8196   34.9657   44.9759 H   0  0  0  0  0  0  0  0  0  0  0  0
   59.2812   34.6655   43.9815 H   0  0  0  0  0  0  0  0  0  0  0  0
   59.9022   35.9694   45.9645 H   0  0  0  0  0  0  0  0  0  0  0  0
   60.5784   34.2828   46.0942 H   0  0  0  0  0  0  0  0  0  0  0  0
   58.5390   35.6270   47.6700 H   0  0  0  0  0  0  0  0  0  0  0  0
   60.4791   35.4145   48.7942 H   0  0  0  0  0  0  0  0  0  0  0  0
   59.5037   33.9851   49.3407 H   0  0  0  0  0  0  0  0  0  0  0  0
   62.5112   35.1201   47.5730 H   0  0  0  0  0  0  0  0  0  0  0  0
   64.3008   33.5755   46.7698 H   0  0  0  0  0  0  0  0  0  0  0  0
   61.7340   30.1866   47.5386 H   0  0  0  0  0  0  0  0  0  0  0  0
   59.9392   31.7208   48.3525 H   0  0  0  0  0  0  0  0  0  0  0  0
   57.0061   34.1435   47.1285 H   0  0  0  0  0  0  0  0  0  0  0  0
   57.8989   33.2867   48.4725 H   0  0  0  0  0  0  0  0  0  0  0  0
   57.3745   31.8217   46.5133 H   0  0  0  0  0  0  0  0  0  0  0  0
   59.1472   31.9856   46.9051 H   0  0  0  0  0  0  0  0  0  0  0  0
   59.3084   30.2692   44.1804 H   0  0  0  0  0  0  0  0  0  0  0  0
   61.1162   28.9973   45.3362 H   0  0  0  0  0  0  0  0  0  0  0  0
  1  2  1  0
  2  3  1  0
  3  4  2  0
  4  5  1  0
  5  6  2  0
  6  7  1  0
  7  8  2  0
  7  9  2  0
  7 10  1  0
 10 11  1  0
 11 12  1  0
 12 13  1  0
 13 14  1  0
 14 15  1  0
 15 16  1  0
 16 17  1  0
 17 18  2  0
 18 19  1  0
 19 20  2  0
 20 21  1  0
 20 22  1  0
 22 23  2  0
 15 24  1  0
 24 25  1  0
  6 26  1  0
 26 27  2  0
 27  3  1  0
 25 12  1  0
 23 17  1  0
  1 28  1  0
  1 29  1  0
  1 30  1  0
  4 31  1  0
  5 32  1  0
 11 33  1  0
 11 34  1  0
 12 35  1  6
 13 36  1  0
 13 37  1  0
 14 38  1  0
 14 39  1  0
 15 40  1  1
 16 41  1  0
 16 42  1  0
 18 43  1  0
 19 44  1  0
 22 45  1  0
 23 46  1  0
 24 47  1  0
 24 48  1  0
 25 49  1  0
 25 50  1  0
 26 51  1  0
 27 52  1  0
M  CHG  2  10  -1  15   1
M  END
>  <UniqueID>  (47) 
43

>  <SMILES>  (47) 
COc1ccc(S(=O)(=O)[N-]CC2CC[NH+](Cc3ccc(F)cc3)CC2)cc1

>  <Energy>  (47) 
64.42891949607214

>  <Genealogy>  (47) 
COc1ccc(S(=O)(=O)[N-]CC2CC[NH+](Cc3ccc(F)cc3)CC2)cc1 (protonated)
COc1ccc(S(=O)(=O)[N-]CC2CC[NH+](Cc3ccc(F)cc3)CC2)cc1 (3D coordinates assigned)
COc1ccc(S(=O)(=O)[N-]CC2CC[NH+](Cc3ccc(F)cc3)CC2)cc1 (nonaromatic ring conformer: 64.42891949607214 kcal/mol)

>  <smiles>  (47) 
COc1ccc(S(=O)(=O)NCC2CCN(Cc3ccc(F)cc3)CC2)cc1

>  <score_type>  (47) 
oracle

>  <origin>  (47) 
adg

>  <m_score__min__energy>  (47) 
-8.5

>  <m_primary>  (47) 
energy

$$$$
47:0
     RDKit          3D

 43 43  0  0  0  0  0  0  0  0999 V2000
   56.2390   29.5860   45.2630 N   0  0  0  0  0  0  0  0  0  0  0  0
   57.4160   30.3660   45.6560 C   0  0  1  0  0  0  0  0  0  0  0  0
   58.7210   29.5310   45.5520 C   0  0  0  0  0  0  0  0  0  0  0  0
   59.1570   28.8590   46.8720 C   0  0  0  0  0  0  0  0  0  0  0  0
   58.7900   27.3660   46.9310 C   0  0  0  0  0  0  0  0  0  0  0  0
   57.3190   27.0460   46.5940 C   0  0  0  0  0  0  0  0  0  0  0  0
   57.0800   26.7860   45.1650 N   0  0  0  0  0  0  0  0  0  0  0  0
   58.3140   26.6100   44.3760 C   0  0  0  0  0  0  0  0  0  0  0  0
   58.1330   27.0500   42.9130 C   0  0  0  0  0  0  0  0  0  0  0  0
   57.2480   28.2110   42.8220 N   0  0  0  0  0  0  0  0  0  0  0  0
   57.4840   31.7060   44.8830 C   0  0  0  0  0  0  0  0  0  0  0  0
   58.1860   32.8150   45.6290 C   0  0  0  0  0  0  0  0  0  0  0  0
   58.1720   32.8330   47.0360 C   0  0  0  0  0  0  0  0  0  0  0  0
   58.8480   33.8340   47.7380 C   0  0  0  0  0  0  0  0  0  0  0  0
   59.5370   34.8310   47.0440 C   0  0  0  0  0  0  0  0  0  0  0  0
   59.5500   34.8310   45.6480 C   0  0  0  0  0  0  0  0  0  0  0  0
   58.8770   33.8300   44.9390 C   0  0  0  0  0  0  0  0  0  0  0  0
   58.8960   33.8560   43.5820 F   0  0  0  0  0  0  0  0  0  0  0  0
   56.2550   28.6820   45.7930 H   0  0  0  0  0  0  0  0  0  0  0  0
   55.3840   30.0910   45.5930 H   0  0  0  0  0  0  0  0  0  0  0  0
   57.3124   30.6268   46.7196 H   0  0  0  0  0  0  0  0  0  0  0  0
   58.5660   28.7432   44.8001 H   0  0  0  0  0  0  0  0  0  0  0  0
   59.5218   30.2340   45.2790 H   0  0  0  0  0  0  0  0  0  0  0  0
   60.2480   28.9569   46.9725 H   0  0  0  0  0  0  0  0  0  0  0  0
   58.6246   29.3634   47.6918 H   0  0  0  0  0  0  0  0  0  0  0  0
   59.4295   26.8282   46.2155 H   0  0  0  0  0  0  0  0  0  0  0  0
   58.9437   27.0510   47.9737 H   0  0  0  0  0  0  0  0  0  0  0  0
   57.0188   26.1542   47.1637 H   0  0  0  0  0  0  0  0  0  0  0  0
   56.7284   27.9348   46.8611 H   0  0  0  0  0  0  0  0  0  0  0  0
   56.4350   27.4980   44.7530 H   0  0  0  0  0  0  0  0  0  0  0  0
   59.1147   27.2116   44.8309 H   0  0  0  0  0  0  0  0  0  0  0  0
   58.5683   25.5398   44.3789 H   0  0  0  0  0  0  0  0  0  0  0  0
   59.1148   27.3119   42.4917 H   0  0  0  0  0  0  0  0  0  0  0  0
   57.6819   26.2197   42.3499 H   0  0  0  0  0  0  0  0  0  0  0  0
   56.5570   28.0760   42.0480 H   0  0  0  0  0  0  0  0  0  0  0  0
   57.8210   29.0620   42.6190 H   0  0  0  0  0  0  0  0  0  0  0  0
   56.7440   28.3510   43.7270 H   0  0  0  0  0  0  0  0  0  0  0  0
   58.0199   31.5326   43.9382 H   0  0  0  0  0  0  0  0  0  0  0  0
   56.4459   32.0357   44.7294 H   0  0  0  0  0  0  0  0  0  0  0  0
   57.6251   32.0536   47.5869 H   0  0  0  0  0  0  0  0  0  0  0  0
   58.8376   33.8369   48.8379 H   0  0  0  0  0  0  0  0  0  0  0  0
   60.0703   35.6175   47.5982 H   0  0  0  0  0  0  0  0  0  0  0  0
   60.0906   35.6197   45.1042 H   0  0  0  0  0  0  0  0  0  0  0  0
  1  2  1  0
  2  3  1  0
  3  4  1  0
  4  5  1  0
  5  6  1  0
  6  7  1  0
  7  8  1  0
  8  9  1  0
  9 10  1  0
  2 11  1  0
 11 12  1  0
 12 13  2  0
 13 14  1  0
 14 15  2  0
 15 16  1  0
 16 17  2  0
 17 18  1  0
 17 12  1  0
  1 19  1  0
  1 20  1  0
  2 21  1  1
  3 22  1  0
  3 23  1  0
  4 24  1  0
  4 25  1  0
  5 26  1  0
  5 27  1  0
  6 28  1  0
  6 29  1  0
  7 30  1  0
  8 31  1  0
  8 32  1  0
  9 33  1  0
  9 34  1  0
 10 35  1  0
 10 36  1  0
 10 37  1  0
 11 38  1  0
 11 39  1  0
 13 40  1  0
 14 41  1  0
 15 42  1  0
 16 43  1  0
M  CHG  1  10   1
M  END
>  <UniqueID>  (48) 
44

>  <SMILES>  (48) 
N[C@@H](CCCCNCC[NH3+])Cc1ccccc1F

>  <Energy>  (48) 
36.39392787027643

>  <Genealogy>  (48) 
NC(CCCCNCC[NH3+])Cc1ccccc1F (protonated)
N[C@@H](CCCCNCC[NH3+])Cc1ccccc1F (chirality)
N[C@@H](CCCCNCC[NH3+])Cc1ccccc1F (3D coordinates assigned)
N[C@@H](CCCCNCC[NH3+])Cc1ccccc1F (optimized conformer: 36.39392787027643 kcal/mol)

>  <smiles>  (48) 
NCCNCCCCC(N)Cc1ccccc1F

>  <score_type>  (48) 
oracle

>  <origin>  (48) 
adg

>  <m_score__min__energy>  (48) 
-4.2800000000000002

>  <m_primary>  (48) 
energy

$$$$
48:0
     RDKit          3D

 34 36  0  0  0  0  0  0  0  0999 V2000
   59.2840   29.0180   44.4960 C   0  0  0  0  0  0  0  0  0  0  0  0
   57.9570   29.7160   44.8620 C   0  0  2  0  0  0  0  0  0  0  0  0
   56.8280   28.7280   45.1500 C   0  0  0  0  0  0  0  0  0  0  0  0
   55.6470   29.1650   45.2390 O   0  0  0  0  0  0  0  0  0  0  0  0
   57.0450   27.2820   45.3620 C   0  0  0  0  0  0  0  0  0  0  0  0
   56.7560   26.6820   46.5980 C   0  0  0  0  0  0  0  0  0  0  0  0
   56.9860   25.3160   46.7870 C   0  0  0  0  0  0  0  0  0  0  0  0
   57.5170   24.5430   45.7480 C   0  0  0  0  0  0  0  0  0  0  0  0
   57.8060   22.8300   45.9880 Cl  0  0  0  0  0  0  0  0  0  0  0  0
   57.8240   25.1400   44.5220 C   0  0  0  0  0  0  0  0  0  0  0  0
   57.5950   26.5060   44.3300 C   0  0  0  0  0  0  0  0  0  0  0  0
   57.5410   30.5910   43.6930 C   0  0  0  0  0  0  0  0  0  0  0  0
   57.0640   30.0530   42.6560 O   0  0  0  0  0  0  0  0  0  0  0  0
   57.7370   32.0480   43.7050 C   0  0  0  0  0  0  0  0  0  0  0  0
   57.4770   32.7130   42.6660 O   0  0  0  0  0  0  0  0  0  0  0  0
   58.2260   32.7270   44.9200 C   0  0  0  0  0  0  0  0  0  0  0  0
   58.4560   34.1160   44.9160 C   0  0  0  0  0  0  0  0  0  0  0  0
   58.8960   34.7640   46.0700 C   0  0  0  0  0  0  0  0  0  0  0  0
   59.1070   34.0370   47.2410 C   0  0  0  0  0  0  0  0  0  0  0  0
   58.8820   32.6590   47.2590 C   0  0  0  0  0  0  0  0  0  0  0  0
   58.4430   31.9900   46.1010 C   0  0  0  0  0  0  0  0  0  0  0  0
   58.2110   30.5240   46.1280 C   0  0  0  0  0  0  0  0  0  0  0  0
   58.2980   29.9100   47.2300 O   0  0  0  0  0  0  0  0  0  0  0  0
   59.8169   28.7377   45.4166 H   0  0  0  0  0  0  0  0  0  0  0  0
   59.0723   28.1145   43.9053 H   0  0  0  0  0  0  0  0  0  0  0  0
   59.9085   29.7043   43.9053 H   0  0  0  0  0  0  0  0  0  0  0  0
   56.3475   27.2883   47.4199 H   0  0  0  0  0  0  0  0  0  0  0  0
   56.7492   24.8480   47.7539 H   0  0  0  0  0  0  0  0  0  0  0  0
   58.2465   24.5342   43.7068 H   0  0  0  0  0  0  0  0  0  0  0  0
   57.8468   26.9740   43.3669 H   0  0  0  0  0  0  0  0  0  0  0  0
   58.2874   34.6945   43.9957 H   0  0  0  0  0  0  0  0  0  0  0  0
   59.0766   35.8490   46.0564 H   0  0  0  0  0  0  0  0  0  0  0  0
   59.4510   34.5495   48.1515 H   0  0  0  0  0  0  0  0  0  0  0  0
   59.0493   32.0913   48.1862 H   0  0  0  0  0  0  0  0  0  0  0  0
  2  1  1  6
  2  3  1  0
  3  4  2  0
  3  5  1  0
  5  6  2  0
  6  7  1  0
  7  8  2  0
  8  9  1  0
  8 10  1  0
 10 11  2  0
  2 12  1  0
 12 13  2  0
 12 14  1  0
 14 15  2  0
 14 16  1  0
 16 17  2  0
 17 18  1  0
 18 19  2  0
 19 20  1  0
 20 21  2  0
 21 22  1  0
 22 23  2  0
 22  2  1  0
 11  5  1  0
 21 16  1  0
  1 24  1  0
  1 25  1  0
  1 26  1  0
  6 27  1  0
  7 28  1  0
 10 29  1  0
 11 30  1  0
 17 31  1  0
 18 32  1  0
 19 33  1  0
 20 34  1  0
M  END
>  <UniqueID>  (49) 
45

>  <SMILES>  (49) 
C[C@]1(C(=O)c2ccc(Cl)cc2)C(=O)C(=O)c2ccccc2C1=O

>  <Energy>  (49) 
48.55480543343656

>  <Genealogy>  (49) 
C[C@]1(C(=O)c2ccc(Cl)cc2)C(=O)C(=O)c2ccccc2C1=O (chirality)
C[C@]1(C(=O)c2ccc(Cl)cc2)C(=O)C(=O)c2ccccc2C1=O (3D coordinates assigned)
C[C@]1(C(=O)c2ccc(Cl)cc2)C(=O)C(=O)c2ccccc2C1=O (nonaromatic ring conformer: 48.55480543343656 kcal/mol)

>  <smiles>  (49) 
CC1(C(=O)c2ccc(Cl)cc2)C(=O)C(=O)c2ccccc2C1=O

>  <score_type>  (49) 
oracle

>  <origin>  (49) 
adg

>  <m_score__min__energy>  (49) 
-8.3599999999999994

>  <m_primary>  (49) 
energy

$$$$
49:0
     RDKit          3D

 43 45  0  0  1  0  0  0  0  0999 V2000
   61.1170   30.4280   47.7440 N   0  0  0  0  0  0  0  0  0  0  0  0
   59.8100   30.9270   47.6290 C   0  0  0  0  0  0  0  0  0  0  0  0
   58.8670   30.1910   48.0520 O   0  0  0  0  0  0  0  0  0  0  0  0
   59.4520   32.2080   47.0680 C   0  0  0  0  0  0  0  0  0  0  0  0
   59.5180   33.3280   47.8640 C   0  0  0  0  0  0  0  0  0  0  0  0
   59.1910   34.5840   47.3930 C   0  0  0  0  0  0  0  0  0  0  0  0
   58.7830   34.7340   46.0840 C   0  0  0  0  0  0  0  0  0  0  0  0
   58.7030   33.6350   45.2510 C   0  0  0  0  0  0  0  0  0  0  0  0
   59.0440   32.3790   45.7670 C   0  0  0  0  0  0  0  0  0  0  0  0
   58.9580   31.2540   44.8990 N   0  0  0  0  0  0  0  0  0  0  0  0
   58.0060   30.4100   44.9020 C   0  0  0  0  0  0  0  0  0  0  0  0
   56.8690   30.6690   44.1380 C   0  0  0  0  0  0  0  0  0  0  0  0
   55.8490   29.7330   44.1600 C   0  0  0  0  0  0  0  0  0  0  0  0
   55.9390   28.6040   44.8930 N   0  0  0  0  0  0  0  0  0  0  0  0
   57.0350   28.3770   45.6150 C   0  0  0  0  0  0  0  0  0  0  0  0
   57.1680   27.3160   46.3290 N   0  0  0  0  0  0  0  0  0  0  0  0
   56.9940   26.0410   45.7250 C   0  0  0  0  0  0  0  0  0  0  0  0
   55.7750   25.4110   45.6160 C   0  0  0  0  0  0  0  0  0  0  0  0
   55.6640   24.1750   45.0200 C   0  0  0  0  0  0  0  0  0  0  0  0
   56.7570   23.5270   44.5150 C   0  0  0  0  0  0  0  0  0  0  0  0
   56.5470   21.9460   43.7650 S   0  0  0  0  0  0  0  0  0  0  0  0
   58.0880   21.1890   43.5580 N   0  0  0  0  0  0  0  0  0  0  0  0
   55.9490   22.0550   42.3990 O   0  0  0  0  0  0  0  0  0  0  0  0
   55.7080   21.0500   44.6330 O   0  0  0  0  0  0  0  0  0  0  0  0
   57.9850   24.1270   44.6090 C   0  0  0  0  0  0  0  0  0  0  0  0
   58.0990   25.3800   45.2120 C   0  0  0  0  0  0  0  0  0  0  0  0
   58.0460   29.2700   45.6140 N   0  0  0  0  0  0  0  0  0  0  0  0
   61.2840   29.4380   47.4420 H   0  0  0  0  0  0  0  0  0  0  0  0
   61.9410   30.9420   48.1000 H   0  0  0  0  0  0  0  0  0  0  0  0
   59.8418   33.2194   48.9096 H   0  0  0  0  0  0  0  0  0  0  0  0
   59.2554   35.4587   48.0569 H   0  0  0  0  0  0  0  0  0  0  0  0
   58.5206   35.7317   45.7023 H   0  0  0  0  0  0  0  0  0  0  0  0
   58.3786   33.7442   44.2056 H   0  0  0  0  0  0  0  0  0  0  0  0
   56.7850   31.5868   43.5375 H   0  0  0  0  0  0  0  0  0  0  0  0
   54.9421   29.9146   43.5646 H   0  0  0  0  0  0  0  0  0  0  0  0
   55.1390   27.9360   44.8690 H   0  0  0  0  0  0  0  0  0  0  0  0
   54.8745   25.9034   46.0117 H   0  0  0  0  0  0  0  0  0  0  0  0
   54.6751   23.6986   44.9485 H   0  0  0  0  0  0  0  0  0  0  0  0
   58.3730   20.8010   44.4870 H   0  0  0  0  0  0  0  0  0  0  0  0
   57.9200   20.3330   42.9620 H   0  0  0  0  0  0  0  0  0  0  0  0
   58.8778   23.6228   44.2106 H   0  0  0  0  0  0  0  0  0  0  0  0
   59.0890   25.8544   45.2819 H   0  0  0  0  0  0  0  0  0  0  0  0
   58.9250   29.1090   46.1810 H   0  0  0  0  0  0  0  0  0  0  0  0
  1  2  1  0
  2  3  2  0
  2  4  1  0
  4  5  2  0
  5  6  1  0
  6  7  2  0
  7  8  1  0
  8  9  2  0
  9 10  1  0
 10 11  2  0
 11 12  1  0
 12 13  2  0
 13 14  1  0
 14 15  1  0
 15 16  2  0
 16 17  1  0
 17 18  2  0
 18 19  1  0
 19 20  2  0
 20 21  1  0
 21 22  1  0
 21 23  2  0
 21 24  2  0
 20 25  1  0
 25 26  2  0
 15 27  1  0
  9  4  1  0
 27 11  1  0
 26 17  1  0
  1 28  1  0
  1 29  1  0
  5 30  1  0
  6 31  1  0
  7 32  1  0
  8 33  1  0
 12 34  1  0
 13 35  1  0
 14 36  1  0
 18 37  1  0
 19 38  1  0
 22 39  1  0
 22 40  1  0
 25 41  1  0
 26 42  1  0
 27 43  1  0
M  END
>  <smiles>  (50) 
NC(=O)c1ccccc1N=c1cc[nH]c(=Nc2ccc(S(N)(=O)=O)cc2)[nH]1

>  <score_type>  (50) 
oracle

>  <origin>  (50) 
adg

>  <m_score__min__energy>  (50) 
-9.5299999999999994

>  <m_primary>  (50) 
energy

$$$$
50:0
     RDKit          3D

 39 41  0  0  0  0  0  0  0  0999 V2000
   57.6050   30.8780   42.9760 O   0  0  0  0  0  0  0  0  0  0  0  0
   57.3200   31.0200   44.4450 S   0  0  0  0  0  0  0  0  0  0  0  0
   55.9430   30.4790   44.7120 O   0  0  0  0  0  0  0  0  0  0  0  0
   58.4910   30.0730   45.3510 C   0  0  0  0  0  0  0  0  0  0  0  0
   58.5220   29.9240   46.7290 C   0  0  0  0  0  0  0  0  0  0  0  0
   59.5680   29.1020   47.1650 C   0  0  0  0  0  0  0  0  0  0  0  0
   60.3600   28.6130   46.1330 C   0  0  0  0  0  0  0  0  0  0  0  0
   59.7550   29.1970   44.6760 S   0  0  0  0  0  0  0  0  0  0  0  0
   57.3780   32.7090   44.8930 N   0  0  0  0  0  0  0  0  0  0  0  0
   57.3300   32.8440   46.3640 C   0  0  0  0  0  0  0  0  0  0  0  0
   57.8350   34.2210   46.8100 C   0  0  0  0  0  0  0  0  0  0  0  0
   59.2370   34.4590   46.3910 N   0  0  0  0  0  0  0  0  0  0  0  0
   60.2130   34.4950   47.5030 C   0  0  0  0  0  0  0  0  0  0  0  0
   61.3310   33.4780   47.3730 C   0  0  0  0  0  0  0  0  0  0  0  0
   61.1350   32.1390   47.7550 C   0  0  0  0  0  0  0  0  0  0  0  0
   62.1700   31.2080   47.6250 C   0  0  0  0  0  0  0  0  0  0  0  0
   63.4150   31.6080   47.1320 C   0  0  0  0  0  0  0  0  0  0  0  0
   63.6270   32.9400   46.7720 C   0  0  0  0  0  0  0  0  0  0  0  0
   62.5930   33.8730   46.8940 C   0  0  0  0  0  0  0  0  0  0  0  0
   59.6810   33.6470   45.2360 C   0  0  0  0  0  0  0  0  0  0  0  0
   58.5240   33.4030   44.2560 C   0  0  0  0  0  0  0  0  0  0  0  0
   57.8005   30.4015   47.4084 H   0  0  0  0  0  0  0  0  0  0  0  0
   59.7462   28.8655   48.2244 H   0  0  0  0  0  0  0  0  0  0  0  0
   61.2342   27.9556   46.2492 H   0  0  0  0  0  0  0  0  0  0  0  0
   56.2913   32.7156   46.7026 H   0  0  0  0  0  0  0  0  0  0  0  0
   57.9795   32.0743   46.8063 H   0  0  0  0  0  0  0  0  0  0  0  0
   57.1943   34.9961   46.3642 H   0  0  0  0  0  0  0  0  0  0  0  0
   57.7970   34.2581   47.9087 H   0  0  0  0  0  0  0  0  0  0  0  0
   60.6607   35.4992   47.5385 H   0  0  0  0  0  0  0  0  0  0  0  0
   59.6603   34.2462   48.4210 H   0  0  0  0  0  0  0  0  0  0  0  0
   60.1619   31.8222   48.1584 H   0  0  0  0  0  0  0  0  0  0  0  0
   62.0040   30.1589   47.9112 H   0  0  0  0  0  0  0  0  0  0  0  0
   64.2274   30.8737   47.0277 H   0  0  0  0  0  0  0  0  0  0  0  0
   64.6095   33.2561   46.3916 H   0  0  0  0  0  0  0  0  0  0  0  0
   62.7675   34.9223   46.6137 H   0  0  0  0  0  0  0  0  0  0  0  0
   60.4895   34.1784   44.7126 H   0  0  0  0  0  0  0  0  0  0  0  0
   60.0358   32.6744   45.6077 H   0  0  0  0  0  0  0  0  0  0  0  0
   58.1785   34.3731   43.8693 H   0  0  0  0  0  0  0  0  0  0  0  0
   58.8997   32.7570   43.4488 H   0  0  0  0  0  0  0  0  0  0  0  0
  1  2  2  0
  2  3  2  0
  2  4  1  0
  4  5  2  0
  5  6  1  0
  6  7  2  0
  7  8  1  0
  2  9  1  0
  9 10  1  0
 10 11  1  0
 11 12  1  0
 12 13  1  0
 13 14  1  0
 14 15  2  0
 15 16  1  0
 16 17  2  0
 17 18  1  0
 18 19  2  0
 12 20  1  0
 20 21  1  0
  8  4  1  0
 21  9  1  0
 19 14  1  0
  5 22  1  0
  6 23  1  0
  7 24  1  0
 10 25  1  0
 10 26  1  0
 11 27  1  0
 11 28  1  0
 13 29  1  0
 13 30  1  0
 15 31  1  0
 16 32  1  0
 17 33  1  0
 18 34  1  0
 19 35  1  0
 20 36  1  0
 20 37  1  0
 21 38  1  0
 21 39  1  0
M  END
>  <UniqueID>  (51) 
46

>  <SMILES>  (51) 
O=S(=O)(c1cccs1)N1CCN(Cc2ccccc2)CC1

>  <Energy>  (51) 
75.94134095430083

>  <Genealogy>  (51) 
O=S(=O)(c1cccs1)N1CCN(Cc2ccccc2)CC1 (3D coordinates assigned)
O=S(=O)(c1cccs1)N1CCN(Cc2ccccc2)CC1 (nonaromatic ring conformer: 75.94134095430083 kcal/mol)

>  <smiles>  (51) 
O=S(=O)(c1cccs1)N1CCN(Cc2ccccc2)CC1

>  <score_type>  (51) 
oracle

>  <origin>  (51) 
adg

>  <m_score__min__energy>  (51) 
-7.7400000000000002

>  <m_primary>  (51) 
energy

$$$$
51:0
     RDKit          3D

 41 43  0  0  1  0  0  0  0  0999 V2000
   56.6550   20.9530   43.6110 C   0  0  0  0  0  0  0  0  0  0  0  0
   56.4720   22.4400   43.7920 C   0  0  0  0  0  0  0  0  0  0  0  0
   55.5910   22.9670   43.0850 O   0  0  0  0  0  0  0  0  0  0  0  0
   57.2610   23.1410   44.7080 N   0  0  0  0  0  0  0  0  0  0  0  0
   57.2060   24.5260   44.9870 C   0  0  0  0  0  0  0  0  0  0  0  0
   56.1600   24.9960   45.7540 C   0  0  0  0  0  0  0  0  0  0  0  0
   59.7930   32.4090   46.3120 C   0  0  0  0  0  0  0  0  0  0  0  0
   58.9170   33.1310   45.4860 C   0  0  0  0  0  0  0  0  0  0  0  0
   58.4900   32.5770   44.2580 N   0  0  0  0  0  0  0  0  0  0  0  0
   57.8440   31.5020   44.0710 C   0  0  0  0  0  0  0  0  0  0  0  0
   56.4820   29.1710   43.7900 N   0  0  0  0  0  0  0  0  0  0  0  0
   56.6210   30.0080   42.7370 C   0  0  0  0  0  0  0  0  0  0  0  0
   57.3050   31.1930   42.8500 C   0  0  0  0  0  0  0  0  0  0  0  0
   57.4850   32.3410   41.3730 Br  0  0  0  0  0  0  0  0  0  0  0  0
   57.0270   29.4980   44.9960 C   0  0  0  0  0  0  0  0  0  0  0  0
   56.8530   28.6570   45.9420 N   0  0  0  0  0  0  0  0  0  0  0  0
   56.9610   27.2710   45.6290 C   0  0  0  0  0  0  0  0  0  0  0  0
   56.0540   26.3350   46.0590 C   0  0  0  0  0  0  0  0  0  0  0  0
   60.2560   32.9710   47.5080 C   0  0  0  0  0  0  0  0  0  0  0  0
   59.8370   34.2540   47.8660 C   0  0  0  0  0  0  0  0  0  0  0  0
   58.9690   34.9830   47.0590 C   0  0  0  0  0  0  0  0  0  0  0  0
   58.0120   26.8150   44.8600 C   0  0  0  0  0  0  0  0  0  0  0  0
   57.6990   30.6570   45.1170 N   0  0  0  0  0  0  0  0  0  0  0  0
   58.5160   34.4180   45.8770 C   0  0  0  0  0  0  0  0  0  0  0  0
   58.1180   25.4550   44.5520 C   0  0  0  0  0  0  0  0  0  0  0  0
   56.7147   20.4683   44.5966 H   0  0  0  0  0  0  0  0  0  0  0  0
   55.8004   20.5437   43.0522 H   0  0  0  0  0  0  0  0  0  0  0  0
   57.5833   20.7631   43.0522 H   0  0  0  0  0  0  0  0  0  0  0  0
   57.9760   22.5600   45.2460 H   0  0  0  0  0  0  0  0  0  0  0  0
   55.4010   24.2924   46.1267 H   0  0  0  0  0  0  0  0  0  0  0  0
   60.1164   31.3993   46.0189 H   0  0  0  0  0  0  0  0  0  0  0  0
   55.9540   28.2640   43.6850 H   0  0  0  0  0  0  0  0  0  0  0  0
   56.1764   29.7335   41.7690 H   0  0  0  0  0  0  0  0  0  0  0  0
   55.2053   26.6687   46.6741 H   0  0  0  0  0  0  0  0  0  0  0  0
   60.9420   32.4082   48.1581 H   0  0  0  0  0  0  0  0  0  0  0  0
   60.2004   34.6973   48.8048 H   0  0  0  0  0  0  0  0  0  0  0  0
   58.6471   35.9925   47.3545 H   0  0  0  0  0  0  0  0  0  0  0  0
   58.7679   27.5225   44.4885 H   0  0  0  0  0  0  0  0  0  0  0  0
   58.1150   30.9070   46.0420 H   0  0  0  0  0  0  0  0  0  0  0  0
   57.8299   34.9886   45.2339 H   0  0  0  0  0  0  0  0  0  0  0  0
   58.9651   25.1166   43.9373 H   0  0  0  0  0  0  0  0  0  0  0  0
  1  2  1  0
  2  3  2  0
  2  4  1  0
  4  5  1  0
  5  6  2  0
  6  7  1  0
  7  8  2  0
  8  9  1  0
  9 10  2  0
 10 11  1  0
 11 12  1  0
 12 13  2  0
 13 14  1  0
 13 15  1  0
 15 16  2  0
 16 17  1  0
 17 18  2  0
 18 19  1  0
 19 20  2  0
 20 21  1  0
 21 22  2  0
 15 23  1  0
  8 24  1  0
 24 25  2  0
 25  5  1  0
 23 10  1  0
 22 17  1  0
  1 26  1  0
  1 27  1  0
  1 28  1  0
  4 29  1  0
  6 30  1  0
  7 31  1  0
 11 32  1  0
 12 33  1  0
 18 34  1  0
 19 35  1  0
 20 36  1  0
 21 37  1  0
 22 38  1  0
 23 39  1  0
 24 40  1  0
 25 41  1  0
M  END
>  <smiles>  (52) 
CC(=O)Nc1ccc(N=c2[nH]cc(Br)c(=Nc3ccccc3)[nH]2)cc1

>  <score_type>  (52) 
oracle

>  <origin>  (52) 
adg

>  <m_score__min__energy>  (52) 
-8.2699999999999996

>  <m_primary>  (52) 
energy

$$$$
52:0
     RDKit          3D

 32 34  0  0  0  0  0  0  0  0999 V2000
   61.3754   34.9923   46.4864 H   0  0  0  0  0  0  0  0  0  0  0  0
   60.8980   34.0030   46.5450 C   0  0  0  0  0  0  0  0  0  0  0  0
   59.5840   33.8350   46.0980 C   0  0  0  0  0  0  0  0  0  0  0  0
   59.0287   34.6960   45.6976 H   0  0  0  0  0  0  0  0  0  0  0  0
   58.9680   32.5730   46.1570 C   0  0  0  0  0  0  0  0  0  0  0  0
   57.5760   32.3820   45.6800 C   0  0  0  0  0  0  0  0  0  0  0  0
   56.6590   33.1080   46.1480 O   0  0  0  0  0  0  0  0  0  0  0  0
   57.2460   31.4420   44.6470 N   0  0  0  0  0  0  0  0  0  0  0  0
   57.0310   30.1690   44.8120 C   0  0  0  0  0  0  0  0  0  0  0  0
   55.8210   29.6740   45.1290 N   0  0  0  0  0  0  0  0  0  0  0  0
   55.9510   28.3630   45.2490 N   0  0  0  0  0  0  0  0  0  0  0  0
   55.1540   27.7270   45.4710 H   0  0  0  0  0  0  0  0  0  0  0  0
   57.2330   28.0080   45.0190 C   0  0  0  0  0  0  0  0  0  0  0  0
   57.7530   26.6190   45.0640 C   0  0  0  0  0  0  0  0  0  0  0  0
   57.2340   25.6330   44.2040 C   0  0  0  0  0  0  0  0  0  0  0  0
   56.4375   25.8944   43.4918 H   0  0  0  0  0  0  0  0  0  0  0  0
   57.7230   24.3240   44.2480 C   0  0  0  0  0  0  0  0  0  0  0  0
   57.3093   23.5607   43.5725 H   0  0  0  0  0  0  0  0  0  0  0  0
   58.7360   23.9830   45.1480 C   0  0  0  0  0  0  0  0  0  0  0  0
   59.4020   22.1940   45.2060 Br  0  0  0  0  0  0  0  0  0  0  0  0
   59.2600   24.9530   46.0060 C   0  0  0  0  0  0  0  0  0  0  0  0
   60.0575   24.6849   46.7146 H   0  0  0  0  0  0  0  0  0  0  0  0
   58.7740   26.2640   45.9670 C   0  0  0  0  0  0  0  0  0  0  0  0
   59.1917   27.0223   46.6456 H   0  0  0  0  0  0  0  0  0  0  0  0
   57.9660   29.1490   44.7390 C   0  0  0  0  0  0  0  0  0  0  0  0
   59.0394   29.2273   44.5118 H   0  0  0  0  0  0  0  0  0  0  0  0
   59.6840   31.4890   46.6980 C   0  0  0  0  0  0  0  0  0  0  0  0
   59.2074   30.5002   46.7704 H   0  0  0  0  0  0  0  0  0  0  0  0
   60.9980   31.6620   47.1440 C   0  0  0  0  0  0  0  0  0  0  0  0
   61.5541   30.8076   47.5573 H   0  0  0  0  0  0  0  0  0  0  0  0
   61.6060   32.9170   47.0660 C   0  0  0  0  0  0  0  0  0  0  0  0
   63.4020   33.1500   47.6740 Br  0  0  0  0  0  0  0  0  0  0  0  0
  1  2  1  0
  2  3  2  0
  3  4  1  0
  3  5  1  0
  5  6  1  0
  6  7  2  0
  6  8  1  0
  8  9  2  0
  9 10  1  0
 10 11  1  0
 11 12  1  0
 11 13  1  0
 13 14  1  0
 14 15  2  0
 15 16  1  0
 15 17  1  0
 17 18  1  0
 17 19  2  0
 19 20  1  0
 19 21  1  0
 21 22  1  0
 21 23  2  0
 23 24  1  0
 13 25  2  0
 25 26  1  0
  5 27  2  0
 27 28  1  0
 27 29  1  0
 29 30  1  0
 29 31  2  0
 31 32  1  0
 31  2  1  0
 25  9  1  0
 23 14  1  0
M  CHG  1  10  -1
M  END
>  <UniqueID>  (53) 
47

>  <SMILES>  (53) 
O=C(/N=c1\cc(-c2ccc(Br)cc2)[nH][n-]1)c1ccc(Br)cc1

>  <Energy>  (53) 
75.71561602166777

>  <Genealogy>  (53) 
O=C(N=c1cc(-c2ccc(Br)cc2)[nH][n-]1)c1ccc(Br)cc1 (protonated)
O=C(/N=c1\cc(-c2ccc(Br)cc2)[nH][n-]1)c1ccc(Br)cc1 (cis-trans isomerization)
O=C(/N=c1\cc(-c2ccc(Br)cc2)[nH][n-]1)c1ccc(Br)cc1 (3D coordinates assigned)
O=C(/N=c1\cc(-c2ccc(Br)cc2)[nH][n-]1)c1ccc(Br)cc1 (optimized conformer: 75.71561602166777 kcal/mol)

>  <smiles>  (53) 
O=C(N=c1cc(-c2ccc(Br)cc2)[nH][nH]1)c1ccc(Br)cc1

>  <score_type>  (53) 
oracle

>  <origin>  (53) 
adg

>  <m_score__min__energy>  (53) 
-10.08

>  <m_primary>  (53) 
energy

$$$$
53:0
     RDKit          3D

 60 64  0  0  0  0  0  0  0  0999 V2000
   61.3420   29.5150   51.6390 O   0  0  0  0  0  0  0  0  0  0  0  0
   61.3490   30.6370   52.2130 C   0  0  0  0  0  0  0  0  0  0  0  0
   62.5780   31.0990   52.9290 C   0  0  0  0  0  0  0  0  0  0  0  0
   64.0890   30.4450   52.1330 S   0  0  0  0  0  0  0  0  0  0  0  0
   63.8160   31.2880   50.5680 C   0  0  0  0  0  0  0  0  0  0  0  0
   62.8460   30.9090   49.6970 N   0  0  0  0  0  0  0  0  0  0  0  0
   62.8900   31.8380   48.7300 C   0  0  0  0  0  0  0  0  0  0  0  0
   62.1060   31.9530   47.5870 C   0  0  0  0  0  0  0  0  0  0  0  0
   62.3690   33.0450   46.7390 C   0  0  0  0  0  0  0  0  0  0  0  0
   63.3960   33.9620   47.0680 C   0  0  0  0  0  0  0  0  0  0  0  0
   64.1330   33.8000   48.2090 N   0  0  0  0  0  0  0  0  0  0  0  0
   63.8610   32.7450   49.0190 C   0  0  0  0  0  0  0  0  0  0  0  0
   64.4690   32.4170   50.1720 N   0  0  0  0  0  0  0  0  0  0  0  0
   65.5200   33.1290   50.8490 C   0  0  0  0  0  0  0  0  0  0  0  0
   66.8640   32.9060   50.5050 C   0  0  0  0  0  0  0  0  0  0  0  0
   67.8850   33.5930   51.1690 C   0  0  0  0  0  0  0  0  0  0  0  0
   67.5720   34.5050   52.1820 C   0  0  0  0  0  0  0  0  0  0  0  0
   66.2390   34.7290   52.5330 C   0  0  0  0  0  0  0  0  0  0  0  0
   65.2150   34.0400   51.8730 C   0  0  0  0  0  0  0  0  0  0  0  0
   60.1780   31.4590   52.2160 N   0  0  0  0  0  0  0  0  0  0  0  0
   59.8270   32.3730   51.1310 C   0  0  0  0  0  0  0  0  0  0  0  0
   60.9120   33.4580   51.0090 C   0  0  0  0  0  0  0  0  0  0  0  0
   60.8610   34.1980   49.6560 C   0  0  0  0  0  0  0  0  0  0  0  0
   59.5580   33.9830   48.9990 N   0  0  0  0  0  0  0  0  0  0  0  0
   59.2990   34.9200   47.8830 C   0  0  0  0  0  0  0  0  0  0  0  0
   58.7170   34.2590   46.6490 C   0  0  0  0  0  0  0  0  0  0  0  0
   59.4300   34.2560   45.4370 C   0  0  0  0  0  0  0  0  0  0  0  0
   58.8930   33.6380   44.3040 C   0  0  0  0  0  0  0  0  0  0  0  0
   57.6370   33.0300   44.3670 C   0  0  0  0  0  0  0  0  0  0  0  0
   56.9140   33.0390   45.5630 C   0  0  0  0  0  0  0  0  0  0  0  0
   57.4480   33.6540   46.7000 C   0  0  0  0  0  0  0  0  0  0  0  0
   59.3620   32.5650   48.6290 C   0  0  0  0  0  0  0  0  0  0  0  0
   59.6820   31.6110   49.8040 C   0  0  0  0  0  0  0  0  0  0  0  0
   62.6109   32.1984   52.9135 H   0  0  0  0  0  0  0  0  0  0  0  0
   62.5397   30.7278   53.9638 H   0  0  0  0  0  0  0  0  0  0  0  0
   62.1930   30.0960   49.7780 H   0  0  0  0  0  0  0  0  0  0  0  0
   61.3159   31.2233   47.3562 H   0  0  0  0  0  0  0  0  0  0  0  0
   61.7776   33.1857   45.8222 H   0  0  0  0  0  0  0  0  0  0  0  0
   63.6031   34.8117   46.4008 H   0  0  0  0  0  0  0  0  0  0  0  0
   67.1140   32.1880   49.7100 H   0  0  0  0  0  0  0  0  0  0  0  0
   68.9353   33.4159   50.8943 H   0  0  0  0  0  0  0  0  0  0  0  0
   68.3760   35.0460   52.7024 H   0  0  0  0  0  0  0  0  0  0  0  0
   65.9936   35.4476   53.3289 H   0  0  0  0  0  0  0  0  0  0  0  0
   64.1667   34.2129   52.1578 H   0  0  0  0  0  0  0  0  0  0  0  0
   58.8603   32.8460   51.3585 H   0  0  0  0  0  0  0  0  0  0  0  0
   60.7700   34.1908   51.8170 H   0  0  0  0  0  0  0  0  0  0  0  0
   61.8905   32.9605   51.0802 H   0  0  0  0  0  0  0  0  0  0  0  0
   61.0072   35.2748   49.8265 H   0  0  0  0  0  0  0  0  0  0  0  0
   61.6567   33.8058   49.0055 H   0  0  0  0  0  0  0  0  0  0  0  0
   58.5915   35.6868   48.2316 H   0  0  0  0  0  0  0  0  0  0  0  0
   60.2707   35.3442   47.5900 H   0  0  0  0  0  0  0  0  0  0  0  0
   60.4150   34.7423   45.3802 H   0  0  0  0  0  0  0  0  0  0  0  0
   59.4603   33.6305   43.3616 H   0  0  0  0  0  0  0  0  0  0  0  0
   57.2166   32.5437   43.4744 H   0  0  0  0  0  0  0  0  0  0  0  0
   55.9240   32.5619   45.6102 H   0  0  0  0  0  0  0  0  0  0  0  0
   56.8734   33.6647   47.6379 H   0  0  0  0  0  0  0  0  0  0  0  0
   58.3145   32.4181   48.3272 H   0  0  0  0  0  0  0  0  0  0  0  0
   60.0501   32.3306   47.8034 H   0  0  0  0  0  0  0  0  0  0  0  0
   58.8671   30.8785   49.9007 H   0  0  0  0  0  0  0  0  0  0  0  0
   60.6379   31.1108   49.5893 H   0  0  0  0  0  0  0  0  0  0  0  0
  1  2  2  0
  2  3  1  0
  3  4  1  0
  4  5  1  0
  5  6  2  0
  6  7  1  0
  7  8  2  0
  8  9  1  0
  9 10  2  0
 10 11  1  0
 11 12  2  0
 12 13  1  0
 13 14  1  0
 14 15  2  0
 15 16  1  0
 16 17  2  0
 17 18  1  0
 18 19  2  0
  2 20  1  0
 20 21  1  0
 21 22  1  0
 22 23  1  0
 23 24  1  0
 24 25  1  0
 25 26  1  0
 26 27  2  0
 27 28  1  0
 28 29  2  0
 29 30  1  0
 30 31  2  0
 24 32  1  0
 32 33  1  0
 13  5  1  0
 19 14  1  0
 33 21  1  0
 12  7  1  0
 31 26  1  0
  3 34  1  0
  3 35  1  0
  6 36  1  0
  8 37  1  0
  9 38  1  0
 10 39  1  0
 15 40  1  0
 16 41  1  0
 17 42  1  0
 18 43  1  0
 19 44  1  0
 21 45  1  0
 22 46  1  0
 22 47  1  0
 23 48  1  0
 23 49  1  0
 25 50  1  0
 25 51  1  0
 27 52  1  0
 28 53  1  0
 29 54  1  0
 30 55  1  0
 31 56  1  0
 32 57  1  0
 32 58  1  0
 33 59  1  0
 33 60  1  0
M  CHG  2   6   1  20  -1
M  END
>  <UniqueID>  (54) 
48

>  <SMILES>  (54) 
O=C(CSc1[nH+]c2cccnc2n1-c1ccccc1)[N-]C1CCN(Cc2ccccc2)CC1

>  <Energy>  (54) 
112.62822880715665

>  <Genealogy>  (54) 
O=C(CSc1[nH+]c2cccnc2n1-c1ccccc1)[N-]C1CCN(Cc2ccccc2)CC1 (protonated)
O=C(CSc1[nH+]c2cccnc2n1-c1ccccc1)[N-]C1CCN(Cc2ccccc2)CC1 (3D coordinates assigned)
O=C(CSc1[nH+]c2cccnc2n1-c1ccccc1)[N-]C1CCN(Cc2ccccc2)CC1 (nonaromatic ring conformer: 112.62822880715665 kcal/mol)

>  <smiles>  (54) 
O=C(CSc1nc2cccnc2n1-c1ccccc1)NC1CCN(Cc2ccccc2)CC1

>  <score_type>  (54) 
oracle

>  <origin>  (54) 
adg

>  <m_score__min__energy>  (54) 
-10.390000000000001

>  <m_primary>  (54) 
energy

$$$$
54:0
     RDKit          3D

 54 56  0  0  0  0  0  0  0  0999 V2000
   58.4990   32.6140   48.2920 C   0  0  0  0  0  0  0  0  0  0  0  0
   59.5430   33.6910   48.5780 C   0  0  0  0  0  0  0  0  0  0  0  0
   59.9280   34.3970   47.3310 N   0  0  0  0  0  0  0  0  0  0  0  0
   58.8340   34.3580   46.3270 C   0  0  0  0  0  0  0  0  0  0  0  0
   59.2890   34.6430   44.8880 C   0  0  0  0  0  0  0  0  0  0  0  0
   61.2420   33.9210   46.8220 C   0  0  0  0  0  0  0  0  0  0  0  0
   62.2570   33.6170   47.9450 C   0  0  0  0  0  0  0  0  0  0  0  0
   62.9190   32.2330   47.8230 C   0  0  0  0  0  0  0  0  0  0  0  0
   61.9160   31.1210   47.7740 C   0  0  0  0  0  0  0  0  0  0  0  0
   61.4790   30.4750   46.6150 C   0  0  0  0  0  0  0  0  0  0  0  0
   60.4750   29.5350   46.8800 C   0  0  0  0  0  0  0  0  0  0  0  0
   59.7900   28.7370   45.9640 C   0  0  0  0  0  0  0  0  0  0  0  0
   60.0860   28.7900   44.7370 O   0  0  0  0  0  0  0  0  0  0  0  0
   58.7890   27.9080   46.4190 N   0  0  0  0  0  0  0  0  0  0  0  0
   58.0020   27.0730   45.4950 C   0  0  0  0  0  0  0  0  0  0  0  0
   56.5300   27.3270   45.6910 C   0  0  0  0  0  0  0  0  0  0  0  0
   55.8570   26.5150   46.3820 O   0  0  0  0  0  0  0  0  0  0  0  0
   55.9050   28.5400   45.2430 N   0  0  0  0  0  0  0  0  0  0  0  0
   56.5540   29.6060   44.5360 C   0  0  0  0  0  0  0  0  0  0  0  0
   57.3880   30.4860   45.2420 C   0  0  0  0  0  0  0  0  0  0  0  0
   58.0210   31.5430   44.5780 C   0  0  0  0  0  0  0  0  0  0  0  0
   57.8020   31.7430   43.2100 C   0  0  0  0  0  0  0  0  0  0  0  0
   58.4070   32.7730   42.5680 F   0  0  0  0  0  0  0  0  0  0  0  0
   56.9480   30.8850   42.5070 C   0  0  0  0  0  0  0  0  0  0  0  0
   56.3190   29.8240   43.1690 C   0  0  0  0  0  0  0  0  0  0  0  0
   58.4900   27.8590   47.7630 C   0  0  0  0  0  0  0  0  0  0  0  0
   59.1700   28.6280   48.6610 N   0  0  0  0  0  0  0  0  0  0  0  0
   60.1440   29.4500   48.2120 C   0  0  0  0  0  0  0  0  0  0  0  0
   61.0690   30.5240   49.1170 S   0  0  0  0  0  0  0  0  0  0  0  0
   58.1131   32.2159   49.2421 H   0  0  0  0  0  0  0  0  0  0  0  0
   57.6710   33.0502   47.7140 H   0  0  0  0  0  0  0  0  0  0  0  0
   58.9608   31.8000   47.7140 H   0  0  0  0  0  0  0  0  0  0  0  0
   59.1251   34.4182   49.2897 H   0  0  0  0  0  0  0  0  0  0  0  0
   60.4375   33.2109   49.0015 H   0  0  0  0  0  0  0  0  0  0  0  0
   58.3778   33.3574   46.3527 H   0  0  0  0  0  0  0  0  0  0  0  0
   58.1273   35.1559   46.5987 H   0  0  0  0  0  0  0  0  0  0  0  0
   60.2211   35.2268   44.9070 H   0  0  0  0  0  0  0  0  0  0  0  0
   59.4627   33.6920   44.3632 H   0  0  0  0  0  0  0  0  0  0  0  0
   58.5091   35.2143   44.3632 H   0  0  0  0  0  0  0  0  0  0  0  0
   61.0791   33.0018   46.2402 H   0  0  0  0  0  0  0  0  0  0  0  0
   61.6665   34.7294   46.2086 H   0  0  0  0  0  0  0  0  0  0  0  0
   63.0460   34.3830   47.9166 H   0  0  0  0  0  0  0  0  0  0  0  0
   61.6990   33.6239   48.8929 H   0  0  0  0  0  0  0  0  0  0  0  0
   63.5186   32.2085   46.9011 H   0  0  0  0  0  0  0  0  0  0  0  0
   63.5441   32.0810   48.7153 H   0  0  0  0  0  0  0  0  0  0  0  0
   61.8773   30.6808   45.6105 H   0  0  0  0  0  0  0  0  0  0  0  0
   58.2783   27.3179   44.4588 H   0  0  0  0  0  0  0  0  0  0  0  0
   58.2140   26.0131   45.6993 H   0  0  0  0  0  0  0  0  0  0  0  0
   57.5450   30.3447   46.3215 H   0  0  0  0  0  0  0  0  0  0  0  0
   58.6911   32.2171   45.1316 H   0  0  0  0  0  0  0  0  0  0  0  0
   56.7710   31.0447   41.4331 H   0  0  0  0  0  0  0  0  0  0  0  0
   55.6387   29.1591   42.6166 H   0  0  0  0  0  0  0  0  0  0  0  0
   57.6916   27.1902   48.1168 H   0  0  0  0  0  0  0  0  0  0  0  0
   58.9280   28.5930   49.6770 H   0  0  0  0  0  0  0  0  0  0  0  0
  1  2  1  0
  2  3  1  0
  3  4  1  0
  4  5  1  0
  3  6  1  0
  6  7  1  0
  7  8  1  0
  8  9  1  0
  9 10  2  0
 10 11  1  0
 11 12  1  0
 12 13  2  0
 12 14  1  0
 14 15  1  0
 15 16  1  0
 16 17  2  0
 16 18  1  0
 18 19  1  0
 19 20  2  0
 20 21  1  0
 21 22  2  0
 22 23  1  0
 22 24  1  0
 24 25  2  0
 14 26  1  0
 26 27  2  0
 27 28  1  0
 28 29  1  0
 29  9  1  0
 28 11  2  0
 25 19  1  0
  1 30  1  0
  1 31  1  0
  1 32  1  0
  2 33  1  0
  2 34  1  0
  4 35  1  0
  4 36  1  0
  5 37  1  0
  5 38  1  0
  5 39  1  0
  6 40  1  0
  6 41  1  0
  7 42  1  0
  7 43  1  0
  8 44  1  0
  8 45  1  0
 10 46  1  0
 15 47  1  0
 15 48  1  0
 20 49  1  0
 21 50  1  0
 24 51  1  0
 25 52  1  0
 26 53  1  0
 27 54  1  0
M  CHG  2  18  -1  27   1
M  END
>  <UniqueID>  (55) 
49

>  <SMILES>  (55) 
CCN(CC)CCCc1cc2c(=O)n(CC(=O)[N-]c3ccc(F)cc3)c[nH+]c2s1

>  <Energy>  (55) 
93.03725980227802

>  <Genealogy>  (55) 
CCN(CC)CCCc1cc2c(=O)n(CC(=O)[N-]c3ccc(F)cc3)c[nH+]c2s1 (protonated)
CCN(CC)CCCc1cc2c(=O)n(CC(=O)[N-]c3ccc(F)cc3)c[nH+]c2s1 (3D coordinates assigned)
CCN(CC)CCCc1cc2c(=O)n(CC(=O)[N-]c3ccc(F)cc3)c[nH+]c2s1 (optimized conformer: 93.03725980227802 kcal/mol)

>  <smiles>  (55) 
CCN(CC)CCCc1cc2c(=O)n(CC(=O)Nc3ccc(F)cc3)cnc2s1

>  <score_type>  (55) 
oracle

>  <origin>  (55) 
adg

>  <m_score__min__energy>  (55) 
-8.6199999999999992

>  <m_primary>  (55) 
energy

$$$$
55:0
     RDKit          3D

 46 48  0  0  0  0  0  0  0  0999 V2000
   57.4080   21.5460   43.4900 C   0  0  0  0  0  0  0  0  0  0  0  0
   56.2340   22.2220   43.0970 O   0  0  0  0  0  0  0  0  0  0  0  0
   56.0180   23.3550   43.9170 C   0  0  0  0  0  0  0  0  0  0  0  0
   57.3460   24.0650   44.1960 C   0  0  0  0  0  0  0  0  0  0  0  0
   57.1840   25.5190   44.1550 N   0  0  0  0  0  0  0  0  0  0  0  0
   57.2350   26.3070   45.3530 C   0  0  0  0  0  0  0  0  0  0  0  0
   57.4150   25.7430   46.4670 O   0  0  0  0  0  0  0  0  0  0  0  0
   57.0810   27.7730   45.3150 C   0  0  0  0  0  0  0  0  0  0  0  0
   58.0860   28.7190   45.3590 C   0  0  0  0  0  0  0  0  0  0  0  0
   57.4160   29.9290   45.3010 C   0  0  0  0  0  0  0  0  0  0  0  0
   58.0230   31.2840   45.3210 C   0  0  0  0  0  0  0  0  0  0  0  0
   58.7170   31.7400   46.4590 C   0  0  0  0  0  0  0  0  0  0  0  0
   59.2800   33.0250   46.4930 C   0  0  0  0  0  0  0  0  0  0  0  0
   60.0160   33.4910   47.6860 C   0  0  0  0  0  0  0  0  0  0  0  0
   59.3690   33.9910   48.6450 O   0  0  0  0  0  0  0  0  0  0  0  0
   61.4490   33.3820   47.7790 N   0  0  0  0  0  0  0  0  0  0  0  0
   62.2320   34.1460   48.7340 C   0  0  0  0  0  0  0  0  0  0  0  0
   63.5960   33.4710   48.7910 C   0  0  0  0  0  0  0  0  0  0  0  0
   63.6640   32.5550   47.5720 C   0  0  0  0  0  0  0  0  0  0  0  0
   62.2230   32.3300   47.1360 C   0  0  0  0  0  0  0  0  0  0  0  0
   59.1880   33.8480   45.3630 C   0  0  0  0  0  0  0  0  0  0  0  0
   58.5090   33.4050   44.2260 C   0  0  0  0  0  0  0  0  0  0  0  0
   57.9260   32.1360   44.2000 C   0  0  0  0  0  0  0  0  0  0  0  0
   57.2620   31.7500   43.0810 F   0  0  0  0  0  0  0  0  0  0  0  0
   56.0890   29.6970   45.2300 N   0  0  0  0  0  0  0  0  0  0  0  0
   55.8860   28.3890   45.2380 N   0  0  0  0  0  0  0  0  0  0  0  0
   57.4628   21.5145   44.5882 H   0  0  0  0  0  0  0  0  0  0  0  0
   57.3902   20.5199   43.0941 H   0  0  0  0  0  0  0  0  0  0  0  0
   58.2865   22.0765   43.0941 H   0  0  0  0  0  0  0  0  0  0  0  0
   55.3350   24.0492   43.4055 H   0  0  0  0  0  0  0  0  0  0  0  0
   55.5769   23.0298   44.8707 H   0  0  0  0  0  0  0  0  0  0  0  0
   57.7080   23.7717   45.1925 H   0  0  0  0  0  0  0  0  0  0  0  0
   58.0690   23.7717   43.4206 H   0  0  0  0  0  0  0  0  0  0  0  0
   57.0270   25.9890   43.2350 H   0  0  0  0  0  0  0  0  0  0  0  0
   59.1709   28.5498   45.4250 H   0  0  0  0  0  0  0  0  0  0  0  0
   58.8190   31.0798   47.3329 H   0  0  0  0  0  0  0  0  0  0  0  0
   62.3347   35.1883   48.3977 H   0  0  0  0  0  0  0  0  0  0  0  0
   61.7515   34.1693   49.7232 H   0  0  0  0  0  0  0  0  0  0  0  0
   64.3969   34.2238   48.7485 H   0  0  0  0  0  0  0  0  0  0  0  0
   63.7275   32.9071   49.7263 H   0  0  0  0  0  0  0  0  0  0  0  0
   64.2372   33.0346   46.7649 H   0  0  0  0  0  0  0  0  0  0  0  0
   64.1665   31.6055   47.8087 H   0  0  0  0  0  0  0  0  0  0  0  0
   62.1371   32.4046   46.0419 H   0  0  0  0  0  0  0  0  0  0  0  0
   61.8639   31.3298   47.4201 H   0  0  0  0  0  0  0  0  0  0  0  0
   59.6517   34.8455   45.3714 H   0  0  0  0  0  0  0  0  0  0  0  0
   58.4328   34.0596   43.3453 H   0  0  0  0  0  0  0  0  0  0  0  0
  1  2  1  0
  2  3  1  0
  3  4  1  0
  4  5  1  0
  5  6  1  0
  6  7  2  0
  6  8  1  0
  8  9  2  0
  9 10  1  0
 10 11  1  0
 11 12  2  0
 12 13  1  0
 13 14  1  0
 14 15  2  0
 14 16  1  0
 16 17  1  0
 17 18  1  0
 18 19  1  0
 19 20  1  0
 13 21  2  0
 21 22  1  0
 22 23  2  0
 23 24  1  0
 10 25  2  0
 25 26  1  0
 26  8  1  0
 23 11  1  0
 20 16  1  0
  1 27  1  0
  1 28  1  0
  1 29  1  0
  3 30  1  0
  3 31  1  0
  4 32  1  0
  4 33  1  0
  5 34  1  0
  9 35  1  0
 12 36  1  0
 17 37  1  0
 17 38  1  0
 18 39  1  0
 18 40  1  0
 19 41  1  0
 19 42  1  0
 20 43  1  0
 20 44  1  0
 21 45  1  0
 22 46  1  0
M  CHG  1  26  -1
M  END
>  <UniqueID>  (56) 
50

>  <SMILES>  (56) 
COCCNC(=O)c1cc(-c2cc(C(=O)N3CCCC3)ccc2F)n[n-]1

>  <Energy>  (56) 
80.5654924394223

>  <Genealogy>  (56) 
COCCNC(=O)c1cc(-c2cc(C(=O)N3CCCC3)ccc2F)n[n-]1 (protonated)
COCCNC(=O)c1cc(-c2cc(C(=O)N3CCCC3)ccc2F)n[n-]1 (3D coordinates assigned)
COCCNC(=O)c1cc(-c2cc(C(=O)N3CCCC3)ccc2F)n[n-]1 (nonaromatic ring conformer: 80.5654924394223 kcal/mol)

>  <smiles>  (56) 
COCCNC(=O)c1cc(-c2cc(C(=O)N3CCCC3)ccc2F)n[nH]1

>  <score_type>  (56) 
oracle

>  <origin>  (56) 
adg

>  <m_score__min__energy>  (56) 
-10.94

>  <m_primary>  (56) 
energy

$$$$
56:0
     RDKit          3D

 39 41  0  0  0  0  0  0  0  0999 V2000
   59.6252   33.8552   48.8755 H   0  0  0  0  0  0  0  0  0  0  0  0
   59.2090   33.6150   47.8860 C   0  0  0  0  0  0  0  0  0  0  0  0
   58.8720   34.6410   47.0930 C   0  0  0  0  0  0  0  0  0  0  0  0
   58.8639   35.6533   47.5232 H   0  0  0  0  0  0  0  0  0  0  0  0
   58.5210   34.4850   45.7100 N   0  0  0  0  0  0  0  0  0  0  0  0
   57.1240   34.2150   45.3760 C   0  0  0  0  0  0  0  0  0  0  0  0
   56.5408   34.1023   46.3019 H   0  0  0  0  0  0  0  0  0  0  0  0
   56.7194   35.0516   44.7874 H   0  0  0  0  0  0  0  0  0  0  0  0
   57.0603   33.2879   44.7874 H   0  0  0  0  0  0  0  0  0  0  0  0
   59.5600   34.2290   44.7110 C   0  0  0  0  0  0  0  0  0  0  0  0
   60.5074   33.9956   45.2189 H   0  0  0  0  0  0  0  0  0  0  0  0
   59.2618   33.3775   44.0817 H   0  0  0  0  0  0  0  0  0  0  0  0
   59.6915   35.1216   44.0817 H   0  0  0  0  0  0  0  0  0  0  0  0
   59.0660   32.1870   47.5370 C   0  0  0  0  0  0  0  0  0  0  0  0
   59.5850   31.2110   48.3250 N   0  0  0  0  0  0  0  0  0  0  0  0
   59.4310   29.9000   48.0140 C   0  0  0  0  0  0  0  0  0  0  0  0
   59.8660   29.1281   48.6659 H   0  0  0  0  0  0  0  0  0  0  0  0
   58.7210   29.5240   46.8670 C   0  0  0  0  0  0  0  0  0  0  0  0
   58.6430   28.0900   46.5120 C   0  0  0  0  0  0  0  0  0  0  0  0
   57.3950   27.4710   46.3400 C   0  0  0  0  0  0  0  0  0  0  0  0
   56.4713   28.0572   46.4549 H   0  0  0  0  0  0  0  0  0  0  0  0
   57.3230   26.1110   46.0230 C   0  0  0  0  0  0  0  0  0  0  0  0
   56.3431   25.6316   45.8819 H   0  0  0  0  0  0  0  0  0  0  0  0
   58.4940   25.3590   45.8850 C   0  0  0  0  0  0  0  0  0  0  0  0
   58.4350   24.2902   45.6317 H   0  0  0  0  0  0  0  0  0  0  0  0
   59.7390   25.9660   46.0690 C   0  0  0  0  0  0  0  0  0  0  0  0
   60.6596   25.3734   45.9628 H   0  0  0  0  0  0  0  0  0  0  0  0
   59.8170   27.3260   46.3880 C   0  0  0  0  0  0  0  0  0  0  0  0
   60.7984   27.7984   46.5421 H   0  0  0  0  0  0  0  0  0  0  0  0
   58.1490   30.5480   46.0770 C   0  0  0  0  0  0  0  0  0  0  0  0
   57.2970   30.2740   44.8980 C   0  0  0  0  0  0  0  0  0  0  0  0
   56.0600   29.8340   44.9490 O   0  0  0  0  0  0  0  0  0  0  0  0
   55.5990   29.7200   43.7250 C   0  0  0  0  0  0  0  0  0  0  0  0
   54.5914   29.3694   43.4572 H   0  0  0  0  0  0  0  0  0  0  0  0
   56.5710   30.1070   42.8260 C   0  0  0  0  0  0  0  0  0  0  0  0
   56.4890   30.1226   41.7292 H   0  0  0  0  0  0  0  0  0  0  0  0
   57.6650   30.4700   43.5800 C   0  0  0  0  0  0  0  0  0  0  0  0
   58.6325   30.8398   43.2096 H   0  0  0  0  0  0  0  0  0  0  0  0
   58.3430   31.8460   46.4390 N   0  0  0  0  0  0  0  0  0  0  0  0
  1  2  1  0
  2  3  2  0
  3  4  1  0
  3  5  1  0
  5  6  1  0
  6  7  1  0
  6  8  1  0
  6  9  1  0
  5 10  1  0
 10 11  1  0
 10 12  1  0
 10 13  1  0
  2 14  1  0
 14 15  2  0
 15 16  1  0
 16 17  1  0
 16 18  2  0
 18 19  1  0
 19 20  2  0
 20 21  1  0
 20 22  1  0
 22 23  1  0
 22 24  2  0
 24 25  1  0
 24 26  1  0
 26 27  1  0
 26 28  2  0
 28 29  1  0
 18 30  1  0
 30 31  1  0
 31 32  1  0
 32 33  1  0
 33 34  1  0
 33 35  2  0
 35 36  1  0
 35 37  1  0
 37 38  1  0
 30 39  2  0
 39 14  1  0
 28 19  1  0
 37 31  2  0
M  END
>  <UniqueID>  (57) 
51

>  <SMILES>  (57) 
CN(C)/C=C\c1ncc(-c2ccccc2)c(-c2ccco2)n1

>  <Energy>  (57) 
80.50526917531691

>  <Genealogy>  (57) 
CN(C)/C=C\c1ncc(-c2ccccc2)c(-c2ccco2)n1 (cis-trans isomerization)
CN(C)/C=C\c1ncc(-c2ccccc2)c(-c2ccco2)n1 (3D coordinates assigned)
CN(C)/C=C\c1ncc(-c2ccccc2)c(-c2ccco2)n1 (optimized conformer: 80.50526917531691 kcal/mol)

>  <smiles>  (57) 
CN(C)C=Cc1ncc(-c2ccccc2)c(-c2ccco2)n1

>  <score_type>  (57) 
oracle

>  <origin>  (57) 
adg

>  <m_score__min__energy>  (57) 
-6.7699999999999996

>  <m_primary>  (57) 
energy

$$$$
57:0
     RDKit          3D

 44 46  0  0  0  0  0  0  0  0999 V2000
   63.3600   32.8860   48.0470 N   0  0  0  0  0  0  0  0  0  0  0  0
   62.6120   33.4440   46.9660 C   0  0  0  0  0  0  0  0  0  0  0  0
   63.2240   33.8450   45.9390 O   0  0  0  0  0  0  0  0  0  0  0  0
   61.1340   33.5230   47.0140 C   0  0  0  0  0  0  0  0  0  0  0  0
   60.4830   34.5420   46.2960 C   0  0  0  0  0  0  0  0  0  0  0  0
   59.0920   34.6450   46.3130 C   0  0  0  0  0  0  0  0  0  0  0  0
   58.3350   33.7420   47.0550 C   0  0  0  0  0  0  0  0  0  0  0  0
   58.9650   32.7380   47.7930 C   0  0  0  0  0  0  0  0  0  0  0  0
   60.3700   32.6210   47.7900 C   0  0  0  0  0  0  0  0  0  0  0  0
   61.0320   31.6410   48.5500 O   0  0  0  0  0  0  0  0  0  0  0  0
   61.6740   30.4750   48.0310 C   0  0  0  0  0  0  0  0  0  0  0  0
   60.6640   29.5760   47.3740 C   0  0  0  0  0  0  0  0  0  0  0  0
   60.6690   29.3820   45.9840 C   0  0  0  0  0  0  0  0  0  0  0  0
   59.6900   28.5880   45.3810 C   0  0  0  0  0  0  0  0  0  0  0  0
   58.6950   27.9770   46.1620 C   0  0  0  0  0  0  0  0  0  0  0  0
   57.6580   27.1850   45.5660 N   0  0  0  0  0  0  0  0  0  0  0  0
   56.2570   27.4850   45.6200 C   0  0  0  0  0  0  0  0  0  0  0  0
   55.4600   26.6080   46.0400 O   0  0  0  0  0  0  0  0  0  0  0  0
   55.7390   28.7590   45.2070 N   0  0  0  0  0  0  0  0  0  0  0  0
   56.4680   29.7720   44.5000 C   0  0  0  0  0  0  0  0  0  0  0  0
   56.2610   29.9210   43.1220 C   0  0  0  0  0  0  0  0  0  0  0  0
   56.9540   30.9020   42.4060 C   0  0  0  0  0  0  0  0  0  0  0  0
   57.8520   31.7460   43.0640 C   0  0  0  0  0  0  0  0  0  0  0  0
   58.0510   31.6180   44.4410 C   0  0  0  0  0  0  0  0  0  0  0  0
   57.3530   30.6430   45.1610 C   0  0  0  0  0  0  0  0  0  0  0  0
   58.7160   28.1350   47.5520 C   0  0  0  0  0  0  0  0  0  0  0  0
   59.6870   28.9410   48.1540 C   0  0  0  0  0  0  0  0  0  0  0  0
   62.8880   32.3840   48.8310 H   0  0  0  0  0  0  0  0  0  0  0  0
   64.4040   32.8900   48.0180 H   0  0  0  0  0  0  0  0  0  0  0  0
   61.0760   35.2643   45.7158 H   0  0  0  0  0  0  0  0  0  0  0  0
   58.5927   35.4401   45.7398 H   0  0  0  0  0  0  0  0  0  0  0  0
   57.2378   33.8198   47.0598 H   0  0  0  0  0  0  0  0  0  0  0  0
   58.3601   32.0325   48.3816 H   0  0  0  0  0  0  0  0  0  0  0  0
   62.4295   30.7754   47.2901 H   0  0  0  0  0  0  0  0  0  0  0  0
   62.1546   29.9315   48.8578 H   0  0  0  0  0  0  0  0  0  0  0  0
   61.4463   29.8566   45.3671 H   0  0  0  0  0  0  0  0  0  0  0  0
   59.6985   28.4409   44.2909 H   0  0  0  0  0  0  0  0  0  0  0  0
   55.5499   29.2630   42.6011 H   0  0  0  0  0  0  0  0  0  0  0  0
   56.7919   31.0093   41.3233 H   0  0  0  0  0  0  0  0  0  0  0  0
   58.4026   32.5116   42.4978 H   0  0  0  0  0  0  0  0  0  0  0  0
   58.7567   32.2841   44.9589 H   0  0  0  0  0  0  0  0  0  0  0  0
   57.4966   30.5570   46.2482 H   0  0  0  0  0  0  0  0  0  0  0  0
   57.9661   27.6234   48.1733 H   0  0  0  0  0  0  0  0  0  0  0  0
   59.6845   29.0777   49.2455 H   0  0  0  0  0  0  0  0  0  0  0  0
  1  2  1  0
  2  3  2  0
  2  4  1  0
  4  5  2  0
  5  6  1  0
  6  7  2  0
  7  8  1  0
  8  9  2  0
  9 10  1  0
 10 11  1  0
 11 12  1  0
 12 13  2  0
 13 14  1  0
 14 15  2  0
 15 16  1  0
 16 17  1  0
 17 18  2  0
 17 19  1  0
 19 20  1  0
 20 21  2  0
 21 22  1  0
 22 23  2  0
 23 24  1  0
 24 25  2  0
 15 26  1  0
 26 27  2  0
  9  4  1  0
 27 12  1  0
 25 20  1  0
  1 28  1  0
  1 29  1  0
  5 30  1  0
  6 31  1  0
  7 32  1  0
  8 33  1  0
 11 34  1  0
 11 35  1  0
 13 36  1  0
 14 37  1  0
 21 38  1  0
 22 39  1  0
 23 40  1  0
 24 41  1  0
 25 42  1  0
 26 43  1  0
 27 44  1  0
M  CHG  2  16  -1  19  -1
M  END
>  <UniqueID>  (58) 
52

>  <SMILES>  (58) 
NC(=O)c1ccccc1OCc1ccc([N-]C(=O)[N-]c2ccccc2)cc1

>  <Energy>  (58) 
54.050088083765

>  <Genealogy>  (58) 
NC(=O)c1ccccc1OCc1ccc([N-]C(=O)[N-]c2ccccc2)cc1 (protonated)
NC(=O)c1ccccc1OCc1ccc([N-]C(=O)[N-]c2ccccc2)cc1 (3D coordinates assigned)
NC(=O)c1ccccc1OCc1ccc([N-]C(=O)[N-]c2ccccc2)cc1 (optimized conformer: 54.050088083765 kcal/mol)

>  <smiles>  (58) 
NC(=O)c1ccccc1OCc1ccc(NC(=O)Nc2ccccc2)cc1

>  <score_type>  (58) 
oracle

>  <origin>  (58) 
adg

>  <m_score__min__energy>  (58) 
-11.84

>  <m_primary>  (58) 
energy

$$$$
58:0
     RDKit          3D

 40 42  0  0  0  0  0  0  0  0999 V2000
   55.2890   29.3250   44.8660 O   0  0  0  0  0  0  0  0  0  0  0  0
   56.4360   29.8480   44.8370 C   0  0  0  0  0  0  0  0  0  0  0  0
   56.5860   31.2280   44.4710 N   0  0  0  0  0  0  0  0  0  0  0  0
   57.3670   32.2150   45.1590 C   0  0  0  0  0  0  0  0  0  0  0  0
   57.4770   33.4940   44.5980 C   0  0  0  0  0  0  0  0  0  0  0  0
   58.2490   34.4760   45.2210 C   0  0  0  0  0  0  0  0  0  0  0  0
   58.9310   34.1870   46.4040 C   0  0  0  0  0  0  0  0  0  0  0  0
   58.8480   32.9050   46.9750 C   0  0  0  0  0  0  0  0  0  0  0  0
   59.5950   32.5880   48.1680 N   0  0  0  0  0  0  0  0  0  0  0  0
   61.0050   32.5880   47.8700 C   0  0  0  0  0  0  0  0  0  0  0  0
   61.7810   33.7430   48.0640 C   0  0  0  0  0  0  0  0  0  0  0  0
   63.1510   33.7190   47.7990 C   0  0  0  0  0  0  0  0  0  0  0  0
   63.7390   32.5360   47.3470 C   0  0  0  0  0  0  0  0  0  0  0  0
   62.9800   31.4220   47.1710 N   0  0  0  0  0  0  0  0  0  0  0  0
   61.6440   31.4190   47.4210 C   0  0  0  0  0  0  0  0  0  0  0  0
   58.0740   31.9180   46.3380 C   0  0  0  0  0  0  0  0  0  0  0  0
   57.6320   29.0240   45.1280 C   0  0  0  0  0  0  0  0  0  0  0  0
   58.8850   29.3690   44.5880 C   0  0  0  0  0  0  0  0  0  0  0  0
   60.0090   28.5830   44.8490 C   0  0  0  0  0  0  0  0  0  0  0  0
   61.2070   28.9180   44.3090 F   0  0  0  0  0  0  0  0  0  0  0  0
   59.9020   27.4500   45.6580 C   0  0  0  0  0  0  0  0  0  0  0  0
   58.6690   27.1000   46.2320 C   0  0  0  0  0  0  0  0  0  0  0  0
   58.5410   25.8490   47.0650 C   0  0  0  0  0  0  0  0  0  0  0  0
   57.2100   25.6480   47.3820 F   0  0  0  0  0  0  0  0  0  0  0  0
   59.2710   25.9680   48.2350 F   0  0  0  0  0  0  0  0  0  0  0  0
   59.0110   24.7470   46.3730 F   0  0  0  0  0  0  0  0  0  0  0  0
   57.5340   27.8800   45.9430 C   0  0  0  0  0  0  0  0  0  0  0  0
   56.9513   33.7260   43.6600 H   0  0  0  0  0  0  0  0  0  0  0  0
   58.3201   35.4805   44.7784 H   0  0  0  0  0  0  0  0  0  0  0  0
   59.5360   34.9656   46.8916 H   0  0  0  0  0  0  0  0  0  0  0  0
   59.3880   33.2880   48.9200 H   0  0  0  0  0  0  0  0  0  0  0  0
   59.3040   31.6530   48.5370 H   0  0  0  0  0  0  0  0  0  0  0  0
   61.3079   34.6679   48.4254 H   0  0  0  0  0  0  0  0  0  0  0  0
   63.7612   34.6226   47.9447 H   0  0  0  0  0  0  0  0  0  0  0  0
   64.8176   32.5054   47.1331 H   0  0  0  0  0  0  0  0  0  0  0  0
   61.0606   30.4985   47.2715 H   0  0  0  0  0  0  0  0  0  0  0  0
   58.0213   30.9058   46.7655 H   0  0  0  0  0  0  0  0  0  0  0  0
   58.9795   30.2642   43.9558 H   0  0  0  0  0  0  0  0  0  0  0  0
   60.7891   26.8276   45.8469 H   0  0  0  0  0  0  0  0  0  0  0  0
   56.5573   27.5922   46.3593 H   0  0  0  0  0  0  0  0  0  0  0  0
  1  2  2  0
  2  3  1  0
  3  4  1  0
  4  5  2  0
  5  6  1  0
  6  7  2  0
  7  8  1  0
  8  9  1  0
  9 10  1  0
 10 11  2  0
 11 12  1  0
 12 13  2  0
 13 14  1  0
 14 15  2  0
  8 16  2  0
  2 17  1  0
 17 18  2  0
 18 19  1  0
 19 20  1  0
 19 21  2  0
 21 22  1  0
 22 23  1  0
 23 24  1  0
 23 25  1  0
 23 26  1  0
 22 27  2  0
 16  4  1  0
 27 17  1  0
 15 10  1  0
  5 28  1  0
  6 29  1  0
  7 30  1  0
  9 31  1  0
  9 32  1  0
 11 33  1  0
 12 34  1  0
 13 35  1  0
 15 36  1  0
 16 37  1  0
 18 38  1  0
 21 39  1  0
 27 40  1  0
M  CHG  2   3  -1   9   1
M  END
>  <UniqueID>  (59) 
53

>  <SMILES>  (59) 
O=C([N-]c1cccc([NH2+]c2cccnc2)c1)c1cc(F)cc(C(F)(F)F)c1

>  <Energy>  (59) 
50.364927905124404

>  <Genealogy>  (59) 
O=C([N-]c1cccc([NH2+]c2cccnc2)c1)c1cc(F)cc(C(F)(F)F)c1 (protonated)
O=C([N-]c1cccc([NH2+]c2cccnc2)c1)c1cc(F)cc(C(F)(F)F)c1 (3D coordinates assigned)
O=C([N-]c1cccc([NH2+]c2cccnc2)c1)c1cc(F)cc(C(F)(F)F)c1 (optimized conformer: 50.364927905124404 kcal/mol)

>  <smiles>  (59) 
O=C(Nc1cccc(Nc2cccnc2)c1)c1cc(F)cc(C(F)(F)F)c1

>  <score_type>  (59) 
oracle

>  <origin>  (59) 
adg

>  <m_score__min__energy>  (59) 
-8.1600000000000001

>  <m_primary>  (59) 
energy

$$$$
59:0
     RDKit          3D

 64 67  0  0  0  0  0  0  0  0999 V2000
   57.1202   32.2855   47.7672 H   0  0  0  0  0  0  0  0  0  0  0  0
   58.1740   32.2180   47.4590 C   0  0  0  0  0  0  0  0  0  0  0  0
   58.4380   31.6190   46.2840 C   0  0  0  0  0  0  0  0  0  0  0  0
   60.0430   30.8820   46.0100 S   0  0  0  0  0  0  0  0  0  0  0  0
   59.3110   29.2670   45.7140 C   0  0  0  0  0  0  0  0  0  0  0  0
   59.8630   28.1420   46.3290 C   0  0  0  0  0  0  0  0  0  0  0  0
   60.6876   28.2590   47.0476 H   0  0  0  0  0  0  0  0  0  0  0  0
   59.3720   26.8700   46.0350 C   0  0  0  0  0  0  0  0  0  0  0  0
   59.8228   25.9879   46.5131 H   0  0  0  0  0  0  0  0  0  0  0  0
   58.3060   26.7050   45.1330 C   0  0  0  0  0  0  0  0  0  0  0  0
   57.8250   25.3430   44.8050 C   0  0  0  0  0  0  0  0  0  0  0  0
   57.9670   24.4200   45.6560 O   0  0  0  0  0  0  0  0  0  0  0  0
   57.1970   25.0590   43.5440 N   0  0  0  0  0  0  0  0  0  0  0  0
   56.9810   25.8320   42.8790 H   0  0  0  0  0  0  0  0  0  0  0  0
   56.8010   23.7040   43.1540 C   0  0  0  0  0  0  0  0  0  0  0  0
   56.8783   23.6090   42.0608 H   0  0  0  0  0  0  0  0  0  0  0  0
   57.4701   22.9894   43.6556 H   0  0  0  0  0  0  0  0  0  0  0  0
   55.3570   23.3980   43.5820 C   0  0  0  0  0  0  0  0  0  0  0  0
   54.7432   24.3002   43.4426 H   0  0  0  0  0  0  0  0  0  0  0  0
   54.9795   22.5707   42.9630 H   0  0  0  0  0  0  0  0  0  0  0  0
   55.2910   22.9770   45.0320 C   0  0  0  0  0  0  0  0  0  0  0  0
   54.1930   23.3420   45.8220 C   0  0  0  0  0  0  0  0  0  0  0  0
   53.3626   23.9101   45.3774 H   0  0  0  0  0  0  0  0  0  0  0  0
   54.1490   22.9860   47.1760 C   0  0  0  0  0  0  0  0  0  0  0  0
   53.2774   23.2664   47.7857 H   0  0  0  0  0  0  0  0  0  0  0  0
   55.2130   22.2710   47.7640 C   0  0  0  0  0  0  0  0  0  0  0  0
   55.2040   21.8980   49.1200 O   0  0  0  0  0  0  0  0  0  0  0  0
   54.0500   21.9290   49.9530 C   0  0  0  0  0  0  0  0  0  0  0  0
   54.3594   21.9207   51.0086 H   0  0  0  0  0  0  0  0  0  0  0  0
   53.4736   22.8430   49.7471 H   0  0  0  0  0  0  0  0  0  0  0  0
   53.4253   21.0473   49.7471 H   0  0  0  0  0  0  0  0  0  0  0  0
   56.3270   21.9170   46.9810 C   0  0  0  0  0  0  0  0  0  0  0  0
   57.3830   21.2220   47.5970 O   0  0  0  0  0  0  0  0  0  0  0  0
   57.5520   19.8070   47.5600 C   0  0  0  0  0  0  0  0  0  0  0  0
   57.5987   19.4163   48.5872 H   0  0  0  0  0  0  0  0  0  0  0  0
   56.7021   19.3499   47.0321 H   0  0  0  0  0  0  0  0  0  0  0  0
   58.4857   19.5629   47.0321 H   0  0  0  0  0  0  0  0  0  0  0  0
   56.3570   22.2700   45.6150 C   0  0  0  0  0  0  0  0  0  0  0  0
   57.2242   21.9888   44.9995 H   0  0  0  0  0  0  0  0  0  0  0  0
   57.7300   27.8450   44.5400 C   0  0  0  0  0  0  0  0  0  0  0  0
   56.8870   27.7275   43.8432 H   0  0  0  0  0  0  0  0  0  0  0  0
   58.2200   29.1340   44.8280 C   0  0  0  0  0  0  0  0  0  0  0  0
   57.5520   30.3190   44.3200 N   0  0  0  0  0  0  0  0  0  0  0  0
   56.7960   30.2820   43.0630 C   0  0  0  0  0  0  0  0  0  0  0  0
   55.7197   30.2293   43.2839 H   0  0  0  0  0  0  0  0  0  0  0  0
   57.0069   31.1915   42.4814 H   0  0  0  0  0  0  0  0  0  0  0  0
   57.0947   29.3974   42.4814 H   0  0  0  0  0  0  0  0  0  0  0  0
   57.4920   31.4940   45.1570 C   0  0  0  0  0  0  0  0  0  0  0  0
   56.6640   32.4130   44.9110 O   0  0  0  0  0  0  0  0  0  0  0  0
   59.1890   32.7940   48.3710 C   0  0  0  0  0  0  0  0  0  0  0  0
   59.7250   32.0280   49.4260 C   0  0  0  0  0  0  0  0  0  0  0  0
   59.3457   31.0125   49.6128 H   0  0  0  0  0  0  0  0  0  0  0  0
   60.7350   32.5520   50.2350 C   0  0  0  0  0  0  0  0  0  0  0  0
   61.1343   31.9575   51.0699 H   0  0  0  0  0  0  0  0  0  0  0  0
   61.2390   33.8310   49.9850 C   0  0  0  0  0  0  0  0  0  0  0  0
   62.0390   34.2387   50.6204 H   0  0  0  0  0  0  0  0  0  0  0  0
   60.7310   34.5930   48.9320 C   0  0  0  0  0  0  0  0  0  0  0  0
   61.1326   35.5991   48.7411 H   0  0  0  0  0  0  0  0  0  0  0  0
   59.7060   34.0800   48.1120 C   0  0  0  0  0  0  0  0  0  0  0  0
   59.1780   34.8180   47.0420 O   0  0  0  0  0  0  0  0  0  0  0  0
   59.6530   34.7500   45.6990 C   0  0  0  0  0  0  0  0  0  0  0  0
   60.7419   34.5941   45.7027 H   0  0  0  0  0  0  0  0  0  0  0  0
   59.1645   33.9126   45.1792 H   0  0  0  0  0  0  0  0  0  0  0  0
   59.4190   35.6908   45.1792 H   0  0  0  0  0  0  0  0  0  0  0  0
  1  2  1  0
  2  3  2  0
  3  4  1  0
  4  5  1  0
  5  6  2  0
  6  7  1  0
  6  8  1  0
  8  9  1  0
  8 10  2  0
 10 11  1  0
 11 12  2  0
 11 13  1  0
 13 14  1  0
 13 15  1  0
 15 16  1  0
 15 17  1  0
 15 18  1  0
 18 19  1  0
 18 20  1  0
 18 21  1  0
 21 22  2  0
 22 23  1  0
 22 24  1  0
 24 25  1  0
 24 26  2  0
 26 27  1  0
 27 28  1  0
 28 29  1  0
 28 30  1  0
 28 31  1  0
 26 32  1  0
 32 33  1  0
 33 34  1  0
 34 35  1  0
 34 36  1  0
 34 37  1  0
 32 38  2  0
 38 39  1  0
 10 40  1  0
 40 41  1  0
 40 42  2  0
 42 43  1  0
 43 44  1  0
 44 45  1  0
 44 46  1  0
 44 47  1  0
 43 48  1  0
 48 49  2  0
  2 50  1  0
 50 51  2  0
 51 52  1  0
 51 53  1  0
 53 54  1  0
 53 55  2  0
 55 56  1  0
 55 57  1  0
 57 58  1  0
 57 59  2  0
 59 60  1  0
 60 61  1  0
 61 62  1  0
 61 63  1  0
 61 64  1  0
 48  3  1  0
 59 50  1  0
 42  5  1  0
 38 21  1  0
M  END
>  <UniqueID>  (60) 
54

>  <SMILES>  (60) 
COc1ccccc1/C=C1/Sc2ccc(C(=O)NCCc3ccc(OC)c(OC)c3)cc2N(C)C1=O

>  <Energy>  (60) 
82.0815066685045

>  <Genealogy>  (60) 
COc1ccccc1/C=C1/Sc2ccc(C(=O)NCCc3ccc(OC)c(OC)c3)cc2N(C)C1=O (cis-trans isomerization)
COc1ccccc1/C=C1/Sc2ccc(C(=O)NCCc3ccc(OC)c(OC)c3)cc2N(C)C1=O (3D coordinates assigned)
COc1ccccc1/C=C1/Sc2ccc(C(=O)NCCc3ccc(OC)c(OC)c3)cc2N(C)C1=O (nonaromatic ring conformer: 82.0815066685045 kcal/mol)

>  <smiles>  (60) 
COc1ccccc1C=C1Sc2ccc(C(=O)NCCc3ccc(OC)c(OC)c3)cc2N(C)C1=O

>  <score_type>  (60) 
oracle

>  <origin>  (60) 
adg

>  <m_score__min__energy>  (60) 
-9.1699999999999999

>  <m_primary>  (60) 
energy

$$$$
60:0
     RDKit          3D

 53 54  0  0  0  0  0  0  0  0999 V2000
   60.7640   28.3320   45.0060 C   0  0  0  0  0  0  0  0  0  0  0  0
   59.7790   27.3480   45.6240 C   0  0  0  0  0  0  0  0  0  0  0  0
   59.0190   27.9830   46.7060 N   0  0  0  0  0  0  0  0  0  0  0  0
   57.7770   27.3510   47.1710 C   0  0  0  0  0  0  0  0  0  0  0  0
   56.8490   27.1310   46.0180 C   0  0  0  0  0  0  0  0  0  0  0  0
   57.2540   27.3180   44.8360 O   0  0  0  0  0  0  0  0  0  0  0  0
   55.5120   26.6730   46.2650 N   0  0  0  0  0  0  0  0  0  0  0  0
   54.9370   25.4960   45.6260 C   0  0  0  0  0  0  0  0  0  0  0  0
   55.6310   24.2560   46.1120 C   0  0  0  0  0  0  0  0  0  0  0  0
   56.7150   23.7230   45.3940 C   0  0  0  0  0  0  0  0  0  0  0  0
   57.3870   22.5950   45.8680 C   0  0  0  0  0  0  0  0  0  0  0  0
   56.9900   21.9790   47.0580 C   0  0  0  0  0  0  0  0  0  0  0  0
   57.6930   20.8430   47.4900 O   0  0  0  0  0  0  0  0  0  0  0  0
   57.7340   19.6100   46.7830 C   0  0  0  0  0  0  0  0  0  0  0  0
   55.9030   22.5130   47.7770 C   0  0  0  0  0  0  0  0  0  0  0  0
   55.2370   23.6480   47.3110 C   0  0  0  0  0  0  0  0  0  0  0  0
   59.5930   29.1170   47.3960 C   0  0  0  0  0  0  0  0  0  0  0  0
   60.5520   28.9480   48.1910 O   0  0  0  0  0  0  0  0  0  0  0  0
   59.0710   30.4830   47.2170 C   0  0  0  0  0  0  0  0  0  0  0  0
   59.4510   31.4740   48.1330 C   0  0  0  0  0  0  0  0  0  0  0  0
   58.9920   32.7840   47.9960 C   0  0  0  0  0  0  0  0  0  0  0  0
   58.1490   33.1120   46.9390 C   0  0  0  0  0  0  0  0  0  0  0  0
   57.7910   32.1430   45.9990 C   0  0  0  0  0  0  0  0  0  0  0  0
   58.2560   30.8240   46.1190 C   0  0  0  0  0  0  0  0  0  0  0  0
   57.9450   29.8570   45.0990 N   0  0  0  0  0  0  0  0  0  0  0  0
   56.8220   30.2180   43.8310 S   0  0  0  0  0  0  0  0  0  0  0  0
   57.3870   31.6010   42.8710 C   0  0  0  0  0  0  0  0  0  0  0  0
   55.4920   30.5650   44.4320 O   0  0  0  0  0  0  0  0  0  0  0  0
   56.6580   29.0120   42.9560 O   0  0  0  0  0  0  0  0  0  0  0  0
   61.2988   28.8662   45.8052 H   0  0  0  0  0  0  0  0  0  0  0  0
   61.4870   27.7848   44.3833 H   0  0  0  0  0  0  0  0  0  0  0  0
   60.2175   29.0556   44.3833 H   0  0  0  0  0  0  0  0  0  0  0  0
   59.0807   27.0012   44.8480 H   0  0  0  0  0  0  0  0  0  0  0  0
   60.3419   26.4990   46.0392 H   0  0  0  0  0  0  0  0  0  0  0  0
   58.0137   26.3832   47.6373 H   0  0  0  0  0  0  0  0  0  0  0  0
   57.2900   28.0107   47.9043 H   0  0  0  0  0  0  0  0  0  0  0  0
   53.8667   25.4344   45.8721 H   0  0  0  0  0  0  0  0  0  0  0  0
   55.0657   25.5779   44.5366 H   0  0  0  0  0  0  0  0  0  0  0  0
   57.0354   24.1967   44.4543 H   0  0  0  0  0  0  0  0  0  0  0  0
   58.2363   22.1875   45.3000 H   0  0  0  0  0  0  0  0  0  0  0  0
   57.7617   18.7767   47.5005 H   0  0  0  0  0  0  0  0  0  0  0  0
   56.8384   19.5199   46.1508 H   0  0  0  0  0  0  0  0  0  0  0  0
   58.6337   19.5796   46.1508 H   0  0  0  0  0  0  0  0  0  0  0  0
   55.5768   22.0328   48.7114 H   0  0  0  0  0  0  0  0  0  0  0  0
   54.3992   24.0667   47.8878 H   0  0  0  0  0  0  0  0  0  0  0  0
   60.1182   31.2157   48.9686 H   0  0  0  0  0  0  0  0  0  0  0  0
   59.2952   33.5543   48.7204 H   0  0  0  0  0  0  0  0  0  0  0  0
   57.7632   34.1377   46.8433 H   0  0  0  0  0  0  0  0  0  0  0  0
   57.1384   32.4161   45.1566 H   0  0  0  0  0  0  0  0  0  0  0  0
   58.5890   29.0610   44.9260 H   0  0  0  0  0  0  0  0  0  0  0  0
   57.7157   32.4056   43.5453 H   0  0  0  0  0  0  0  0  0  0  0  0
   58.2291   31.2874   42.2365 H   0  0  0  0  0  0  0  0  0  0  0  0
   56.5662   31.9667   42.2365 H   0  0  0  0  0  0  0  0  0  0  0  0
  1  2  1  0
  2  3  1  0
  3  4  1  0
  4  5  1  0
  5  6  2  0
  5  7  1  0
  7  8  1  0
  8  9  1  0
  9 10  2  0
 10 11  1  0
 11 12  2  0
 12 13  1  0
 13 14  1  0
 12 15  1  0
 15 16  2  0
  3 17  1  0
 17 18  2  0
 17 19  1  0
 19 20  2  0
 20 21  1  0
 21 22  2  0
 22 23  1  0
 23 24  2  0
 24 25  1  0
 25 26  1  0
 26 27  1  0
 26 28  2  0
 26 29  2  0
 16  9  1  0
 24 19  1  0
  1 30  1  0
  1 31  1  0
  1 32  1  0
  2 33  1  0
  2 34  1  0
  4 35  1  0
  4 36  1  0
  8 37  1  0
  8 38  1  0
 10 39  1  0
 11 40  1  0
 14 41  1  0
 14 42  1  0
 14 43  1  0
 15 44  1  0
 16 45  1  0
 20 46  1  0
 21 47  1  0
 22 48  1  0
 23 49  1  0
 25 50  1  0
 27 51  1  0
 27 52  1  0
 27 53  1  0
M  CHG  1   7  -1
M  END
>  <UniqueID>  (61) 
55

>  <SMILES>  (61) 
CCN(CC(=O)[N-]Cc1ccc(OC)cc1)C(=O)c1ccccc1NS(C)(=O)=O

>  <Energy>  (61) 
50.48779860735231

>  <Genealogy>  (61) 
CCN(CC(=O)[N-]Cc1ccc(OC)cc1)C(=O)c1ccccc1NS(C)(=O)=O (protonated)
CCN(CC(=O)[N-]Cc1ccc(OC)cc1)C(=O)c1ccccc1NS(C)(=O)=O (3D coordinates assigned)
CCN(CC(=O)[N-]Cc1ccc(OC)cc1)C(=O)c1ccccc1NS(C)(=O)=O (optimized conformer: 50.48779860735231 kcal/mol)

>  <smiles>  (61) 
CCN(CC(=O)NCc1ccc(OC)cc1)C(=O)c1ccccc1NS(C)(=O)=O

>  <score_type>  (61) 
oracle

>  <origin>  (61) 
adg

>  <m_score__min__energy>  (61) 
-10.4

>  <m_primary>  (61) 
energy

$$$$
61:0
     RDKit          3D

 58 62  0  0  1  0  0  0  0  0999 V2000
   56.8520   28.9190   44.8320 C   0  0  0  0  0  0  0  0  0  0  0  0
   56.6620   27.8710   45.7360 O   0  0  0  0  0  0  0  0  0  0  0  0
   57.3810   26.6830   45.7490 C   0  0  0  0  0  0  0  0  0  0  0  0
   56.8960   25.5050   45.2050 C   0  0  0  0  0  0  0  0  0  0  0  0
   57.6150   24.3290   45.2230 C   0  0  0  0  0  0  0  0  0  0  0  0
   57.0270   23.1790   44.6370 N   0  0  0  0  0  0  0  0  0  0  0  0
   57.1570   21.9130   45.3280 C   0  0  0  0  0  0  0  0  0  0  0  0
   56.2280   20.8650   44.7550 C   0  0  0  0  0  0  0  0  0  0  0  0
   56.2780   20.7450   43.3340 N   0  0  0  0  0  0  0  0  0  0  0  0
   56.6560   21.9230   42.6180 C   0  0  0  0  0  0  0  0  0  0  0  0
   56.3020   23.1850   43.3860 C   0  0  0  0  0  0  0  0  0  0  0  0
   58.8630   24.3400   45.8060 C   0  0  0  0  0  0  0  0  0  0  0  0
   59.3900   25.4970   46.3640 C   0  0  0  0  0  0  0  0  0  0  0  0
   58.6490   26.6810   46.3390 C   0  0  0  0  0  0  0  0  0  0  0  0
   59.1680   27.9180   46.9140 C   0  0  0  0  0  0  0  0  0  0  0  0
   58.6490   28.2860   48.1620 C   0  0  0  0  0  0  0  0  0  0  0  0
   59.0650   29.4360   48.8030 C   0  0  0  0  0  0  0  0  0  0  0  0
   58.5320   29.8510   50.1280 C   0  0  0  0  0  0  0  0  0  0  0  0
   60.0150   30.2220   48.1800 C   0  0  0  0  0  0  0  0  0  0  0  0
   60.4770   31.3620   48.7390 N   0  0  0  0  0  0  0  0  0  0  0  0
   61.3930   32.1400   48.1590 C   0  0  0  0  0  0  0  0  0  0  0  0
   61.8040   33.2170   48.7280 N   0  0  0  0  0  0  0  0  0  0  0  0
   63.0380   33.2870   49.4440 C   0  0  0  0  0  0  0  0  0  0  0  0
   63.0750   34.0420   50.5880 C   0  0  0  0  0  0  0  0  0  0  0  0
   64.2200   34.1650   51.3410 C   0  0  0  0  0  0  0  0  0  0  0  0
   65.3860   33.5080   50.9420 C   0  0  0  0  0  0  0  0  0  0  0  0
   65.3350   32.7450   49.7790 C   0  0  0  0  0  0  0  0  0  0  0  0
   64.1790   32.6300   49.0340 C   0  0  0  0  0  0  0  0  0  0  0  0
   61.8820   31.7730   46.9610 N   0  0  0  0  0  0  0  0  0  0  0  0
   61.4510   30.6600   46.3840 N   0  0  0  0  0  0  0  0  0  0  0  0
   60.5270   29.8540   46.9440 C   0  0  0  0  0  0  0  0  0  0  0  0
   60.1150   28.7030   46.2920 C   0  0  0  0  0  0  0  0  0  0  0  0
   57.0216   29.8544   45.3854 H   0  0  0  0  0  0  0  0  0  0  0  0
   57.7257   28.7037   44.1994 H   0  0  0  0  0  0  0  0  0  0  0  0
   55.9583   29.0241   44.1994 H   0  0  0  0  0  0  0  0  0  0  0  0
   55.8988   25.5081   44.7408 H   0  0  0  0  0  0  0  0  0  0  0  0
   58.1945   21.5600   45.2332 H   0  0  0  0  0  0  0  0  0  0  0  0
   56.8888   22.0691   46.3833 H   0  0  0  0  0  0  0  0  0  0  0  0
   56.4964   19.8918   45.1919 H   0  0  0  0  0  0  0  0  0  0  0  0
   55.2051   21.1814   45.0070 H   0  0  0  0  0  0  0  0  0  0  0  0
   56.8240   19.9230   42.9940 H   0  0  0  0  0  0  0  0  0  0  0  0
   57.7424   21.9029   42.4467 H   0  0  0  0  0  0  0  0  0  0  0  0
   56.1069   21.9361   41.6650 H   0  0  0  0  0  0  0  0  0  0  0  0
   56.5855   24.0697   42.7970 H   0  0  0  0  0  0  0  0  0  0  0  0
   55.2194   23.2184   43.5778 H   0  0  0  0  0  0  0  0  0  0  0  0
   59.4544   23.4128   45.8300 H   0  0  0  0  0  0  0  0  0  0  0  0
   60.3887   25.4814   46.8247 H   0  0  0  0  0  0  0  0  0  0  0  0
   57.8942   27.6453   48.6414 H   0  0  0  0  0  0  0  0  0  0  0  0
   59.1296   29.3857   50.9257 H   0  0  0  0  0  0  0  0  0  0  0  0
   58.5879   30.9458   50.2191 H   0  0  0  0  0  0  0  0  0  0  0  0
   57.4843   29.5285   50.2191 H   0  0  0  0  0  0  0  0  0  0  0  0
   62.1631   34.5643   50.9131 H   0  0  0  0  0  0  0  0  0  0  0  0
   64.2170   34.7786   52.2540 H   0  0  0  0  0  0  0  0  0  0  0  0
   66.3137   33.5907   51.5273 H   0  0  0  0  0  0  0  0  0  0  0  0
   66.2413   32.2190   49.4444 H   0  0  0  0  0  0  0  0  0  0  0  0
   64.1678   32.0186   48.1196 H   0  0  0  0  0  0  0  0  0  0  0  0
   62.5970   32.4000   46.5320 H   0  0  0  0  0  0  0  0  0  0  0  0
   60.5294   28.4252   45.3117 H   0  0  0  0  0  0  0  0  0  0  0  0
  1  2  1  0
  2  3  1  0
  3  4  2  0
  4  5  1  0
  5  6  1  0
  6  7  1  0
  7  8  1  0
  8  9  1  0
  9 10  1  0
 10 11  1  0
  5 12  2  0
 12 13  1  0
 13 14  2  0
 14 15  1  0
 15 16  1  0
 16 17  2  0
 17 18  1  0
 17 19  1  0
 19 20  2  0
 20 21  1  0
 21 22  2  0
 22 23  1  0
 23 24  2  0
 24 25  1  0
 25 26  2  0
 26 27  1  0
 27 28  2  0
 21 29  1  0
 29 30  1  0
 30 31  2  0
 31 32  1  0
 14  3  1  0
 32 15  2  0
 11  6  1  0
 31 19  1  0
 28 23  1  0
  1 33  1  0
  1 34  1  0
  1 35  1  0
  4 36  1  0
  7 37  1  0
  7 38  1  0
  8 39  1  0
  8 40  1  0
  9 41  1  0
 10 42  1  0
 10 43  1  0
 11 44  1  0
 11 45  1  0
 12 46  1  0
 13 47  1  0
 16 48  1  0
 18 49  1  0
 18 50  1  0
 18 51  1  0
 24 52  1  0
 25 53  1  0
 26 54  1  0
 27 55  1  0
 28 56  1  0
 29 57  1  0
 32 58  1  0
M  END
>  <smiles>  (62) 
COc1cc(N2CCNCC2)ccc1-c1cc(C)c2nc(=Nc3ccccc3)[nH]nc2c1

>  <score_type>  (62) 
oracle

>  <origin>  (62) 
adg

>  <m_score__min__energy>  (62) 
-8.4499999999999993

>  <m_primary>  (62) 
energy

$$$$
62:0
     RDKit          3D

 55 59  0  0  0  0  0  0  0  0999 V2000
   55.6570   30.4440   45.1800 H   0  0  0  0  0  0  0  0  0  0  0  0
   56.5700   30.7160   44.7680 N   0  0  0  0  0  0  0  0  0  0  0  0
   57.4110   31.5450   45.2980 C   0  0  0  0  0  0  0  0  0  0  0  0
   57.0610   32.8620   45.3940 N   0  0  0  0  0  0  0  0  0  0  0  0
   57.8750   33.7880   45.9780 C   0  0  0  0  0  0  0  0  0  0  0  0
   57.5635   34.8416   46.0327 H   0  0  0  0  0  0  0  0  0  0  0  0
   59.1080   33.3910   46.5070 C   0  0  0  0  0  0  0  0  0  0  0  0
   59.7632   34.1122   47.0176 H   0  0  0  0  0  0  0  0  0  0  0  0
   59.4730   32.0890   46.3720 N   0  0  0  0  0  0  0  0  0  0  0  0
   60.5830   31.4380   46.7900 C   0  0  0  0  0  0  0  0  0  0  0  0
   61.7200   32.0480   47.5170 C   0  0  0  0  0  0  0  0  0  0  0  0
   61.8660   31.8100   48.8910 C   0  0  0  0  0  0  0  0  0  0  0  0
   61.1479   31.1623   49.4152 H   0  0  0  0  0  0  0  0  0  0  0  0
   62.9220   32.3940   49.5960 C   0  0  0  0  0  0  0  0  0  0  0  0
   63.0267   32.2030   50.6742 H   0  0  0  0  0  0  0  0  0  0  0  0
   63.8480   33.2190   48.9470 C   0  0  0  0  0  0  0  0  0  0  0  0
   64.8610   33.8180   49.7130 O   0  0  0  0  0  0  0  0  0  0  0  0
   65.9060   33.1690   50.3860 C   0  0  0  0  0  0  0  0  0  0  0  0
   67.0390   33.8550   50.8720 C   0  0  0  0  0  0  0  0  0  0  0  0
   67.1187   34.9440   50.7387 H   0  0  0  0  0  0  0  0  0  0  0  0
   68.0620   33.1560   51.5230 C   0  0  0  0  0  0  0  0  0  0  0  0
   68.9394   33.6963   51.9079 H   0  0  0  0  0  0  0  0  0  0  0  0
   67.9680   31.7760   51.6830 C   0  0  0  0  0  0  0  0  0  0  0  0
   68.7714   31.2260   52.1949 H   0  0  0  0  0  0  0  0  0  0  0  0
   66.8500   31.0870   51.1920 C   0  0  0  0  0  0  0  0  0  0  0  0
   66.7761   29.9968   51.3185 H   0  0  0  0  0  0  0  0  0  0  0  0
   65.8300   31.7860   50.5420 C   0  0  0  0  0  0  0  0  0  0  0  0
   64.9592   31.2402   50.1498 H   0  0  0  0  0  0  0  0  0  0  0  0
   63.7000   33.4650   47.5680 C   0  0  0  0  0  0  0  0  0  0  0  0
   64.4057   34.1310   47.0500 H   0  0  0  0  0  0  0  0  0  0  0  0
   62.6560   32.8630   46.8560 C   0  0  0  0  0  0  0  0  0  0  0  0
   62.5672   33.0286   45.7722 H   0  0  0  0  0  0  0  0  0  0  0  0
   60.5090   30.1150   46.5110 N   0  0  0  0  0  0  0  0  0  0  0  0
   61.2290   29.3810   46.7190 H   0  0  0  0  0  0  0  0  0  0  0  0
   59.3240   29.9300   45.8900 C   0  0  0  0  0  0  0  0  0  0  0  0
   58.8650   28.6160   45.4060 C   0  0  0  0  0  0  0  0  0  0  0  0
   58.5290   28.4950   44.1210 C   0  0  0  0  0  0  0  0  0  0  0  0
   58.6198   29.3724   43.4638 H   0  0  0  0  0  0  0  0  0  0  0  0
   58.0330   27.2080   43.5420 C   0  0  0  0  0  0  0  0  0  0  0  0
   57.0034   27.3599   43.1857 H   0  0  0  0  0  0  0  0  0  0  0  0
   58.7189   26.9330   42.7271 H   0  0  0  0  0  0  0  0  0  0  0  0
   58.0340   26.0470   44.5460 C   0  0  0  0  0  0  0  0  0  0  0  0
   57.2204   25.3550   44.2832 H   0  0  0  0  0  0  0  0  0  0  0  0
   59.0192   25.5613   44.4880 H   0  0  0  0  0  0  0  0  0  0  0  0
   57.8490   26.4750   45.8840 O   0  0  0  0  0  0  0  0  0  0  0  0
   58.8430   27.3980   46.3190 C   0  0  0  0  0  0  0  0  0  0  0  0
   58.4550   27.8110   47.7540 C   0  0  0  0  0  0  0  0  0  0  0  0
   59.0233   27.2061   48.4759 H   0  0  0  0  0  0  0  0  0  0  0  0
   58.6871   28.8756   47.9046 H   0  0  0  0  0  0  0  0  0  0  0  0
   57.3780   27.6457   47.9046 H   0  0  0  0  0  0  0  0  0  0  0  0
   60.2520   26.7510   46.3730 C   0  0  0  0  0  0  0  0  0  0  0  0
   60.5522   26.6131   47.4222 H   0  0  0  0  0  0  0  0  0  0  0  0
   60.2266   25.7743   45.8675 H   0  0  0  0  0  0  0  0  0  0  0  0
   60.9762   27.4068   45.8675 H   0  0  0  0  0  0  0  0  0  0  0  0
   58.6750   31.1620   45.8050 C   0  0  0  0  0  0  0  0  0  0  0  0
  1  2  1  0
  2  3  2  0
  3  4  1  0
  4  5  1  0
  5  6  1  0
  5  7  2  0
  7  8  1  0
  7  9  1  0
  9 10  1  0
 10 11  1  0
 11 12  2  0
 12 13  1  0
 12 14  1  0
 14 15  1  0
 14 16  2  0
 16 17  1  0
 17 18  1  0
 18 19  2  0
 19 20  1  0
 19 21  1  0
 21 22  1  0
 21 23  2  0
 23 24  1  0
 23 25  1  0
 25 26  1  0
 25 27  2  0
 27 28  1  0
 16 29  1  0
 29 30  1  0
 29 31  2  0
 31 32  1  0
 10 33  2  0
 33 34  1  0
 33 35  1  0
 35 36  1  0
 36 37  2  0
 37 38  1  0
 37 39  1  0
 39 40  1  0
 39 41  1  0
 39 42  1  0
 42 43  1  0
 42 44  1  0
 42 45  1  0
 45 46  1  0
 46 47  1  0
 47 48  1  0
 47 49  1  0
 47 50  1  0
 46 51  1  0
 51 52  1  0
 51 53  1  0
 51 54  1  0
 35 55  2  0
 55  3  1  0
 55  9  1  0
 31 11  1  0
 46 36  1  0
 27 18  1  0
M  CHG  2   4  -1  33   1
M  END
>  <UniqueID>  (63) 
56

>  <SMILES>  (63) 
[H]/N=c1/[n-]ccn2c(-c3ccc(Oc4ccccc4)cc3)[nH+]c(C3=CCCOC3(C)C)c12

>  <Energy>  (63) 
127.63937619311129

>  <Genealogy>  (63) 
CC1(C)OCCC=C1c1[nH+]c(-c2ccc(Oc3ccccc3)cc2)n2cc[n-]c(=N)c12 (protonated)
[H]/N=c1/[n-]ccn2c(-c3ccc(Oc4ccccc4)cc3)[nH+]c(C3=CCCOC3(C)C)c12 (cis-trans isomerization)
[H]/N=c1/[n-]ccn2c(-c3ccc(Oc4ccccc4)cc3)[nH+]c(C3=CCCOC3(C)C)c12 (3D coordinates assigned)
[H]/N=c1/[n-]ccn2c(-c3ccc(Oc4ccccc4)cc3)[nH+]c(C3=CCCOC3(C)C)c12 (nonaromatic ring conformer: 127.63937619311129 kcal/mol)

>  <smiles>  (63) 
CC1(C)OCCC=C1c1nc(-c2ccc(Oc3ccccc3)cc2)n2cc[nH]c(=N)c12

>  <score_type>  (63) 
oracle

>  <origin>  (63) 
adg

>  <m_score__min__energy>  (63) 
-8.7599999999999998

>  <m_primary>  (63) 
energy

$$$$
63:0
     RDKit          3D

 43 45  0  0  0  0  0  0  0  0999 V2000
   58.4290   24.2360   44.9200 C   0  0  0  0  0  0  0  0  0  0  0  0
   58.6330   25.4070   45.8360 C   0  0  0  0  0  0  0  0  0  0  0  0
   59.9160   25.9460   46.0180 C   0  0  0  0  0  0  0  0  0  0  0  0
   60.1120   27.0120   46.9000 C   0  0  0  0  0  0  0  0  0  0  0  0
   59.0350   27.5380   47.6330 C   0  0  0  0  0  0  0  0  0  0  0  0
   59.2440   28.7010   48.5720 C   0  0  0  0  0  0  0  0  0  0  0  0
   59.4930   29.9540   47.8260 N   0  0  0  0  0  0  0  0  0  0  0  0
   58.6030   30.2850   46.8400 C   0  0  0  0  0  0  0  0  0  0  0  0
   58.7600   31.4340   46.0540 C   0  0  0  0  0  0  0  0  0  0  0  0
   57.7570   31.7160   44.9910 C   0  0  0  0  0  0  0  0  0  0  0  0
   56.7660   32.4500   45.2610 O   0  0  0  0  0  0  0  0  0  0  0  0
   57.8510   31.1290   43.6080 C   0  0  0  0  0  0  0  0  0  0  0  0
   56.8190   30.0530   43.3950 C   0  0  0  0  0  0  0  0  0  0  0  0
   56.2690   29.9350   42.2670 O   0  0  0  0  0  0  0  0  0  0  0  0
   56.3910   29.1770   44.4980 C   0  0  0  0  0  0  0  0  0  0  0  0
   57.1570   28.2670   44.9130 O   0  0  0  0  0  0  0  0  0  0  0  0
   55.1440   29.3370   45.0890 O   0  0  0  0  0  0  0  0  0  0  0  0
   59.8530   32.2790   46.3110 C   0  0  0  0  0  0  0  0  0  0  0  0
   59.9950   33.3500   45.6580 O   0  0  0  0  0  0  0  0  0  0  0  0
   60.7800   31.9430   47.3140 C   0  0  0  0  0  0  0  0  0  0  0  0
   61.8920   32.7710   47.5710 C   0  0  0  0  0  0  0  0  0  0  0  0
   62.8110   32.4360   48.5640 C   0  0  0  0  0  0  0  0  0  0  0  0
   64.1920   33.4730   48.8700 Cl  0  0  0  0  0  0  0  0  0  0  0  0
   62.6320   31.2770   49.3150 C   0  0  0  0  0  0  0  0  0  0  0  0
   61.5360   30.4470   49.0790 C   0  0  0  0  0  0  0  0  0  0  0  0
   60.5870   30.7600   48.0760 C   0  0  0  0  0  0  0  0  0  0  0  0
   57.7520   26.9980   47.4460 C   0  0  0  0  0  0  0  0  0  0  0  0
   57.5560   25.9300   46.5630 C   0  0  0  0  0  0  0  0  0  0  0  0
   58.2705   23.3262   45.5177 H   0  0  0  0  0  0  0  0  0  0  0  0
   57.5487   24.4158   44.2854 H   0  0  0  0  0  0  0  0  0  0  0  0
   59.3183   24.1076   44.2854 H   0  0  0  0  0  0  0  0  0  0  0  0
   60.7699   25.5280   45.4647 H   0  0  0  0  0  0  0  0  0  0  0  0
   61.1170   27.4425   47.0213 H   0  0  0  0  0  0  0  0  0  0  0  0
   58.3450   28.8262   49.1934 H   0  0  0  0  0  0  0  0  0  0  0  0
   60.1228   28.4887   49.1986 H   0  0  0  0  0  0  0  0  0  0  0  0
   57.7386   29.6291   46.6594 H   0  0  0  0  0  0  0  0  0  0  0  0
   57.6924   31.9280   42.8688 H   0  0  0  0  0  0  0  0  0  0  0  0
   58.8481   30.6797   43.4903 H   0  0  0  0  0  0  0  0  0  0  0  0
   62.0355   33.6893   46.9827 H   0  0  0  0  0  0  0  0  0  0  0  0
   63.3585   31.0147   50.0982 H   0  0  0  0  0  0  0  0  0  0  0  0
   61.4071   29.5356   49.6812 H   0  0  0  0  0  0  0  0  0  0  0  0
   56.8966   27.4167   47.9965 H   0  0  0  0  0  0  0  0  0  0  0  0
   56.5514   25.4993   46.4393 H   0  0  0  0  0  0  0  0  0  0  0  0
  1  2  1  0
  2  3  2  0
  3  4  1  0
  4  5  2  0
  5  6  1  0
  6  7  1  0
  7  8  1  0
  8  9  2  0
  9 10  1  0
 10 11  2  0
 10 12  1  0
 12 13  1  0
 13 14  2  0
 13 15  1  0
 15 16  2  0
 15 17  1  0
  9 18  1  0
 18 19  2  0
 18 20  1  0
 20 21  2  0
 21 22  1  0
 22 23  1  0
 22 24  2  0
 24 25  1  0
 25 26  2  0
  5 27  1  0
 27 28  2  0
 28  2  1  0
 26  7  1  0
 26 20  1  0
  1 29  1  0
  1 30  1  0
  1 31  1  0
  3 32  1  0
  4 33  1  0
  6 34  1  0
  6 35  1  0
  8 36  1  0
 12 37  1  0
 12 38  1  0
 21 39  1  0
 24 40  1  0
 25 41  1  0
 27 42  1  0
 28 43  1  0
M  CHG  1  17  -1
M  END
>  <UniqueID>  (64) 
57

>  <SMILES>  (64) 
Cc1ccc(Cn2cc(C(=O)CC(=O)C(=O)[O-])c(=O)c3cc(Cl)ccc32)cc1

>  <Energy>  (64) 
57.07257725447396

>  <Genealogy>  (64) 
Cc1ccc(Cn2cc(C(=O)CC(=O)C(=O)[O-])c(=O)c3cc(Cl)ccc32)cc1 (protonated)
Cc1ccc(Cn2cc(C(=O)CC(=O)C(=O)[O-])c(=O)c3cc(Cl)ccc32)cc1 (3D coordinates assigned)
Cc1ccc(Cn2cc(C(=O)CC(=O)C(=O)[O-])c(=O)c3cc(Cl)ccc32)cc1 (optimized conformer: 57.07257725447396 kcal/mol)

>  <smiles>  (64) 
Cc1ccc(Cn2cc(C(=O)CC(=O)C(=O)O)c(=O)c3cc(Cl)ccc32)cc1

>  <score_type>  (64) 
oracle

>  <origin>  (64) 
adg

>  <m_score__min__energy>  (64) 
-11.43

>  <m_primary>  (64) 
energy

$$$$
64:0
     RDKit          3D

 46 48  0  0  0  0  0  0  0  0999 V2000
   60.8566   27.6577   48.4206 H   0  0  0  0  0  0  0  0  0  0  0  0
   60.3260   27.5700   47.4610 C   0  0  0  0  0  0  0  0  0  0  0  0
   60.2045   26.5845   46.9877 H   0  0  0  0  0  0  0  0  0  0  0  0
   59.8280   28.6630   46.8690 C   0  0  0  0  0  0  0  0  0  0  0  0
   59.9640   30.0150   47.2360 C   0  0  0  0  0  0  0  0  0  0  0  0
   60.5080   30.5120   48.3880 C   0  0  0  0  0  0  0  0  0  0  0  0
   60.0990   30.0280   49.7220 C   0  0  0  0  0  0  0  0  0  0  0  0
   60.9770   29.8020   50.6010 O   0  0  0  0  0  0  0  0  0  0  0  0
   58.7420   29.8960   50.0300 O   0  0  0  0  0  0  0  0  0  0  0  0
   58.2140   30.2180   51.3110 C   0  0  0  0  0  0  0  0  0  0  0  0
   58.8753   29.8147   52.0921 H   0  0  0  0  0  0  0  0  0  0  0  0
   58.1468   31.3109   51.4158 H   0  0  0  0  0  0  0  0  0  0  0  0
   57.2116   29.7773   51.4158 H   0  0  0  0  0  0  0  0  0  0  0  0
   61.5220   31.5950   48.3800 C   0  0  0  0  0  0  0  0  0  0  0  0
   62.7400   31.3860   47.7070 C   0  0  0  0  0  0  0  0  0  0  0  0
   62.9252   30.4291   47.1971 H   0  0  0  0  0  0  0  0  0  0  0  0
   63.7160   32.3860   47.6820 C   0  0  0  0  0  0  0  0  0  0  0  0
   64.6702   32.2098   47.1638 H   0  0  0  0  0  0  0  0  0  0  0  0
   63.4810   33.6080   48.3140 C   0  0  0  0  0  0  0  0  0  0  0  0
   64.2523   34.3921   48.2983 H   0  0  0  0  0  0  0  0  0  0  0  0
   62.2680   33.8360   48.9660 C   0  0  0  0  0  0  0  0  0  0  0  0
   62.0853   34.8031   49.4573 H   0  0  0  0  0  0  0  0  0  0  0  0
   61.2820   32.8420   48.9990 C   0  0  0  0  0  0  0  0  0  0  0  0
   59.6130   33.2580   49.8500 Br  0  0  0  0  0  0  0  0  0  0  0  0
   59.3920   30.7650   46.2400 N   0  0  0  0  0  0  0  0  0  0  0  0
   59.1980   32.1900   46.2240 C   0  0  0  0  0  0  0  0  0  0  0  0
   57.9120   32.7300   46.3890 C   0  0  0  0  0  0  0  0  0  0  0  0
   57.0516   32.0613   46.5391 H   0  0  0  0  0  0  0  0  0  0  0  0
   57.7220   34.1150   46.3630 C   0  0  0  0  0  0  0  0  0  0  0  0
   56.7146   34.5347   46.5008 H   0  0  0  0  0  0  0  0  0  0  0  0
   58.8120   34.9660   46.1620 C   0  0  0  0  0  0  0  0  0  0  0  0
   58.6612   36.0554   46.1407 H   0  0  0  0  0  0  0  0  0  0  0  0
   60.0930   34.4360   45.9880 C   0  0  0  0  0  0  0  0  0  0  0  0
   60.9490   35.1079   45.8274 H   0  0  0  0  0  0  0  0  0  0  0  0
   60.2870   33.0510   46.0180 C   0  0  0  0  0  0  0  0  0  0  0  0
   61.2961   32.6355   45.8797 H   0  0  0  0  0  0  0  0  0  0  0  0
   58.9050   29.8580   45.3450 C   0  0  0  0  0  0  0  0  0  0  0  0
   58.2170   30.1200   44.2650 N   0  0  0  0  0  0  0  0  0  0  0  0
   56.8210   29.9270   44.0280 C   0  0  0  0  0  0  0  0  0  0  0  0
   56.0100   30.0320   44.9860 O   0  0  0  0  0  0  0  0  0  0  0  0
   56.3020   29.7720   42.6350 C   0  0  0  0  0  0  0  0  0  0  0  0
   55.2485   29.4574   42.6691 H   0  0  0  0  0  0  0  0  0  0  0  0
   56.3807   30.7329   42.1053 H   0  0  0  0  0  0  0  0  0  0  0  0
   56.8948   29.0117   42.1053 H   0  0  0  0  0  0  0  0  0  0  0  0
   59.1750   28.5930   45.6980 N   0  0  0  0  0  0  0  0  0  0  0  0
   58.9220   27.7290   45.1630 H   0  0  0  0  0  0  0  0  0  0  0  0
  1  2  1  0
  2  3  1  0
  2  4  2  0
  4  5  1  0
  5  6  2  0
  6  7  1  0
  7  8  2  0
  7  9  1  0
  9 10  1  0
 10 11  1  0
 10 12  1  0
 10 13  1  0
  6 14  1  0
 14 15  2  0
 15 16  1  0
 15 17  1  0
 17 18  1  0
 17 19  2  0
 19 20  1  0
 19 21  1  0
 21 22  1  0
 21 23  2  0
 23 24  1  0
  5 25  1  0
 25 26  1  0
 26 27  2  0
 27 28  1  0
 27 29  1  0
 29 30  1  0
 29 31  2  0
 31 32  1  0
 31 33  1  0
 33 34  1  0
 33 35  2  0
 35 36  1  0
 25 37  1  0
 37 38  2  3
 38 39  1  0
 39 40  2  0
 39 41  1  0
 41 42  1  0
 41 43  1  0
 41 44  1  0
 37 45  1  0
 45 46  1  0
 45  4  1  0
 23 14  1  0
 35 26  1  0
M  END
>  <UniqueID>  (65) 
58

>  <SMILES>  (65) 
C=c1[nH]c(=NC(C)=O)n(-c2ccccc2)/c1=C(\C(=O)OC)c1ccccc1Br

>  <Energy>  (65) 
118.97616635493016

>  <Genealogy>  (65) 
C=c1[nH]c(=NC(C)=O)n(-c2ccccc2)/c1=C(\C(=O)OC)c1ccccc1Br (cis-trans isomerization)
C=c1[nH]c(=NC(C)=O)n(-c2ccccc2)/c1=C(\C(=O)OC)c1ccccc1Br (3D coordinates assigned)
C=c1[nH]c(=NC(C)=O)n(-c2ccccc2)/c1=C(\C(=O)OC)c1ccccc1Br (optimized conformer: 118.97616635493016 kcal/mol)

>  <smiles>  (65) 
C=c1[nH]c(=NC(C)=O)n(-c2ccccc2)c1=C(C(=O)OC)c1ccccc1Br

>  <score_type>  (65) 
oracle

>  <origin>  (65) 
adg

>  <m_score__min__energy>  (65) 
-8.3699999999999992

>  <m_primary>  (65) 
energy

$$$$
65:0
     RDKit          3D

 47 51  0  0  0  0  0  0  0  0999 V2000
   63.0490   33.5390   47.1470 C   0  0  0  0  0  0  0  0  0  0  0  0
   61.7370   33.8250   46.7610 C   0  0  0  0  0  0  0  0  0  0  0  0
   60.7800   32.8070   46.7230 C   0  0  0  0  0  0  0  0  0  0  0  0
   61.1340   31.4870   47.0600 C   0  0  0  0  0  0  0  0  0  0  0  0
   60.1290   30.4000   47.0420 C   0  0  0  0  0  0  0  0  0  0  0  0
   59.9210   29.7390   45.8740 N   0  0  0  0  0  0  0  0  0  0  0  0
   59.0590   28.6980   45.8030 C   0  0  0  0  0  0  0  0  0  0  0  0
   58.8190   27.8370   44.2530 S   0  0  0  0  0  0  0  0  0  0  0  0
   57.4170   28.8860   43.7560 C   0  0  0  0  0  0  0  0  0  0  0  0
   57.6440   30.2810   44.2370 C   0  0  0  0  0  0  0  0  0  0  0  0
   58.3330   31.2680   43.5510 C   0  0  0  0  0  0  0  0  0  0  0  0
   58.2600   32.3780   44.2970 N   0  0  0  0  0  0  0  0  0  0  0  0
   58.7760   33.6130   44.0760 C   0  0  0  0  0  0  0  0  0  0  0  0
   58.5480   34.6060   45.0390 C   0  0  0  0  0  0  0  0  0  0  0  0
   57.8000   34.2940   46.1910 C   0  0  0  0  0  0  0  0  0  0  0  0
   57.2860   33.0000   46.3760 C   0  0  0  0  0  0  0  0  0  0  0  0
   57.5420   32.0560   45.3860 C   0  0  0  0  0  0  0  0  0  0  0  0
   57.1320   30.7710   45.3930 N   0  0  0  0  0  0  0  0  0  0  0  0
   58.3910   28.3020   46.9140 N   0  0  0  0  0  0  0  0  0  0  0  0
   58.5610   28.9310   48.0760 N   0  0  0  0  0  0  0  0  0  0  0  0
   59.4060   29.9960   48.1890 C   0  0  0  0  0  0  0  0  0  0  0  0
   59.4960   30.7120   49.4830 C   0  0  0  0  0  0  0  0  0  0  0  0
   58.8050   31.9180   49.6870 C   0  0  0  0  0  0  0  0  0  0  0  0
   58.8990   32.5870   50.9120 C   0  0  0  0  0  0  0  0  0  0  0  0
   59.6760   32.0530   51.9430 C   0  0  0  0  0  0  0  0  0  0  0  0
   60.3540   30.8470   51.7530 C   0  0  0  0  0  0  0  0  0  0  0  0
   60.2620   30.1740   50.5310 C   0  0  0  0  0  0  0  0  0  0  0  0
   62.4500   31.2140   47.4670 C   0  0  0  0  0  0  0  0  0  0  0  0
   63.4030   32.2360   47.5050 C   0  0  0  0  0  0  0  0  0  0  0  0
   63.8030   34.3397   47.1690 H   0  0  0  0  0  0  0  0  0  0  0  0
   61.4568   34.8527   46.4866 H   0  0  0  0  0  0  0  0  0  0  0  0
   59.7457   33.0384   46.4285 H   0  0  0  0  0  0  0  0  0  0  0  0
   57.3296   28.8859   42.6595 H   0  0  0  0  0  0  0  0  0  0  0  0
   56.4898   28.4922   44.1978 H   0  0  0  0  0  0  0  0  0  0  0  0
   58.8415   31.1608   42.5815 H   0  0  0  0  0  0  0  0  0  0  0  0
   59.3567   33.8291   43.1671 H   0  0  0  0  0  0  0  0  0  0  0  0
   58.9498   35.6200   44.8962 H   0  0  0  0  0  0  0  0  0  0  0  0
   57.6173   35.0685   46.9504 H   0  0  0  0  0  0  0  0  0  0  0  0
   56.7018   32.7419   47.2716 H   0  0  0  0  0  0  0  0  0  0  0  0
   58.0100   28.6080   48.9030 H   0  0  0  0  0  0  0  0  0  0  0  0
   58.1871   32.3382   48.8797 H   0  0  0  0  0  0  0  0  0  0  0  0
   58.3607   33.5342   51.0636 H   0  0  0  0  0  0  0  0  0  0  0  0
   59.7537   32.5823   52.9041 H   0  0  0  0  0  0  0  0  0  0  0  0
   60.9621   30.4254   52.5670 H   0  0  0  0  0  0  0  0  0  0  0  0
   60.7911   29.2200   50.3895 H   0  0  0  0  0  0  0  0  0  0  0  0
   62.7322   30.1912   47.7572 H   0  0  0  0  0  0  0  0  0  0  0  0
   64.4340   32.0136   47.8175 H   0  0  0  0  0  0  0  0  0  0  0  0
  1  2  2  0
  2  3  1  0
  3  4  2  0
  4  5  1  0
  5  6  2  0
  6  7  1  0
  7  8  1  0
  8  9  1  0
  9 10  1  0
 10 11  2  0
 11 12  1  0
 12 13  1  0
 13 14  2  0
 14 15  1  0
 15 16  2  0
 16 17  1  0
 17 18  2  0
  7 19  2  0
 19 20  1  0
 20 21  2  0
 21 22  1  0
 22 23  2  0
 23 24  1  0
 24 25  2  0
 25 26  1  0
 26 27  2  0
  4 28  1  0
 28 29  2  0
 29  1  1  0
 21  5  1  0
 27 22  1  0
 18 10  1  0
 17 12  1  0
  1 30  1  0
  2 31  1  0
  3 32  1  0
  9 33  1  0
  9 34  1  0
 11 35  1  0
 13 36  1  0
 14 37  1  0
 15 38  1  0
 16 39  1  0
 20 40  1  0
 23 41  1  0
 24 42  1  0
 25 43  1  0
 26 44  1  0
 27 45  1  0
 28 46  1  0
 29 47  1  0
M  CHG  1  20   1
M  END
>  <UniqueID>  (66) 
59

>  <SMILES>  (66) 
c1ccc(-c2nc(SCc3cn4ccccc4n3)n[nH+]c2-c2ccccc2)cc1

>  <Energy>  (66) 
96.06962595644988

>  <Genealogy>  (66) 
c1ccc(-c2nc(SCc3cn4ccccc4n3)n[nH+]c2-c2ccccc2)cc1 (protonated)
c1ccc(-c2nc(SCc3cn4ccccc4n3)n[nH+]c2-c2ccccc2)cc1 (3D coordinates assigned)
c1ccc(-c2nc(SCc3cn4ccccc4n3)n[nH+]c2-c2ccccc2)cc1 (optimized conformer: 96.06962595644988 kcal/mol)

>  <smiles>  (66) 
c1ccc(-c2nnc(SCc3cn4ccccc4n3)nc2-c2ccccc2)cc1

>  <score_type>  (66) 
oracle

>  <origin>  (66) 
adg

>  <m_score__min__energy>  (66) 
-7.8200000000000003

>  <m_primary>  (66) 
energy

$$$$
66:0
     RDKit          3D

 44 46  0  0  0  0  0  0  0  0999 V2000
   63.2210   27.0090   52.4670 C   0  0  0  0  0  0  0  0  0  0  0  0
   62.5910   25.9600   51.6020 C   0  0  0  0  0  0  0  0  0  0  0  0
   63.2660   24.9470   51.2840 O   0  0  0  0  0  0  0  0  0  0  0  0
   61.2580   26.0920   51.0920 N   0  0  0  0  0  0  0  0  0  0  0  0
   60.7840   27.1040   50.1920 C   0  0  0  0  0  0  0  0  0  0  0  0
   60.3980   26.7320   48.8990 C   0  0  0  0  0  0  0  0  0  0  0  0
   59.9040   27.6870   48.0060 C   0  0  0  0  0  0  0  0  0  0  0  0
   59.7810   29.0290   48.3960 C   0  0  0  0  0  0  0  0  0  0  0  0
   59.2530   29.9890   47.4660 N   0  0  0  0  0  0  0  0  0  0  0  0
   59.9150   31.2180   47.1220 C   0  0  0  0  0  0  0  0  0  0  0  0
   61.1230   31.3910   47.4370 O   0  0  0  0  0  0  0  0  0  0  0  0
   59.1940   32.2660   46.3580 C   0  0  0  0  0  0  0  0  0  0  0  0
   59.7270   33.5680   46.3010 C   0  0  0  0  0  0  0  0  0  0  0  0
   59.0710   34.5750   45.5910 C   0  0  0  0  0  0  0  0  0  0  0  0
   57.8800   34.2980   44.9210 C   0  0  0  0  0  0  0  0  0  0  0  0
   57.3360   33.0140   44.9670 C   0  0  0  0  0  0  0  0  0  0  0  0
   57.9730   31.9940   45.6960 C   0  0  0  0  0  0  0  0  0  0  0  0
   57.4060   30.6760   45.7340 N   0  0  0  0  0  0  0  0  0  0  0  0
   56.6710   30.0480   44.6750 C   0  0  0  0  0  0  0  0  0  0  0  0
   55.5100   30.4590   44.4140 O   0  0  0  0  0  0  0  0  0  0  0  0
   57.2870   28.9910   43.8030 C   0  0  0  0  0  0  0  0  0  0  0  0
   58.4640   27.9760   44.7590 S   0  0  0  0  0  0  0  0  0  0  0  0
   57.2000   26.9390   45.4940 C   0  0  0  0  0  0  0  0  0  0  0  0
   57.4360   25.7000   45.9650 N   0  0  0  0  0  0  0  0  0  0  0  0
   56.2120   25.3310   46.3900 C   0  0  0  0  0  0  0  0  0  0  0  0
   55.2910   26.2910   46.1890 N   0  0  0  0  0  0  0  0  0  0  0  0
   55.9150   27.3080   45.6200 N   0  0  0  0  0  0  0  0  0  0  0  0
   60.1200   29.3920   49.7110 C   0  0  0  0  0  0  0  0  0  0  0  0
   60.6160   28.4360   50.6030 C   0  0  0  0  0  0  0  0  0  0  0  0
   63.0669   26.7525   53.5255 H   0  0  0  0  0  0  0  0  0  0  0  0
   64.2992   27.0599   52.2552 H   0  0  0  0  0  0  0  0  0  0  0  0
   62.7593   27.9847   52.2552 H   0  0  0  0  0  0  0  0  0  0  0  0
   60.4840   25.6817   48.5838 H   0  0  0  0  0  0  0  0  0  0  0  0
   59.6096   27.3843   46.9903 H   0  0  0  0  0  0  0  0  0  0  0  0
   58.4140   29.7130   46.9070 H   0  0  0  0  0  0  0  0  0  0  0  0
   60.6696   33.7938   46.8211 H   0  0  0  0  0  0  0  0  0  0  0  0
   59.4947   35.5896   45.5600 H   0  0  0  0  0  0  0  0  0  0  0  0
   57.3693   35.0918   44.3561 H   0  0  0  0  0  0  0  0  0  0  0  0
   56.4014   32.7978   44.4287 H   0  0  0  0  0  0  0  0  0  0  0  0
   56.4925   28.3435   43.4036 H   0  0  0  0  0  0  0  0  0  0  0  0
   57.8280   29.4810   42.9800 H   0  0  0  0  0  0  0  0  0  0  0  0
   55.9908   24.3561   46.8490 H   0  0  0  0  0  0  0  0  0  0  0  0
   59.9944   30.4340   50.0403 H   0  0  0  0  0  0  0  0  0  0  0  0
   60.8756   28.7288   51.6310 H   0  0  0  0  0  0  0  0  0  0  0  0
  1  2  1  0
  2  3  2  0
  2  4  1  0
  4  5  1  0
  5  6  2  0
  6  7  1  0
  7  8  2  0
  8  9  1  0
  9 10  1  0
 10 11  2  0
 10 12  1  0
 12 13  2  0
 13 14  1  0
 14 15  2  0
 15 16  1  0
 16 17  2  0
 17 18  1  0
 18 19  1  0
 19 20  2  0
 19 21  1  0
 21 22  1  0
 22 23  1  0
 23 24  1  0
 24 25  2  0
 25 26  1  0
 26 27  1  0
  8 28  1  0
 28 29  2  0
 29  5  1  0
 17 12  1  0
 27 23  2  0
  1 30  1  0
  1 31  1  0
  1 32  1  0
  6 33  1  0
  7 34  1  0
  9 35  1  0
 13 36  1  0
 14 37  1  0
 15 38  1  0
 16 39  1  0
 21 40  1  0
 21 41  1  0
 25 42  1  0
 28 43  1  0
 29 44  1  0
M  CHG  3   4  -1  18  -1  26  -1
M  END
>  <UniqueID>  (67) 
60

>  <SMILES>  (67) 
CC(=O)[N-]c1ccc(NC(=O)c2ccccc2[N-]C(=O)CSc2nc[n-]n2)cc1

>  <Energy>  (67) 
86.9893253615905

>  <Genealogy>  (67) 
CC(=O)[N-]c1ccc(NC(=O)c2ccccc2[N-]C(=O)CSc2nc[n-]n2)cc1 (protonated)
CC(=O)[N-]c1ccc(NC(=O)c2ccccc2[N-]C(=O)CSc2nc[n-]n2)cc1 (3D coordinates assigned)
CC(=O)[N-]c1ccc(NC(=O)c2ccccc2[N-]C(=O)CSc2nc[n-]n2)cc1 (optimized conformer: 86.9893253615905 kcal/mol)

>  <smiles>  (67) 
CC(=O)Nc1ccc(NC(=O)c2ccccc2NC(=O)CSc2nc[nH]n2)cc1

>  <score_type>  (67) 
oracle

>  <origin>  (67) 
adg

>  <m_score__min__energy>  (67) 
-12.869999999999999

>  <m_primary>  (67) 
energy

$$$$
67:0
     RDKit          3D

 41 42  0  0  1  0  0  0  0  0999 V2000
   60.8680   34.2060   47.5530 C   0  0  0  0  0  0  0  0  0  0  0  0
   59.0600   31.6750   48.7640 C   0  0  0  0  0  0  0  0  0  0  0  0
   59.5990   34.7940   47.0530 C   0  0  0  0  0  0  0  0  0  0  0  0
   58.8420   33.8710   46.2420 N   0  0  0  0  0  0  0  0  0  0  0  0
   58.8070   34.1480   44.9040 C   0  0  0  0  0  0  0  0  0  0  0  0
   58.1330   33.3370   44.0170 C   0  0  0  0  0  0  0  0  0  0  0  0
   57.4980   32.2370   44.5450 C   0  0  0  0  0  0  0  0  0  0  0  0
   55.5490   29.9570   45.0170 N   0  0  0  0  0  0  0  0  0  0  0  0
   61.6660   33.5700   46.7040 C   0  0  0  0  0  0  0  0  0  0  0  0
   56.8580   31.4590   43.7410 N   0  0  0  0  0  0  0  0  0  0  0  0
   57.0380   29.0200   43.4730 N   0  0  0  0  0  0  0  0  0  0  0  0
   57.5530   31.9930   45.8730 N   0  0  0  0  0  0  0  0  0  0  0  0
   58.2080   32.7800   46.7440 C   0  0  0  0  0  0  0  0  0  0  0  0
   56.4540   30.1490   44.1050 C   0  0  0  0  0  0  0  0  0  0  0  0
   58.2230   32.4880   48.1730 C   0  0  0  0  0  0  0  0  0  0  0  0
   59.2350   30.2690   48.4210 C   0  0  0  0  0  0  0  0  0  0  0  0
   60.0670   29.4120   49.1070 C   0  0  0  0  0  0  0  0  0  0  0  0
   60.2170   28.0740   48.7600 C   0  0  0  0  0  0  0  0  0  0  0  0
   59.5160   27.5570   47.6870 C   0  0  0  0  0  0  0  0  0  0  0  0
   58.6740   28.3950   46.9810 C   0  0  0  0  0  0  0  0  0  0  0  0
   57.9460   27.8750   45.8750 N   0  0  0  0  0  0  0  0  0  0  0  0
   58.5460   27.5480   44.8260 O   0  0  0  0  0  0  0  0  0  0  0  0
   56.5910   27.7050   45.8920 O   0  0  0  0  0  0  0  0  0  0  0  0
   58.5450   29.7100   47.3460 C   0  0  0  0  0  0  0  0  0  0  0  0
   62.6089   33.1296   47.0603 H   0  0  0  0  0  0  0  0  0  0  0  0
   61.3843   33.4834   45.6442 H   0  0  0  0  0  0  0  0  0  0  0  0
   61.1433   34.2965   48.6142 H   0  0  0  0  0  0  0  0  0  0  0  0
   58.9844   35.0912   47.9155 H   0  0  0  0  0  0  0  0  0  0  0  0
   59.8573   35.6575   46.4225 H   0  0  0  0  0  0  0  0  0  0  0  0
   59.3292   35.0394   44.5263 H   0  0  0  0  0  0  0  0  0  0  0  0
   58.1042   33.5583   42.9399 H   0  0  0  0  0  0  0  0  0  0  0  0
   55.7730   29.7150   45.9940 H   0  0  0  0  0  0  0  0  0  0  0  0
   57.7710   29.1490   42.7450 H   0  0  0  0  0  0  0  0  0  0  0  0
   56.7500   28.0530   43.7210 H   0  0  0  0  0  0  0  0  0  0  0  0
   57.0290   31.1200   46.1720 H   0  0  0  0  0  0  0  0  0  0  0  0
   57.4729   32.9900   48.8018 H   0  0  0  0  0  0  0  0  0  0  0  0
   59.6767   32.0818   49.5790 H   0  0  0  0  0  0  0  0  0  0  0  0
   60.6358   29.8019   49.9640 H   0  0  0  0  0  0  0  0  0  0  0  0
   60.8930   27.4276   49.3389 H   0  0  0  0  0  0  0  0  0  0  0  0
   59.6260   26.5006   47.4009 H   0  0  0  0  0  0  0  0  0  0  0  0
   57.8671   30.3527   46.7651 H   0  0  0  0  0  0  0  0  0  0  0  0
  1  2  2  0
  2  3  1  0
  3  4  1  0
  4  5  1  0
  5  6  2  0
  6  7  1  0
  7  8  2  0
  8  9  1  0
  9 10  2  0
  9 11  1  0
  7 12  1  0
 12 13  1  0
 13 14  1  0
 14 15  2  0
 15 16  1  0
 16 17  2  0
 17 18  1  0
 18 19  2  0
 19 20  1  0
 20 21  1  0
 21 22  2  0
 21 23  1  0
 20 24  2  0
 13  4  2  0
 24 16  1  0
  1 25  1  0
  1 26  1  0
  2 27  1  0
  3 28  1  0
  3 29  1  0
  5 30  1  0
  6 31  1  0
 10 32  1  0
 11 33  1  0
 11 34  1  0
 12 35  1  0
 14 36  1  0
 15 37  1  0
 17 38  1  0
 18 39  1  0
 19 40  1  0
 24 41  1  0
M  CHG  3   4   1  21   1  23  -1
M  END
>  <smiles>  (68) 
C=CC[n+]1ccc(=NC(=N)N)[nH]c1C=Cc1cccc([N+](=O)[O-])c1

>  <score_type>  (68) 
oracle

>  <origin>  (68) 
adg

>  <m_score__min__energy>  (68) 
-7.6200000000000001

>  <m_primary>  (68) 
energy

$$$$
68:0
     RDKit          3D

 29 31  0  0  0  0  0  0  0  0999 V2000
   57.6860   30.5280   46.2980 F   0  0  0  0  0  0  0  0  0  0  0  0
   57.4870   30.7960   44.9830 C   0  0  0  0  0  0  0  0  0  0  0  0
   56.7730   29.8710   44.2150 C   0  0  0  0  0  0  0  0  0  0  0  0
   56.5500   30.1050   42.8570 C   0  0  0  0  0  0  0  0  0  0  0  0
   57.0420   31.2660   42.2610 C   0  0  0  0  0  0  0  0  0  0  0  0
   57.7570   32.1970   43.0190 C   0  0  0  0  0  0  0  0  0  0  0  0
   57.9920   31.9760   44.3920 C   0  0  0  0  0  0  0  0  0  0  0  0
   58.7520   32.9670   45.1990 C   0  0  0  0  0  0  0  0  0  0  0  0
   58.5370   34.3360   45.2590 C   0  0  0  0  0  0  0  0  0  0  0  0
   59.4940   34.8040   46.1340 C   0  0  0  0  0  0  0  0  0  0  0  0
   60.2320   33.7610   46.5670 N   0  0  0  0  0  0  0  0  0  0  0  0
   61.3470   33.7980   47.4830 C   0  0  0  0  0  0  0  0  0  0  0  0
   61.1780   34.1810   48.8300 C   0  0  0  0  0  0  0  0  0  0  0  0
   62.2710   34.2070   49.7010 C   0  0  0  0  0  0  0  0  0  0  0  0
   63.5420   33.8500   49.2450 C   0  0  0  0  0  0  0  0  0  0  0  0
   63.7220   33.4640   47.9160 C   0  0  0  0  0  0  0  0  0  0  0  0
   62.6320   33.4350   47.0400 C   0  0  0  0  0  0  0  0  0  0  0  0
   59.7890   32.6480   46.0010 N   0  0  0  0  0  0  0  0  0  0  0  0
   56.3851   28.9544   44.6833 H   0  0  0  0  0  0  0  0  0  0  0  0
   55.9869   29.3745   42.2576 H   0  0  0  0  0  0  0  0  0  0  0  0
   56.8666   31.4494   41.1907 H   0  0  0  0  0  0  0  0  0  0  0  0
   58.1400   33.1105   42.5406 H   0  0  0  0  0  0  0  0  0  0  0  0
   57.7718   34.9194   44.7260 H   0  0  0  0  0  0  0  0  0  0  0  0
   59.6329   35.8542   46.4302 H   0  0  0  0  0  0  0  0  0  0  0  0
   60.1797   34.4610   49.1974 H   0  0  0  0  0  0  0  0  0  0  0  0
   62.1296   34.5096   50.7491 H   0  0  0  0  0  0  0  0  0  0  0  0
   64.4002   33.8731   49.9327 H   0  0  0  0  0  0  0  0  0  0  0  0
   64.7228   33.1821   47.5568 H   0  0  0  0  0  0  0  0  0  0  0  0
   62.7809   33.1255   45.9950 H   0  0  0  0  0  0  0  0  0  0  0  0
  1  2  1  0
  2  3  2  0
  3  4  1  0
  4  5  2  0
  5  6  1  0
  6  7  2  0
  7  8  1  0
  8  9  1  0
  9 10  2  0
 10 11  1  0
 11 12  1  0
 12 13  2  0
 13 14  1  0
 14 15  2  0
 15 16  1  0
 16 17  2  0
 11 18  1  0
  7  2  1  0
 18  8  2  0
 17 12  1  0
  3 19  1  0
  4 20  1  0
  5 21  1  0
  6 22  1  0
  9 23  1  0
 10 24  1  0
 13 25  1  0
 14 26  1  0
 15 27  1  0
 16 28  1  0
 17 29  1  0
M  END
>  <UniqueID>  (69) 
61

>  <SMILES>  (69) 
Fc1ccccc1-c1ccn(-c2ccccc2)n1

>  <Energy>  (69) 
66.5477040577766

>  <Genealogy>  (69) 
Fc1ccccc1-c1ccn(-c2ccccc2)n1 (3D coordinates assigned)
Fc1ccccc1-c1ccn(-c2ccccc2)n1 (optimized conformer: 66.5477040577766 kcal/mol)

>  <smiles>  (69) 
Fc1ccccc1-c1ccn(-c2ccccc2)n1

>  <score_type>  (69) 
oracle

>  <origin>  (69) 
adg

>  <m_score__min__energy>  (69) 
-6.9100000000000001

>  <m_primary>  (69) 
energy

$$$$
69:0
     RDKit          3D

 47 51  0  0  0  0  0  0  0  0999 V2000
   58.6080   34.6350   44.5020 C   0  0  0  0  0  0  0  0  0  0  0  0
   58.6850   33.8830   45.7700 N   0  0  0  0  0  0  0  0  0  0  0  0
   58.1410   32.6170   45.8600 C   0  0  0  0  0  0  0  0  0  0  0  0
   57.4910   31.9250   44.6720 C   0  0  0  0  0  0  0  0  0  0  0  0
   56.8070   30.7350   45.0690 O   0  0  0  0  0  0  0  0  0  0  0  0
   57.4020   29.4710   45.2160 C   0  0  0  0  0  0  0  0  0  0  0  0
   58.7910   29.3740   45.0790 C   0  0  0  0  0  0  0  0  0  0  0  0
   59.4300   28.1390   45.2030 C   0  0  0  0  0  0  0  0  0  0  0  0
   58.6860   26.9860   45.4640 C   0  0  0  0  0  0  0  0  0  0  0  0
   57.2900   27.0580   45.6070 C   0  0  0  0  0  0  0  0  0  0  0  0
   56.4970   25.8380   45.8740 C   0  0  0  0  0  0  0  0  0  0  0  0
   57.0450   24.6910   46.3600 N   0  0  0  0  0  0  0  0  0  0  0  0
   55.9890   23.8690   46.4380 C   0  0  0  0  0  0  0  0  0  0  0  0
   55.9670   22.5470   46.8760 C   0  0  0  0  0  0  0  0  0  0  0  0
   54.7280   21.8780   46.8680 C   0  0  0  0  0  0  0  0  0  0  0  0
   53.5600   22.5410   46.4270 C   0  0  0  0  0  0  0  0  0  0  0  0
   53.6230   23.8780   45.9920 C   0  0  0  0  0  0  0  0  0  0  0  0
   54.8650   24.5080   46.0150 C   0  0  0  0  0  0  0  0  0  0  0  0
   55.1570   25.7630   45.6490 N   0  0  0  0  0  0  0  0  0  0  0  0
   56.6540   28.3080   45.4880 C   0  0  0  0  0  0  0  0  0  0  0  0
   58.1390   31.9440   47.0920 C   0  0  0  0  0  0  0  0  0  0  0  0
   58.7600   32.5080   48.2030 C   0  0  0  0  0  0  0  0  0  0  0  0
   58.7850   31.8250   49.4300 C   0  0  0  0  0  0  0  0  0  0  0  0
   59.4240   32.3890   50.5360 C   0  0  0  0  0  0  0  0  0  0  0  0
   60.0430   33.6350   50.4260 C   0  0  0  0  0  0  0  0  0  0  0  0
   60.0230   34.3250   49.2100 C   0  0  0  0  0  0  0  0  0  0  0  0
   59.3790   33.7680   48.0870 C   0  0  0  0  0  0  0  0  0  0  0  0
   59.3310   34.4420   46.8510 C   0  0  0  0  0  0  0  0  0  0  0  0
   59.8910   35.5710   46.7430 O   0  0  0  0  0  0  0  0  0  0  0  0
   58.4981   35.7079   44.7181 H   0  0  0  0  0  0  0  0  0  0  0  0
   59.5277   34.4702   43.9215 H   0  0  0  0  0  0  0  0  0  0  0  0
   57.7408   34.2872   43.9215 H   0  0  0  0  0  0  0  0  0  0  0  0
   56.7698   32.6138   44.2078 H   0  0  0  0  0  0  0  0  0  0  0  0
   58.2817   31.6472   43.9595 H   0  0  0  0  0  0  0  0  0  0  0  0
   59.3838   30.2772   44.8721 H   0  0  0  0  0  0  0  0  0  0  0  0
   60.5227   28.0737   45.0948 H   0  0  0  0  0  0  0  0  0  0  0  0
   59.1959   26.0159   45.5582 H   0  0  0  0  0  0  0  0  0  0  0  0
   56.8842   22.0438   47.2158 H   0  0  0  0  0  0  0  0  0  0  0  0
   54.6686   20.8332   47.2069 H   0  0  0  0  0  0  0  0  0  0  0  0
   52.5971   22.0093   46.4238 H   0  0  0  0  0  0  0  0  0  0  0  0
   52.7228   24.4070   45.6459 H   0  0  0  0  0  0  0  0  0  0  0  0
   55.5628   28.3778   45.6084 H   0  0  0  0  0  0  0  0  0  0  0  0
   57.6440   30.9656   47.1800 H   0  0  0  0  0  0  0  0  0  0  0  0
   58.2994   30.8421   49.5200 H   0  0  0  0  0  0  0  0  0  0  0  0
   59.4395   31.8506   51.4951 H   0  0  0  0  0  0  0  0  0  0  0  0
   60.5480   34.0755   51.2983 H   0  0  0  0  0  0  0  0  0  0  0  0
   60.5121   35.3070   49.1296 H   0  0  0  0  0  0  0  0  0  0  0  0
  1  2  1  0
  2  3  1  0
  3  4  1  0
  4  5  1  0
  5  6  1  0
  6  7  2  0
  7  8  1  0
  8  9  2  0
  9 10  1  0
 10 11  1  0
 11 12  2  0
 12 13  1  0
 13 14  2  0
 14 15  1  0
 15 16  2  0
 16 17  1  0
 17 18  2  0
 18 19  1  0
 10 20  2  0
  3 21  2  0
 21 22  1  0
 22 23  2  0
 23 24  1  0
 24 25  2  0
 25 26  1  0
 26 27  2  0
 27 28  1  0
 28 29  2  0
 28  2  1  0
 20  6  1  0
 27 22  1  0
 19 11  1  0
 18 13  1  0
  1 30  1  0
  1 31  1  0
  1 32  1  0
  4 33  1  0
  4 34  1  0
  7 35  1  0
  8 36  1  0
  9 37  1  0
 14 38  1  0
 15 39  1  0
 16 40  1  0
 17 41  1  0
 20 42  1  0
 21 43  1  0
 23 44  1  0
 24 45  1  0
 25 46  1  0
 26 47  1  0
M  CHG  1  19  -1
M  END
>  <UniqueID>  (70) 
62

>  <SMILES>  (70) 
Cn1c(COc2cccc(-c3nc4ccccc4[n-]3)c2)cc2ccccc2c1=O

>  <Energy>  (70) 
99.33792991514699

>  <Genealogy>  (70) 
Cn1c(COc2cccc(-c3nc4ccccc4[n-]3)c2)cc2ccccc2c1=O (protonated)
Cn1c(COc2cccc(-c3nc4ccccc4[n-]3)c2)cc2ccccc2c1=O (3D coordinates assigned)
Cn1c(COc2cccc(-c3nc4ccccc4[n-]3)c2)cc2ccccc2c1=O (optimized conformer: 99.33792991514699 kcal/mol)

>  <smiles>  (70) 
Cn1c(COc2cccc(-c3nc4ccccc4[nH]3)c2)cc2ccccc2c1=O

>  <score_type>  (70) 
oracle

>  <origin>  (70) 
adg

>  <m_score__min__energy>  (70) 
-10.109999999999999

>  <m_primary>  (70) 
energy

$$$$
70:0
     RDKit          3D

 53 56  0  0  0  0  0  0  0  0999 V2000
   58.1410   26.7930   42.5090 C   0  0  0  0  0  0  0  0  0  0  0  0
   57.7140   26.2610   43.7580 O   0  0  0  0  0  0  0  0  0  0  0  0
   57.4810   24.9010   44.0130 C   0  0  0  0  0  0  0  0  0  0  0  0
   56.8770   24.1540   42.9940 C   0  0  0  0  0  0  0  0  0  0  0  0
   56.5660   22.8050   43.1840 C   0  0  0  0  0  0  0  0  0  0  0  0
   56.8710   22.1830   44.3930 C   0  0  0  0  0  0  0  0  0  0  0  0
   57.5020   22.9020   45.4080 C   0  0  0  0  0  0  0  0  0  0  0  0
   57.8180   24.2590   45.2330 C   0  0  0  0  0  0  0  0  0  0  0  0
   58.5900   24.9200   46.2460 N   0  0  0  0  0  0  0  0  0  0  0  0
   60.0140   25.1950   46.0130 C   0  0  0  0  0  0  0  0  0  0  0  0
   60.4670   26.4130   46.8280 C   0  0  0  0  0  0  0  0  0  0  0  0
   59.4590   27.4930   46.7250 N   0  0  0  0  0  0  0  0  0  0  0  0
   59.9500   28.7870   47.2640 C   0  0  0  0  0  0  0  0  0  0  0  0
   60.0200   29.9260   46.2220 C   0  0  0  0  0  0  0  0  0  0  0  0
   58.6700   30.2040   45.6260 C   0  0  0  0  0  0  0  0  0  0  0  0
   57.8410   29.2730   45.2060 O   0  0  0  0  0  0  0  0  0  0  0  0
   56.7730   29.9000   44.7770 C   0  0  0  0  0  0  0  0  0  0  0  0
   55.7630   29.3170   44.3070 O   0  0  0  0  0  0  0  0  0  0  0  0
   56.8740   31.2030   44.8940 O   0  0  0  0  0  0  0  0  0  0  0  0
   58.0590   31.4360   45.4100 C   0  0  0  0  0  0  0  0  0  0  0  0
   58.5710   32.7940   45.6950 C   0  0  0  0  0  0  0  0  0  0  0  0
   58.7740   33.6890   44.6320 C   0  0  0  0  0  0  0  0  0  0  0  0
   59.2660   34.9750   44.8740 C   0  0  0  0  0  0  0  0  0  0  0  0
   59.5730   35.3740   46.1770 C   0  0  0  0  0  0  0  0  0  0  0  0
   59.3990   34.4830   47.2390 C   0  0  0  0  0  0  0  0  0  0  0  0
   58.9080   33.1950   47.0010 C   0  0  0  0  0  0  0  0  0  0  0  0
   58.1300   27.1150   47.2890 C   0  0  0  0  0  0  0  0  0  0  0  0
   57.8970   25.5930   47.3500 C   0  0  0  0  0  0  0  0  0  0  0  0
   58.8207   27.6399   42.6843 H   0  0  0  0  0  0  0  0  0  0  0  0
   58.6666   26.0130   41.9386 H   0  0  0  0  0  0  0  0  0  0  0  0
   57.2657   27.1373   41.9386 H   0  0  0  0  0  0  0  0  0  0  0  0
   56.6446   24.6350   42.0324 H   0  0  0  0  0  0  0  0  0  0  0  0
   56.0803   22.2340   42.3790 H   0  0  0  0  0  0  0  0  0  0  0  0
   56.6140   21.1246   44.5470 H   0  0  0  0  0  0  0  0  0  0  0  0
   57.7545   22.4014   46.3544 H   0  0  0  0  0  0  0  0  0  0  0  0
   60.6059   24.3179   46.3137 H   0  0  0  0  0  0  0  0  0  0  0  0
   60.1650   25.4064   44.9441 H   0  0  0  0  0  0  0  0  0  0  0  0
   60.5840   26.1229   47.8826 H   0  0  0  0  0  0  0  0  0  0  0  0
   61.4273   26.7757   46.4328 H   0  0  0  0  0  0  0  0  0  0  0  0
   59.3090   27.6610   45.7000 H   0  0  0  0  0  0  0  0  0  0  0  0
   59.2742   29.1016   48.0730 H   0  0  0  0  0  0  0  0  0  0  0  0
   60.9798   28.6132   47.6095 H   0  0  0  0  0  0  0  0  0  0  0  0
   60.3898   30.8384   46.7128 H   0  0  0  0  0  0  0  0  0  0  0  0
   60.6991   29.6161   45.4140 H   0  0  0  0  0  0  0  0  0  0  0  0
   58.5445   33.3763   43.6027 H   0  0  0  0  0  0  0  0  0  0  0  0
   59.4116   35.6738   44.0370 H   0  0  0  0  0  0  0  0  0  0  0  0
   59.9516   36.3892   46.3668 H   0  0  0  0  0  0  0  0  0  0  0  0
   59.6485   34.7949   48.2639 H   0  0  0  0  0  0  0  0  0  0  0  0
   58.7848   32.4925   47.8385 H   0  0  0  0  0  0  0  0  0  0  0  0
   58.0574   27.5193   48.3094 H   0  0  0  0  0  0  0  0  0  0  0  0
   57.3642   27.5323   46.6187 H   0  0  0  0  0  0  0  0  0  0  0  0
   58.2798   25.2067   48.3062 H   0  0  0  0  0  0  0  0  0  0  0  0
   56.8182   25.3956   47.2644 H   0  0  0  0  0  0  0  0  0  0  0  0
  1  2  1  0
  2  3  1  0
  3  4  2  0
  4  5  1  0
  5  6  2  0
  6  7  1  0
  7  8  2  0
  8  9  1  0
  9 10  1  0
 10 11  1  0
 11 12  1  0
 12 13  1  0
 13 14  1  0
 14 15  1  0
 15 16  1  0
 16 17  1  0
 17 18  2  0
 17 19  1  0
 19 20  1  0
 20 21  1  0
 21 22  2  0
 22 23  1  0
 23 24  2  0
 24 25  1  0
 25 26  2  0
 12 27  1  0
 27 28  1  0
  8  3  1  0
 28  9  1  0
 20 15  2  0
 26 21  1  0
  1 29  1  0
  1 30  1  0
  1 31  1  0
  4 32  1  0
  5 33  1  0
  6 34  1  0
  7 35  1  0
 10 36  1  0
 10 37  1  0
 11 38  1  0
 11 39  1  0
 12 40  1  0
 13 41  1  0
 13 42  1  0
 14 43  1  0
 14 44  1  0
 22 45  1  0
 23 46  1  0
 24 47  1  0
 25 48  1  0
 26 49  1  0
 27 50  1  0
 27 51  1  0
 28 52  1  0
 28 53  1  0
M  CHG  1  12   1
M  END
>  <UniqueID>  (71) 
63

>  <SMILES>  (71) 
COc1ccccc1N1CC[NH+](CCc2oc(=O)oc2-c2ccccc2)CC1

>  <Energy>  (71) 
111.37556371700262

>  <Genealogy>  (71) 
COc1ccccc1N1CC[NH+](CCc2oc(=O)oc2-c2ccccc2)CC1 (protonated)
COc1ccccc1N1CC[NH+](CCc2oc(=O)oc2-c2ccccc2)CC1 (3D coordinates assigned)
COc1ccccc1N1CC[NH+](CCc2oc(=O)oc2-c2ccccc2)CC1 (nonaromatic ring conformer: 111.37556371700262 kcal/mol)

>  <smiles>  (71) 
COc1ccccc1N1CCN(CCc2oc(=O)oc2-c2ccccc2)CC1

>  <score_type>  (71) 
oracle

>  <origin>  (71) 
adg

>  <m_score__min__energy>  (71) 
-6.6399999999999997

>  <m_primary>  (71) 
energy

$$$$
71:0
     RDKit          3D

 38 40  0  0  0  0  0  0  0  0999 V2000
   61.2000   34.2100   49.0340 C   0  0  0  0  0  0  0  0  0  0  0  0
   59.9320   34.6090   48.5230 O   0  0  0  0  0  0  0  0  0  0  0  0
   59.4710   34.3180   47.2310 C   0  0  0  0  0  0  0  0  0  0  0  0
   59.5800   35.2320   46.1670 C   0  0  0  0  0  0  0  0  0  0  0  0
   59.1070   34.8940   44.8970 C   0  0  0  0  0  0  0  0  0  0  0  0
   58.5220   33.6450   44.6740 C   0  0  0  0  0  0  0  0  0  0  0  0
   58.4050   32.7210   45.7240 C   0  0  0  0  0  0  0  0  0  0  0  0
   57.7860   31.4020   45.4850 C   0  0  0  0  0  0  0  0  0  0  0  0
   58.3270   30.2280   45.8680 N   0  0  0  0  0  0  0  0  0  0  0  0
   57.4030   29.3470   45.4290 C   0  0  0  0  0  0  0  0  0  0  0  0
   57.5140   27.8820   45.5990 C   0  0  0  0  0  0  0  0  0  0  0  0
   58.7570   27.2450   45.4650 C   0  0  0  0  0  0  0  0  0  0  0  0
   58.8640   25.8630   45.6260 C   0  0  0  0  0  0  0  0  0  0  0  0
   57.7310   25.0900   45.9220 C   0  0  0  0  0  0  0  0  0  0  0  0
   57.8580   23.6030   46.0930 C   0  0  0  0  0  0  0  0  0  0  0  0
   56.4770   25.7140   46.0600 C   0  0  0  0  0  0  0  0  0  0  0  0
   55.3560   24.9200   46.3580 O   0  0  0  0  0  0  0  0  0  0  0  0
   54.5950   24.2000   45.3940 C   0  0  0  0  0  0  0  0  0  0  0  0
   56.3780   27.1100   45.8960 C   0  0  0  0  0  0  0  0  0  0  0  0
   56.3660   29.9560   44.8190 N   0  0  0  0  0  0  0  0  0  0  0  0
   56.6400   31.2240   44.8750 O   0  0  0  0  0  0  0  0  0  0  0  0
   58.8840   33.0670   47.0000 C   0  0  0  0  0  0  0  0  0  0  0  0
   61.1715   34.2190   50.1336 H   0  0  0  0  0  0  0  0  0  0  0  0
   61.4344   33.1947   48.6816 H   0  0  0  0  0  0  0  0  0  0  0  0
   61.9735   34.9082   48.6816 H   0  0  0  0  0  0  0  0  0  0  0  0
   60.0397   36.2170   46.3360 H   0  0  0  0  0  0  0  0  0  0  0  0
   59.1954   35.6135   44.0697 H   0  0  0  0  0  0  0  0  0  0  0  0
   58.1516   33.3847   43.6715 H   0  0  0  0  0  0  0  0  0  0  0  0
   59.6530   27.8389   45.2315 H   0  0  0  0  0  0  0  0  0  0  0  0
   59.8444   25.3757   45.5200 H   0  0  0  0  0  0  0  0  0  0  0  0
   57.8790   23.3577   47.1651 H   0  0  0  0  0  0  0  0  0  0  0  0
   56.9991   23.1048   45.6196 H   0  0  0  0  0  0  0  0  0  0  0  0
   58.7889   23.2577   45.6196 H   0  0  0  0  0  0  0  0  0  0  0  0
   53.8889   23.5319   45.9089 H   0  0  0  0  0  0  0  0  0  0  0  0
   54.0368   24.9083   44.7641 H   0  0  0  0  0  0  0  0  0  0  0  0
   55.2713   23.6035   44.7641 H   0  0  0  0  0  0  0  0  0  0  0  0
   55.3996   27.6014   46.0017 H   0  0  0  0  0  0  0  0  0  0  0  0
   58.7968   32.3467   47.8268 H   0  0  0  0  0  0  0  0  0  0  0  0
  1  2  1  0
  2  3  1  0
  3  4  2  0
  4  5  1  0
  5  6  2  0
  6  7  1  0
  7  8  1  0
  8  9  2  0
  9 10  1  0
 10 11  1  0
 11 12  2  0
 12 13  1  0
 13 14  2  0
 14 15  1  0
 14 16  1  0
 16 17  1  0
 17 18  1  0
 16 19  2  0
 10 20  2  0
 20 21  1  0
  7 22  2  0
 22  3  1  0
 21  8  1  0
 19 11  1  0
  1 23  1  0
  1 24  1  0
  1 25  1  0
  4 26  1  0
  5 27  1  0
  6 28  1  0
 12 29  1  0
 13 30  1  0
 15 31  1  0
 15 32  1  0
 15 33  1  0
 18 34  1  0
 18 35  1  0
 18 36  1  0
 19 37  1  0
 22 38  1  0
M  END
>  <UniqueID>  (72) 
64

>  <SMILES>  (72) 
COc1cccc(-c2nc(-c3ccc(C)c(OC)c3)no2)c1

>  <Energy>  (72) 
72.62157108640211

>  <Genealogy>  (72) 
COc1cccc(-c2nc(-c3ccc(C)c(OC)c3)no2)c1 (3D coordinates assigned)
COc1cccc(-c2nc(-c3ccc(C)c(OC)c3)no2)c1 (optimized conformer: 72.62157108640211 kcal/mol)

>  <smiles>  (72) 
COc1cccc(-c2nc(-c3ccc(C)c(OC)c3)no2)c1

>  <score_type>  (72) 
oracle

>  <origin>  (72) 
adg

>  <m_score__min__energy>  (72) 
-8.0299999999999994

>  <m_primary>  (72) 
energy

$$$$
72:0
     RDKit          3D

 48 50  0  0  0  0  0  0  0  0999 V2000
   60.0750   34.0690   47.8860 C   0  0  0  0  0  0  0  0  0  0  0  0
   58.8480   33.4190   48.0500 C   0  0  0  0  0  0  0  0  0  0  0  0
   57.9850   33.2650   46.9610 C   0  0  0  0  0  0  0  0  0  0  0  0
   58.3440   33.7650   45.6980 C   0  0  0  0  0  0  0  0  0  0  0  0
   57.4390   33.5650   44.5090 C   0  0  0  0  0  0  0  0  0  0  0  0
   57.5820   32.1550   43.9240 C   0  0  0  0  0  0  0  0  0  0  0  0
   56.6520   31.2210   44.5790 N   0  0  0  0  0  0  0  0  0  0  0  0
   57.0570   29.8210   44.3800 C   0  0  0  0  0  0  0  0  0  0  0  0
   58.3050   29.4830   45.1600 C   0  0  0  0  0  0  0  0  0  0  0  0
   59.2430   28.5810   44.6330 C   0  0  0  0  0  0  0  0  0  0  0  0
   60.3680   28.2200   45.3790 C   0  0  0  0  0  0  0  0  0  0  0  0
   60.5540   28.7380   46.6620 C   0  0  0  0  0  0  0  0  0  0  0  0
   59.6130   29.6220   47.2130 C   0  0  0  0  0  0  0  0  0  0  0  0
   59.7950   30.1590   48.6090 C   0  0  0  0  0  0  0  0  0  0  0  0
   61.2170   30.2390   48.9540 N   0  0  0  0  0  0  0  0  0  0  0  0
   62.0700   31.3580   48.6430 C   0  0  0  0  0  0  0  0  0  0  0  0
   62.5560   31.5880   47.3410 C   0  0  0  0  0  0  0  0  0  0  0  0
   63.3800   32.6860   47.0760 C   0  0  0  0  0  0  0  0  0  0  0  0
   63.7220   33.5690   48.1030 C   0  0  0  0  0  0  0  0  0  0  0  0
   63.2450   33.3530   49.3970 C   0  0  0  0  0  0  0  0  0  0  0  0
   62.4240   32.2540   49.6670 C   0  0  0  0  0  0  0  0  0  0  0  0
   58.5030   30.0100   46.4460 C   0  0  0  0  0  0  0  0  0  0  0  0
   59.5800   34.4140   45.5400 C   0  0  0  0  0  0  0  0  0  0  0  0
   60.4410   34.5660   46.6310 C   0  0  0  0  0  0  0  0  0  0  0  0
   60.7525   34.1895   48.7442 H   0  0  0  0  0  0  0  0  0  0  0  0
   58.5613   33.0282   49.0374 H   0  0  0  0  0  0  0  0  0  0  0  0
   57.0217   32.7507   47.0934 H   0  0  0  0  0  0  0  0  0  0  0  0
   56.3961   33.7170   44.8242 H   0  0  0  0  0  0  0  0  0  0  0  0
   57.7237   34.2908   43.7330 H   0  0  0  0  0  0  0  0  0  0  0  0
   57.3617   32.1874   42.8468 H   0  0  0  0  0  0  0  0  0  0  0  0
   58.6110   31.8053   44.0938 H   0  0  0  0  0  0  0  0  0  0  0  0
   56.6240   31.4210   45.6070 H   0  0  0  0  0  0  0  0  0  0  0  0
   56.2403   29.1632   44.7121 H   0  0  0  0  0  0  0  0  0  0  0  0
   57.2715   29.6753   43.3110 H   0  0  0  0  0  0  0  0  0  0  0  0
   59.0917   28.1570   43.6293 H   0  0  0  0  0  0  0  0  0  0  0  0
   61.1086   27.5262   44.9545 H   0  0  0  0  0  0  0  0  0  0  0  0
   61.4425   28.4520   47.2441 H   0  0  0  0  0  0  0  0  0  0  0  0
   59.3520   31.1641   48.6695 H   0  0  0  0  0  0  0  0  0  0  0  0
   59.2981   29.4787   49.3163 H   0  0  0  0  0  0  0  0  0  0  0  0
   61.6390   29.4060   49.4230 H   0  0  0  0  0  0  0  0  0  0  0  0
   62.2854   30.8991   46.5273 H   0  0  0  0  0  0  0  0  0  0  0  0
   63.7595   32.8548   46.0574 H   0  0  0  0  0  0  0  0  0  0  0  0
   64.3672   34.4346   47.8920 H   0  0  0  0  0  0  0  0  0  0  0  0
   63.5154   34.0484   50.2053 H   0  0  0  0  0  0  0  0  0  0  0  0
   62.0520   32.0890   50.6889 H   0  0  0  0  0  0  0  0  0  0  0  0
   57.7825   30.7329   46.8561 H   0  0  0  0  0  0  0  0  0  0  0  0
   59.8716   34.8042   44.5537 H   0  0  0  0  0  0  0  0  0  0  0  0
   61.4067   35.0767   46.5022 H   0  0  0  0  0  0  0  0  0  0  0  0
  1  2  2  0
  2  3  1  0
  3  4  2  0
  4  5  1  0
  5  6  1  0
  6  7  1  0
  7  8  1  0
  8  9  1  0
  9 10  2  0
 10 11  1  0
 11 12  2  0
 12 13  1  0
 13 14  1  0
 14 15  1  0
 15 16  1  0
 16 17  2  0
 17 18  1  0
 18 19  2  0
 19 20  1  0
 20 21  2  0
 13 22  2  0
  4 23  1  0
 23 24  2  0
 24  1  1  0
 22  9  1  0
 21 16  1  0
  1 25  1  0
  2 26  1  0
  3 27  1  0
  5 28  1  0
  5 29  1  0
  6 30  1  0
  6 31  1  0
  7 32  1  0
  8 33  1  0
  8 34  1  0
 10 35  1  0
 11 36  1  0
 12 37  1  0
 14 38  1  0
 14 39  1  0
 15 40  1  0
 17 41  1  0
 18 42  1  0
 19 43  1  0
 20 44  1  0
 21 45  1  0
 22 46  1  0
 23 47  1  0
 24 48  1  0
M  END
>  <UniqueID>  (73) 
65

>  <SMILES>  (73) 
c1ccc(CCNCc2cccc(CNc3ccccc3)c2)cc1

>  <Energy>  (73) 
43.19773533011427

>  <Genealogy>  (73) 
c1ccc(CCNCc2cccc(CNc3ccccc3)c2)cc1 (3D coordinates assigned)
c1ccc(CCNCc2cccc(CNc3ccccc3)c2)cc1 (optimized conformer: 43.19773533011427 kcal/mol)

>  <smiles>  (73) 
c1ccc(CCNCc2cccc(CNc3ccccc3)c2)cc1

>  <score_type>  (73) 
oracle

>  <origin>  (73) 
adg

>  <m_score__min__energy>  (73) 
-8.6600000000000001

>  <m_primary>  (73) 
energy

$$$$
73:0
     RDKit          3D

 68 72  0  0  0  0  0  0  0  0999 V2000
   62.2260   29.7960   51.4960 F   0  0  0  0  0  0  0  0  0  0  0  0
   62.7060   31.0500   51.3060 C   0  0  0  0  0  0  0  0  0  0  0  0
   63.8180   31.2460   50.4780 C   0  0  0  0  0  0  0  0  0  0  0  0
   64.3220   32.5320   50.2750 C   0  0  0  0  0  0  0  0  0  0  0  0
   63.7150   33.6260   50.8960 C   0  0  0  0  0  0  0  0  0  0  0  0
   62.6030   33.4360   51.7230 C   0  0  0  0  0  0  0  0  0  0  0  0
   62.0900   32.1400   51.9370 C   0  0  0  0  0  0  0  0  0  0  0  0
   60.9760   31.8900   52.7580 O   0  0  0  0  0  0  0  0  0  0  0  0
   61.0220   31.3580   54.0810 C   0  0  0  0  0  0  0  0  0  0  0  0
   60.5470   29.8940   54.0940 C   0  0  0  0  0  0  0  0  0  0  0  0
   59.1200   29.7570   53.7110 N   0  0  0  0  0  0  0  0  0  0  0  0
   58.4520   31.0850   53.6240 C   0  0  0  0  0  0  0  0  0  0  0  0
   57.2520   31.0610   52.6670 C   0  0  0  0  0  0  0  0  0  0  0  0
   57.6550   30.7220   51.2780 N   0  0  0  0  0  0  0  0  0  0  0  0
   57.8070   31.9360   50.4440 C   0  0  0  0  0  0  0  0  0  0  0  0
   59.2930   32.2520   50.1730 C   0  0  2  0  0  0  0  0  0  0  0  0
   59.5780   33.7420   50.2820 C   0  0  0  0  0  0  0  0  0  0  0  0
   59.5190   34.1960   48.8550 C   0  0  0  0  0  0  0  0  0  0  0  0
   59.8950   32.9330   48.0560 C   0  0  0  0  0  0  0  0  0  0  0  0
   59.0140   32.8900   46.8040 C   0  0  0  0  0  0  0  0  0  0  0  0
   58.5680   34.0950   46.2250 C   0  0  0  0  0  0  0  0  0  0  0  0
   57.7500   34.0800   45.0920 C   0  0  0  0  0  0  0  0  0  0  0  0
   57.3580   32.8650   44.5270 C   0  0  0  0  0  0  0  0  0  0  0  0
   57.7830   31.6620   45.0940 C   0  0  0  0  0  0  0  0  0  0  0  0
   58.6030   31.6700   46.2260 C   0  0  0  0  0  0  0  0  0  0  0  0
   61.3780   32.8450   47.6500 C   0  0  0  0  0  0  0  0  0  0  0  0
   62.0880   31.6230   47.5760 C   0  0  0  0  0  0  0  0  0  0  0  0
   63.4200   31.5950   47.1500 C   0  0  0  0  0  0  0  0  0  0  0  0
   64.0600   32.7730   46.7630 C   0  0  0  0  0  0  0  0  0  0  0  0
   63.3660   33.9810   46.7860 C   0  0  0  0  0  0  0  0  0  0  0  0
   62.0340   34.0170   47.2100 C   0  0  0  0  0  0  0  0  0  0  0  0
   59.6370   31.8070   48.8770 O   0  0  0  0  0  0  0  0  0  0  0  0
   58.8620   29.8600   51.2160 C   0  0  0  0  0  0  0  0  0  0  0  0
   58.9840   28.9630   52.4570 C   0  0  0  0  0  0  0  0  0  0  0  0
   64.2953   30.3853   49.9867 H   0  0  0  0  0  0  0  0  0  0  0  0
   65.1971   32.6837   49.6260 H   0  0  0  0  0  0  0  0  0  0  0  0
   64.1122   34.6390   50.7344 H   0  0  0  0  0  0  0  0  0  0  0  0
   62.1269   34.3008   52.2083 H   0  0  0  0  0  0  0  0  0  0  0  0
   62.0557   31.4058   54.4540 H   0  0  0  0  0  0  0  0  0  0  0  0
   60.3568   31.9520   54.7250 H   0  0  0  0  0  0  0  0  0  0  0  0
   61.1596   29.3179   53.3849 H   0  0  0  0  0  0  0  0  0  0  0  0
   60.6554   29.5162   55.1214 H   0  0  0  0  0  0  0  0  0  0  0  0
   58.6430   29.2090   54.4680 H   0  0  0  0  0  0  0  0  0  0  0  0
   58.1018   31.3732   54.6262 H   0  0  0  0  0  0  0  0  0  0  0  0
   59.1831   31.8094   53.2356 H   0  0  0  0  0  0  0  0  0  0  0  0
   56.5305   30.3099   53.0208 H   0  0  0  0  0  0  0  0  0  0  0  0
   56.8061   32.0665   52.6557 H   0  0  0  0  0  0  0  0  0  0  0  0
   57.2943   31.7769   49.4839 H   0  0  0  0  0  0  0  0  0  0  0  0
   57.3663   32.7854   50.9864 H   0  0  0  0  0  0  0  0  0  0  0  0
   59.8955   31.7312   50.9318 H   0  0  0  0  0  0  0  0  0  0  0  0
   58.8143   34.2481   50.8908 H   0  0  0  0  0  0  0  0  0  0  0  0
   60.5368   33.9675   50.7717 H   0  0  0  0  0  0  0  0  0  0  0  0
   58.5071   34.5391   48.5937 H   0  0  0  0  0  0  0  0  0  0  0  0
   60.1864   35.0459   48.6493 H   0  0  0  0  0  0  0  0  0  0  0  0
   58.8665   35.0562   46.6690 H   0  0  0  0  0  0  0  0  0  0  0  0
   57.4144   35.0272   44.6446 H   0  0  0  0  0  0  0  0  0  0  0  0
   56.7143   32.8555   43.6351 H   0  0  0  0  0  0  0  0  0  0  0  0
   57.4718   30.7055   44.6488 H   0  0  0  0  0  0  0  0  0  0  0  0
   58.9304   30.7181   46.6696 H   0  0  0  0  0  0  0  0  0  0  0  0
   61.5868   30.6849   47.8566 H   0  0  0  0  0  0  0  0  0  0  0  0
   63.9654   30.6402   47.1199 H   0  0  0  0  0  0  0  0  0  0  0  0
   65.1112   32.7480   46.4401 H   0  0  0  0  0  0  0  0  0  0  0  0
   63.8668   34.9080   46.4701 H   0  0  0  0  0  0  0  0  0  0  0  0
   61.4884   34.9721   47.2009 H   0  0  0  0  0  0  0  0  0  0  0  0
   58.8000   29.2236   50.3209 H   0  0  0  0  0  0  0  0  0  0  0  0
   59.7471   30.5118   51.1757 H   0  0  0  0  0  0  0  0  0  0  0  0
   58.0840   28.3349   52.5306 H   0  0  0  0  0  0  0  0  0  0  0  0
   59.8902   28.3498   52.3442 H   0  0  0  0  0  0  0  0  0  0  0  0
  1  2  1  0
  2  3  2  0
  3  4  1  0
  4  5  2  0
  5  6  1  0
  6  7  2  0
  7  8  1  0
  8  9  1  0
  9 10  1  0
 10 11  1  0
 11 12  1  0
 12 13  1  0
 13 14  1  0
 14 15  1  0
 15 16  1  0
 16 17  1  0
 17 18  1  0
 18 19  1  0
 19 20  1  0
 20 21  2  0
 21 22  1  0
 22 23  2  0
 23 24  1  0
 24 25  2  0
 19 26  1  0
 26 27  2  0
 27 28  1  0
 28 29  2  0
 29 30  1  0
 30 31  2  0
 19 32  1  0
 14 33  1  0
 33 34  1  0
  7  2  1  0
 34 11  1  0
 32 16  1  0
 25 20  1  0
 31 26  1  0
  3 35  1  0
  4 36  1  0
  5 37  1  0
  6 38  1  0
  9 39  1  0
  9 40  1  0
 10 41  1  0
 10 42  1  0
 11 43  1  0
 12 44  1  0
 12 45  1  0
 13 46  1  0
 13 47  1  0
 15 48  1  0
 15 49  1  0
 16 50  1  1
 17 51  1  0
 17 52  1  0
 18 53  1  0
 18 54  1  0
 21 55  1  0
 22 56  1  0
 23 57  1  0
 24 58  1  0
 25 59  1  0
 27 60  1  0
 28 61  1  0
 29 62  1  0
 30 63  1  0
 31 64  1  0
 33 65  1  0
 33 66  1  0
 34 67  1  0
 34 68  1  0
M  CHG  1  11   1
M  END
>  <UniqueID>  (74) 
66

>  <SMILES>  (74) 
Fc1ccccc1OCC[NH+]1CCN(C[C@@H]2CCC(c3ccccc3)(c3ccccc3)O2)CC1

>  <Energy>  (74) 
94.13149023971383

>  <Genealogy>  (74) 
Fc1ccccc1OCC[NH+]1CCN(CC2CCC(c3ccccc3)(c3ccccc3)O2)CC1 (protonated)
Fc1ccccc1OCC[NH+]1CCN(C[C@@H]2CCC(c3ccccc3)(c3ccccc3)O2)CC1 (chirality)
Fc1ccccc1OCC[NH+]1CCN(C[C@@H]2CCC(c3ccccc3)(c3ccccc3)O2)CC1 (3D coordinates assigned)
Fc1ccccc1OCC[NH+]1CCN(C[C@@H]2CCC(c3ccccc3)(c3ccccc3)O2)CC1 (nonaromatic ring conformer: 94.13149023971383 kcal/mol)

>  <smiles>  (74) 
Fc1ccccc1OCCN1CCN(CC2CCC(c3ccccc3)(c3ccccc3)O2)CC1

>  <score_type>  (74) 
oracle

>  <origin>  (74) 
adg

>  <m_score__min__energy>  (74) 
-7.71

>  <m_primary>  (74) 
energy

$$$$
74:0
     RDKit          3D

 25 26  0  0  0  0  0  0  0  0999 V2000
   55.1510   27.9810   44.8730 H   0  0  0  0  0  0  0  0  0  0  0  0
   55.3310   28.9770   44.8550 O   0  0  0  0  0  0  0  0  0  0  0  0
   56.6090   29.5000   45.0450 C   0  0  0  0  0  0  0  0  0  0  0  0
   56.8220   30.8420   45.0500 N   0  0  0  0  0  0  0  0  0  0  0  0
   58.1290   31.1350   45.2410 C   0  0  0  0  0  0  0  0  0  0  0  0
   58.6180   32.3390   45.2480 N   0  0  0  0  0  0  0  0  0  0  0  0
   59.4290   32.9280   46.2790 C   0  0  0  0  0  0  0  0  0  0  0  0
   58.8440   33.8680   47.1380 C   0  0  0  0  0  0  0  0  0  0  0  0
   57.7796   34.1220   47.0259 H   0  0  0  0  0  0  0  0  0  0  0  0
   59.6030   34.4850   48.1360 C   0  0  0  0  0  0  0  0  0  0  0  0
   59.1310   35.2096   48.8158 H   0  0  0  0  0  0  0  0  0  0  0  0
   60.9610   34.1830   48.2720 C   0  0  0  0  0  0  0  0  0  0  0  0
   61.6890   34.7890   49.2440 F   0  0  0  0  0  0  0  0  0  0  0  0
   61.5650   33.2690   47.4000 C   0  0  0  0  0  0  0  0  0  0  0  0
   63.2760   32.9070   47.5420 Cl  0  0  0  0  0  0  0  0  0  0  0  0
   60.8050   32.6500   46.4010 C   0  0  0  0  0  0  0  0  0  0  0  0
   61.2841   31.9431   45.7077 H   0  0  0  0  0  0  0  0  0  0  0  0
   59.0730   29.7540   45.3850 S   0  0  0  0  0  0  0  0  0  0  0  0
   57.7530   28.7190   45.2340 C   0  0  0  0  0  0  0  0  0  0  0  0
   57.8430   27.2230   45.2140 C   0  0  0  0  0  0  0  0  0  0  0  0
   58.8621   26.9163   45.4919 H   0  0  0  0  0  0  0  0  0  0  0  0
   57.6057   26.8620   44.2024 H   0  0  0  0  0  0  0  0  0  0  0  0
   56.8690   26.6360   46.1830 C   0  0  0  0  0  0  0  0  0  0  0  0
   57.2820   26.0400   47.2130 O   0  0  0  0  0  0  0  0  0  0  0  0
   55.5050   26.7070   45.9310 O   0  0  0  0  0  0  0  0  0  0  0  0
  1  2  1  0
  2  3  1  0
  3  4  1  0
  4  5  1  0
  5  6  2  0
  6  7  1  0
  7  8  2  0
  8  9  1  0
  8 10  1  0
 10 11  1  0
 10 12  2  0
 12 13  1  0
 12 14  1  0
 14 15  1  0
 14 16  2  0
 16 17  1  0
  5 18  1  0
 18 19  1  0
 19 20  1  0
 20 21  1  0
 20 22  1  0
 20 23  1  0
 23 24  2  0
 23 25  1  0
 19  3  2  0
 16  7  1  0
M  CHG  2   4  -1  25  -1
M  END
>  <UniqueID>  (75) 
67

>  <SMILES>  (75) 
O=C([O-])Cc1s/c(=N/c2ccc(F)c(Cl)c2)[n-]c1O

>  <Energy>  (75) 
59.61005628768247

>  <Genealogy>  (75) 
O=C([O-])Cc1sc(=Nc2ccc(F)c(Cl)c2)[n-]c1O (protonated)
O=C([O-])Cc1s/c(=N/c2ccc(F)c(Cl)c2)[n-]c1O (cis-trans isomerization)
O=C([O-])Cc1s/c(=N/c2ccc(F)c(Cl)c2)[n-]c1O (3D coordinates assigned)
O=C([O-])Cc1s/c(=N/c2ccc(F)c(Cl)c2)[n-]c1O (optimized conformer: 59.61005628768247 kcal/mol)

>  <smiles>  (75) 
O=C(O)Cc1sc(=Nc2ccc(F)c(Cl)c2)[nH]c1O

>  <score_type>  (75) 
oracle

>  <origin>  (75) 
adg

>  <m_score__min__energy>  (75) 
-11.970000000000001

>  <m_primary>  (75) 
energy

$$$$
75:0
     RDKit          3D

 50 54  0  0  0  0  0  0  0  0999 V2000
   57.2140   20.0350   46.0230 C   0  0  0  0  0  0  0  0  0  0  0  0
   57.1490   21.3930   45.3910 C   0  0  0  0  0  0  0  0  0  0  0  0
   56.8870   21.5390   44.0110 C   0  0  0  0  0  0  0  0  0  0  0  0
   56.7900   22.8150   43.4310 C   0  0  0  0  0  0  0  0  0  0  0  0
   56.9430   23.9170   44.2660 C   0  0  0  0  0  0  0  0  0  0  0  0
   56.8620   25.2130   43.9080 N   0  0  0  0  0  0  0  0  0  0  0  0
   57.0510   25.8930   45.0640 C   0  0  0  0  0  0  0  0  0  0  0  0
   57.0570   27.3550   45.1780 C   0  0  0  0  0  0  0  0  0  0  0  0
   58.1760   28.1040   45.2230 N   0  0  0  0  0  0  0  0  0  0  0  0
   57.6510   29.3450   45.3190 C   0  0  0  0  0  0  0  0  0  0  0  0
   58.4470   30.5390   45.4120 N   0  0  0  0  0  0  0  0  0  0  0  0
   57.8170   31.8460   45.1630 C   0  0  0  0  0  0  0  0  0  0  0  0
   58.8380   32.9840   45.2560 C   0  0  0  0  0  0  0  0  0  0  0  0
   59.6600   32.8080   46.4580 N   0  0  0  0  0  0  0  0  0  0  0  0
   59.6540   33.8050   47.5000 C   0  0  0  0  0  0  0  0  0  0  0  0
   58.7110   34.6380   47.5660 O   0  0  0  0  0  0  0  0  0  0  0  0
   60.7080   33.8560   48.5340 C   0  0  0  0  0  0  0  0  0  0  0  0
   60.3550   33.7900   49.8950 C   0  0  0  0  0  0  0  0  0  0  0  0
   61.3410   33.8420   50.8850 C   0  0  0  0  0  0  0  0  0  0  0  0
   62.6840   33.9750   50.5260 C   0  0  0  0  0  0  0  0  0  0  0  0
   63.0430   34.0630   49.1740 C   0  0  0  0  0  0  0  0  0  0  0  0
   62.0580   34.0130   48.1810 C   0  0  0  0  0  0  0  0  0  0  0  0
   60.3250   31.5110   46.6830 C   0  0  0  0  0  0  0  0  0  0  0  0
   59.8940   30.4550   45.6520 C   0  0  0  0  0  0  0  0  0  0  0  0
   56.3030   29.3440   45.3370 N   0  0  0  0  0  0  0  0  0  0  0  0
   55.9730   28.0920   45.2450 O   0  0  0  0  0  0  0  0  0  0  0  0
   57.2510   24.9980   46.1060 C   0  0  0  0  0  0  0  0  0  0  0  0
   57.1750   23.7610   45.5810 N   0  0  0  0  0  0  0  0  0  0  0  0
   57.2860   22.5500   46.1840 C   0  0  0  0  0  0  0  0  0  0  0  0
   57.2090   20.1396   47.1180 H   0  0  0  0  0  0  0  0  0  0  0  0
   56.3432   19.4416   45.7073 H   0  0  0  0  0  0  0  0  0  0  0  0
   58.1375   19.5275   45.7073 H   0  0  0  0  0  0  0  0  0  0  0  0
   56.7576   20.6446   43.3838 H   0  0  0  0  0  0  0  0  0  0  0  0
   56.5998   22.9382   42.3546 H   0  0  0  0  0  0  0  0  0  0  0  0
   56.6850   25.6020   42.9560 H   0  0  0  0  0  0  0  0  0  0  0  0
   57.3738   31.8439   44.1562 H   0  0  0  0  0  0  0  0  0  0  0  0
   57.0444   32.0100   45.9286 H   0  0  0  0  0  0  0  0  0  0  0  0
   59.4836   32.9708   44.3654 H   0  0  0  0  0  0  0  0  0  0  0  0
   58.3090   33.9468   45.3119 H   0  0  0  0  0  0  0  0  0  0  0  0
   59.2970   33.6970   50.1815 H   0  0  0  0  0  0  0  0  0  0  0  0
   61.0589   33.7782   51.9463 H   0  0  0  0  0  0  0  0  0  0  0  0
   63.4603   34.0107   51.3045 H   0  0  0  0  0  0  0  0  0  0  0  0
   64.1009   34.1716   48.8929 H   0  0  0  0  0  0  0  0  0  0  0  0
   62.3420   34.0969   47.1216 H   0  0  0  0  0  0  0  0  0  0  0  0
   61.4135   31.6531   46.6117 H   0  0  0  0  0  0  0  0  0  0  0  0
   60.0349   31.1495   47.6806 H   0  0  0  0  0  0  0  0  0  0  0  0
   60.4295   30.6302   44.7073 H   0  0  0  0  0  0  0  0  0  0  0  0
   60.1351   29.4549   46.0413 H   0  0  0  0  0  0  0  0  0  0  0  0
   57.4363   25.2515   47.1602 H   0  0  0  0  0  0  0  0  0  0  0  0
   57.4780   22.4736   47.2644 H   0  0  0  0  0  0  0  0  0  0  0  0
  1  2  1  0
  2  3  1  0
  3  4  2  0
  4  5  1  0
  5  6  2  0
  6  7  1  0
  7  8  1  0
  8  9  2  0
  9 10  1  0
 10 11  1  0
 11 12  1  0
 12 13  1  0
 13 14  1  0
 14 15  1  0
 15 16  2  0
 15 17  1  0
 17 18  2  0
 18 19  1  0
 19 20  2  0
 20 21  1  0
 21 22  2  0
 14 23  1  0
 23 24  1  0
 10 25  2  0
 25 26  1  0
  7 27  2  0
 27 28  1  0
 28 29  1  0
 29  2  2  0
 28  5  1  0
 26  8  1  0
 24 11  1  0
 22 17  1  0
  1 30  1  0
  1 31  1  0
  1 32  1  0
  3 33  1  0
  4 34  1  0
  6 35  1  0
 12 36  1  0
 12 37  1  0
 13 38  1  0
 13 39  1  0
 18 40  1  0
 19 41  1  0
 20 42  1  0
 21 43  1  0
 22 44  1  0
 23 45  1  0
 23 46  1  0
 24 47  1  0
 24 48  1  0
 27 49  1  0
 29 50  1  0
M  CHG  1   6   1
M  END
>  <UniqueID>  (76) 
68

>  <SMILES>  (76) 
Cc1ccc2[nH+]c(-c3nc(N4CCN(C(=O)c5ccccc5)CC4)no3)cn2c1

>  <Energy>  (76) 
128.74858530334146

>  <Genealogy>  (76) 
Cc1ccc2[nH+]c(-c3nc(N4CCN(C(=O)c5ccccc5)CC4)no3)cn2c1 (protonated)
Cc1ccc2[nH+]c(-c3nc(N4CCN(C(=O)c5ccccc5)CC4)no3)cn2c1 (3D coordinates assigned)
Cc1ccc2[nH+]c(-c3nc(N4CCN(C(=O)c5ccccc5)CC4)no3)cn2c1 (nonaromatic ring conformer: 128.74858530334146 kcal/mol)

>  <smiles>  (76) 
Cc1ccc2nc(-c3nc(N4CCN(C(=O)c5ccccc5)CC4)no3)cn2c1

>  <score_type>  (76) 
oracle

>  <origin>  (76) 
adg

>  <m_score__min__energy>  (76) 
-6.75

>  <m_primary>  (76) 
energy

$$$$
76:0
     RDKit          3D

 38 39  0  0  0  0  0  0  0  0999 V2000
   59.7890   34.6510   47.1500 C   0  0  0  0  0  0  0  0  0  0  0  0
   58.4350   34.1400   46.9980 N   0  0  0  0  0  0  0  0  0  0  0  0
   57.8210   33.7300   45.7680 C   0  0  0  0  0  0  0  0  0  0  0  0
   57.4500   34.6230   44.9610 O   0  0  0  0  0  0  0  0  0  0  0  0
   57.6030   32.3120   45.4090 C   0  0  0  0  0  0  0  0  0  0  0  0
   58.3180   31.2400   45.9160 C   0  0  0  0  0  0  0  0  0  0  0  0
   57.7770   30.1350   45.2910 C   0  0  0  0  0  0  0  0  0  0  0  0
   58.2050   28.7440   45.5260 C   0  0  0  0  0  0  0  0  0  0  0  0
   59.3840   28.5300   45.9200 O   0  0  0  0  0  0  0  0  0  0  0  0
   57.3150   27.6420   45.2850 N   0  0  0  0  0  0  0  0  0  0  0  0
   57.6780   26.2830   45.5520 C   0  0  0  0  0  0  0  0  0  0  0  0
   58.9660   25.8000   45.6290 C   0  0  0  0  0  0  0  0  0  0  0  0
   58.9190   24.4810   45.9010 N   0  0  0  0  0  0  0  0  0  0  0  0
   57.6450   24.1260   46.0090 N   0  0  0  0  0  0  0  0  0  0  0  0
   57.2320   22.7680   46.3500 C   0  0  0  0  0  0  0  0  0  0  0  0
   56.8490   25.2040   45.8120 C   0  0  0  0  0  0  0  0  0  0  0  0
   55.3800   25.2380   45.9870 C   0  0  0  0  0  0  0  0  0  0  0  0
   54.7740   26.3440   45.9730 O   0  0  0  0  0  0  0  0  0  0  0  0
   54.6440   24.0270   46.1760 N   0  0  0  0  0  0  0  0  0  0  0  0
   53.5530   23.6240   45.3010 C   0  0  0  0  0  0  0  0  0  0  0  0
   56.7730   30.5470   44.4820 N   0  0  0  0  0  0  0  0  0  0  0  0
   55.8750   29.7250   43.6770 C   0  0  0  0  0  0  0  0  0  0  0  0
   56.6720   31.8650   44.5440 N   0  0  0  0  0  0  0  0  0  0  0  0
   60.0288   34.7415   48.2197 H   0  0  0  0  0  0  0  0  0  0  0  0
   60.4980   33.9586   46.6726 H   0  0  0  0  0  0  0  0  0  0  0  0
   59.8637   35.6392   46.6726 H   0  0  0  0  0  0  0  0  0  0  0  0
   59.1348   31.2639   46.6524 H   0  0  0  0  0  0  0  0  0  0  0  0
   56.3280   27.8280   45.0090 H   0  0  0  0  0  0  0  0  0  0  0  0
   59.8819   26.3934   45.4911 H   0  0  0  0  0  0  0  0  0  0  0  0
   57.1988   22.6587   47.4440 H   0  0  0  0  0  0  0  0  0  0  0  0
   56.2337   22.5723   45.9315 H   0  0  0  0  0  0  0  0  0  0  0  0
   57.9523   22.0497   45.9315 H   0  0  0  0  0  0  0  0  0  0  0  0
   52.6933   23.3064   45.9093 H   0  0  0  0  0  0  0  0  0  0  0  0
   53.2594   24.4730   44.6662 H   0  0  0  0  0  0  0  0  0  0  0  0
   53.8818   22.7880   44.6662 H   0  0  0  0  0  0  0  0  0  0  0  0
   55.2275   29.1323   44.3398 H   0  0  0  0  0  0  0  0  0  0  0  0
   55.2539   30.3741   43.0422 H   0  0  0  0  0  0  0  0  0  0  0  0
   56.4668   29.0491   43.0422 H   0  0  0  0  0  0  0  0  0  0  0  0
  1  2  1  0
  2  3  1  0
  3  4  2  0
  3  5  1  0
  5  6  1  0
  6  7  2  0
  7  8  1  0
  8  9  2  0
  8 10  1  0
 10 11  1  0
 11 12  1  0
 12 13  2  0
 13 14  1  0
 14 15  1  0
 14 16  1  0
 16 17  1  0
 17 18  2  0
 17 19  1  0
 19 20  1  0
  7 21  1  0
 21 22  1  0
 21 23  1  0
 23  5  2  0
 16 11  2  0
  1 24  1  0
  1 25  1  0
  1 26  1  0
  6 27  1  0
 10 28  1  0
 12 29  1  0
 15 30  1  0
 15 31  1  0
 15 32  1  0
 20 33  1  0
 20 34  1  0
 20 35  1  0
 22 36  1  0
 22 37  1  0
 22 38  1  0
M  CHG  2   2  -1  19  -1
M  END
>  <UniqueID>  (77) 
69

>  <SMILES>  (77) 
C[N-]C(=O)c1cc(C(=O)Nc2cnn(C)c2C(=O)[N-]C)n(C)n1

>  <Energy>  (77) 
104.46790884129024

>  <Genealogy>  (77) 
C[N-]C(=O)c1cc(C(=O)Nc2cnn(C)c2C(=O)[N-]C)n(C)n1 (protonated)
C[N-]C(=O)c1cc(C(=O)Nc2cnn(C)c2C(=O)[N-]C)n(C)n1 (3D coordinates assigned)
C[N-]C(=O)c1cc(C(=O)Nc2cnn(C)c2C(=O)[N-]C)n(C)n1 (optimized conformer: 104.46790884129024 kcal/mol)

>  <smiles>  (77) 
CNC(=O)c1cc(C(=O)Nc2cnn(C)c2C(=O)NC)n(C)n1

>  <score_type>  (77) 
oracle

>  <origin>  (77) 
adg

>  <m_score__min__energy>  (77) 
-9.6099999999999994

>  <m_primary>  (77) 
energy

$$$$
77:0
     RDKit          3D

 63 67  0  0  0  0  0  0  0  0999 V2000
   56.8303   31.2887   43.0615 H   0  0  0  0  0  0  0  0  0  0  0  0
   57.2570   30.6600   43.8570 C   0  0  0  0  0  0  0  0  0  0  0  0
   58.4380   31.0430   44.4890 C   0  0  0  0  0  0  0  0  0  0  0  0
   58.9412   31.9742   44.1897 H   0  0  0  0  0  0  0  0  0  0  0  0
   58.9870   30.2510   45.5010 C   0  0  0  0  0  0  0  0  0  0  0  0
   59.9148   30.5692   45.9989 H   0  0  0  0  0  0  0  0  0  0  0  0
   58.3630   29.0480   45.8900 C   0  0  0  0  0  0  0  0  0  0  0  0
   58.8950   28.2130   46.9080 C   0  0  0  0  0  0  0  0  0  0  0  0
   60.1390   28.5800   47.6900 C   0  0  0  0  0  0  0  0  0  0  0  0
   60.9312   27.8493   47.4698 H   0  0  0  0  0  0  0  0  0  0  0  0
   60.4546   29.5910   47.3930 H   0  0  0  0  0  0  0  0  0  0  0  0
   59.8710   28.5780   49.1360 N   0  0  0  0  0  0  0  0  0  0  0  0
   58.9140   28.1790   49.2730 H   0  0  0  0  0  0  0  0  0  0  0  0
   59.8920   29.9340   49.7150 C   0  0  0  0  0  0  0  0  0  0  0  0
   60.1100   29.8683   50.7912 H   0  0  0  0  0  0  0  0  0  0  0  0
   60.6695   30.5306   49.2154 H   0  0  0  0  0  0  0  0  0  0  0  0
   58.5310   30.6050   49.5120 C   0  0  0  0  0  0  0  0  0  0  0  0
   58.3642   30.7611   48.4360 H   0  0  0  0  0  0  0  0  0  0  0  0
   57.7527   29.9514   49.9328 H   0  0  0  0  0  0  0  0  0  0  0  0
   58.4710   31.9610   50.2310 C   0  0  0  0  0  0  0  0  0  0  0  0
   57.4392   32.3406   50.1947 H   0  0  0  0  0  0  0  0  0  0  0  0
   58.7960   31.8170   51.2720 H   0  0  0  0  0  0  0  0  0  0  0  0
   59.3590   32.9350   49.6010 N   0  0  0  0  0  0  0  0  0  0  0  0
   59.8470   33.1190   48.3950 C   0  0  0  0  0  0  0  0  0  0  0  0
   61.2580   33.0340   48.2870 C   0  0  0  0  0  0  0  0  0  0  0  0
   61.8970   33.4520   47.0980 C   0  0  0  0  0  0  0  0  0  0  0  0
   61.1540   33.8630   46.0390 N   0  0  0  0  0  0  0  0  0  0  0  0
   61.6510   34.1550   45.1650 H   0  0  0  0  0  0  0  0  0  0  0  0
   59.7940   33.8700   46.0610 C   0  0  0  0  0  0  0  0  0  0  0  0
   59.0990   34.2620   44.9050 C   0  0  0  0  0  0  0  0  0  0  0  0
   59.6592   34.6088   44.0242 H   0  0  0  0  0  0  0  0  0  0  0  0
   57.7100   34.2160   44.8630 C   0  0  0  0  0  0  0  0  0  0  0  0
   57.1746   34.5409   43.9586 H   0  0  0  0  0  0  0  0  0  0  0  0
   57.0020   33.7600   45.9630 C   0  0  0  0  0  0  0  0  0  0  0  0
   55.9041   33.7051   45.9235 H   0  0  0  0  0  0  0  0  0  0  0  0
   57.6760   33.3700   47.1210 C   0  0  0  0  0  0  0  0  0  0  0  0
   57.0986   32.9817   47.9730 H   0  0  0  0  0  0  0  0  0  0  0  0
   59.0860   33.4620   47.2260 C   0  0  0  0  0  0  0  0  0  0  0  0
   63.3980   33.3660   46.9290 C   0  0  0  0  0  0  0  0  0  0  0  0
   63.6365   32.4472   46.3732 H   0  0  0  0  0  0  0  0  0  0  0  0
   63.7213   34.2675   46.3879 H   0  0  0  0  0  0  0  0  0  0  0  0
   64.1460   33.3380   48.2610 C   0  0  0  0  0  0  0  0  0  0  0  0
   65.2026   33.0911   48.0800 H   0  0  0  0  0  0  0  0  0  0  0  0
   64.0695   34.3261   48.7382 H   0  0  0  0  0  0  0  0  0  0  0  0
   63.5340   32.2900   49.1820 C   0  0  0  0  0  0  0  0  0  0  0  0
   63.5585   31.3097   48.6835 H   0  0  0  0  0  0  0  0  0  0  0  0
   64.1135   32.2516   50.1162 H   0  0  0  0  0  0  0  0  0  0  0  0
   62.0850   32.6540   49.5090 C   0  0  0  0  0  0  0  0  0  0  0  0
   61.6104   31.7882   49.9939 H   0  0  0  0  0  0  0  0  0  0  0  0
   62.1155   33.5374   50.1638 H   0  0  0  0  0  0  0  0  0  0  0  0
   58.2140   27.0350   47.2600 C   0  0  0  0  0  0  0  0  0  0  0  0
   58.6227   26.3900   48.0517 H   0  0  0  0  0  0  0  0  0  0  0  0
   57.0210   26.6680   46.6180 C   0  0  0  0  0  0  0  0  0  0  0  0
   56.3170   25.5030   46.9530 O   0  0  0  0  0  0  0  0  0  0  0  0
   55.9810   24.4730   46.0310 C   0  0  0  0  0  0  0  0  0  0  0  0
   55.6859   23.5685   46.5832 H   0  0  0  0  0  0  0  0  0  0  0  0
   55.1448   24.8056   45.3985 H   0  0  0  0  0  0  0  0  0  0  0  0
   56.8525   24.2485   45.3985 H   0  0  0  0  0  0  0  0  0  0  0  0
   56.5060   27.4850   45.6110 C   0  0  0  0  0  0  0  0  0  0  0  0
   55.5751   27.1965   45.1009 H   0  0  0  0  0  0  0  0  0  0  0  0
   57.1590   28.6680   45.2410 C   0  0  0  0  0  0  0  0  0  0  0  0
   56.6160   29.4810   44.2320 C   0  0  0  0  0  0  0  0  0  0  0  0
   55.6800   29.1853   43.7355 H   0  0  0  0  0  0  0  0  0  0  0  0
  1  2  1  0
  2  3  2  0
  3  4  1  0
  3  5  1  0
  5  6  1  0
  5  7  2  0
  7  8  1  0
  8  9  1  0
  9 10  1  0
  9 11  1  0
  9 12  1  0
 12 13  1  0
 12 14  1  0
 14 15  1  0
 14 16  1  0
 14 17  1  0
 17 18  1  0
 17 19  1  0
 17 20  1  0
 20 21  1  0
 20 22  1  0
 20 23  1  0
 23 24  2  0
 24 25  1  0
 25 26  2  0
 26 27  1  0
 27 28  1  0
 27 29  1  0
 29 30  2  0
 30 31  1  0
 30 32  1  0
 32 33  1  0
 32 34  2  0
 34 35  1  0
 34 36  1  0
 36 37  1  0
 36 38  2  0
 26 39  1  0
 39 40  1  0
 39 41  1  0
 39 42  1  0
 42 43  1  0
 42 44  1  0
 42 45  1  0
 45 46  1  0
 45 47  1  0
 45 48  1  0
 48 49  1  0
 48 50  1  0
  8 51  2  0
 51 52  1  0
 51 53  1  0
 53 54  1  0
 54 55  1  0
 55 56  1  0
 55 57  1  0
 55 58  1  0
 53 59  2  0
 59 60  1  0
 59 61  1  0
 61 62  2  0
 62 63  1  0
 62  2  1  0
 61  7  1  0
 38 24  1  0
 48 25  1  0
 38 29  1  0
M  END
>  <UniqueID>  (78) 
70

>  <SMILES>  (78) 
COc1cc(CNCCC/N=c2/c3c([nH]c4ccccc24)CCCC3)c2ccccc2c1

>  <Energy>  (78) 
91.1840537315798

>  <Genealogy>  (78) 
COc1cc(CNCCC/N=c2/c3c([nH]c4ccccc24)CCCC3)c2ccccc2c1 (cis-trans isomerization)
COc1cc(CNCCC/N=c2/c3c([nH]c4ccccc24)CCCC3)c2ccccc2c1 (3D coordinates assigned)
COc1cc(CNCCC/N=c2/c3c([nH]c4ccccc24)CCCC3)c2ccccc2c1 (nonaromatic ring conformer: 91.1840537315798 kcal/mol)

>  <smiles>  (78) 
COc1cc(CNCCCN=c2c3c([nH]c4ccccc24)CCCC3)c2ccccc2c1

>  <score_type>  (78) 
oracle

>  <origin>  (78) 
adg

>  <m_score__min__energy>  (78) 
-9.6099999999999994

>  <m_primary>  (78) 
energy

$$$$
78:0
     RDKit          3D

 56 58  0  0  0  0  0  0  0  0999 V2000
   63.4980   33.4880   46.9510 C   0  0  0  0  0  0  0  0  0  0  0  0
   61.9960   33.5800   46.6970 C   0  0  0  0  0  0  0  0  0  0  0  0
   61.1800   33.3780   47.9800 C   0  0  0  0  0  0  0  0  0  0  0  0
   61.7220   32.2720   48.7860 N   0  0  0  0  0  0  0  0  0  0  0  0
   62.5510   32.5710   49.9660 C   0  0  0  0  0  0  0  0  0  0  0  0
   62.6150   34.0780   50.2400 C   0  0  0  0  0  0  0  0  0  0  0  0
   63.7240   34.4330   51.2280 C   0  0  0  0  0  0  0  0  0  0  0  0
   61.4960   30.9130   48.3490 C   0  0  0  0  0  0  0  0  0  0  0  0
   61.4300   30.6690   47.1150 O   0  0  0  0  0  0  0  0  0  0  0  0
   61.3690   29.7780   49.3390 C   0  0  0  0  0  0  0  0  0  0  0  0
   59.9920   29.0890   49.3120 C   0  0  0  0  0  0  0  0  0  0  0  0
   58.8960   29.8750   48.5670 C   0  0  0  0  0  0  0  0  0  0  0  0
   58.7070   29.3980   47.1840 N   0  0  0  0  0  0  0  0  0  0  0  0
   59.0960   28.0560   46.9080 C   0  0  0  0  0  0  0  0  0  0  0  0
   60.3060   27.7170   46.9990 O   0  0  0  0  0  0  0  0  0  0  0  0
   58.0620   27.0570   46.6950 C   0  0  0  0  0  0  0  0  0  0  0  0
   58.0440   25.8900   47.4690 C   0  0  0  0  0  0  0  0  0  0  0  0
   57.0150   24.9630   47.3100 C   0  0  0  0  0  0  0  0  0  0  0  0
   56.0190   25.2080   46.3740 C   0  0  0  0  0  0  0  0  0  0  0  0
   56.0580   26.3410   45.6240 N   0  0  0  0  0  0  0  0  0  0  0  0
   57.0350   27.2820   45.7660 C   0  0  0  0  0  0  0  0  0  0  0  0
   57.0850   28.3590   44.8150 N   0  0  0  0  0  0  0  0  0  0  0  0
   57.4560   29.7440   45.0150 C   0  0  0  0  0  0  0  0  0  0  0  0
   57.0400   30.6470   44.0130 C   0  0  0  0  0  0  0  0  0  0  0  0
   57.3270   32.0070   44.0960 C   0  0  0  0  0  0  0  0  0  0  0  0
   58.0410   32.5020   45.1800 C   0  0  0  0  0  0  0  0  0  0  0  0
   58.4090   34.2180   45.2820 Cl  0  0  0  0  0  0  0  0  0  0  0  0
   58.4770   31.6350   46.1810 C   0  0  0  0  0  0  0  0  0  0  0  0
   58.1960   30.2490   46.1310 C   0  0  0  0  0  0  0  0  0  0  0  0
   63.6866   33.4764   48.0347 H   0  0  0  0  0  0  0  0  0  0  0  0
   63.8901   32.5642   46.5007 H   0  0  0  0  0  0  0  0  0  0  0  0
   63.9999   34.3571   46.5007 H   0  0  0  0  0  0  0  0  0  0  0  0
   61.7665   34.5731   46.2834 H   0  0  0  0  0  0  0  0  0  0  0  0
   61.7222   32.7810   45.9923 H   0  0  0  0  0  0  0  0  0  0  0  0
   61.2101   34.3033   48.5740 H   0  0  0  0  0  0  0  0  0  0  0  0
   60.1454   33.1309   47.6999 H   0  0  0  0  0  0  0  0  0  0  0  0
   62.1198   32.0662   50.8430 H   0  0  0  0  0  0  0  0  0  0  0  0
   63.5722   32.2119   49.7705 H   0  0  0  0  0  0  0  0  0  0  0  0
   62.8022   34.6037   49.2921 H   0  0  0  0  0  0  0  0  0  0  0  0
   61.6553   34.3841   50.6819 H   0  0  0  0  0  0  0  0  0  0  0  0
   63.3512   34.3137   52.2560 H   0  0  0  0  0  0  0  0  0  0  0  0
   64.5836   33.7651   51.0698 H   0  0  0  0  0  0  0  0  0  0  0  0
   64.0360   35.4759   51.0698 H   0  0  0  0  0  0  0  0  0  0  0  0
   62.1386   29.0268   49.1077 H   0  0  0  0  0  0  0  0  0  0  0  0
   61.4947   30.2095   50.3430 H   0  0  0  0  0  0  0  0  0  0  0  0
   60.1071   28.1114   48.8210 H   0  0  0  0  0  0  0  0  0  0  0  0
   59.6623   29.0101   50.3585 H   0  0  0  0  0  0  0  0  0  0  0  0
   57.9474   29.7629   49.1126 H   0  0  0  0  0  0  0  0  0  0  0  0
   59.2102   30.9281   48.5198 H   0  0  0  0  0  0  0  0  0  0  0  0
   58.8422   25.7047   48.2028 H   0  0  0  0  0  0  0  0  0  0  0  0
   56.9923   24.0475   47.9194 H   0  0  0  0  0  0  0  0  0  0  0  0
   55.1997   24.4864   46.2397 H   0  0  0  0  0  0  0  0  0  0  0  0
   56.6380   28.1270   43.8960 H   0  0  0  0  0  0  0  0  0  0  0  0
   56.4767   30.2680   43.1475 H   0  0  0  0  0  0  0  0  0  0  0  0
   56.9882   32.6898   43.3029 H   0  0  0  0  0  0  0  0  0  0  0  0
   59.0520   32.0371   47.0282 H   0  0  0  0  0  0  0  0  0  0  0  0
  1  2  1  0
  2  3  1  0
  3  4  1  0
  4  5  1  0
  5  6  1  0
  6  7  1  0
  4  8  1  0
  8  9  2  0
  8 10  1  0
 10 11  1  0
 11 12  1  0
 12 13  1  0
 13 14  1  0
 14 15  2  0
 14 16  1  0
 16 17  2  0
 17 18  1  0
 18 19  2  0
 19 20  1  0
 20 21  2  0
 21 22  1  0
 22 23  1  0
 23 24  2  0
 24 25  1  0
 25 26  2  0
 26 27  1  0
 26 28  1  0
 28 29  2  0
 29 13  1  0
 21 16  1  0
 29 23  1  0
  1 30  1  0
  1 31  1  0
  1 32  1  0
  2 33  1  0
  2 34  1  0
  3 35  1  0
  3 36  1  0
  5 37  1  0
  5 38  1  0
  6 39  1  0
  6 40  1  0
  7 41  1  0
  7 42  1  0
  7 43  1  0
 10 44  1  0
 10 45  1  0
 11 46  1  0
 11 47  1  0
 12 48  1  0
 12 49  1  0
 17 50  1  0
 18 51  1  0
 19 52  1  0
 22 53  1  0
 24 54  1  0
 25 55  1  0
 28 56  1  0
M  END
>  <UniqueID>  (79) 
71

>  <SMILES>  (79) 
CCCN(CCC)C(=O)CCCN1C(=O)c2cccnc2Nc2ccc(Cl)cc21

>  <Energy>  (79) 
71.32456191464348

>  <Genealogy>  (79) 
CCCN(CCC)C(=O)CCCN1C(=O)c2cccnc2Nc2ccc(Cl)cc21 (3D coordinates assigned)
CCCN(CCC)C(=O)CCCN1C(=O)c2cccnc2Nc2ccc(Cl)cc21 (nonaromatic ring conformer: 71.32456191464348 kcal/mol)

>  <smiles>  (79) 
CCCN(CCC)C(=O)CCCN1C(=O)c2cccnc2Nc2ccc(Cl)cc21

>  <score_type>  (79) 
oracle

>  <origin>  (79) 
adg

>  <m_score__min__energy>  (79) 
-8.0700000000000003

>  <m_primary>  (79) 
energy

$$$$
79:0
     RDKit          3D

 37 39  0  0  0  0  0  0  0  0999 V2000
   60.7850   30.6130   48.7630 C   0  0  0  0  0  0  0  0  0  0  0  0
   60.1030   31.5000   47.7700 C   0  0  0  0  0  0  0  0  0  0  0  0
   59.0540   31.1190   47.0080 N   0  0  0  0  0  0  0  0  0  0  0  0
   58.7650   32.2000   46.2580 C   0  0  0  0  0  0  0  0  0  0  0  0
   57.7620   32.2910   45.2900 C   0  0  0  0  0  0  0  0  0  0  0  0
   56.9340   31.1830   45.0460 O   0  0  0  0  0  0  0  0  0  0  0  0
   57.2370   30.1150   44.1480 C   0  0  0  0  0  0  0  0  0  0  0  0
   58.1410   29.1060   44.8040 C   0  0  0  0  0  0  0  0  0  0  0  0
   59.5300   29.1690   44.6020 C   0  0  0  0  0  0  0  0  0  0  0  0
   60.3750   28.2390   45.2170 C   0  0  0  0  0  0  0  0  0  0  0  0
   59.8400   27.2460   46.0410 C   0  0  0  0  0  0  0  0  0  0  0  0
   58.4600   27.1840   46.2560 C   0  0  0  0  0  0  0  0  0  0  0  0
   57.6130   28.1120   45.6440 C   0  0  0  0  0  0  0  0  0  0  0  0
   57.6410   33.5180   44.6000 C   0  0  0  0  0  0  0  0  0  0  0  0
   58.5110   34.5860   44.8860 C   0  0  0  0  0  0  0  0  0  0  0  0
   59.5000   34.4310   45.8660 C   0  0  0  0  0  0  0  0  0  0  0  0
   59.5810   33.2400   46.5160 N   0  0  0  0  0  0  0  0  0  0  0  0
   60.4270   32.8220   47.4790 C   0  0  0  0  0  0  0  0  0  0  0  0
   61.5620   33.6200   48.0520 C   0  0  0  0  0  0  0  0  0  0  0  0
   62.7970   33.3240   47.3220 C   0  0  0  0  0  0  0  0  0  0  0  0
   63.7720   33.0890   46.7440 N   0  0  0  0  0  0  0  0  0  0  0  0
   60.5326   30.9413   49.7821 H   0  0  0  0  0  0  0  0  0  0  0  0
   60.4500   29.5753   48.6186 H   0  0  0  0  0  0  0  0  0  0  0  0
   61.8740   30.6702   48.6186 H   0  0  0  0  0  0  0  0  0  0  0  0
   58.5800   30.1880   46.9950 H   0  0  0  0  0  0  0  0  0  0  0  0
   56.3018   29.6199   43.8476 H   0  0  0  0  0  0  0  0  0  0  0  0
   57.7505   30.5291   43.2678 H   0  0  0  0  0  0  0  0  0  0  0  0
   59.9548   29.9528   43.9576 H   0  0  0  0  0  0  0  0  0  0  0  0
   61.4613   28.2897   45.0516 H   0  0  0  0  0  0  0  0  0  0  0  0
   60.5047   26.5126   46.5209 H   0  0  0  0  0  0  0  0  0  0  0  0
   58.0402   26.4037   46.9078 H   0  0  0  0  0  0  0  0  0  0  0  0
   56.5284   28.0637   45.8209 H   0  0  0  0  0  0  0  0  0  0  0  0
   56.8611   33.6391   43.8338 H   0  0  0  0  0  0  0  0  0  0  0  0
   58.4152   35.5378   44.3429 H   0  0  0  0  0  0  0  0  0  0  0  0
   60.1929   35.2517   46.1033 H   0  0  0  0  0  0  0  0  0  0  0  0
   61.3346   34.6927   47.9645 H   0  0  0  0  0  0  0  0  0  0  0  0
   61.6942   33.3535   49.1110 H   0  0  0  0  0  0  0  0  0  0  0  0
  1  2  1  0
  2  3  1  0
  3  4  2  0
  4  5  1  0
  5  6  1  0
  6  7  1  0
  7  8  1  0
  8  9  2  0
  9 10  1  0
 10 11  2  0
 11 12  1  0
 12 13  2  0
  5 14  2  0
 14 15  1  0
 15 16  2  0
 16 17  1  0
 17 18  1  0
 18 19  1  0
 19 20  1  0
 20 21  3  0
 18  2  2  0
 17  4  1  0
 13  8  1  0
  1 22  1  0
  1 23  1  0
  1 24  1  0
  3 25  1  0
  7 26  1  0
  7 27  1  0
  9 28  1  0
 10 29  1  0
 11 30  1  0
 12 31  1  0
 13 32  1  0
 14 33  1  0
 15 34  1  0
 16 35  1  0
 19 36  1  0
 19 37  1  0
M  CHG  1   3   1
M  END
>  <UniqueID>  (80) 
72

>  <SMILES>  (80) 
Cc1[nH+]c2c(OCc3ccccc3)cccn2c1CC#N

>  <Energy>  (80) 
71.51611594844466

>  <Genealogy>  (80) 
Cc1[nH+]c2c(OCc3ccccc3)cccn2c1CC#N (protonated)
Cc1[nH+]c2c(OCc3ccccc3)cccn2c1CC#N (3D coordinates assigned)
Cc1[nH+]c2c(OCc3ccccc3)cccn2c1CC#N (optimized conformer: 71.51611594844466 kcal/mol)

>  <smiles>  (80) 
Cc1nc2c(OCc3ccccc3)cccn2c1CC#N

>  <score_type>  (80) 
oracle

>  <origin>  (80) 
adg

>  <m_score__min__energy>  (80) 
-5.21

>  <m_primary>  (80) 
energy

$$$$
80:0
     RDKit          3D

 33 34  0  0  0  0  0  0  0  0999 V2000
   55.9300   29.9660   43.4070 C   0  0  0  0  0  0  0  0  0  0  0  0
   57.1590   29.7400   44.2460 C   0  0  0  0  0  0  0  0  0  0  0  0
   57.4160   28.4530   44.7360 C   0  0  0  0  0  0  0  0  0  0  0  0
   58.5740   28.1980   45.4690 C   0  0  0  0  0  0  0  0  0  0  0  0
   59.4790   29.2330   45.6980 C   0  0  0  0  0  0  0  0  0  0  0  0
   59.2330   30.4770   45.2090 N   0  0  0  0  0  0  0  0  0  0  0  0
   58.1080   30.7590   44.4920 C   0  0  0  0  0  0  0  0  0  0  0  0
   57.9150   32.0890   43.9890 N   0  0  0  0  0  0  0  0  0  0  0  0
   58.1240   32.3360   42.5620 C   0  0  0  0  0  0  0  0  0  0  0  0
   57.2870   33.0990   44.8490 C   0  0  0  0  0  0  0  0  0  0  0  0
   58.2410   33.5230   45.9330 C   0  0  0  0  0  0  0  0  0  0  0  0
   58.1500   32.9380   47.2080 C   0  0  0  0  0  0  0  0  0  0  0  0
   58.9950   33.3600   48.2380 C   0  0  0  0  0  0  0  0  0  0  0  0
   59.9300   34.3720   48.0080 C   0  0  0  0  0  0  0  0  0  0  0  0
   60.0200   34.9670   46.7470 C   0  0  0  0  0  0  0  0  0  0  0  0
   59.1770   34.5500   45.7110 C   0  0  0  0  0  0  0  0  0  0  0  0
   59.2660   35.1580   44.5000 F   0  0  0  0  0  0  0  0  0  0  0  0
   55.0620   30.1256   44.0636 H   0  0  0  0  0  0  0  0  0  0  0  0
   56.0773   30.8521   42.7721 H   0  0  0  0  0  0  0  0  0  0  0  0
   55.7524   29.0854   42.7721 H   0  0  0  0  0  0  0  0  0  0  0  0
   56.7009   27.6401   44.5415 H   0  0  0  0  0  0  0  0  0  0  0  0
   58.7716   27.1901   45.8627 H   0  0  0  0  0  0  0  0  0  0  0  0
   60.3951   29.0424   46.2763 H   0  0  0  0  0  0  0  0  0  0  0  0
   59.9300   31.2350   45.3910 H   0  0  0  0  0  0  0  0  0  0  0  0
   58.8297   33.1700   42.4337 H   0  0  0  0  0  0  0  0  0  0  0  0
   58.5353   31.4317   42.0897 H   0  0  0  0  0  0  0  0  0  0  0  0
   57.1641   32.5920   42.0897 H   0  0  0  0  0  0  0  0  0  0  0  0
   57.0143   33.9747   44.2418 H   0  0  0  0  0  0  0  0  0  0  0  0
   56.3867   32.6679   45.3111 H   0  0  0  0  0  0  0  0  0  0  0  0
   57.4110   32.1452   47.3956 H   0  0  0  0  0  0  0  0  0  0  0  0
   58.9237   32.8943   49.2320 H   0  0  0  0  0  0  0  0  0  0  0  0
   60.5956   34.7006   48.8198 H   0  0  0  0  0  0  0  0  0  0  0  0
   60.7554   35.7652   46.5683 H   0  0  0  0  0  0  0  0  0  0  0  0
  1  2  1  0
  2  3  2  0
  3  4  1  0
  4  5  2  0
  5  6  1  0
  6  7  2  0
  7  8  1  0
  8  9  1  0
  8 10  1  0
 10 11  1  0
 11 12  2  0
 12 13  1  0
 13 14  2  0
 14 15  1  0
 15 16  2  0
 16 17  1  0
  7  2  1  0
 16 11  1  0
  1 18  1  0
  1 19  1  0
  1 20  1  0
  3 21  1  0
  4 22  1  0
  5 23  1  0
  6 24  1  0
  9 25  1  0
  9 26  1  0
  9 27  1  0
 10 28  1  0
 10 29  1  0
 12 30  1  0
 13 31  1  0
 14 32  1  0
 15 33  1  0
M  CHG  1   6   1
M  END
>  <UniqueID>  (81) 
73

>  <SMILES>  (81) 
Cc1ccc[nH+]c1N(C)Cc1ccccc1F

>  <Energy>  (81) 
35.62585160434618

>  <Genealogy>  (81) 
Cc1ccc[nH+]c1N(C)Cc1ccccc1F (protonated)
Cc1ccc[nH+]c1N(C)Cc1ccccc1F (3D coordinates assigned)
Cc1ccc[nH+]c1N(C)Cc1ccccc1F (optimized conformer: 35.62585160434618 kcal/mol)

>  <smiles>  (81) 
Cc1cccnc1N(C)Cc1ccccc1F

>  <score_type>  (81) 
oracle

>  <origin>  (81) 
adg

>  <m_score__min__energy>  (81) 
-4.4400000000000004

>  <m_primary>  (81) 
energy

$$$$
81:0
     RDKit          3D

 24 25  0  0  0  0  0  0  0  0999 V2000
   57.1710   23.0392   42.3316 H   0  0  0  0  0  0  0  0  0  0  0  0
   56.6310   23.4200   43.2110 C   0  0  0  0  0  0  0  0  0  0  0  0
   55.4000   22.9310   43.5140 N   0  0  0  0  0  0  0  0  0  0  0  0
   54.7060   23.3740   44.5960 C   0  0  0  0  0  0  0  0  0  0  0  0
   53.7128   22.9571   44.8190 H   0  0  0  0  0  0  0  0  0  0  0  0
   55.2510   24.3570   45.4250 C   0  0  0  0  0  0  0  0  0  0  0  0
   54.6984   24.7007   46.3118 H   0  0  0  0  0  0  0  0  0  0  0  0
   56.5070   24.9040   45.1210 C   0  0  0  0  0  0  0  0  0  0  0  0
   57.1190   25.9300   46.0450 C   0  0  0  0  0  0  0  0  0  0  0  0
   58.1680   26.0878   45.7539 H   0  0  0  0  0  0  0  0  0  0  0  0
   57.0420   25.5468   47.0732 H   0  0  0  0  0  0  0  0  0  0  0  0
   56.4170   27.2120   45.9900 N   0  0  0  0  0  0  0  0  0  0  0  0
   56.6260   28.3000   45.2980 C   0  0  0  0  0  0  0  0  0  0  0  0
   55.5180   28.9680   44.8710 N   0  0  0  0  0  0  0  0  0  0  0  0
   55.5740   30.1210   44.1580 C   0  0  0  0  0  0  0  0  0  0  0  0
   54.6451   30.6153   43.8374 H   0  0  0  0  0  0  0  0  0  0  0  0
   56.8050   30.6770   43.8330 C   0  0  0  0  0  0  0  0  0  0  0  0
   56.8594   31.6168   43.2640 H   0  0  0  0  0  0  0  0  0  0  0  0
   57.9680   30.0290   44.2370 C   0  0  0  0  0  0  0  0  0  0  0  0
   58.9468   30.4597   43.9792 H   0  0  0  0  0  0  0  0  0  0  0  0
   57.9090   28.8350   44.9680 C   0  0  0  0  0  0  0  0  0  0  0  0
   59.6210   28.0640   45.3700 Br  0  0  0  0  0  0  0  0  0  0  0  0
   57.2130   24.4050   44.0130 C   0  0  0  0  0  0  0  0  0  0  0  0
   58.2174   24.7875   43.7787 H   0  0  0  0  0  0  0  0  0  0  0  0
  1  2  1  0
  2  3  2  0
  3  4  1  0
  4  5  1  0
  4  6  2  0
  6  7  1  0
  6  8  1  0
  8  9  1  0
  9 10  1  0
  9 11  1  0
  9 12  1  0
 12 13  2  0
 13 14  1  0
 14 15  1  0
 15 16  1  0
 15 17  2  0
 17 18  1  0
 17 19  1  0
 19 20  1  0
 19 21  2  0
 21 22  1  0
  8 23  2  0
 23 24  1  0
 23  2  1  0
 21 13  1  0
M  CHG  1  14  -1
M  END
>  <UniqueID>  (82) 
74

>  <SMILES>  (82) 
Brc1ccc[n-]/c1=N/Cc1ccncc1

>  <Energy>  (82) 
38.02358302344375

>  <Genealogy>  (82) 
Brc1ccc[n-]c1=NCc1ccncc1 (protonated)
Brc1ccc[n-]/c1=N/Cc1ccncc1 (cis-trans isomerization)
Brc1ccc[n-]/c1=N/Cc1ccncc1 (3D coordinates assigned)
Brc1ccc[n-]/c1=N/Cc1ccncc1 (optimized conformer: 38.02358302344375 kcal/mol)

>  <smiles>  (82) 
Brc1ccc[nH]c1=NCc1ccncc1

>  <score_type>  (82) 
oracle

>  <origin>  (82) 
adg

>  <m_score__min__energy>  (82) 
-8.0199999999999996

>  <m_primary>  (82) 
energy

$$$$
82:0
     RDKit          3D

 81 85  0  0  0  0  0  0  0  0999 V2000
   64.0510   32.0040   46.7720 H   0  0  0  0  0  0  0  0  0  0  0  0
   63.0100   32.0900   46.7490 N   0  0  0  0  0  0  0  0  0  0  0  0
   62.2420   31.3440   47.4790 C   0  0  0  0  0  0  0  0  0  0  0  0
   62.5480   31.2240   48.7890 N   0  0  0  0  0  0  0  0  0  0  0  0
   62.0170   30.5650   49.8440 C   0  0  0  0  0  0  0  0  0  0  0  0
   60.9050   29.6740   49.7980 C   0  0  0  0  0  0  0  0  0  0  0  0
   60.1590   29.3450   48.6560 C   0  0  0  0  0  0  0  0  0  0  0  0
   59.4186   28.5445   48.8012 H   0  0  0  0  0  0  0  0  0  0  0  0
   60.2080   29.8730   47.3650 C   0  0  0  0  0  0  0  0  0  0  0  0
   59.1580   29.4330   46.4190 C   0  0  0  0  0  0  0  0  0  0  0  0
   58.9040   28.2020   46.3230 O   0  0  0  0  0  0  0  0  0  0  0  0
   58.5170   30.3740   45.5310 N   0  0  0  0  0  0  0  0  0  0  0  0
   58.3380   30.0110   44.1180 C   0  0  0  0  0  0  0  0  0  0  0  0
   59.1300   30.4860   43.5205 H   0  0  0  0  0  0  0  0  0  0  0  0
   58.3930   28.9163   44.0255 H   0  0  0  0  0  0  0  0  0  0  0  0
   56.9730   30.4790   43.6050 C   0  0  0  0  0  0  0  0  0  0  0  0
   56.2989   30.6277   44.4614 H   0  0  0  0  0  0  0  0  0  0  0  0
   57.1108   31.4209   43.0537 H   0  0  0  0  0  0  0  0  0  0  0  0
   56.3590   29.4490   42.6600 C   0  0  0  0  0  0  0  0  0  0  0  0
   55.8829   28.6502   43.2476 H   0  0  0  0  0  0  0  0  0  0  0  0
   55.6044   29.9372   42.0258 H   0  0  0  0  0  0  0  0  0  0  0  0
   57.1474   29.0174   42.0258 H   0  0  0  0  0  0  0  0  0  0  0  0
   58.1660   31.7240   45.9940 C   0  0  0  0  0  0  0  0  0  0  0  0
   57.0865   31.7657   46.2010 H   0  0  0  0  0  0  0  0  0  0  0  0
   58.7380   31.9450   46.9072 H   0  0  0  0  0  0  0  0  0  0  0  0
   58.5150   32.7690   44.9280 C   0  0  0  0  0  0  0  0  0  0  0  0
   59.4887   33.2189   45.1719 H   0  0  0  0  0  0  0  0  0  0  0  0
   58.5531   32.2686   43.9492 H   0  0  0  0  0  0  0  0  0  0  0  0
   57.4580   33.8710   44.8670 C   0  0  0  0  0  0  0  0  0  0  0  0
   57.1757   34.1653   45.8886 H   0  0  0  0  0  0  0  0  0  0  0  0
   57.8669   34.7422   44.3342 H   0  0  0  0  0  0  0  0  0  0  0  0
   56.5705   33.4988   44.3342 H   0  0  0  0  0  0  0  0  0  0  0  0
   61.1490   30.7620   46.8520 C   0  0  0  0  0  0  0  0  0  0  0  0
   61.0055   31.0435   45.7984 H   0  0  0  0  0  0  0  0  0  0  0  0
   60.4680   29.0620   51.0120 C   0  0  0  0  0  0  0  0  0  0  0  0
   59.6281   28.3525   50.9776 H   0  0  0  0  0  0  0  0  0  0  0  0
   61.0750   29.3360   52.2480 C   0  0  0  0  0  0  0  0  0  0  0  0
   60.5400   28.8010   53.4680 N   0  0  0  0  0  0  0  0  0  0  0  0
   60.2200   27.3740   53.5200 C   0  0  0  0  0  0  0  0  0  0  0  0
   60.1479   27.0524   54.5695 H   0  0  0  0  0  0  0  0  0  0  0  0
   59.2594   27.1950   53.0148 H   0  0  0  0  0  0  0  0  0  0  0  0
   61.0122   26.8019   53.0148 H   0  0  0  0  0  0  0  0  0  0  0  0
   60.1740   29.6950   54.5780 C   0  0  0  0  0  0  0  0  0  0  0  0
   59.6266   29.1164   55.3367 H   0  0  0  0  0  0  0  0  0  0  0  0
   61.0984   30.1182   54.9980 H   0  0  0  0  0  0  0  0  0  0  0  0
   59.2860   30.8580   54.1000 C   0  0  1  0  0  0  0  0  0  0  0  0
   58.7389   31.2615   54.9648 H   0  0  0  0  0  0  0  0  0  0  0  0
   60.1150   31.8620   53.5140 O   0  0  0  0  0  0  0  0  0  0  0  0
   59.6950   32.7470   52.5170 C   0  0  0  0  0  0  0  0  0  0  0  0
   59.4130   33.9470   52.7970 O   0  0  0  0  0  0  0  0  0  0  0  0
   59.5610   32.2530   51.1770 N   0  0  0  0  0  0  0  0  0  0  0  0
   59.4020   31.2260   51.0880 H   0  0  0  0  0  0  0  0  0  0  0  0
   59.7720   33.0160   49.9710 C   0  0  0  0  0  0  0  0  0  0  0  0
   58.8000   33.0920   48.9510 C   0  0  0  0  0  0  0  0  0  0  0  0
   57.8677   32.5153   49.0419 H   0  0  0  0  0  0  0  0  0  0  0  0
   59.0120   33.8940   47.8260 C   0  0  0  0  0  0  0  0  0  0  0  0
   58.2539   33.9314   47.0298 H   0  0  0  0  0  0  0  0  0  0  0  0
   60.1800   34.6470   47.7080 C   0  0  0  0  0  0  0  0  0  0  0  0
   60.3750   35.4350   46.6220 F   0  0  0  0  0  0  0  0  0  0  0  0
   61.1450   34.5880   48.7130 C   0  0  0  0  0  0  0  0  0  0  0  0
   62.0658   35.1830   48.6225 H   0  0  0  0  0  0  0  0  0  0  0  0
   60.9490   33.7770   49.8350 C   0  0  0  0  0  0  0  0  0  0  0  0
   61.9090   33.7420   50.7930 F   0  0  0  0  0  0  0  0  0  0  0  0
   58.2700   30.3820   53.0610 C   0  0  0  0  0  0  0  0  0  0  0  0
   57.3883   29.9689   53.5728 H   0  0  0  0  0  0  0  0  0  0  0  0
   57.9644   31.2306   52.4314 H   0  0  0  0  0  0  0  0  0  0  0  0
   58.7265   29.6040   52.4314 H   0  0  0  0  0  0  0  0  0  0  0  0
   62.1500   30.2140   52.2580 C   0  0  0  0  0  0  0  0  0  0  0  0
   62.6170   30.7910   51.0950 C   0  0  0  0  0  0  0  0  0  0  0  0
   63.6620   31.6180   51.4860 C   0  0  0  0  0  0  0  0  0  0  0  0
   64.5210   32.4580   50.7690 C   0  0  0  0  0  0  0  0  0  0  0  0
   64.4502   32.5403   49.6744 H   0  0  0  0  0  0  0  0  0  0  0  0
   65.4780   33.1940   51.4910 C   0  0  0  0  0  0  0  0  0  0  0  0
   66.1658   33.8656   50.9562 H   0  0  0  0  0  0  0  0  0  0  0  0
   65.5640   33.0790   52.8940 C   0  0  0  0  0  0  0  0  0  0  0  0
   66.3213   33.6565   53.4444 H   0  0  0  0  0  0  0  0  0  0  0  0
   64.6870   32.2300   53.5940 C   0  0  0  0  0  0  0  0  0  0  0  0
   64.7417   32.1374   54.6887 H   0  0  0  0  0  0  0  0  0  0  0  0
   63.7470   31.5100   52.8590 C   0  0  0  0  0  0  0  0  0  0  0  0
   62.8240   30.6570   53.3440 N   0  0  0  0  0  0  0  0  0  0  0  0
   62.6530   30.4210   54.3460 H   0  0  0  0  0  0  0  0  0  0  0  0
  1  2  1  0
  2  3  2  0
  3  4  1  0
  4  5  2  0
  5  6  1  0
  6  7  2  0
  7  8  1  0
  7  9  1  0
  9 10  1  0
 10 11  2  0
 10 12  1  0
 12 13  1  0
 13 14  1  0
 13 15  1  0
 13 16  1  0
 16 17  1  0
 16 18  1  0
 16 19  1  0
 19 20  1  0
 19 21  1  0
 19 22  1  0
 12 23  1  0
 23 24  1  0
 23 25  1  0
 23 26  1  0
 26 27  1  0
 26 28  1  0
 26 29  1  0
 29 30  1  0
 29 31  1  0
 29 32  1  0
  9 33  2  0
 33 34  1  0
  6 35  1  0
 35 36  1  0
 35 37  2  0
 37 38  1  0
 38 39  1  0
 39 40  1  0
 39 41  1  0
 39 42  1  0
 38 43  1  0
 43 44  1  0
 43 45  1  0
 43 46  1  0
 46 47  1  1
 46 48  1  0
 48 49  1  0
 49 50  2  0
 49 51  1  0
 51 52  1  0
 51 53  1  0
 53 54  2  0
 54 55  1  0
 54 56  1  0
 56 57  1  0
 56 58  2  0
 58 59  1  0
 58 60  1  0
 60 61  1  0
 60 62  2  0
 62 63  1  0
 46 64  1  0
 64 65  1  0
 64 66  1  0
 64 67  1  0
 37 68  1  0
 68 69  2  0
 69 70  1  0
 70 71  2  0
 71 72  1  0
 71 73  1  0
 73 74  1  0
 73 75  2  0
 75 76  1  0
 75 77  1  0
 77 78  1  0
 77 79  2  0
 79 80  1  0
 80 81  1  0
 33  3  1  0
 62 53  1  0
 80 68  1  0
 69  5  1  0
 79 70  1  0
M  END
>  <UniqueID>  (83) 
75

>  <SMILES>  (83) 
[H]/N=c1/cc(C(=O)N(CCC)CCC)cc2cc(N(C)C[C@H](C)OC(=O)Nc3ccc(F)cc3F)c3[nH]c4ccccc4c3c2n1

>  <Energy>  (83) 
144.09053389984155

>  <Genealogy>  (83) 
CCCN(CCC)C(=O)c1cc(=N)nc2c(c1)cc(N(C)C[C@H](C)OC(=O)Nc1ccc(F)cc1F)c1[nH]c3ccccc3c12 (chirality)
[H]/N=c1/cc(C(=O)N(CCC)CCC)cc2cc(N(C)C[C@H](C)OC(=O)Nc3ccc(F)cc3F)c3[nH]c4ccccc4c3c2n1 (cis-trans isomerization)
[H]/N=c1/cc(C(=O)N(CCC)CCC)cc2cc(N(C)C[C@H](C)OC(=O)Nc3ccc(F)cc3F)c3[nH]c4ccccc4c3c2n1 (3D coordinates assigned)
[H]/N=c1/cc(C(=O)N(CCC)CCC)cc2cc(N(C)C[C@H](C)OC(=O)Nc3ccc(F)cc3F)c3[nH]c4ccccc4c3c2n1 (optimized conformer: 144.09053389984155 kcal/mol)

>  <smiles>  (83) 
CCCN(CCC)C(=O)c1cc(=N)nc2c(c1)cc(N(C)CC(C)OC(=O)Nc1ccc(F)cc1F)c1[nH]c3ccccc3c12

>  <score_type>  (83) 
oracle

>  <origin>  (83) 
adg

>  <m_score__min__energy>  (83) 
-10.539999999999999

>  <m_primary>  (83) 
energy

$$$$
83:0
     RDKit          3D

 30 31  0  0  0  0  0  0  0  0999 V2000
   66.0840   32.7390   50.0730 N   0  0  0  0  0  0  0  0  0  0  0  0
   65.0860   32.7730   49.4890 C   0  0  0  0  0  0  0  0  0  0  0  0
   63.8440   32.8140   48.7610 C   0  0  0  0  0  0  0  0  0  0  0  0
   62.7010   32.2040   49.2900 C   0  0  0  0  0  0  0  0  0  0  0  0
   61.4950   32.2430   48.5820 C   0  0  0  0  0  0  0  0  0  0  0  0
   61.4150   32.9030   47.3470 C   0  0  0  0  0  0  0  0  0  0  0  0
   60.1690   32.9070   46.6280 N   0  0  0  0  0  0  0  0  0  0  0  0
   59.3920   34.0880   46.3760 C   0  0  0  0  0  0  0  0  0  0  0  0
   59.5370   35.1100   47.0990 O   0  0  0  0  0  0  0  0  0  0  0  0
   58.3710   34.0940   45.3720 N   0  0  0  0  0  0  0  0  0  0  0  0
   57.9880   32.9780   44.5550 C   0  0  0  0  0  0  0  0  0  0  0  0
   58.1480   32.9970   43.1580 C   0  0  0  0  0  0  0  0  0  0  0  0
   57.7390   31.9050   42.3910 C   0  0  0  0  0  0  0  0  0  0  0  0
   57.1550   30.7940   43.0030 C   0  0  0  0  0  0  0  0  0  0  0  0
   56.9640   30.7680   44.3970 C   0  0  0  0  0  0  0  0  0  0  0  0
   56.3510   29.6310   45.0320 N   0  0  0  0  0  0  0  0  0  0  0  0
   55.1470   29.3630   44.8340 O   0  0  0  0  0  0  0  0  0  0  0  0
   57.0810   28.8190   45.8690 O   0  0  0  0  0  0  0  0  0  0  0  0
   57.3780   31.8730   45.1620 C   0  0  0  0  0  0  0  0  0  0  0  0
   62.5730   33.4960   46.8120 C   0  0  0  0  0  0  0  0  0  0  0  0
   63.7790   33.4570   47.5190 C   0  0  0  0  0  0  0  0  0  0  0  0
   62.7508   31.6935   50.2631 H   0  0  0  0  0  0  0  0  0  0  0  0
   60.6024   31.7522   48.9972 H   0  0  0  0  0  0  0  0  0  0  0  0
   59.7590   31.9880   46.3480 H   0  0  0  0  0  0  0  0  0  0  0  0
   58.5964   33.8743   42.6688 H   0  0  0  0  0  0  0  0  0  0  0  0
   57.8773   31.9196   41.2998 H   0  0  0  0  0  0  0  0  0  0  0  0
   56.8425   29.9343   42.3920 H   0  0  0  0  0  0  0  0  0  0  0  0
   57.2208   31.8694   46.2507 H   0  0  0  0  0  0  0  0  0  0  0  0
   62.5297   33.9933   45.8318 H   0  0  0  0  0  0  0  0  0  0  0  0
   64.6777   33.9321   47.0988 H   0  0  0  0  0  0  0  0  0  0  0  0
  1  2  3  0
  2  3  1  0
  3  4  2  0
  4  5  1  0
  5  6  2  0
  6  7  1  0
  7  8  1  0
  8  9  2  0
  8 10  1  0
 10 11  1  0
 11 12  2  0
 12 13  1  0
 13 14  2  0
 14 15  1  0
 15 16  1  0
 16 17  2  0
 16 18  1  0
 15 19  2  0
  6 20  1  0
 20 21  2  0
 21  3  1  0
 19 11  1  0
  4 22  1  0
  5 23  1  0
  7 24  1  0
 12 25  1  0
 13 26  1  0
 14 27  1  0
 19 28  1  0
 20 29  1  0
 21 30  1  0
M  CHG  3  10  -1  16   1  18  -1
M  END
>  <UniqueID>  (84) 
76

>  <SMILES>  (84) 
N#Cc1ccc(NC(=O)[N-]c2cccc([N+](=O)[O-])c2)cc1

>  <Energy>  (84) 
38.1199264129275

>  <Genealogy>  (84) 
N#Cc1ccc(NC(=O)[N-]c2cccc([N+](=O)[O-])c2)cc1 (protonated)
N#Cc1ccc(NC(=O)[N-]c2cccc([N+](=O)[O-])c2)cc1 (3D coordinates assigned)
N#Cc1ccc(NC(=O)[N-]c2cccc([N+](=O)[O-])c2)cc1 (optimized conformer: 38.1199264129275 kcal/mol)

>  <smiles>  (84) 
N#Cc1ccc(NC(=O)Nc2cccc([N+](=O)[O-])c2)cc1

>  <score_type>  (84) 
oracle

>  <origin>  (84) 
adg

>  <m_score__min__energy>  (84) 
-9.0500000000000007

>  <m_primary>  (84) 
energy

$$$$
84:0
     RDKit          3D

 39 40  0  0  0  0  0  0  0  0999 V2000
   59.2710   34.2260   44.5470 C   0  0  0  0  0  0  0  0  0  0  0  0
   58.8940   33.2010   43.6320 O   0  0  0  0  0  0  0  0  0  0  0  0
   58.1480   32.0660   43.9800 C   0  0  0  0  0  0  0  0  0  0  0  0
   58.2180   31.4770   45.2560 C   0  0  0  0  0  0  0  0  0  0  0  0
   57.4520   30.3450   45.5540 C   0  0  0  0  0  0  0  0  0  0  0  0
   56.5920   29.7940   44.5890 C   0  0  0  0  0  0  0  0  0  0  0  0
   55.8110   28.6180   44.8620 N   0  0  0  0  0  0  0  0  0  0  0  0
   56.2760   27.5020   45.6350 C   0  0  0  0  0  0  0  0  0  0  0  0
   57.3190   27.6020   46.3360 O   0  0  0  0  0  0  0  0  0  0  0  0
   55.4890   26.3060   45.6740 N   0  0  0  0  0  0  0  0  0  0  0  0
   55.9860   24.9600   45.6980 C   0  0  0  0  0  0  0  0  0  0  0  0
   56.6860   24.5240   46.8250 C   0  0  0  0  0  0  0  0  0  0  0  0
   57.1740   23.2180   46.8980 C   0  0  0  0  0  0  0  0  0  0  0  0
   56.9500   22.3160   45.8410 C   0  0  0  0  0  0  0  0  0  0  0  0
   57.4280   20.9960   45.8750 O   0  0  0  0  0  0  0  0  0  0  0  0
   56.6240   19.8550   46.1570 C   0  0  0  0  0  0  0  0  0  0  0  0
   56.2250   22.7360   44.7140 C   0  0  0  0  0  0  0  0  0  0  0  0
   56.0070   21.8090   43.6820 O   0  0  0  0  0  0  0  0  0  0  0  0
   57.0400   21.1260   42.9780 C   0  0  0  0  0  0  0  0  0  0  0  0
   55.7390   24.0560   44.6500 C   0  0  0  0  0  0  0  0  0  0  0  0
   56.5420   30.3700   43.3110 C   0  0  0  0  0  0  0  0  0  0  0  0
   57.3070   31.5020   43.0140 C   0  0  0  0  0  0  0  0  0  0  0  0
   59.1381   33.8647   45.5774 H   0  0  0  0  0  0  0  0  0  0  0  0
   60.3259   34.4923   44.3850 H   0  0  0  0  0  0  0  0  0  0  0  0
   58.6400   35.1124   44.3850 H   0  0  0  0  0  0  0  0  0  0  0  0
   58.8781   31.9087   46.0227 H   0  0  0  0  0  0  0  0  0  0  0  0
   57.5234   29.8834   46.5499 H   0  0  0  0  0  0  0  0  0  0  0  0
   54.8160   28.5990   44.5440 H   0  0  0  0  0  0  0  0  0  0  0  0
   56.8545   25.2162   47.6632 H   0  0  0  0  0  0  0  0  0  0  0  0
   57.7362   22.8924   47.7857 H   0  0  0  0  0  0  0  0  0  0  0  0
   56.5353   19.7291   47.2462 H   0  0  0  0  0  0  0  0  0  0  0  0
   55.6236   19.9946   45.7213 H   0  0  0  0  0  0  0  0  0  0  0  0
   57.0920   18.9599   45.7213 H   0  0  0  0  0  0  0  0  0  0  0  0
   57.7334   20.6675   43.6984 H   0  0  0  0  0  0  0  0  0  0  0  0
   56.5968   20.3423   42.3460 H   0  0  0  0  0  0  0  0  0  0  0  0
   57.5875   21.8407   42.3460 H   0  0  0  0  0  0  0  0  0  0  0  0
   55.1613   24.3826   43.7727 H   0  0  0  0  0  0  0  0  0  0  0  0
   55.8967   29.9282   42.5374 H   0  0  0  0  0  0  0  0  0  0  0  0
   57.2473   31.9531   42.0125 H   0  0  0  0  0  0  0  0  0  0  0  0
  1  2  1  0
  2  3  1  0
  3  4  2  0
  4  5  1  0
  5  6  2  0
  6  7  1  0
  7  8  1  0
  8  9  2  0
  8 10  1  0
 10 11  1  0
 11 12  2  0
 12 13  1  0
 13 14  2  0
 14 15  1  0
 15 16  1  0
 14 17  1  0
 17 18  1  0
 18 19  1  0
 17 20  2  0
  6 21  1  0
 21 22  2  0
 22  3  1  0
 20 11  1  0
  1 23  1  0
  1 24  1  0
  1 25  1  0
  4 26  1  0
  5 27  1  0
  7 28  1  0
 12 29  1  0
 13 30  1  0
 16 31  1  0
 16 32  1  0
 16 33  1  0
 19 34  1  0
 19 35  1  0
 19 36  1  0
 20 37  1  0
 21 38  1  0
 22 39  1  0
M  CHG  1  10  -1
M  END
>  <UniqueID>  (85) 
77

>  <SMILES>  (85) 
COc1ccc(NC(=O)[N-]c2ccc(OC)c(OC)c2)cc1

>  <Energy>  (85) 
44.0868262481361

>  <Genealogy>  (85) 
COc1ccc(NC(=O)[N-]c2ccc(OC)c(OC)c2)cc1 (protonated)
COc1ccc(NC(=O)[N-]c2ccc(OC)c(OC)c2)cc1 (3D coordinates assigned)
COc1ccc(NC(=O)[N-]c2ccc(OC)c(OC)c2)cc1 (optimized conformer: 44.0868262481361 kcal/mol)

>  <smiles>  (85) 
COc1ccc(NC(=O)Nc2ccc(OC)c(OC)c2)cc1

>  <score_type>  (85) 
oracle

>  <origin>  (85) 
adg

>  <m_score__min__energy>  (85) 
-8.0299999999999994

>  <m_primary>  (85) 
energy

$$$$
85:0
     RDKit          3D

 53 56  0  0  0  0  0  0  0  0999 V2000
   57.3000   25.0940   43.7610 C   0  0  0  0  0  0  0  0  0  0  0  0
   56.6640   24.4090   44.8930 N   0  0  0  0  0  0  0  0  0  0  0  0
   57.4980   23.2830   45.3330 C   0  0  0  0  0  0  0  0  0  0  0  0
   56.4650   25.5320   46.2160 S   0  0  0  0  0  0  0  0  0  0  0  0
   55.2600   26.3980   45.9710 O   0  0  0  0  0  0  0  0  0  0  0  0
   56.2620   24.7850   47.5060 O   0  0  0  0  0  0  0  0  0  0  0  0
   57.8850   26.5670   46.3390 C   0  0  0  0  0  0  0  0  0  0  0  0
   59.1690   26.0500   46.1180 C   0  0  0  0  0  0  0  0  0  0  0  0
   60.2860   26.8820   46.2260 C   0  0  0  0  0  0  0  0  0  0  0  0
   60.1280   28.2340   46.5410 C   0  0  0  0  0  0  0  0  0  0  0  0
   58.8440   28.7740   46.7270 C   0  0  0  0  0  0  0  0  0  0  0  0
   58.6480   30.2020   47.0650 C   0  0  0  0  0  0  0  0  0  0  0  0
   58.8910   30.6950   48.2950 N   0  0  0  0  0  0  0  0  0  0  0  0
   58.6350   31.9930   48.2560 N   0  0  0  0  0  0  0  0  0  0  0  0
   58.2350   32.2760   47.0040 C   0  0  0  0  0  0  0  0  0  0  0  0
   57.7370   33.9270   46.4970 S   0  0  0  0  0  0  0  0  0  0  0  0
   59.3470   34.3890   45.7600 C   0  0  0  0  0  0  0  0  0  0  0  0
   60.4500   34.1850   46.7630 C   0  0  0  0  0  0  0  0  0  0  0  0
   60.2620   34.5620   48.1050 C   0  0  0  0  0  0  0  0  0  0  0  0
   61.2720   34.3520   49.0480 C   0  0  0  0  0  0  0  0  0  0  0  0
   62.4810   33.7690   48.6590 C   0  0  0  0  0  0  0  0  0  0  0  0
   62.6860   33.4100   47.3230 C   0  0  0  0  0  0  0  0  0  0  0  0
   61.6770   33.6220   46.3750 C   0  0  0  0  0  0  0  0  0  0  0  0
   58.2350   31.1770   46.2200 N   0  0  0  0  0  0  0  0  0  0  0  0
   57.7230   31.0580   44.8790 C   0  0  0  0  0  0  0  0  0  0  0  0
   56.7710   30.0730   44.5660 C   0  0  0  0  0  0  0  0  0  0  0  0
   56.2580   29.9720   43.2710 C   0  0  0  0  0  0  0  0  0  0  0  0
   56.6770   30.8660   42.2810 C   0  0  0  0  0  0  0  0  0  0  0  0
   57.6200   31.8500   42.5850 C   0  0  0  0  0  0  0  0  0  0  0  0
   58.1460   31.9450   43.8750 C   0  0  0  0  0  0  0  0  0  0  0  0
   57.7260   27.9260   46.6400 C   0  0  0  0  0  0  0  0  0  0  0  0
   58.0030   25.8511   44.1386 H   0  0  0  0  0  0  0  0  0  0  0  0
   57.8450   24.3610   43.1481 H   0  0  0  0  0  0  0  0  0  0  0  0
   56.5286   25.5832   43.1481 H   0  0  0  0  0  0  0  0  0  0  0  0
   57.5213   23.2516   46.4323 H   0  0  0  0  0  0  0  0  0  0  0  0
   57.0769   22.3425   44.9481 H   0  0  0  0  0  0  0  0  0  0  0  0
   58.5204   23.4116   44.9481 H   0  0  0  0  0  0  0  0  0  0  0  0
   59.2972   24.9885   45.8594 H   0  0  0  0  0  0  0  0  0  0  0  0
   61.2933   26.4713   46.0625 H   0  0  0  0  0  0  0  0  0  0  0  0
   61.0131   28.8790   46.6439 H   0  0  0  0  0  0  0  0  0  0  0  0
   59.5369   33.7611   44.8770 H   0  0  0  0  0  0  0  0  0  0  0  0
   59.3184   35.4484   45.4654 H   0  0  0  0  0  0  0  0  0  0  0  0
   59.3135   35.0253   48.4145 H   0  0  0  0  0  0  0  0  0  0  0  0
   61.1152   34.6456   50.0964 H   0  0  0  0  0  0  0  0  0  0  0  0
   63.2713   33.5925   49.4035 H   0  0  0  0  0  0  0  0  0  0  0  0
   63.6417   32.9602   47.0160 H   0  0  0  0  0  0  0  0  0  0  0  0
   61.8459   33.3468   45.3235 H   0  0  0  0  0  0  0  0  0  0  0  0
   56.4277   29.3772   45.3458 H   0  0  0  0  0  0  0  0  0  0  0  0
   55.5241   29.1889   43.0298 H   0  0  0  0  0  0  0  0  0  0  0  0
   56.2643   30.7943   41.2639 H   0  0  0  0  0  0  0  0  0  0  0  0
   57.9496   32.5527   41.8056 H   0  0  0  0  0  0  0  0  0  0  0  0
   58.8944   32.7173   44.1060 H   0  0  0  0  0  0  0  0  0  0  0  0
   56.7182   28.3329   46.8096 H   0  0  0  0  0  0  0  0  0  0  0  0
  1  2  1  0
  2  3  1  0
  2  4  1  0
  4  5  2  0
  4  6  2  0
  4  7  1  0
  7  8  2  0
  8  9  1  0
  9 10  2  0
 10 11  1  0
 11 12  1  0
 12 13  2  0
 13 14  1  0
 14 15  2  0
 15 16  1  0
 16 17  1  0
 17 18  1  0
 18 19  2  0
 19 20  1  0
 20 21  2  0
 21 22  1  0
 22 23  2  0
 15 24  1  0
 24 25  1  0
 25 26  2  0
 26 27  1  0
 27 28  2  0
 28 29  1  0
 29 30  2  0
 11 31  2  0
 31  7  1  0
 24 12  1  0
 30 25  1  0
 23 18  1  0
  1 32  1  0
  1 33  1  0
  1 34  1  0
  3 35  1  0
  3 36  1  0
  3 37  1  0
  8 38  1  0
  9 39  1  0
 10 40  1  0
 17 41  1  0
 17 42  1  0
 19 43  1  0
 20 44  1  0
 21 45  1  0
 22 46  1  0
 23 47  1  0
 26 48  1  0
 27 49  1  0
 28 50  1  0
 29 51  1  0
 30 52  1  0
 31 53  1  0
M  END
>  <UniqueID>  (86) 
78

>  <SMILES>  (86) 
CN(C)S(=O)(=O)c1cccc(-c2nnc(SCc3ccccc3)n2-c2ccccc2)c1

>  <Energy>  (86) 
92.81962638672002

>  <Genealogy>  (86) 
CN(C)S(=O)(=O)c1cccc(-c2nnc(SCc3ccccc3)n2-c2ccccc2)c1 (3D coordinates assigned)
CN(C)S(=O)(=O)c1cccc(-c2nnc(SCc3ccccc3)n2-c2ccccc2)c1 (optimized conformer: 92.81962638672002 kcal/mol)

>  <smiles>  (86) 
CN(C)S(=O)(=O)c1cccc(-c2nnc(SCc3ccccc3)n2-c2ccccc2)c1

>  <score_type>  (86) 
oracle

>  <origin>  (86) 
adg

>  <m_score__min__energy>  (86) 
-10.630000000000001

>  <m_primary>  (86) 
energy

$$$$
86:0
     RDKit          3D

 52 55  0  0  0  0  0  0  0  0999 V2000
   55.6030   29.2810   44.5790 N   0  0  0  0  0  0  0  0  0  0  0  0
   56.6200   29.5830   45.0400 C   0  0  0  0  0  0  0  0  0  0  0  0
   57.8870   29.9600   45.6170 C   0  0  0  0  0  0  0  0  0  0  0  0
   58.2110   31.3190   45.7330 C   0  0  0  0  0  0  0  0  0  0  0  0
   59.4260   31.7100   46.3130 C   0  0  0  0  0  0  0  0  0  0  0  0
   59.8490   33.4160   46.4260 S   0  0  0  0  0  0  0  0  0  0  0  0
   59.8600   34.0220   45.0500 O   0  0  0  0  0  0  0  0  0  0  0  0
   58.8270   34.1280   47.2670 O   0  0  0  0  0  0  0  0  0  0  0  0
   61.4170   33.5840   47.1470 N   0  0  0  0  0  0  0  0  0  0  0  0
   62.6510   33.8330   46.4060 C   0  0  0  0  0  0  0  0  0  0  0  0
   63.7640   33.9760   47.4760 C   0  0  0  0  0  0  0  0  0  0  0  0
   63.0260   33.8320   48.7630 C   0  0  0  0  0  0  0  0  0  0  0  0
   63.5320   33.9070   50.0600 C   0  0  0  0  0  0  0  0  0  0  0  0
   62.6450   33.7410   51.1380 C   0  0  0  0  0  0  0  0  0  0  0  0
   61.2770   33.5050   50.8990 C   0  0  0  0  0  0  0  0  0  0  0  0
   60.7900   33.4360   49.5840 C   0  0  0  0  0  0  0  0  0  0  0  0
   61.6970   33.6050   48.5330 C   0  0  0  0  0  0  0  0  0  0  0  0
   60.3230   30.7350   46.7670 C   0  0  0  0  0  0  0  0  0  0  0  0
   60.0050   29.3800   46.6540 C   0  0  0  0  0  0  0  0  0  0  0  0
   58.7900   28.9840   46.0790 C   0  0  0  0  0  0  0  0  0  0  0  0
   58.4890   27.5860   45.9630 N   0  0  0  0  0  0  0  0  0  0  0  0
   58.6610   26.9080   44.6740 C   0  0  0  0  0  0  0  0  0  0  0  0
   57.4230   26.0600   44.3830 C   0  0  0  0  0  0  0  0  0  0  0  0
   57.1700   25.0070   45.4900 C   0  0  0  0  0  0  0  0  0  0  0  0
   55.4140   24.6680   45.6570 S   0  0  0  0  0  0  0  0  0  0  0  0
   55.1000   23.7700   47.1010 N   0  0  0  0  0  0  0  0  0  0  0  0
   54.9490   23.8690   44.4710 O   0  0  0  0  0  0  0  0  0  0  0  0
   54.6550   25.9650   45.7000 O   0  0  0  0  0  0  0  0  0  0  0  0
   57.8040   25.3740   46.8560 C   0  0  0  0  0  0  0  0  0  0  0  0
   57.8760   26.8890   47.1000 C   0  0  0  0  0  0  0  0  0  0  0  0
   57.5085   32.0823   45.3672 H   0  0  0  0  0  0  0  0  0  0  0  0
   62.8713   32.9902   45.7343 H   0  0  0  0  0  0  0  0  0  0  0  0
   62.5728   34.7341   45.7799 H   0  0  0  0  0  0  0  0  0  0  0  0
   64.5204   33.1851   47.3653 H   0  0  0  0  0  0  0  0  0  0  0  0
   64.3136   34.9258   47.3999 H   0  0  0  0  0  0  0  0  0  0  0  0
   64.6020   34.0920   50.2360 H   0  0  0  0  0  0  0  0  0  0  0  0
   63.0201   33.7955   52.1706 H   0  0  0  0  0  0  0  0  0  0  0  0
   60.5875   33.3742   51.7461 H   0  0  0  0  0  0  0  0  0  0  0  0
   59.7235   33.2539   49.3857 H   0  0  0  0  0  0  0  0  0  0  0  0
   61.2814   31.0376   47.2142 H   0  0  0  0  0  0  0  0  0  0  0  0
   60.7117   28.6197   47.0181 H   0  0  0  0  0  0  0  0  0  0  0  0
   58.7892   27.6569   43.8786 H   0  0  0  0  0  0  0  0  0  0  0  0
   59.5507   26.2623   44.7119 H   0  0  0  0  0  0  0  0  0  0  0  0
   56.5469   26.7217   44.3149 H   0  0  0  0  0  0  0  0  0  0  0  0
   57.5913   25.5254   43.4365 H   0  0  0  0  0  0  0  0  0  0  0  0
   57.6808   24.0893   45.1630 H   0  0  0  0  0  0  0  0  0  0  0  0
   54.4970   22.9580   46.8410 H   0  0  0  0  0  0  0  0  0  0  0  0
   56.0130   23.3740   47.4190 H   0  0  0  0  0  0  0  0  0  0  0  0
   57.2007   24.9191   47.6554 H   0  0  0  0  0  0  0  0  0  0  0  0
   58.8360   24.9934   46.8512 H   0  0  0  0  0  0  0  0  0  0  0  0
   56.8574   27.2761   47.2502 H   0  0  0  0  0  0  0  0  0  0  0  0
   58.4965   27.0671   47.9906 H   0  0  0  0  0  0  0  0  0  0  0  0
  1  2  3  0
  2  3  1  0
  3  4  2  0
  4  5  1  0
  5  6  1  0
  6  7  2  0
  6  8  2  0
  6  9  1  0
  9 10  1  0
 10 11  1  0
 11 12  1  0
 12 13  2  0
 13 14  1  0
 14 15  2  0
 15 16  1  0
 16 17  2  0
  5 18  2  0
 18 19  1  0
 19 20  2  0
 20 21  1  0
 21 22  1  0
 22 23  1  0
 23 24  1  0
 24 25  1  0
 25 26  1  0
 25 27  2  0
 25 28  2  0
 24 29  1  0
 29 30  1  0
 20  3  1  0
 30 21  1  0
 17  9  1  0
 17 12  1  0
  4 31  1  0
 10 32  1  0
 10 33  1  0
 11 34  1  0
 11 35  1  0
 13 36  1  0
 14 37  1  0
 15 38  1  0
 16 39  1  0
 18 40  1  0
 19 41  1  0
 22 42  1  0
 22 43  1  0
 23 44  1  0
 23 45  1  0
 24 46  1  0
 26 47  1  0
 26 48  1  0
 29 49  1  0
 29 50  1  0
 30 51  1  0
 30 52  1  0
M  END
>  <UniqueID>  (87) 
79

>  <SMILES>  (87) 
N#Cc1cc(S(=O)(=O)N2CCc3ccccc32)ccc1N1CCC(S(N)(=O)=O)CC1

>  <Energy>  (87) 
72.20315939219185

>  <Genealogy>  (87) 
N#Cc1cc(S(=O)(=O)N2CCc3ccccc32)ccc1N1CCC(S(N)(=O)=O)CC1 (3D coordinates assigned)
N#Cc1cc(S(=O)(=O)N2CCc3ccccc32)ccc1N1CCC(S(N)(=O)=O)CC1 (nonaromatic ring conformer: 72.20315939219185 kcal/mol)

>  <smiles>  (87) 
N#Cc1cc(S(=O)(=O)N2CCc3ccccc32)ccc1N1CCC(S(N)(=O)=O)CC1

>  <score_type>  (87) 
oracle

>  <origin>  (87) 
adg

>  <m_score__min__energy>  (87) 
-9.9100000000000001

>  <m_primary>  (87) 
energy

$$$$
87:0
     RDKit          3D

 46 48  0  0  0  0  0  0  0  0999 V2000
   57.1918   32.3330   41.5150 H   0  0  0  0  0  0  0  0  0  0  0  0
   57.4200   32.0530   42.5540 C   0  0  0  0  0  0  0  0  0  0  0  0
   57.1790   30.7530   42.9920 C   0  0  0  0  0  0  0  0  0  0  0  0
   56.7644   30.0106   42.2942 H   0  0  0  0  0  0  0  0  0  0  0  0
   57.4600   30.3830   44.3130 C   0  0  0  0  0  0  0  0  0  0  0  0
   57.2320   29.0210   44.7040 N   0  0  0  0  0  0  0  0  0  0  0  0
   56.3940   28.5360   44.3130 H   0  0  0  0  0  0  0  0  0  0  0  0
   58.2560   28.2160   45.3090 C   0  0  0  0  0  0  0  0  0  0  0  0
   59.4590   28.5930   45.2620 O   0  0  0  0  0  0  0  0  0  0  0  0
   57.9540   26.9520   45.9150 N   0  0  0  0  0  0  0  0  0  0  0  0
   56.8430   26.2880   45.7840 C   0  0  0  0  0  0  0  0  0  0  0  0
   55.6120   26.8070   45.9900 N   0  0  0  0  0  0  0  0  0  0  0  0
   54.6390   25.9120   45.8290 N   0  0  0  0  0  0  0  0  0  0  0  0
   55.0950   24.6790   45.5010 C   0  0  0  0  0  0  0  0  0  0  0  0
   54.2090   23.4850   45.2690 C   0  0  2  0  0  0  0  0  0  0  0  0
   54.9755   22.7075   45.1346 H   0  0  0  0  0  0  0  0  0  0  0  0
   53.1450   23.7120   44.2000 C   0  0  0  0  0  0  0  0  0  0  0  0
   53.2034   24.6957   43.7113 H   0  0  0  0  0  0  0  0  0  0  0  0
   53.1133   23.0740   43.3045 H   0  0  0  0  0  0  0  0  0  0  0  0
   52.0450   23.6070   45.2640 C   0  0  1  0  0  0  0  0  0  0  0  0
   51.3166   24.4193   45.4038 H   0  0  0  0  0  0  0  0  0  0  0  0
   51.1230   22.4700   45.0440 N   0  0  0  0  0  0  0  0  0  0  0  0
   50.6020   21.9870   46.3360 C   0  0  0  0  0  0  0  0  0  0  0  0
   51.1389   22.4847   47.1570 H   0  0  0  0  0  0  0  0  0  0  0  0
   49.5286   22.2166   46.4074 H   0  0  0  0  0  0  0  0  0  0  0  0
   50.7498   20.8993   46.4074 H   0  0  0  0  0  0  0  0  0  0  0  0
   49.9820   22.9000   44.2140 C   0  0  0  0  0  0  0  0  0  0  0  0
   49.1523   23.2127   44.8650 H   0  0  0  0  0  0  0  0  0  0  0  0
   50.2881   23.7444   43.5790 H   0  0  0  0  0  0  0  0  0  0  0  0
   49.6547   22.0635   43.5790 H   0  0  0  0  0  0  0  0  0  0  0  0
   53.1190   23.3220   46.3230 C   0  0  0  0  0  0  0  0  0  0  0  0
   53.1612   24.0676   47.1306 H   0  0  0  0  0  0  0  0  0  0  0  0
   53.0686   22.4077   46.9325 H   0  0  0  0  0  0  0  0  0  0  0  0
   56.7770   24.6530   45.4000 S   0  0  0  0  0  0  0  0  0  0  0  0
   57.9370   31.3540   45.2310 C   0  0  0  0  0  0  0  0  0  0  0  0
   58.1400   30.9990   46.6870 C   0  0  0  0  0  0  0  0  0  0  0  0
   57.6936   31.7797   47.3204 H   0  0  0  0  0  0  0  0  0  0  0  0
   57.6574   30.0337   46.8998 H   0  0  0  0  0  0  0  0  0  0  0  0
   59.2167   30.9254   46.8998 H   0  0  0  0  0  0  0  0  0  0  0  0
   58.2280   32.6630   44.7630 C   0  0  0  0  0  0  0  0  0  0  0  0
   58.7890   33.7240   45.6740 C   0  0  0  0  0  0  0  0  0  0  0  0
   58.6324   33.4279   46.7218 H   0  0  0  0  0  0  0  0  0  0  0  0
   59.8661   33.8395   45.4827 H   0  0  0  0  0  0  0  0  0  0  0  0
   58.2781   34.6792   45.4827 H   0  0  0  0  0  0  0  0  0  0  0  0
   57.9490   32.9990   43.4280 C   0  0  0  0  0  0  0  0  0  0  0  0
   58.1504   34.0193   43.0696 H   0  0  0  0  0  0  0  0  0  0  0  0
  1  2  1  0
  2  3  2  0
  3  4  1  0
  3  5  1  0
  5  6  1  0
  6  7  1  0
  6  8  1  0
  8  9  2  0
  8 10  1  0
 10 11  2  0
 11 12  1  0
 12 13  1  0
 13 14  2  0
 14 15  1  0
 15 16  1  6
 15 17  1  0
 17 18  1  0
 17 19  1  0
 17 20  1  0
 20 21  1  1
 20 22  1  0
 22 23  1  0
 23 24  1  0
 23 25  1  0
 23 26  1  0
 22 27  1  0
 27 28  1  0
 27 29  1  0
 27 30  1  0
 20 31  1  0
 31 32  1  0
 31 33  1  0
 14 34  1  0
  5 35  2  0
 35 36  1  0
 36 37  1  0
 36 38  1  0
 36 39  1  0
 35 40  1  0
 40 41  1  0
 41 42  1  0
 41 43  1  0
 41 44  1  0
 40 45  2  0
 45 46  1  0
 45  2  1  0
 34 11  1  0
 31 15  1  0
M  CHG  1  12  -1
M  END
>  <UniqueID>  (88) 
80

>  <SMILES>  (88) 
Cc1cccc(NC(=O)/N=c2\[n-]nc(C3CC(N(C)C)C3)s2)c1C

>  <Energy>  (88) 
153.1722221822872

>  <Genealogy>  (88) 
Cc1cccc(NC(=O)N=c2[n-]nc(C3CC(N(C)C)C3)s2)c1C (protonated)
Cc1cccc(NC(=O)/N=c2\[n-]nc(C3CC(N(C)C)C3)s2)c1C (cis-trans isomerization)
Cc1cccc(NC(=O)/N=c2\[n-]nc(C3CC(N(C)C)C3)s2)c1C (3D coordinates assigned)
Cc1cccc(NC(=O)/N=c2\[n-]nc(C3CC(N(C)C)C3)s2)c1C (nonaromatic ring conformer: 153.1722221822872 kcal/mol)

>  <smiles>  (88) 
Cc1cccc(NC(=O)N=c2[nH]nc(C3CC(N(C)C)C3)s2)c1C

>  <score_type>  (88) 
oracle

>  <origin>  (88) 
adg

>  <m_score__min__energy>  (88) 
-9.6099999999999994

>  <m_primary>  (88) 
energy

$$$$
88:0
     RDKit          3D

 33 34  0  0  0  0  0  0  0  0999 V2000
   54.5650   27.0950   46.7270 H   0  0  0  0  0  0  0  0  0  0  0  0
   55.2070   26.7100   45.9980 N   0  0  0  0  0  0  0  0  0  0  0  0
   56.6210   26.7230   46.1850 C   0  0  0  0  0  0  0  0  0  0  0  0
   57.1780   25.7320   46.7310 O   0  0  0  0  0  0  0  0  0  0  0  0
   57.4280   27.8860   45.7450 C   0  0  0  0  0  0  0  0  0  0  0  0
   58.8320   27.8530   45.8230 C   0  0  0  0  0  0  0  0  0  0  0  0
   59.3376   26.9539   46.2050 H   0  0  0  0  0  0  0  0  0  0  0  0
   59.5880   28.9560   45.4180 C   0  0  0  0  0  0  0  0  0  0  0  0
   60.6852   28.9237   45.4898 H   0  0  0  0  0  0  0  0  0  0  0  0
   58.9580   30.0980   44.9230 C   0  0  0  0  0  0  0  0  0  0  0  0
   59.5588   30.9689   44.6219 H   0  0  0  0  0  0  0  0  0  0  0  0
   57.5580   30.1390   44.8080 C   0  0  0  0  0  0  0  0  0  0  0  0
   56.8600   31.3460   44.3110 C   0  0  0  0  0  0  0  0  0  0  0  0
   55.9001   31.1978   43.7947 H   0  0  0  0  0  0  0  0  0  0  0  0
   57.3030   32.6070   44.4390 C   0  0  0  0  0  0  0  0  0  0  0  0
   57.0140   33.3260   43.6583 H   0  0  0  0  0  0  0  0  0  0  0  0
   58.1490   33.1080   45.5460 C   0  0  0  0  0  0  0  0  0  0  0  0
   59.2970   33.8530   45.2440 C   0  0  0  0  0  0  0  0  0  0  0  0
   59.5454   34.0727   44.1952 H   0  0  0  0  0  0  0  0  0  0  0  0
   60.1290   34.3190   46.2670 C   0  0  0  0  0  0  0  0  0  0  0  0
   61.0191   34.9161   46.0198 H   0  0  0  0  0  0  0  0  0  0  0  0
   59.8320   34.0270   47.6120 C   0  0  0  0  0  0  0  0  0  0  0  0
   60.6320   34.4730   48.6740 O   0  0  0  0  0  0  0  0  0  0  0  0
   61.9600   34.0230   48.9220 C   0  0  0  0  0  0  0  0  0  0  0  0
   62.1309   33.9651   50.0071 H   0  0  0  0  0  0  0  0  0  0  0  0
   62.0993   33.0275   48.4752 H   0  0  0  0  0  0  0  0  0  0  0  0
   62.6757   34.7288   48.4752 H   0  0  0  0  0  0  0  0  0  0  0  0
   58.7000   33.2580   47.9090 C   0  0  0  0  0  0  0  0  0  0  0  0
   58.4623   33.0188   48.9560 H   0  0  0  0  0  0  0  0  0  0  0  0
   57.8700   32.7920   46.8860 C   0  0  0  0  0  0  0  0  0  0  0  0
   56.9934   32.1744   47.1313 H   0  0  0  0  0  0  0  0  0  0  0  0
   56.8000   29.0430   45.2430 C   0  0  0  0  0  0  0  0  0  0  0  0
   55.7021   29.0868   45.1918 H   0  0  0  0  0  0  0  0  0  0  0  0
  1  2  1  0
  2  3  1  0
  3  4  2  0
  3  5  1  0
  5  6  2  0
  6  7  1  0
  6  8  1  0
  8  9  1  0
  8 10  2  0
 10 11  1  0
 10 12  1  0
 12 13  1  0
 13 14  1  0
 13 15  2  0
 15 16  1  0
 15 17  1  0
 17 18  2  0
 18 19  1  0
 18 20  1  0
 20 21  1  0
 20 22  2  0
 22 23  1  0
 23 24  1  0
 24 25  1  0
 24 26  1  0
 24 27  1  0
 22 28  1  0
 28 29  1  0
 28 30  2  0
 30 31  1  0
 12 32  2  0
 32 33  1  0
 32  5  1  0
 30 17  1  0
M  CHG  1   2  -1
M  END
>  <UniqueID>  (89) 
81

>  <SMILES>  (89) 
COc1ccc(/C=C\c2cccc(C([NH-])=O)c2)cc1

>  <Energy>  (89) 
42.66209000746369

>  <Genealogy>  (89) 
COc1ccc(C=Cc2cccc(C([NH-])=O)c2)cc1 (protonated)
COc1ccc(/C=C\c2cccc(C([NH-])=O)c2)cc1 (cis-trans isomerization)
COc1ccc(/C=C\c2cccc(C([NH-])=O)c2)cc1 (3D coordinates assigned)
COc1ccc(/C=C\c2cccc(C([NH-])=O)c2)cc1 (optimized conformer: 42.66209000746369 kcal/mol)

>  <smiles>  (89) 
COc1ccc(C=Cc2cccc(C(N)=O)c2)cc1

>  <score_type>  (89) 
oracle

>  <origin>  (89) 
adg

>  <m_score__min__energy>  (89) 
-10.630000000000001

>  <m_primary>  (89) 
energy

$$$$
89:0
     RDKit          3D

 35 36  0  0  0  0  0  0  0  0999 V2000
   57.3880   25.1560   44.3710 C   0  0  0  0  0  0  0  0  0  0  0  0
   56.5840   25.8560   45.3880 N   0  0  0  0  0  0  0  0  0  0  0  0
   55.3560   25.0850   45.6520 C   0  0  0  0  0  0  0  0  0  0  0  0
   57.3760   26.0400   46.6240 C   0  0  0  0  0  0  0  0  0  0  0  0
   58.8760   25.8990   46.3340 C   0  0  0  0  0  0  0  0  0  0  0  0
   59.6920   27.1680   46.6300 C   0  0  0  0  0  0  0  0  0  0  0  0
   59.6190   28.1230   45.5280 N   0  0  0  0  0  0  0  0  0  0  0  0
   58.6960   28.9690   45.1580 C   0  0  0  0  0  0  0  0  0  0  0  0
   57.5510   28.4770   44.4560 N   0  0  0  0  0  0  0  0  0  0  0  0
   56.4660   29.7590   44.1110 S   0  0  0  0  0  0  0  0  0  0  0  0
   56.3080   29.9660   42.6300 O   0  0  0  0  0  0  0  0  0  0  0  0
   55.1480   29.5710   44.8090 O   0  0  0  0  0  0  0  0  0  0  0  0
   57.4450   30.9780   44.8530 C   0  0  0  0  0  0  0  0  0  0  0  0
   57.1320   32.3340   44.9240 C   0  0  0  0  0  0  0  0  0  0  0  0
   58.0330   33.2000   45.5500 C   0  0  0  0  0  0  0  0  0  0  0  0
   59.2270   32.7000   46.0880 C   0  0  0  0  0  0  0  0  0  0  0  0
   59.5310   31.3330   46.0100 C   0  0  0  0  0  0  0  0  0  0  0  0
   58.6250   30.4540   45.3850 C   0  0  0  0  0  0  0  0  0  0  0  0
   58.1280   24.5117   44.8683 H   0  0  0  0  0  0  0  0  0  0  0  0
   56.7284   24.5394   43.7427 H   0  0  0  0  0  0  0  0  0  0  0  0
   57.9079   25.8942   43.7427 H   0  0  0  0  0  0  0  0  0  0  0  0
   55.2078   24.9920   46.7380 H   0  0  0  0  0  0  0  0  0  0  0  0
   54.4942   25.6044   45.2075 H   0  0  0  0  0  0  0  0  0  0  0  0
   55.4494   24.0831   45.2075 H   0  0  0  0  0  0  0  0  0  0  0  0
   57.1800   27.0424   47.0324 H   0  0  0  0  0  0  0  0  0  0  0  0
   57.0824   25.2675   47.3500 H   0  0  0  0  0  0  0  0  0  0  0  0
   59.2725   25.0806   46.9528 H   0  0  0  0  0  0  0  0  0  0  0  0
   58.9747   25.7013   45.2564 H   0  0  0  0  0  0  0  0  0  0  0  0
   59.2967   27.6424   47.5403 H   0  0  0  0  0  0  0  0  0  0  0  0
   60.7443   26.8770   46.7640 H   0  0  0  0  0  0  0  0  0  0  0  0
   57.3880   27.4780   44.2010 H   0  0  0  0  0  0  0  0  0  0  0  0
   56.1936   32.7157   44.4955 H   0  0  0  0  0  0  0  0  0  0  0  0
   57.8052   34.2738   45.6205 H   0  0  0  0  0  0  0  0  0  0  0  0
   59.9333   33.3873   46.5767 H   0  0  0  0  0  0  0  0  0  0  0  0
   60.4708   30.9498   46.4341 H   0  0  0  0  0  0  0  0  0  0  0  0
  1  2  1  0
  2  3  1  0
  2  4  1  0
  4  5  1  0
  5  6  1  0
  6  7  1  0
  7  8  2  3
  8  9  1  0
  9 10  1  0
 10 11  2  0
 10 12  2  0
 10 13  1  0
 13 14  2  0
 14 15  1  0
 15 16  2  0
 16 17  1  0
 17 18  2  0
 18  8  1  0
 18 13  1  0
  1 19  1  0
  1 20  1  0
  1 21  1  0
  3 22  1  0
  3 23  1  0
  3 24  1  0
  4 25  1  0
  4 26  1  0
  5 27  1  0
  5 28  1  0
  6 29  1  0
  6 30  1  0
  9 31  1  0
 14 32  1  0
 15 33  1  0
 16 34  1  0
 17 35  1  0
M  END
>  <UniqueID>  (90) 
82

>  <SMILES>  (90) 
CN(C)CCCN=C1NS(=O)(=O)c2ccccc21

>  <Energy>  (90) 
65.01229579824361

>  <Genealogy>  (90) 
CN(C)CCCN=C1NS(=O)(=O)c2ccccc21 (3D coordinates assigned)
CN(C)CCCN=C1NS(=O)(=O)c2ccccc21 (nonaromatic ring conformer: 65.01229579824361 kcal/mol)

>  <smiles>  (90) 
CN(C)CCCN=C1NS(=O)(=O)c2ccccc21

>  <score_type>  (90) 
oracle

>  <origin>  (90) 
adg

>  <m_score__min__energy>  (90) 
-6.7000000000000002

>  <m_primary>  (90) 
energy

$$$$
90:0
     RDKit          3D

 38 39  0  0  0  0  0  0  0  0999 V2000
   61.9890   34.2030   49.4010 C   0  0  0  0  0  0  0  0  0  0  0  0
   63.3210   34.0440   48.8050 N   0  0  0  0  0  0  0  0  0  0  0  0
   64.1050   33.0740   49.5800 C   0  0  0  0  0  0  0  0  0  0  0  0
   63.1610   33.4760   47.1620 S   0  0  0  0  0  0  0  0  0  0  0  0
   63.7590   34.4790   46.2160 O   0  0  0  0  0  0  0  0  0  0  0  0
   63.8850   32.1680   46.9920 O   0  0  0  0  0  0  0  0  0  0  0  0
   61.4560   33.2720   46.7640 C   0  0  0  0  0  0  0  0  0  0  0  0
   60.7940   32.0940   47.1280 C   0  0  0  0  0  0  0  0  0  0  0  0
   59.4490   31.9090   46.7900 C   0  0  0  0  0  0  0  0  0  0  0  0
   58.7540   32.8960   46.0730 C   0  0  0  0  0  0  0  0  0  0  0  0
   57.3340   32.6880   45.7060 C   0  0  0  0  0  0  0  0  0  0  0  0
   56.4570   33.4670   46.1650 O   0  0  0  0  0  0  0  0  0  0  0  0
   56.9250   31.6530   44.8010 N   0  0  0  0  0  0  0  0  0  0  0  0
   57.3590   30.2850   44.8280 C   0  0  0  0  0  0  0  0  0  0  0  0
   58.6720   29.9200   44.4800 C   0  0  0  0  0  0  0  0  0  0  0  0
   59.0640   28.5790   44.5280 C   0  0  0  0  0  0  0  0  0  0  0  0
   58.1590   27.5980   44.9380 C   0  0  0  0  0  0  0  0  0  0  0  0
   56.8560   27.9530   45.3110 C   0  0  0  0  0  0  0  0  0  0  0  0
   55.9320   26.9500   45.7400 N   0  0  0  0  0  0  0  0  0  0  0  0
   56.4640   29.2990   45.2610 C   0  0  0  0  0  0  0  0  0  0  0  0
   59.4210   34.0840   45.7240 C   0  0  0  0  0  0  0  0  0  0  0  0
   60.7650   34.2670   46.0620 C   0  0  0  0  0  0  0  0  0  0  0  0
   62.0744   34.1928   50.4976 H   0  0  0  0  0  0  0  0  0  0  0  0
   61.5537   35.1595   49.0760 H   0  0  0  0  0  0  0  0  0  0  0  0
   61.3408   33.3759   49.0760 H   0  0  0  0  0  0  0  0  0  0  0  0
   63.9567   33.2575   50.6544 H   0  0  0  0  0  0  0  0  0  0  0  0
   63.7743   32.0544   49.3331 H   0  0  0  0  0  0  0  0  0  0  0  0
   65.1713   33.1835   49.3331 H   0  0  0  0  0  0  0  0  0  0  0  0
   61.3328   31.3110   47.6816 H   0  0  0  0  0  0  0  0  0  0  0  0
   58.9328   30.9844   47.0879 H   0  0  0  0  0  0  0  0  0  0  0  0
   59.3920   30.6914   44.1694 H   0  0  0  0  0  0  0  0  0  0  0  0
   60.0878   28.2960   44.2421 H   0  0  0  0  0  0  0  0  0  0  0  0
   58.4699   26.5433   44.9682 H   0  0  0  0  0  0  0  0  0  0  0  0
   55.5630   26.2400   45.0690 H   0  0  0  0  0  0  0  0  0  0  0  0
   55.6100   26.9090   46.7330 H   0  0  0  0  0  0  0  0  0  0  0  0
   55.4453   29.5822   45.5644 H   0  0  0  0  0  0  0  0  0  0  0  0
   58.8815   34.8744   45.1815 H   0  0  0  0  0  0  0  0  0  0  0  0
   61.2811   35.1952   45.7757 H   0  0  0  0  0  0  0  0  0  0  0  0
  1  2  1  0
  2  3  1  0
  2  4  1  0
  4  5  2  0
  4  6  2  0
  4  7  1  0
  7  8  2  0
  8  9  1  0
  9 10  2  0
 10 11  1  0
 11 12  2  0
 11 13  1  0
 13 14  1  0
 14 15  2  0
 15 16  1  0
 16 17  2  0
 17 18  1  0
 18 19  1  0
 18 20  2  0
 10 21  1  0
 21 22  2  0
 22  7  1  0
 20 14  1  0
  1 23  1  0
  1 24  1  0
  1 25  1  0
  3 26  1  0
  3 27  1  0
  3 28  1  0
  8 29  1  0
  9 30  1  0
 15 31  1  0
 16 32  1  0
 17 33  1  0
 19 34  1  0
 19 35  1  0
 20 36  1  0
 21 37  1  0
 22 38  1  0
M  CHG  1  13  -1
M  END
>  <UniqueID>  (91) 
83

>  <SMILES>  (91) 
CN(C)S(=O)(=O)c1ccc(C(=O)[N-]c2cccc(N)c2)cc1

>  <Energy>  (91) 
41.721528704294975

>  <Genealogy>  (91) 
CN(C)S(=O)(=O)c1ccc(C(=O)[N-]c2cccc(N)c2)cc1 (protonated)
CN(C)S(=O)(=O)c1ccc(C(=O)[N-]c2cccc(N)c2)cc1 (3D coordinates assigned)
CN(C)S(=O)(=O)c1ccc(C(=O)[N-]c2cccc(N)c2)cc1 (optimized conformer: 41.721528704294975 kcal/mol)

>  <smiles>  (91) 
CN(C)S(=O)(=O)c1ccc(C(=O)Nc2cccc(N)c2)cc1

>  <score_type>  (91) 
oracle

>  <origin>  (91) 
adg

>  <m_score__min__energy>  (91) 
-9.3699999999999992

>  <m_primary>  (91) 
energy

$$$$
91:0
     RDKit          3D

 45 46  0  0  0  0  0  0  0  0999 V2000
   57.1730   31.3900   42.9100 O   0  0  0  0  0  0  0  0  0  0  0  0
   57.1630   31.3310   44.1680 C   0  0  0  0  0  0  0  0  0  0  0  0
   58.3460   31.8810   44.9290 C   0  0  0  0  0  0  0  0  0  0  0  0
   58.4430   31.2930   46.3480 C   0  0  0  0  0  0  0  0  0  0  0  0
   59.0560   29.9140   46.3380 C   0  0  0  0  0  0  0  0  0  0  0  0
   58.9350   29.0810   47.4650 C   0  0  0  0  0  0  0  0  0  0  0  0
   59.5400   27.8200   47.4750 C   0  0  0  0  0  0  0  0  0  0  0  0
   60.2690   27.3790   46.3640 C   0  0  0  0  0  0  0  0  0  0  0  0
   60.8470   26.1540   46.3770 F   0  0  0  0  0  0  0  0  0  0  0  0
   60.4010   28.2060   45.2420 C   0  0  0  0  0  0  0  0  0  0  0  0
   59.8030   29.4690   45.2300 C   0  0  0  0  0  0  0  0  0  0  0  0
   56.0440   30.6960   44.8120 N   0  0  0  0  0  0  0  0  0  0  0  0
   55.5400   29.3460   44.5640 C   0  0  0  0  0  0  0  0  0  0  0  0
   56.4240   28.2890   45.2370 C   0  0  0  0  0  0  0  0  0  0  0  0
   55.6390   27.1380   45.6750 N   0  0  0  0  0  0  0  0  0  0  0  0
   56.1330   25.7910   45.6710 C   0  0  0  0  0  0  0  0  0  0  0  0
   55.5350   24.8910   46.3250 O   0  0  0  0  0  0  0  0  0  0  0  0
   57.3610   25.4460   44.8800 C   0  0  0  0  0  0  0  0  0  0  0  0
   57.2310   24.0670   44.2690 C   0  0  0  0  0  0  0  0  0  0  0  0
   56.1180   23.8100   43.4440 C   0  0  0  0  0  0  0  0  0  0  0  0
   55.9530   22.5670   42.8300 C   0  0  0  0  0  0  0  0  0  0  0  0
   56.8940   21.5600   43.0300 C   0  0  0  0  0  0  0  0  0  0  0  0
   57.9990   21.7870   43.8530 C   0  0  0  0  0  0  0  0  0  0  0  0
   58.1780   23.0300   44.4990 C   0  0  0  0  0  0  0  0  0  0  0  0
   59.3110   23.2100   45.3780 N   0  0  0  0  0  0  0  0  0  0  0  0
   60.1850   22.3200   45.4630 O   0  0  0  0  0  0  0  0  0  0  0  0
   59.2860   24.1860   46.3470 O   0  0  0  0  0  0  0  0  0  0  0  0
   59.2668   31.6360   44.3794 H   0  0  0  0  0  0  0  0  0  0  0  0
   58.2148   32.9693   45.0206 H   0  0  0  0  0  0  0  0  0  0  0  0
   59.0655   31.9557   46.9671 H   0  0  0  0  0  0  0  0  0  0  0  0
   57.4252   31.2138   46.7576 H   0  0  0  0  0  0  0  0  0  0  0  0
   58.3632   29.4222   48.3406 H   0  0  0  0  0  0  0  0  0  0  0  0
   59.4427   27.1725   48.3589 H   0  0  0  0  0  0  0  0  0  0  0  0
   60.9756   27.8615   44.3696 H   0  0  0  0  0  0  0  0  0  0  0  0
   59.9164   30.1194   44.3501 H   0  0  0  0  0  0  0  0  0  0  0  0
   54.5183   29.2659   44.9637 H   0  0  0  0  0  0  0  0  0  0  0  0
   55.5486   29.1660   43.4789 H   0  0  0  0  0  0  0  0  0  0  0  0
   57.1860   27.9504   44.5196 H   0  0  0  0  0  0  0  0  0  0  0  0
   56.8948   28.7435   46.1212 H   0  0  0  0  0  0  0  0  0  0  0  0
   57.4937   26.1861   44.0771 H   0  0  0  0  0  0  0  0  0  0  0  0
   58.2308   25.4551   45.5533 H   0  0  0  0  0  0  0  0  0  0  0  0
   55.3692   24.5992   43.2815 H   0  0  0  0  0  0  0  0  0  0  0  0
   55.0791   22.3829   42.1878 H   0  0  0  0  0  0  0  0  0  0  0  0
   56.7666   20.5841   42.5388 H   0  0  0  0  0  0  0  0  0  0  0  0
   58.7397   20.9872   44.0001 H   0  0  0  0  0  0  0  0  0  0  0  0
  1  2  2  0
  2  3  1  0
  3  4  1  0
  4  5  1  0
  5  6  2  0
  6  7  1  0
  7  8  2  0
  8  9  1  0
  8 10  1  0
 10 11  2  0
  2 12  1  0
 12 13  1  0
 13 14  1  0
 14 15  1  0
 15 16  1  0
 16 17  2  0
 16 18  1  0
 18 19  1  0
 19 20  2  0
 20 21  1  0
 21 22  2  0
 22 23  1  0
 23 24  2  0
 24 25  1  0
 25 26  2  0
 25 27  1  0
 11  5  1  0
 24 19  1  0
  3 28  1  0
  3 29  1  0
  4 30  1  0
  4 31  1  0
  6 32  1  0
  7 33  1  0
 10 34  1  0
 11 35  1  0
 13 36  1  0
 13 37  1  0
 14 38  1  0
 14 39  1  0
 18 40  1  0
 18 41  1  0
 20 42  1  0
 21 43  1  0
 22 44  1  0
 23 45  1  0
M  CHG  4  12  -1  15  -1  25   1  27  -1
M  END
>  <UniqueID>  (92) 
84

>  <SMILES>  (92) 
O=C(CCc1ccc(F)cc1)[N-]CC[N-]C(=O)Cc1ccccc1[N+](=O)[O-]

>  <Energy>  (92) 
40.46469444816818

>  <Genealogy>  (92) 
O=C(CCc1ccc(F)cc1)[N-]CC[N-]C(=O)Cc1ccccc1[N+](=O)[O-] (protonated)
O=C(CCc1ccc(F)cc1)[N-]CC[N-]C(=O)Cc1ccccc1[N+](=O)[O-] (3D coordinates assigned)
O=C(CCc1ccc(F)cc1)[N-]CC[N-]C(=O)Cc1ccccc1[N+](=O)[O-] (optimized conformer: 40.46469444816818 kcal/mol)

>  <smiles>  (92) 
O=C(CCc1ccc(F)cc1)NCCNC(=O)Cc1ccccc1[N+](=O)[O-]

>  <score_type>  (92) 
oracle

>  <origin>  (92) 
adg

>  <m_score__min__energy>  (92) 
-12.390000000000001

>  <m_primary>  (92) 
energy

$$$$
92:0
     RDKit          3D

 44 46  0  0  1  0  0  0  0  0999 V2000
   57.8970   25.0670   45.0580 C   0  0  0  0  0  0  0  0  0  0  0  0
   57.3960   25.9750   46.5120 S   0  0  0  0  0  0  0  0  0  0  0  0
   57.6220   25.1210   47.7240 O   0  0  0  0  0  0  0  0  0  0  0  0
   55.9190   26.2360   46.3720 O   0  0  0  0  0  0  0  0  0  0  0  0
   58.2300   27.5080   46.6230 C   0  0  0  0  0  0  0  0  0  0  0  0
   58.4470   28.2720   45.4970 C   0  0  0  0  0  0  0  0  0  0  0  0
   59.1040   29.4810   45.5740 C   0  0  0  0  0  0  0  0  0  0  0  0
   59.5780   29.9900   46.7880 C   0  0  0  0  0  0  0  0  0  0  0  0
   60.2690   31.2690   46.8480 C   0  0  0  0  0  0  0  0  0  0  0  0
   59.6880   32.3360   46.2730 N   0  0  0  0  0  0  0  0  0  0  0  0
   60.2640   33.5340   46.2910 C   0  0  0  0  0  0  0  0  0  0  0  0
   59.6690   34.5200   45.7280 N   0  0  0  0  0  0  0  0  0  0  0  0
   58.2900   34.5390   45.3690 C   0  0  0  0  0  0  0  0  0  0  0  0
   57.8900   33.3230   44.5880 C   0  0  0  0  0  0  0  0  0  0  0  0
   57.0220   32.3790   45.0690 C   0  0  0  0  0  0  0  0  0  0  0  0
   56.6500   31.2520   44.3410 C   0  0  0  0  0  0  0  0  0  0  0  0
   57.1640   31.0550   43.0770 C   0  0  0  0  0  0  0  0  0  0  0  0
   58.0400   31.9870   42.5640 C   0  0  0  0  0  0  0  0  0  0  0  0
   58.3940   33.0940   43.3020 C   0  0  0  0  0  0  0  0  0  0  0  0
   61.4690   33.7100   46.8970 C   0  0  0  0  0  0  0  0  0  0  0  0
   62.0900   32.6340   47.4960 C   0  0  0  0  0  0  0  0  0  0  0  0
   63.4020   32.7490   48.1760 C   0  0  0  0  0  0  0  0  0  0  0  0
   63.7760   31.5210   48.7200 F   0  0  0  0  0  0  0  0  0  0  0  0
   64.4070   33.1200   47.3060 F   0  0  0  0  0  0  0  0  0  0  0  0
   63.2800   33.6460   49.2260 F   0  0  0  0  0  0  0  0  0  0  0  0
   61.4580   31.4520   47.4440 N   0  0  0  0  0  0  0  0  0  0  0  0
   59.3420   29.1990   47.8930 C   0  0  0  0  0  0  0  0  0  0  0  0
   58.6860   27.9860   47.8330 C   0  0  0  0  0  0  0  0  0  0  0  0
   58.4078   24.1413   45.3617 H   0  0  0  0  0  0  0  0  0  0  0  0
   57.0095   24.8163   44.4584 H   0  0  0  0  0  0  0  0  0  0  0  0
   58.5823   25.6841   44.4584 H   0  0  0  0  0  0  0  0  0  0  0  0
   58.0901   27.9111   44.5211 H   0  0  0  0  0  0  0  0  0  0  0  0
   59.2604   30.0630   44.6538 H   0  0  0  0  0  0  0  0  0  0  0  0
   57.6858   34.5847   46.2871 H   0  0  0  0  0  0  0  0  0  0  0  0
   58.1194   35.4197   44.7325 H   0  0  0  0  0  0  0  0  0  0  0  0
   56.6000   32.5174   46.0753 H   0  0  0  0  0  0  0  0  0  0  0  0
   55.9492   30.5221   44.7724 H   0  0  0  0  0  0  0  0  0  0  0  0
   56.8801   30.1700   42.4887 H   0  0  0  0  0  0  0  0  0  0  0  0
   58.4596   31.8453   41.5571 H   0  0  0  0  0  0  0  0  0  0  0  0
   59.0951   33.8217   42.8675 H   0  0  0  0  0  0  0  0  0  0  0  0
   61.9441   34.7020   46.9092 H   0  0  0  0  0  0  0  0  0  0  0  0
   61.9350   30.6460   47.8990 H   0  0  0  0  0  0  0  0  0  0  0  0
   59.6948   29.5532   48.8728 H   0  0  0  0  0  0  0  0  0  0  0  0
   58.5271   27.4007   48.7507 H   0  0  0  0  0  0  0  0  0  0  0  0
  1  2  1  0
  2  3  2  0
  2  4  2  0
  2  5  1  0
  5  6  2  0
  6  7  1  0
  7  8  2  0
  8  9  1  0
  9 10  2  0
 10 11  1  0
 11 12  2  0
 12 13  1  0
 13 14  1  0
 14 15  2  0
 15 16  1  0
 16 17  2  0
 17 18  1  0
 18 19  2  0
 11 20  1  0
 20 21  2  0
 21 22  1  0
 22 23  1  0
 22 24  1  0
 22 25  1  0
 21 26  1  0
  8 27  1  0
 27 28  2  0
 28  5  1  0
 26  9  1  0
 19 14  1  0
  1 29  1  0
  1 30  1  0
  1 31  1  0
  6 32  1  0
  7 33  1  0
 13 34  1  0
 13 35  1  0
 15 36  1  0
 16 37  1  0
 17 38  1  0
 18 39  1  0
 19 40  1  0
 20 41  1  0
 26 42  1  0
 27 43  1  0
 28 44  1  0
M  END
>  <smiles>  (93) 
CS(=O)(=O)c1ccc(-c2nc(=NCc3ccccc3)cc(C(F)(F)F)[nH]2)cc1

>  <score_type>  (93) 
oracle

>  <origin>  (93) 
adg

>  <m_score__min__energy>  (93) 
-8.4000000000000004

>  <m_primary>  (93) 
energy

$$$$
93:0
     RDKit          3D

 57 61  0  0  0  0  0  0  0  0999 V2000
   56.9160   33.4640   46.7580 C   0  0  0  0  0  0  0  0  0  0  0  0
   58.3540   33.6800   46.5260 N   0  0  0  0  0  0  0  0  0  0  0  0
   59.1410   33.4220   47.7560 C   0  0  0  0  0  0  0  0  0  0  0  0
   60.2150   34.4990   47.9030 C   0  0  0  0  0  0  0  0  0  0  0  0
   61.5780   33.8790   48.0470 C   0  0  0  0  0  0  0  0  0  0  0  0
   62.4500   33.8250   46.9490 C   0  0  0  0  0  0  0  0  0  0  0  0
   63.7300   33.2800   47.0930 C   0  0  0  0  0  0  0  0  0  0  0  0
   64.1460   32.7920   48.3350 C   0  0  0  0  0  0  0  0  0  0  0  0
   63.2870   32.8510   49.4350 C   0  0  0  0  0  0  0  0  0  0  0  0
   62.0090   33.3990   49.2940 C   0  0  0  0  0  0  0  0  0  0  0  0
   58.8130   32.8590   45.3860 C   0  0  0  0  0  0  0  0  0  0  0  0
   59.1890   31.4700   45.8410 C   0  0  0  0  0  0  0  0  0  0  0  0
   60.4550   31.2000   46.3730 C   0  0  0  0  0  0  0  0  0  0  0  0
   60.5640   29.5530   46.7180 S   0  0  0  0  0  0  0  0  0  0  0  0
   59.0050   29.2520   46.1830 C   0  0  0  0  0  0  0  0  0  0  0  0
   58.4040   28.0390   46.1830 N   0  0  0  0  0  0  0  0  0  0  0  0
   57.1290   27.9010   45.7250 C   0  0  0  0  0  0  0  0  0  0  0  0
   56.5250   26.5500   45.7680 C   0  0  0  0  0  0  0  0  0  0  0  0
   55.2050   26.3550   46.0020 N   0  0  0  0  0  0  0  0  0  0  0  0
   54.8580   25.0410   45.9730 C   0  0  0  0  0  0  0  0  0  0  0  0
   55.9080   24.1680   45.7220 C   0  0  0  0  0  0  0  0  0  0  0  0
   55.7950   22.6870   45.5450 C   0  0  0  0  0  0  0  0  0  0  0  0
   55.0130   22.0920   46.6820 C   0  0  0  0  0  0  0  0  0  0  0  0
   53.8510   21.3430   46.4300 C   0  0  0  0  0  0  0  0  0  0  0  0
   53.1000   20.8300   47.4910 C   0  0  0  0  0  0  0  0  0  0  0  0
   53.4980   21.0660   48.8100 C   0  0  0  0  0  0  0  0  0  0  0  0
   52.7640   20.5750   49.8380 F   0  0  0  0  0  0  0  0  0  0  0  0
   54.6470   21.8190   49.0700 C   0  0  0  0  0  0  0  0  0  0  0  0
   55.4010   22.3340   48.0110 C   0  0  0  0  0  0  0  0  0  0  0  0
   57.3050   25.0750   45.5050 S   0  0  0  0  0  0  0  0  0  0  0  0
   56.4470   29.0410   45.2400 C   0  0  0  0  0  0  0  0  0  0  0  0
   55.1470   28.9610   44.7490 O   0  0  0  0  0  0  0  0  0  0  0  0
   57.1000   30.2850   45.2550 C   0  0  0  0  0  0  0  0  0  0  0  0
   56.4950   31.3050   44.8300 O   0  0  0  0  0  0  0  0  0  0  0  0
   58.3800   30.3640   45.7360 N   0  0  0  0  0  0  0  0  0  0  0  0
   56.7195   33.4345   47.8399 H   0  0  0  0  0  0  0  0  0  0  0  0
   56.3437   34.2863   46.3037 H   0  0  0  0  0  0  0  0  0  0  0  0
   56.6105   32.5099   46.3037 H   0  0  0  0  0  0  0  0  0  0  0  0
   58.4744   33.4459   48.6306 H   0  0  0  0  0  0  0  0  0  0  0  0
   59.6176   32.4329   47.6881 H   0  0  0  0  0  0  0  0  0  0  0  0
   60.2042   35.1429   47.0112 H   0  0  0  0  0  0  0  0  0  0  0  0
   59.9998   35.0903   48.8053 H   0  0  0  0  0  0  0  0  0  0  0  0
   62.1259   34.2125   45.9719 H   0  0  0  0  0  0  0  0  0  0  0  0
   64.4093   33.2354   46.2289 H   0  0  0  0  0  0  0  0  0  0  0  0
   65.1518   32.3607   48.4464 H   0  0  0  0  0  0  0  0  0  0  0  0
   63.6162   32.4664   50.4116 H   0  0  0  0  0  0  0  0  0  0  0  0
   61.3379   33.4545   50.1638 H   0  0  0  0  0  0  0  0  0  0  0  0
   58.0041   32.7885   44.6439 H   0  0  0  0  0  0  0  0  0  0  0  0
   59.6995   33.3363   44.9430 H   0  0  0  0  0  0  0  0  0  0  0  0
   61.2500   31.9419   46.5391 H   0  0  0  0  0  0  0  0  0  0  0  0
   53.8261   24.6964   46.1357 H   0  0  0  0  0  0  0  0  0  0  0  0
   55.2805   22.4716   44.5969 H   0  0  0  0  0  0  0  0  0  0  0  0
   56.8030   22.2470   45.5306 H   0  0  0  0  0  0  0  0  0  0  0  0
   53.5313   21.1598   45.3935 H   0  0  0  0  0  0  0  0  0  0  0  0
   52.1943   20.2396   47.2879 H   0  0  0  0  0  0  0  0  0  0  0  0
   54.9580   22.0064   50.1083 H   0  0  0  0  0  0  0  0  0  0  0  0
   56.3013   22.9309   48.2189 H   0  0  0  0  0  0  0  0  0  0  0  0
  1  2  1  0
  2  3  1  0
  3  4  1  0
  4  5  1  0
  5  6  2  0
  6  7  1  0
  7  8  2  0
  8  9  1  0
  9 10  2  0
  2 11  1  0
 11 12  1  0
 12 13  2  0
 13 14  1  0
 14 15  1  0
 15 16  2  0
 16 17  1  0
 17 18  1  0
 18 19  2  0
 19 20  1  0
 20 21  2  0
 21 22  1  0
 22 23  1  0
 23 24  2  0
 24 25  1  0
 25 26  2  0
 26 27  1  0
 26 28  1  0
 28 29  2  0
 21 30  1  0
 17 31  2  0
 31 32  1  0
 31 33  1  0
 33 34  2  0
 33 35  1  0
 10  5  1  0
 35 12  1  0
 35 15  1  0
 30 18  1  0
 29 23  1  0
  1 36  1  0
  1 37  1  0
  1 38  1  0
  3 39  1  0
  3 40  1  0
  4 41  1  0
  4 42  1  0
  6 43  1  0
  7 44  1  0
  8 45  1  0
  9 46  1  0
 10 47  1  0
 11 48  1  0
 11 49  1  0
 13 50  1  0
 20 51  1  0
 22 52  1  0
 22 53  1  0
 24 54  1  0
 25 55  1  0
 28 56  1  0
 29 57  1  0
M  CHG  1  32  -1
M  END
>  <UniqueID>  (94) 
85

>  <SMILES>  (94) 
CN(CCc1ccccc1)Cc1csc2nc(-c3ncc(Cc4ccc(F)cc4)s3)c([O-])c(=O)n12

>  <Energy>  (94) 
129.59121892606947

>  <Genealogy>  (94) 
CN(CCc1ccccc1)Cc1csc2nc(-c3ncc(Cc4ccc(F)cc4)s3)c([O-])c(=O)n12 (protonated)
CN(CCc1ccccc1)Cc1csc2nc(-c3ncc(Cc4ccc(F)cc4)s3)c([O-])c(=O)n12 (3D coordinates assigned)
CN(CCc1ccccc1)Cc1csc2nc(-c3ncc(Cc4ccc(F)cc4)s3)c([O-])c(=O)n12 (optimized conformer: 129.59121892606947 kcal/mol)

>  <smiles>  (94) 
CN(CCc1ccccc1)Cc1csc2nc(-c3ncc(Cc4ccc(F)cc4)s3)c(O)c(=O)n12

>  <score_type>  (94) 
oracle

>  <origin>  (94) 
adg

>  <m_score__min__energy>  (94) 
-12.27

>  <m_primary>  (94) 
energy

$$$$
94:0
     RDKit          3D

 42 44  0  0  0  0  0  0  0  0999 V2000
   60.9440   28.9390   45.8620 O   0  0  0  0  0  0  0  0  0  0  0  0
   60.0290   28.9570   46.7300 C   0  0  0  0  0  0  0  0  0  0  0  0
   60.2630   29.6000   47.9920 N   0  0  0  0  0  0  0  0  0  0  0  0
   61.4750   30.3830   48.2300 C   0  0  0  0  0  0  0  0  0  0  0  0
   61.3770   31.7300   47.5610 C   0  0  0  0  0  0  0  0  0  0  0  0
   60.1210   32.2500   47.2100 C   0  0  0  0  0  0  0  0  0  0  0  0
   60.0200   33.5160   46.6220 C   0  0  0  0  0  0  0  0  0  0  0  0
   61.1710   34.2740   46.3940 C   0  0  0  0  0  0  0  0  0  0  0  0
   62.4230   33.7720   46.7570 C   0  0  0  0  0  0  0  0  0  0  0  0
   62.5300   32.5070   47.3440 C   0  0  0  0  0  0  0  0  0  0  0  0
   63.7530   32.0440   47.7050 F   0  0  0  0  0  0  0  0  0  0  0  0
   58.7340   28.2960   46.4350 C   0  0  0  0  0  0  0  0  0  0  0  0
   57.8300   28.8480   45.5100 C   0  0  0  0  0  0  0  0  0  0  0  0
   56.6150   28.2130   45.2410 C   0  0  0  0  0  0  0  0  0  0  0  0
   56.2750   27.0210   45.9020 C   0  0  0  0  0  0  0  0  0  0  0  0
   55.0360   26.3400   45.6490 N   0  0  0  0  0  0  0  0  0  0  0  0
   54.8310   24.9200   45.6430 C   0  0  0  0  0  0  0  0  0  0  0  0
   53.7880   24.4570   46.1770 O   0  0  0  0  0  0  0  0  0  0  0  0
   55.7930   23.9880   45.0170 C   0  0  0  0  0  0  0  0  0  0  0  0
   55.9030   23.9680   43.6170 C   0  0  0  0  0  0  0  0  0  0  0  0
   56.7760   23.0790   42.9870 C   0  0  0  0  0  0  0  0  0  0  0  0
   57.5600   22.2120   43.7480 C   0  0  0  0  0  0  0  0  0  0  0  0
   57.4810   22.2390   45.1420 C   0  0  0  0  0  0  0  0  0  0  0  0
   56.6090   23.1250   45.7860 C   0  0  0  0  0  0  0  0  0  0  0  0
   56.6460   23.1800   47.7040 Br  0  0  0  0  0  0  0  0  0  0  0  0
   57.1900   26.4480   46.7910 C   0  0  0  0  0  0  0  0  0  0  0  0
   58.4070   27.0800   47.0600 C   0  0  0  0  0  0  0  0  0  0  0  0
   59.5820   29.4630   48.7730 H   0  0  0  0  0  0  0  0  0  0  0  0
   61.6061   30.5259   49.3128 H   0  0  0  0  0  0  0  0  0  0  0  0
   62.3352   29.8408   47.8105 H   0  0  0  0  0  0  0  0  0  0  0  0
   59.2121   31.6596   47.3980 H   0  0  0  0  0  0  0  0  0  0  0  0
   59.0343   33.9141   46.3394 H   0  0  0  0  0  0  0  0  0  0  0  0
   61.0914   35.2673   45.9281 H   0  0  0  0  0  0  0  0  0  0  0  0
   63.3272   34.3732   46.5807 H   0  0  0  0  0  0  0  0  0  0  0  0
   58.0814   29.7866   44.9945 H   0  0  0  0  0  0  0  0  0  0  0  0
   55.9207   28.6488   44.5075 H   0  0  0  0  0  0  0  0  0  0  0  0
   55.2966   24.6582   43.0121 H   0  0  0  0  0  0  0  0  0  0  0  0
   56.8456   23.0623   41.8893 H   0  0  0  0  0  0  0  0  0  0  0  0
   58.2411   21.5064   43.2497 H   0  0  0  0  0  0  0  0  0  0  0  0
   58.1081   21.5596   45.7380 H   0  0  0  0  0  0  0  0  0  0  0  0
   56.9501   25.4933   47.2819 H   0  0  0  0  0  0  0  0  0  0  0  0
   59.1149   26.6222   47.7666 H   0  0  0  0  0  0  0  0  0  0  0  0
  1  2  2  0
  2  3  1  0
  3  4  1  0
  4  5  1  0
  5  6  2  0
  6  7  1  0
  7  8  2  0
  8  9  1  0
  9 10  2  0
 10 11  1  0
  2 12  1  0
 12 13  2  0
 13 14  1  0
 14 15  2  0
 15 16  1  0
 16 17  1  0
 17 18  2  0
 17 19  1  0
 19 20  2  0
 20 21  1  0
 21 22  2  0
 22 23  1  0
 23 24  2  0
 24 25  1  0
 15 26  1  0
 26 27  2  0
 10  5  1  0
 27 12  1  0
 24 19  1  0
  3 28  1  0
  4 29  1  0
  4 30  1  0
  6 31  1  0
  7 32  1  0
  8 33  1  0
  9 34  1  0
 13 35  1  0
 14 36  1  0
 20 37  1  0
 21 38  1  0
 22 39  1  0
 23 40  1  0
 26 41  1  0
 27 42  1  0
M  CHG  1  16  -1
M  END
>  <UniqueID>  (95) 
86

>  <SMILES>  (95) 
O=C(NCc1ccccc1F)c1ccc([N-]C(=O)c2ccccc2Br)cc1

>  <Energy>  (95) 
55.402526099995605

>  <Genealogy>  (95) 
O=C(NCc1ccccc1F)c1ccc([N-]C(=O)c2ccccc2Br)cc1 (protonated)
O=C(NCc1ccccc1F)c1ccc([N-]C(=O)c2ccccc2Br)cc1 (3D coordinates assigned)
O=C(NCc1ccccc1F)c1ccc([N-]C(=O)c2ccccc2Br)cc1 (optimized conformer: 55.402526099995605 kcal/mol)

>  <smiles>  (95) 
O=C(NCc1ccccc1F)c1ccc(NC(=O)c2ccccc2Br)cc1

>  <score_type>  (95) 
oracle

>  <origin>  (95) 
adg

>  <m_score__min__energy>  (95) 
-10.130000000000001

>  <m_primary>  (95) 
energy

$$$$
