0:0
     RDKit          3D

 40 43  0  0  1  0  0  0  0  0999 V2000
   56.8380   29.2990   42.8170 N   0  0  0  0  0  0  0  0  0  0  0  0
   56.5990   29.6020   44.4870 S   0  0  0  0  0  0  0  0  0  0  0  0
   57.0250   30.9910   44.7950 O   0  0  0  0  0  0  0  0  0  0  0  0
   55.1670   29.3510   44.8530 O   0  0  0  0  0  0  0  0  0  0  0  0
   57.6190   28.5040   45.4260 C   0  0  0  0  0  0  0  0  0  0  0  0
   57.9480   27.2750   44.8900 C   0  0  0  0  0  0  0  0  0  0  0  0
   58.7360   26.3530   45.5460 C   0  0  0  0  0  0  0  0  0  0  0  0
   59.2040   26.7140   46.8030 C   0  0  0  0  0  0  0  0  0  0  0  0
   58.8760   27.9420   47.3370 C   0  0  0  0  0  0  0  0  0  0  0  0
   59.4110   28.2180   48.6480 N   0  0  0  0  0  0  0  0  0  0  0  0
   59.2830   29.3900   49.1720 C   0  0  0  0  0  0  0  0  0  0  0  0
   59.6280   30.5260   48.5070 N   0  0  0  0  0  0  0  0  0  0  0  0
   59.4770   31.7270   49.0940 C   0  0  0  0  0  0  0  0  0  0  0  0
   59.8240   32.9850   48.4460 C   0  0  0  0  0  0  0  0  0  0  0  0
   60.6850   33.9460   48.9220 C   0  0  0  0  0  0  0  0  0  0  0  0
   60.7520   34.9650   48.0510 N   0  0  0  0  0  0  0  0  0  0  0  0
   59.9340   34.6500   47.0210 C   0  0  0  0  0  0  0  0  0  0  0  0
   59.6750   35.3880   45.8880 C   0  0  0  0  0  0  0  0  0  0  0  0
   58.7890   34.8690   44.9450 C   0  0  0  0  0  0  0  0  0  0  0  0
   58.2320   33.6460   45.2170 C   0  0  0  0  0  0  0  0  0  0  0  0
   58.5240   32.9290   46.3820 C   0  0  0  0  0  0  0  0  0  0  0  0
   59.3770   33.4500   47.2700 N   0  0  0  0  0  0  0  0  0  0  0  0
   58.9660   31.7430   50.3760 C   0  0  0  0  0  0  0  0  0  0  0  0
   58.6140   30.6020   51.0580 C   0  0  0  0  0  0  0  0  0  0  0  0
   58.7830   29.4290   50.4300 N   0  0  0  0  0  0  0  0  0  0  0  0
   58.0870   28.8620   46.6800 C   0  0  0  0  0  0  0  0  0  0  0  0
   56.5800   28.3070   42.6120 H   0  0  0  0  0  0  0  0  0  0  0  0
   57.8160   29.5250   42.5390 H   0  0  0  0  0  0  0  0  0  0  0  0
   57.5631   27.0190   43.8918 H   0  0  0  0  0  0  0  0  0  0  0  0
   58.9818   25.3798   45.0961 H   0  0  0  0  0  0  0  0  0  0  0  0
   59.8375   26.0188   47.3734 H   0  0  0  0  0  0  0  0  0  0  0  0
   61.2354   33.8883   49.8726 H   0  0  0  0  0  0  0  0  0  0  0  0
   60.1560   36.3646   45.7304 H   0  0  0  0  0  0  0  0  0  0  0  0
   58.5472   35.4171   44.0224 H   0  0  0  0  0  0  0  0  0  0  0  0
   57.5285   33.2120   44.4912 H   0  0  0  0  0  0  0  0  0  0  0  0
   58.0580   31.9495   46.5651 H   0  0  0  0  0  0  0  0  0  0  0  0
   58.8341   32.7141   50.8756 H   0  0  0  0  0  0  0  0  0  0  0  0
   58.2092   30.6495   52.0797 H   0  0  0  0  0  0  0  0  0  0  0  0
   58.5210   28.5700   50.9360 H   0  0  0  0  0  0  0  0  0  0  0  0
   57.8405   29.8349   47.1303 H   0  0  0  0  0  0  0  0  0  0  0  0
  1  2  1  0
  2  3  2  0
  2  4  2  0
  2  5  1  0
  5  6  2  0
  6  7  1  0
  7  8  2  0
  8  9  1  0
  9 10  1  0
 10 11  2  0
 11 12  1  0
 12 13  2  0
 13 14  1  0
 14 15  2  0
 15 16  1  0
 16 17  2  0
 17 18  1  0
 18 19  2  0
 19 20  1  0
 20 21  2  0
 21 22  1  0
 13 23  1  0
 23 24  2  0
 24 25  1  0
  9 26  2  0
 26  5  1  0
 25 11  1  0
 22 14  1  0
 22 17  1  0
  1 27  1  0
  1 28  1  0
  6 29  1  0
  7 30  1  0
  8 31  1  0
 15 32  1  0
 18 33  1  0
 19 34  1  0
 20 35  1  0
 21 36  1  0
 23 37  1  0
 24 38  1  0
 25 39  1  0
 26 40  1  0
M  END
>  <smiles>  (1) 
NS(=O)(=O)c1cccc(N=c2nc(-c3cnc4ccccn34)cc[nH]2)c1

>  <score_type>  (1) 
oracle

>  <origin>  (1) 
adg

>  <m_score__min__energy>  (1) 
-9.2599999999999998

>  <m_primary>  (1) 
energy

$$$$
1:0
     RDKit          3D

 41 43  0  0  0  0  0  0  0  0999 V2000
   55.8570   24.0830   44.3600 C   0  0  0  0  0  0  0  0  0  0  0  0
   54.8890   24.6350   45.7490 S   0  0  0  0  0  0  0  0  0  0  0  0
   55.2730   23.8850   46.9930 O   0  0  0  0  0  0  0  0  0  0  0  0
   53.4430   24.3650   45.4460 O   0  0  0  0  0  0  0  0  0  0  0  0
   55.0930   26.3420   45.9880 N   0  0  0  0  0  0  0  0  0  0  0  0
   56.3040   27.0900   45.8000 C   0  0  0  0  0  0  0  0  0  0  0  0
   57.5110   26.4690   46.1430 C   0  0  0  0  0  0  0  0  0  0  0  0
   58.7210   27.1470   46.0120 C   0  0  0  0  0  0  0  0  0  0  0  0
   58.7440   28.4480   45.5120 C   0  0  0  0  0  0  0  0  0  0  0  0
   57.5560   29.0780   45.1100 C   0  0  0  0  0  0  0  0  0  0  0  0
   57.6250   30.4490   44.5560 C   0  0  0  0  0  0  0  0  0  0  0  0
   57.4160   30.6990   43.1920 C   0  0  0  0  0  0  0  0  0  0  0  0
   57.5030   32.0050   42.7130 C   0  0  0  0  0  0  0  0  0  0  0  0
   57.8130   33.0500   43.5830 C   0  0  0  0  0  0  0  0  0  0  0  0
   58.0530   32.7690   44.9440 C   0  0  0  0  0  0  0  0  0  0  0  0
   58.3500   33.6980   45.8100 N   0  0  0  0  0  0  0  0  0  0  0  0
   58.9420   33.5100   47.1040 C   0  0  0  0  0  0  0  0  0  0  0  0
   58.9060   34.4590   47.9300 O   0  0  0  0  0  0  0  0  0  0  0  0
   59.5350   32.2200   47.5210 C   0  0  0  0  0  0  0  0  0  0  0  0
   60.7500   31.8280   47.1100 C   0  0  0  0  0  0  0  0  0  0  0  0
   61.2420   30.5730   47.4900 O   0  0  0  0  0  0  0  0  0  0  0  0
   60.3950   29.5820   48.0730 C   0  0  0  0  0  0  0  0  0  0  0  0
   59.3890   30.2510   49.0080 C   0  0  0  0  0  0  0  0  0  0  0  0
   58.7910   31.3700   48.3510 O   0  0  0  0  0  0  0  0  0  0  0  0
   57.9450   31.4850   45.3810 N   0  0  0  0  0  0  0  0  0  0  0  0
   56.3270   28.3960   45.2600 C   0  0  0  0  0  0  0  0  0  0  0  0
   55.1460   29.0140   44.8680 O   0  0  0  0  0  0  0  0  0  0  0  0
   56.7590   23.5686   44.7230 H   0  0  0  0  0  0  0  0  0  0  0  0
   55.2600   23.3895   43.7495 H   0  0  0  0  0  0  0  0  0  0  0  0
   56.1499   24.9499   43.7495 H   0  0  0  0  0  0  0  0  0  0  0  0
   57.5039   25.4355   46.5197 H   0  0  0  0  0  0  0  0  0  0  0  0
   59.6603   26.6546   46.3038 H   0  0  0  0  0  0  0  0  0  0  0  0
   59.7006   28.9850   45.4319 H   0  0  0  0  0  0  0  0  0  0  0  0
   57.1852   29.8710   42.5056 H   0  0  0  0  0  0  0  0  0  0  0  0
   57.3269   32.2118   41.6471 H   0  0  0  0  0  0  0  0  0  0  0  0
   57.8698   34.0837   43.2111 H   0  0  0  0  0  0  0  0  0  0  0  0
   61.3583   32.4902   46.4764 H   0  0  0  0  0  0  0  0  0  0  0  0
   59.8555   29.0478   47.2771 H   0  0  0  0  0  0  0  0  0  0  0  0
   61.0075   28.8700   48.6457 H   0  0  0  0  0  0  0  0  0  0  0  0
   58.6072   29.5273   49.2821 H   0  0  0  0  0  0  0  0  0  0  0  0
   59.9078   30.5956   49.9147 H   0  0  0  0  0  0  0  0  0  0  0  0
  1  2  1  0
  2  3  2  0
  2  4  2  0
  2  5  1  0
  5  6  1  0
  6  7  2  0
  7  8  1  0
  8  9  2  0
  9 10  1  0
 10 11  1  0
 11 12  2  0
 12 13  1  0
 13 14  2  0
 14 15  1  0
 15 16  2  3
 16 17  1  0
 17 18  2  0
 17 19  1  0
 19 20  2  0
 20 21  1  0
 21 22  1  0
 22 23  1  0
 23 24  1  0
 15 25  1  0
 10 26  2  0
 26 27  1  0
 26  6  1  0
 25 11  1  0
 24 19  1  0
  1 28  1  0
  1 29  1  0
  1 30  1  0
  7 31  1  0
  8 32  1  0
  9 33  1  0
 12 34  1  0
 13 35  1  0
 14 36  1  0
 20 37  1  0
 22 38  1  0
 22 39  1  0
 23 40  1  0
 23 41  1  0
M  CHG  3   5  -1  25  -1  27  -1
M  END
>  <UniqueID>  (2) 
1

>  <SMILES>  (2) 
CS(=O)(=O)[N-]c1cccc(-c2cccc(=NC(=O)C3=COCCO3)[n-]2)c1[O-]

>  <Energy>  (2) 
62.484220549069285

>  <Genealogy>  (2) 
CS(=O)(=O)[N-]c1cccc(-c2cccc(=NC(=O)C3=COCCO3)[n-]2)c1[O-] (protonated)
CS(=O)(=O)[N-]c1cccc(-c2cccc(=NC(=O)C3=COCCO3)[n-]2)c1[O-] (3D coordinates assigned)
CS(=O)(=O)[N-]c1cccc(-c2cccc(=NC(=O)C3=COCCO3)[n-]2)c1[O-] (nonaromatic ring conformer: 62.484220549069285 kcal/mol)

>  <smiles>  (2) 
CS(=O)(=O)Nc1cccc(-c2cccc(=NC(=O)C3=COCCO3)[nH]2)c1O

>  <score_type>  (2) 
oracle

>  <origin>  (2) 
adg

>  <m_score__min__energy>  (2) 
-15.970000000000001

>  <m_primary>  (2) 
energy

$$$$
2:0
     RDKit          3D

 43 45  0  0  0  0  0  0  0  0999 V2000
   59.8610   23.5780   45.9050 O   0  0  0  0  0  0  0  0  0  0  0  0
   58.8030   23.9080   45.3110 C   0  0  0  0  0  0  0  0  0  0  0  0
   58.3230   25.2310   45.4430 N   0  0  0  0  0  0  0  0  0  0  0  0
   59.0730   26.1610   46.2640 C   0  0  0  0  0  0  0  0  0  0  0  0
   58.8730   27.5560   45.8280 C   0  0  0  0  0  0  0  0  0  0  0  0
   57.6010   28.1040   45.8930 C   0  0  0  0  0  0  0  0  0  0  0  0
   57.3320   29.3910   45.5070 C   0  0  0  0  0  0  0  0  0  0  0  0
   58.3680   30.1860   45.0310 C   0  0  0  0  0  0  0  0  0  0  0  0
   57.9560   31.8190   44.5560 S   0  0  0  0  0  0  0  0  0  0  0  0
   56.5230   32.0760   44.8840 O   0  0  0  0  0  0  0  0  0  0  0  0
   58.2060   32.0060   43.0740 O   0  0  0  0  0  0  0  0  0  0  0  0
   58.9880   32.8580   45.4670 N   0  0  0  0  0  0  0  0  0  0  0  0
   58.6540   34.2380   45.3090 C   0  0  0  0  0  0  0  0  0  0  0  0
   59.6700   35.0240   46.1450 C   0  0  0  0  0  0  0  0  0  0  0  0
   59.4880   34.8050   47.4950 O   0  0  0  0  0  0  0  0  0  0  0  0
   58.8370   33.6190   47.7950 C   0  0  0  0  0  0  0  0  0  0  0  0
   59.1210   32.4970   46.8410 C   0  0  0  0  0  0  0  0  0  0  0  0
   59.6370   29.6720   44.9540 C   0  0  0  0  0  0  0  0  0  0  0  0
   59.9040   28.3590   45.3500 C   0  0  0  0  0  0  0  0  0  0  0  0
   58.1150   22.9040   44.5090 C   0  0  0  0  0  0  0  0  0  0  0  0
   57.0840   23.2100   43.6320 C   0  0  0  0  0  0  0  0  0  0  0  0
   56.7240   21.9840   43.0860 C   0  0  0  0  0  0  0  0  0  0  0  0
   55.8080   21.8400   42.2310 O   0  0  0  0  0  0  0  0  0  0  0  0
   57.4920   21.0050   43.6050 N   0  0  0  0  0  0  0  0  0  0  0  0
   58.3390   21.5790   44.4740 N   0  0  0  0  0  0  0  0  0  0  0  0
   57.4440   25.5200   44.9560 H   0  0  0  0  0  0  0  0  0  0  0  0
   58.7414   26.0626   47.3082 H   0  0  0  0  0  0  0  0  0  0  0  0
   60.1419   25.9206   46.1662 H   0  0  0  0  0  0  0  0  0  0  0  0
   56.7758   27.4814   46.2690 H   0  0  0  0  0  0  0  0  0  0  0  0
   56.3090   29.7899   45.5730 H   0  0  0  0  0  0  0  0  0  0  0  0
   58.7254   34.5285   44.2505 H   0  0  0  0  0  0  0  0  0  0  0  0
   57.6238   34.4405   45.6371 H   0  0  0  0  0  0  0  0  0  0  0  0
   60.6855   34.7073   45.8648 H   0  0  0  0  0  0  0  0  0  0  0  0
   59.5266   36.0963   45.9458 H   0  0  0  0  0  0  0  0  0  0  0  0
   59.1472   33.3015   48.8015 H   0  0  0  0  0  0  0  0  0  0  0  0
   57.7591   33.8262   47.7235 H   0  0  0  0  0  0  0  0  0  0  0  0
   60.1515   32.1513   47.0100 H   0  0  0  0  0  0  0  0  0  0  0  0
   58.3746   31.7135   47.0387 H   0  0  0  0  0  0  0  0  0  0  0  0
   60.4556   30.3018   44.5754 H   0  0  0  0  0  0  0  0  0  0  0  0
   60.9273   27.9608   45.2840 H   0  0  0  0  0  0  0  0  0  0  0  0
   56.6505   24.1980   43.4178 H   0  0  0  0  0  0  0  0  0  0  0  0
   57.4390   19.9780   43.3740 H   0  0  0  0  0  0  0  0  0  0  0  0
   59.0660   21.1200   45.0480 H   0  0  0  0  0  0  0  0  0  0  0  0
  1  2  2  0
  2  3  1  0
  3  4  1  0
  4  5  1  0
  5  6  2  0
  6  7  1  0
  7  8  2  0
  8  9  1  0
  9 10  2  0
  9 11  2  0
  9 12  1  0
 12 13  1  0
 13 14  1  0
 14 15  1  0
 15 16  1  0
 16 17  1  0
  8 18  1  0
 18 19  2  0
  2 20  1  0
 20 21  2  0
 21 22  1  0
 22 23  2  0
 22 24  1  0
 24 25  1  0
 19  5  1  0
 25 20  1  0
 17 12  1  0
  3 26  1  0
  4 27  1  0
  4 28  1  0
  6 29  1  0
  7 30  1  0
 13 31  1  0
 13 32  1  0
 14 33  1  0
 14 34  1  0
 16 35  1  0
 16 36  1  0
 17 37  1  0
 17 38  1  0
 18 39  1  0
 19 40  1  0
 21 41  1  0
 24 42  1  0
 25 43  1  0
M  END
>  <smiles>  (3) 
O=C(NCc1ccc(S(=O)(=O)N2CCOCC2)cc1)c1cc(=O)[nH][nH]1

>  <score_type>  (3) 
oracle

>  <origin>  (3) 
adg

>  <m_score__min__energy>  (3) 
-8.8100000000000005

>  <m_primary>  (3) 
energy

$$$$
3:0
     RDKit          3D

 51 55  0  0  1  0  0  0  0  0999 V2000
   59.2630   35.3390   44.8870 C   0  0  0  0  0  0  0  0  0  0  0  0
   58.7690   33.9270   44.9120 C   0  0  0  0  0  0  0  0  0  0  0  0
   58.2170   33.3430   43.7650 C   0  0  0  0  0  0  0  0  0  0  0  0
   57.7530   32.0410   43.7620 C   0  0  0  0  0  0  0  0  0  0  0  0
   57.8480   31.3170   44.9380 C   0  0  0  0  0  0  0  0  0  0  0  0
   57.3430   29.9250   44.9210 C   0  0  0  0  0  0  0  0  0  0  0  0
   56.1240   29.6570   44.8710 O   0  0  0  0  0  0  0  0  0  0  0  0
   58.3650   28.9190   44.9680 N   0  0  0  0  0  0  0  0  0  0  0  0
   58.1340   27.8440   45.6450 C   0  0  0  0  0  0  0  0  0  0  0  0
   59.0920   27.3970   46.5490 C   0  0  0  0  0  0  0  0  0  0  0  0
   58.8890   26.2540   47.2950 C   0  0  0  0  0  0  0  0  0  0  0  0
   57.7080   25.5660   47.1170 C   0  0  0  0  0  0  0  0  0  0  0  0
   57.5110   24.4560   47.8410 F   0  0  0  0  0  0  0  0  0  0  0  0
   56.7610   26.0260   46.2090 C   0  0  0  0  0  0  0  0  0  0  0  0
   56.9670   27.1510   45.4790 N   0  0  0  0  0  0  0  0  0  0  0  0
   58.3900   31.8630   46.0960 C   0  0  0  0  0  0  0  0  0  0  0  0
   58.8500   33.1640   46.0860 C   0  0  0  0  0  0  0  0  0  0  0  0
   59.4200   33.8030   47.2200 N   0  0  0  0  0  0  0  0  0  0  0  0
   60.7120   33.7850   47.4050 C   0  0  0  0  0  0  0  0  0  0  0  0
   61.5410   33.7820   46.3180 N   0  0  0  0  0  0  0  0  0  0  0  0
   62.8730   33.7760   46.5310 C   0  0  0  0  0  0  0  0  0  0  0  0
   63.3990   33.7730   47.7640 N   0  0  0  0  0  0  0  0  0  0  0  0
   62.6300   33.7750   48.8380 C   0  0  0  0  0  0  0  0  0  0  0  0
   63.1200   33.7720   50.1170 C   0  0  0  0  0  0  0  0  0  0  0  0
   62.2990   33.7730   51.1930 N   0  0  0  0  0  0  0  0  0  0  0  0
   60.9400   33.7790   51.0020 C   0  0  0  0  0  0  0  0  0  0  0  0
   60.0640   33.7840   52.1250 N   0  0  0  0  0  0  0  0  0  0  0  0
   60.2140   33.6340   53.5770 C   0  0  0  0  0  0  0  0  0  0  0  0
   58.8950   34.3620   53.7990 C   0  0  0  0  0  0  0  0  0  0  0  0
   58.6340   33.9220   52.3730 C   0  0  0  0  0  0  0  0  0  0  0  0
   60.4160   33.7830   49.7650 N   0  0  0  0  0  0  0  0  0  0  0  0
   61.2490   33.7810   48.6990 C   0  0  0  0  0  0  0  0  0  0  0  0
   59.3898   35.7014   45.9178 H   0  0  0  0  0  0  0  0  0  0  0  0
   60.2290   35.3803   44.3624 H   0  0  0  0  0  0  0  0  0  0  0  0
   58.5334   35.9735   44.3624 H   0  0  0  0  0  0  0  0  0  0  0  0
   58.1509   33.9366   42.8413 H   0  0  0  0  0  0  0  0  0  0  0  0
   57.3219   31.5943   42.8539 H   0  0  0  0  0  0  0  0  0  0  0  0
   60.0267   27.9639   46.6712 H   0  0  0  0  0  0  0  0  0  0  0  0
   59.6471   25.9024   48.0104 H   0  0  0  0  0  0  0  0  0  0  0  0
   55.8236   25.4652   46.0795 H   0  0  0  0  0  0  0  0  0  0  0  0
   56.2320   27.4820   44.7950 H   0  0  0  0  0  0  0  0  0  0  0  0
   58.4518   31.2614   47.0149 H   0  0  0  0  0  0  0  0  0  0  0  0
   61.1570   33.7830   45.3350 H   0  0  0  0  0  0  0  0  0  0  0  0
   63.5501   33.7735   45.6641 H   0  0  0  0  0  0  0  0  0  0  0  0
   64.2088   33.7687   50.2737 H   0  0  0  0  0  0  0  0  0  0  0  0
   60.2121   32.5894   53.9216 H   0  0  0  0  0  0  0  0  0  0  0  0
   61.1294   33.9826   54.0776 H   0  0  0  0  0  0  0  0  0  0  0  0
   58.2324   33.9262   54.5612 H   0  0  0  0  0  0  0  0  0  0  0  0
   58.8134   35.4011   54.1506 H   0  0  0  0  0  0  0  0  0  0  0  0
   58.0756   32.9776   52.2940 H   0  0  0  0  0  0  0  0  0  0  0  0
   58.0217   34.5507   51.7097 H   0  0  0  0  0  0  0  0  0  0  0  0
  1  2  1  0
  2  3  2  0
  3  4  1  0
  4  5  2  0
  5  6  1  0
  6  7  2  0
  6  8  1  0
  8  9  2  0
  9 10  1  0
 10 11  2  0
 11 12  1  0
 12 13  1  0
 12 14  2  0
 14 15  1  0
  5 16  1  0
 16 17  2  0
 17 18  1  0
 18 19  2  0
 19 20  1  0
 20 21  1  0
 21 22  2  0
 22 23  1  0
 23 24  2  0
 24 25  1  0
 25 26  2  0
 26 27  1  0
 27 28  1  0
 28 29  1  0
 29 30  1  0
 26 31  1  0
 31 32  2  0
 17  2  1  0
 32 19  1  0
 15  9  1  0
 32 23  1  0
 30 27  1  0
  1 33  1  0
  1 34  1  0
  1 35  1  0
  3 36  1  0
  4 37  1  0
 10 38  1  0
 11 39  1  0
 14 40  1  0
 15 41  1  0
 16 42  1  0
 20 43  1  0
 21 44  1  0
 24 45  1  0
 28 46  1  0
 28 47  1  0
 29 48  1  0
 29 49  1  0
 30 50  1  0
 30 51  1  0
M  END
>  <smiles>  (4) 
Cc1ccc(C(=O)N=c2ccc(F)c[nH]2)cc1N=c1[nH]cnc2cnc(N3CCC3)nc12

>  <score_type>  (4) 
oracle

>  <origin>  (4) 
adg

>  <m_score__min__energy>  (4) 
-8.8200000000000003

>  <m_primary>  (4) 
energy

$$$$
4:0
     RDKit          3D

 56 59  0  0  0  0  0  0  0  0999 V2000
   58.3140   19.9370   45.3000 H   0  0  0  0  0  0  0  0  0  0  0  0
   57.5460   20.3410   45.7830 O   0  0  0  0  0  0  0  0  0  0  0  0
   56.3910   19.7080   45.2980 C   0  0  0  0  0  0  0  0  0  0  0  0
   56.4220   18.6431   45.5719 H   0  0  0  0  0  0  0  0  0  0  0  0
   56.3603   19.8227   44.2044 H   0  0  0  0  0  0  0  0  0  0  0  0
   55.1300   20.3420   45.8920 C   0  0  0  0  0  0  0  0  0  0  0  0
   55.0094   19.9957   46.9291 H   0  0  0  0  0  0  0  0  0  0  0  0
   54.2682   20.0411   45.2782 H   0  0  0  0  0  0  0  0  0  0  0  0
   55.2170   21.8450   45.8840 C   0  0  0  0  0  0  0  0  0  0  0  0
   55.0470   22.5790   47.0660 C   0  0  0  0  0  0  0  0  0  0  0  0
   54.8255   22.0570   48.0086 H   0  0  0  0  0  0  0  0  0  0  0  0
   55.1550   23.9340   47.0510 N   0  0  0  0  0  0  0  0  0  0  0  0
   55.4260   24.6320   45.9160 C   0  0  0  0  0  0  0  0  0  0  0  0
   55.5220   25.9310   45.9960 N   0  0  0  0  0  0  0  0  0  0  0  0
   56.7030   26.7310   45.8460 C   0  0  0  0  0  0  0  0  0  0  0  0
   57.0730   27.4610   46.8030 O   0  0  0  0  0  0  0  0  0  0  0  0
   57.4350   26.8130   44.5350 C   0  0  0  0  0  0  0  0  0  0  0  0
   58.3417   26.1922   44.5855 H   0  0  0  0  0  0  0  0  0  0  0  0
   56.7761   26.4502   43.7324 H   0  0  0  0  0  0  0  0  0  0  0  0
   57.8120   28.1960   44.2540 N   0  0  0  0  0  0  0  0  0  0  0  0
   58.7390   28.3680   43.8050 H   0  0  0  0  0  0  0  0  0  0  0  0
   56.9130   29.2950   44.4850 C   0  0  0  0  0  0  0  0  0  0  0  0
   55.7120   29.0630   44.7950 O   0  0  0  0  0  0  0  0  0  0  0  0
   57.3690   30.6990   44.3450 C   0  0  0  0  0  0  0  0  0  0  0  0
   57.3810   31.3110   43.0800 C   0  0  0  0  0  0  0  0  0  0  0  0
   57.0588   30.7423   42.1952 H   0  0  0  0  0  0  0  0  0  0  0  0
   57.7990   32.6360   42.9380 C   0  0  0  0  0  0  0  0  0  0  0  0
   57.8043   33.1056   41.9433 H   0  0  0  0  0  0  0  0  0  0  0  0
   58.2100   33.3660   44.0540 C   0  0  0  0  0  0  0  0  0  0  0  0
   58.5345   34.4104   43.9362 H   0  0  0  0  0  0  0  0  0  0  0  0
   58.2110   32.7740   45.3240 C   0  0  0  0  0  0  0  0  0  0  0  0
   58.6200   33.5470   46.5150 C   0  0  0  0  0  0  0  0  0  0  0  0
   57.7580   34.2470   47.1120 O   0  0  0  0  0  0  0  0  0  0  0  0
   59.9680   33.5040   47.0140 N   0  0  0  0  0  0  0  0  0  0  0  0
   60.4610   34.4210   48.0460 C   0  0  0  0  0  0  0  0  0  0  0  0
   60.5914   35.4360   47.6425 H   0  0  0  0  0  0  0  0  0  0  0  0
   59.7697   34.5278   48.8950 H   0  0  0  0  0  0  0  0  0  0  0  0
   61.7650   33.8290   48.4280 C   0  0  0  0  0  0  0  0  0  0  0  0
   62.6750   34.3000   49.3770 C   0  0  0  0  0  0  0  0  0  0  0  0
   62.4714   35.2206   49.9436 H   0  0  0  0  0  0  0  0  0  0  0  0
   63.8560   33.5710   49.5910 C   0  0  0  0  0  0  0  0  0  0  0  0
   64.5890   33.9215   50.3325 H   0  0  0  0  0  0  0  0  0  0  0  0
   64.1060   32.3940   48.8610 C   0  0  0  0  0  0  0  0  0  0  0  0
   65.0336   31.8287   49.0343 H   0  0  0  0  0  0  0  0  0  0  0  0
   63.1760   31.9380   47.9120 C   0  0  0  0  0  0  0  0  0  0  0  0
   63.3632   31.0189   47.3374 H   0  0  0  0  0  0  0  0  0  0  0  0
   62.0090   32.6780   47.7150 C   0  0  0  0  0  0  0  0  0  0  0  0
   60.8980   32.3940   46.7760 C   0  0  0  0  0  0  0  0  0  0  0  0
   61.2521   32.3921   45.7346 H   0  0  0  0  0  0  0  0  0  0  0  0
   60.4409   31.4060   46.9337 H   0  0  0  0  0  0  0  0  0  0  0  0
   57.7700   31.4480   45.4680 C   0  0  0  0  0  0  0  0  0  0  0  0
   57.7376   30.9903   46.4677 H   0  0  0  0  0  0  0  0  0  0  0  0
   55.6380   23.9270   44.7140 C   0  0  0  0  0  0  0  0  0  0  0  0
   55.8873   24.4690   43.7898 H   0  0  0  0  0  0  0  0  0  0  0  0
   55.5290   22.5350   44.7060 C   0  0  0  0  0  0  0  0  0  0  0  0
   55.6888   21.9783   43.7709 H   0  0  0  0  0  0  0  0  0  0  0  0
  1  2  1  0
  2  3  1  0
  3  4  1  0
  3  5  1  0
  3  6  1  0
  6  7  1  0
  6  8  1  0
  6  9  1  0
  9 10  2  0
 10 11  1  0
 10 12  1  0
 12 13  1  0
 13 14  2  0
 14 15  1  0
 15 16  2  0
 15 17  1  0
 17 18  1  0
 17 19  1  0
 17 20  1  0
 20 21  1  0
 20 22  1  0
 22 23  2  0
 22 24  1  0
 24 25  2  0
 25 26  1  0
 25 27  1  0
 27 28  1  0
 27 29  2  0
 29 30  1  0
 29 31  1  0
 31 32  1  0
 32 33  2  0
 32 34  1  0
 34 35  1  0
 35 36  1  0
 35 37  1  0
 35 38  1  0
 38 39  2  0
 39 40  1  0
 39 41  1  0
 41 42  1  0
 41 43  2  0
 43 44  1  0
 43 45  1  0
 45 46  1  0
 45 47  2  0
 47 48  1  0
 48 49  1  0
 48 50  1  0
 31 51  2  0
 51 52  1  0
 13 53  1  0
 53 54  1  0
 53 55  2  0
 55 56  1  0
 55  9  1  0
 51 24  1  0
 48 34  1  0
 47 38  1  0
M  CHG  1  12  -1
M  END
>  <UniqueID>  (5) 
2

>  <SMILES>  (5) 
O=C(CNC(=O)c1cccc(C(=O)N2Cc3ccccc3C2)c1)/N=c1\ccc(CCO)c[n-]1

>  <Energy>  (5) 
81.51930971171964

>  <Genealogy>  (5) 
O=C(CNC(=O)c1cccc(C(=O)N2Cc3ccccc3C2)c1)N=c1ccc(CCO)c[n-]1 (protonated)
O=C(CNC(=O)c1cccc(C(=O)N2Cc3ccccc3C2)c1)/N=c1\ccc(CCO)c[n-]1 (cis-trans isomerization)
O=C(CNC(=O)c1cccc(C(=O)N2Cc3ccccc3C2)c1)/N=c1\ccc(CCO)c[n-]1 (3D coordinates assigned)
O=C(CNC(=O)c1cccc(C(=O)N2Cc3ccccc3C2)c1)/N=c1\ccc(CCO)c[n-]1 (nonaromatic ring conformer: 81.51930971171964 kcal/mol)

>  <smiles>  (5) 
O=C(CNC(=O)c1cccc(C(=O)N2Cc3ccccc3C2)c1)N=c1ccc(CCO)c[nH]1

>  <score_type>  (5) 
oracle

>  <origin>  (5) 
adg

>  <m_score__min__energy>  (5) 
-13.18

>  <m_primary>  (5) 
energy

$$$$
5:0
     RDKit          3D

 36 38  0  0  0  0  0  0  0  0999 V2000
   59.8590   34.9120   48.4810 O   0  0  0  0  0  0  0  0  0  0  0  0
   59.2440   34.1950   47.4620 C   0  0  0  0  0  0  0  0  0  0  0  0
   58.3300   33.1860   47.7010 C   0  0  0  0  0  0  0  0  0  0  0  0
   57.7640   32.5210   46.6350 C   0  0  0  0  0  0  0  0  0  0  0  0
   58.0750   32.8230   45.3130 C   0  0  0  0  0  0  0  0  0  0  0  0
   57.4230   32.0580   44.2440 C   0  0  0  0  0  0  0  0  0  0  0  0
   57.1800   30.6290   44.5830 C   0  0  0  0  0  0  0  0  0  0  0  0
   55.9080   30.1210   44.5110 N   0  0  0  0  0  0  0  0  0  0  0  0
   55.9700   28.8510   44.8480 N   0  0  0  0  0  0  0  0  0  0  0  0
   57.2560   28.5630   45.1260 C   0  0  0  0  0  0  0  0  0  0  0  0
   57.7200   27.0560   45.5750 S   0  0  0  0  0  0  0  0  0  0  0  0
   58.0310   29.6700   44.9660 N   0  0  0  0  0  0  0  0  0  0  0  0
   59.4470   29.7440   45.1700 C   0  0  0  0  0  0  0  0  0  0  0  0
   59.9010   30.0480   46.5270 C   0  0  0  0  0  0  0  0  0  0  0  0
   59.2980   29.5830   47.6820 C   0  0  0  0  0  0  0  0  0  0  0  0
   59.7470   29.8840   48.9500 C   0  0  0  0  0  0  0  0  0  0  0  0
   60.8500   30.6870   49.1430 C   0  0  0  0  0  0  0  0  0  0  0  0
   61.4720   31.1660   48.0100 C   0  0  0  0  0  0  0  0  0  0  0  0
   61.0210   30.8640   46.7350 C   0  0  0  0  0  0  0  0  0  0  0  0
   58.9890   33.8340   45.1220 C   0  0  0  0  0  0  0  0  0  0  0  0
   59.5700   34.5140   46.1770 C   0  0  0  0  0  0  0  0  0  0  0  0
   59.2930   35.5880   48.9800 H   0  0  0  0  0  0  0  0  0  0  0  0
   58.0571   32.9165   48.7320 H   0  0  0  0  0  0  0  0  0  0  0  0
   57.0378   31.7199   46.8372 H   0  0  0  0  0  0  0  0  0  0  0  0
   56.4546   32.5302   44.0220 H   0  0  0  0  0  0  0  0  0  0  0  0
   58.1071   32.0686   43.3827 H   0  0  0  0  0  0  0  0  0  0  0  0
   55.1450   28.1940   44.8860 H   0  0  0  0  0  0  0  0  0  0  0  0
   59.8759   28.7719   44.8851 H   0  0  0  0  0  0  0  0  0  0  0  0
   59.7832   30.5926   44.5562 H   0  0  0  0  0  0  0  0  0  0  0  0
   58.4123   28.9382   47.5831 H   0  0  0  0  0  0  0  0  0  0  0  0
   59.2158   29.4762   49.8226 H   0  0  0  0  0  0  0  0  0  0  0  0
   61.2158   30.9334   50.1507 H   0  0  0  0  0  0  0  0  0  0  0  0
   62.3567   31.8101   48.1218 H   0  0  0  0  0  0  0  0  0  0  0  0
   61.5550   31.2747   45.8654 H   0  0  0  0  0  0  0  0  0  0  0  0
   59.2672   34.1109   44.0944 H   0  0  0  0  0  0  0  0  0  0  0  0
   60.2975   35.3149   45.9787 H   0  0  0  0  0  0  0  0  0  0  0  0
  1  2  1  0
  2  3  2  0
  3  4  1  0
  4  5  2  0
  5  6  1  0
  6  7  1  0
  7  8  2  0
  8  9  1  0
  9 10  1  0
 10 11  2  0
 10 12  1  0
 12 13  1  0
 13 14  1  0
 14 15  2  0
 15 16  1  0
 16 17  2  0
 17 18  1  0
 18 19  2  0
  5 20  1  0
 20 21  2  0
 21  2  1  0
 12  7  1  0
 19 14  1  0
  1 22  1  0
  3 23  1  0
  4 24  1  0
  6 25  1  0
  6 26  1  0
  9 27  1  0
 13 28  1  0
 13 29  1  0
 15 30  1  0
 16 31  1  0
 17 32  1  0
 18 33  1  0
 19 34  1  0
 20 35  1  0
 21 36  1  0
M  END
>  <smiles>  (6) 
Oc1ccc(Cc2n[nH]c(=S)n2Cc2ccccc2)cc1

>  <score_type>  (6) 
oracle

>  <origin>  (6) 
adg

>  <m_score__min__energy>  (6) 
-7.6900000000000004

>  <m_primary>  (6) 
energy

$$$$
6:0
     RDKit          3D

 53 55  0  0  0  0  0  0  0  0999 V2000
   55.7270   20.3090   44.8680 C   0  0  0  0  0  0  0  0  0  0  0  0
   55.9570   21.1150   43.6790 N   0  0  0  0  0  0  0  0  0  0  0  0
   57.0720   22.0020   43.5500 C   0  0  0  0  0  0  0  0  0  0  0  0
   58.2510   21.5580   43.6020 O   0  0  0  0  0  0  0  0  0  0  0  0
   56.8340   23.4720   43.3880 C   0  0  0  0  0  0  0  0  0  0  0  0
   57.2140   24.2690   44.6480 C   0  0  0  0  0  0  0  0  0  0  0  0
   56.2360   24.0500   45.8220 C   0  0  1  0  0  0  0  0  0  0  0  0
   56.9350   24.1900   47.0870 N   0  0  0  0  0  0  0  0  0  0  0  0
   57.7620   25.3080   47.4160 C   0  0  0  0  0  0  0  0  0  0  0  0
   58.4390   25.2590   48.4760 O   0  0  0  0  0  0  0  0  0  0  0  0
   57.8000   26.5410   46.5860 C   0  0  0  0  0  0  0  0  0  0  0  0
   59.0330   27.2020   46.4560 C   0  0  0  0  0  0  0  0  0  0  0  0
   59.1630   28.3410   45.6580 C   0  0  0  0  0  0  0  0  0  0  0  0
   60.7430   29.1930   45.6070 S   0  0  0  0  0  0  0  0  0  0  0  0
   60.2330   30.3450   46.8750 C   0  0  0  0  0  0  0  0  0  0  0  0
   59.5460   29.8990   47.9590 N   0  0  0  0  0  0  0  0  0  0  0  0
   59.1770   30.7490   48.9540 C   0  0  0  0  0  0  0  0  0  0  0  0
   58.4480   30.2220   50.1490 C   0  0  0  0  0  0  0  0  0  0  0  0
   59.5200   32.1010   48.8710 C   0  0  0  0  0  0  0  0  0  0  0  0
   60.2300   32.5440   47.7490 C   0  0  0  0  0  0  0  0  0  0  0  0
   60.6260   33.9800   47.6210 C   0  0  0  0  0  0  0  0  0  0  0  0
   60.5700   31.6570   46.7750 N   0  0  0  0  0  0  0  0  0  0  0  0
   58.0610   28.8290   44.9430 C   0  0  0  0  0  0  0  0  0  0  0  0
   58.2220   30.0030   44.1330 N   0  0  0  0  0  0  0  0  0  0  0  0
   57.4610   31.5370   44.4060 S   0  0  0  0  0  0  0  0  0  0  0  0
   57.8350   32.6470   43.0640 C   0  0  0  0  0  0  0  0  0  0  0  0
   55.9740   31.3350   44.4590 O   0  0  0  0  0  0  0  0  0  0  0  0
   57.9210   32.1170   45.7140 O   0  0  0  0  0  0  0  0  0  0  0  0
   56.8300   28.1640   45.0480 C   0  0  0  0  0  0  0  0  0  0  0  0
   56.6760   27.0460   45.8770 C   0  0  0  0  0  0  0  0  0  0  0  0
   55.3790   26.4290   45.9080 N   0  0  0  0  0  0  0  0  0  0  0  0
   55.1080   25.0290   45.8310 C   0  0  0  0  0  0  0  0  0  0  0  0
   53.9110   24.6440   45.7480 O   0  0  0  0  0  0  0  0  0  0  0  0
   55.9016   20.9210   45.7652 H   0  0  0  0  0  0  0  0  0  0  0  0
   54.6891   19.9447   44.8689 H   0  0  0  0  0  0  0  0  0  0  0  0
   56.4164   19.4518   44.8689 H   0  0  0  0  0  0  0  0  0  0  0  0
   57.4374   23.8368   42.5437 H   0  0  0  0  0  0  0  0  0  0  0  0
   55.7590   23.6204   43.2083 H   0  0  0  0  0  0  0  0  0  0  0  0
   58.2198   23.9591   44.9680 H   0  0  0  0  0  0  0  0  0  0  0  0
   57.1757   25.3363   44.3845 H   0  0  0  0  0  0  0  0  0  0  0  0
   55.8282   23.0370   45.6898 H   0  0  0  0  0  0  0  0  0  0  0  0
   59.9121   26.8154   46.9925 H   0  0  0  0  0  0  0  0  0  0  0  0
   58.9408   30.5782   51.0657 H   0  0  0  0  0  0  0  0  0  0  0  0
   57.4074   30.5780   50.1301 H   0  0  0  0  0  0  0  0  0  0  0  0
   58.4597   29.1222   50.1301 H   0  0  0  0  0  0  0  0  0  0  0  0
   59.2381   32.8022   49.6703 H   0  0  0  0  0  0  0  0  0  0  0  0
   60.7467   34.4178   48.6229 H   0  0  0  0  0  0  0  0  0  0  0  0
   61.5771   34.0506   47.0730 H   0  0  0  0  0  0  0  0  0  0  0  0
   59.8455   34.5281   47.0730 H   0  0  0  0  0  0  0  0  0  0  0  0
   58.1615   33.6159   43.4697 H   0  0  0  0  0  0  0  0  0  0  0  0
   58.6384   32.2185   42.4468 H   0  0  0  0  0  0  0  0  0  0  0  0
   56.9361   32.7920   42.4468 H   0  0  0  0  0  0  0  0  0  0  0  0
   55.9692   28.5279   44.4679 H   0  0  0  0  0  0  0  0  0  0  0  0
  1  2  1  0
  2  3  1  0
  3  4  2  0
  3  5  1  0
  5  6  1  0
  6  7  1  0
  7  8  1  0
  8  9  1  0
  9 10  2  0
  9 11  1  0
 11 12  2  0
 12 13  1  0
 13 14  1  0
 14 15  1  0
 15 16  2  0
 16 17  1  0
 17 18  1  0
 17 19  2  0
 19 20  1  0
 20 21  1  0
 20 22  2  0
 13 23  2  0
 23 24  1  0
 24 25  1  0
 25 26  1  0
 25 27  2  0
 25 28  2  0
 23 29  1  0
 29 30  2  0
 30 31  1  0
 31 32  1  0
 32 33  2  0
 32  7  1  0
 30 11  1  0
 22 15  1  0
  1 34  1  0
  1 35  1  0
  1 36  1  0
  5 37  1  0
  5 38  1  0
  6 39  1  0
  6 40  1  0
  7 41  1  6
 12 42  1  0
 18 43  1  0
 18 44  1  0
 18 45  1  0
 19 46  1  0
 21 47  1  0
 21 48  1  0
 21 49  1  0
 26 50  1  0
 26 51  1  0
 26 52  1  0
 29 53  1  0
M  CHG  4   2  -1   8  -1  24  -1  31  -1
M  END
>  <UniqueID>  (7) 
3

>  <SMILES>  (7) 
C[N-]C(=O)CC[C@H]1[N-]C(=O)c2cc(Sc3nc(C)cc(C)n3)c([N-]S(C)(=O)=O)cc2[N-]C1=O

>  <Energy>  (7) 
49.80243082493035

>  <Genealogy>  (7) 
C[N-]C(=O)CCC1[N-]C(=O)c2cc(Sc3nc(C)cc(C)n3)c([N-]S(C)(=O)=O)cc2[N-]C1=O (protonated)
C[N-]C(=O)CC[C@H]1[N-]C(=O)c2cc(Sc3nc(C)cc(C)n3)c([N-]S(C)(=O)=O)cc2[N-]C1=O (chirality)
C[N-]C(=O)CC[C@H]1[N-]C(=O)c2cc(Sc3nc(C)cc(C)n3)c([N-]S(C)(=O)=O)cc2[N-]C1=O (3D coordinates assigned)
C[N-]C(=O)CC[C@H]1[N-]C(=O)c2cc(Sc3nc(C)cc(C)n3)c([N-]S(C)(=O)=O)cc2[N-]C1=O (nonaromatic ring conformer: 49.80243082493035 kcal/mol)

>  <smiles>  (7) 
CNC(=O)CCC1NC(=O)c2cc(Sc3nc(C)cc(C)n3)c(NS(C)(=O)=O)cc2NC1=O

>  <score_type>  (7) 
oracle

>  <origin>  (7) 
adg

>  <m_score__min__energy>  (7) 
-13.17

>  <m_primary>  (7) 
energy

$$$$
7:0
     RDKit          3D

 53 55  0  0  0  0  0  0  0  0999 V2000
   59.3780   35.1210   46.4550 C   0  0  0  0  0  0  0  0  0  0  0  0
   59.2880   34.8640   44.9540 C   0  0  0  0  0  0  0  0  0  0  0  0
   58.5850   33.5630   44.6770 C   0  0  0  0  0  0  0  0  0  0  0  0
   58.4840   33.0780   43.3640 C   0  0  0  0  0  0  0  0  0  0  0  0
   57.8590   31.8530   43.1100 C   0  0  0  0  0  0  0  0  0  0  0  0
   57.3370   31.0960   44.1680 C   0  0  0  0  0  0  0  0  0  0  0  0
   56.5290   29.5590   43.8650 S   0  0  0  0  0  0  0  0  0  0  0  0
   55.9210   29.5910   42.4920 O   0  0  0  0  0  0  0  0  0  0  0  0
   55.4360   29.3340   44.8730 O   0  0  0  0  0  0  0  0  0  0  0  0
   57.6840   28.2640   43.9550 N   0  0  0  0  0  0  0  0  0  0  0  0
   57.8300   27.8270   45.3450 C   0  0  0  0  0  0  0  0  0  0  0  0
   58.7830   28.7390   46.0630 C   0  0  0  0  0  0  0  0  0  0  0  0
   58.5380   29.1090   47.3950 C   0  0  0  0  0  0  0  0  0  0  0  0
   59.4050   29.9840   48.0540 C   0  0  0  0  0  0  0  0  0  0  0  0
   60.5290   30.5090   47.3920 C   0  0  0  0  0  0  0  0  0  0  0  0
   61.4140   31.4230   48.0680 N   0  0  0  0  0  0  0  0  0  0  0  0
   62.8680   31.2560   47.9610 C   0  0  0  0  0  0  0  0  0  0  0  0
   63.5940   32.5610   48.3320 C   0  0  0  0  0  0  0  0  0  0  0  0
   62.8690   33.7520   47.8380 N   0  0  0  0  0  0  0  0  0  0  0  0
   62.8910   33.8360   46.3670 C   0  0  0  0  0  0  0  0  0  0  0  0
   61.4890   33.8690   48.3780 C   0  0  0  0  0  0  0  0  0  0  0  0
   60.8920   32.5360   48.8660 C   0  0  0  0  0  0  0  0  0  0  0  0
   60.7550   30.1580   46.0510 C   0  0  0  0  0  0  0  0  0  0  0  0
   59.8890   29.2820   45.3910 C   0  0  0  0  0  0  0  0  0  0  0  0
   57.4440   31.5730   45.4800 C   0  0  0  0  0  0  0  0  0  0  0  0
   58.0710   32.7970   45.7350 C   0  0  0  0  0  0  0  0  0  0  0  0
   59.0624   34.2197   47.0009 H   0  0  0  0  0  0  0  0  0  0  0  0
   60.4159   35.3675   46.7232 H   0  0  0  0  0  0  0  0  0  0  0  0
   58.7206   35.9612   46.7232 H   0  0  0  0  0  0  0  0  0  0  0  0
   58.7287   35.6843   44.4804 H   0  0  0  0  0  0  0  0  0  0  0  0
   60.3071   34.8090   44.5435 H   0  0  0  0  0  0  0  0  0  0  0  0
   58.8984   33.6642   42.5306 H   0  0  0  0  0  0  0  0  0  0  0  0
   57.7768   31.4826   42.0775 H   0  0  0  0  0  0  0  0  0  0  0  0
   57.2890   27.4680   43.4020 H   0  0  0  0  0  0  0  0  0  0  0  0
   56.8496   27.8568   45.8429 H   0  0  0  0  0  0  0  0  0  0  0  0
   58.2226   26.7996   45.3654 H   0  0  0  0  0  0  0  0  0  0  0  0
   57.6596   28.7082   47.9220 H   0  0  0  0  0  0  0  0  0  0  0  0
   59.2068   30.2645   49.0990 H   0  0  0  0  0  0  0  0  0  0  0  0
   63.1909   30.4564   48.6440 H   0  0  0  0  0  0  0  0  0  0  0  0
   63.1185   30.9949   46.9222 H   0  0  0  0  0  0  0  0  0  0  0  0
   63.6770   32.6234   49.4271 H   0  0  0  0  0  0  0  0  0  0  0  0
   64.5878   32.5455   47.8606 H   0  0  0  0  0  0  0  0  0  0  0  0
   63.1588   34.8584   46.0621 H   0  0  0  0  0  0  0  0  0  0  0  0
   63.6342   33.1286   45.9704 H   0  0  0  0  0  0  0  0  0  0  0  0
   61.8965   33.5837   45.9704 H   0  0  0  0  0  0  0  0  0  0  0  0
   61.5074   34.5704   49.2251 H   0  0  0  0  0  0  0  0  0  0  0  0
   60.8527   34.2191   47.5518 H   0  0  0  0  0  0  0  0  0  0  0  0
   61.1604   32.3829   49.9217 H   0  0  0  0  0  0  0  0  0  0  0  0
   59.7980   32.5725   48.7571 H   0  0  0  0  0  0  0  0  0  0  0  0
   61.6205   30.5759   45.5160 H   0  0  0  0  0  0  0  0  0  0  0  0
   60.0751   29.0168   44.3398 H   0  0  0  0  0  0  0  0  0  0  0  0
   57.0336   30.9832   46.3129 H   0  0  0  0  0  0  0  0  0  0  0  0
   58.1617   33.1609   46.7691 H   0  0  0  0  0  0  0  0  0  0  0  0
  1  2  1  0
  2  3  1  0
  3  4  2  0
  4  5  1  0
  5  6  2  0
  6  7  1  0
  7  8  2  0
  7  9  2  0
  7 10  1  0
 10 11  1  0
 11 12  1  0
 12 13  2  0
 13 14  1  0
 14 15  2  0
 15 16  1  0
 16 17  1  0
 17 18  1  0
 18 19  1  0
 19 20  1  0
 19 21  1  0
 21 22  1  0
 15 23  1  0
 23 24  2  0
  6 25  1  0
 25 26  2  0
 26  3  1  0
 24 12  1  0
 22 16  1  0
  1 27  1  0
  1 28  1  0
  1 29  1  0
  2 30  1  0
  2 31  1  0
  4 32  1  0
  5 33  1  0
 10 34  1  0
 11 35  1  0
 11 36  1  0
 13 37  1  0
 14 38  1  0
 17 39  1  0
 17 40  1  0
 18 41  1  0
 18 42  1  0
 20 43  1  0
 20 44  1  0
 20 45  1  0
 21 46  1  0
 21 47  1  0
 22 48  1  0
 22 49  1  0
 23 50  1  0
 24 51  1  0
 25 52  1  0
 26 53  1  0
M  END
>  <UniqueID>  (8) 
4

>  <SMILES>  (8) 
CCc1ccc(S(=O)(=O)NCc2ccc(N3CCN(C)CC3)cc2)cc1

>  <Energy>  (8) 
58.651721837751744

>  <Genealogy>  (8) 
CCc1ccc(S(=O)(=O)NCc2ccc(N3CCN(C)CC3)cc2)cc1 (3D coordinates assigned)
CCc1ccc(S(=O)(=O)NCc2ccc(N3CCN(C)CC3)cc2)cc1 (nonaromatic ring conformer: 58.651721837751744 kcal/mol)

>  <smiles>  (8) 
CCc1ccc(S(=O)(=O)NCc2ccc(N3CCN(C)CC3)cc2)cc1

>  <score_type>  (8) 
oracle

>  <origin>  (8) 
adg

>  <m_score__min__energy>  (8) 
-9.0500000000000007

>  <m_primary>  (8) 
energy

$$$$
8:0
     RDKit          3D

 41 43  0  0  0  0  0  0  0  0999 V2000
   58.7690   26.8920   46.9290 O   0  0  0  0  0  0  0  0  0  0  0  0
   57.8030   27.2220   46.1920 C   0  0  0  0  0  0  0  0  0  0  0  0
   57.8240   28.5090   45.5620 N   0  0  0  0  0  0  0  0  0  0  0  0
   56.6370   29.2640   45.1760 C   0  0  0  0  0  0  0  0  0  0  0  0
   57.0340   30.3720   44.2350 C   0  0  0  0  0  0  0  0  0  0  0  0
   56.6630   30.2740   42.8820 C   0  0  0  0  0  0  0  0  0  0  0  0
   57.0270   31.2670   41.9710 C   0  0  0  0  0  0  0  0  0  0  0  0
   57.7720   32.3650   42.3930 C   0  0  0  0  0  0  0  0  0  0  0  0
   58.1650   32.4720   43.7280 C   0  0  0  0  0  0  0  0  0  0  0  0
   57.8180   31.4780   44.6610 C   0  0  0  0  0  0  0  0  0  0  0  0
   58.2530   31.6460   46.1000 C   0  0  0  0  0  0  0  0  0  0  0  0
   59.1380   32.8200   46.2380 N   0  0  0  0  0  0  0  0  0  0  0  0
   60.1060   32.6750   47.3300 C   0  0  0  0  0  0  0  0  0  0  0  0
   60.4540   34.0810   47.7950 C   0  0  0  0  0  0  0  0  0  0  0  0
   59.3370   34.9690   47.2710 C   0  0  0  0  0  0  0  0  0  0  0  0
   58.3780   34.0310   46.5560 C   0  0  0  0  0  0  0  0  0  0  0  0
   56.7060   26.2620   45.9860 C   0  0  0  0  0  0  0  0  0  0  0  0
   56.9600   24.9150   45.7000 C   0  0  0  0  0  0  0  0  0  0  0  0
   55.8890   24.0500   45.4870 C   0  0  0  0  0  0  0  0  0  0  0  0
   54.5890   24.5530   45.5440 C   0  0  0  0  0  0  0  0  0  0  0  0
   53.6030   23.7940   45.3560 O   0  0  0  0  0  0  0  0  0  0  0  0
   54.3930   25.8730   45.7990 N   0  0  0  0  0  0  0  0  0  0  0  0
   55.4190   26.7010   46.0060 N   0  0  0  0  0  0  0  0  0  0  0  0
   55.9230   28.5944   44.6743 H   0  0  0  0  0  0  0  0  0  0  0  0
   56.1666   29.6937   46.0727 H   0  0  0  0  0  0  0  0  0  0  0  0
   56.0804   29.4065   42.5384 H   0  0  0  0  0  0  0  0  0  0  0  0
   56.7245   31.1819   40.9169 H   0  0  0  0  0  0  0  0  0  0  0  0
   58.0511   33.1489   41.6736 H   0  0  0  0  0  0  0  0  0  0  0  0
   58.7524   33.3430   44.0541 H   0  0  0  0  0  0  0  0  0  0  0  0
   57.3643   31.7859   46.7330 H   0  0  0  0  0  0  0  0  0  0  0  0
   58.8032   30.7464   46.4131 H   0  0  0  0  0  0  0  0  0  0  0  0
   59.6618   32.1013   48.1568 H   0  0  0  0  0  0  0  0  0  0  0  0
   61.0039   32.1357   46.9939 H   0  0  0  0  0  0  0  0  0  0  0  0
   60.4960   34.1235   48.8934 H   0  0  0  0  0  0  0  0  0  0  0  0
   61.4388   34.4018   47.4245 H   0  0  0  0  0  0  0  0  0  0  0  0
   58.8285   35.4789   48.1025 H   0  0  0  0  0  0  0  0  0  0  0  0
   59.7181   35.7535   46.6007 H   0  0  0  0  0  0  0  0  0  0  0  0
   57.5285   33.7854   47.2103 H   0  0  0  0  0  0  0  0  0  0  0  0
   57.9726   34.4961   45.6453 H   0  0  0  0  0  0  0  0  0  0  0  0
   57.9940   24.5439   45.6441 H   0  0  0  0  0  0  0  0  0  0  0  0
   56.0659   22.9849   45.2767 H   0  0  0  0  0  0  0  0  0  0  0  0
  1  2  2  0
  2  3  1  0
  3  4  1  0
  4  5  1  0
  5  6  2  0
  6  7  1  0
  7  8  2  0
  8  9  1  0
  9 10  2  0
 10 11  1  0
 11 12  1  0
 12 13  1  0
 13 14  1  0
 14 15  1  0
 15 16  1  0
  2 17  1  0
 17 18  1  0
 18 19  2  0
 19 20  1  0
 20 21  2  0
 20 22  1  0
 22 23  1  0
 10  5  1  0
 16 12  1  0
 23 17  2  0
  4 24  1  0
  4 25  1  0
  6 26  1  0
  7 27  1  0
  8 28  1  0
  9 29  1  0
 11 30  1  0
 11 31  1  0
 13 32  1  0
 13 33  1  0
 14 34  1  0
 14 35  1  0
 15 36  1  0
 15 37  1  0
 16 38  1  0
 16 39  1  0
 18 40  1  0
 19 41  1  0
M  CHG  2   3  -1  22  -1
M  END
>  <UniqueID>  (9) 
5

>  <SMILES>  (9) 
O=C([N-]Cc1ccccc1CN1CCCC1)c1ccc(=O)[n-]n1

>  <Energy>  (9) 
48.96404585533351

>  <Genealogy>  (9) 
O=C([N-]Cc1ccccc1CN1CCCC1)c1ccc(=O)[n-]n1 (protonated)
O=C([N-]Cc1ccccc1CN1CCCC1)c1ccc(=O)[n-]n1 (3D coordinates assigned)
O=C([N-]Cc1ccccc1CN1CCCC1)c1ccc(=O)[n-]n1 (nonaromatic ring conformer: 48.96404585533351 kcal/mol)

>  <smiles>  (9) 
O=C(NCc1ccccc1CN1CCCC1)c1ccc(=O)[nH]n1

>  <score_type>  (9) 
oracle

>  <origin>  (9) 
adg

>  <m_score__min__energy>  (9) 
-11.84

>  <m_primary>  (9) 
energy

$$$$
9:0
     RDKit          3D

 38 39  0  0  0  0  0  0  0  0999 V2000
   57.0350   29.6910   52.0410 N   0  0  0  0  0  0  0  0  0  0  0  0
   58.3000   30.8400   51.7730 S   0  0  0  0  0  0  0  0  0  0  0  0
   59.5640   30.3190   52.3950 O   0  0  0  0  0  0  0  0  0  0  0  0
   57.9320   32.1510   52.4090 O   0  0  0  0  0  0  0  0  0  0  0  0
   58.5320   31.0730   50.0440 C   0  0  0  0  0  0  0  0  0  0  0  0
   58.8280   29.9770   49.2230 C   0  0  0  0  0  0  0  0  0  0  0  0
   59.0150   30.1570   47.8500 C   0  0  0  0  0  0  0  0  0  0  0  0
   58.8920   31.4330   47.2800 C   0  0  0  0  0  0  0  0  0  0  0  0
   59.0780   31.6150   45.7990 C   0  0  0  0  0  0  0  0  0  0  0  0
   57.8220   31.3820   45.0970 N   0  0  0  0  0  0  0  0  0  0  0  0
   57.6230   31.6690   43.7100 C   0  0  0  0  0  0  0  0  0  0  0  0
   58.1810   32.6680   43.1780 O   0  0  0  0  0  0  0  0  0  0  0  0
   56.6750   30.8210   42.9190 C   0  0  0  0  0  0  0  0  0  0  0  0
   56.6750   29.4350   43.3840 N   0  0  0  0  0  0  0  0  0  0  0  0
   56.2920   28.9850   44.6910 C   0  0  0  0  0  0  0  0  0  0  0  0
   55.2330   29.4350   45.2010 O   0  0  0  0  0  0  0  0  0  0  0  0
   57.0730   27.9800   45.4370 C   0  0  0  0  0  0  0  0  0  0  0  0
   58.4730   28.0790   45.4580 C   0  0  0  0  0  0  0  0  0  0  0  0
   59.2370   27.1200   46.1280 C   0  0  0  0  0  0  0  0  0  0  0  0
   58.6110   26.0630   46.7900 C   0  0  0  0  0  0  0  0  0  0  0  0
   57.2190   25.9470   46.7610 C   0  0  0  0  0  0  0  0  0  0  0  0
   56.4480   26.8880   46.0700 C   0  0  0  0  0  0  0  0  0  0  0  0
   55.0700   26.7140   45.9900 O   0  0  0  0  0  0  0  0  0  0  0  0
   58.6080   32.5310   48.1060 C   0  0  0  0  0  0  0  0  0  0  0  0
   58.4240   32.3510   49.4800 C   0  0  0  0  0  0  0  0  0  0  0  0
   56.6830   29.8450   53.0110 H   0  0  0  0  0  0  0  0  0  0  0  0
   58.9135   28.9715   49.6607 H   0  0  0  0  0  0  0  0  0  0  0  0
   59.2598   29.2942   47.2131 H   0  0  0  0  0  0  0  0  0  0  0  0
   59.4195   32.6415   45.6000 H   0  0  0  0  0  0  0  0  0  0  0  0
   59.8261   30.8920   45.4417 H   0  0  0  0  0  0  0  0  0  0  0  0
   55.6595   31.2314   43.0205 H   0  0  0  0  0  0  0  0  0  0  0  0
   57.0000   30.8309   41.8682 H   0  0  0  0  0  0  0  0  0  0  0  0
   58.9707   28.9150   44.9449 H   0  0  0  0  0  0  0  0  0  0  0  0
   60.3342   27.1984   46.1336 H   0  0  0  0  0  0  0  0  0  0  0  0
   59.2135   25.3212   47.3347 H   0  0  0  0  0  0  0  0  0  0  0  0
   56.7275   25.1129   47.2833 H   0  0  0  0  0  0  0  0  0  0  0  0
   58.5298   33.5381   47.6704 H   0  0  0  0  0  0  0  0  0  0  0  0
   58.1937   33.2153   50.1203 H   0  0  0  0  0  0  0  0  0  0  0  0
  1  2  1  0
  2  3  2  0
  2  4  2  0
  2  5  1  0
  5  6  2  0
  6  7  1  0
  7  8  2  0
  8  9  1  0
  9 10  1  0
 10 11  1  0
 11 12  2  0
 11 13  1  0
 13 14  1  0
 14 15  1  0
 15 16  2  0
 15 17  1  0
 17 18  2  0
 18 19  1  0
 19 20  2  0
 20 21  1  0
 21 22  2  0
 22 23  1  0
  8 24  1  0
 24 25  2  0
 25  5  1  0
 22 17  1  0
  1 26  1  0
  6 27  1  0
  7 28  1  0
  9 29  1  0
  9 30  1  0
 13 31  1  0
 13 32  1  0
 18 33  1  0
 19 34  1  0
 20 35  1  0
 21 36  1  0
 24 37  1  0
 25 38  1  0
M  CHG  4   1  -1  10  -1  14  -1  23  -1
M  END
>  <UniqueID>  (10) 
6

>  <SMILES>  (10) 
[NH-]S(=O)(=O)c1ccc(C[N-]C(=O)C[N-]C(=O)c2ccccc2[O-])cc1

>  <Energy>  (10) 
36.046049747374305

>  <Genealogy>  (10) 
[NH-]S(=O)(=O)c1ccc(C[N-]C(=O)C[N-]C(=O)c2ccccc2[O-])cc1 (protonated)
[NH-]S(=O)(=O)c1ccc(C[N-]C(=O)C[N-]C(=O)c2ccccc2[O-])cc1 (3D coordinates assigned)
[NH-]S(=O)(=O)c1ccc(C[N-]C(=O)C[N-]C(=O)c2ccccc2[O-])cc1 (optimized conformer: 36.046049747374305 kcal/mol)

>  <smiles>  (10) 
NS(=O)(=O)c1ccc(CNC(=O)CNC(=O)c2ccccc2O)cc1

>  <score_type>  (10) 
oracle

>  <origin>  (10) 
adg

>  <m_score__min__energy>  (10) 
-15.84

>  <m_primary>  (10) 
energy

$$$$
10:0
     RDKit          3D

 24 25  0  0  0  0  0  0  0  0999 V2000
   55.1490   28.1660   45.5200 H   0  0  0  0  0  0  0  0  0  0  0  0
   55.4970   28.8470   44.8580 O   0  0  0  0  0  0  0  0  0  0  0  0
   56.7030   29.5270   45.0320 C   0  0  0  0  0  0  0  0  0  0  0  0
   56.6720   30.8820   45.1290 N   0  0  0  0  0  0  0  0  0  0  0  0
   57.8130   31.6080   45.2350 C   0  0  0  0  0  0  0  0  0  0  0  0
   57.7520   32.8620   45.3250 O   0  0  0  0  0  0  0  0  0  0  0  0
   59.0180   30.9870   45.2330 N   0  0  0  0  0  0  0  0  0  0  0  0
   59.1100   29.6350   45.1490 C   0  0  0  0  0  0  0  0  0  0  0  0
   60.2470   29.0920   45.1550 O   0  0  0  0  0  0  0  0  0  0  0  0
   57.9440   28.8530   45.0780 C   0  0  0  0  0  0  0  0  0  0  0  0
   58.0490   27.3770   45.0260 C   0  0  0  0  0  0  0  0  0  0  0  0
   58.4535   26.9236   44.1090 H   0  0  0  0  0  0  0  0  0  0  0  0
   57.6840   26.5550   46.0220 C   0  0  0  0  0  0  0  0  0  0  0  0
   58.0693   26.7690   47.0298 H   0  0  0  0  0  0  0  0  0  0  0  0
   56.8000   25.3820   45.8580 C   0  0  0  0  0  0  0  0  0  0  0  0
   55.3950   25.4840   45.9070 C   0  0  0  0  0  0  0  0  0  0  0  0
   54.7770   26.7060   46.1400 O   0  0  0  0  0  0  0  0  0  0  0  0
   54.6280   24.3720   45.7520 N   0  0  0  0  0  0  0  0  0  0  0  0
   55.1740   23.1410   45.5710 C   0  0  0  0  0  0  0  0  0  0  0  0
   54.4260   22.1390   45.4250 O   0  0  0  0  0  0  0  0  0  0  0  0
   56.5620   22.9880   45.5550 C   0  0  0  0  0  0  0  0  0  0  0  0
   57.0100   21.9924   45.4208 H   0  0  0  0  0  0  0  0  0  0  0  0
   57.3740   24.1110   45.7110 C   0  0  0  0  0  0  0  0  0  0  0  0
   58.4683   23.9994   45.7188 H   0  0  0  0  0  0  0  0  0  0  0  0
  1  2  1  0
  2  3  1  0
  3  4  1  0
  4  5  1  0
  5  6  2  0
  5  7  1  0
  7  8  1  0
  8  9  2  0
  8 10  1  0
 10 11  1  0
 11 12  1  0
 11 13  2  0
 13 14  1  0
 13 15  1  0
 15 16  2  0
 16 17  1  0
 16 18  1  0
 18 19  1  0
 19 20  2  0
 19 21  1  0
 21 22  1  0
 21 23  2  0
 23 24  1  0
 10  3  2  0
 23 15  1  0
M  CHG  4   4  -1   7  -1  17  -1  18  -1
M  END
>  <UniqueID>  (11) 
7

>  <SMILES>  (11) 
O=c1ccc(/C=C\c2c(O)[n-]c(=O)[n-]c2=O)c([O-])[n-]1

>  <Energy>  (11) 
41.5404703004986

>  <Genealogy>  (11) 
O=c1ccc(C=Cc2c(O)[n-]c(=O)[n-]c2=O)c([O-])[n-]1 (protonated)
O=c1ccc(/C=C\c2c(O)[n-]c(=O)[n-]c2=O)c([O-])[n-]1 (cis-trans isomerization)
O=c1ccc(/C=C\c2c(O)[n-]c(=O)[n-]c2=O)c([O-])[n-]1 (3D coordinates assigned)
O=c1ccc(/C=C\c2c(O)[n-]c(=O)[n-]c2=O)c([O-])[n-]1 (optimized conformer: 41.5404703004986 kcal/mol)

>  <smiles>  (11) 
O=c1ccc(C=Cc2c(O)[nH]c(=O)[nH]c2=O)c(O)[nH]1

>  <score_type>  (11) 
oracle

>  <origin>  (11) 
adg

>  <m_score__min__energy>  (11) 
-16.109999999999999

>  <m_primary>  (11) 
energy

$$$$
11:0
     RDKit          3D

 61 64  0  0  0  0  0  0  0  0999 V2000
   57.0170   31.5840   42.5100 O   0  0  0  0  0  0  0  0  0  0  0  0
   56.5700   31.1450   43.6030 C   0  0  0  0  0  0  0  0  0  0  0  0
   56.1200   29.7130   43.6840 C   0  0  0  0  0  0  0  0  0  0  0  0
   57.0780   28.9350   44.4690 N   0  0  0  0  0  0  0  0  0  0  0  0
   56.8140   27.9580   45.3520 C   0  0  0  0  0  0  0  0  0  0  0  0
   55.5420   27.4610   45.6250 O   0  0  0  0  0  0  0  0  0  0  0  0
   57.9950   27.5420   45.9290 C   0  0  0  0  0  0  0  0  0  0  0  0
   58.1510   26.4810   46.9750 C   0  0  0  0  0  0  0  0  0  0  0  0
   59.2040   26.8690   47.9700 C   0  0  0  0  0  0  0  0  0  0  0  0
   59.6430   26.0060   48.7780 O   0  0  0  0  0  0  0  0  0  0  0  0
   59.7290   28.2060   47.9850 N   0  0  0  0  0  0  0  0  0  0  0  0
   60.7280   28.6230   48.9680 C   0  0  0  0  0  0  0  0  0  0  0  0
   60.0850   29.4240   50.0740 C   0  0  0  0  0  0  0  0  0  0  0  0
   58.7980   29.9590   49.8850 C   0  0  0  0  0  0  0  0  0  0  0  0
   58.1730   30.6790   50.9060 C   0  0  0  0  0  0  0  0  0  0  0  0
   58.8200   30.8670   52.1280 C   0  0  0  0  0  0  0  0  0  0  0  0
   60.0930   30.3310   52.3350 C   0  0  0  0  0  0  0  0  0  0  0  0
   60.7300   29.6060   51.3180 C   0  0  0  0  0  0  0  0  0  0  0  0
   62.3220   28.9280   51.6410 Cl  0  0  0  0  0  0  0  0  0  0  0  0
   59.0200   28.2640   45.4220 N   0  0  0  0  0  0  0  0  0  0  0  0
   58.4170   29.1000   44.5440 C   0  0  0  0  0  0  0  0  0  0  0  0
   59.0510   29.9540   43.8690 O   0  0  0  0  0  0  0  0  0  0  0  0
   56.6530   31.9780   44.7660 N   0  0  0  0  0  0  0  0  0  0  0  0
   57.8080   32.7110   45.1930 C   0  0  0  0  0  0  0  0  0  0  0  0
   57.8810   34.0820   44.9220 C   0  0  0  0  0  0  0  0  0  0  0  0
   58.9870   34.8240   45.3420 C   0  0  0  0  0  0  0  0  0  0  0  0
   60.0190   34.2040   46.0520 C   0  0  0  0  0  0  0  0  0  0  0  0
   59.9430   32.8380   46.3540 C   0  0  0  0  0  0  0  0  0  0  0  0
   61.2140   32.0550   47.2900 S   0  0  0  0  0  0  0  0  0  0  0  0
   61.1010   30.5670   47.1120 O   0  0  0  0  0  0  0  0  0  0  0  0
   62.5630   32.4970   46.7880 O   0  0  0  0  0  0  0  0  0  0  0  0
   61.0390   32.4590   48.9790 N   0  0  0  0  0  0  0  0  0  0  0  0
   59.9520   33.4340   49.1560 C   0  0  0  0  0  0  0  0  0  0  0  0
   59.8220   33.8230   50.6440 C   0  0  0  0  0  0  0  0  0  0  0  0
   60.8480   33.2510   51.4370 O   0  0  0  0  0  0  0  0  0  0  0  0
   62.1120   33.5980   50.9080 C   0  0  0  0  0  0  0  0  0  0  0  0
   62.3040   33.0120   49.4940 C   0  0  0  0  0  0  0  0  0  0  0  0
   58.8300   32.0970   45.9370 C   0  0  0  0  0  0  0  0  0  0  0  0
   55.1318   29.6676   44.1650 H   0  0  0  0  0  0  0  0  0  0  0  0
   56.0582   29.2943   42.6687 H   0  0  0  0  0  0  0  0  0  0  0  0
   57.1927   26.3454   47.4977 H   0  0  0  0  0  0  0  0  0  0  0  0
   58.4546   25.5437   46.4858 H   0  0  0  0  0  0  0  0  0  0  0  0
   59.3820   28.8940   47.2770 H   0  0  0  0  0  0  0  0  0  0  0  0
   61.2053   27.7305   49.3989 H   0  0  0  0  0  0  0  0  0  0  0  0
   61.4781   29.2516   48.4657 H   0  0  0  0  0  0  0  0  0  0  0  0
   58.2799   29.8094   48.9263 H   0  0  0  0  0  0  0  0  0  0  0  0
   57.1688   31.0986   50.7464 H   0  0  0  0  0  0  0  0  0  0  0  0
   58.3271   31.4377   52.9288 H   0  0  0  0  0  0  0  0  0  0  0  0
   60.5984   30.4784   53.3008 H   0  0  0  0  0  0  0  0  0  0  0  0
   57.0642   34.5770   44.3762 H   0  0  0  0  0  0  0  0  0  0  0  0
   59.0461   35.8984   45.1136 H   0  0  0  0  0  0  0  0  0  0  0  0
   60.8926   34.7897   46.3743 H   0  0  0  0  0  0  0  0  0  0  0  0
   60.1711   34.3341   48.5629 H   0  0  0  0  0  0  0  0  0  0  0  0
   59.0070   32.9831   48.8190 H   0  0  0  0  0  0  0  0  0  0  0  0
   59.8763   34.9183   50.7302 H   0  0  0  0  0  0  0  0  0  0  0  0
   58.8580   33.4407   51.0107 H   0  0  0  0  0  0  0  0  0  0  0  0
   62.1908   34.6939   50.8561 H   0  0  0  0  0  0  0  0  0  0  0  0
   62.8907   33.1842   51.5656 H   0  0  0  0  0  0  0  0  0  0  0  0
   62.6511   33.8076   48.8183 H   0  0  0  0  0  0  0  0  0  0  0  0
   63.0466   32.2022   49.5465 H   0  0  0  0  0  0  0  0  0  0  0  0
   58.7555   31.0298   46.1930 H   0  0  0  0  0  0  0  0  0  0  0  0
  1  2  2  0
  2  3  1  0
  3  4  1  0
  4  5  1  0
  5  6  1  0
  5  7  2  0
  7  8  1  0
  8  9  1  0
  9 10  2  0
  9 11  1  0
 11 12  1  0
 12 13  1  0
 13 14  2  0
 14 15  1  0
 15 16  2  0
 16 17  1  0
 17 18  2  0
 18 19  1  0
  7 20  1  0
 20 21  1  0
 21 22  2  0
  2 23  1  0
 23 24  1  0
 24 25  2  0
 25 26  1  0
 26 27  2  0
 27 28  1  0
 28 29  1  0
 29 30  2  0
 29 31  2  0
 29 32  1  0
 32 33  1  0
 33 34  1  0
 34 35  1  0
 35 36  1  0
 36 37  1  0
 28 38  2  0
 21  4  1  0
 38 24  1  0
 18 13  1  0
 37 32  1  0
  3 39  1  0
  3 40  1  0
  8 41  1  0
  8 42  1  0
 11 43  1  0
 12 44  1  0
 12 45  1  0
 14 46  1  0
 15 47  1  0
 16 48  1  0
 17 49  1  0
 25 50  1  0
 26 51  1  0
 27 52  1  0
 33 53  1  0
 33 54  1  0
 34 55  1  0
 34 56  1  0
 36 57  1  0
 36 58  1  0
 37 59  1  0
 37 60  1  0
 38 61  1  0
M  CHG  3   6  -1  20  -1  23  -1
M  END
>  <UniqueID>  (12) 
8

>  <SMILES>  (12) 
O=C(Cn1c([O-])c(CC(=O)NCc2ccccc2Cl)[n-]c1=O)[N-]c1cccc(S(=O)(=O)N2CCOCC2)c1

>  <Energy>  (12) 
104.15922106581046

>  <Genealogy>  (12) 
O=C(Cn1c([O-])c(CC(=O)NCc2ccccc2Cl)[n-]c1=O)[N-]c1cccc(S(=O)(=O)N2CCOCC2)c1 (protonated)
O=C(Cn1c([O-])c(CC(=O)NCc2ccccc2Cl)[n-]c1=O)[N-]c1cccc(S(=O)(=O)N2CCOCC2)c1 (3D coordinates assigned)
O=C(Cn1c([O-])c(CC(=O)NCc2ccccc2Cl)[n-]c1=O)[N-]c1cccc(S(=O)(=O)N2CCOCC2)c1 (nonaromatic ring conformer: 104.15922106581046 kcal/mol)

>  <smiles>  (12) 
O=C(Cc1[nH]c(=O)n(CC(=O)Nc2cccc(S(=O)(=O)N3CCOCC3)c2)c1O)NCc1ccccc1Cl

>  <score_type>  (12) 
oracle

>  <origin>  (12) 
adg

>  <m_score__min__energy>  (12) 
-16.18

>  <m_primary>  (12) 
energy

$$$$
12:0
     RDKit          3D

 50 53  0  0  1  0  0  0  0  0999 V2000
   55.8740   28.6050   45.2400 O   0  0  0  0  0  0  0  0  0  0  0  0
   56.9210   29.3780   45.1930 C   0  0  0  0  0  0  0  0  0  0  0  0
   56.6580   30.7060   44.8850 N   0  0  0  0  0  0  0  0  0  0  0  0
   57.3120   31.4140   44.0710 C   0  0  0  0  0  0  0  0  0  0  0  0
   57.5300   31.1910   42.7600 N   0  0  0  0  0  0  0  0  0  0  0  0
   58.2540   32.1980   42.2990 N   0  0  0  0  0  0  0  0  0  0  0  0
   58.5190   33.0850   43.2730 C   0  0  0  0  0  0  0  0  0  0  0  0
   57.9290   32.6180   44.4410 C   0  0  0  0  0  0  0  0  0  0  0  0
   57.9490   33.2340   45.7440 C   0  0  0  0  0  0  0  0  0  0  0  0
   56.8810   33.2120   46.4160 O   0  0  0  0  0  0  0  0  0  0  0  0
   59.0730   33.8620   46.3330 N   0  0  0  0  0  0  0  0  0  0  0  0
   60.3680   33.9670   45.6950 C   0  0  0  0  0  0  0  0  0  0  0  0
   61.5130   34.1770   46.6170 C   0  0  0  0  0  0  0  0  0  0  0  0
   61.2540   33.8580   47.9960 N   0  0  0  0  0  0  0  0  0  0  0  0
   62.3910   33.6630   48.8400 C   0  0  0  0  0  0  0  0  0  0  0  0
   62.4820   34.2490   50.1000 C   0  0  0  0  0  0  0  0  0  0  0  0
   63.6110   34.0140   50.8550 C   0  0  0  0  0  0  0  0  0  0  0  0
   64.6390   33.2240   50.4070 C   0  0  0  0  0  0  0  0  0  0  0  0
   64.5550   32.6390   49.1580 C   0  0  0  0  0  0  0  0  0  0  0  0
   63.4270   32.8560   48.3670 C   0  0  0  0  0  0  0  0  0  0  0  0
   63.3580   32.2620   47.1100 O   0  0  0  0  0  0  0  0  0  0  0  0
   59.9620   33.7300   48.6040 C   0  0  0  0  0  0  0  0  0  0  0  0
   58.9870   34.4600   47.6740 C   0  0  0  0  0  0  0  0  0  0  0  0
   58.1630   28.7260   45.4680 C   0  0  0  0  0  0  0  0  0  0  0  0
   59.3970   29.1190   45.0060 C   0  0  0  0  0  0  0  0  0  0  0  0
   60.5630   28.4590   45.3180 C   0  0  0  0  0  0  0  0  0  0  0  0
   60.5050   27.3510   46.1330 C   0  0  0  0  0  0  0  0  0  0  0  0
   59.2900   26.9110   46.6270 C   0  0  0  0  0  0  0  0  0  0  0  0
   59.2740   25.8190   47.4290 F   0  0  0  0  0  0  0  0  0  0  0  0
   58.1410   27.6050   46.2880 C   0  0  0  0  0  0  0  0  0  0  0  0
   57.1690   30.3550   42.2560 H   0  0  0  0  0  0  0  0  0  0  0  0
   58.5900   32.3100   41.2970 H   0  0  0  0  0  0  0  0  0  0  0  0
   59.0987   34.0136   43.1650 H   0  0  0  0  0  0  0  0  0  0  0  0
   60.5479   33.0371   45.1356 H   0  0  0  0  0  0  0  0  0  0  0  0
   60.3220   34.8622   45.0574 H   0  0  0  0  0  0  0  0  0  0  0  0
   62.3472   33.5480   46.2728 H   0  0  0  0  0  0  0  0  0  0  0  0
   61.7350   35.2540   46.5887 H   0  0  0  0  0  0  0  0  0  0  0  0
   61.6710   34.8852   50.4842 H   0  0  0  0  0  0  0  0  0  0  0  0
   63.6903   34.4755   51.8503 H   0  0  0  0  0  0  0  0  0  0  0  0
   65.5245   33.0573   51.0380 H   0  0  0  0  0  0  0  0  0  0  0  0
   65.3745   32.0047   48.7891 H   0  0  0  0  0  0  0  0  0  0  0  0
   64.1950   31.8980   46.6450 H   0  0  0  0  0  0  0  0  0  0  0  0
   59.6844   32.6694   48.6933 H   0  0  0  0  0  0  0  0  0  0  0  0
   59.9486   34.1556   49.6182 H   0  0  0  0  0  0  0  0  0  0  0  0
   57.9618   34.3576   48.0593 H   0  0  0  0  0  0  0  0  0  0  0  0
   59.2466   35.5278   47.6243 H   0  0  0  0  0  0  0  0  0  0  0  0
   59.4547   30.0041   44.3554 H   0  0  0  0  0  0  0  0  0  0  0  0
   61.5270   28.8112   44.9223 H   0  0  0  0  0  0  0  0  0  0  0  0
   61.4288   26.8132   46.3925 H   0  0  0  0  0  0  0  0  0  0  0  0
   57.1753   27.2559   46.6824 H   0  0  0  0  0  0  0  0  0  0  0  0
  1  2  2  0
  2  3  1  0
  3  4  2  0
  4  5  1  0
  5  6  1  0
  6  7  1  0
  7  8  2  0
  8  9  1  0
  9 10  2  0
  9 11  1  0
 11 12  1  0
 12 13  1  0
 13 14  1  0
 14 15  1  0
 15 16  2  0
 16 17  1  0
 17 18  2  0
 18 19  1  0
 19 20  2  0
 20 21  1  0
 14 22  1  0
 22 23  1  0
  2 24  1  0
 24 25  2  0
 25 26  1  0
 26 27  2  0
 27 28  1  0
 28 29  1  0
 28 30  2  0
  8  4  1  0
 23 11  1  0
 30 24  1  0
 20 15  1  0
  5 31  1  0
  6 32  1  0
  7 33  1  0
 12 34  1  0
 12 35  1  0
 13 36  1  0
 13 37  1  0
 16 38  1  0
 17 39  1  0
 18 40  1  0
 19 41  1  0
 21 42  1  0
 22 43  1  0
 22 44  1  0
 23 45  1  0
 23 46  1  0
 25 47  1  0
 26 48  1  0
 27 49  1  0
 30 50  1  0
M  END
>  <smiles>  (13) 
O=C(N=c1[nH][nH]cc1C(=O)N1CCN(c2ccccc2O)CC1)c1cccc(F)c1

>  <score_type>  (13) 
oracle

>  <origin>  (13) 
adg

>  <m_score__min__energy>  (13) 
-9.7200000000000006

>  <m_primary>  (13) 
energy

$$$$
13:0
     RDKit          3D

 32 33  0  0  0  0  0  0  0  0999 V2000
   52.5570   28.7080   48.0300 H   0  0  0  0  0  0  0  0  0  0  0  0
   52.3060   28.9070   48.9890 O   0  0  0  0  0  0  0  0  0  0  0  0
   51.7540   30.1290   49.3670 C   0  0  0  0  0  0  0  0  0  0  0  0
   51.0300   30.8690   48.5550 O   0  0  0  0  0  0  0  0  0  0  0  0
   50.6890   31.9600   49.2000 C   0  0  0  0  0  0  0  0  0  0  0  0
   49.9180   32.9790   48.6560 O   0  0  0  0  0  0  0  0  0  0  0  0
   51.2020   31.9380   50.4750 C   0  0  0  0  0  0  0  0  0  0  0  0
   51.0260   32.9130   51.4500 O   0  0  0  0  0  0  0  0  0  0  0  0
   51.9010   30.7540   50.6000 C   0  0  0  0  0  0  0  0  0  0  0  0
   52.6300   30.2620   51.7890 C   0  0  0  0  0  0  0  0  0  0  0  0
   52.1200   29.3450   52.4860 O   0  0  0  0  0  0  0  0  0  0  0  0
   53.9070   30.8550   52.2350 C   0  0  0  0  0  0  0  0  0  0  0  0
   53.8638   31.6035   53.0399 H   0  0  0  0  0  0  0  0  0  0  0  0
   55.1170   30.5530   51.7360 C   0  0  0  0  0  0  0  0  0  0  0  0
   55.1671   29.7652   50.9699 H   0  0  0  0  0  0  0  0  0  0  0  0
   56.3880   31.1970   52.1360 C   0  0  0  0  0  0  0  0  0  0  0  0
   56.8070   31.1130   53.4710 C   0  0  0  0  0  0  0  0  0  0  0  0
   56.1952   30.5636   54.2016 H   0  0  0  0  0  0  0  0  0  0  0  0
   58.0000   31.7240   53.8820 C   0  0  0  0  0  0  0  0  0  0  0  0
   58.4520   31.6100   55.3080 C   0  0  0  0  0  0  0  0  0  0  0  0
   57.6066   31.8232   55.9788 H   0  0  0  0  0  0  0  0  0  0  0  0
   58.8207   30.5907   55.4954 H   0  0  0  0  0  0  0  0  0  0  0  0
   59.2600   32.3325   55.4954 H   0  0  0  0  0  0  0  0  0  0  0  0
   58.8000   32.3870   52.9400 C   0  0  0  0  0  0  0  0  0  0  0  0
   59.7482   32.8474   53.2546 H   0  0  0  0  0  0  0  0  0  0  0  0
   58.3970   32.4660   51.5980 C   0  0  0  0  0  0  0  0  0  0  0  0
   59.2700   33.1460   50.5850 C   0  0  0  0  0  0  0  0  0  0  0  0
   60.0358   33.7425   51.1024 H   0  0  0  0  0  0  0  0  0  0  0  0
   59.7591   32.3885   49.9549 H   0  0  0  0  0  0  0  0  0  0  0  0
   58.6552   33.8056   49.9549 H   0  0  0  0  0  0  0  0  0  0  0  0
   57.2070   31.8450   51.1960 C   0  0  0  0  0  0  0  0  0  0  0  0
   56.9118   31.8649   50.1366 H   0  0  0  0  0  0  0  0  0  0  0  0
  1  2  1  0
  2  3  1  0
  3  4  1  0
  4  5  1  0
  5  6  1  0
  5  7  2  0
  7  8  1  0
  7  9  1  0
  9 10  1  0
 10 11  2  0
 10 12  1  0
 12 13  1  0
 12 14  2  0
 14 15  1  0
 14 16  1  0
 16 17  2  0
 17 18  1  0
 17 19  1  0
 19 20  1  0
 20 21  1  0
 20 22  1  0
 20 23  1  0
 19 24  2  0
 24 25  1  0
 24 26  1  0
 26 27  1  0
 27 28  1  0
 27 29  1  0
 27 30  1  0
 26 31  2  0
 31 32  1  0
  9  3  2  0
 31 16  1  0
M  CHG  2   6  -1   8  -1
M  END
>  <UniqueID>  (14) 
9

>  <SMILES>  (14) 
Cc1cc(C)cc(/C=C\C(=O)c2c(O)oc([O-])c2[O-])c1

>  <Energy>  (14) 
70.45251380080425

>  <Genealogy>  (14) 
Cc1cc(C)cc(C=CC(=O)c2c(O)oc([O-])c2[O-])c1 (protonated)
Cc1cc(C)cc(/C=C\C(=O)c2c(O)oc([O-])c2[O-])c1 (cis-trans isomerization)
Cc1cc(C)cc(/C=C\C(=O)c2c(O)oc([O-])c2[O-])c1 (3D coordinates assigned)
Cc1cc(C)cc(/C=C\C(=O)c2c(O)oc([O-])c2[O-])c1 (optimized conformer: 70.45251380080425 kcal/mol)

>  <smiles>  (14) 
Cc1cc(C)cc(C=CC(=O)c2c(O)oc(O)c2O)c1

>  <score_type>  (14) 
oracle

>  <origin>  (14) 
adg

>  <m_score__min__energy>  (14) 
-12.75

>  <m_primary>  (14) 
energy

$$$$
14:0
     RDKit          3D

 49 52  0  0  0  0  0  0  0  0999 V2000
   59.6220   29.7950   44.9890 C   0  0  0  0  0  0  0  0  0  0  0  0
   59.5330   29.3750   46.2590 C   0  0  0  0  0  0  0  0  0  0  0  0
   58.8440   28.2480   46.7170 C   0  0  0  0  0  0  0  0  0  0  0  0
   58.2000   27.3280   45.9730 C   0  0  0  0  0  0  0  0  0  0  0  0
   57.4850   26.1680   46.5340 C   0  0  0  0  0  0  0  0  0  0  0  0
   58.1080   25.0960   47.0530 N   0  0  0  0  0  0  0  0  0  0  0  0
   57.0940   24.2590   47.3590 C   0  0  0  0  0  0  0  0  0  0  0  0
   57.2800   23.1320   47.8880 O   0  0  0  0  0  0  0  0  0  0  0  0
   55.8640   24.7200   47.0440 N   0  0  0  0  0  0  0  0  0  0  0  0
   56.1290   25.9240   46.5120 C   0  0  0  0  0  0  0  0  0  0  0  0
   55.1550   26.7590   45.9790 O   0  0  0  0  0  0  0  0  0  0  0  0
   59.0020   28.2280   48.0980 C   0  0  0  0  0  0  0  0  0  0  0  0
   59.7660   29.3310   48.4240 C   0  0  0  0  0  0  0  0  0  0  0  0
   60.2180   29.6860   49.8080 C   0  0  0  0  0  0  0  0  0  0  0  0
   60.0920   30.0230   47.3120 N   0  0  0  0  0  0  0  0  0  0  0  0
   60.9040   31.2090   47.2720 C   0  0  0  0  0  0  0  0  0  0  0  0
   62.2990   31.0880   47.3480 C   0  0  0  0  0  0  0  0  0  0  0  0
   63.1080   32.2260   47.3270 C   0  0  0  0  0  0  0  0  0  0  0  0
   62.5300   33.4930   47.2200 C   0  0  0  0  0  0  0  0  0  0  0  0
   61.1420   33.6260   47.1380 C   0  0  0  0  0  0  0  0  0  0  0  0
   60.3160   32.4910   47.1730 C   0  0  0  0  0  0  0  0  0  0  0  0
   58.8500   32.6440   47.0470 C   0  0  0  0  0  0  0  0  0  0  0  0
   58.0970   31.7540   47.5230 O   0  0  0  0  0  0  0  0  0  0  0  0
   58.2570   33.7930   46.4310 N   0  0  0  0  0  0  0  0  0  0  0  0
   58.2790   34.0770   45.0010 C   0  0  0  0  0  0  0  0  0  0  0  0
   57.7670   32.8820   44.2520 C   0  0  0  0  0  0  0  0  0  0  0  0
   58.0840   32.7150   42.8950 C   0  0  0  0  0  0  0  0  0  0  0  0
   57.5850   31.6200   42.1840 C   0  0  0  0  0  0  0  0  0  0  0  0
   56.7590   30.6880   42.8210 C   0  0  0  0  0  0  0  0  0  0  0  0
   56.4270   30.8550   44.1690 C   0  0  0  0  0  0  0  0  0  0  0  0
   55.6220   29.9550   44.7850 F   0  0  0  0  0  0  0  0  0  0  0  0
   56.9240   31.9510   44.8820 C   0  0  0  0  0  0  0  0  0  0  0  0
   60.1961   30.7020   44.7486 H   0  0  0  0  0  0  0  0  0  0  0  0
   59.1210   29.2326   44.1873 H   0  0  0  0  0  0  0  0  0  0  0  0
   58.2084   27.4501   44.8798 H   0  0  0  0  0  0  0  0  0  0  0  0
   58.5973   27.4795   48.7951 H   0  0  0  0  0  0  0  0  0  0  0  0
   59.5754   29.1813   50.5444 H   0  0  0  0  0  0  0  0  0  0  0  0
   61.2600   29.3623   49.9478 H   0  0  0  0  0  0  0  0  0  0  0  0
   60.1505   30.7750   49.9478 H   0  0  0  0  0  0  0  0  0  0  0  0
   62.7584   30.0915   47.4246 H   0  0  0  0  0  0  0  0  0  0  0  0
   64.2012   32.1245   47.3948 H   0  0  0  0  0  0  0  0  0  0  0  0
   63.1692   34.3880   47.2003 H   0  0  0  0  0  0  0  0  0  0  0  0
   60.6932   34.6260   47.0454 H   0  0  0  0  0  0  0  0  0  0  0  0
   57.6389   34.9460   44.7887 H   0  0  0  0  0  0  0  0  0  0  0  0
   59.3090   34.2979   44.6842 H   0  0  0  0  0  0  0  0  0  0  0  0
   58.7280   33.4491   42.3888 H   0  0  0  0  0  0  0  0  0  0  0  0
   57.8421   31.4910   41.1223 H   0  0  0  0  0  0  0  0  0  0  0  0
   56.3708   29.8240   42.2617 H   0  0  0  0  0  0  0  0  0  0  0  0
   56.6539   32.0846   45.9399 H   0  0  0  0  0  0  0  0  0  0  0  0
  1  2  2  0
  2  3  1  0
  3  4  2  3
  4  5  1  0
  5  6  1  0
  6  7  1  0
  7  8  2  0
  7  9  1  0
  9 10  1  0
 10 11  1  0
  3 12  1  0
 12 13  2  0
 13 14  1  0
 13 15  1  0
 15 16  1  0
 16 17  2  0
 17 18  1  0
 18 19  2  0
 19 20  1  0
 20 21  2  0
 21 22  1  0
 22 23  2  0
 22 24  1  0
 24 25  1  0
 25 26  1  0
 26 27  2  0
 27 28  1  0
 28 29  2  0
 29 30  1  0
 30 31  1  0
 30 32  2  0
 15  2  1  0
 21 16  1  0
 32 26  1  0
 10  5  2  0
  1 33  1  0
  1 34  1  0
  4 35  1  0
 12 36  1  0
 14 37  1  0
 14 38  1  0
 14 39  1  0
 17 40  1  0
 18 41  1  0
 19 42  1  0
 20 43  1  0
 25 44  1  0
 25 45  1  0
 27 46  1  0
 28 47  1  0
 29 48  1  0
 32 49  1  0
M  CHG  4   6  -1   9  -1  11  -1  24  -1
M  END
>  <UniqueID>  (15) 
10

>  <SMILES>  (15) 
C=c1c(=Cc2[n-]c(=O)[n-]c2[O-])cc(C)n1-c1ccccc1C(=O)[N-]Cc1cccc(F)c1

>  <Energy>  (15) 
127.27976949789753

>  <Genealogy>  (15) 
C=c1c(=Cc2[n-]c(=O)[n-]c2[O-])cc(C)n1-c1ccccc1C(=O)[N-]Cc1cccc(F)c1 (protonated)
C=c1c(=Cc2[n-]c(=O)[n-]c2[O-])cc(C)n1-c1ccccc1C(=O)[N-]Cc1cccc(F)c1 (3D coordinates assigned)
C=c1c(=Cc2[n-]c(=O)[n-]c2[O-])cc(C)n1-c1ccccc1C(=O)[N-]Cc1cccc(F)c1 (optimized conformer: 127.27976949789753 kcal/mol)

>  <smiles>  (15) 
C=c1c(=Cc2[nH]c(=O)[nH]c2O)cc(C)n1-c1ccccc1C(=O)NCc1cccc(F)c1

>  <score_type>  (15) 
oracle

>  <origin>  (15) 
adg

>  <m_score__min__energy>  (15) 
-17.84

>  <m_primary>  (15) 
energy

$$$$
15:0
     RDKit          3D

 37 39  0  0  0  0  0  0  0  0999 V2000
   55.8140   25.0970   45.7740 H   0  0  0  0  0  0  0  0  0  0  0  0
   55.6290   26.0440   46.0810 O   0  0  0  0  0  0  0  0  0  0  0  0
   56.4480   27.0990   45.6830 C   0  0  0  0  0  0  0  0  0  0  0  0
   55.8870   28.2530   45.2520 N   0  0  0  0  0  0  0  0  0  0  0  0
   56.6410   29.3020   44.8390 C   0  0  0  0  0  0  0  0  0  0  0  0
   56.0590   30.3530   44.4560 O   0  0  0  0  0  0  0  0  0  0  0  0
   58.0120   29.2130   44.8360 N   0  0  0  0  0  0  0  0  0  0  0  0
   58.8370   30.3680   44.4280 C   0  0  0  0  0  0  0  0  0  0  0  0
   59.8988   30.1302   44.5893 H   0  0  0  0  0  0  0  0  0  0  0  0
   58.6547   30.5790   43.3639 H   0  0  0  0  0  0  0  0  0  0  0  0
   58.4720   31.5860   45.2380 C   0  0  0  0  0  0  0  0  0  0  0  0
   58.5730   31.5660   46.6400 C   0  0  0  0  0  0  0  0  0  0  0  0
   58.9462   30.6656   47.1499 H   0  0  0  0  0  0  0  0  0  0  0  0
   58.2010   32.6860   47.3880 C   0  0  0  0  0  0  0  0  0  0  0  0
   58.2856   32.6660   48.4846 H   0  0  0  0  0  0  0  0  0  0  0  0
   57.7220   33.8310   46.7470 C   0  0  0  0  0  0  0  0  0  0  0  0
   57.4277   34.7106   47.3384 H   0  0  0  0  0  0  0  0  0  0  0  0
   57.6170   33.8580   45.3540 C   0  0  0  0  0  0  0  0  0  0  0  0
   57.2418   34.7605   44.8493 H   0  0  0  0  0  0  0  0  0  0  0  0
   57.9880   32.7400   44.6000 C   0  0  0  0  0  0  0  0  0  0  0  0
   57.9005   32.7645   43.5038 H   0  0  0  0  0  0  0  0  0  0  0  0
   58.6160   28.0570   45.2660 C   0  0  0  0  0  0  0  0  0  0  0  0
   59.8760   27.9650   45.2780 O   0  0  0  0  0  0  0  0  0  0  0  0
   57.8420   26.9710   45.7130 C   0  0  0  0  0  0  0  0  0  0  0  0
   58.4810   25.7230   46.1960 C   0  0  0  0  0  0  0  0  0  0  0  0
   59.7030   25.7400   46.4990 O   0  0  0  0  0  0  0  0  0  0  0  0
   57.7670   24.4780   46.2830 N   0  0  0  0  0  0  0  0  0  0  0  0
   57.5080   23.6630   45.3000 C   0  0  0  0  0  0  0  0  0  0  0  0
   56.3700   23.7890   44.5570 N   0  0  0  0  0  0  0  0  0  0  0  0
   56.0780   22.9390   43.5360 C   0  0  0  0  0  0  0  0  0  0  0  0
   55.1529   23.0730   42.9561 H   0  0  0  0  0  0  0  0  0  0  0  0
   56.9530   21.8960   43.2240 C   0  0  0  0  0  0  0  0  0  0  0  0
   56.7260   21.2080   42.3963 H   0  0  0  0  0  0  0  0  0  0  0  0
   58.1190   21.7370   43.9750 C   0  0  0  0  0  0  0  0  0  0  0  0
   58.8161   20.9183   43.7432 H   0  0  0  0  0  0  0  0  0  0  0  0
   58.3990   22.6190   45.0210 C   0  0  0  0  0  0  0  0  0  0  0  0
   59.3124   22.4947   45.6212 H   0  0  0  0  0  0  0  0  0  0  0  0
  1  2  1  0
  2  3  1  0
  3  4  1  0
  4  5  1  0
  5  6  2  0
  5  7  1  0
  7  8  1  0
  8  9  1  0
  8 10  1  0
  8 11  1  0
 11 12  2  0
 12 13  1  0
 12 14  1  0
 14 15  1  0
 14 16  2  0
 16 17  1  0
 16 18  1  0
 18 19  1  0
 18 20  2  0
 20 21  1  0
  7 22  1  0
 22 23  2  0
 22 24  1  0
 24 25  1  0
 25 26  2  0
 25 27  1  0
 27 28  2  0
 28 29  1  0
 29 30  1  0
 30 31  1  0
 30 32  2  0
 32 33  1  0
 32 34  1  0
 34 35  1  0
 34 36  2  0
 36 37  1  0
 24  3  2  0
 36 28  1  0
 20 11  1  0
M  CHG  2   4  -1  29  -1
M  END
>  <UniqueID>  (16) 
11

>  <SMILES>  (16) 
O=C(/N=c1/cccc[n-]1)c1c(O)[n-]c(=O)n(Cc2ccccc2)c1=O

>  <Energy>  (16) 
54.0243648954543

>  <Genealogy>  (16) 
O=C(N=c1cccc[n-]1)c1c(O)[n-]c(=O)n(Cc2ccccc2)c1=O (protonated)
O=C(/N=c1/cccc[n-]1)c1c(O)[n-]c(=O)n(Cc2ccccc2)c1=O (cis-trans isomerization)
O=C(/N=c1/cccc[n-]1)c1c(O)[n-]c(=O)n(Cc2ccccc2)c1=O (3D coordinates assigned)
O=C(/N=c1/cccc[n-]1)c1c(O)[n-]c(=O)n(Cc2ccccc2)c1=O (optimized conformer: 54.0243648954543 kcal/mol)

>  <smiles>  (16) 
O=C(N=c1cccc[nH]1)c1c(O)[nH]c(=O)n(Cc2ccccc2)c1=O

>  <score_type>  (16) 
oracle

>  <origin>  (16) 
adg

>  <m_score__min__energy>  (16) 
-11.74

>  <m_primary>  (16) 
energy

$$$$
16:0
     RDKit          3D

 56 59  0  0  0  0  0  0  0  0999 V2000
   56.3777   31.9317   44.4003 H   0  0  0  0  0  0  0  0  0  0  0  0
   57.3080   31.6830   44.9320 C   0  0  0  0  0  0  0  0  0  0  0  0
   57.6770   30.3870   44.9850 C   0  0  0  0  0  0  0  0  0  0  0  0
   56.6320   29.3350   44.9550 C   0  0  0  0  0  0  0  0  0  0  0  0
   55.7330   29.3800   44.0710 O   0  0  0  0  0  0  0  0  0  0  0  0
   56.6520   28.2710   45.9210 N   0  0  0  0  0  0  0  0  0  0  0  0
   56.4670   27.0080   45.6800 C   0  0  0  0  0  0  0  0  0  0  0  0
   55.3520   26.3220   46.0160 N   0  0  0  0  0  0  0  0  0  0  0  0
   55.4540   25.0110   45.6650 C   0  0  0  0  0  0  0  0  0  0  0  0
   54.3320   24.0520   45.8840 C   0  0  0  0  0  0  0  0  0  0  0  0
   54.1720   23.9152   46.9637 H   0  0  0  0  0  0  0  0  0  0  0  0
   53.4149   24.4496   45.4249 H   0  0  0  0  0  0  0  0  0  0  0  0
   54.5820   23.0842   45.4249 H   0  0  0  0  0  0  0  0  0  0  0  0
   56.6440   24.6580   45.0330 C   0  0  0  0  0  0  0  0  0  0  0  0
   56.9068   23.6562   44.6624 H   0  0  0  0  0  0  0  0  0  0  0  0
   57.6090   26.0330   44.9360 S   0  0  0  0  0  0  0  0  0  0  0  0
   59.1060   29.9800   45.1120 C   0  0  0  0  0  0  0  0  0  0  0  0
   59.6850   29.4150   44.1470 O   0  0  0  0  0  0  0  0  0  0  0  0
   59.8760   30.2640   46.2880 N   0  0  0  0  0  0  0  0  0  0  0  0
   60.1310   29.3710   47.3820 C   0  0  0  0  0  0  0  0  0  0  0  0
   59.9550   27.9980   47.1560 C   0  0  0  0  0  0  0  0  0  0  0  0
   59.6492   27.6450   46.1601 H   0  0  0  0  0  0  0  0  0  0  0  0
   60.1640   27.0750   48.1820 C   0  0  0  0  0  0  0  0  0  0  0  0
   60.0467   25.9990   47.9859 H   0  0  0  0  0  0  0  0  0  0  0  0
   60.5210   27.5160   49.4540 C   0  0  0  0  0  0  0  0  0  0  0  0
   60.6857   26.7877   50.2618 H   0  0  0  0  0  0  0  0  0  0  0  0
   60.6700   28.8810   49.7050 C   0  0  0  0  0  0  0  0  0  0  0  0
   60.9321   29.2212   50.7177 H   0  0  0  0  0  0  0  0  0  0  0  0
   60.4890   29.8290   48.6780 C   0  0  0  0  0  0  0  0  0  0  0  0
   60.5480   31.2730   49.0220 C   0  0  0  0  0  0  0  0  0  0  0  0
   59.6010   31.7910   49.6730 O   0  0  0  0  0  0  0  0  0  0  0  0
   61.6900   32.0830   48.6800 N   0  0  0  0  0  0  0  0  0  0  0  0
   62.4130   31.8770   47.4220 C   0  0  0  0  0  0  0  0  0  0  0  0
   63.2258   31.1531   47.5811 H   0  0  0  0  0  0  0  0  0  0  0  0
   61.7193   31.4901   46.6610 H   0  0  0  0  0  0  0  0  0  0  0  0
   63.0010   33.2060   46.9450 C   0  0  0  0  0  0  0  0  0  0  0  0
   63.6289   33.0278   46.0596 H   0  0  0  0  0  0  0  0  0  0  0  0
   62.1780   33.8907   46.6923 H   0  0  0  0  0  0  0  0  0  0  0  0
   63.7880   33.7900   47.9650 O   0  0  0  0  0  0  0  0  0  0  0  0
   62.9650   34.1570   49.0580 C   0  0  0  0  0  0  0  0  0  0  0  0
   63.5787   34.6739   49.8105 H   0  0  0  0  0  0  0  0  0  0  0  0
   62.1676   34.8165   48.6850 H   0  0  0  0  0  0  0  0  0  0  0  0
   62.3120   32.9270   49.7050 C   0  0  0  0  0  0  0  0  0  0  0  0
   63.0799   32.3459   50.2366 H   0  0  0  0  0  0  0  0  0  0  0  0
   61.5377   33.2624   50.4106 H   0  0  0  0  0  0  0  0  0  0  0  0
   58.0700   32.7870   45.5400 C   0  0  0  0  0  0  0  0  0  0  0  0
   58.1420   32.9050   46.9340 C   0  0  0  0  0  0  0  0  0  0  0  0
   57.6096   32.1854   47.5733 H   0  0  0  0  0  0  0  0  0  0  0  0
   58.8880   33.9340   47.5150 C   0  0  0  0  0  0  0  0  0  0  0  0
   58.9304   34.0310   48.6099 H   0  0  0  0  0  0  0  0  0  0  0  0
   59.5810   34.8410   46.7060 C   0  0  0  0  0  0  0  0  0  0  0  0
   60.1666   35.6514   47.1647 H   0  0  0  0  0  0  0  0  0  0  0  0
   59.5290   34.7170   45.3140 C   0  0  0  0  0  0  0  0  0  0  0  0
   60.0727   35.4307   44.6776 H   0  0  0  0  0  0  0  0  0  0  0  0
   58.7860   33.6860   44.7310 C   0  0  0  0  0  0  0  0  0  0  0  0
   58.7618   33.5782   43.6366 H   0  0  0  0  0  0  0  0  0  0  0  0
  1  2  1  0
  2  3  2  3
  3  4  1  0
  4  5  2  0
  4  6  1  0
  6  7  2  0
  7  8  1  0
  8  9  1  0
  9 10  1  0
 10 11  1  0
 10 12  1  0
 10 13  1  0
  9 14  2  0
 14 15  1  0
 14 16  1  0
  3 17  1  0
 17 18  2  0
 17 19  1  0
 19 20  1  0
 20 21  2  0
 21 22  1  0
 21 23  1  0
 23 24  1  0
 23 25  2  0
 25 26  1  0
 25 27  1  0
 27 28  1  0
 27 29  2  0
 29 30  1  0
 30 31  2  0
 30 32  1  0
 32 33  1  0
 33 34  1  0
 33 35  1  0
 33 36  1  0
 36 37  1  0
 36 38  1  0
 36 39  1  0
 39 40  1  0
 40 41  1  0
 40 42  1  0
 40 43  1  0
 43 44  1  0
 43 45  1  0
  2 46  1  0
 46 47  2  0
 47 48  1  0
 47 49  1  0
 49 50  1  0
 49 51  2  0
 51 52  1  0
 51 53  1  0
 53 54  1  0
 53 55  2  0
 55 56  1  0
 16  7  1  0
 29 20  1  0
 43 32  1  0
 55 46  1  0
M  CHG  2   8  -1  19  -1
M  END
>  <UniqueID>  (17) 
12

>  <SMILES>  (17) 
Cc1cs/c(=N/C(=O)C(=Cc2ccccc2)C(=O)[N-]c2ccccc2C(=O)N2CCOCC2)[n-]1

>  <Energy>  (17) 
113.38773282632343

>  <Genealogy>  (17) 
Cc1csc(=NC(=O)C(=Cc2ccccc2)C(=O)[N-]c2ccccc2C(=O)N2CCOCC2)[n-]1 (protonated)
Cc1cs/c(=N/C(=O)C(=Cc2ccccc2)C(=O)[N-]c2ccccc2C(=O)N2CCOCC2)[n-]1 (cis-trans isomerization)
Cc1cs/c(=N/C(=O)C(=Cc2ccccc2)C(=O)[N-]c2ccccc2C(=O)N2CCOCC2)[n-]1 (3D coordinates assigned)
Cc1cs/c(=N/C(=O)C(=Cc2ccccc2)C(=O)[N-]c2ccccc2C(=O)N2CCOCC2)[n-]1 (nonaromatic ring conformer: 113.38773282632343 kcal/mol)

>  <smiles>  (17) 
Cc1csc(=NC(=O)C(=Cc2ccccc2)C(=O)Nc2ccccc2C(=O)N2CCOCC2)[nH]1

>  <score_type>  (17) 
oracle

>  <origin>  (17) 
adg

>  <m_score__min__energy>  (17) 
-12.31

>  <m_primary>  (17) 
energy

$$$$
17:0
     RDKit          3D

 55 59  0  0  0  0  0  0  0  0999 V2000
   59.6850   33.8920   50.8180 C   0  0  0  0  0  0  0  0  0  0  0  0
   59.2570   33.5200   49.4290 C   0  0  0  0  0  0  0  0  0  0  0  0
   58.5780   32.3180   49.1990 C   0  0  0  0  0  0  0  0  0  0  0  0
   58.2040   31.9560   47.9030 C   0  0  0  0  0  0  0  0  0  0  0  0
   58.5330   32.7740   46.8070 C   0  0  0  0  0  0  0  0  0  0  0  0
   59.2170   33.9900   47.0390 C   0  0  0  0  0  0  0  0  0  0  0  0
   59.5760   34.3510   48.3470 C   0  0  0  0  0  0  0  0  0  0  0  0
   59.4720   34.9650   45.9130 C   0  0  0  0  0  0  0  0  0  0  0  0
   59.3990   34.3040   44.5330 C   0  0  0  0  0  0  0  0  0  0  0  0
   58.1450   33.4400   44.4190 C   0  0  0  0  0  0  0  0  0  0  0  0
   58.1660   32.4040   45.4560 N   0  0  0  0  0  0  0  0  0  0  0  0
   57.8600   31.0470   45.0820 C   0  0  0  0  0  0  0  0  0  0  0  0
   56.6730   30.6350   45.1690 O   0  0  0  0  0  0  0  0  0  0  0  0
   58.9050   30.1660   44.4570 C   0  0  0  0  0  0  0  0  0  0  0  0
   58.6420   28.4100   44.8920 S   0  0  0  0  0  0  0  0  0  0  0  0
   59.3780   28.5360   46.5240 C   0  0  0  0  0  0  0  0  0  0  0  0
   59.2270   27.5180   47.4070 N   0  0  0  0  0  0  0  0  0  0  0  0
   59.7480   27.5980   48.6550 C   0  0  0  0  0  0  0  0  0  0  0  0
   60.4580   28.7350   49.0410 C   0  0  0  0  0  0  0  0  0  0  0  0
   60.6500   29.7730   48.1150 C   0  0  0  0  0  0  0  0  0  0  0  0
   60.0620   29.6570   46.8820 N   0  0  0  0  0  0  0  0  0  0  0  0
   61.4740   30.9860   48.4610 C   0  0  0  0  0  0  0  0  0  0  0  0
   62.0640   31.7380   47.4210 C   0  0  0  0  0  0  0  0  0  0  0  0
   62.7780   32.9060   47.6890 C   0  0  0  0  0  0  0  0  0  0  0  0
   63.4870   33.8250   46.3710 Cl  0  0  0  0  0  0  0  0  0  0  0  0
   62.9350   33.3410   49.0000 C   0  0  0  0  0  0  0  0  0  0  0  0
   62.4100   32.5940   50.0500 C   0  0  0  0  0  0  0  0  0  0  0  0
   61.6970   31.4000   49.8100 C   0  0  0  0  0  0  0  0  0  0  0  0
   61.2480   30.5980   50.9260 N   0  0  0  0  0  0  0  0  0  0  0  0
   61.0700   31.1590   52.2670 C   0  0  0  0  0  0  0  0  0  0  0  0
   61.0170   28.9040   50.6800 S   0  0  0  0  0  0  0  0  0  0  0  0
   59.9690   28.3770   51.6230 O   0  0  0  0  0  0  0  0  0  0  0  0
   62.3120   28.1690   50.8780 O   0  0  0  0  0  0  0  0  0  0  0  0
   59.0649   33.3530   51.5495 H   0  0  0  0  0  0  0  0  0  0  0  0
   60.7411   33.6200   50.9615 H   0  0  0  0  0  0  0  0  0  0  0  0
   59.5628   34.9757   50.9615 H   0  0  0  0  0  0  0  0  0  0  0  0
   58.3377   31.6550   50.0432 H   0  0  0  0  0  0  0  0  0  0  0  0
   57.6467   31.0221   47.7377 H   0  0  0  0  0  0  0  0  0  0  0  0
   60.1126   35.2948   48.5242 H   0  0  0  0  0  0  0  0  0  0  0  0
   58.7174   35.7639   45.9612 H   0  0  0  0  0  0  0  0  0  0  0  0
   60.4906   35.3605   46.0393 H   0  0  0  0  0  0  0  0  0  0  0  0
   59.3721   35.0848   43.7587 H   0  0  0  0  0  0  0  0  0  0  0  0
   60.2843   33.6654   44.3973 H   0  0  0  0  0  0  0  0  0  0  0  0
   57.2530   34.0704   44.5492 H   0  0  0  0  0  0  0  0  0  0  0  0
   58.1180   32.9642   43.4276 H   0  0  0  0  0  0  0  0  0  0  0  0
   58.8579   30.2750   43.3634 H   0  0  0  0  0  0  0  0  0  0  0  0
   59.8903   30.4736   44.8372 H   0  0  0  0  0  0  0  0  0  0  0  0
   59.6113   26.7674   49.3631 H   0  0  0  0  0  0  0  0  0  0  0  0
   60.1010   30.4360   46.1910 H   0  0  0  0  0  0  0  0  0  0  0  0
   61.9585   31.3963   46.3807 H   0  0  0  0  0  0  0  0  0  0  0  0
   63.4748   34.2767   49.2075 H   0  0  0  0  0  0  0  0  0  0  0  0
   62.5531   32.9399   51.0844 H   0  0  0  0  0  0  0  0  0  0  0  0
   61.3126   30.3943   53.0195 H   0  0  0  0  0  0  0  0  0  0  0  0
   61.7379   32.0237   52.3944 H   0  0  0  0  0  0  0  0  0  0  0  0
   60.0257   31.4804   52.3944 H   0  0  0  0  0  0  0  0  0  0  0  0
  1  2  1  0
  2  3  2  0
  3  4  1  0
  4  5  2  0
  5  6  1  0
  6  7  2  0
  6  8  1  0
  8  9  1  0
  9 10  1  0
 10 11  1  0
 11 12  1  0
 12 13  2  0
 12 14  1  0
 14 15  1  0
 15 16  1  0
 16 17  2  0
 17 18  1  0
 18 19  2  0
 19 20  1  0
 20 21  2  0
 20 22  1  0
 22 23  2  0
 23 24  1  0
 24 25  1  0
 24 26  2  0
 26 27  1  0
 27 28  2  0
 28 29  1  0
 29 30  1  0
 29 31  1  0
 31 32  2  0
 31 33  2  0
  7  2  1  0
 21 16  1  0
 28 22  1  0
 11  5  1  0
 31 19  1  0
  1 34  1  0
  1 35  1  0
  1 36  1  0
  3 37  1  0
  4 38  1  0
  7 39  1  0
  8 40  1  0
  8 41  1  0
  9 42  1  0
  9 43  1  0
 10 44  1  0
 10 45  1  0
 14 46  1  0
 14 47  1  0
 18 48  1  0
 21 49  1  0
 23 50  1  0
 26 51  1  0
 27 52  1  0
 30 53  1  0
 30 54  1  0
 30 55  1  0
M  CHG  1  21   1
M  END
>  <UniqueID>  (18) 
13

>  <SMILES>  (18) 
Cc1ccc2c(c1)CCCN2C(=O)CSc1ncc2c([nH+]1)-c1cc(Cl)ccc1N(C)S2(=O)=O

>  <Energy>  (18) 
76.11493187235564

>  <Genealogy>  (18) 
Cc1ccc2c(c1)CCCN2C(=O)CSc1ncc2c([nH+]1)-c1cc(Cl)ccc1N(C)S2(=O)=O (protonated)
Cc1ccc2c(c1)CCCN2C(=O)CSc1ncc2c([nH+]1)-c1cc(Cl)ccc1N(C)S2(=O)=O (3D coordinates assigned)
Cc1ccc2c(c1)CCCN2C(=O)CSc1ncc2c([nH+]1)-c1cc(Cl)ccc1N(C)S2(=O)=O (nonaromatic ring conformer: 76.11493187235564 kcal/mol)

>  <smiles>  (18) 
Cc1ccc2c(c1)CCCN2C(=O)CSc1ncc2c(n1)-c1cc(Cl)ccc1N(C)S2(=O)=O

>  <score_type>  (18) 
oracle

>  <origin>  (18) 
adg

>  <m_score__min__energy>  (18) 
-8.7899999999999991

>  <m_primary>  (18) 
energy

$$$$
18:0
     RDKit          3D

 43 46  0  0  0  0  0  0  0  0999 V2000
   59.8542   26.9208   46.2009 H   0  0  0  0  0  0  0  0  0  0  0  0
   58.7630   26.7890   46.1580 C   0  0  0  0  0  0  0  0  0  0  0  0
   57.9730   27.8040   45.7180 N   0  0  0  0  0  0  0  0  0  0  0  0
   56.6170   27.6870   45.6410 C   0  0  0  0  0  0  0  0  0  0  0  0
   55.8720   28.6770   45.2370 N   0  0  0  0  0  0  0  0  0  0  0  0
   56.2850   29.8760   44.5580 C   0  0  0  0  0  0  0  0  0  0  0  0
   55.4280   30.7830   44.3780 O   0  0  0  0  0  0  0  0  0  0  0  0
   57.6940   30.0760   44.0560 C   0  0  0  0  0  0  0  0  0  0  0  0
   58.2294   29.1165   44.1074 H   0  0  0  0  0  0  0  0  0  0  0  0
   57.6381   30.4439   43.0209 H   0  0  0  0  0  0  0  0  0  0  0  0
   58.4440   31.0980   44.8760 C   0  0  0  0  0  0  0  0  0  0  0  0
   59.2320   30.6830   45.9620 C   0  0  0  0  0  0  0  0  0  0  0  0
   59.3169   29.6119   46.1978 H   0  0  0  0  0  0  0  0  0  0  0  0
   59.9090   31.6220   46.7450 C   0  0  0  0  0  0  0  0  0  0  0  0
   60.5213   31.2867   47.5951 H   0  0  0  0  0  0  0  0  0  0  0  0
   59.8110   32.9930   46.4510 C   0  0  0  0  0  0  0  0  0  0  0  0
   60.4620   33.9660   47.2230 O   0  0  0  0  0  0  0  0  0  0  0  0
   60.7540   33.8580   48.5930 C   0  0  0  0  0  0  0  0  0  0  0  0
   59.7440   33.9770   49.5630 C   0  0  0  0  0  0  0  0  0  0  0  0
   58.7055   34.1719   49.2570 H   0  0  0  0  0  0  0  0  0  0  0  0
   60.0630   33.8470   50.9180 C   0  0  0  0  0  0  0  0  0  0  0  0
   59.1630   33.9610   51.7910 O   0  0  0  0  0  0  0  0  0  0  0  0
   61.3410   33.5920   51.2970 N   0  0  0  0  0  0  0  0  0  0  0  0
   62.3430   33.4520   50.3890 C   0  0  0  0  0  0  0  0  0  0  0  0
   63.6460   33.1820   50.8250 C   0  0  0  0  0  0  0  0  0  0  0  0
   63.8569   33.0863   51.9003 H   0  0  0  0  0  0  0  0  0  0  0  0
   64.6790   33.0340   49.8950 C   0  0  0  0  0  0  0  0  0  0  0  0
   65.7016   32.8218   50.2403 H   0  0  0  0  0  0  0  0  0  0  0  0
   64.4160   33.1550   48.5270 C   0  0  0  0  0  0  0  0  0  0  0  0
   65.2323   33.0367   47.7992 H   0  0  0  0  0  0  0  0  0  0  0  0
   63.1180   33.4260   48.0810 C   0  0  0  0  0  0  0  0  0  0  0  0
   62.9166   33.5220   47.0039 H   0  0  0  0  0  0  0  0  0  0  0  0
   62.0700   33.5760   49.0070 C   0  0  0  0  0  0  0  0  0  0  0  0
   59.0000   33.4090   45.3900 C   0  0  0  0  0  0  0  0  0  0  0  0
   58.8966   34.4821   45.1715 H   0  0  0  0  0  0  0  0  0  0  0  0
   58.3190   32.4730   44.6040 C   0  0  0  0  0  0  0  0  0  0  0  0
   57.5180   32.9190   43.5570 O   0  0  0  0  0  0  0  0  0  0  0  0
   56.0090   26.4870   46.0430 C   0  0  0  0  0  0  0  0  0  0  0  0
   54.6260   26.3380   45.9910 O   0  0  0  0  0  0  0  0  0  0  0  0
   56.8050   25.4320   46.4980 C   0  0  0  0  0  0  0  0  0  0  0  0
   56.3394   24.4857   46.8107 H   0  0  0  0  0  0  0  0  0  0  0  0
   58.1910   25.5810   46.5550 C   0  0  0  0  0  0  0  0  0  0  0  0
   58.8252   24.7549   46.9091 H   0  0  0  0  0  0  0  0  0  0  0  0
  1  2  1  0
  2  3  1  0
  3  4  1  0
  4  5  2  0
  5  6  1  0
  6  7  2  0
  6  8  1  0
  8  9  1  0
  8 10  1  0
  8 11  1  0
 11 12  2  0
 12 13  1  0
 12 14  1  0
 14 15  1  0
 14 16  2  0
 16 17  1  0
 17 18  1  0
 18 19  2  0
 19 20  1  0
 19 21  1  0
 21 22  2  0
 21 23  1  0
 23 24  1  0
 24 25  2  0
 25 26  1  0
 25 27  1  0
 27 28  1  0
 27 29  2  0
 29 30  1  0
 29 31  1  0
 31 32  1  0
 31 33  2  0
 16 34  1  0
 34 35  1  0
 34 36  2  0
 36 37  1  0
  4 38  1  0
 38 39  1  0
 38 40  2  0
 40 41  1  0
 40 42  1  0
 42 43  1  0
 42  2  2  0
 36 11  1  0
 33 18  1  0
 33 24  1  0
M  CHG  4   3  -1  23  -1  37  -1  39  -1
M  END
>  <UniqueID>  (19) 
14

>  <SMILES>  (19) 
O=C(Cc1ccc(Oc2cc(=O)[n-]c3ccccc23)cc1[O-])/N=c1\[n-]cccc1[O-]

>  <Energy>  (19) 
65.14288718908446

>  <Genealogy>  (19) 
O=C(Cc1ccc(Oc2cc(=O)[n-]c3ccccc23)cc1[O-])N=c1[n-]cccc1[O-] (protonated)
O=C(Cc1ccc(Oc2cc(=O)[n-]c3ccccc23)cc1[O-])/N=c1\[n-]cccc1[O-] (cis-trans isomerization)
O=C(Cc1ccc(Oc2cc(=O)[n-]c3ccccc23)cc1[O-])/N=c1\[n-]cccc1[O-] (3D coordinates assigned)
O=C(Cc1ccc(Oc2cc(=O)[n-]c3ccccc23)cc1[O-])/N=c1\[n-]cccc1[O-] (optimized conformer: 65.14288718908446 kcal/mol)

>  <smiles>  (19) 
O=C(Cc1ccc(Oc2cc(=O)[nH]c3ccccc23)cc1O)N=c1[nH]cccc1O

>  <score_type>  (19) 
oracle

>  <origin>  (19) 
adg

>  <m_score__min__energy>  (19) 
-16.199999999999999

>  <m_primary>  (19) 
energy

$$$$
19:0
     RDKit          3D

 49 52  0  0  0  0  0  0  0  0999 V2000
   52.5860   31.4110   53.9410 H   0  0  0  0  0  0  0  0  0  0  0  0
   51.8080   31.8570   53.4700 O   0  0  0  0  0  0  0  0  0  0  0  0
   51.5860   31.6500   52.1140 C   0  0  0  0  0  0  0  0  0  0  0  0
   51.0200   32.5590   51.3020 N   0  0  0  0  0  0  0  0  0  0  0  0
   51.0760   31.9550   50.0960 C   0  0  0  0  0  0  0  0  0  0  0  0
   50.6420   32.4970   49.0460 O   0  0  0  0  0  0  0  0  0  0  0  0
   51.6450   30.7300   50.1000 N   0  0  0  0  0  0  0  0  0  0  0  0
   51.9450   30.5300   51.3950 C   0  0  0  0  0  0  0  0  0  0  0  0
   52.6650   29.3400   51.8830 C   0  0  0  0  0  0  0  0  0  0  0  0
   52.2995   28.3510   51.5695 H   0  0  0  0  0  0  0  0  0  0  0  0
   53.7440   29.3890   52.6900 C   0  0  0  0  0  0  0  0  0  0  0  0
   53.9950   28.5600   53.7720 C   0  0  0  0  0  0  0  0  0  0  0  0
   53.3416   27.7611   54.1526 H   0  0  0  0  0  0  0  0  0  0  0  0
   55.2230   28.9310   54.2790 C   0  0  0  0  0  0  0  0  0  0  0  0
   55.8570   28.3060   55.4870 C   0  0  0  0  0  0  0  0  0  0  0  0
   55.4174   28.7394   56.3974 H   0  0  0  0  0  0  0  0  0  0  0  0
   55.6787   27.2206   55.4745 H   0  0  0  0  0  0  0  0  0  0  0  0
   56.9397   28.4998   55.4745 H   0  0  0  0  0  0  0  0  0  0  0  0
   55.7500   29.9500   53.5610 N   0  0  0  0  0  0  0  0  0  0  0  0
   57.0250   30.6260   53.8570 C   0  0  0  0  0  0  0  0  0  0  0  0
   56.8221   31.5527   54.4139 H   0  0  0  0  0  0  0  0  0  0  0  0
   57.6532   29.9512   54.4570 H   0  0  0  0  0  0  0  0  0  0  0  0
   57.7550   30.9640   52.5820 C   0  0  0  0  0  0  0  0  0  0  0  0
   58.1170   29.9520   51.6790 C   0  0  0  0  0  0  0  0  0  0  0  0
   57.8543   28.9061   51.8961 H   0  0  0  0  0  0  0  0  0  0  0  0
   58.8090   30.2650   50.5060 C   0  0  0  0  0  0  0  0  0  0  0  0
   59.0769   29.4656   49.7995 H   0  0  0  0  0  0  0  0  0  0  0  0
   59.1640   31.5920   50.2240 C   0  0  0  0  0  0  0  0  0  0  0  0
   59.8570   31.8930   49.0000 N   0  0  0  0  0  0  0  0  0  0  0  0
   60.7600   31.4000   48.8170 H   0  0  0  0  0  0  0  0  0  0  0  0
   59.3930   32.8330   48.0160 C   0  0  0  0  0  0  0  0  0  0  0  0
   60.1720   33.9440   47.6400 C   0  0  0  0  0  0  0  0  0  0  0  0
   61.1473   34.1163   48.1186 H   0  0  0  0  0  0  0  0  0  0  0  0
   59.7110   34.8290   46.6610 C   0  0  0  0  0  0  0  0  0  0  0  0
   60.3175   35.7031   46.3814 H   0  0  0  0  0  0  0  0  0  0  0  0
   58.4810   34.6050   46.0370 C   0  0  0  0  0  0  0  0  0  0  0  0
   58.1176   35.3046   45.2698 H   0  0  0  0  0  0  0  0  0  0  0  0
   57.7130   33.4920   46.3880 C   0  0  0  0  0  0  0  0  0  0  0  0
   56.7470   33.3133   45.8931 H   0  0  0  0  0  0  0  0  0  0  0  0
   58.1700   32.6050   47.3670 C   0  0  0  0  0  0  0  0  0  0  0  0
   57.5674   31.7232   47.6301 H   0  0  0  0  0  0  0  0  0  0  0  0
   58.7760   32.6090   51.1130 C   0  0  0  0  0  0  0  0  0  0  0  0
   59.0184   33.6573   50.8842 H   0  0  0  0  0  0  0  0  0  0  0  0
   58.0840   32.2960   52.2860 C   0  0  0  0  0  0  0  0  0  0  0  0
   57.7955   33.0981   52.9813 H   0  0  0  0  0  0  0  0  0  0  0  0
   54.8510   30.2390   52.5810 C   0  0  0  0  0  0  0  0  0  0  0  0
   55.0060   31.2110   51.6640 C   0  0  0  0  0  0  0  0  0  0  0  0
   55.9177   31.8265   51.6636 H   0  0  0  0  0  0  0  0  0  0  0  0
   54.2210   31.3903   50.9145 H   0  0  0  0  0  0  0  0  0  0  0  0
  1  2  1  0
  2  3  1  0
  3  4  1  0
  4  5  1  0
  5  6  2  0
  5  7  1  0
  7  8  1  0
  8  9  1  0
  9 10  1  0
  9 11  2  0
 11 12  1  0
 12 13  1  0
 12 14  2  0
 14 15  1  0
 15 16  1  0
 15 17  1  0
 15 18  1  0
 14 19  1  0
 19 20  1  0
 20 21  1  0
 20 22  1  0
 20 23  1  0
 23 24  2  0
 24 25  1  0
 24 26  1  0
 26 27  1  0
 26 28  2  0
 28 29  1  0
 29 30  1  0
 29 31  1  0
 31 32  2  0
 32 33  1  0
 32 34  1  0
 34 35  1  0
 34 36  2  0
 36 37  1  0
 36 38  1  0
 38 39  1  0
 38 40  2  0
 40 41  1  0
 28 42  1  0
 42 43  1  0
 42 44  2  0
 44 45  1  0
 19 46  1  0
 46 47  2  0
 47 48  1  0
 47 49  1  0
  8  3  2  0
 46 11  1  0
 44 23  1  0
 40 31  1  0
M  CHG  2   4  -1   7  -1
M  END
>  <UniqueID>  (20) 
15

>  <SMILES>  (20) 
C=c1/c(=C/c2[n-]c(=O)[n-]c2O)cc(C)n1Cc1ccc(Nc2ccccc2)cc1

>  <Energy>  (20) 
122.02354389401351

>  <Genealogy>  (20) 
C=c1c(=Cc2[n-]c(=O)[n-]c2O)cc(C)n1Cc1ccc(Nc2ccccc2)cc1 (protonated)
C=c1/c(=C/c2[n-]c(=O)[n-]c2O)cc(C)n1Cc1ccc(Nc2ccccc2)cc1 (cis-trans isomerization)
C=c1/c(=C/c2[n-]c(=O)[n-]c2O)cc(C)n1Cc1ccc(Nc2ccccc2)cc1 (3D coordinates assigned)
C=c1/c(=C/c2[n-]c(=O)[n-]c2O)cc(C)n1Cc1ccc(Nc2ccccc2)cc1 (optimized conformer: 122.02354389401351 kcal/mol)

>  <smiles>  (20) 
C=c1c(=Cc2[nH]c(=O)[nH]c2O)cc(C)n1Cc1ccc(Nc2ccccc2)cc1

>  <score_type>  (20) 
oracle

>  <origin>  (20) 
adg

>  <m_score__min__energy>  (20) 
-13.34

>  <m_primary>  (20) 
energy

$$$$
20:0
     RDKit          3D

 30 32  0  0  0  0  0  0  0  0999 V2000
   52.2470   22.6090   43.8990 H   0  0  0  0  0  0  0  0  0  0  0  0
   52.5610   22.9690   44.8290 N   0  0  0  0  0  0  0  0  0  0  0  0
   53.7350   23.4900   44.9910 C   0  0  0  0  0  0  0  0  0  0  0  0
   53.8640   24.7160   45.5780 N   0  0  0  0  0  0  0  0  0  0  0  0
   55.0810   25.2990   45.7650 C   0  0  0  0  0  0  0  0  0  0  0  0
   55.1480   26.4090   46.3520 O   0  0  0  0  0  0  0  0  0  0  0  0
   56.2320   24.6270   45.3200 C   0  0  0  0  0  0  0  0  0  0  0  0
   57.5950   25.0050   45.3990 C   0  0  0  0  0  0  0  0  0  0  0  0
   58.1240   26.2990   45.8740 C   0  0  0  0  0  0  0  0  0  0  0  0
   59.3710   26.4530   45.9720 O   0  0  0  0  0  0  0  0  0  0  0  0
   57.2550   27.4310   46.0030 N   0  0  0  0  0  0  0  0  0  0  0  0
   57.1110   28.4810   45.2380 C   0  0  0  0  0  0  0  0  0  0  0  0
   55.8340   28.8340   44.9210 N   0  0  0  0  0  0  0  0  0  0  0  0
   55.5330   29.8660   44.0940 C   0  0  0  0  0  0  0  0  0  0  0  0
   54.4824   30.1094   43.8774 H   0  0  0  0  0  0  0  0  0  0  0  0
   56.5520   30.6150   43.5210 C   0  0  0  0  0  0  0  0  0  0  0  0
   56.3168   31.4281   42.8185 H   0  0  0  0  0  0  0  0  0  0  0  0
   57.8740   30.3260   43.8450 C   0  0  0  0  0  0  0  0  0  0  0  0
   58.6852   30.9186   43.3968 H   0  0  0  0  0  0  0  0  0  0  0  0
   58.1860   29.2850   44.7390 C   0  0  0  0  0  0  0  0  0  0  0  0
   59.6230   29.1700   45.1790 C   0  0  0  0  0  0  0  0  0  0  0  0
   59.6708   29.1662   46.2780 H   0  0  0  0  0  0  0  0  0  0  0  0
   60.0518   28.2347   44.7901 H   0  0  0  0  0  0  0  0  0  0  0  0
   60.1951   30.0252   44.7901 H   0  0  0  0  0  0  0  0  0  0  0  0
   58.4500   24.0040   44.9250 C   0  0  0  0  0  0  0  0  0  0  0  0
   59.5482   24.0648   44.9107 H   0  0  0  0  0  0  0  0  0  0  0  0
   57.5430   22.6880   44.3780 S   0  0  0  0  0  0  0  0  0  0  0  0
   56.0630   23.3730   44.7580 C   0  0  0  0  0  0  0  0  0  0  0  0
   54.8430   22.8070   44.5870 N   0  0  0  0  0  0  0  0  0  0  0  0
   54.7610   21.8590   44.1540 H   0  0  0  0  0  0  0  0  0  0  0  0
  1  2  1  0
  2  3  2  0
  3  4  1  0
  4  5  1  0
  5  6  2  0
  5  7  1  0
  7  8  1  0
  8  9  1  0
  9 10  2  0
  9 11  1  0
 11 12  2  3
 12 13  1  0
 13 14  1  0
 14 15  1  0
 14 16  2  0
 16 17  1  0
 16 18  1  0
 18 19  1  0
 18 20  2  0
 20 21  1  0
 21 22  1  0
 21 23  1  0
 21 24  1  0
  8 25  2  0
 25 26  1  0
 25 27  1  0
 27 28  1  0
 28 29  1  0
 29 30  1  0
 29  3  1  0
 28  7  2  0
 20 12  1  0
M  CHG  2   4  -1  13  -1
M  END
>  <UniqueID>  (21) 
16

>  <SMILES>  (21) 
[H]/N=c1\[n-]c(=O)c2c(C(=O)N=c3[n-]cccc3C)csc2[nH]1

>  <Energy>  (21) 
88.07781767426393

>  <Genealogy>  (21) 
Cc1ccc[n-]c1=NC(=O)c1csc2[nH]c(=N)[n-]c(=O)c12 (protonated)
[H]/N=c1\[n-]c(=O)c2c(C(=O)N=c3[n-]cccc3C)csc2[nH]1 (cis-trans isomerization)
[H]/N=c1\[n-]c(=O)c2c(C(=O)N=c3[n-]cccc3C)csc2[nH]1 (3D coordinates assigned)
[H]/N=c1\[n-]c(=O)c2c(C(=O)N=c3[n-]cccc3C)csc2[nH]1 (optimized conformer: 88.07781767426393 kcal/mol)

>  <smiles>  (21) 
Cc1ccc[nH]c1=NC(=O)c1csc2[nH]c(=N)[nH]c(=O)c12

>  <score_type>  (21) 
oracle

>  <origin>  (21) 
adg

>  <m_score__min__energy>  (21) 
-11.23

>  <m_primary>  (21) 
energy

$$$$
21:0
     RDKit          3D

 65 69  0  0  0  0  0  0  0  0999 V2000
   59.8350   34.5320   45.2620 O   0  0  0  0  0  0  0  0  0  0  0  0
   59.1130   33.6140   45.7370 C   0  0  0  0  0  0  0  0  0  0  0  0
   58.9730   33.5020   47.1630 N   0  0  0  0  0  0  0  0  0  0  0  0
   59.3630   34.6030   48.0400 C   0  0  0  0  0  0  0  0  0  0  0  0
   60.8350   34.5770   48.4180 C   0  0  0  0  0  0  0  0  0  0  0  0
   59.7800   34.1760   49.4390 C   0  0  0  0  0  0  0  0  0  0  0  0
   58.4300   32.6720   44.8150 C   0  0  0  0  0  0  0  0  0  0  0  0
   58.4210   32.9280   43.4350 C   0  0  0  0  0  0  0  0  0  0  0  0
   57.7690   32.0620   42.5570 C   0  0  0  0  0  0  0  0  0  0  0  0
   57.1070   30.9290   43.0370 C   0  0  0  0  0  0  0  0  0  0  0  0
   56.4980   30.0750   42.1250 O   0  0  0  0  0  0  0  0  0  0  0  0
   57.0820   30.6590   44.4210 C   0  0  0  0  0  0  0  0  0  0  0  0
   56.3860   29.4680   44.9710 C   0  0  0  0  0  0  0  0  0  0  0  0
   55.1420   29.5120   45.1770 O   0  0  0  0  0  0  0  0  0  0  0  0
   57.1020   28.2450   45.2070 N   0  0  0  0  0  0  0  0  0  0  0  0
   58.1050   28.0330   46.2160 C   0  0  0  0  0  0  0  0  0  0  0  0
   58.5110   29.0730   47.0720 C   0  0  0  0  0  0  0  0  0  0  0  0
   59.5020   28.8540   48.0380 C   0  0  0  0  0  0  0  0  0  0  0  0
   59.9760   30.1650   49.1160 S   0  0  0  0  0  0  0  0  0  0  0  0
   58.9800   31.2880   49.0240 O   0  0  0  0  0  0  0  0  0  0  0  0
   59.9840   29.6520   50.5290 O   0  0  0  0  0  0  0  0  0  0  0  0
   61.5700   30.7280   48.6830 N   0  0  0  0  0  0  0  0  0  0  0  0
   61.5010   31.5500   47.4640 C   0  0  0  0  0  0  0  0  0  0  0  0
   62.8910   32.1200   47.1190 C   0  0  0  0  0  0  0  0  0  0  0  0
   63.8640   31.7680   48.0870 O   0  0  0  0  0  0  0  0  0  0  0  0
   63.4430   32.2140   49.3610 C   0  0  0  0  0  0  0  0  0  0  0  0
   62.1420   31.5080   49.7950 C   0  0  0  0  0  0  0  0  0  0  0  0
   60.0960   27.5910   48.1510 C   0  0  0  0  0  0  0  0  0  0  0  0
   59.7110   26.5580   47.2950 C   0  0  0  0  0  0  0  0  0  0  0  0
   58.7280   26.7730   46.3180 C   0  0  0  0  0  0  0  0  0  0  0  0
   58.3650   25.6940   45.4430 N   0  0  0  0  0  0  0  0  0  0  0  0
   58.4410   24.3110   45.9450 C   0  0  0  0  0  0  0  0  0  0  0  0
   57.5440   23.3360   45.1500 C   0  0  0  0  0  0  0  0  0  0  0  0
   56.6650   23.9930   44.2570 O   0  0  0  0  0  0  0  0  0  0  0  0
   57.4180   24.7750   43.3560 C   0  0  0  0  0  0  0  0  0  0  0  0
   57.9540   26.0110   44.0730 C   0  0  0  0  0  0  0  0  0  0  0  0
   57.7470   31.5380   45.2980 C   0  0  0  0  0  0  0  0  0  0  0  0
   58.5540   32.6430   47.5860 H   0  0  0  0  0  0  0  0  0  0  0  0
   58.6674   35.3528   47.6350 H   0  0  0  0  0  0  0  0  0  0  0  0
   61.5003   33.8148   47.9863 H   0  0  0  0  0  0  0  0  0  0  0  0
   61.6570   35.3076   48.3949 H   0  0  0  0  0  0  0  0  0  0  0  0
   59.6825   33.1240   49.7451 H   0  0  0  0  0  0  0  0  0  0  0  0
   59.5231   34.4965   50.4594 H   0  0  0  0  0  0  0  0  0  0  0  0
   58.9325   33.8192   43.0424 H   0  0  0  0  0  0  0  0  0  0  0  0
   57.7761   32.2729   41.4774 H   0  0  0  0  0  0  0  0  0  0  0  0
   58.0467   30.0661   46.9822 H   0  0  0  0  0  0  0  0  0  0  0  0
   61.1465   30.9291   46.6281 H   0  0  0  0  0  0  0  0  0  0  0  0
   60.8063   32.3853   47.6365 H   0  0  0  0  0  0  0  0  0  0  0  0
   63.2039   31.7254   46.1411 H   0  0  0  0  0  0  0  0  0  0  0  0
   62.8130   33.2170   47.0988 H   0  0  0  0  0  0  0  0  0  0  0  0
   64.2319   31.9971   50.0963 H   0  0  0  0  0  0  0  0  0  0  0  0
   63.2518   33.2959   49.3066 H   0  0  0  0  0  0  0  0  0  0  0  0
   62.3622   30.8311   50.6337 H   0  0  0  0  0  0  0  0  0  0  0  0
   61.4122   32.2727   50.0994 H   0  0  0  0  0  0  0  0  0  0  0  0
   60.8669   27.4128   48.9152 H   0  0  0  0  0  0  0  0  0  0  0  0
   60.1819   25.5682   47.3873 H   0  0  0  0  0  0  0  0  0  0  0  0
   59.4836   23.9677   45.8730 H   0  0  0  0  0  0  0  0  0  0  0  0
   58.0843   24.3160   46.9855 H   0  0  0  0  0  0  0  0  0  0  0  0
   58.1897   22.6593   44.5711 H   0  0  0  0  0  0  0  0  0  0  0  0
   56.9250   22.7919   45.8785 H   0  0  0  0  0  0  0  0  0  0  0  0
   58.2603   24.1810   42.9716 H   0  0  0  0  0  0  0  0  0  0  0  0
   56.7755   25.0883   42.5199 H   0  0  0  0  0  0  0  0  0  0  0  0
   58.8216   26.3988   43.5191 H   0  0  0  0  0  0  0  0  0  0  0  0
   57.1524   26.7631   44.1157 H   0  0  0  0  0  0  0  0  0  0  0  0
   57.7329   31.3357   46.3791 H   0  0  0  0  0  0  0  0  0  0  0  0
  1  2  2  0
  2  3  1  0
  3  4  1  0
  4  5  1  0
  5  6  1  0
  2  7  1  0
  7  8  2  0
  8  9  1  0
  9 10  2  0
 10 11  1  0
 10 12  1  0
 12 13  1  0
 13 14  2  0
 13 15  1  0
 15 16  1  0
 16 17  2  0
 17 18  1  0
 18 19  1  0
 19 20  2  0
 19 21  2  0
 19 22  1  0
 22 23  1  0
 23 24  1  0
 24 25  1  0
 25 26  1  0
 26 27  1  0
 18 28  2  0
 28 29  1  0
 29 30  2  0
 30 31  1  0
 31 32  1  0
 32 33  1  0
 33 34  1  0
 34 35  1  0
 35 36  1  0
 12 37  2  0
  6  4  1  0
 37  7  1  0
 30 16  1  0
 36 31  1  0
 27 22  1  0
  3 38  1  0
  4 39  1  0
  5 40  1  0
  5 41  1  0
  6 42  1  0
  6 43  1  0
  8 44  1  0
  9 45  1  0
 17 46  1  0
 23 47  1  0
 23 48  1  0
 24 49  1  0
 24 50  1  0
 26 51  1  0
 26 52  1  0
 27 53  1  0
 27 54  1  0
 28 55  1  0
 29 56  1  0
 32 57  1  0
 32 58  1  0
 33 59  1  0
 33 60  1  0
 35 61  1  0
 35 62  1  0
 36 63  1  0
 36 64  1  0
 37 65  1  0
M  CHG  2  11  -1  15  -1
M  END
>  <UniqueID>  (22) 
17

>  <SMILES>  (22) 
O=C(NC1CC1)c1ccc([O-])c(C(=O)[N-]c2cc(S(=O)(=O)N3CCOCC3)ccc2N2CCOCC2)c1

>  <Energy>  (22) 
358.23991495295894

>  <Genealogy>  (22) 
O=C(NC1CC1)c1ccc([O-])c(C(=O)[N-]c2cc(S(=O)(=O)N3CCOCC3)ccc2N2CCOCC2)c1 (protonated)
O=C(NC1CC1)c1ccc([O-])c(C(=O)[N-]c2cc(S(=O)(=O)N3CCOCC3)ccc2N2CCOCC2)c1 (3D coordinates assigned)
O=C(NC1CC1)c1ccc([O-])c(C(=O)[N-]c2cc(S(=O)(=O)N3CCOCC3)ccc2N2CCOCC2)c1 (nonaromatic ring conformer: 358.23991495295894 kcal/mol)

>  <smiles>  (22) 
O=C(NC1CC1)c1ccc(O)c(C(=O)Nc2cc(S(=O)(=O)N3CCOCC3)ccc2N2CCOCC2)c1

>  <score_type>  (22) 
oracle

>  <origin>  (22) 
adg

>  <m_score__min__energy>  (22) 
-12.529999999999999

>  <m_primary>  (22) 
energy

$$$$
22:0
     RDKit          3D

 46 47  0  0  0  0  0  0  0  0999 V2000
   55.2000   26.6410   45.9840 O   0  0  0  0  0  0  0  0  0  0  0  0
   56.4400   26.6430   46.2010 C   0  0  0  0  0  0  0  0  0  0  0  0
   57.1080   25.3750   46.6270 C   0  0  0  0  0  0  0  0  0  0  0  0
   58.3260   25.6980   47.2890 O   0  0  0  0  0  0  0  0  0  0  0  0
   59.4300   26.2370   46.6220 C   0  0  0  0  0  0  0  0  0  0  0  0
   59.4440   26.3180   45.3650 O   0  0  0  0  0  0  0  0  0  0  0  0
   60.5910   26.7390   47.4180 C   0  0  0  0  0  0  0  0  0  0  0  0
   60.1840   27.8600   48.2610 N   0  0  0  0  0  0  0  0  0  0  0  0
   59.8280   29.2720   47.3040 S   0  0  0  0  0  0  0  0  0  0  0  0
   58.3920   29.6740   47.5220 O   0  0  0  0  0  0  0  0  0  0  0  0
   60.0140   28.9360   45.8510 O   0  0  0  0  0  0  0  0  0  0  0  0
   60.9050   30.6080   47.7160 C   0  0  0  0  0  0  0  0  0  0  0  0
   61.1140   31.6700   46.8160 C   0  0  0  0  0  0  0  0  0  0  0  0
   62.0010   32.7020   47.1390 C   0  0  0  0  0  0  0  0  0  0  0  0
   62.6830   32.6800   48.3590 C   0  0  0  0  0  0  0  0  0  0  0  0
   62.4610   31.6350   49.2680 C   0  0  0  0  0  0  0  0  0  0  0  0
   61.5750   30.6030   48.9490 C   0  0  0  0  0  0  0  0  0  0  0  0
   57.2240   27.8320   45.9940 N   0  0  0  0  0  0  0  0  0  0  0  0
   56.7340   29.0130   45.3430 C   0  0  0  0  0  0  0  0  0  0  0  0
   55.5200   29.1040   45.0060 O   0  0  0  0  0  0  0  0  0  0  0  0
   57.6380   30.0920   45.0650 N   0  0  0  0  0  0  0  0  0  0  0  0
   57.2210   31.3090   44.3720 C   0  0  0  0  0  0  0  0  0  0  0  0
   57.8370   32.5230   45.0170 C   0  0  0  0  0  0  0  0  0  0  0  0
   58.5070   33.4820   44.2390 C   0  0  0  0  0  0  0  0  0  0  0  0
   59.0920   34.6000   44.8470 C   0  0  0  0  0  0  0  0  0  0  0  0
   59.0170   34.7660   46.2340 C   0  0  0  0  0  0  0  0  0  0  0  0
   58.3580   33.8120   47.0160 C   0  0  0  0  0  0  0  0  0  0  0  0
   57.7730   32.6930   46.4120 C   0  0  0  0  0  0  0  0  0  0  0  0
   56.4494   24.8227   47.3134 H   0  0  0  0  0  0  0  0  0  0  0  0
   57.3157   24.7482   45.7472 H   0  0  0  0  0  0  0  0  0  0  0  0
   60.9724   25.9268   48.0543 H   0  0  0  0  0  0  0  0  0  0  0  0
   61.3767   27.0790   46.7273 H   0  0  0  0  0  0  0  0  0  0  0  0
   60.5780   31.6883   45.8556 H   0  0  0  0  0  0  0  0  0  0  0  0
   62.1618   33.5304   46.4334 H   0  0  0  0  0  0  0  0  0  0  0  0
   63.3938   33.4822   48.6062 H   0  0  0  0  0  0  0  0  0  0  0  0
   62.9859   31.6281   50.2346 H   0  0  0  0  0  0  0  0  0  0  0  0
   61.4025   29.7859   49.6649 H   0  0  0  0  0  0  0  0  0  0  0  0
   58.2070   27.8460   46.3480 H   0  0  0  0  0  0  0  0  0  0  0  0
   58.6350   30.0030   45.3570 H   0  0  0  0  0  0  0  0  0  0  0  0
   57.5426   31.2552   43.3214 H   0  0  0  0  0  0  0  0  0  0  0  0
   56.1258   31.3932   44.4304 H   0  0  0  0  0  0  0  0  0  0  0  0
   58.5724   33.3544   43.1484 H   0  0  0  0  0  0  0  0  0  0  0  0
   59.6118   35.3495   44.2322 H   0  0  0  0  0  0  0  0  0  0  0  0
   59.4758   35.6457   46.7090 H   0  0  0  0  0  0  0  0  0  0  0  0
   58.2994   33.9412   48.1068 H   0  0  0  0  0  0  0  0  0  0  0  0
   57.2604   31.9424   47.0315 H   0  0  0  0  0  0  0  0  0  0  0  0
  1  2  2  0
  2  3  1  0
  3  4  1  0
  4  5  1  0
  5  6  2  0
  5  7  1  0
  7  8  1  0
  8  9  1  0
  9 10  2  0
  9 11  2  0
  9 12  1  0
 12 13  2  0
 13 14  1  0
 14 15  2  0
 15 16  1  0
 16 17  2  0
  2 18  1  0
 18 19  1  0
 19 20  2  0
 19 21  1  0
 21 22  1  0
 22 23  1  0
 23 24  2  0
 24 25  1  0
 25 26  2  0
 26 27  1  0
 27 28  2  0
 17 12  1  0
 28 23  1  0
  3 29  1  0
  3 30  1  0
  7 31  1  0
  7 32  1  0
 13 33  1  0
 14 34  1  0
 15 35  1  0
 16 36  1  0
 17 37  1  0
 18 38  1  0
 21 39  1  0
 22 40  1  0
 22 41  1  0
 24 42  1  0
 25 43  1  0
 26 44  1  0
 27 45  1  0
 28 46  1  0
M  CHG  1   8  -1
M  END
>  <UniqueID>  (23) 
18

>  <SMILES>  (23) 
O=C(COC(=O)C[N-]S(=O)(=O)c1ccccc1)NC(=O)NCc1ccccc1

>  <Energy>  (23) 
34.695112103107924

>  <Genealogy>  (23) 
O=C(COC(=O)C[N-]S(=O)(=O)c1ccccc1)NC(=O)NCc1ccccc1 (protonated)
O=C(COC(=O)C[N-]S(=O)(=O)c1ccccc1)NC(=O)NCc1ccccc1 (3D coordinates assigned)
O=C(COC(=O)C[N-]S(=O)(=O)c1ccccc1)NC(=O)NCc1ccccc1 (optimized conformer: 34.695112103107924 kcal/mol)

>  <smiles>  (23) 
O=C(COC(=O)CNS(=O)(=O)c1ccccc1)NC(=O)NCc1ccccc1

>  <score_type>  (23) 
oracle

>  <origin>  (23) 
adg

>  <m_score__min__energy>  (23) 
-10.199999999999999

>  <m_primary>  (23) 
energy

$$$$
23:0
     RDKit          3D

 62 65  0  0  0  0  0  0  0  0999 V2000
   56.1690   26.1270   45.9930 C   0  0  0  0  0  0  0  0  0  0  0  0
   55.7780   27.4430   45.6040 O   0  0  0  0  0  0  0  0  0  0  0  0
   56.6770   28.4890   45.3450 C   0  0  0  0  0  0  0  0  0  0  0  0
   56.3530   29.5690   44.4990 C   0  0  0  0  0  0  0  0  0  0  0  0
   57.2780   30.5930   44.2820 C   0  0  0  0  0  0  0  0  0  0  0  0
   58.5340   30.5470   44.8940 C   0  0  0  0  0  0  0  0  0  0  0  0
   58.8790   29.4640   45.7180 C   0  0  0  0  0  0  0  0  0  0  0  0
   60.1400   29.4130   46.4030 N   0  0  0  0  0  0  0  0  0  0  0  0
   60.3300   29.3580   47.8240 C   0  0  0  0  0  0  0  0  0  0  0  0
   61.2900   29.9970   48.3290 O   0  0  0  0  0  0  0  0  0  0  0  0
   59.3640   28.6290   48.7300 C   0  0  0  0  0  0  0  0  0  0  0  0
   58.7730   29.5010   49.7660 N   0  0  0  0  0  0  0  0  0  0  0  0
   58.5690   30.8950   49.3130 C   0  0  0  0  0  0  0  0  0  0  0  0
   58.3580   31.8440   50.4950 C   0  0  0  0  0  0  0  0  0  0  0  0
   59.5420   31.8020   51.3590 N   0  0  0  0  0  0  0  0  0  0  0  0
   60.1170   33.0330   51.8400 C   0  0  0  0  0  0  0  0  0  0  0  0
   59.7000   33.5410   52.9180 O   0  0  0  0  0  0  0  0  0  0  0  0
   61.1320   33.7830   51.0250 C   0  0  0  0  0  0  0  0  0  0  0  0
   60.7060   33.7930   49.5830 C   0  0  0  0  0  0  0  0  0  0  0  0
   59.6840   34.6510   49.1520 C   0  0  0  0  0  0  0  0  0  0  0  0
   59.2310   34.6010   47.8310 C   0  0  0  0  0  0  0  0  0  0  0  0
   59.7680   33.6680   46.9300 C   0  0  0  0  0  0  0  0  0  0  0  0
   59.2640   33.6030   45.5100 C   0  0  0  0  0  0  0  0  0  0  0  0
   58.8110   34.9230   44.8900 C   0  0  0  0  0  0  0  0  0  0  0  0
   57.7780   33.9200   45.3740 C   0  0  0  0  0  0  0  0  0  0  0  0
   60.8130   32.8230   47.3510 C   0  0  0  0  0  0  0  0  0  0  0  0
   61.3800   31.9140   46.4590 O   0  0  0  0  0  0  0  0  0  0  0  0
   61.2740   32.8870   48.6750 C   0  0  0  0  0  0  0  0  0  0  0  0
   60.2320   30.5160   51.5800 C   0  0  1  0  0  0  0  0  0  0  0  0
   60.5910   30.3310   53.0660 C   0  0  0  0  0  0  0  0  0  0  0  0
   59.3480   29.3280   51.1240 C   0  0  0  0  0  0  0  0  0  0  0  0
   57.9390   28.4520   45.9540 C   0  0  0  0  0  0  0  0  0  0  0  0
   56.1889   26.0599   47.0908 H   0  0  0  0  0  0  0  0  0  0  0  0
   55.4488   25.3975   45.5941 H   0  0  0  0  0  0  0  0  0  0  0  0
   57.1707   25.9091   45.5941 H   0  0  0  0  0  0  0  0  0  0  0  0
   55.3691   29.6055   44.0084 H   0  0  0  0  0  0  0  0  0  0  0  0
   57.0173   31.4380   43.6277 H   0  0  0  0  0  0  0  0  0  0  0  0
   59.2543   31.3619   44.7294 H   0  0  0  0  0  0  0  0  0  0  0  0
   58.5513   28.2151   48.1151 H   0  0  0  0  0  0  0  0  0  0  0  0
   59.9301   27.8406   49.2477 H   0  0  0  0  0  0  0  0  0  0  0  0
   59.4546   31.2202   48.7473 H   0  0  0  0  0  0  0  0  0  0  0  0
   57.6685   30.9244   48.6820 H   0  0  0  0  0  0  0  0  0  0  0  0
   58.2090   32.8685   50.1232 H   0  0  0  0  0  0  0  0  0  0  0  0
   57.4704   31.5342   51.0661 H   0  0  0  0  0  0  0  0  0  0  0  0
   61.2065   34.8170   51.3928 H   0  0  0  0  0  0  0  0  0  0  0  0
   62.1118   33.2911   51.1153 H   0  0  0  0  0  0  0  0  0  0  0  0
   59.2367   35.3669   49.8572 H   0  0  0  0  0  0  0  0  0  0  0  0
   58.4485   35.2973   47.4950 H   0  0  0  0  0  0  0  0  0  0  0  0
   59.9403   32.7976   45.1877 H   0  0  0  0  0  0  0  0  0  0  0  0
   58.9593   35.8663   45.4361 H   0  0  0  0  0  0  0  0  0  0  0  0
   59.0045   35.4422   43.9397 H   0  0  0  0  0  0  0  0  0  0  0  0
   57.1784   34.1379   46.2701 H   0  0  0  0  0  0  0  0  0  0  0  0
   56.9144   33.4134   44.9184 H   0  0  0  0  0  0  0  0  0  0  0  0
   61.0670   30.9520   46.4130 H   0  0  0  0  0  0  0  0  0  0  0  0
   62.0865   32.2220   49.0031 H   0  0  0  0  0  0  0  0  0  0  0  0
   61.1553   30.5339   50.9824 H   0  0  0  0  0  0  0  0  0  0  0  0
   59.7869   30.7454   53.6918 H   0  0  0  0  0  0  0  0  0  0  0  0
   60.7099   29.2594   53.2838 H   0  0  0  0  0  0  0  0  0  0  0  0
   61.5327   30.8561   53.2838 H   0  0  0  0  0  0  0  0  0  0  0  0
   59.9627   28.4158   51.1276 H   0  0  0  0  0  0  0  0  0  0  0  0
   58.5035   29.2666   51.8261 H   0  0  0  0  0  0  0  0  0  0  0  0
   58.1944   27.6187   46.6251 H   0  0  0  0  0  0  0  0  0  0  0  0
  1  2  1  0
  2  3  1  0
  3  4  2  0
  4  5  1  0
  5  6  2  0
  6  7  1  0
  7  8  1  0
  8  9  1  0
  9 10  2  0
  9 11  1  0
 11 12  1  0
 12 13  1  0
 13 14  1  0
 14 15  1  0
 15 16  1  0
 16 17  2  0
 16 18  1  0
 18 19  1  0
 19 20  2  0
 20 21  1  0
 21 22  2  0
 22 23  1  0
 23 24  1  0
 24 25  1  0
 22 26  1  0
 26 27  1  0
 26 28  2  0
 15 29  1  0
 29 30  1  0
 29 31  1  0
  7 32  2  0
 32  3  1  0
 31 12  1  0
 28 19  1  0
 25 23  1  0
  1 33  1  0
  1 34  1  0
  1 35  1  0
  4 36  1  0
  5 37  1  0
  6 38  1  0
 11 39  1  0
 11 40  1  0
 13 41  1  0
 13 42  1  0
 14 43  1  0
 14 44  1  0
 18 45  1  0
 18 46  1  0
 20 47  1  0
 21 48  1  0
 23 49  1  0
 24 50  1  0
 24 51  1  0
 25 52  1  0
 25 53  1  0
 27 54  1  0
 28 55  1  0
 29 56  1  6
 30 57  1  0
 30 58  1  0
 30 59  1  0
 31 60  1  0
 31 61  1  0
 32 62  1  0
M  CHG  1   8  -1
M  END
>  <UniqueID>  (24) 
19

>  <SMILES>  (24) 
COc1cccc([N-]C(=O)CN2CCN(C(=O)Cc3ccc(C4CC4)c(O)c3)[C@@H](C)C2)c1

>  <Energy>  (24) 
341.09324209462636

>  <Genealogy>  (24) 
COc1cccc([N-]C(=O)CN2CCN(C(=O)Cc3ccc(C4CC4)c(O)c3)C(C)C2)c1 (protonated)
COc1cccc([N-]C(=O)CN2CCN(C(=O)Cc3ccc(C4CC4)c(O)c3)[C@@H](C)C2)c1 (chirality)
COc1cccc([N-]C(=O)CN2CCN(C(=O)Cc3ccc(C4CC4)c(O)c3)[C@@H](C)C2)c1 (3D coordinates assigned)
COc1cccc([N-]C(=O)CN2CCN(C(=O)Cc3ccc(C4CC4)c(O)c3)[C@@H](C)C2)c1 (nonaromatic ring conformer: 341.09324209462636 kcal/mol)

>  <smiles>  (24) 
COc1cccc(NC(=O)CN2CCN(C(=O)Cc3ccc(C4CC4)c(O)c3)C(C)C2)c1

>  <score_type>  (24) 
oracle

>  <origin>  (24) 
adg

>  <m_score__min__energy>  (24) 
-11.58

>  <m_primary>  (24) 
energy

$$$$
24:0
     RDKit          3D

 22 23  0  0  0  0  0  0  0  0999 V2000
   60.5660   32.1320   48.4550 O   0  0  0  0  0  0  0  0  0  0  0  0
   61.3970   32.0550   47.5110 C   0  0  0  0  0  0  0  0  0  0  0  0
   61.9660   33.2140   47.0000 O   0  0  0  0  0  0  0  0  0  0  0  0
   61.8100   30.7210   46.9810 C   0  0  0  0  0  0  0  0  0  0  0  0
   60.6250   29.8050   46.9110 C   0  0  0  0  0  0  0  0  0  0  0  0
   59.5030   30.1450   46.1440 C   0  0  0  0  0  0  0  0  0  0  0  0
   58.4230   29.2580   46.0690 C   0  0  0  0  0  0  0  0  0  0  0  0
   57.2860   29.5800   45.3130 C   0  0  0  0  0  0  0  0  0  0  0  0
   56.2100   28.6880   45.2430 C   0  0  0  0  0  0  0  0  0  0  0  0
   55.0890   29.0170   44.4910 O   0  0  0  0  0  0  0  0  0  0  0  0
   56.2630   27.4690   45.9280 C   0  0  0  0  0  0  0  0  0  0  0  0
   55.1950   26.5830   45.8580 O   0  0  0  0  0  0  0  0  0  0  0  0
   57.3920   27.1360   46.6840 C   0  0  0  0  0  0  0  0  0  0  0  0
   58.4810   28.0250   46.7620 C   0  0  0  0  0  0  0  0  0  0  0  0
   59.6350   27.7230   47.5110 C   0  0  0  0  0  0  0  0  0  0  0  0
   59.7320   26.6340   48.1400 O   0  0  0  0  0  0  0  0  0  0  0  0
   60.6630   28.6090   47.5590 N   0  0  0  0  0  0  0  0  0  0  0  0
   62.2339   30.8451   45.9736 H   0  0  0  0  0  0  0  0  0  0  0  0
   62.5635   30.2842   47.6529 H   0  0  0  0  0  0  0  0  0  0  0  0
   59.4711   31.1029   45.6042 H   0  0  0  0  0  0  0  0  0  0  0  0
   57.2401   30.5373   44.7732 H   0  0  0  0  0  0  0  0  0  0  0  0
   57.4291   26.1759   47.2196 H   0  0  0  0  0  0  0  0  0  0  0  0
  1  2  2  0
  2  3  1  0
  2  4  1  0
  4  5  1  0
  5  6  2  0
  6  7  1  0
  7  8  2  0
  8  9  1  0
  9 10  1  0
  9 11  2  0
 11 12  1  0
 11 13  1  0
 13 14  2  0
 14 15  1  0
 15 16  2  0
 15 17  1  0
 17  5  1  0
 14  7  1  0
  4 18  1  0
  4 19  1  0
  6 20  1  0
  8 21  1  0
 13 22  1  0
M  CHG  4   3  -1  10  -1  12  -1  17  -1
M  END
>  <UniqueID>  (25) 
20

>  <SMILES>  (25) 
O=C([O-])Cc1cc2cc([O-])c([O-])cc2c(=O)[n-]1

>  <Energy>  (25) 
26.04831848483862

>  <Genealogy>  (25) 
O=C([O-])Cc1cc2cc([O-])c([O-])cc2c(=O)[n-]1 (protonated)
O=C([O-])Cc1cc2cc([O-])c([O-])cc2c(=O)[n-]1 (3D coordinates assigned)
O=C([O-])Cc1cc2cc([O-])c([O-])cc2c(=O)[n-]1 (optimized conformer: 26.04831848483862 kcal/mol)

>  <smiles>  (25) 
O=C(O)Cc1cc2cc(O)c(O)cc2c(=O)[nH]1

>  <score_type>  (25) 
oracle

>  <origin>  (25) 
adg

>  <m_score__min__energy>  (25) 
-15.52

>  <m_primary>  (25) 
energy

$$$$
25:0
     RDKit          3D

 47 49  0  0  0  0  0  0  0  0999 V2000
   55.7590   24.2070   44.4470 C   0  0  0  0  0  0  0  0  0  0  0  0
   55.0150   25.0470   45.8310 S   0  0  0  0  0  0  0  0  0  0  0  0
   55.2650   24.2610   47.0870 O   0  0  0  0  0  0  0  0  0  0  0  0
   53.5330   25.1270   45.5990 O   0  0  0  0  0  0  0  0  0  0  0  0
   55.6350   26.6650   46.0050 N   0  0  0  0  0  0  0  0  0  0  0  0
   57.0240   26.7680   45.5540 C   0  0  0  0  0  0  0  0  0  0  0  0
   57.4790   28.2050   45.5090 C   0  0  0  0  0  0  0  0  0  0  0  0
   58.8100   28.5300   45.8180 C   0  0  0  0  0  0  0  0  0  0  0  0
   59.2480   29.8640   45.7930 C   0  0  0  0  0  0  0  0  0  0  0  0
   60.6460   30.2040   46.1380 C   0  0  0  0  0  0  0  0  0  0  0  0
   61.5910   29.5630   45.6010 O   0  0  0  0  0  0  0  0  0  0  0  0
   60.9500   31.2500   47.0760 N   0  0  0  0  0  0  0  0  0  0  0  0
   60.3270   31.2340   48.4080 C   0  0  0  0  0  0  0  0  0  0  0  0
   60.8760   32.3520   49.3030 C   0  0  0  0  0  0  0  0  0  0  0  0
   62.3410   32.4010   49.2210 N   0  0  0  0  0  0  0  0  0  0  0  0
   63.0860   32.8910   50.3490 C   0  0  0  0  0  0  0  0  0  0  0  0
   62.6160   33.8330   51.0440 O   0  0  0  0  0  0  0  0  0  0  0  0
   64.3900   32.3190   50.7230 C   0  0  0  0  0  0  0  0  0  0  0  0
   65.6340   32.7950   50.3570 C   0  0  0  0  0  0  0  0  0  0  0  0
   66.5440   31.9250   50.9150 C   0  0  0  0  0  0  0  0  0  0  0  0
   65.8040   30.9710   51.5820 C   0  0  0  0  0  0  0  0  0  0  0  0
   64.5230   31.2300   51.4450 O   0  0  0  0  0  0  0  0  0  0  0  0
   63.0140   32.2790   47.9150 C   0  0  0  0  0  0  0  0  0  0  0  0
   62.0020   32.2250   46.7670 C   0  0  0  0  0  0  0  0  0  0  0  0
   58.3320   30.8790   45.4770 C   0  0  0  0  0  0  0  0  0  0  0  0
   57.0060   30.5630   45.1680 C   0  0  0  0  0  0  0  0  0  0  0  0
   56.5770   29.2340   45.1810 C   0  0  0  0  0  0  0  0  0  0  0  0
   55.2530   28.9410   44.8710 O   0  0  0  0  0  0  0  0  0  0  0  0
   56.4462   23.4311   44.8153 H   0  0  0  0  0  0  0  0  0  0  0  0
   54.9727   23.7402   43.8356 H   0  0  0  0  0  0  0  0  0  0  0  0
   56.3174   24.9312   43.8356 H   0  0  0  0  0  0  0  0  0  0  0  0
   57.6688   26.2093   46.2483 H   0  0  0  0  0  0  0  0  0  0  0  0
   57.0919   26.3498   44.5389 H   0  0  0  0  0  0  0  0  0  0  0  0
   59.5175   27.7304   46.0826 H   0  0  0  0  0  0  0  0  0  0  0  0
   59.2410   31.3680   48.2955 H   0  0  0  0  0  0  0  0  0  0  0  0
   60.5573   30.2691   48.8834 H   0  0  0  0  0  0  0  0  0  0  0  0
   60.4622   33.3163   48.9732 H   0  0  0  0  0  0  0  0  0  0  0  0
   60.5836   32.1512   50.3443 H   0  0  0  0  0  0  0  0  0  0  0  0
   65.8523   33.6839   49.7469 H   0  0  0  0  0  0  0  0  0  0  0  0
   67.6403   31.9798   50.8433 H   0  0  0  0  0  0  0  0  0  0  0  0
   66.2225   30.1225   52.1432 H   0  0  0  0  0  0  0  0  0  0  0  0
   63.6736   33.1473   47.7699 H   0  0  0  0  0  0  0  0  0  0  0  0
   63.5927   31.3436   47.9102 H   0  0  0  0  0  0  0  0  0  0  0  0
   61.5503   33.2188   46.6316 H   0  0  0  0  0  0  0  0  0  0  0  0
   62.5170   31.9225   45.8433 H   0  0  0  0  0  0  0  0  0  0  0  0
   58.6593   31.9292   45.4725 H   0  0  0  0  0  0  0  0  0  0  0  0
   56.2971   31.3647   44.9134 H   0  0  0  0  0  0  0  0  0  0  0  0
  1  2  1  0
  2  3  2  0
  2  4  2  0
  2  5  1  0
  5  6  1  0
  6  7  1  0
  7  8  2  0
  8  9  1  0
  9 10  1  0
 10 11  2  0
 10 12  1  0
 12 13  1  0
 13 14  1  0
 14 15  1  0
 15 16  1  0
 16 17  2  0
 16 18  1  0
 18 19  2  0
 19 20  1  0
 20 21  2  0
 21 22  1  0
 15 23  1  0
 23 24  1  0
  9 25  2  0
 25 26  1  0
 26 27  2  0
 27 28  1  0
 27  7  1  0
 24 12  1  0
 22 18  1  0
  1 29  1  0
  1 30  1  0
  1 31  1  0
  6 32  1  0
  6 33  1  0
  8 34  1  0
 13 35  1  0
 13 36  1  0
 14 37  1  0
 14 38  1  0
 19 39  1  0
 20 40  1  0
 21 41  1  0
 23 42  1  0
 23 43  1  0
 24 44  1  0
 24 45  1  0
 25 46  1  0
 26 47  1  0
M  CHG  2   5  -1  28  -1
M  END
>  <UniqueID>  (26) 
21

>  <SMILES>  (26) 
CS(=O)(=O)[N-]Cc1cc(C(=O)N2CCN(C(=O)c3ccco3)CC2)ccc1[O-]

>  <Energy>  (26) 
77.85309146065315

>  <Genealogy>  (26) 
CS(=O)(=O)[N-]Cc1cc(C(=O)N2CCN(C(=O)c3ccco3)CC2)ccc1[O-] (protonated)
CS(=O)(=O)[N-]Cc1cc(C(=O)N2CCN(C(=O)c3ccco3)CC2)ccc1[O-] (3D coordinates assigned)
CS(=O)(=O)[N-]Cc1cc(C(=O)N2CCN(C(=O)c3ccco3)CC2)ccc1[O-] (nonaromatic ring conformer: 77.85309146065315 kcal/mol)

>  <smiles>  (26) 
CS(=O)(=O)NCc1cc(C(=O)N2CCN(C(=O)c3ccco3)CC2)ccc1O

>  <score_type>  (26) 
oracle

>  <origin>  (26) 
adg

>  <m_score__min__energy>  (26) 
-12.99

>  <m_primary>  (26) 
energy

$$$$
26:0
     RDKit          3D

 24 25  0  0  0  0  0  0  0  0999 V2000
   57.0230   32.8670   45.6690 O   0  0  0  0  0  0  0  0  0  0  0  0
   57.4350   31.8490   45.0380 C   0  0  0  0  0  0  0  0  0  0  0  0
   58.2560   30.8700   45.5870 C   0  0  0  0  0  0  0  0  0  0  0  0
   58.4660   29.9490   44.5710 C   0  0  0  0  0  0  0  0  0  0  0  0
   59.2960   28.7090   44.6980 C   0  0  0  0  0  0  0  0  0  0  0  0
   58.5130   27.6060   45.3180 C   0  0  0  0  0  0  0  0  0  0  0  0
   59.2230   26.5040   45.7570 C   0  0  0  0  0  0  0  0  0  0  0  0
   58.5700   25.4290   46.3480 C   0  0  0  0  0  0  0  0  0  0  0  0
   57.1990   25.5040   46.4760 C   0  0  0  0  0  0  0  0  0  0  0  0
   56.4920   26.6040   46.0360 C   0  0  0  0  0  0  0  0  0  0  0  0
   55.0950   26.6640   46.1740 O   0  0  0  0  0  0  0  0  0  0  0  0
   57.1360   27.6760   45.4480 C   0  0  0  0  0  0  0  0  0  0  0  0
   57.7940   30.3710   43.4630 N   0  0  0  0  0  0  0  0  0  0  0  0
   57.1720   31.5190   43.7460 N   0  0  0  0  0  0  0  0  0  0  0  0
   58.6550   30.8335   46.6114 H   0  0  0  0  0  0  0  0  0  0  0  0
   59.6300   28.3954   43.6979 H   0  0  0  0  0  0  0  0  0  0  0  0
   60.1609   28.9298   45.3407 H   0  0  0  0  0  0  0  0  0  0  0  0
   60.3161   26.4778   45.6373 H   0  0  0  0  0  0  0  0  0  0  0  0
   59.1273   24.5489   46.7014 H   0  0  0  0  0  0  0  0  0  0  0  0
   56.6563   24.6671   46.9398 H   0  0  0  0  0  0  0  0  0  0  0  0
   54.7670   26.7200   47.1300 H   0  0  0  0  0  0  0  0  0  0  0  0
   56.5747   28.5539   45.0956 H   0  0  0  0  0  0  0  0  0  0  0  0
   57.7960   29.8480   42.5620 H   0  0  0  0  0  0  0  0  0  0  0  0
   56.5770   32.0660   43.0650 H   0  0  0  0  0  0  0  0  0  0  0  0
  1  2  2  0
  2  3  1  0
  3  4  2  0
  4  5  1  0
  5  6  1  0
  6  7  2  0
  7  8  1  0
  8  9  2  0
  9 10  1  0
 10 11  1  0
 10 12  2  0
  4 13  1  0
 13 14  1  0
 14  2  1  0
 12  6  1  0
  3 15  1  0
  5 16  1  0
  5 17  1  0
  7 18  1  0
  8 19  1  0
  9 20  1  0
 11 21  1  0
 12 22  1  0
 13 23  1  0
 14 24  1  0
M  END
>  <smiles>  (27) 
O=c1cc(Cc2cccc(O)c2)[nH][nH]1

>  <score_type>  (27) 
oracle

>  <origin>  (27) 
adg

>  <m_score__min__energy>  (27) 
-7.0199999999999996

>  <m_primary>  (27) 
energy

$$$$
27:0
     RDKit          3D

 38 41  0  0  0  0  0  0  0  0999 V2000
   58.7790   32.6370   48.7910 C   0  0  0  0  0  0  0  0  0  0  0  0
   58.9140   33.3580   47.4830 C   0  0  0  0  0  0  0  0  0  0  0  0
   59.5290   34.6190   47.4300 C   0  0  0  0  0  0  0  0  0  0  0  0
   59.6240   35.3050   46.2150 C   0  0  0  0  0  0  0  0  0  0  0  0
   59.0930   34.7450   45.0500 C   0  0  0  0  0  0  0  0  0  0  0  0
   58.4640   33.4960   45.0970 C   0  0  0  0  0  0  0  0  0  0  0  0
   57.7800   32.7790   43.6030 S   0  0  0  0  0  0  0  0  0  0  0  0
   57.8630   31.1210   44.2640 C   0  0  0  0  0  0  0  0  0  0  0  0
   56.7200   30.4270   44.5010 N   0  0  0  0  0  0  0  0  0  0  0  0
   56.7550   29.1690   45.0130 C   0  0  0  0  0  0  0  0  0  0  0  0
   55.5620   28.4850   45.2340 O   0  0  0  0  0  0  0  0  0  0  0  0
   57.9880   28.5640   45.3000 C   0  0  0  0  0  0  0  0  0  0  0  0
   58.0430   27.1990   45.8700 C   0  0  0  0  0  0  0  0  0  0  0  0
   57.8560   26.0360   45.2570 C   0  0  0  0  0  0  0  0  0  0  0  0
   57.5310   25.7780   43.9210 C   0  0  0  0  0  0  0  0  0  0  0  0
   57.3700   24.4420   43.5220 C   0  0  0  0  0  0  0  0  0  0  0  0
   57.5230   23.3940   44.4520 C   0  0  0  0  0  0  0  0  0  0  0  0
   57.8320   23.6710   45.7930 C   0  0  0  0  0  0  0  0  0  0  0  0
   57.9900   25.0030   46.1770 C   0  0  0  0  0  0  0  0  0  0  0  0
   58.2540   25.4010   47.3810 N   0  0  0  0  0  0  0  0  0  0  0  0
   58.2980   26.8180   47.2510 C   0  0  0  0  0  0  0  0  0  0  0  0
   58.5460   27.6050   48.2030 O   0  0  0  0  0  0  0  0  0  0  0  0
   59.1580   29.3070   45.0550 C   0  0  0  0  0  0  0  0  0  0  0  0
   60.2930   28.8320   45.3270 O   0  0  0  0  0  0  0  0  0  0  0  0
   59.0670   30.5610   44.5410 N   0  0  0  0  0  0  0  0  0  0  0  0
   58.3650   32.8080   46.3130 C   0  0  0  0  0  0  0  0  0  0  0  0
   58.9125   33.3498   49.6181 H   0  0  0  0  0  0  0  0  0  0  0  0
   57.7799   32.1815   48.8572 H   0  0  0  0  0  0  0  0  0  0  0  0
   59.5456   31.8509   48.8572 H   0  0  0  0  0  0  0  0  0  0  0  0
   59.9374   35.0688   48.3470 H   0  0  0  0  0  0  0  0  0  0  0  0
   60.1176   36.2873   46.1763 H   0  0  0  0  0  0  0  0  0  0  0  0
   59.1695   35.2864   44.0955 H   0  0  0  0  0  0  0  0  0  0  0  0
   54.7380   28.9710   45.5650 H   0  0  0  0  0  0  0  0  0  0  0  0
   57.4049   26.6008   43.2019 H   0  0  0  0  0  0  0  0  0  0  0  0
   57.1225   24.2111   42.4754 H   0  0  0  0  0  0  0  0  0  0  0  0
   57.3993   22.3512   44.1245 H   0  0  0  0  0  0  0  0  0  0  0  0
   57.9469   22.8570   46.5239 H   0  0  0  0  0  0  0  0  0  0  0  0
   57.8557   31.8338   46.3518 H   0  0  0  0  0  0  0  0  0  0  0  0
  1  2  1  0
  2  3  2  0
  3  4  1  0
  4  5  2  0
  5  6  1  0
  6  7  1  0
  7  8  1  0
  8  9  2  0
  9 10  1  0
 10 11  1  0
 10 12  2  0
 12 13  1  0
 13 14  2  0
 14 15  1  0
 15 16  2  0
 16 17  1  0
 17 18  2  0
 18 19  1  0
 19 20  2  0
 20 21  1  0
 21 22  2  0
 12 23  1  0
 23 24  2  0
 23 25  1  0
  6 26  2  0
 26  2  1  0
 25  8  1  0
 21 13  1  0
 19 14  1  0
  1 27  1  0
  1 28  1  0
  1 29  1  0
  3 30  1  0
  4 31  1  0
  5 32  1  0
 11 33  1  0
 15 34  1  0
 16 35  1  0
 17 36  1  0
 18 37  1  0
 26 38  1  0
M  CHG  1  25  -1
M  END
>  <UniqueID>  (28) 
22

>  <SMILES>  (28) 
Cc1cccc(Sc2nc(O)c(C3=c4ccccc4=NC3=O)c(=O)[n-]2)c1

>  <Energy>  (28) 
77.95868747787935

>  <Genealogy>  (28) 
Cc1cccc(Sc2nc(O)c(C3=c4ccccc4=NC3=O)c(=O)[n-]2)c1 (protonated)
Cc1cccc(Sc2nc(O)c(C3=c4ccccc4=NC3=O)c(=O)[n-]2)c1 (3D coordinates assigned)
Cc1cccc(Sc2nc(O)c(C3=c4ccccc4=NC3=O)c(=O)[n-]2)c1 (nonaromatic ring conformer: 77.95868747787935 kcal/mol)

>  <smiles>  (28) 
Cc1cccc(Sc2nc(O)c(C3=c4ccccc4=NC3=O)c(=O)[nH]2)c1

>  <score_type>  (28) 
oracle

>  <origin>  (28) 
adg

>  <m_score__min__energy>  (28) 
-11.369999999999999

>  <m_primary>  (28) 
energy

$$$$
28:0
     RDKit          3D

 59 63  0  0  0  0  0  0  0  0999 V2000
   58.8733   34.4635   43.8235 H   0  0  0  0  0  0  0  0  0  0  0  0
   58.4600   33.5540   44.2840 C   0  0  0  0  0  0  0  0  0  0  0  0
   57.6560   32.3150   43.4760 S   0  0  0  0  0  0  0  0  0  0  0  0
   57.4220   31.4190   44.8720 C   0  0  0  0  0  0  0  0  0  0  0  0
   56.8110   30.2720   44.8980 N   0  0  0  0  0  0  0  0  0  0  0  0
   57.2110   29.0750   44.2110 C   0  0  0  0  0  0  0  0  0  0  0  0
   56.8820   28.9300   43.0040 O   0  0  0  0  0  0  0  0  0  0  0  0
   58.0000   28.0080   44.8660 C   0  0  0  0  0  0  0  0  0  0  0  0
   57.5310   26.6900   44.7700 C   0  0  0  0  0  0  0  0  0  0  0  0
   56.6006   26.4813   44.2216 H   0  0  0  0  0  0  0  0  0  0  0  0
   58.2340   25.6400   45.3640 C   0  0  0  0  0  0  0  0  0  0  0  0
   57.7650   24.3720   45.2750 F   0  0  0  0  0  0  0  0  0  0  0  0
   59.4260   25.8960   46.0450 C   0  0  0  0  0  0  0  0  0  0  0  0
   59.9789   25.0686   46.5138 H   0  0  0  0  0  0  0  0  0  0  0  0
   59.9170   27.1990   46.1320 C   0  0  0  0  0  0  0  0  0  0  0  0
   60.8703   27.3878   46.6473 H   0  0  0  0  0  0  0  0  0  0  0  0
   59.2050   28.2760   45.5670 C   0  0  0  0  0  0  0  0  0  0  0  0
   59.8170   29.6630   45.6220 C   0  0  0  0  0  0  0  0  0  0  0  0
   60.8466   29.6138   45.2380 H   0  0  0  0  0  0  0  0  0  0  0  0
   59.1990   30.3350   45.0083 H   0  0  0  0  0  0  0  0  0  0  0  0
   59.8450   30.1940   47.0010 N   0  0  0  0  0  0  0  0  0  0  0  0
   58.9240   29.4280   47.8660 C   0  0  0  0  0  0  0  0  0  0  0  0
   57.9113   29.4673   47.4384 H   0  0  0  0  0  0  0  0  0  0  0  0
   59.2763   28.3874   47.9216 H   0  0  0  0  0  0  0  0  0  0  0  0
   58.8940   30.0170   49.2930 C   0  0  0  0  0  0  0  0  0  0  0  0
   57.9018   30.4545   49.4775 H   0  0  0  0  0  0  0  0  0  0  0  0
   59.1044   29.2048   50.0043 H   0  0  0  0  0  0  0  0  0  0  0  0
   59.9140   31.0580   49.4710 N   0  0  0  0  0  0  0  0  0  0  0  0
   59.9640   31.2910   50.4910 H   0  0  0  0  0  0  0  0  0  0  0  0
   61.2280   30.5600   49.0520 C   0  0  0  0  0  0  0  0  0  0  0  0
   61.9779   31.3504   49.2036 H   0  0  0  0  0  0  0  0  0  0  0  0
   61.4767   29.6740   49.6546 H   0  0  0  0  0  0  0  0  0  0  0  0
   61.2140   30.1560   47.5640 C   0  0  0  0  0  0  0  0  0  0  0  0
   61.8515   30.8521   46.9992 H   0  0  0  0  0  0  0  0  0  0  0  0
   61.5901   29.1254   47.4841 H   0  0  0  0  0  0  0  0  0  0  0  0
   57.9300   32.0380   45.9600 N   0  0  0  0  0  0  0  0  0  0  0  0
   58.5110   33.2260   45.6420 C   0  0  0  0  0  0  0  0  0  0  0  0
   59.1670   34.0470   46.6800 C   0  0  0  0  0  0  0  0  0  0  0  0
   59.2820   35.2890   46.4850 O   0  0  0  0  0  0  0  0  0  0  0  0
   59.6750   33.4640   47.8930 N   0  0  0  0  0  0  0  0  0  0  0  0
   59.6880   32.4240   47.9930 H   0  0  0  0  0  0  0  0  0  0  0  0
   60.2180   34.2960   48.9740 C   0  0  0  0  0  0  0  0  0  0  0  0
   59.8688   35.3218   48.7849 H   0  0  0  0  0  0  0  0  0  0  0  0
   61.7640   34.2280   48.9880 C   0  0  0  0  0  0  0  0  0  0  0  0
   62.1334   33.5766   48.1822 H   0  0  0  0  0  0  0  0  0  0  0  0
   62.2310   35.2105   48.8250 H   0  0  0  0  0  0  0  0  0  0  0  0
   62.0890   33.6580   50.3150 C   0  0  0  0  0  0  0  0  0  0  0  0
   63.3630   33.3700   50.8080 C   0  0  0  0  0  0  0  0  0  0  0  0
   64.2565   33.5567   50.1941 H   0  0  0  0  0  0  0  0  0  0  0  0
   63.4830   32.8380   52.1010 C   0  0  0  0  0  0  0  0  0  0  0  0
   64.4777   32.6053   52.5088 H   0  0  0  0  0  0  0  0  0  0  0  0
   62.3340   32.6020   52.8760 C   0  0  0  0  0  0  0  0  0  0  0  0
   62.4313   32.1838   53.8887 H   0  0  0  0  0  0  0  0  0  0  0  0
   61.0630   32.8990   52.3600 C   0  0  0  0  0  0  0  0  0  0  0  0
   60.1586   32.7178   52.9594 H   0  0  0  0  0  0  0  0  0  0  0  0
   60.9680   33.4290   51.0710 C   0  0  0  0  0  0  0  0  0  0  0  0
   59.7280   33.8160   50.3650 C   0  0  0  0  0  0  0  0  0  0  0  0
   59.0510   32.9549   50.2646 H   0  0  0  0  0  0  0  0  0  0  0  0
   59.1604   34.5899   50.9025 H   0  0  0  0  0  0  0  0  0  0  0  0
  1  2  1  0
  2  3  1  0
  3  4  1  0
  4  5  2  0
  5  6  1  0
  6  7  2  0
  6  8  1  0
  8  9  2  0
  9 10  1  0
  9 11  1  0
 11 12  1  0
 11 13  2  0
 13 14  1  0
 13 15  1  0
 15 16  1  0
 15 17  2  0
 17 18  1  0
 18 19  1  0
 18 20  1  0
 18 21  1  0
 21 22  1  0
 22 23  1  0
 22 24  1  0
 22 25  1  0
 25 26  1  0
 25 27  1  0
 25 28  1  0
 28 29  1  0
 28 30  1  0
 30 31  1  0
 30 32  1  0
 30 33  1  0
 33 34  1  0
 33 35  1  0
  4 36  1  0
 36 37  1  0
 37 38  1  0
 38 39  2  0
 38 40  1  0
 40 41  1  0
 40 42  1  0
 42 43  1  0
 42 44  1  0
 44 45  1  0
 44 46  1  0
 44 47  1  0
 47 48  2  0
 48 49  1  0
 48 50  1  0
 50 51  1  0
 50 52  2  0
 52 53  1  0
 52 54  1  0
 54 55  1  0
 54 56  2  0
 56 57  1  0
 57 58  1  0
 57 59  1  0
 37  2  2  0
 57 42  1  0
 17  8  1  0
 33 21  1  0
 56 47  1  0
M  CHG  1  36  -1
M  END
>  <UniqueID>  (29) 
23

>  <SMILES>  (29) 
O=C(NC1Cc2ccccc2C1)c1cs/c(=N/C(=O)c2cc(F)ccc2CN2CCNCC2)[n-]1

>  <Energy>  (29) 
116.47497659037603

>  <Genealogy>  (29) 
O=C(NC1Cc2ccccc2C1)c1csc(=NC(=O)c2cc(F)ccc2CN2CCNCC2)[n-]1 (protonated)
O=C(NC1Cc2ccccc2C1)c1cs/c(=N/C(=O)c2cc(F)ccc2CN2CCNCC2)[n-]1 (cis-trans isomerization)
O=C(NC1Cc2ccccc2C1)c1cs/c(=N/C(=O)c2cc(F)ccc2CN2CCNCC2)[n-]1 (3D coordinates assigned)
O=C(NC1Cc2ccccc2C1)c1cs/c(=N/C(=O)c2cc(F)ccc2CN2CCNCC2)[n-]1 (nonaromatic ring conformer: 116.47497659037603 kcal/mol)

>  <smiles>  (29) 
O=C(NC1Cc2ccccc2C1)c1csc(=NC(=O)c2cc(F)ccc2CN2CCNCC2)[nH]1

>  <score_type>  (29) 
oracle

>  <origin>  (29) 
adg

>  <m_score__min__energy>  (29) 
-12.33

>  <m_primary>  (29) 
energy

$$$$
29:0
     RDKit          3D

 50 52  0  0  0  0  0  0  0  0999 V2000
   55.1210   29.3310   44.5530 N   0  0  0  0  0  0  0  0  0  0  0  0
   56.6730   29.6860   43.8790 S   0  0  0  0  0  0  0  0  0  0  0  0
   56.4870   30.5550   42.6660 O   0  0  0  0  0  0  0  0  0  0  0  0
   57.3540   28.4100   43.4750 O   0  0  0  0  0  0  0  0  0  0  0  0
   57.6550   30.5210   45.0790 C   0  0  0  0  0  0  0  0  0  0  0  0
   58.5390   29.7950   45.8870 C   0  0  0  0  0  0  0  0  0  0  0  0
   59.3190   30.4520   46.8410 C   0  0  0  0  0  0  0  0  0  0  0  0
   59.2110   31.8370   47.0050 C   0  0  0  0  0  0  0  0  0  0  0  0
   58.3120   32.5740   46.2200 C   0  0  0  0  0  0  0  0  0  0  0  0
   58.2230   34.0410   46.4030 C   0  0  0  0  0  0  0  0  0  0  0  0
   59.2080   34.8170   46.8830 C   0  0  0  0  0  0  0  0  0  0  0  0
   60.1580   34.4060   47.9350 C   0  0  0  0  0  0  0  0  0  0  0  0
   59.8880   34.6300   49.1480 O   0  0  0  0  0  0  0  0  0  0  0  0
   61.3870   33.7630   47.5690 N   0  0  0  0  0  0  0  0  0  0  0  0
   62.4830   33.6030   48.4840 C   0  0  0  0  0  0  0  0  0  0  0  0
   63.5070   32.6930   48.1810 C   0  0  0  0  0  0  0  0  0  0  0  0
   64.6160   32.5690   49.0220 C   0  0  0  0  0  0  0  0  0  0  0  0
   64.7100   33.3490   50.1840 C   0  0  0  0  0  0  0  0  0  0  0  0
   66.1560   33.2670   51.1950 S   0  0  0  0  0  0  0  0  0  0  0  0
   67.3770   33.2920   50.3170 O   0  0  0  0  0  0  0  0  0  0  0  0
   66.2020   34.4710   52.0930 O   0  0  0  0  0  0  0  0  0  0  0  0
   66.1740   31.8120   52.1650 N   0  0  0  0  0  0  0  0  0  0  0  0
   64.9360   31.0350   51.9560 C   0  0  0  0  0  0  0  0  0  0  0  0
   65.1450   29.5670   52.3580 C   0  0  0  0  0  0  0  0  0  0  0  0
   66.1540   28.9020   51.6070 O   0  0  0  0  0  0  0  0  0  0  0  0
   67.1360   29.7750   51.0650 C   0  0  0  0  0  0  0  0  0  0  0  0
   67.4020   31.0170   51.9390 C   0  0  0  0  0  0  0  0  0  0  0  0
   63.6620   34.2150   50.5190 C   0  0  0  0  0  0  0  0  0  0  0  0
   62.5530   34.3390   49.6790 C   0  0  0  0  0  0  0  0  0  0  0  0
   57.5650   31.9120   45.2280 C   0  0  0  0  0  0  0  0  0  0  0  0
   55.2840   28.9500   45.5120 H   0  0  0  0  0  0  0  0  0  0  0  0
   58.6192   28.7042   45.7698 H   0  0  0  0  0  0  0  0  0  0  0  0
   60.0203   29.8788   47.4652 H   0  0  0  0  0  0  0  0  0  0  0  0
   59.8336   32.3503   47.7526 H   0  0  0  0  0  0  0  0  0  0  0  0
   57.2787   34.5318   46.1247 H   0  0  0  0  0  0  0  0  0  0  0  0
   59.3142   35.8283   46.4634 H   0  0  0  0  0  0  0  0  0  0  0  0
   61.5850   33.6440   46.5500 H   0  0  0  0  0  0  0  0  0  0  0  0
   63.4363   32.0729   47.2752 H   0  0  0  0  0  0  0  0  0  0  0  0
   65.4173   31.8580   48.7722 H   0  0  0  0  0  0  0  0  0  0  0  0
   64.1306   31.4665   52.5685 H   0  0  0  0  0  0  0  0  0  0  0  0
   64.6670   31.0761   50.8902 H   0  0  0  0  0  0  0  0  0  0  0  0
   65.4269   29.5356   53.4208 H   0  0  0  0  0  0  0  0  0  0  0  0
   64.1991   29.0428   52.1565 H   0  0  0  0  0  0  0  0  0  0  0  0
   68.0775   29.2165   50.9574 H   0  0  0  0  0  0  0  0  0  0  0  0
   66.7524   30.1345   50.0988 H   0  0  0  0  0  0  0  0  0  0  0  0
   67.7958   30.6883   52.9120 H   0  0  0  0  0  0  0  0  0  0  0  0
   68.1259   31.6546   51.4103 H   0  0  0  0  0  0  0  0  0  0  0  0
   63.7123   34.8008   51.4487 H   0  0  0  0  0  0  0  0  0  0  0  0
   61.7307   35.0158   49.9541 H   0  0  0  0  0  0  0  0  0  0  0  0
   56.9054   32.4905   44.5644 H   0  0  0  0  0  0  0  0  0  0  0  0
  1  2  1  0
  2  3  2  0
  2  4  2  0
  2  5  1  0
  5  6  2  0
  6  7  1  0
  7  8  2  0
  8  9  1  0
  9 10  1  0
 10 11  2  3
 11 12  1  0
 12 13  2  0
 12 14  1  0
 14 15  1  0
 15 16  2  0
 16 17  1  0
 17 18  2  0
 18 19  1  0
 19 20  2  0
 19 21  2  0
 19 22  1  0
 22 23  1  0
 23 24  1  0
 24 25  1  0
 25 26  1  0
 26 27  1  0
 18 28  1  0
 28 29  2  0
  9 30  2  0
 30  5  1  0
 29 15  1  0
 27 22  1  0
  1 31  1  0
  6 32  1  0
  7 33  1  0
  8 34  1  0
 10 35  1  0
 11 36  1  0
 14 37  1  0
 16 38  1  0
 17 39  1  0
 23 40  1  0
 23 41  1  0
 24 42  1  0
 24 43  1  0
 26 44  1  0
 26 45  1  0
 27 46  1  0
 27 47  1  0
 28 48  1  0
 29 49  1  0
 30 50  1  0
M  CHG  1   1  -1
M  END
>  <UniqueID>  (30) 
24

>  <SMILES>  (30) 
[NH-]S(=O)(=O)c1cccc(C=CC(=O)Nc2ccc(S(=O)(=O)N3CCOCC3)cc2)c1

>  <Energy>  (30) 
73.00805102812205

>  <Genealogy>  (30) 
[NH-]S(=O)(=O)c1cccc(C=CC(=O)Nc2ccc(S(=O)(=O)N3CCOCC3)cc2)c1 (protonated)
[NH-]S(=O)(=O)c1cccc(C=CC(=O)Nc2ccc(S(=O)(=O)N3CCOCC3)cc2)c1 (3D coordinates assigned)
[NH-]S(=O)(=O)c1cccc(C=CC(=O)Nc2ccc(S(=O)(=O)N3CCOCC3)cc2)c1 (nonaromatic ring conformer: 73.00805102812205 kcal/mol)

>  <smiles>  (30) 
NS(=O)(=O)c1cccc(C=CC(=O)Nc2ccc(S(=O)(=O)N3CCOCC3)cc2)c1

>  <score_type>  (30) 
oracle

>  <origin>  (30) 
adg

>  <m_score__min__energy>  (30) 
-12.32

>  <m_primary>  (30) 
energy

$$$$
30:0
     RDKit          3D

 48 51  0  0  0  0  0  0  0  0999 V2000
   59.1292   27.9607   47.2910 H   0  0  0  0  0  0  0  0  0  0  0  0
   58.2040   28.0370   46.7010 C   0  0  0  0  0  0  0  0  0  0  0  0
   57.4070   26.9490   46.5520 N   0  0  0  0  0  0  0  0  0  0  0  0
   56.2550   27.0100   45.8330 C   0  0  0  0  0  0  0  0  0  0  0  0
   55.4920   25.9670   45.6990 N   0  0  0  0  0  0  0  0  0  0  0  0
   55.7620   24.6520   46.2830 C   0  0  0  0  0  0  0  0  0  0  0  0
   56.5175   24.7563   47.0757 H   0  0  0  0  0  0  0  0  0  0  0  0
   54.8271   24.2497   46.7001 H   0  0  0  0  0  0  0  0  0  0  0  0
   56.2740   23.7030   45.2330 C   0  0  0  0  0  0  0  0  0  0  0  0
   57.3580   22.8510   45.5070 C   0  0  0  0  0  0  0  0  0  0  0  0
   57.8484   22.8870   46.4910 H   0  0  0  0  0  0  0  0  0  0  0  0
   57.8150   21.9580   44.5330 C   0  0  0  0  0  0  0  0  0  0  0  0
   58.6632   21.2929   44.7526 H   0  0  0  0  0  0  0  0  0  0  0  0
   57.1960   21.9090   43.2810 C   0  0  0  0  0  0  0  0  0  0  0  0
   57.5588   21.2077   42.5151 H   0  0  0  0  0  0  0  0  0  0  0  0
   56.1160   22.7510   43.0020 C   0  0  0  0  0  0  0  0  0  0  0  0
   55.6287   22.7113   42.0166 H   0  0  0  0  0  0  0  0  0  0  0  0
   55.6540   23.6440   43.9740 C   0  0  0  0  0  0  0  0  0  0  0  0
   54.8016   24.3028   43.7517 H   0  0  0  0  0  0  0  0  0  0  0  0
   55.8940   28.1780   45.2460 N   0  0  0  0  0  0  0  0  0  0  0  0
   56.6570   29.2960   45.3620 C   0  0  0  0  0  0  0  0  0  0  0  0
   56.2750   30.3570   44.7980 O   0  0  0  0  0  0  0  0  0  0  0  0
   57.8540   29.2600   46.1060 C   0  0  0  0  0  0  0  0  0  0  0  0
   58.7130   30.4630   46.2570 C   0  0  0  0  0  0  0  0  0  0  0  0
   59.6720   30.5690   47.1510 O   0  0  0  0  0  0  0  0  0  0  0  0
   60.2420   31.7450   47.0270 C   0  0  0  0  0  0  0  0  0  0  0  0
   61.3560   32.2120   47.8630 C   0  0  0  0  0  0  0  0  0  0  0  0
   61.7540   33.4050   47.7620 O   0  0  0  0  0  0  0  0  0  0  0  0
   61.9910   31.3140   48.7870 N   0  0  0  0  0  0  0  0  0  0  0  0
   61.6870   30.3150   48.7960 H   0  0  0  0  0  0  0  0  0  0  0  0
   63.0840   31.7450   49.6650 C   0  0  1  0  0  0  0  0  0  0  0  0
   63.4724   30.8354   50.1464 H   0  0  0  0  0  0  0  0  0  0  0  0
   64.1990   32.4410   48.8610 C   0  0  0  0  0  0  0  0  0  0  0  0
   64.7986   31.6882   48.3283 H   0  0  0  0  0  0  0  0  0  0  0  0
   63.7607   33.1296   48.1237 H   0  0  0  0  0  0  0  0  0  0  0  0
   65.0860   33.2110   49.8370 C   0  0  0  0  0  0  0  0  0  0  0  0
   65.9029   32.5711   50.2020 H   0  0  0  0  0  0  0  0  0  0  0  0
   65.5542   34.0859   49.3623 H   0  0  0  0  0  0  0  0  0  0  0  0
   64.0210   33.6760   51.1700 S   0  0  0  0  0  0  0  0  0  0  0  0
   63.7290   35.1500   51.1580 O   0  0  0  0  0  0  0  0  0  0  0  0
   64.5820   33.2520   52.4980 O   0  0  0  0  0  0  0  0  0  0  0  0
   62.5940   32.7280   50.7340 C   0  0  0  0  0  0  0  0  0  0  0  0
   62.2072   32.1861   51.6096 H   0  0  0  0  0  0  0  0  0  0  0  0
   61.7724   33.3614   50.3682 H   0  0  0  0  0  0  0  0  0  0  0  0
   59.6380   32.4550   46.0080 C   0  0  0  0  0  0  0  0  0  0  0  0
   59.8920   33.4685   45.6641 H   0  0  0  0  0  0  0  0  0  0  0  0
   58.6510   31.6310   45.5110 C   0  0  0  0  0  0  0  0  0  0  0  0
   57.9549   31.8544   44.6891 H   0  0  0  0  0  0  0  0  0  0  0  0
  1  2  1  0
  2  3  1  0
  3  4  1  0
  4  5  2  0
  5  6  1  0
  6  7  1  0
  6  8  1  0
  6  9  1  0
  9 10  2  0
 10 11  1  0
 10 12  1  0
 12 13  1  0
 12 14  2  0
 14 15  1  0
 14 16  1  0
 16 17  1  0
 16 18  2  0
 18 19  1  0
  4 20  1  0
 20 21  1  0
 21 22  2  0
 21 23  1  0
 23 24  1  0
 24 25  1  0
 25 26  1  0
 26 27  1  0
 27 28  2  0
 27 29  1  0
 29 30  1  0
 29 31  1  0
 31 32  1  1
 31 33  1  0
 33 34  1  0
 33 35  1  0
 33 36  1  0
 36 37  1  0
 36 38  1  0
 36 39  1  0
 39 40  2  0
 39 41  2  0
 39 42  1  0
 42 43  1  0
 42 44  1  0
 26 45  2  0
 45 46  1  0
 45 47  1  0
 47 48  1  0
 23  2  2  0
 47 24  2  0
 18  9  1  0
 42 31  1  0
M  CHG  2   3  -1  20  -1
M  END
>  <UniqueID>  (31) 
25

>  <SMILES>  (31) 
O=C(N[C@H]1CCS(=O)(=O)C1)c1ccc(-c2c[n-]/c(=N\Cc3ccccc3)[n-]c2=O)o1

>  <Energy>  (31) 
75.13426767419521

>  <Genealogy>  (31) 
O=C(NC1CCS(=O)(=O)C1)c1ccc(-c2c[n-]c(=NCc3ccccc3)[n-]c2=O)o1 (protonated)
O=C(N[C@H]1CCS(=O)(=O)C1)c1ccc(-c2c[n-]c(=NCc3ccccc3)[n-]c2=O)o1 (chirality)
O=C(N[C@H]1CCS(=O)(=O)C1)c1ccc(-c2c[n-]/c(=N\Cc3ccccc3)[n-]c2=O)o1 (cis-trans isomerization)
O=C(N[C@H]1CCS(=O)(=O)C1)c1ccc(-c2c[n-]/c(=N\Cc3ccccc3)[n-]c2=O)o1 (3D coordinates assigned)
O=C(N[C@H]1CCS(=O)(=O)C1)c1ccc(-c2c[n-]/c(=N\Cc3ccccc3)[n-]c2=O)o1 (nonaromatic ring conformer: 75.13426767419521 kcal/mol)

>  <smiles>  (31) 
O=C(NC1CCS(=O)(=O)C1)c1ccc(-c2c[nH]c(=NCc3ccccc3)[nH]c2=O)o1

>  <score_type>  (31) 
oracle

>  <origin>  (31) 
adg

>  <m_score__min__energy>  (31) 
-11.69

>  <m_primary>  (31) 
energy

$$$$
31:0
     RDKit          3D

 55 58  0  0  0  0  0  0  0  0999 V2000
   57.9970   29.6880   44.1620 C   0  0  0  0  0  0  0  0  0  0  0  0
   58.1590   29.3360   45.4460 C   0  0  0  0  0  0  0  0  0  0  0  0
   58.0650   28.0430   45.9720 C   0  0  0  0  0  0  0  0  0  0  0  0
   57.8270   26.9000   45.3000 C   0  0  0  0  0  0  0  0  0  0  0  0
   57.2680   25.6850   45.9340 C   0  0  0  0  0  0  0  0  0  0  0  0
   55.9080   25.6320   46.2700 C   0  0  0  0  0  0  0  0  0  0  0  0
   55.0670   26.7040   45.9930 O   0  0  0  0  0  0  0  0  0  0  0  0
   55.3980   24.5200   46.8590 N   0  0  0  0  0  0  0  0  0  0  0  0
   56.1870   23.4520   47.1450 C   0  0  0  0  0  0  0  0  0  0  0  0
   55.5440   22.1300   47.8500 S   0  0  0  0  0  0  0  0  0  0  0  0
   57.5120   23.4910   46.8570 N   0  0  0  0  0  0  0  0  0  0  0  0
   58.0720   24.5810   46.2700 C   0  0  0  0  0  0  0  0  0  0  0  0
   59.3120   24.5930   46.0470 O   0  0  0  0  0  0  0  0  0  0  0  0
   58.3190   28.1570   47.3330 C   0  0  0  0  0  0  0  0  0  0  0  0
   58.5370   29.4980   47.5840 C   0  0  0  0  0  0  0  0  0  0  0  0
   58.8990   30.0550   48.9250 C   0  0  0  0  0  0  0  0  0  0  0  0
   58.4580   30.2110   46.4380 N   0  0  0  0  0  0  0  0  0  0  0  0
   58.6140   31.6350   46.3070 C   0  0  0  0  0  0  0  0  0  0  0  0
   57.5030   32.4050   45.9330 C   0  0  0  0  0  0  0  0  0  0  0  0
   57.6300   33.7790   45.7330 C   0  0  0  0  0  0  0  0  0  0  0  0
   58.8730   34.3930   45.8890 C   0  0  0  0  0  0  0  0  0  0  0  0
   59.9880   33.6390   46.2600 C   0  0  0  0  0  0  0  0  0  0  0  0
   59.8700   32.2590   46.5090 C   0  0  0  0  0  0  0  0  0  0  0  0
   61.0660   31.4490   46.8710 C   0  0  0  0  0  0  0  0  0  0  0  0
   61.1790   30.3070   46.3460 O   0  0  0  0  0  0  0  0  0  0  0  0
   62.1150   31.8990   47.7740 N   0  0  0  0  0  0  0  0  0  0  0  0
   61.6330   32.3290   49.1070 C   0  0  0  0  0  0  0  0  0  0  0  0
   62.7880   32.8390   49.9980 C   0  0  0  0  0  0  0  0  0  0  0  0
   64.0950   32.6680   49.3350 N   0  0  0  0  0  0  0  0  0  0  0  0
   65.1720   33.1730   50.2020 C   0  0  0  0  0  0  0  0  0  0  0  0
   64.1100   33.3800   48.0430 C   0  0  0  0  0  0  0  0  0  0  0  0
   62.9300   32.9540   47.1400 C   0  0  0  0  0  0  0  0  0  0  0  0
   58.0952   30.7423   43.8642 H   0  0  0  0  0  0  0  0  0  0  0  0
   57.7659   28.9224   43.4068 H   0  0  0  0  0  0  0  0  0  0  0  0
   58.0600   26.8680   44.2254 H   0  0  0  0  0  0  0  0  0  0  0  0
   58.3421   27.3388   48.0679 H   0  0  0  0  0  0  0  0  0  0  0  0
   58.4813   29.4123   49.7139 H   0  0  0  0  0  0  0  0  0  0  0  0
   59.9940   30.0916   49.0234 H   0  0  0  0  0  0  0  0  0  0  0  0
   58.4878   31.0705   49.0234 H   0  0  0  0  0  0  0  0  0  0  0  0
   56.5245   31.9214   45.7965 H   0  0  0  0  0  0  0  0  0  0  0  0
   56.7512   34.3782   45.4525 H   0  0  0  0  0  0  0  0  0  0  0  0
   58.9750   35.4750   45.7191 H   0  0  0  0  0  0  0  0  0  0  0  0
   60.9682   34.1284   46.3586 H   0  0  0  0  0  0  0  0  0  0  0  0
   62.7330   31.0650   47.9270 H   0  0  0  0  0  0  0  0  0  0  0  0
   60.8999   33.1386   48.9764 H   0  0  0  0  0  0  0  0  0  0  0  0
   61.1773   31.4591   49.6027 H   0  0  0  0  0  0  0  0  0  0  0  0
   62.6314   33.9069   50.2105 H   0  0  0  0  0  0  0  0  0  0  0  0
   62.7924   32.2525   50.9286 H   0  0  0  0  0  0  0  0  0  0  0  0
   64.8872   33.0395   51.2561 H   0  0  0  0  0  0  0  0  0  0  0  0
   66.0981   32.6153   49.9989 H   0  0  0  0  0  0  0  0  0  0  0  0
   65.3355   34.2417   49.9989 H   0  0  0  0  0  0  0  0  0  0  0  0
   64.0419   34.4616   48.2315 H   0  0  0  0  0  0  0  0  0  0  0  0
   65.0465   33.1278   47.5241 H   0  0  0  0  0  0  0  0  0  0  0  0
   62.2932   33.8300   46.9475 H   0  0  0  0  0  0  0  0  0  0  0  0
   63.3414   32.5541   46.2014 H   0  0  0  0  0  0  0  0  0  0  0  0
  1  2  2  0
  2  3  1  0
  3  4  2  3
  4  5  1  0
  5  6  2  0
  6  7  1  0
  6  8  1  0
  8  9  1  0
  9 10  2  0
  9 11  1  0
 11 12  1  0
 12 13  2  0
  3 14  1  0
 14 15  2  0
 15 16  1  0
 15 17  1  0
 17 18  1  0
 18 19  2  0
 19 20  1  0
 20 21  2  0
 21 22  1  0
 22 23  2  0
 23 24  1  0
 24 25  2  0
 24 26  1  0
 26 27  1  0
 27 28  1  0
 28 29  1  0
 29 30  1  0
 29 31  1  0
 31 32  1  0
 17  2  1  0
 23 18  1  0
 32 26  1  0
 12  5  1  0
  1 33  1  0
  1 34  1  0
  4 35  1  0
 14 36  1  0
 16 37  1  0
 16 38  1  0
 16 39  1  0
 19 40  1  0
 20 41  1  0
 21 42  1  0
 22 43  1  0
 26 44  1  0
 27 45  1  0
 27 46  1  0
 28 47  1  0
 28 48  1  0
 30 49  1  0
 30 50  1  0
 30 51  1  0
 31 52  1  0
 31 53  1  0
 32 54  1  0
 32 55  1  0
M  CHG  4   7  -1   8  -1  11  -1  26   1
M  END
>  <UniqueID>  (32) 
26

>  <SMILES>  (32) 
C=c1c(=Cc2c([O-])[n-]c(=S)[n-]c2=O)cc(C)n1-c1ccccc1C(=O)[NH+]1CCN(C)CC1

>  <Energy>  (32) 
121.60226378794829

>  <Genealogy>  (32) 
C=c1c(=Cc2c([O-])[n-]c(=S)[n-]c2=O)cc(C)n1-c1ccccc1C(=O)[NH+]1CCN(C)CC1 (protonated)
C=c1c(=Cc2c([O-])[n-]c(=S)[n-]c2=O)cc(C)n1-c1ccccc1C(=O)[NH+]1CCN(C)CC1 (3D coordinates assigned)
C=c1c(=Cc2c([O-])[n-]c(=S)[n-]c2=O)cc(C)n1-c1ccccc1C(=O)[NH+]1CCN(C)CC1 (nonaromatic ring conformer: 121.60226378794829 kcal/mol)

>  <smiles>  (32) 
C=c1c(=Cc2c(O)[nH]c(=S)[nH]c2=O)cc(C)n1-c1ccccc1C(=O)N1CCN(C)CC1

>  <score_type>  (32) 
oracle

>  <origin>  (32) 
adg

>  <m_score__min__energy>  (32) 
-15.44

>  <m_primary>  (32) 
energy

$$$$
32:0
     RDKit          3D

 41 44  0  0  0  0  0  0  0  0999 V2000
   59.1590   35.3320   44.9490 C   0  0  0  0  0  0  0  0  0  0  0  0
   58.7360   33.9820   45.4590 C   0  0  0  0  0  0  0  0  0  0  0  0
   57.7140   33.2770   44.8100 C   0  0  0  0  0  0  0  0  0  0  0  0
   57.2890   32.0320   45.2970 C   0  0  0  0  0  0  0  0  0  0  0  0
   56.2420   31.2880   44.6540 N   0  0  0  0  0  0  0  0  0  0  0  0
   56.3400   29.9490   44.1530 C   0  0  0  0  0  0  0  0  0  0  0  0
   55.5970   29.6070   43.1940 O   0  0  0  0  0  0  0  0  0  0  0  0
   57.3050   28.9690   44.7030 C   0  0  0  0  0  0  0  0  0  0  0  0
   58.6820   29.2010   44.5520 C   0  0  0  0  0  0  0  0  0  0  0  0
   59.6190   28.2820   45.0390 C   0  0  0  0  0  0  0  0  0  0  0  0
   61.3290   28.6170   44.8000 Cl  0  0  0  0  0  0  0  0  0  0  0  0
   59.1820   27.1180   45.6970 C   0  0  0  0  0  0  0  0  0  0  0  0
   60.0800   26.1730   46.1930 O   0  0  0  0  0  0  0  0  0  0  0  0
   57.8120   26.8960   45.8680 C   0  0  0  0  0  0  0  0  0  0  0  0
   56.8750   27.8150   45.3870 C   0  0  0  0  0  0  0  0  0  0  0  0
   55.5230   27.5810   45.6140 O   0  0  0  0  0  0  0  0  0  0  0  0
   57.9310   31.4720   46.4040 C   0  0  0  0  0  0  0  0  0  0  0  0
   58.9670   32.1540   47.0670 C   0  0  0  0  0  0  0  0  0  0  0  0
   59.6060   31.5110   48.2470 C   0  0  0  0  0  0  0  0  0  0  0  0
   59.7750   30.1660   48.3460 N   0  0  0  0  0  0  0  0  0  0  0  0
   60.4090   29.8240   49.4980 C   0  0  0  0  0  0  0  0  0  0  0  0
   60.7140   28.5150   49.8720 C   0  0  0  0  0  0  0  0  0  0  0  0
   61.3770   28.2980   51.0920 C   0  0  0  0  0  0  0  0  0  0  0  0
   61.7260   29.3870   51.9180 C   0  0  0  0  0  0  0  0  0  0  0  0
   61.4140   30.7000   51.5300 C   0  0  0  0  0  0  0  0  0  0  0  0
   60.7560   30.8850   50.3180 C   0  0  0  0  0  0  0  0  0  0  0  0
   60.2620   32.3130   49.5950 S   0  0  0  0  0  0  0  0  0  0  0  0
   59.3560   33.4280   46.5940 C   0  0  0  0  0  0  0  0  0  0  0  0
   60.3430   34.1600   47.2470 O   0  0  0  0  0  0  0  0  0  0  0  0
   59.3673   35.9968   45.8003 H   0  0  0  0  0  0  0  0  0  0  0  0
   60.0666   35.2248   44.3368 H   0  0  0  0  0  0  0  0  0  0  0  0
   58.3525   35.7619   44.3368 H   0  0  0  0  0  0  0  0  0  0  0  0
   57.2416   33.7026   43.9124 H   0  0  0  0  0  0  0  0  0  0  0  0
   59.0278   30.1143   44.0458 H   0  0  0  0  0  0  0  0  0  0  0  0
   59.7810   25.3120   46.6350 H   0  0  0  0  0  0  0  0  0  0  0  0
   57.4681   25.9888   46.3864 H   0  0  0  0  0  0  0  0  0  0  0  0
   57.6207   30.4798   46.7636 H   0  0  0  0  0  0  0  0  0  0  0  0
   60.4408   27.6689   49.2243 H   0  0  0  0  0  0  0  0  0  0  0  0
   61.6252   27.2730   51.4046 H   0  0  0  0  0  0  0  0  0  0  0  0
   62.2452   29.2067   52.8709 H   0  0  0  0  0  0  0  0  0  0  0  0
   61.6819   31.5570   52.1654 H   0  0  0  0  0  0  0  0  0  0  0  0
  1  2  1  0
  2  3  2  0
  3  4  1  0
  4  5  1  0
  5  6  1  0
  6  7  2  0
  6  8  1  0
  8  9  2  0
  9 10  1  0
 10 11  1  0
 10 12  2  0
 12 13  1  0
 12 14  1  0
 14 15  2  0
 15 16  1  0
  4 17  2  0
 17 18  1  0
 18 19  1  0
 19 20  2  0
 20 21  1  0
 21 22  2  0
 22 23  1  0
 23 24  2  0
 24 25  1  0
 25 26  2  0
 26 27  1  0
 18 28  2  0
 28 29  1  0
 28  2  1  0
 15  8  1  0
 27 19  1  0
 26 21  1  0
  1 30  1  0
  1 31  1  0
  1 32  1  0
  3 33  1  0
  9 34  1  0
 13 35  1  0
 14 36  1  0
 17 37  1  0
 22 38  1  0
 23 39  1  0
 24 40  1  0
 25 41  1  0
M  CHG  3   5  -1  16  -1  29  -1
M  END
>  <UniqueID>  (33) 
27

>  <SMILES>  (33) 
Cc1cc([N-]C(=O)c2cc(Cl)c(O)cc2[O-])cc(-c2nc3ccccc3s2)c1[O-]

>  <Energy>  (33) 
93.29880908413747

>  <Genealogy>  (33) 
Cc1cc([N-]C(=O)c2cc(Cl)c(O)cc2[O-])cc(-c2nc3ccccc3s2)c1[O-] (protonated)
Cc1cc([N-]C(=O)c2cc(Cl)c(O)cc2[O-])cc(-c2nc3ccccc3s2)c1[O-] (3D coordinates assigned)
Cc1cc([N-]C(=O)c2cc(Cl)c(O)cc2[O-])cc(-c2nc3ccccc3s2)c1[O-] (optimized conformer: 93.29880908413747 kcal/mol)

>  <smiles>  (33) 
Cc1cc(NC(=O)c2cc(Cl)c(O)cc2O)cc(-c2nc3ccccc3s2)c1O

>  <score_type>  (33) 
oracle

>  <origin>  (33) 
adg

>  <m_score__min__energy>  (33) 
-14.57

>  <m_primary>  (33) 
energy

$$$$
33:0
     RDKit          3D

 35 36  0  0  0  0  0  0  0  0999 V2000
   56.7330   28.9720   52.2210 O   0  0  0  0  0  0  0  0  0  0  0  0
   56.3890   30.1840   52.2050 C   0  0  0  0  0  0  0  0  0  0  0  0
   57.0990   31.1460   51.3050 C   0  0  0  0  0  0  0  0  0  0  0  0
   58.4190   30.6350   50.9410 N   0  0  0  0  0  0  0  0  0  0  0  0
   59.0310   30.7720   49.6530 C   0  0  0  0  0  0  0  0  0  0  0  0
   59.4820   29.7480   49.0770 O   0  0  0  0  0  0  0  0  0  0  0  0
   59.1040   32.0730   48.9640 C   0  0  0  0  0  0  0  0  0  0  0  0
   58.1600   32.3820   47.9720 C   0  0  0  0  0  0  0  0  0  0  0  0
   58.1930   33.6260   47.3280 C   0  0  0  0  0  0  0  0  0  0  0  0
   57.2490   33.9470   46.3550 O   0  0  0  0  0  0  0  0  0  0  0  0
   59.1790   34.5570   47.6660 C   0  0  0  0  0  0  0  0  0  0  0  0
   60.1330   34.2490   48.6400 C   0  0  0  0  0  0  0  0  0  0  0  0
   60.1030   33.0090   49.2860 C   0  0  0  0  0  0  0  0  0  0  0  0
   61.0750   32.7100   50.2350 O   0  0  0  0  0  0  0  0  0  0  0  0
   55.3310   30.6510   53.0480 N   0  0  0  0  0  0  0  0  0  0  0  0
   54.0290   30.0020   53.1380 C   0  0  0  0  0  0  0  0  0  0  0  0
   53.0620   30.6260   52.1680 C   0  0  0  0  0  0  0  0  0  0  0  0
   52.9030   30.0780   50.8850 C   0  0  0  0  0  0  0  0  0  0  0  0
   51.9910   30.6420   49.9870 C   0  0  0  0  0  0  0  0  0  0  0  0
   51.2320   31.7540   50.3630 C   0  0  0  0  0  0  0  0  0  0  0  0
   50.3270   32.3090   49.4650 O   0  0  0  0  0  0  0  0  0  0  0  0
   51.3800   32.3030   51.6420 C   0  0  0  0  0  0  0  0  0  0  0  0
   50.6250   33.4060   52.0230 O   0  0  0  0  0  0  0  0  0  0  0  0
   52.2920   31.7400   52.5430 C   0  0  0  0  0  0  0  0  0  0  0  0
   56.5039   31.2922   50.3915 H   0  0  0  0  0  0  0  0  0  0  0  0
   57.2237   32.1011   51.8363 H   0  0  0  0  0  0  0  0  0  0  0  0
   57.3910   31.6443   47.6991 H   0  0  0  0  0  0  0  0  0  0  0  0
   56.2940   34.1820   46.5990 H   0  0  0  0  0  0  0  0  0  0  0  0
   59.2044   35.5354   47.1639 H   0  0  0  0  0  0  0  0  0  0  0  0
   60.9094   34.9839   48.8991 H   0  0  0  0  0  0  0  0  0  0  0  0
   54.1399   28.9334   52.9020 H   0  0  0  0  0  0  0  0  0  0  0  0
   53.6391   30.1258   54.1591 H   0  0  0  0  0  0  0  0  0  0  0  0
   53.4975   29.2024   50.5852 H   0  0  0  0  0  0  0  0  0  0  0  0
   51.8708   30.2096   48.9827 H   0  0  0  0  0  0  0  0  0  0  0  0
   52.4062   32.1715   53.5484 H   0  0  0  0  0  0  0  0  0  0  0  0
  1  2  2  0
  2  3  1  0
  3  4  1  0
  4  5  1  0
  5  6  2  0
  5  7  1  0
  7  8  2  0
  8  9  1  0
  9 10  1  0
  9 11  2  0
 11 12  1  0
 12 13  2  0
 13 14  1  0
  2 15  1  0
 15 16  1  0
 16 17  1  0
 17 18  2  0
 18 19  1  0
 19 20  2  0
 20 21  1  0
 20 22  1  0
 22 23  1  0
 22 24  2  0
 13  7  1  0
 24 17  1  0
  3 25  1  0
  3 26  1  0
  8 27  1  0
 10 28  1  0
 11 29  1  0
 12 30  1  0
 16 31  1  0
 16 32  1  0
 18 33  1  0
 19 34  1  0
 24 35  1  0
M  CHG  5   4  -1  14  -1  15  -1  21  -1  23  -1
M  END
>  <UniqueID>  (34) 
28

>  <SMILES>  (34) 
O=C(C[N-]C(=O)c1cc(O)ccc1[O-])[N-]Cc1ccc([O-])c([O-])c1

>  <Energy>  (34) 
36.76438491434687

>  <Genealogy>  (34) 
O=C(C[N-]C(=O)c1cc(O)ccc1[O-])[N-]Cc1ccc([O-])c([O-])c1 (protonated)
O=C(C[N-]C(=O)c1cc(O)ccc1[O-])[N-]Cc1ccc([O-])c([O-])c1 (3D coordinates assigned)
O=C(C[N-]C(=O)c1cc(O)ccc1[O-])[N-]Cc1ccc([O-])c([O-])c1 (optimized conformer: 36.76438491434687 kcal/mol)

>  <smiles>  (34) 
O=C(CNC(=O)c1cc(O)ccc1O)NCc1ccc(O)c(O)c1

>  <score_type>  (34) 
oracle

>  <origin>  (34) 
adg

>  <m_score__min__energy>  (34) 
-18.030000000000001

>  <m_primary>  (34) 
energy

$$$$
34:0
     RDKit          3D

 41 43  0  0  0  0  0  0  0  0999 V2000
   55.9457   24.5061   47.4032 H   0  0  0  0  0  0  0  0  0  0  0  0
   56.5370   25.3120   46.9440 C   0  0  0  0  0  0  0  0  0  0  0  0
   55.9100   26.3690   46.3640 N   0  0  0  0  0  0  0  0  0  0  0  0
   56.5880   27.3900   45.7730 C   0  0  0  0  0  0  0  0  0  0  0  0
   55.8950   28.3610   45.2460 N   0  0  0  0  0  0  0  0  0  0  0  0
   56.2860   29.7160   44.9700 C   0  0  0  0  0  0  0  0  0  0  0  0
   55.5610   30.4670   44.2630 O   0  0  0  0  0  0  0  0  0  0  0  0
   57.4960   30.2190   45.5540 N   0  0  0  0  0  0  0  0  0  0  0  0
   58.1720   29.5170   45.9340 H   0  0  0  0  0  0  0  0  0  0  0  0
   57.8960   31.6000   45.5290 C   0  0  0  0  0  0  0  0  0  0  0  0
   57.4830   32.4630   44.5000 C   0  0  0  0  0  0  0  0  0  0  0  0
   56.8597   32.0778   43.6796 H   0  0  0  0  0  0  0  0  0  0  0  0
   57.8600   33.8070   44.5140 C   0  0  0  0  0  0  0  0  0  0  0  0
   57.5374   34.4755   43.7022 H   0  0  0  0  0  0  0  0  0  0  0  0
   58.6450   34.3050   45.5550 C   0  0  0  0  0  0  0  0  0  0  0  0
   58.9384   35.3651   45.5594 H   0  0  0  0  0  0  0  0  0  0  0  0
   59.0630   33.4600   46.5980 C   0  0  0  0  0  0  0  0  0  0  0  0
   59.8730   33.9830   47.7260 C   0  0  0  0  0  0  0  0  0  0  0  0
   59.3010   34.6650   48.6200 O   0  0  0  0  0  0  0  0  0  0  0  0
   61.3300   33.7340   47.8390 C   0  0  0  0  0  0  0  0  0  0  0  0
   61.9020   33.4630   49.0960 C   0  0  0  0  0  0  0  0  0  0  0  0
   61.2668   33.4502   49.9940 H   0  0  0  0  0  0  0  0  0  0  0  0
   63.2720   33.2100   49.2110 C   0  0  0  0  0  0  0  0  0  0  0  0
   63.7122   33.0097   50.1990 H   0  0  0  0  0  0  0  0  0  0  0  0
   64.0830   33.2110   48.0740 C   0  0  0  0  0  0  0  0  0  0  0  0
   65.1613   33.0142   48.1669 H   0  0  0  0  0  0  0  0  0  0  0  0
   63.5240   33.4620   46.8190 C   0  0  0  0  0  0  0  0  0  0  0  0
   64.1625   33.4599   45.9233 H   0  0  0  0  0  0  0  0  0  0  0  0
   62.1540   33.7160   46.6990 C   0  0  0  0  0  0  0  0  0  0  0  0
   61.7179   33.9029   45.7066 H   0  0  0  0  0  0  0  0  0  0  0  0
   58.6640   32.1130   46.5860 C   0  0  0  0  0  0  0  0  0  0  0  0
   58.9571   31.4522   47.4151 H   0  0  0  0  0  0  0  0  0  0  0  0
   58.0010   27.3660   45.7880 C   0  0  0  0  0  0  0  0  0  0  0  0
   58.5726   28.1853   45.3276 H   0  0  0  0  0  0  0  0  0  0  0  0
   58.6710   26.2920   46.3930 C   0  0  0  0  0  0  0  0  0  0  0  0
   60.1710   26.2360   46.3840 C   0  0  0  0  0  0  0  0  0  0  0  0
   60.5436   26.2221   47.4189 H   0  0  0  0  0  0  0  0  0  0  0  0
   60.5008   25.3249   45.8633 H   0  0  0  0  0  0  0  0  0  0  0  0
   60.5678   27.1200   45.8633 H   0  0  0  0  0  0  0  0  0  0  0  0
   57.9290   25.2490   46.9570 C   0  0  0  0  0  0  0  0  0  0  0  0
   58.4405   24.3855   47.4074 H   0  0  0  0  0  0  0  0  0  0  0  0
  1  2  1  0
  2  3  1  0
  3  4  1  0
  4  5  2  0
  5  6  1  0
  6  7  2  0
  6  8  1  0
  8  9  1  0
  8 10  1  0
 10 11  2  0
 11 12  1  0
 11 13  1  0
 13 14  1  0
 13 15  2  0
 15 16  1  0
 15 17  1  0
 17 18  1  0
 18 19  2  0
 18 20  1  0
 20 21  2  0
 21 22  1  0
 21 23  1  0
 23 24  1  0
 23 25  2  0
 25 26  1  0
 25 27  1  0
 27 28  1  0
 27 29  2  0
 29 30  1  0
 17 31  2  0
 31 32  1  0
  4 33  1  0
 33 34  1  0
 33 35  2  0
 35 36  1  0
 36 37  1  0
 36 38  1  0
 36 39  1  0
 35 40  1  0
 40 41  1  0
 40  2  2  0
 31 10  1  0
 29 20  1  0
M  CHG  1   3  -1
M  END
>  <UniqueID>  (35) 
29

>  <SMILES>  (35) 
Cc1cc[n-]/c(=N/C(=O)Nc2cccc(C(=O)c3ccccc3)c2)c1

>  <Energy>  (35) 
61.01338478784952

>  <Genealogy>  (35) 
Cc1cc[n-]c(=NC(=O)Nc2cccc(C(=O)c3ccccc3)c2)c1 (protonated)
Cc1cc[n-]/c(=N/C(=O)Nc2cccc(C(=O)c3ccccc3)c2)c1 (cis-trans isomerization)
Cc1cc[n-]/c(=N/C(=O)Nc2cccc(C(=O)c3ccccc3)c2)c1 (3D coordinates assigned)
Cc1cc[n-]/c(=N/C(=O)Nc2cccc(C(=O)c3ccccc3)c2)c1 (optimized conformer: 61.01338478784952 kcal/mol)

>  <smiles>  (35) 
Cc1cc[nH]c(=NC(=O)Nc2cccc(C(=O)c3ccccc3)c2)c1

>  <score_type>  (35) 
oracle

>  <origin>  (35) 
adg

>  <m_score__min__energy>  (35) 
-11.17

>  <m_primary>  (35) 
energy

$$$$
35:0
     RDKit          3D

 54 56  0  0  0  0  0  0  0  0999 V2000
   56.1190   21.9430   42.4690 N   0  0  0  0  0  0  0  0  0  0  0  0
   56.3250   22.6540   43.5340 C   0  0  0  0  0  0  0  0  0  0  0  0
   57.5900   22.7300   43.9930 N   0  0  0  0  0  0  0  0  0  0  0  0
   57.9380   23.4330   45.0850 C   0  0  0  0  0  0  0  0  0  0  0  0
   56.9170   24.0960   45.7420 C   0  0  0  0  0  0  0  0  0  0  0  0
   57.1900   24.8880   46.9450 C   0  0  0  0  0  0  0  0  0  0  0  0
   57.8380   26.1910   46.6910 C   0  0  0  0  0  0  0  0  0  0  0  0
   59.1780   26.4250   46.9120 C   0  0  0  0  0  0  0  0  0  0  0  0
   59.6660   27.6960   46.6310 C   0  0  0  0  0  0  0  0  0  0  0  0
   58.8540   28.7070   46.1440 C   0  0  0  0  0  0  0  0  0  0  0  0
   59.4590   30.0510   45.8620 C   0  0  0  0  0  0  0  0  0  0  0  0
   58.4950   30.9700   45.1940 C   0  0  0  0  0  0  0  0  0  0  0  0
   58.4750   32.2940   45.9130 C   0  0  0  0  0  0  0  0  0  0  0  0
   59.4970   32.4510   46.9510 C   0  0  0  0  0  0  0  0  0  0  0  0
   59.3880   32.1320   48.1570 O   0  0  0  0  0  0  0  0  0  0  0  0
   60.7520   33.0280   46.5540 N   0  0  0  0  0  0  0  0  0  0  0  0
   61.7260   33.1630   47.6020 C   0  0  0  0  0  0  0  0  0  0  0  0
   61.4090   34.0030   48.6370 C   0  0  0  0  0  0  0  0  0  0  0  0
   62.2670   34.2150   49.7070 C   0  0  0  0  0  0  0  0  0  0  0  0
   63.4710   33.5450   49.7030 C   0  0  0  0  0  0  0  0  0  0  0  0
   64.5730   33.7910   51.0400 S   0  0  0  0  0  0  0  0  0  0  0  0
   64.3450   32.7400   52.0830 O   0  0  0  0  0  0  0  0  0  0  0  0
   65.9850   33.6480   50.5210 O   0  0  0  0  0  0  0  0  0  0  0  0
   64.4470   35.3420   51.6540 F   0  0  0  0  0  0  0  0  0  0  0  0
   63.7960   32.6930   48.6580 C   0  0  0  0  0  0  0  0  0  0  0  0
   62.9260   32.4870   47.5850 C   0  0  0  0  0  0  0  0  0  0  0  0
   57.5050   28.4700   45.9210 C   0  0  0  0  0  0  0  0  0  0  0  0
   57.0160   27.2070   46.2000 C   0  0  0  0  0  0  0  0  0  0  0  0
   55.6590   26.9820   45.9720 O   0  0  0  0  0  0  0  0  0  0  0  0
   55.6050   24.0210   45.2730 C   0  0  0  0  0  0  0  0  0  0  0  0
   54.6380   24.6470   45.8900 N   0  0  0  0  0  0  0  0  0  0  0  0
   55.3080   23.3010   44.1690 N   0  0  0  0  0  0  0  0  0  0  0  0
   56.3530   22.3860   41.5530 H   0  0  0  0  0  0  0  0  0  0  0  0
   58.3460   22.2230   43.4830 H   0  0  0  0  0  0  0  0  0  0  0  0
   58.9791   23.4785   45.4372 H   0  0  0  0  0  0  0  0  0  0  0  0
   56.2344   25.0743   47.4570 H   0  0  0  0  0  0  0  0  0  0  0  0
   57.8972   24.3014   47.5499 H   0  0  0  0  0  0  0  0  0  0  0  0
   59.8382   25.6339   47.2972 H   0  0  0  0  0  0  0  0  0  0  0  0
   60.7323   27.9058   46.8010 H   0  0  0  0  0  0  0  0  0  0  0  0
   59.7791   30.5025   46.8126 H   0  0  0  0  0  0  0  0  0  0  0  0
   60.3121   29.9031   45.1835 H   0  0  0  0  0  0  0  0  0  0  0  0
   58.8021   31.1257   44.1493 H   0  0  0  0  0  0  0  0  0  0  0  0
   57.4892   30.5254   45.2207 H   0  0  0  0  0  0  0  0  0  0  0  0
   58.6211   33.0894   45.1673 H   0  0  0  0  0  0  0  0  0  0  0  0
   57.5041   32.3498   46.4270 H   0  0  0  0  0  0  0  0  0  0  0  0
   60.9410   33.3260   45.5710 H   0  0  0  0  0  0  0  0  0  0  0  0
   60.4420   34.5269   48.6192 H   0  0  0  0  0  0  0  0  0  0  0  0
   61.9956   34.8937   50.5290 H   0  0  0  0  0  0  0  0  0  0  0  0
   64.7619   32.1670   48.6747 H   0  0  0  0  0  0  0  0  0  0  0  0
   63.1890   31.8109   46.7581 H   0  0  0  0  0  0  0  0  0  0  0  0
   56.8459   29.2614   45.5347 H   0  0  0  0  0  0  0  0  0  0  0  0
   55.1200   27.4820   45.2660 H   0  0  0  0  0  0  0  0  0  0  0  0
   54.1950   25.4850   45.4520 H   0  0  0  0  0  0  0  0  0  0  0  0
   54.3310   23.2340   43.8040 H   0  0  0  0  0  0  0  0  0  0  0  0
  1  2  2  3
  2  3  1  0
  3  4  1  0
  4  5  2  0
  5  6  1  0
  6  7  1  0
  7  8  2  0
  8  9  1  0
  9 10  2  0
 10 11  1  0
 11 12  1  0
 12 13  1  0
 13 14  1  0
 14 15  2  0
 14 16  1  0
 16 17  1  0
 17 18  2  0
 18 19  1  0
 19 20  2  0
 20 21  1  0
 21 22  2  0
 21 23  2  0
 21 24  1  0
 20 25  1  0
 25 26  2  0
 10 27  1  0
 27 28  2  0
 28 29  1  0
  5 30  1  0
 30 31  2  3
 30 32  1  0
 32  2  1  0
 28  7  1  0
 26 17  1  0
  1 33  1  0
  3 34  1  0
  4 35  1  0
  6 36  1  0
  6 37  1  0
  8 38  1  0
  9 39  1  0
 11 40  1  0
 11 41  1  0
 12 42  1  0
 12 43  1  0
 13 44  1  0
 13 45  1  0
 16 46  1  0
 18 47  1  0
 19 48  1  0
 25 49  1  0
 26 50  1  0
 27 51  1  0
 29 52  1  0
 31 53  1  0
 32 54  1  0
M  END
>  <smiles>  (36) 
N=c1[nH]cc(Cc2ccc(CCCC(=O)Nc3ccc(S(=O)(=O)F)cc3)cc2O)c(=N)[nH]1

>  <score_type>  (36) 
oracle

>  <origin>  (36) 
adg

>  <m_score__min__energy>  (36) 
-9.2599999999999998

>  <m_primary>  (36) 
energy

$$$$
36:0
     RDKit          3D

 51 53  0  0  0  0  0  0  0  0999 V2000
   57.1350   34.5310   44.9250 C   0  0  0  0  0  0  0  0  0  0  0  0
   57.8270   33.4080   45.7050 C   0  0  0  0  0  0  0  0  0  0  0  0
   58.0710   32.1900   44.8110 C   0  0  0  0  0  0  0  0  0  0  0  0
   59.1250   33.8950   46.2880 C   0  0  0  0  0  0  0  0  0  0  0  0
   60.3840   33.4310   45.9630 C   0  0  0  0  0  0  0  0  0  0  0  0
   61.2170   34.1980   46.7480 C   0  0  0  0  0  0  0  0  0  0  0  0
   62.7040   34.0960   46.8190 C   0  0  0  0  0  0  0  0  0  0  0  0
   63.0810   33.3900   48.0350 N   0  0  0  0  0  0  0  0  0  0  0  0
   62.2250   33.1840   49.1670 C   0  0  0  0  0  0  0  0  0  0  0  0
   62.2320   34.0420   50.0890 O   0  0  0  0  0  0  0  0  0  0  0  0
   61.3760   31.9390   49.3190 C   0  0  0  0  0  0  0  0  0  0  0  0
   59.8860   32.3120   49.1430 C   0  0  0  0  0  0  0  0  0  0  0  0
   59.0180   31.0770   48.8730 C   0  0  0  0  0  0  0  0  0  0  0  0
   59.5320   30.3110   47.7300 N   0  0  0  0  0  0  0  0  0  0  0  0
   58.7710   29.2070   47.2230 C   0  0  0  0  0  0  0  0  0  0  0  0
   57.7940   29.4410   46.3070 N   0  0  0  0  0  0  0  0  0  0  0  0
   57.0340   28.4400   45.7890 C   0  0  0  0  0  0  0  0  0  0  0  0
   57.2390   27.1120   46.1930 C   0  0  0  0  0  0  0  0  0  0  0  0
   56.4150   26.0150   45.6320 C   0  0  0  0  0  0  0  0  0  0  0  0
   55.0210   25.9340   45.9230 N   0  0  0  0  0  0  0  0  0  0  0  0
   56.9400   25.1410   44.8900 O   0  0  0  0  0  0  0  0  0  0  0  0
   58.2350   26.8500   47.1470 C   0  0  0  0  0  0  0  0  0  0  0  0
   59.0060   27.8950   47.6700 C   0  0  0  0  0  0  0  0  0  0  0  0
   59.9960   27.6130   48.6790 C   0  0  0  0  0  0  0  0  0  0  0  0
   60.7910   27.3900   49.4900 N   0  0  0  0  0  0  0  0  0  0  0  0
   60.8750   30.5710   47.2010 C   0  0  0  0  0  0  0  0  0  0  0  0
   61.8480   30.8080   48.3590 C   0  0  0  0  0  0  0  0  0  0  0  0
   60.4930   35.0260   47.4640 O   0  0  0  0  0  0  0  0  0  0  0  0
   59.2250   34.8760   47.2100 N   0  0  0  0  0  0  0  0  0  0  0  0
   56.6925   35.2491   45.6311 H   0  0  0  0  0  0  0  0  0  0  0  0
   57.8725   35.0462   44.2920 H   0  0  0  0  0  0  0  0  0  0  0  0
   56.3433   34.1038   44.2920 H   0  0  0  0  0  0  0  0  0  0  0  0
   57.1619   33.1042   46.5268 H   0  0  0  0  0  0  0  0  0  0  0  0
   58.2485   31.3042   45.4386 H   0  0  0  0  0  0  0  0  0  0  0  0
   57.1893   32.0188   44.1759 H   0  0  0  0  0  0  0  0  0  0  0  0
   58.9506   32.3716   44.1759 H   0  0  0  0  0  0  0  0  0  0  0  0
   60.6565   32.6396   45.2493 H   0  0  0  0  0  0  0  0  0  0  0  0
   63.0766   33.5442   45.9434 H   0  0  0  0  0  0  0  0  0  0  0  0
   63.1422   35.1049   46.8281 H   0  0  0  0  0  0  0  0  0  0  0  0
   61.4980   31.5283   50.3322 H   0  0  0  0  0  0  0  0  0  0  0  0
   59.5310   32.8029   50.0611 H   0  0  0  0  0  0  0  0  0  0  0  0
   59.8019   32.9850   48.2770 H   0  0  0  0  0  0  0  0  0  0  0  0
   59.0190   30.4346   49.7660 H   0  0  0  0  0  0  0  0  0  0  0  0
   57.9964   31.4114   48.6394 H   0  0  0  0  0  0  0  0  0  0  0  0
   56.2540   28.6724   45.0490 H   0  0  0  0  0  0  0  0  0  0  0  0
   54.3140   26.3530   45.2780 H   0  0  0  0  0  0  0  0  0  0  0  0
   58.4106   25.8182   47.4854 H   0  0  0  0  0  0  0  0  0  0  0  0
   61.2106   29.7041   46.6129 H   0  0  0  0  0  0  0  0  0  0  0  0
   60.8475   31.4640   46.5593 H   0  0  0  0  0  0  0  0  0  0  0  0
   61.9440   29.8754   48.9344 H   0  0  0  0  0  0  0  0  0  0  0  0
   62.8099   31.1199   47.9260 H   0  0  0  0  0  0  0  0  0  0  0  0
  1  2  1  0
  2  3  1  0
  2  4  1  0
  4  5  1  0
  5  6  2  0
  6  7  1  0
  7  8  1  0
  8  9  1  0
  9 10  2  0
  9 11  1  0
 11 12  1  0
 12 13  1  0
 13 14  1  0
 14 15  1  0
 15 16  2  0
 16 17  1  0
 17 18  2  0
 18 19  1  0
 19 20  1  0
 19 21  2  0
 18 22  1  0
 22 23  2  0
 23 24  1  0
 24 25  3  0
 14 26  1  0
 26 27  1  0
  6 28  1  0
 28 29  1  0
 29  4  2  0
 27 11  1  0
 23 15  1  0
  1 30  1  0
  1 31  1  0
  1 32  1  0
  2 33  1  0
  3 34  1  0
  3 35  1  0
  3 36  1  0
  5 37  1  0
  7 38  1  0
  7 39  1  0
 11 40  1  0
 12 41  1  0
 12 42  1  0
 13 43  1  0
 13 44  1  0
 17 45  1  0
 20 46  1  0
 22 47  1  0
 26 48  1  0
 26 49  1  0
 27 50  1  0
 27 51  1  0
M  CHG  2   8  -1  20  -1
M  END
>  <UniqueID>  (37) 
30

>  <SMILES>  (37) 
CC(C)c1cc(C[N-]C(=O)C2CCN(c3ncc(C([NH-])=O)cc3C#N)CC2)on1

>  <Energy>  (37) 
82.83837775639532

>  <Genealogy>  (37) 
CC(C)c1cc(C[N-]C(=O)C2CCN(c3ncc(C([NH-])=O)cc3C#N)CC2)on1 (protonated)
CC(C)c1cc(C[N-]C(=O)C2CCN(c3ncc(C([NH-])=O)cc3C#N)CC2)on1 (3D coordinates assigned)
CC(C)c1cc(C[N-]C(=O)C2CCN(c3ncc(C([NH-])=O)cc3C#N)CC2)on1 (nonaromatic ring conformer: 82.83837775639532 kcal/mol)

>  <smiles>  (37) 
CC(C)c1cc(CNC(=O)C2CCN(c3ncc(C(N)=O)cc3C#N)CC2)on1

>  <score_type>  (37) 
oracle

>  <origin>  (37) 
adg

>  <m_score__min__energy>  (37) 
-11.18

>  <m_primary>  (37) 
energy

$$$$
37:0
     RDKit          3D

 62 66  0  0  0  0  0  0  0  0999 V2000
   61.4200   33.8330   49.7720 C   0  0  0  0  0  0  0  0  0  0  0  0
   60.4870   33.7880   48.6070 C   0  0  0  0  0  0  0  0  0  0  0  0
   60.5920   34.6080   47.5350 N   0  0  0  0  0  0  0  0  0  0  0  0
   59.5580   34.2350   46.7530 C   0  0  0  0  0  0  0  0  0  0  0  0
   59.2430   34.7870   45.5130 C   0  0  0  0  0  0  0  0  0  0  0  0
   58.1410   34.2580   44.8230 C   0  0  0  0  0  0  0  0  0  0  0  0
   57.4010   33.1960   45.3750 C   0  0  0  0  0  0  0  0  0  0  0  0
   57.7660   32.6750   46.6250 C   0  0  0  0  0  0  0  0  0  0  0  0
   58.8240   33.2340   47.2740 N   0  0  0  0  0  0  0  0  0  0  0  0
   59.3920   32.9420   48.4590 C   0  0  0  0  0  0  0  0  0  0  0  0
   58.9240   31.9220   49.4260 C   0  0  0  0  0  0  0  0  0  0  0  0
   57.8860   32.1500   50.1020 O   0  0  0  0  0  0  0  0  0  0  0  0
   59.6420   30.7010   49.6530 N   0  0  0  0  0  0  0  0  0  0  0  0
   59.8020   29.7350   48.7960 C   0  0  0  0  0  0  0  0  0  0  0  0
   59.9110   30.0380   47.4350 C   0  0  0  0  0  0  0  0  0  0  0  0
   60.0350   28.9990   46.4980 C   0  0  0  0  0  0  0  0  0  0  0  0
   60.0530   29.3020   45.0170 C   0  0  0  0  0  0  0  0  0  0  0  0
   58.7340   29.0720   44.3700 N   0  0  0  0  0  0  0  0  0  0  0  0
   57.6460   29.1000   45.3970 C   0  0  0  0  0  0  0  0  0  0  0  0
   56.6180   27.9690   45.2500 C   0  0  0  0  0  0  0  0  0  0  0  0
   57.3170   26.6860   45.1740 N   0  0  0  0  0  0  0  0  0  0  0  0
   56.9300   25.5930   46.0230 C   0  0  0  0  0  0  0  0  0  0  0  0
   56.7640   25.7990   47.2570 O   0  0  0  0  0  0  0  0  0  0  0  0
   56.7310   24.2310   45.4780 C   0  0  0  0  0  0  0  0  0  0  0  0
   56.8520   23.1060   46.3130 C   0  0  0  0  0  0  0  0  0  0  0  0
   56.6640   21.8200   45.7990 C   0  0  0  0  0  0  0  0  0  0  0  0
   56.3420   21.6390   44.4480 C   0  0  0  0  0  0  0  0  0  0  0  0
   56.1560   20.3220   43.9200 N   0  0  0  0  0  0  0  0  0  0  0  0
   56.2020   22.7580   43.6150 C   0  0  0  0  0  0  0  0  0  0  0  0
   56.3910   24.0450   44.1260 C   0  0  0  0  0  0  0  0  0  0  0  0
   58.5100   26.5660   44.3280 C   0  0  0  0  0  0  0  0  0  0  0  0
   58.7270   27.8500   43.5170 C   0  0  0  0  0  0  0  0  0  0  0  0
   60.0920   27.6730   46.9510 C   0  0  0  0  0  0  0  0  0  0  0  0
   60.0090   27.4110   48.3190 C   0  0  0  0  0  0  0  0  0  0  0  0
   59.8620   28.4340   49.2010 N   0  0  0  0  0  0  0  0  0  0  0  0
   60.8409   33.8051   50.7068 H   0  0  0  0  0  0  0  0  0  0  0  0
   62.0965   32.9664   49.7337 H   0  0  0  0  0  0  0  0  0  0  0  0
   62.0099   34.7606   49.7337 H   0  0  0  0  0  0  0  0  0  0  0  0
   59.8378   35.6095   45.0891 H   0  0  0  0  0  0  0  0  0  0  0  0
   57.8546   34.6755   43.8464 H   0  0  0  0  0  0  0  0  0  0  0  0
   56.5422   32.7773   44.8299 H   0  0  0  0  0  0  0  0  0  0  0  0
   57.2112   31.8357   47.0698 H   0  0  0  0  0  0  0  0  0  0  0  0
   59.8997   31.0856   47.0998 H   0  0  0  0  0  0  0  0  0  0  0  0
   60.3353   30.3558   44.8764 H   0  0  0  0  0  0  0  0  0  0  0  0
   60.7779   28.6214   44.5466 H   0  0  0  0  0  0  0  0  0  0  0  0
   58.5610   29.8800   43.7260 H   0  0  0  0  0  0  0  0  0  0  0  0
   58.1078   29.0203   46.3922 H   0  0  0  0  0  0  0  0  0  0  0  0
   57.1009   30.0451   45.2570 H   0  0  0  0  0  0  0  0  0  0  0  0
   55.9446   27.9694   46.1198 H   0  0  0  0  0  0  0  0  0  0  0  0
   56.0301   28.1228   44.3331 H   0  0  0  0  0  0  0  0  0  0  0  0
   57.0961   23.2390   47.3773 H   0  0  0  0  0  0  0  0  0  0  0  0
   56.7694   20.9460   46.4585 H   0  0  0  0  0  0  0  0  0  0  0  0
   56.8660   19.5720   44.0890 H   0  0  0  0  0  0  0  0  0  0  0  0
   55.3200   20.0900   43.3390 H   0  0  0  0  0  0  0  0  0  0  0  0
   55.9423   22.6224   42.5547 H   0  0  0  0  0  0  0  0  0  0  0  0
   56.2731   24.9177   43.4668 H   0  0  0  0  0  0  0  0  0  0  0  0
   59.3888   26.3878   44.9652 H   0  0  0  0  0  0  0  0  0  0  0  0
   58.3686   25.7261   43.6319 H   0  0  0  0  0  0  0  0  0  0  0  0
   59.6931   27.7785   42.9958 H   0  0  0  0  0  0  0  0  0  0  0  0
   57.8902   27.9425   42.8091 H   0  0  0  0  0  0  0  0  0  0  0  0
   60.2012   26.8462   46.2337 H   0  0  0  0  0  0  0  0  0  0  0  0
   60.0627   26.3747   48.6839 H   0  0  0  0  0  0  0  0  0  0  0  0
  1  2  1  0
  2  3  1  0
  3  4  2  0
  4  5  1  0
  5  6  2  0
  6  7  1  0
  7  8  2  0
  8  9  1  0
  9 10  1  0
 10 11  1  0
 11 12  2  0
 11 13  1  0
 13 14  2  3
 14 15  1  0
 15 16  2  0
 16 17  1  0
 17 18  1  0
 18 19  1  0
 19 20  1  0
 20 21  1  0
 21 22  1  0
 22 23  2  0
 22 24  1  0
 24 25  2  0
 25 26  1  0
 26 27  2  0
 27 28  1  0
 27 29  1  0
 29 30  2  0
 21 31  1  0
 31 32  1  0
 16 33  1  0
 33 34  2  0
 34 35  1  0
 10  2  2  0
 35 14  1  0
  9  4  1  0
 32 18  1  0
 30 24  1  0
  1 36  1  0
  1 37  1  0
  1 38  1  0
  5 39  1  0
  6 40  1  0
  7 41  1  0
  8 42  1  0
 15 43  1  0
 17 44  1  0
 17 45  1  0
 18 46  1  0
 19 47  1  0
 19 48  1  0
 20 49  1  0
 20 50  1  0
 25 51  1  0
 26 52  1  0
 28 53  1  0
 28 54  1  0
 29 55  1  0
 30 56  1  0
 31 57  1  0
 31 58  1  0
 32 59  1  0
 32 60  1  0
 33 61  1  0
 34 62  1  0
M  CHG  2  18   1  35  -1
M  END
>  <UniqueID>  (38) 
31

>  <SMILES>  (38) 
Cc1nc2ccccn2c1C(=O)N=c1cc(C[NH+]2CCN(C(=O)c3ccc(N)cc3)CC2)cc[n-]1

>  <Energy>  (38) 
124.19728551470529

>  <Genealogy>  (38) 
Cc1nc2ccccn2c1C(=O)N=c1cc(C[NH+]2CCN(C(=O)c3ccc(N)cc3)CC2)cc[n-]1 (protonated)
Cc1nc2ccccn2c1C(=O)N=c1cc(C[NH+]2CCN(C(=O)c3ccc(N)cc3)CC2)cc[n-]1 (3D coordinates assigned)
Cc1nc2ccccn2c1C(=O)N=c1cc(C[NH+]2CCN(C(=O)c3ccc(N)cc3)CC2)cc[n-]1 (nonaromatic ring conformer: 124.19728551470529 kcal/mol)

>  <smiles>  (38) 
Cc1nc2ccccn2c1C(=O)N=c1cc(CN2CCN(C(=O)c3ccc(N)cc3)CC2)cc[nH]1

>  <score_type>  (38) 
oracle

>  <origin>  (38) 
adg

>  <m_score__min__energy>  (38) 
-10.550000000000001

>  <m_primary>  (38) 
energy

$$$$
38:0
     RDKit          3D

 30 31  0  0  0  0  0  0  0  0999 V2000
   57.3191   30.9426   43.0487 H   0  0  0  0  0  0  0  0  0  0  0  0
   57.6070   31.1730   44.0850 C   0  0  0  0  0  0  0  0  0  0  0  0
   58.3340   30.1260   44.8350 C   0  0  0  0  0  0  0  0  0  0  0  0
   59.5950   30.1120   44.8600 O   0  0  0  0  0  0  0  0  0  0  0  0
   57.5650   29.1330   45.6100 C   0  0  0  0  0  0  0  0  0  0  0  0
   57.3294   29.3485   46.6626 H   0  0  0  0  0  0  0  0  0  0  0  0
   57.1440   27.9790   45.0770 C   0  0  0  0  0  0  0  0  0  0  0  0
   56.7457   27.9880   44.0517 H   0  0  0  0  0  0  0  0  0  0  0  0
   57.1910   26.6890   45.8080 C   0  0  0  0  0  0  0  0  0  0  0  0
   55.9930   26.0930   46.2400 C   0  0  0  0  0  0  0  0  0  0  0  0
   54.7690   26.7100   46.0070 O   0  0  0  0  0  0  0  0  0  0  0  0
   56.0210   24.9080   46.9040 N   0  0  0  0  0  0  0  0  0  0  0  0
   57.1930   24.2720   47.1540 C   0  0  0  0  0  0  0  0  0  0  0  0
   57.1940   23.1780   47.7750 O   0  0  0  0  0  0  0  0  0  0  0  0
   58.3630   24.8100   46.7290 N   0  0  0  0  0  0  0  0  0  0  0  0
   58.3920   25.9910   46.0580 C   0  0  0  0  0  0  0  0  0  0  0  0
   59.4970   26.4320   45.6450 O   0  0  0  0  0  0  0  0  0  0  0  0
   57.2690   32.3810   44.5630 C   0  0  0  0  0  0  0  0  0  0  0  0
   56.3149   32.8098   44.2228 H   0  0  0  0  0  0  0  0  0  0  0  0
   58.0740   33.1820   45.5090 C   0  0  0  0  0  0  0  0  0  0  0  0
   58.1460   32.7880   46.8540 C   0  0  0  0  0  0  0  0  0  0  0  0
   57.6361   31.8708   47.1838 H   0  0  0  0  0  0  0  0  0  0  0  0
   58.8630   33.5560   47.7770 C   0  0  0  0  0  0  0  0  0  0  0  0
   58.9298   33.2331   48.8264 H   0  0  0  0  0  0  0  0  0  0  0  0
   59.4950   34.7340   47.3670 C   0  0  0  0  0  0  0  0  0  0  0  0
   60.0656   35.3328   48.0921 H   0  0  0  0  0  0  0  0  0  0  0  0
   59.4020   35.1510   46.0360 C   0  0  0  0  0  0  0  0  0  0  0  0
   59.9980   36.3040   45.6450 F   0  0  0  0  0  0  0  0  0  0  0  0
   58.6850   34.3850   45.1120 C   0  0  0  0  0  0  0  0  0  0  0  0
   58.5983   34.7248   44.0694 H   0  0  0  0  0  0  0  0  0  0  0  0
  1  2  1  0
  2  3  1  0
  3  4  2  0
  3  5  1  0
  5  6  1  0
  5  7  2  0
  7  8  1  0
  7  9  1  0
  9 10  2  0
 10 11  1  0
 10 12  1  0
 12 13  1  0
 13 14  2  0
 13 15  1  0
 15 16  1  0
 16 17  2  0
  2 18  2  3
 18 19  1  0
 18 20  1  0
 20 21  2  0
 21 22  1  0
 21 23  1  0
 23 24  1  0
 23 25  2  0
 25 26  1  0
 25 27  1  0
 27 28  1  0
 27 29  2  0
 29 30  1  0
 16  9  1  0
 29 20  1  0
M  CHG  3  11  -1  12  -1  15  -1
M  END
>  <UniqueID>  (39) 
32

>  <SMILES>  (39) 
O=C(C=Cc1cccc(F)c1)/C=C/c1c([O-])[n-]c(=O)[n-]c1=O

>  <Energy>  (39) 
44.509626454448686

>  <Genealogy>  (39) 
O=C(C=Cc1cccc(F)c1)C=Cc1c([O-])[n-]c(=O)[n-]c1=O (protonated)
O=C(C=Cc1cccc(F)c1)/C=C/c1c([O-])[n-]c(=O)[n-]c1=O (cis-trans isomerization)
O=C(C=Cc1cccc(F)c1)/C=C/c1c([O-])[n-]c(=O)[n-]c1=O (3D coordinates assigned)
O=C(C=Cc1cccc(F)c1)/C=C/c1c([O-])[n-]c(=O)[n-]c1=O (optimized conformer: 44.509626454448686 kcal/mol)

>  <smiles>  (39) 
O=C(C=Cc1cccc(F)c1)C=Cc1c(O)[nH]c(=O)[nH]c1=O

>  <score_type>  (39) 
oracle

>  <origin>  (39) 
adg

>  <m_score__min__energy>  (39) 
-15.5

>  <m_primary>  (39) 
energy

$$$$
39:0
     RDKit          3D

 51 54  0  0  0  0  0  0  0  0999 V2000
   59.6820   29.6650   47.2290 C   0  0  0  0  0  0  0  0  0  0  0  0
   59.0010   30.2040   46.2060 C   0  0  0  0  0  0  0  0  0  0  0  0
   58.3500   29.5240   45.1610 C   0  0  0  0  0  0  0  0  0  0  0  0
   58.3560   28.2220   44.8120 C   0  0  0  0  0  0  0  0  0  0  0  0
   57.4990   27.1720   45.3940 C   0  0  0  0  0  0  0  0  0  0  0  0
   56.1270   27.3880   45.6100 C   0  0  0  0  0  0  0  0  0  0  0  0
   55.5310   28.5890   45.2460 O   0  0  0  0  0  0  0  0  0  0  0  0
   55.3720   26.4160   46.1850 N   0  0  0  0  0  0  0  0  0  0  0  0
   55.9230   25.2380   46.5750 C   0  0  0  0  0  0  0  0  0  0  0  0
   55.2020   24.3510   47.1010 O   0  0  0  0  0  0  0  0  0  0  0  0
   57.2510   25.0180   46.4020 N   0  0  0  0  0  0  0  0  0  0  0  0
   58.0490   25.9570   45.8310 C   0  0  0  0  0  0  0  0  0  0  0  0
   59.2800   25.7230   45.6940 O   0  0  0  0  0  0  0  0  0  0  0  0
   57.6350   30.4810   44.4610 C   0  0  0  0  0  0  0  0  0  0  0  0
   57.9070   31.6970   45.0500 C   0  0  0  0  0  0  0  0  0  0  0  0
   57.3380   33.0080   44.5970 C   0  0  0  0  0  0  0  0  0  0  0  0
   58.7330   31.5330   46.1080 N   0  0  0  0  0  0  0  0  0  0  0  0
   59.1950   32.5800   46.9820 C   0  0  0  0  0  0  0  0  0  0  0  0
   59.6740   33.7840   46.4460 C   0  0  0  0  0  0  0  0  0  0  0  0
   60.1180   34.8020   47.2930 C   0  0  0  0  0  0  0  0  0  0  0  0
   60.0940   34.6240   48.6780 C   0  0  0  0  0  0  0  0  0  0  0  0
   59.6340   33.4160   49.2260 C   0  0  0  0  0  0  0  0  0  0  0  0
   59.6320   33.2310   50.6890 C   0  0  0  0  0  0  0  0  0  0  0  0
   58.8520   33.9260   51.3920 O   0  0  0  0  0  0  0  0  0  0  0  0
   60.5240   32.3180   51.3460 N   0  0  0  0  0  0  0  0  0  0  0  0
   61.9860   32.3620   51.3100 C   0  0  0  0  0  0  0  0  0  0  0  0
   62.4920   32.5040   49.8960 C   0  0  0  0  0  0  0  0  0  0  0  0
   62.3180   31.4560   48.9760 C   0  0  0  0  0  0  0  0  0  0  0  0
   62.7570   31.5940   47.6560 C   0  0  0  0  0  0  0  0  0  0  0  0
   63.3840   32.7740   47.2480 C   0  0  0  0  0  0  0  0  0  0  0  0
   63.5770   33.8150   48.1590 C   0  0  0  0  0  0  0  0  0  0  0  0
   63.1380   33.6830   49.4800 C   0  0  0  0  0  0  0  0  0  0  0  0
   63.3370   34.7050   50.3520 F   0  0  0  0  0  0  0  0  0  0  0  0
   59.1670   32.4040   48.3740 C   0  0  0  0  0  0  0  0  0  0  0  0
   60.1467   30.3160   47.9842 H   0  0  0  0  0  0  0  0  0  0  0  0
   59.7756   28.5722   47.3124 H   0  0  0  0  0  0  0  0  0  0  0  0
   59.0611   27.9161   44.0250 H   0  0  0  0  0  0  0  0  0  0  0  0
   56.9753   30.3044   43.5987 H   0  0  0  0  0  0  0  0  0  0  0  0
   57.0741   33.6161   45.4748 H   0  0  0  0  0  0  0  0  0  0  0  0
   58.0851   33.5425   43.9919 H   0  0  0  0  0  0  0  0  0  0  0  0
   56.4373   32.8273   43.9919 H   0  0  0  0  0  0  0  0  0  0  0  0
   59.7001   33.9271   45.3557 H   0  0  0  0  0  0  0  0  0  0  0  0
   60.4877   35.7468   46.8679 H   0  0  0  0  0  0  0  0  0  0  0  0
   60.4363   35.4322   49.3411 H   0  0  0  0  0  0  0  0  0  0  0  0
   62.3340   33.2202   51.9037 H   0  0  0  0  0  0  0  0  0  0  0  0
   62.3735   31.4204   51.7261 H   0  0  0  0  0  0  0  0  0  0  0  0
   61.8336   30.5218   49.2964 H   0  0  0  0  0  0  0  0  0  0  0  0
   62.6088   30.7735   46.9385 H   0  0  0  0  0  0  0  0  0  0  0  0
   63.7260   32.8833   46.2082 H   0  0  0  0  0  0  0  0  0  0  0  0
   64.0756   34.7410   47.8365 H   0  0  0  0  0  0  0  0  0  0  0  0
   58.7768   31.4676   48.7993 H   0  0  0  0  0  0  0  0  0  0  0  0
  1  2  2  0
  2  3  1  0
  3  4  2  3
  4  5  1  0
  5  6  2  0
  6  7  1  0
  6  8  1  0
  8  9  1  0
  9 10  2  0
  9 11  1  0
 11 12  1  0
 12 13  2  0
  3 14  1  0
 14 15  2  0
 15 16  1  0
 15 17  1  0
 17 18  1  0
 18 19  2  0
 19 20  1  0
 20 21  2  0
 21 22  1  0
 22 23  1  0
 23 24  2  0
 23 25  1  0
 25 26  1  0
 26 27  1  0
 27 28  2  0
 28 29  1  0
 29 30  2  0
 30 31  1  0
 31 32  2  0
 32 33  1  0
 22 34  2  0
 17  2  1  0
 34 18  1  0
 12  5  1  0
 32 27  1  0
  1 35  1  0
  1 36  1  0
  4 37  1  0
 14 38  1  0
 16 39  1  0
 16 40  1  0
 16 41  1  0
 19 42  1  0
 20 43  1  0
 21 44  1  0
 26 45  1  0
 26 46  1  0
 28 47  1  0
 29 48  1  0
 30 49  1  0
 31 50  1  0
 34 51  1  0
M  CHG  4   7  -1   8  -1  11  -1  25  -1
M  END
>  <UniqueID>  (40) 
33

>  <SMILES>  (40) 
C=c1c(=Cc2c([O-])[n-]c(=O)[n-]c2=O)cc(C)n1-c1cccc(C(=O)[N-]Cc2ccccc2F)c1

>  <Energy>  (40) 
105.98820926966962

>  <Genealogy>  (40) 
C=c1c(=Cc2c([O-])[n-]c(=O)[n-]c2=O)cc(C)n1-c1cccc(C(=O)[N-]Cc2ccccc2F)c1 (protonated)
C=c1c(=Cc2c([O-])[n-]c(=O)[n-]c2=O)cc(C)n1-c1cccc(C(=O)[N-]Cc2ccccc2F)c1 (3D coordinates assigned)
C=c1c(=Cc2c([O-])[n-]c(=O)[n-]c2=O)cc(C)n1-c1cccc(C(=O)[N-]Cc2ccccc2F)c1 (optimized conformer: 105.98820926966962 kcal/mol)

>  <smiles>  (40) 
C=c1c(=Cc2c(O)[nH]c(=O)[nH]c2=O)cc(C)n1-c1cccc(C(=O)NCc2ccccc2F)c1

>  <score_type>  (40) 
oracle

>  <origin>  (40) 
adg

>  <m_score__min__energy>  (40) 
-17.77

>  <m_primary>  (40) 
energy

$$$$
40:0
     RDKit          3D

 45 47  0  0  0  0  0  0  0  0999 V2000
   58.0257   25.0000   48.3129 H   0  0  0  0  0  0  0  0  0  0  0  0
   57.4490   25.5350   47.5440 C   0  0  0  0  0  0  0  0  0  0  0  0
   56.2760   25.0210   47.0950 N   0  0  0  0  0  0  0  0  0  0  0  0
   55.5440   25.6610   46.1400 C   0  0  0  0  0  0  0  0  0  0  0  0
   54.4110   25.1820   45.7100 N   0  0  0  0  0  0  0  0  0  0  0  0
   54.1700   24.0250   44.8860 C   0  0  0  0  0  0  0  0  0  0  0  0
   53.0730   23.4180   45.0090 O   0  0  0  0  0  0  0  0  0  0  0  0
   55.1660   23.4970   43.8950 C   0  0  0  0  0  0  0  0  0  0  0  0
   56.0143   23.0473   44.4318 H   0  0  0  0  0  0  0  0  0  0  0  0
   54.6862   22.7348   43.2635 H   0  0  0  0  0  0  0  0  0  0  0  0
   55.5275   24.3219   43.2635 H   0  0  0  0  0  0  0  0  0  0  0  0
   55.9980   26.8350   45.6280 N   0  0  0  0  0  0  0  0  0  0  0  0
   57.1670   27.3960   46.0460 C   0  0  0  0  0  0  0  0  0  0  0  0
   57.5980   28.6910   45.4800 C   0  0  0  0  0  0  0  0  0  0  0  0
   56.7340   29.6350   44.3820 S   0  0  0  0  0  0  0  0  0  0  0  0
   57.8910   30.8430   44.2130 C   0  0  0  0  0  0  0  0  0  0  0  0
   57.7520   32.0820   43.4250 C   0  0  0  0  0  0  0  0  0  0  0  0
   57.2880   32.0040   42.2560 O   0  0  0  0  0  0  0  0  0  0  0  0
   58.1260   33.3730   43.9290 N   0  0  0  0  0  0  0  0  0  0  0  0
   57.6700   33.9810   45.1770 C   0  0  0  0  0  0  0  0  0  0  0  0
   56.6461   33.6416   45.3927 H   0  0  0  0  0  0  0  0  0  0  0  0
   57.6902   35.0755   45.0693 H   0  0  0  0  0  0  0  0  0  0  0  0
   58.5740   33.5850   46.3140 C   0  0  0  0  0  0  0  0  0  0  0  0
   58.0560   32.9610   47.4590 C   0  0  0  0  0  0  0  0  0  0  0  0
   56.9824   32.7291   47.5192 H   0  0  0  0  0  0  0  0  0  0  0  0
   58.8990   32.6340   48.5210 C   0  0  0  0  0  0  0  0  0  0  0  0
   58.4858   32.1526   49.4196 H   0  0  0  0  0  0  0  0  0  0  0  0
   60.2660   32.9150   48.4490 C   0  0  0  0  0  0  0  0  0  0  0  0
   60.9229   32.6522   49.2913 H   0  0  0  0  0  0  0  0  0  0  0  0
   60.8080   33.5320   47.3060 C   0  0  0  0  0  0  0  0  0  0  0  0
   62.2600   33.8120   47.2150 C   0  0  0  0  0  0  0  0  0  0  0  0
   62.8240   33.8810   46.0880 O   0  0  0  0  0  0  0  0  0  0  0  0
   63.0350   33.9950   48.4050 N   0  0  0  0  0  0  0  0  0  0  0  0
   64.0520   33.0480   48.8350 C   0  0  0  0  0  0  0  0  0  0  0  0
   64.0840   33.0182   49.9341 H   0  0  0  0  0  0  0  0  0  0  0  0
   63.8085   32.0475   48.4480 H   0  0  0  0  0  0  0  0  0  0  0  0
   65.0326   33.3621   48.4480 H   0  0  0  0  0  0  0  0  0  0  0  0
   59.9470   33.8730   46.2450 C   0  0  0  0  0  0  0  0  0  0  0  0
   60.3543   34.3704   45.3524 H   0  0  0  0  0  0  0  0  0  0  0  0
   58.9590   30.5410   45.0530 C   0  0  0  0  0  0  0  0  0  0  0  0
   59.8424   31.1876   45.1603 H   0  0  0  0  0  0  0  0  0  0  0  0
   58.8020   29.3350   45.7490 C   0  0  0  0  0  0  0  0  0  0  0  0
   59.5577   28.9357   46.4414 H   0  0  0  0  0  0  0  0  0  0  0  0
   57.9230   26.7420   47.0300 C   0  0  0  0  0  0  0  0  0  0  0  0
   58.8698   27.1719   47.3888 H   0  0  0  0  0  0  0  0  0  0  0  0
  1  2  1  0
  2  3  1  0
  3  4  1  0
  4  5  2  0
  5  6  1  0
  6  7  2  0
  6  8  1  0
  8  9  1  0
  8 10  1  0
  8 11  1  0
  4 12  1  0
 12 13  2  0
 13 14  1  0
 14 15  1  0
 15 16  1  0
 16 17  1  0
 17 18  2  0
 17 19  1  0
 19 20  1  0
 20 21  1  0
 20 22  1  0
 20 23  1  0
 23 24  2  0
 24 25  1  0
 24 26  1  0
 26 27  1  0
 26 28  2  0
 28 29  1  0
 28 30  1  0
 30 31  1  0
 31 32  2  0
 31 33  1  0
 33 34  1  0
 34 35  1  0
 34 36  1  0
 34 37  1  0
 30 38  2  0
 38 39  1  0
 16 40  2  0
 40 41  1  0
 40 42  1  0
 42 43  1  0
 13 44  1  0
 44 45  1  0
 44  2  2  0
 42 14  2  0
 38 23  1  0
M  CHG  3   3  -1  19  -1  33  -1
M  END
>  <UniqueID>  (41) 
34

>  <SMILES>  (41) 
C[N-]C(=O)c1cccc(C[N-]C(=O)c2ccc(-c3cc[n-]/c(=N\C(C)=O)n3)s2)c1

>  <Energy>  (41) 
77.6271669117488

>  <Genealogy>  (41) 
C[N-]C(=O)c1cccc(C[N-]C(=O)c2ccc(-c3cc[n-]c(=NC(C)=O)n3)s2)c1 (protonated)
C[N-]C(=O)c1cccc(C[N-]C(=O)c2ccc(-c3cc[n-]/c(=N\C(C)=O)n3)s2)c1 (cis-trans isomerization)
C[N-]C(=O)c1cccc(C[N-]C(=O)c2ccc(-c3cc[n-]/c(=N\C(C)=O)n3)s2)c1 (3D coordinates assigned)
C[N-]C(=O)c1cccc(C[N-]C(=O)c2ccc(-c3cc[n-]/c(=N\C(C)=O)n3)s2)c1 (optimized conformer: 77.6271669117488 kcal/mol)

>  <smiles>  (41) 
CNC(=O)c1cccc(CNC(=O)c2ccc(-c3cc[nH]c(=NC(C)=O)n3)s2)c1

>  <score_type>  (41) 
oracle

>  <origin>  (41) 
adg

>  <m_score__min__energy>  (41) 
-13.99

>  <m_primary>  (41) 
energy

$$$$
41:0
     RDKit          3D

 64 67  0  0  0  0  0  0  0  0999 V2000
   55.4780   28.9700   44.9780 O   0  0  0  0  0  0  0  0  0  0  0  0
   56.7120   28.7230   45.0680 C   0  0  0  0  0  0  0  0  0  0  0  0
   57.6720   29.7020   44.6380 N   0  0  0  0  0  0  0  0  0  0  0  0
   57.2890   31.0510   44.2220 C   0  0  0  0  0  0  0  0  0  0  0  0
   57.8310   32.1110   45.1880 C   0  0  0  0  0  0  0  0  0  0  0  0
   59.1940   31.5000   46.1710 S   0  0  0  0  0  0  0  0  0  0  0  0
   60.1720   32.6100   46.4360 O   0  0  0  0  0  0  0  0  0  0  0  0
   59.9020   30.3920   45.4400 O   0  0  0  0  0  0  0  0  0  0  0  0
   58.5660   30.9370   47.6870 N   0  0  0  0  0  0  0  0  0  0  0  0
   59.2800   30.0700   48.5730 C   0  0  0  0  0  0  0  0  0  0  0  0
   59.5750   28.7430   48.2220 C   0  0  0  0  0  0  0  0  0  0  0  0
   60.2840   27.9230   49.1060 C   0  0  0  0  0  0  0  0  0  0  0  0
   60.7050   28.4200   50.3480 C   0  0  0  0  0  0  0  0  0  0  0  0
   61.5790   27.3760   51.4720 S   0  0  0  0  0  0  0  0  0  0  0  0
   60.7900   27.2520   52.7490 O   0  0  0  0  0  0  0  0  0  0  0  0
   61.7070   26.0030   50.8710 O   0  0  0  0  0  0  0  0  0  0  0  0
   63.1740   27.9950   51.8230 N   0  0  0  0  0  0  0  0  0  0  0  0
   63.6740   27.4430   53.0970 C   0  0  0  0  0  0  0  0  0  0  0  0
   64.9350   28.1770   53.6060 C   0  0  0  0  0  0  0  0  0  0  0  0
   65.6180   29.0330   52.5220 C   0  0  0  0  0  0  0  0  0  0  0  0
   66.3980   28.1590   51.5430 C   0  0  0  0  0  0  0  0  0  0  0  0
   67.4740   28.7330   50.8390 C   0  0  0  0  0  0  0  0  0  0  0  0
   68.2460   27.9640   49.9640 C   0  0  0  0  0  0  0  0  0  0  0  0
   67.9620   26.6080   49.7850 C   0  0  0  0  0  0  0  0  0  0  0  0
   66.9030   26.0220   50.4780 C   0  0  0  0  0  0  0  0  0  0  0  0
   66.1280   26.7840   51.3560 C   0  0  0  0  0  0  0  0  0  0  0  0
   64.6060   30.0090   51.8620 C   0  0  0  0  0  0  0  0  0  0  0  0
   63.1640   29.4640   51.8450 C   0  0  0  0  0  0  0  0  0  0  0  0
   60.4260   29.7510   50.6900 C   0  0  0  0  0  0  0  0  0  0  0  0
   59.7310   30.5750   49.7990 C   0  0  0  0  0  0  0  0  0  0  0  0
   57.1470   27.4080   45.5850 C   0  0  0  0  0  0  0  0  0  0  0  0
   58.5180   27.0870   45.5850 C   0  0  0  0  0  0  0  0  0  0  0  0
   58.9580   25.8550   46.0750 C   0  0  0  0  0  0  0  0  0  0  0  0
   58.0360   24.9260   46.5600 C   0  0  0  0  0  0  0  0  0  0  0  0
   56.6720   25.2230   46.5470 C   0  0  0  0  0  0  0  0  0  0  0  0
   56.2210   26.4530   46.0550 C   0  0  0  0  0  0  0  0  0  0  0  0
   54.8520   26.7000   46.0090 O   0  0  0  0  0  0  0  0  0  0  0  0
   58.6890   29.4600   44.6300 H   0  0  0  0  0  0  0  0  0  0  0  0
   57.6925   31.2434   43.2169 H   0  0  0  0  0  0  0  0  0  0  0  0
   56.1908   31.1136   44.2211 H   0  0  0  0  0  0  0  0  0  0  0  0
   58.1760   32.9776   44.6049 H   0  0  0  0  0  0  0  0  0  0  0  0
   57.0177   32.3871   45.8753 H   0  0  0  0  0  0  0  0  0  0  0  0
   59.2477   28.3471   47.2493 H   0  0  0  0  0  0  0  0  0  0  0  0
   60.5123   26.8841   48.8259 H   0  0  0  0  0  0  0  0  0  0  0  0
   62.8826   27.5340   53.8556 H   0  0  0  0  0  0  0  0  0  0  0  0
   63.9472   26.3920   52.9214 H   0  0  0  0  0  0  0  0  0  0  0  0
   64.6447   28.8341   54.4390 H   0  0  0  0  0  0  0  0  0  0  0  0
   65.6570   27.4082   53.9185 H   0  0  0  0  0  0  0  0  0  0  0  0
   66.3738   29.6797   52.9915 H   0  0  0  0  0  0  0  0  0  0  0  0
   67.7094   29.7983   50.9793 H   0  0  0  0  0  0  0  0  0  0  0  0
   69.0790   28.4274   49.4151 H   0  0  0  0  0  0  0  0  0  0  0  0
   68.5727   26.0033   49.0985 H   0  0  0  0  0  0  0  0  0  0  0  0
   66.6769   24.9553   50.3327 H   0  0  0  0  0  0  0  0  0  0  0  0
   65.3014   26.3104   51.9060 H   0  0  0  0  0  0  0  0  0  0  0  0
   64.6160   30.9555   52.4223 H   0  0  0  0  0  0  0  0  0  0  0  0
   64.9172   30.1466   50.8159 H   0  0  0  0  0  0  0  0  0  0  0  0
   62.6348   29.8098   52.7452 H   0  0  0  0  0  0  0  0  0  0  0  0
   62.6532   29.8318   50.9428 H   0  0  0  0  0  0  0  0  0  0  0  0
   60.7547   30.1481   51.6618 H   0  0  0  0  0  0  0  0  0  0  0  0
   59.5376   31.6253   50.0625 H   0  0  0  0  0  0  0  0  0  0  0  0
   59.2482   27.8120   45.1961 H   0  0  0  0  0  0  0  0  0  0  0  0
   60.0319   25.6168   46.0786 H   0  0  0  0  0  0  0  0  0  0  0  0
   58.3844   23.9593   46.9527 H   0  0  0  0  0  0  0  0  0  0  0  0
   55.9480   24.4864   46.9254 H   0  0  0  0  0  0  0  0  0  0  0  0
  1  2  2  0
  2  3  1  0
  3  4  1  0
  4  5  1  0
  5  6  1  0
  6  7  2  0
  6  8  2  0
  6  9  1  0
  9 10  1  0
 10 11  2  0
 11 12  1  0
 12 13  2  0
 13 14  1  0
 14 15  2  0
 14 16  2  0
 14 17  1  0
 17 18  1  0
 18 19  1  0
 19 20  1  0
 20 21  1  0
 21 22  2  0
 22 23  1  0
 23 24  2  0
 24 25  1  0
 25 26  2  0
 20 27  1  0
 27 28  1  0
 13 29  1  0
 29 30  2  0
  2 31  1  0
 31 32  2  0
 32 33  1  0
 33 34  2  0
 34 35  1  0
 35 36  2  0
 36 37  1  0
 30 10  1  0
 36 31  1  0
 28 17  1  0
 26 21  1  0
  3 38  1  0
  4 39  1  0
  4 40  1  0
  5 41  1  0
  5 42  1  0
 11 43  1  0
 12 44  1  0
 18 45  1  0
 18 46  1  0
 19 47  1  0
 19 48  1  0
 20 49  1  0
 22 50  1  0
 23 51  1  0
 24 52  1  0
 25 53  1  0
 26 54  1  0
 27 55  1  0
 27 56  1  0
 28 57  1  0
 28 58  1  0
 29 59  1  0
 30 60  1  0
 32 61  1  0
 33 62  1  0
 34 63  1  0
 35 64  1  0
M  CHG  2   9  -1  37  -1
M  END
>  <UniqueID>  (42) 
35

>  <SMILES>  (42) 
O=C(NCCS(=O)(=O)[N-]c1ccc(S(=O)(=O)N2CCC(c3ccccc3)CC2)cc1)c1ccccc1[O-]

>  <Energy>  (42) 
79.61102093864015

>  <Genealogy>  (42) 
O=C(NCCS(=O)(=O)[N-]c1ccc(S(=O)(=O)N2CCC(c3ccccc3)CC2)cc1)c1ccccc1[O-] (protonated)
O=C(NCCS(=O)(=O)[N-]c1ccc(S(=O)(=O)N2CCC(c3ccccc3)CC2)cc1)c1ccccc1[O-] (3D coordinates assigned)
O=C(NCCS(=O)(=O)[N-]c1ccc(S(=O)(=O)N2CCC(c3ccccc3)CC2)cc1)c1ccccc1[O-] (nonaromatic ring conformer: 79.61102093864015 kcal/mol)

>  <smiles>  (42) 
O=C(NCCS(=O)(=O)Nc1ccc(S(=O)(=O)N2CCC(c3ccccc3)CC2)cc1)c1ccccc1O

>  <score_type>  (42) 
oracle

>  <origin>  (42) 
adg

>  <m_score__min__energy>  (42) 
-15.779999999999999

>  <m_primary>  (42) 
energy

$$$$
42:0
     RDKit          3D

 51 53  0  0  0  0  0  0  0  0999 V2000
   60.7970   28.5690   49.8270 C   0  0  0  0  0  0  0  0  0  0  0  0
   59.5800   28.8230   48.9850 C   0  0  0  0  0  0  0  0  0  0  0  0
   58.7720   29.7250   49.3460 O   0  0  0  0  0  0  0  0  0  0  0  0
   59.3000   28.0280   47.7560 C   0  0  0  0  0  0  0  0  0  0  0  0
   59.9520   26.8010   47.5140 C   0  0  0  0  0  0  0  0  0  0  0  0
   59.6710   26.0600   46.3590 C   0  0  0  0  0  0  0  0  0  0  0  0
   58.7300   26.5280   45.4390 C   0  0  0  0  0  0  0  0  0  0  0  0
   58.0540   27.7330   45.6640 C   0  0  0  0  0  0  0  0  0  0  0  0
   57.0970   28.1930   44.6940 N   0  0  0  0  0  0  0  0  0  0  0  0
   57.1400   29.4850   44.0580 C   0  0  0  0  0  0  0  0  0  0  0  0
   56.2710   29.6870   42.6710 S   0  0  0  0  0  0  0  0  0  0  0  0
   57.7610   30.6060   44.7330 N   0  0  0  0  0  0  0  0  0  0  0  0
   57.9300   31.9430   44.1940 C   0  0  0  0  0  0  0  0  0  0  0  0
   57.6190   32.2010   42.9910 O   0  0  0  0  0  0  0  0  0  0  0  0
   58.4930   33.0370   45.0270 C   0  0  0  0  0  0  0  0  0  0  0  0
   58.7350   34.3160   44.4970 C   0  0  0  0  0  0  0  0  0  0  0  0
   59.2720   35.3310   45.2960 C   0  0  0  0  0  0  0  0  0  0  0  0
   59.5910   35.0820   46.6250 C   0  0  0  0  0  0  0  0  0  0  0  0
   59.3760   33.8080   47.1700 C   0  0  0  0  0  0  0  0  0  0  0  0
   59.8100   33.4970   48.8500 S   0  0  0  0  0  0  0  0  0  0  0  0
   59.6690   34.7770   49.6280 O   0  0  0  0  0  0  0  0  0  0  0  0
   58.8980   32.4570   49.4390 O   0  0  0  0  0  0  0  0  0  0  0  0
   61.4590   32.9310   48.9200 N   0  0  0  0  0  0  0  0  0  0  0  0
   62.4120   34.0240   48.6190 C   0  0  0  0  0  0  0  0  0  0  0  0
   63.0450   33.8780   47.2240 C   0  0  0  0  0  0  0  0  0  0  0  0
   63.7360   32.6490   47.0540 O   0  0  0  0  0  0  0  0  0  0  0  0
   63.1150   31.5470   47.7080 C   0  0  0  0  0  0  0  0  0  0  0  0
   61.6290   31.7590   48.0410 C   0  0  0  0  0  0  0  0  0  0  0  0
   58.8260   32.7920   46.3730 C   0  0  0  0  0  0  0  0  0  0  0  0
   58.3600   28.4890   46.8110 C   0  0  0  0  0  0  0  0  0  0  0  0
   60.5249   28.6258   50.8913 H   0  0  0  0  0  0  0  0  0  0  0  0
   61.1953   27.5684   49.6033 H   0  0  0  0  0  0  0  0  0  0  0  0
   61.5623   29.3268   49.6033 H   0  0  0  0  0  0  0  0  0  0  0  0
   60.6878   26.4225   48.2388 H   0  0  0  0  0  0  0  0  0  0  0  0
   60.1919   25.1086   46.1763 H   0  0  0  0  0  0  0  0  0  0  0  0
   58.5184   25.9451   44.5305 H   0  0  0  0  0  0  0  0  0  0  0  0
   56.2890   27.5670   44.4730 H   0  0  0  0  0  0  0  0  0  0  0  0
   58.1400   30.4190   45.6860 H   0  0  0  0  0  0  0  0  0  0  0  0
   58.4996   34.5212   43.4423 H   0  0  0  0  0  0  0  0  0  0  0  0
   59.4424   36.3308   44.8701 H   0  0  0  0  0  0  0  0  0  0  0  0
   60.0120   35.8838   47.2494 H   0  0  0  0  0  0  0  0  0  0  0  0
   61.8763   34.9836   48.6659 H   0  0  0  0  0  0  0  0  0  0  0  0
   63.2214   33.9796   49.3626 H   0  0  0  0  0  0  0  0  0  0  0  0
   62.2473   33.9390   46.4690 H   0  0  0  0  0  0  0  0  0  0  0  0
   63.7809   34.6877   47.1102 H   0  0  0  0  0  0  0  0  0  0  0  0
   63.1983   30.6672   47.0530 H   0  0  0  0  0  0  0  0  0  0  0  0
   63.6359   31.4187   48.6683 H   0  0  0  0  0  0  0  0  0  0  0  0
   61.0686   31.9215   47.1085 H   0  0  0  0  0  0  0  0  0  0  0  0
   61.2499   30.8666   48.5605 H   0  0  0  0  0  0  0  0  0  0  0  0
   58.6534   31.7948   46.8040 H   0  0  0  0  0  0  0  0  0  0  0  0
   57.8582   29.4544   46.9729 H   0  0  0  0  0  0  0  0  0  0  0  0
  1  2  1  0
  2  3  2  0
  2  4  1  0
  4  5  2  0
  5  6  1  0
  6  7  2  0
  7  8  1  0
  8  9  1  0
  9 10  1  0
 10 11  2  0
 10 12  1  0
 12 13  1  0
 13 14  2  0
 13 15  1  0
 15 16  2  0
 16 17  1  0
 17 18  2  0
 18 19  1  0
 19 20  1  0
 20 21  2  0
 20 22  2  0
 20 23  1  0
 23 24  1  0
 24 25  1  0
 25 26  1  0
 26 27  1  0
 27 28  1  0
 19 29  2  0
  8 30  2  0
 30  4  1  0
 29 15  1  0
 28 23  1  0
  1 31  1  0
  1 32  1  0
  1 33  1  0
  5 34  1  0
  6 35  1  0
  7 36  1  0
  9 37  1  0
 12 38  1  0
 16 39  1  0
 17 40  1  0
 18 41  1  0
 24 42  1  0
 24 43  1  0
 25 44  1  0
 25 45  1  0
 27 46  1  0
 27 47  1  0
 28 48  1  0
 28 49  1  0
 29 50  1  0
 30 51  1  0
M  END
>  <UniqueID>  (43) 
36

>  <SMILES>  (43) 
CC(=O)c1cccc(NC(=S)NC(=O)c2cccc(S(=O)(=O)N3CCOCC3)c2)c1

>  <Energy>  (43) 
74.67168214967833

>  <Genealogy>  (43) 
CC(=O)c1cccc(NC(=S)NC(=O)c2cccc(S(=O)(=O)N3CCOCC3)c2)c1 (3D coordinates assigned)
CC(=O)c1cccc(NC(=S)NC(=O)c2cccc(S(=O)(=O)N3CCOCC3)c2)c1 (nonaromatic ring conformer: 74.67168214967833 kcal/mol)

>  <smiles>  (43) 
CC(=O)c1cccc(NC(=S)NC(=O)c2cccc(S(=O)(=O)N3CCOCC3)c2)c1

>  <score_type>  (43) 
oracle

>  <origin>  (43) 
adg

>  <m_score__min__energy>  (43) 
-10.75

>  <m_primary>  (43) 
energy

$$$$
43:0
     RDKit          3D

 51 54  0  0  0  0  0  0  0  0999 V2000
   57.5600   28.3250   45.7780 O   0  0  0  0  0  0  0  0  0  0  0  0
   56.9370   29.0150   44.9260 C   0  0  0  0  0  0  0  0  0  0  0  0
   55.5290   29.0300   44.8880 N   0  0  0  0  0  0  0  0  0  0  0  0
   55.1490   29.7020   43.6680 C   0  0  0  0  0  0  0  0  0  0  0  0
   56.4630   29.9770   42.9200 C   0  0  0  0  0  0  0  0  0  0  0  0
   57.5940   29.6840   43.8410 N   0  0  1  0  0  0  0  0  0  0  0  0
   58.3170   30.9260   44.2560 C   0  0  0  0  0  0  0  0  0  0  0  0
   59.1990   30.6380   45.5140 C   0  0  0  0  0  0  0  0  0  0  0  0
   59.4440   31.8720   46.3920 C   0  0  0  0  0  0  0  0  0  0  0  0
   59.4400   33.0800   45.5560 N   0  0  0  0  0  0  0  0  0  0  0  0
   60.0850   34.2470   46.1980 C   0  0  0  0  0  0  0  0  0  0  0  0
   61.1150   33.8860   47.2500 C   0  0  0  0  0  0  0  0  0  0  0  0
   62.4760   33.8020   46.9130 C   0  0  0  0  0  0  0  0  0  0  0  0
   63.4280   33.4950   47.8880 C   0  0  0  0  0  0  0  0  0  0  0  0
   63.0310   33.2640   49.2060 C   0  0  0  0  0  0  0  0  0  0  0  0
   61.6780   33.3260   49.5580 C   0  0  0  0  0  0  0  0  0  0  0  0
   61.3150   33.0840   50.8910 O   0  0  0  0  0  0  0  0  0  0  0  0
   60.0020   32.8840   51.3460 C   0  0  0  0  0  0  0  0  0  0  0  0
   59.4290   33.8310   52.2020 C   0  0  0  0  0  0  0  0  0  0  0  0
   58.1310   33.6510   52.6860 C   0  0  0  0  0  0  0  0  0  0  0  0
   57.4010   32.5150   52.3280 C   0  0  0  0  0  0  0  0  0  0  0  0
   57.9710   31.5560   51.4870 C   0  0  0  0  0  0  0  0  0  0  0  0
   59.2700   31.7330   51.0040 C   0  0  0  0  0  0  0  0  0  0  0  0
   60.7250   33.6660   48.5820 C   0  0  0  0  0  0  0  0  0  0  0  0
   58.0880   33.3740   45.0420 C   0  0  0  0  0  0  0  0  0  0  0  0
   57.3510   32.1040   44.5570 C   0  0  0  0  0  0  0  0  0  0  0  0
   54.4912   29.0592   43.0646 H   0  0  0  0  0  0  0  0  0  0  0  0
   54.5946   30.6302   43.8707 H   0  0  0  0  0  0  0  0  0  0  0  0
   56.5285   29.3301   42.0327 H   0  0  0  0  0  0  0  0  0  0  0  0
   56.5014   31.0269   42.5941 H   0  0  0  0  0  0  0  0  0  0  0  0
   58.2580   29.0100   43.3900 H   0  0  0  0  0  0  0  0  0  0  0  0
   58.9521   31.2264   43.4096 H   0  0  0  0  0  0  0  0  0  0  0  0
   58.6955   29.8729   46.1232 H   0  0  0  0  0  0  0  0  0  0  0  0
   60.1811   30.3042   45.1480 H   0  0  0  0  0  0  0  0  0  0  0  0
   58.6485   31.9473   47.1480 H   0  0  0  0  0  0  0  0  0  0  0  0
   60.4192   31.7769   46.8920 H   0  0  0  0  0  0  0  0  0  0  0  0
   60.5831   34.8394   45.4163 H   0  0  0  0  0  0  0  0  0  0  0  0
   59.2890   34.8050   46.7128 H   0  0  0  0  0  0  0  0  0  0  0  0
   62.7941   33.9790   45.8750 H   0  0  0  0  0  0  0  0  0  0  0  0
   64.4923   33.4352   47.6166 H   0  0  0  0  0  0  0  0  0  0  0  0
   63.7856   33.0320   49.9720 H   0  0  0  0  0  0  0  0  0  0  0  0
   60.0037   34.7219   52.4954 H   0  0  0  0  0  0  0  0  0  0  0  0
   57.6830   34.4049   53.3500 H   0  0  0  0  0  0  0  0  0  0  0  0
   56.3782   32.3757   52.7080 H   0  0  0  0  0  0  0  0  0  0  0  0
   57.3968   30.6612   51.2050 H   0  0  0  0  0  0  0  0  0  0  0  0
   59.7218   30.9693   50.3539 H   0  0  0  0  0  0  0  0  0  0  0  0
   59.6658   33.7606   48.8632 H   0  0  0  0  0  0  0  0  0  0  0  0
   57.4983   33.8391   45.8457 H   0  0  0  0  0  0  0  0  0  0  0  0
   58.1970   34.0477   44.1793 H   0  0  0  0  0  0  0  0  0  0  0  0
   56.6440   31.7880   45.3382 H   0  0  0  0  0  0  0  0  0  0  0  0
   56.8357   32.3579   43.6189 H   0  0  0  0  0  0  0  0  0  0  0  0
  1  2  2  0
  2  3  1  0
  3  4  1  0
  4  5  1  0
  5  6  1  0
  6  7  1  0
  7  8  1  0
  8  9  1  0
  9 10  1  0
 10 11  1  0
 11 12  1  0
 12 13  2  0
 13 14  1  0
 14 15  2  0
 15 16  1  0
 16 17  1  0
 17 18  1  0
 18 19  2  0
 19 20  1  0
 20 21  2  0
 21 22  1  0
 22 23  2  0
 16 24  2  0
 10 25  1  0
 25 26  1  0
  6  2  1  0
 26  7  1  0
 24 12  1  0
 23 18  1  0
  4 27  1  0
  4 28  1  0
  5 29  1  0
  5 30  1  0
  6 31  1  6
  7 32  1  0
  8 33  1  0
  8 34  1  0
  9 35  1  0
  9 36  1  0
 11 37  1  0
 11 38  1  0
 13 39  1  0
 14 40  1  0
 15 41  1  0
 19 42  1  0
 20 43  1  0
 21 44  1  0
 22 45  1  0
 23 46  1  0
 24 47  1  0
 25 48  1  0
 25 49  1  0
 26 50  1  0
 26 51  1  0
M  CHG  2   3  -1   6   1
M  END
>  <UniqueID>  (44) 
37

>  <SMILES>  (44) 
O=C1[N-]CC[N@H+]1C1CCN(Cc2cccc(Oc3ccccc3)c2)CC1

>  <Energy>  (44) 
83.83438359607453

>  <Genealogy>  (44) 
O=C1[N-]CC[NH+]1C1CCN(Cc2cccc(Oc3ccccc3)c2)CC1 (protonated)
O=C1[N-]CC[N@H+]1C1CCN(Cc2cccc(Oc3ccccc3)c2)CC1 (chirality)
O=C1[N-]CC[N@H+]1C1CCN(Cc2cccc(Oc3ccccc3)c2)CC1 (3D coordinates assigned)
O=C1[N-]CC[N@H+]1C1CCN(Cc2cccc(Oc3ccccc3)c2)CC1 (nonaromatic ring conformer: 83.83438359607453 kcal/mol)

>  <smiles>  (44) 
O=C1NCCN1C1CCN(Cc2cccc(Oc3ccccc3)c2)CC1

>  <score_type>  (44) 
oracle

>  <origin>  (44) 
adg

>  <m_score__min__energy>  (44) 
-9.3800000000000008

>  <m_primary>  (44) 
energy

$$$$
44:0
     RDKit          3D

 55 58  0  0  0  0  0  0  0  0999 V2000
   58.4690   28.3773   44.1317 H   0  0  0  0  0  0  0  0  0  0  0  0
   59.0370   28.9240   46.0780 C   0  0  0  0  0  0  0  0  0  0  0  0
   58.3340   28.1780   45.2050 C   0  0  0  0  0  0  0  0  0  0  0  0
   58.1650   32.0750   45.3980 N   0  0  0  0  0  0  0  0  0  0  0  0
   57.5720   31.4900   44.1930 C   0  0  0  0  0  0  0  0  0  0  0  0
   56.8163   30.7445   44.4811 H   0  0  0  0  0  0  0  0  0  0  0  0
   57.0965   32.2825   43.5965 H   0  0  0  0  0  0  0  0  0  0  0  0
   58.3580   31.0037   43.5965 H   0  0  0  0  0  0  0  0  0  0  0  0
   58.7300   33.3760   45.5000 C   0  0  0  0  0  0  0  0  0  0  0  0
   58.6440   34.4150   44.5640 C   0  0  0  0  0  0  0  0  0  0  0  0
   58.1057   34.2729   43.6153 H   0  0  0  0  0  0  0  0  0  0  0  0
   59.2590   35.6410   44.8620 C   0  0  0  0  0  0  0  0  0  0  0  0
   59.2081   36.4691   44.1398 H   0  0  0  0  0  0  0  0  0  0  0  0
   59.9400   35.8150   46.0800 C   0  0  0  0  0  0  0  0  0  0  0  0
   60.4134   36.7810   46.3097 H   0  0  0  0  0  0  0  0  0  0  0  0
   60.0180   34.7620   47.0030 C   0  0  0  0  0  0  0  0  0  0  0  0
   60.5450   34.8937   47.9595 H   0  0  0  0  0  0  0  0  0  0  0  0
   59.4130   33.5400   46.6850 C   0  0  0  0  0  0  0  0  0  0  0  0
   59.3550   32.2870   47.5190 C   0  0  0  0  0  0  0  0  0  0  0  0
   58.5330   32.5620   48.7880 C   0  0  0  0  0  0  0  0  0  0  0  0
   59.1490   32.3559   49.6757 H   0  0  0  0  0  0  0  0  0  0  0  0
   58.2158   33.6152   48.7983 H   0  0  0  0  0  0  0  0  0  0  0  0
   57.6459   31.9117   48.7983 H   0  0  0  0  0  0  0  0  0  0  0  0
   60.7820   31.8030   47.8360 C   0  0  0  0  0  0  0  0  0  0  0  0
   60.9196   31.7563   48.9264 H   0  0  0  0  0  0  0  0  0  0  0  0
   60.9344   30.8029   47.4040 H   0  0  0  0  0  0  0  0  0  0  0  0
   61.5114   32.5040   47.4040 H   0  0  0  0  0  0  0  0  0  0  0  0
   58.3440   30.0440   46.7400 C   0  0  0  0  0  0  0  0  0  0  0  0
   60.5990   28.3640   46.7980 S   0  0  0  0  0  0  0  0  0  0  0  0
   59.9350   27.7640   48.3960 C   0  0  0  0  0  0  0  0  0  0  0  0
   58.8796   27.4814   48.2688 H   0  0  0  0  0  0  0  0  0  0  0  0
   60.5180   26.8909   48.7243 H   0  0  0  0  0  0  0  0  0  0  0  0
   60.0390   28.8450   49.4340 C   0  0  0  0  0  0  0  0  0  0  0  0
   61.2930   29.3300   49.8420 C   0  0  0  0  0  0  0  0  0  0  0  0
   62.2109   28.9145   49.4007 H   0  0  0  0  0  0  0  0  0  0  0  0
   61.3790   30.3390   50.8070 C   0  0  0  0  0  0  0  0  0  0  0  0
   62.3636   30.7144   51.1225 H   0  0  0  0  0  0  0  0  0  0  0  0
   60.2160   30.8710   51.3710 C   0  0  0  0  0  0  0  0  0  0  0  0
   60.3250   32.1350   52.5820 Cl  0  0  0  0  0  0  0  0  0  0  0  0
   58.9640   30.3910   50.9720 C   0  0  0  0  0  0  0  0  0  0  0  0
   58.0485   30.8086   51.4163 H   0  0  0  0  0  0  0  0  0  0  0  0
   58.8750   29.3810   50.0090 C   0  0  0  0  0  0  0  0  0  0  0  0
   57.8886   29.0045   49.7003 H   0  0  0  0  0  0  0  0  0  0  0  0
   58.6010   31.3580   46.5670 C   0  0  0  0  0  0  0  0  0  0  0  0
   57.5392   29.7838   47.4433 H   0  0  0  0  0  0  0  0  0  0  0  0
   57.3930   27.1090   45.5970 C   0  0  0  0  0  0  0  0  0  0  0  0
   56.0130   27.3570   45.6070 C   0  0  0  0  0  0  0  0  0  0  0  0
   55.5170   28.6020   45.2320 O   0  0  0  0  0  0  0  0  0  0  0  0
   55.1470   26.3740   45.9730 N   0  0  0  0  0  0  0  0  0  0  0  0
   54.1200   26.5650   45.9630 H   0  0  0  0  0  0  0  0  0  0  0  0
   55.6020   25.1490   46.3510 C   0  0  0  0  0  0  0  0  0  0  0  0
   54.7890   24.2450   46.6810 O   0  0  0  0  0  0  0  0  0  0  0  0
   56.9360   24.8980   46.3810 N   0  0  0  0  0  0  0  0  0  0  0  0
   57.8380   25.8460   46.0240 C   0  0  0  0  0  0  0  0  0  0  0  0
   59.0680   25.5860   46.0980 O   0  0  0  0  0  0  0  0  0  0  0  0
  1  2  1  0
  2  3  2  0
  3  4  1  0
  4  5  1  0
  5  6  1  0
  5  7  1  0
  5  8  1  0
  4  9  1  0
  9 10  2  0
 10 11  1  0
 10 12  1  0
 12 13  1  0
 12 14  2  0
 14 15  1  0
 14 16  1  0
 16 17  1  0
 16 18  2  0
 18 19  1  0
 19 20  1  0
 20 21  1  0
 20 22  1  0
 20 23  1  0
 19 24  1  0
 24 25  1  0
 24 26  1  0
 24 27  1  0
  2 28  1  0
 28 29  1  0
 29 30  1  0
 30 31  1  0
 30 32  1  0
 30 33  1  0
 33 34  2  0
 34 35  1  0
 34 36  1  0
 36 37  1  0
 36 38  2  0
 38 39  1  0
 38 40  1  0
 40 41  1  0
 40 42  2  0
 42 43  1  0
 28 44  2  0
 44 45  1  0
 44 46  1  0
 46 47  2  0
 47 48  1  0
 47 49  1  0
 49 50  1  0
 49 51  1  0
 51 52  2  0
 51 53  1  0
 53 54  1  0
 54 55  2  0
 19  3  1  0
 42 33  1  0
 54 46  1  0
 18  9  1  0
M  CHG  2  48  -1  53  -1
M  END
>  <UniqueID>  (45) 
38

>  <SMILES>  (45) 
CN1C(=C/C(=C/c2c([O-])[nH]c(=O)[n-]c2=O)SCc2ccc(Cl)cc2)C(C)(C)c2ccccc21

>  <Energy>  (45) 
94.86859243191613

>  <Genealogy>  (45) 
CN1C(=CC(=Cc2c([O-])[nH]c(=O)[n-]c2=O)SCc2ccc(Cl)cc2)C(C)(C)c2ccccc21 (protonated)
CN1C(=C/C(=C/c2c([O-])[nH]c(=O)[n-]c2=O)SCc2ccc(Cl)cc2)C(C)(C)c2ccccc21 (cis-trans isomerization)
CN1C(=C/C(=C/c2c([O-])[nH]c(=O)[n-]c2=O)SCc2ccc(Cl)cc2)C(C)(C)c2ccccc21 (3D coordinates assigned)
CN1C(=C/C(=C/c2c([O-])[nH]c(=O)[n-]c2=O)SCc2ccc(Cl)cc2)C(C)(C)c2ccccc21 (nonaromatic ring conformer: 94.86859243191613 kcal/mol)

>  <smiles>  (45) 
CN1C(=CC(=Cc2c(O)[nH]c(=O)[nH]c2=O)SCc2ccc(Cl)cc2)C(C)(C)c2ccccc21

>  <score_type>  (45) 
oracle

>  <origin>  (45) 
adg

>  <m_score__min__energy>  (45) 
-14.720000000000001

>  <m_primary>  (45) 
energy

$$$$
45:0
     RDKit          3D

 61 64  0  0  0  0  0  0  0  0999 V2000
   57.7150   33.4090   43.7720 O   0  0  0  0  0  0  0  0  0  0  0  0
   57.6210   32.7820   44.8610 C   0  0  0  0  0  0  0  0  0  0  0  0
   56.9110   31.5370   44.9320 N   0  0  0  0  0  0  0  0  0  0  0  0
   57.4730   30.2200   45.0110 C   0  0  0  0  0  0  0  0  0  0  0  0
   58.8660   30.0880   44.9880 C   0  0  0  0  0  0  0  0  0  0  0  0
   59.4620   28.8250   45.0450 C   0  0  0  0  0  0  0  0  0  0  0  0
   58.6660   27.6670   45.1180 C   0  0  0  0  0  0  0  0  0  0  0  0
   59.2100   26.3740   45.1910 O   0  0  0  0  0  0  0  0  0  0  0  0
   58.6650   25.2900   45.9440 C   0  0  0  0  0  0  0  0  0  0  0  0
   58.0950   24.2350   45.0340 C   0  0  0  0  0  0  0  0  0  0  0  0
   58.5940   22.9220   45.0780 C   0  0  0  0  0  0  0  0  0  0  0  0
   58.0600   21.9380   44.2400 C   0  0  0  0  0  0  0  0  0  0  0  0
   57.0200   22.2540   43.3610 C   0  0  0  0  0  0  0  0  0  0  0  0
   56.5090   23.5540   43.3220 C   0  0  0  0  0  0  0  0  0  0  0  0
   57.0390   24.5410   44.1580 C   0  0  0  0  0  0  0  0  0  0  0  0
   57.2730   27.7990   45.1110 C   0  0  0  0  0  0  0  0  0  0  0  0
   56.6770   29.0620   45.0500 C   0  0  0  0  0  0  0  0  0  0  0  0
   58.1670   33.4000   46.1220 C   0  0  2  0  0  0  0  0  0  0  0  0
   59.5800   33.9930   45.8980 C   0  0  0  0  0  0  0  0  0  0  0  0
   60.6720   33.0320   46.3850 C   0  0  0  0  0  0  0  0  0  0  0  0
   60.5620   32.7660   47.8400 N   0  0  2  0  0  0  0  0  0  0  0  0
   61.4070   31.2840   48.2260 S   0  0  0  0  0  0  0  0  0  0  0  0
   60.8840   30.7420   49.5280 O   0  0  0  0  0  0  0  0  0  0  0  0
   61.1540   30.2720   47.1420 O   0  0  0  0  0  0  0  0  0  0  0  0
   63.1260   31.6060   48.3510 N   0  0  0  0  0  0  0  0  0  0  0  0
   63.6260   32.3910   47.2010 C   0  0  0  0  0  0  0  0  0  0  0  0
   63.7690   33.8910   47.5220 C   0  0  0  0  0  0  0  0  0  0  0  0
   62.7810   34.2900   48.4460 O   0  0  0  0  0  0  0  0  0  0  0  0
   63.0290   33.7080   49.7150 C   0  0  0  0  0  0  0  0  0  0  0  0
   63.4750   32.2280   49.6410 C   0  0  0  0  0  0  0  0  0  0  0  0
   59.1660   32.7270   48.3550 C   0  0  0  0  0  0  0  0  0  0  0  0
   58.1430   32.3650   47.2700 C   0  0  0  0  0  0  0  0  0  0  0  0
   59.4976   30.9863   44.9245 H   0  0  0  0  0  0  0  0  0  0  0  0
   60.5583   28.7359   45.0327 H   0  0  0  0  0  0  0  0  0  0  0  0
   59.4601   24.8434   46.5590 H   0  0  0  0  0  0  0  0  0  0  0  0
   57.8567   25.6772   46.5817 H   0  0  0  0  0  0  0  0  0  0  0  0
   59.4071   22.6675   45.7737 H   0  0  0  0  0  0  0  0  0  0  0  0
   58.4591   20.9135   44.2726 H   0  0  0  0  0  0  0  0  0  0  0  0
   56.6039   21.4794   42.7001 H   0  0  0  0  0  0  0  0  0  0  0  0
   55.6884   23.8010   42.6324 H   0  0  0  0  0  0  0  0  0  0  0  0
   56.6282   25.5610   44.1303 H   0  0  0  0  0  0  0  0  0  0  0  0
   56.6406   26.9000   45.1539 H   0  0  0  0  0  0  0  0  0  0  0  0
   55.5807   29.1501   45.0324 H   0  0  0  0  0  0  0  0  0  0  0  0
   57.5210   34.2422   46.4108 H   0  0  0  0  0  0  0  0  0  0  0  0
   59.7227   34.1827   44.8239 H   0  0  0  0  0  0  0  0  0  0  0  0
   59.6590   34.9278   46.4724 H   0  0  0  0  0  0  0  0  0  0  0  0
   60.5778   32.0807   45.8409 H   0  0  0  0  0  0  0  0  0  0  0  0
   61.6492   33.5003   46.1957 H   0  0  0  0  0  0  0  0  0  0  0  0
   61.0620   33.5360   48.3440 H   0  0  0  0  0  0  0  0  0  0  0  0
   64.6110   31.9983   46.9085 H   0  0  0  0  0  0  0  0  0  0  0  0
   62.8915   32.2938   46.3880 H   0  0  0  0  0  0  0  0  0  0  0  0
   64.7643   34.0768   47.9520 H   0  0  0  0  0  0  0  0  0  0  0  0
   63.6456   34.4689   46.5942 H   0  0  0  0  0  0  0  0  0  0  0  0
   63.8214   34.2855   50.2136 H   0  0  0  0  0  0  0  0  0  0  0  0
   62.0806   33.7318   50.2718 H   0  0  0  0  0  0  0  0  0  0  0  0
   64.5658   32.1795   49.7742 H   0  0  0  0  0  0  0  0  0  0  0  0
   62.9502   31.6767   50.4351 H   0  0  0  0  0  0  0  0  0  0  0  0
   59.1080   31.9768   49.1574 H   0  0  0  0  0  0  0  0  0  0  0  0
   58.9191   33.7346   48.7207 H   0  0  0  0  0  0  0  0  0  0  0  0
   58.3846   31.3715   46.8643 H   0  0  0  0  0  0  0  0  0  0  0  0
   57.1393   32.3625   47.7201 H   0  0  0  0  0  0  0  0  0  0  0  0
  1  2  2  0
  2  3  1  0
  3  4  1  0
  4  5  2  0
  5  6  1  0
  6  7  2  0
  7  8  1  0
  8  9  1  0
  9 10  1  0
 10 11  2  0
 11 12  1  0
 12 13  2  0
 13 14  1  0
 14 15  2  0
  7 16  1  0
 16 17  2  0
  2 18  1  0
 18 19  1  0
 19 20  1  0
 20 21  1  0
 21 22  1  0
 22 23  2  0
 22 24  2  0
 22 25  1  0
 25 26  1  0
 26 27  1  0
 27 28  1  0
 28 29  1  0
 29 30  1  0
 21 31  1  0
 31 32  1  0
 17  4  1  0
 32 18  1  0
 15 10  1  0
 30 25  1  0
  5 33  1  0
  6 34  1  0
  9 35  1  0
  9 36  1  0
 11 37  1  0
 12 38  1  0
 13 39  1  0
 14 40  1  0
 15 41  1  0
 16 42  1  0
 17 43  1  0
 18 44  1  1
 19 45  1  0
 19 46  1  0
 20 47  1  0
 20 48  1  0
 21 49  1  1
 26 50  1  0
 26 51  1  0
 27 52  1  0
 27 53  1  0
 29 54  1  0
 29 55  1  0
 30 56  1  0
 30 57  1  0
 31 58  1  0
 31 59  1  0
 32 60  1  0
 32 61  1  0
M  CHG  2   3  -1  21   1
M  END
>  <UniqueID>  (46) 
39

>  <SMILES>  (46) 
O=C([N-]c1ccc(OCc2ccccc2)cc1)C1CC[NH+](S(=O)(=O)N2CCOCC2)CC1

>  <Energy>  (46) 
80.540854395401

>  <Genealogy>  (46) 
O=C([N-]c1ccc(OCc2ccccc2)cc1)C1CC[NH+](S(=O)(=O)N2CCOCC2)CC1 (protonated)
O=C([N-]c1ccc(OCc2ccccc2)cc1)C1CC[NH+](S(=O)(=O)N2CCOCC2)CC1 (3D coordinates assigned)
O=C([N-]c1ccc(OCc2ccccc2)cc1)C1CC[NH+](S(=O)(=O)N2CCOCC2)CC1 (nonaromatic ring conformer: 80.540854395401 kcal/mol)

>  <smiles>  (46) 
O=C(Nc1ccc(OCc2ccccc2)cc1)C1CCN(S(=O)(=O)N2CCOCC2)CC1

>  <score_type>  (46) 
oracle

>  <origin>  (46) 
adg

>  <m_score__min__energy>  (46) 
-10.34

>  <m_primary>  (46) 
energy

$$$$
46:0
     RDKit          3D

 54 57  0  0  1  0  0  0  0  0999 V2000
   59.8460   25.2280   46.2150 O   0  0  0  0  0  0  0  0  0  0  0  0
   58.6720   25.4800   45.8690 C   0  0  0  0  0  0  0  0  0  0  0  0
   57.5940   24.5770   45.8220 N   0  0  0  0  0  0  0  0  0  0  0  0
   57.1520   23.9690   44.7960 C   0  0  0  0  0  0  0  0  0  0  0  0
   56.7210   24.5330   43.6730 N   0  0  0  0  0  0  0  0  0  0  0  0
   56.3350   23.5600   42.8350 N   0  0  0  0  0  0  0  0  0  0  0  0
   56.5340   22.3830   43.4580 C   0  0  0  0  0  0  0  0  0  0  0  0
   56.2710   21.2610   42.9400 O   0  0  0  0  0  0  0  0  0  0  0  0
   57.0460   22.6370   44.6870 N   0  0  0  0  0  0  0  0  0  0  0  0
   58.3940   26.8680   45.4680 C   0  0  0  0  0  0  0  0  0  0  0  0
   59.3660   27.6870   44.9270 C   0  0  0  0  0  0  0  0  0  0  0  0
   59.1360   28.9710   44.5480 C   0  0  0  0  0  0  0  0  0  0  0  0
   57.8770   29.5180   44.6960 C   0  0  0  0  0  0  0  0  0  0  0  0
   57.5170   31.1680   44.2220 S   0  0  0  0  0  0  0  0  0  0  0  0
   57.3690   31.1530   42.7250 O   0  0  0  0  0  0  0  0  0  0  0  0
   56.2070   31.5260   44.8640 O   0  0  0  0  0  0  0  0  0  0  0  0
   58.6920   32.2920   44.7210 N   0  0  0  0  0  0  0  0  0  0  0  0
   58.3700   33.6550   44.5020 C   0  0  0  0  0  0  0  0  0  0  0  0
   58.5670   34.5780   45.6530 C   0  0  0  0  0  0  0  0  0  0  0  0
   58.4100   33.9890   47.0260 C   0  0  0  0  0  0  0  0  0  0  0  0
   59.4460   34.4800   47.9790 C   0  0  0  0  0  0  0  0  0  0  0  0
   60.8140   33.9680   47.7720 C   0  0  0  0  0  0  0  0  0  0  0  0
   61.5670   34.2020   46.6400 C   0  0  0  0  0  0  0  0  0  0  0  0
   62.8380   33.6880   46.5160 C   0  0  0  0  0  0  0  0  0  0  0  0
   63.4210   32.9160   47.5140 C   0  0  0  0  0  0  0  0  0  0  0  0
   62.6730   32.6790   48.6480 C   0  0  0  0  0  0  0  0  0  0  0  0
   61.3800   33.2030   48.7740 C   0  0  0  0  0  0  0  0  0  0  0  0
   58.3240   32.4990   47.0700 C   0  0  0  0  0  0  0  0  0  0  0  0
   59.2290   31.9580   45.9940 C   0  0  0  0  0  0  0  0  0  0  0  0
   56.8810   28.7290   45.2330 C   0  0  0  0  0  0  0  0  0  0  0  0
   57.1230   27.4250   45.6160 C   0  0  0  0  0  0  0  0  0  0  0  0
   56.6800   25.5460   43.4570 H   0  0  0  0  0  0  0  0  0  0  0  0
   55.9550   23.7150   41.8820 H   0  0  0  0  0  0  0  0  0  0  0  0
   57.2970   21.9380   45.3820 H   0  0  0  0  0  0  0  0  0  0  0  0
   60.3788   27.2782   44.7963 H   0  0  0  0  0  0  0  0  0  0  0  0
   59.9520   29.5744   44.1236 H   0  0  0  0  0  0  0  0  0  0  0  0
   58.9955   34.0169   43.6727 H   0  0  0  0  0  0  0  0  0  0  0  0
   57.2889   33.6694   44.2995 H   0  0  0  0  0  0  0  0  0  0  0  0
   59.5852   34.9879   45.5808 H   0  0  0  0  0  0  0  0  0  0  0  0
   57.7635   35.3241   45.5654 H   0  0  0  0  0  0  0  0  0  0  0  0
   57.4254   34.3559   47.3515 H   0  0  0  0  0  0  0  0  0  0  0  0
   59.4822   35.5766   47.9002 H   0  0  0  0  0  0  0  0  0  0  0  0
   59.1380   34.1079   48.9673 H   0  0  0  0  0  0  0  0  0  0  0  0
   61.1456   34.8082   45.8245 H   0  0  0  0  0  0  0  0  0  0  0  0
   63.4096   33.8945   45.5992 H   0  0  0  0  0  0  0  0  0  0  0  0
   64.4376   32.5106   47.4038 H   0  0  0  0  0  0  0  0  0  0  0  0
   63.0961   32.0722   49.4621 H   0  0  0  0  0  0  0  0  0  0  0  0
   60.8036   33.0015   49.6890 H   0  0  0  0  0  0  0  0  0  0  0  0
   58.6516   32.1334   48.0544 H   0  0  0  0  0  0  0  0  0  0  0  0
   57.2882   32.1671   46.9062 H   0  0  0  0  0  0  0  0  0  0  0  0
   60.2306   32.4006   46.0986 H   0  0  0  0  0  0  0  0  0  0  0  0
   59.3036   30.8646   46.0886 H   0  0  0  0  0  0  0  0  0  0  0  0
   55.8718   29.1481   45.3588 H   0  0  0  0  0  0  0  0  0  0  0  0
   56.3081   26.8206   46.0409 H   0  0  0  0  0  0  0  0  0  0  0  0
  1  2  2  0
  2  3  1  0
  3  4  2  0
  4  5  1  0
  5  6  1  0
  6  7  1  0
  7  8  2  0
  7  9  1  0
  2 10  1  0
 10 11  2  0
 11 12  1  0
 12 13  2  0
 13 14  1  0
 14 15  2  0
 14 16  2  0
 14 17  1  0
 17 18  1  0
 18 19  1  0
 19 20  1  0
 20 21  1  0
 21 22  1  0
 22 23  2  0
 23 24  1  0
 24 25  2  0
 25 26  1  0
 26 27  2  0
 20 28  1  0
 28 29  1  0
 13 30  1  0
 30 31  2  0
  9  4  1  0
 31 10  1  0
 29 17  1  0
 27 22  1  0
  5 32  1  0
  6 33  1  0
  9 34  1  0
 11 35  1  0
 12 36  1  0
 18 37  1  0
 18 38  1  0
 19 39  1  0
 19 40  1  0
 20 41  1  0
 21 42  1  0
 21 43  1  0
 23 44  1  0
 24 45  1  0
 25 46  1  0
 26 47  1  0
 27 48  1  0
 28 49  1  0
 28 50  1  0
 29 51  1  0
 29 52  1  0
 30 53  1  0
 31 54  1  0
M  END
>  <smiles>  (47) 
O=C(N=c1[nH][nH]c(=O)[nH]1)c1ccc(S(=O)(=O)N2CCC(Cc3ccccc3)CC2)cc1

>  <score_type>  (47) 
oracle

>  <origin>  (47) 
adg

>  <m_score__min__energy>  (47) 
-11.32

>  <m_primary>  (47) 
energy

$$$$
47:0
     RDKit          3D

 35 36  0  0  0  0  0  0  0  0999 V2000
   59.8940   28.8370   47.0780 C   0  0  0  0  0  0  0  0  0  0  0  0
   59.4930   28.5500   48.5210 C   0  0  0  0  0  0  0  0  0  0  0  0
   58.4840   29.4590   48.9550 O   0  0  0  0  0  0  0  0  0  0  0  0
   58.4750   30.0550   50.2220 C   0  0  0  0  0  0  0  0  0  0  0  0
   57.4160   30.0960   50.9060 O   0  0  0  0  0  0  0  0  0  0  0  0
   59.7080   30.6430   50.7520 C   0  0  0  0  0  0  0  0  0  0  0  0
   60.4550   29.9450   51.4890 O   0  0  0  0  0  0  0  0  0  0  0  0
   60.0740   31.9800   50.3690 N   0  0  0  0  0  0  0  0  0  0  0  0
   59.8660   32.5790   49.2320 C   0  0  0  0  0  0  0  0  0  0  0  0
   59.2870   32.0240   48.1380 N   0  0  0  0  0  0  0  0  0  0  0  0
   59.2330   32.8940   47.0870 C   0  0  0  0  0  0  0  0  0  0  0  0
   58.6450   32.5220   45.7760 C   0  0  0  0  0  0  0  0  0  0  0  0
   58.6860   33.4170   44.6900 C   0  0  0  0  0  0  0  0  0  0  0  0
   58.1380   33.0600   43.4570 C   0  0  0  0  0  0  0  0  0  0  0  0
   57.5370   31.8100   43.2910 C   0  0  0  0  0  0  0  0  0  0  0  0
   57.4770   30.9120   44.3630 C   0  0  0  0  0  0  0  0  0  0  0  0
   56.7260   29.3320   44.1590 S   0  0  0  0  0  0  0  0  0  0  0  0
   55.1490   29.3480   44.8660 N   0  0  0  0  0  0  0  0  0  0  0  0
   56.6180   29.0070   42.6960 O   0  0  0  0  0  0  0  0  0  0  0  0
   57.5590   28.2760   44.8270 O   0  0  0  0  0  0  0  0  0  0  0  0
   58.0340   31.2660   45.5990 C   0  0  0  0  0  0  0  0  0  0  0  0
   59.7850   34.1500   47.3500 C   0  0  0  0  0  0  0  0  0  0  0  0
   60.3470   34.1570   48.9350 S   0  0  0  0  0  0  0  0  0  0  0  0
   60.7885   29.4772   47.0664 H   0  0  0  0  0  0  0  0  0  0  0  0
   60.1141   27.8901   46.5633 H   0  0  0  0  0  0  0  0  0  0  0  0
   59.0687   29.3508   46.5633 H   0  0  0  0  0  0  0  0  0  0  0  0
   59.1071   27.5223   48.5907 H   0  0  0  0  0  0  0  0  0  0  0  0
   60.3773   28.6706   49.1640 H   0  0  0  0  0  0  0  0  0  0  0  0
   58.9740   31.0330   48.0640 H   0  0  0  0  0  0  0  0  0  0  0  0
   59.1534   34.4050   44.8142 H   0  0  0  0  0  0  0  0  0  0  0  0
   58.1795   33.7650   42.6136 H   0  0  0  0  0  0  0  0  0  0  0  0
   57.1102   31.5309   42.3163 H   0  0  0  0  0  0  0  0  0  0  0  0
   55.1470   28.6250   45.6210 H   0  0  0  0  0  0  0  0  0  0  0  0
   57.9935   30.5563   46.4385 H   0  0  0  0  0  0  0  0  0  0  0  0
   59.8422   34.9900   46.6421 H   0  0  0  0  0  0  0  0  0  0  0  0
  1  2  1  0
  2  3  1  0
  3  4  1  0
  4  5  2  0
  4  6  1  0
  6  7  2  0
  6  8  1  0
  8  9  2  3
  9 10  1  0
 10 11  1  0
 11 12  1  0
 12 13  2  0
 13 14  1  0
 14 15  2  0
 15 16  1  0
 16 17  1  0
 17 18  1  0
 17 19  2  0
 17 20  2  0
 16 21  2  0
 11 22  2  0
 22 23  1  0
 23  9  1  0
 21 12  1  0
  1 24  1  0
  1 25  1  0
  1 26  1  0
  2 27  1  0
  2 28  1  0
 10 29  1  0
 13 30  1  0
 14 31  1  0
 15 32  1  0
 18 33  1  0
 21 34  1  0
 22 35  1  0
M  CHG  1  18  -1
M  END
>  <UniqueID>  (48) 
40

>  <SMILES>  (48) 
CCOC(=O)C(=O)N=c1[nH]c(-c2cccc(S([NH-])(=O)=O)c2)cs1

>  <Energy>  (48) 
67.55778849991185

>  <Genealogy>  (48) 
CCOC(=O)C(=O)N=c1[nH]c(-c2cccc(S([NH-])(=O)=O)c2)cs1 (protonated)
CCOC(=O)C(=O)N=c1[nH]c(-c2cccc(S([NH-])(=O)=O)c2)cs1 (3D coordinates assigned)
CCOC(=O)C(=O)N=c1[nH]c(-c2cccc(S([NH-])(=O)=O)c2)cs1 (optimized conformer: 67.55778849991185 kcal/mol)

>  <smiles>  (48) 
CCOC(=O)C(=O)N=c1[nH]c(-c2cccc(S(N)(=O)=O)c2)cs1

>  <score_type>  (48) 
oracle

>  <origin>  (48) 
adg

>  <m_score__min__energy>  (48) 
-10.15

>  <m_primary>  (48) 
energy

$$$$
48:0
     RDKit          3D

 33 34  0  0  0  0  0  0  0  0999 V2000
   56.6170   30.4930   42.7240 C   0  0  0  0  0  0  0  0  0  0  0  0
   56.2980   29.4640   43.8240 C   0  0  0  0  0  0  0  0  0  0  0  0
   56.9380   29.7350   45.1330 N   0  0  0  0  0  0  0  0  0  0  0  0
   57.5210   31.0800   45.2510 C   0  0  0  0  0  0  0  0  0  0  0  0
   59.0260   30.9190   45.2430 C   0  0  0  0  0  0  0  0  0  0  0  0
   59.2530   29.5470   45.8370 C   0  0  0  0  0  0  0  0  0  0  0  0
   57.9810   28.7580   45.5030 C   0  0  1  0  0  0  0  0  0  0  0  0
   57.4890   27.9130   46.6900 C   0  0  0  0  0  0  0  0  0  0  0  0
   57.1850   26.5440   46.2700 N   0  0  0  0  0  0  0  0  0  0  0  0
   55.9830   26.0160   45.9920 C   0  0  0  0  0  0  0  0  0  0  0  0
   54.7810   26.7160   46.0190 O   0  0  0  0  0  0  0  0  0  0  0  0
   56.1410   24.6860   45.6740 C   0  0  0  0  0  0  0  0  0  0  0  0
   55.0630   23.7440   45.2480 C   0  0  0  0  0  0  0  0  0  0  0  0
   57.4500   24.3620   45.7310 N   0  0  0  0  0  0  0  0  0  0  0  0
   58.0460   25.5170   46.1040 C   0  0  0  0  0  0  0  0  0  0  0  0
   59.2900   25.6200   46.2750 O   0  0  0  0  0  0  0  0  0  0  0  0
   56.9124   31.4458   43.1877 H   0  0  0  0  0  0  0  0  0  0  0  0
   57.4411   30.1183   42.0992 H   0  0  0  0  0  0  0  0  0  0  0  0
   55.7254   30.6501   42.0992 H   0  0  0  0  0  0  0  0  0  0  0  0
   55.2082   29.4486   43.9726 H   0  0  0  0  0  0  0  0  0  0  0  0
   56.7020   28.5023   43.4750 H   0  0  0  0  0  0  0  0  0  0  0  0
   57.2044   31.7036   44.4020 H   0  0  0  0  0  0  0  0  0  0  0  0
   57.1861   31.5703   46.1770 H   0  0  0  0  0  0  0  0  0  0  0  0
   59.4188   30.9701   44.2168 H   0  0  0  0  0  0  0  0  0  0  0  0
   59.5387   31.7130   45.8059 H   0  0  0  0  0  0  0  0  0  0  0  0
   60.1346   29.0700   45.3840 H   0  0  0  0  0  0  0  0  0  0  0  0
   59.4416   29.5902   46.9199 H   0  0  0  0  0  0  0  0  0  0  0  0
   58.2002   28.0607   44.6809 H   0  0  0  0  0  0  0  0  0  0  0  0
   58.2723   27.8868   47.4619 H   0  0  0  0  0  0  0  0  0  0  0  0
   56.5706   28.3693   47.0878 H   0  0  0  0  0  0  0  0  0  0  0  0
   54.5756   23.3181   46.1374 H   0  0  0  0  0  0  0  0  0  0  0  0
   54.3187   24.2864   44.6464 H   0  0  0  0  0  0  0  0  0  0  0  0
   55.5007   22.9338   44.6464 H   0  0  0  0  0  0  0  0  0  0  0  0
  1  2  1  0
  2  3  1  0
  3  4  1  0
  4  5  1  0
  5  6  1  0
  6  7  1  0
  7  8  1  0
  8  9  1  0
  9 10  1  0
 10 11  1  0
 10 12  2  0
 12 13  1  0
 12 14  1  0
 14 15  1  0
 15 16  2  0
  7  3  1  0
 15  9  1  0
  1 17  1  0
  1 18  1  0
  1 19  1  0
  2 20  1  0
  2 21  1  0
  4 22  1  0
  4 23  1  0
  5 24  1  0
  5 25  1  0
  6 26  1  0
  6 27  1  0
  7 28  1  6
  8 29  1  0
  8 30  1  0
 13 31  1  0
 13 32  1  0
 13 33  1  0
M  CHG  2  11  -1  14  -1
M  END
>  <UniqueID>  (49) 
41

>  <SMILES>  (49) 
CCN1CCC[C@H]1Cn1c([O-])c(C)[n-]c1=O

>  <Energy>  (49) 
64.65961182965634

>  <Genealogy>  (49) 
CCN1CCCC1Cn1c([O-])c(C)[n-]c1=O (protonated)
CCN1CCC[C@H]1Cn1c([O-])c(C)[n-]c1=O (chirality)
CCN1CCC[C@H]1Cn1c([O-])c(C)[n-]c1=O (3D coordinates assigned)
CCN1CCC[C@H]1Cn1c([O-])c(C)[n-]c1=O (nonaromatic ring conformer: 64.65961182965634 kcal/mol)

>  <smiles>  (49) 
CCN1CCCC1Cn1c(O)c(C)[nH]c1=O

>  <score_type>  (49) 
oracle

>  <origin>  (49) 
adg

>  <m_score__min__energy>  (49) 
-11.130000000000001

>  <m_primary>  (49) 
energy

$$$$
49:0
     RDKit          3D

 48 50  0  0  1  0  0  0  0  0999 V2000
   59.6110   30.8870   51.1720 C   0  0  0  0  0  0  0  0  0  0  0  0
   58.7890   29.9070   50.5360 O   0  0  0  0  0  0  0  0  0  0  0  0
   58.7960   29.8300   49.1540 C   0  0  0  0  0  0  0  0  0  0  0  0
   58.8650   28.6030   48.6080 N   0  0  0  0  0  0  0  0  0  0  0  0
   58.8740   28.5060   47.2680 C   0  0  0  0  0  0  0  0  0  0  0  0
   58.9390   27.3380   46.7470 N   0  0  0  0  0  0  0  0  0  0  0  0
   57.7790   26.5480   46.5320 C   0  0  0  0  0  0  0  0  0  0  0  0
   57.8010   25.3690   46.9640 O   0  0  0  0  0  0  0  0  0  0  0  0
   56.6670   27.1520   45.8340 C   0  0  0  0  0  0  0  0  0  0  0  0
   56.8240   28.1310   45.0260 O   0  0  0  0  0  0  0  0  0  0  0  0
   55.3420   26.7280   45.9770 O   0  0  0  0  0  0  0  0  0  0  0  0
   58.8110   29.6750   46.5010 C   0  0  0  0  0  0  0  0  0  0  0  0
   58.7420   30.9240   47.0500 C   0  0  0  0  0  0  0  0  0  0  0  0
   58.6420   32.1860   46.3590 C   0  0  0  0  0  0  0  0  0  0  0  0
   57.9680   32.2150   45.1420 C   0  0  0  0  0  0  0  0  0  0  0  0
   57.7630   33.4050   44.4390 C   0  0  0  0  0  0  0  0  0  0  0  0
   58.2170   34.6110   44.9110 C   0  0  0  0  0  0  0  0  0  0  0  0
   58.8840   34.5900   46.1120 C   0  0  0  0  0  0  0  0  0  0  0  0
   59.0930   33.3950   46.8230 C   0  0  0  0  0  0  0  0  0  0  0  0
   59.8350   33.5830   48.0580 C   0  0  0  0  0  0  0  0  0  0  0  0
   59.2490   33.8320   49.1690 O   0  0  0  0  0  0  0  0  0  0  0  0
   61.2840   33.4930   48.0210 N   0  0  0  0  0  0  0  0  0  0  0  0
   61.9550   33.7070   49.2700 C   0  0  0  0  0  0  0  0  0  0  0  0
   63.4410   33.8200   49.1860 C   0  0  0  0  0  0  0  0  0  0  0  0
   64.0240   33.1010   47.9960 C   0  0  0  0  0  0  0  0  0  0  0  0
   63.3720   33.7580   46.7710 C   0  0  0  0  0  0  0  0  0  0  0  0
   61.9470   33.2030   46.7680 C   0  0  0  0  0  0  0  0  0  0  0  0
   58.7360   30.9600   48.4120 N   0  0  0  0  0  0  0  0  0  0  0  0
   59.5253   30.7848   52.2639 H   0  0  0  0  0  0  0  0  0  0  0  0
   60.6585   30.7382   50.8709 H   0  0  0  0  0  0  0  0  0  0  0  0
   59.2822   31.8926   50.8709 H   0  0  0  0  0  0  0  0  0  0  0  0
   55.0700   26.3160   46.8440 H   0  0  0  0  0  0  0  0  0  0  0  0
   58.8173   29.5838   45.4048 H   0  0  0  0  0  0  0  0  0  0  0  0
   57.5854   31.2735   44.7210 H   0  0  0  0  0  0  0  0  0  0  0  0
   57.2230   33.3743   43.4812 H   0  0  0  0  0  0  0  0  0  0  0  0
   58.0551   35.5468   44.3560 H   0  0  0  0  0  0  0  0  0  0  0  0
   59.2650   35.5340   46.5288 H   0  0  0  0  0  0  0  0  0  0  0  0
   61.5678   34.6387   49.7082 H   0  0  0  0  0  0  0  0  0  0  0  0
   61.7524   32.8146   49.8803 H   0  0  0  0  0  0  0  0  0  0  0  0
   63.7074   34.8850   49.1162 H   0  0  0  0  0  0  0  0  0  0  0  0
   63.8566   33.3489   50.0889 H   0  0  0  0  0  0  0  0  0  0  0  0
   65.1163   33.2272   47.9660 H   0  0  0  0  0  0  0  0  0  0  0  0
   63.8311   32.0187   48.0340 H   0  0  0  0  0  0  0  0  0  0  0  0
   63.3648   34.8533   46.8722 H   0  0  0  0  0  0  0  0  0  0  0  0
   63.9122   33.5425   45.8373 H   0  0  0  0  0  0  0  0  0  0  0  0
   61.3814   33.6639   45.9448 H   0  0  0  0  0  0  0  0  0  0  0  0
   61.9920   32.1120   46.6352 H   0  0  0  0  0  0  0  0  0  0  0  0
   58.7020   31.8360   48.9680 H   0  0  0  0  0  0  0  0  0  0  0  0
  1  2  1  0
  2  3  1  0
  3  4  2  0
  4  5  1  0
  5  6  2  0
  6  7  1  0
  7  8  2  0
  7  9  1  0
  9 10  2  0
  9 11  1  0
  5 12  1  0
 12 13  2  0
 13 14  1  0
 14 15  2  0
 15 16  1  0
 16 17  2  0
 17 18  1  0
 18 19  2  0
 19 20  1  0
 20 21  2  0
 20 22  1  0
 22 23  1  0
 23 24  1  0
 24 25  1  0
 25 26  1  0
 26 27  1  0
 13 28  1  0
 28  3  1  0
 19 14  1  0
 27 22  1  0
  1 29  1  0
  1 30  1  0
  1 31  1  0
 11 32  1  0
 12 33  1  0
 15 34  1  0
 16 35  1  0
 17 36  1  0
 18 37  1  0
 23 38  1  0
 23 39  1  0
 24 40  1  0
 24 41  1  0
 25 42  1  0
 25 43  1  0
 26 44  1  0
 26 45  1  0
 27 46  1  0
 27 47  1  0
 28 48  1  0
M  END
>  <smiles>  (50) 
COc1nc(=NC(=O)C(=O)O)cc(-c2ccccc2C(=O)N2CCCCC2)[nH]1

>  <score_type>  (50) 
oracle

>  <origin>  (50) 
adg

>  <m_score__min__energy>  (50) 
-9.1899999999999995

>  <m_primary>  (50) 
energy

$$$$
50:0
     RDKit          3D

 53 56  0  0  0  0  0  0  0  0999 V2000
   54.7760   26.2850   46.0350 N   0  0  0  0  0  0  0  0  0  0  0  0
   55.2970   24.6480   45.8420 S   0  0  0  0  0  0  0  0  0  0  0  0
   54.7840   24.1120   44.5360 O   0  0  0  0  0  0  0  0  0  0  0  0
   54.7410   23.8110   46.9590 O   0  0  0  0  0  0  0  0  0  0  0  0
   57.0560   24.5860   45.8720 C   0  0  0  0  0  0  0  0  0  0  0  0
   57.7300   23.5200   45.2590 C   0  0  0  0  0  0  0  0  0  0  0  0
   59.1250   23.4690   45.2840 C   0  0  0  0  0  0  0  0  0  0  0  0
   59.8560   24.4690   45.9300 C   0  0  0  0  0  0  0  0  0  0  0  0
   59.1910   25.5310   46.5700 C   0  0  0  0  0  0  0  0  0  0  0  0
   59.9180   26.5890   47.2220 N   0  0  0  0  0  0  0  0  0  0  0  0
   59.2980   27.6100   48.0230 C   0  0  0  0  0  0  0  0  0  0  0  0
   58.0830   27.8930   47.8450 O   0  0  0  0  0  0  0  0  0  0  0  0
   60.0890   28.3740   49.0200 C   0  0  0  0  0  0  0  0  0  0  0  0
   60.7620   27.7020   50.0560 C   0  0  0  0  0  0  0  0  0  0  0  0
   61.5090   28.4160   50.9950 C   0  0  0  0  0  0  0  0  0  0  0  0
   61.5970   29.8060   50.9130 C   0  0  0  0  0  0  0  0  0  0  0  0
   60.9330   30.4950   49.8880 C   0  0  0  0  0  0  0  0  0  0  0  0
   61.0600   31.9910   49.7780 C   0  0  0  0  0  0  0  0  0  0  0  0
   60.1750   32.5060   48.6860 C   0  0  0  0  0  0  0  0  0  0  0  0
   60.5940   33.2120   47.5620 C   0  0  0  0  0  0  0  0  0  0  0  0
   59.6020   33.5300   46.6890 N   0  0  0  0  0  0  0  0  0  0  0  0
   58.4030   33.0670   47.1110 C   0  0  0  0  0  0  0  0  0  0  0  0
   57.2860   33.2310   46.4670 N   0  0  0  0  0  0  0  0  0  0  0  0
   57.0270   32.8540   45.1050 C   0  0  0  0  0  0  0  0  0  0  0  0
   57.3360   33.6170   44.1500 O   0  0  0  0  0  0  0  0  0  0  0  0
   56.4550   31.5770   44.8100 N   0  0  0  0  0  0  0  0  0  0  0  0
   57.1790   30.3420   44.7330 C   0  0  0  0  0  0  0  0  0  0  0  0
   58.5650   30.3870   44.5330 C   0  0  0  0  0  0  0  0  0  0  0  0
   59.3100   29.2050   44.4560 C   0  0  0  0  0  0  0  0  0  0  0  0
   58.6710   27.9670   44.5570 C   0  0  0  0  0  0  0  0  0  0  0  0
   57.2820   27.9090   44.7160 C   0  0  0  0  0  0  0  0  0  0  0  0
   56.5310   29.0890   44.7910 C   0  0  0  0  0  0  0  0  0  0  0  0
   55.1470   29.0040   44.8880 O   0  0  0  0  0  0  0  0  0  0  0  0
   58.5150   32.2490   48.5740 S   0  0  0  0  0  0  0  0  0  0  0  0
   60.1940   29.7740   48.9370 C   0  0  0  0  0  0  0  0  0  0  0  0
   57.7890   25.5880   46.5250 C   0  0  0  0  0  0  0  0  0  0  0  0
   55.1370   26.8170   45.2120 H   0  0  0  0  0  0  0  0  0  0  0  0
   57.1595   22.7238   44.7583 H   0  0  0  0  0  0  0  0  0  0  0  0
   59.6511   22.6373   44.7926 H   0  0  0  0  0  0  0  0  0  0  0  0
   60.9551   24.4260   45.9383 H   0  0  0  0  0  0  0  0  0  0  0  0
   60.9350   26.6870   47.0070 H   0  0  0  0  0  0  0  0  0  0  0  0
   60.6995   26.6061   50.1271 H   0  0  0  0  0  0  0  0  0  0  0  0
   62.0300   27.8806   51.8024 H   0  0  0  0  0  0  0  0  0  0  0  0
   62.1888   30.3629   51.6544 H   0  0  0  0  0  0  0  0  0  0  0  0
   60.7652   32.4518   50.7323 H   0  0  0  0  0  0  0  0  0  0  0  0
   62.1041   32.2464   49.5443 H   0  0  0  0  0  0  0  0  0  0  0  0
   61.6447   33.4905   47.3936 H   0  0  0  0  0  0  0  0  0  0  0  0
   59.0713   31.3587   44.4358 H   0  0  0  0  0  0  0  0  0  0  0  0
   60.4001   29.2508   44.3158 H   0  0  0  0  0  0  0  0  0  0  0  0
   59.2592   27.0386   44.5116 H   0  0  0  0  0  0  0  0  0  0  0  0
   56.7781   26.9334   44.7823 H   0  0  0  0  0  0  0  0  0  0  0  0
   59.6916   30.3097   48.1181 H   0  0  0  0  0  0  0  0  0  0  0  0
   57.2612   26.4249   47.0056 H   0  0  0  0  0  0  0  0  0  0  0  0
  1  2  1  0
  2  3  2  0
  2  4  2  0
  2  5  1  0
  5  6  2  0
  6  7  1  0
  7  8  2  0
  8  9  1  0
  9 10  1  0
 10 11  1  0
 11 12  2  0
 11 13  1  0
 13 14  2  0
 14 15  1  0
 15 16  2  0
 16 17  1  0
 17 18  1  0
 18 19  1  0
 19 20  2  0
 20 21  1  0
 21 22  1  0
 22 23  2  3
 23 24  1  0
 24 25  2  0
 24 26  1  0
 26 27  1  0
 27 28  2  0
 28 29  1  0
 29 30  2  0
 30 31  1  0
 31 32  2  0
 32 33  1  0
 22 34  1  0
 17 35  2  0
  9 36  2  0
 36  5  1  0
 35 13  1  0
 34 19  1  0
 32 27  1  0
  1 37  1  0
  6 38  1  0
  7 39  1  0
  8 40  1  0
 10 41  1  0
 14 42  1  0
 15 43  1  0
 16 44  1  0
 18 45  1  0
 18 46  1  0
 20 47  1  0
 28 48  1  0
 29 49  1  0
 30 50  1  0
 31 51  1  0
 35 52  1  0
 36 53  1  0
M  CHG  4   1  -1  21  -1  26  -1  33  -1
M  END
>  <UniqueID>  (51) 
42

>  <SMILES>  (51) 
[NH-]S(=O)(=O)c1cccc(NC(=O)c2cccc(Cc3c[n-]c(=NC(=O)[N-]c4ccccc4[O-])s3)c2)c1

>  <Energy>  (51) 
98.499583863009

>  <Genealogy>  (51) 
[NH-]S(=O)(=O)c1cccc(NC(=O)c2cccc(Cc3c[n-]c(=NC(=O)[N-]c4ccccc4[O-])s3)c2)c1 (protonated)
[NH-]S(=O)(=O)c1cccc(NC(=O)c2cccc(Cc3c[n-]c(=NC(=O)[N-]c4ccccc4[O-])s3)c2)c1 (3D coordinates assigned)
[NH-]S(=O)(=O)c1cccc(NC(=O)c2cccc(Cc3c[n-]c(=NC(=O)[N-]c4ccccc4[O-])s3)c2)c1 (optimized conformer: 98.499583863009 kcal/mol)

>  <smiles>  (51) 
NS(=O)(=O)c1cccc(NC(=O)c2cccc(Cc3c[nH]c(=NC(=O)Nc4ccccc4O)s3)c2)c1

>  <score_type>  (51) 
oracle

>  <origin>  (51) 
adg

>  <m_score__min__energy>  (51) 
-20.440000000000001

>  <m_primary>  (51) 
energy

$$$$
51:0
     RDKit          3D

 69 75  0  0  0  0  0  0  0  0999 V2000
   60.3470   33.7980   54.4760 O   0  0  0  0  0  0  0  0  0  0  0  0
   61.1450   33.8160   53.5010 C   0  0  0  0  0  0  0  0  0  0  0  0
   62.5950   33.6710   53.7390 C   0  0  0  0  0  0  0  0  0  0  0  0
   63.3340   32.6090   53.3830 C   0  0  0  0  0  0  0  0  0  0  0  0
   62.8030   31.3380   52.8380 C   0  0  0  0  0  0  0  0  0  0  0  0
   63.2460   30.8950   51.5850 C   0  0  0  0  0  0  0  0  0  0  0  0
   62.8140   29.6670   51.0810 C   0  0  0  0  0  0  0  0  0  0  0  0
   61.9430   28.8820   51.8420 C   0  0  0  0  0  0  0  0  0  0  0  0
   61.3750   27.2980   51.2270 S   0  0  0  0  0  0  0  0  0  0  0  0
   60.5180   28.0330   49.8250 C   0  0  0  0  0  0  0  0  0  0  0  0
   60.7680   27.5110   48.5510 C   0  0  0  0  0  0  0  0  0  0  0  0
   60.1180   28.0300   47.4320 C   0  0  0  0  0  0  0  0  0  0  0  0
   59.1930   29.0760   47.5630 C   0  0  0  0  0  0  0  0  0  0  0  0
   58.4990   29.5860   46.4050 N   0  0  0  0  0  0  0  0  0  0  0  0
   57.8560   30.8580   46.2850 C   0  0  0  0  0  0  0  0  0  0  0  0
   57.8140   31.7110   47.2100 O   0  0  0  0  0  0  0  0  0  0  0  0
   57.3110   31.1060   45.0000 N   0  0  0  0  0  0  0  0  0  0  0  0
   57.6520   29.9290   44.2800 C   0  0  0  0  0  0  0  0  0  0  0  0
   57.3630   29.7720   43.0630 O   0  0  0  0  0  0  0  0  0  0  0  0
   58.4170   28.9310   45.0980 C   0  0  2  0  0  0  0  0  0  0  0  0
   57.6960   27.6180   45.2110 C   0  0  0  0  0  0  0  0  0  0  0  0
   58.0860   26.4930   44.5710 N   0  0  0  0  0  0  0  0  0  0  0  0
   57.1470   25.5880   44.9010 C   0  0  0  0  0  0  0  0  0  0  0  0
   57.1650   24.1780   44.4400 C   0  0  0  0  0  0  0  0  0  0  0  0
   56.3050   23.7670   43.4050 C   0  0  0  0  0  0  0  0  0  0  0  0
   56.3160   22.4440   42.9540 C   0  0  0  0  0  0  0  0  0  0  0  0
   57.1850   21.5140   43.5320 C   0  0  0  0  0  0  0  0  0  0  0  0
   58.0410   21.9070   44.5630 C   0  0  0  0  0  0  0  0  0  0  0  0
   58.0350   23.2290   45.0180 C   0  0  0  0  0  0  0  0  0  0  0  0
   56.2080   26.1900   45.7170 C   0  0  0  0  0  0  0  0  0  0  0  0
   56.5500   27.4740   45.9110 N   0  0  0  0  0  0  0  0  0  0  0  0
   58.9260   29.5880   48.8460 C   0  0  0  0  0  0  0  0  0  0  0  0
   59.5910   29.0870   49.9800 C   0  0  0  0  0  0  0  0  0  0  0  0
   59.2580   29.6460   51.3390 C   0  0  0  0  0  0  0  0  0  0  0  0
   58.8490   28.6060   52.1840 O   0  0  0  0  0  0  0  0  0  0  0  0
   61.5490   29.3050   53.0710 N   0  0  0  0  0  0  0  0  0  0  0  0
   61.9600   30.4950   53.5870 C   0  0  0  0  0  0  0  0  0  0  0  0
   60.6120   33.8630   52.1690 N   0  0  0  0  0  0  0  0  0  0  0  0
   61.2440   33.5440   51.0780 C   0  0  0  0  0  0  0  0  0  0  0  0
   60.8240   32.5330   50.2780 N   0  0  0  0  0  0  0  0  0  0  0  0
   61.6180   32.4210   49.1800 C   0  0  0  0  0  0  0  0  0  0  0  0
   61.4500   31.4630   48.1770 C   0  0  0  0  0  0  0  0  0  0  0  0
   62.3620   31.4410   47.1040 C   0  0  0  0  0  0  0  0  0  0  0  0
   63.4210   32.3720   47.0460 C   0  0  0  0  0  0  0  0  0  0  0  0
   63.5710   33.3370   48.0560 C   0  0  0  0  0  0  0  0  0  0  0  0
   62.6590   33.3350   49.1070 C   0  0  0  0  0  0  0  0  0  0  0  0
   62.6080   34.3420   50.4460 S   0  0  0  0  0  0  0  0  0  0  0  0
   63.1101   34.4988   54.2483 H   0  0  0  0  0  0  0  0  0  0  0  0
   64.4242   32.6888   53.5060 H   0  0  0  0  0  0  0  0  0  0  0  0
   63.9365   31.5168   50.9964 H   0  0  0  0  0  0  0  0  0  0  0  0
   63.1557   29.3204   50.0945 H   0  0  0  0  0  0  0  0  0  0  0  0
   61.4835   26.6841   48.4313 H   0  0  0  0  0  0  0  0  0  0  0  0
   60.3329   27.6148   46.4363 H   0  0  0  0  0  0  0  0  0  0  0  0
   59.3931   28.6817   44.6564 H   0  0  0  0  0  0  0  0  0  0  0  0
   55.6178   24.4934   42.9466 H   0  0  0  0  0  0  0  0  0  0  0  0
   55.6401   22.1343   42.1433 H   0  0  0  0  0  0  0  0  0  0  0  0
   57.1945   20.4736   43.1750 H   0  0  0  0  0  0  0  0  0  0  0  0
   58.7225   21.1737   45.0188 H   0  0  0  0  0  0  0  0  0  0  0  0
   58.7119   23.5310   45.8308 H   0  0  0  0  0  0  0  0  0  0  0  0
   55.3212   25.6958   46.1404 H   0  0  0  0  0  0  0  0  0  0  0  0
   58.1855   30.3928   48.9643 H   0  0  0  0  0  0  0  0  0  0  0  0
   60.1479   30.1344   51.7628 H   0  0  0  0  0  0  0  0  0  0  0  0
   58.4462   30.3822   51.2440 H   0  0  0  0  0  0  0  0  0  0  0  0
   59.5930   28.4650   52.8260 H   0  0  0  0  0  0  0  0  0  0  0  0
   61.6327   30.7993   54.5921 H   0  0  0  0  0  0  0  0  0  0  0  0
   60.6220   30.7404   48.2244 H   0  0  0  0  0  0  0  0  0  0  0  0
   62.2481   30.6929   46.3056 H   0  0  0  0  0  0  0  0  0  0  0  0
   64.1316   32.3420   46.2069 H   0  0  0  0  0  0  0  0  0  0  0  0
   64.3869   34.0738   48.0170 H   0  0  0  0  0  0  0  0  0  0  0  0
  1  2  2  0
  2  3  1  0
  3  4  2  3
  4  5  1  0
  5  6  2  0
  6  7  1  0
  7  8  2  0
  8  9  1  0
  9 10  1  0
 10 11  2  0
 11 12  1  0
 12 13  2  0
 13 14  1  0
 14 15  1  0
 15 16  2  0
 15 17  1  0
 17 18  1  0
 18 19  2  0
 18 20  1  0
 20 21  1  0
 21 22  2  0
 22 23  1  0
 23 24  1  0
 24 25  2  0
 25 26  1  0
 26 27  2  0
 27 28  1  0
 28 29  2  0
 23 30  2  0
 30 31  1  0
 13 32  1  0
 32 33  2  0
 33 34  1  0
 34 35  1  0
  8 36  1  0
 36 37  2  0
  2 38  1  0
 38 39  2  3
 39 40  1  0
 40 41  1  0
 41 42  2  0
 42 43  1  0
 43 44  2  0
 44 45  1  0
 45 46  2  0
 46 47  1  0
 37  5  1  0
 47 39  1  0
 33 10  1  0
 46 41  1  0
 20 14  1  0
 31 21  1  0
 29 24  1  0
  3 48  1  0
  4 49  1  0
  6 50  1  0
  7 51  1  0
 11 52  1  0
 12 53  1  0
 20 54  1  6
 25 55  1  0
 26 56  1  0
 27 57  1  0
 28 58  1  0
 29 59  1  0
 30 60  1  0
 32 61  1  0
 34 62  1  0
 34 63  1  0
 35 64  1  0
 37 65  1  0
 42 66  1  0
 43 67  1  0
 44 68  1  0
 45 69  1  0
M  CHG  3  17  -1  31  -1  40  -1
M  END
>  <UniqueID>  (52) 
43

>  <SMILES>  (52) 
O=C(C=Cc1ccc(Sc2ccc(N3C(=O)[N-]C(=O)[C@@H]3c3nc(-c4ccccc4)c[n-]3)cc2CO)nc1)N=c1[n-]c2ccccc2s1

>  <Energy>  (52) 
174.46201655728387

>  <Genealogy>  (52) 
O=C(C=Cc1ccc(Sc2ccc(N3C(=O)[N-]C(=O)C3c3nc(-c4ccccc4)c[n-]3)cc2CO)nc1)N=c1[n-]c2ccccc2s1 (protonated)
O=C(C=Cc1ccc(Sc2ccc(N3C(=O)[N-]C(=O)[C@@H]3c3nc(-c4ccccc4)c[n-]3)cc2CO)nc1)N=c1[n-]c2ccccc2s1 (chirality)
O=C(C=Cc1ccc(Sc2ccc(N3C(=O)[N-]C(=O)[C@@H]3c3nc(-c4ccccc4)c[n-]3)cc2CO)nc1)N=c1[n-]c2ccccc2s1 (3D coordinates assigned)
O=C(C=Cc1ccc(Sc2ccc(N3C(=O)[N-]C(=O)[C@@H]3c3nc(-c4ccccc4)c[n-]3)cc2CO)nc1)N=c1[n-]c2ccccc2s1 (nonaromatic ring conformer: 174.46201655728387 kcal/mol)

>  <smiles>  (52) 
O=C(C=Cc1ccc(Sc2ccc(N3C(=O)NC(=O)C3c3nc(-c4ccccc4)c[nH]3)cc2CO)nc1)N=c1[nH]c2ccccc2s1

>  <score_type>  (52) 
oracle

>  <origin>  (52) 
adg

>  <m_score__min__energy>  (52) 
-13.609999999999999

>  <m_primary>  (52) 
energy

$$$$
52:0
     RDKit          3D

 47 49  0  0  0  0  0  0  0  0999 V2000
   59.0330   30.9880   47.7660 H   0  0  0  0  0  0  0  0  0  0  0  0
   58.4010   31.0580   46.9820 O   0  0  0  0  0  0  0  0  0  0  0  0
   58.5110   32.0470   46.0010 C   0  0  0  0  0  0  0  0  0  0  0  0
   58.3580   31.7600   44.6400 C   0  0  0  0  0  0  0  0  0  0  0  0
   58.0070   30.4650   44.0340 C   0  0  0  0  0  0  0  0  0  0  0  0
   58.0959   30.3649   42.9422 H   0  0  0  0  0  0  0  0  0  0  0  0
   57.5840   29.3960   44.7340 C   0  0  0  0  0  0  0  0  0  0  0  0
   58.3850   28.4650   45.3920 C   0  0  0  0  0  0  0  0  0  0  0  0
   59.4829   28.4752   45.4599 H   0  0  0  0  0  0  0  0  0  0  0  0
   57.5330   27.5260   45.9430 C   0  0  0  0  0  0  0  0  0  0  0  0
   57.9580   26.2910   46.6730 C   0  0  0  0  0  0  0  0  0  0  0  0
   57.8975   26.4668   47.7572 H   0  0  0  0  0  0  0  0  0  0  0  0
   57.2952   25.4569   46.3993 H   0  0  0  0  0  0  0  0  0  0  0  0
   58.9937   26.0414   46.3993 H   0  0  0  0  0  0  0  0  0  0  0  0
   56.2600   27.8280   45.6290 N   0  0  0  0  0  0  0  0  0  0  0  0
   55.1520   27.0860   45.9730 O   0  0  0  0  0  0  0  0  0  0  0  0
   56.2650   28.9600   44.8960 C   0  0  0  0  0  0  0  0  0  0  0  0
   55.1550   29.5370   44.4220 C   0  0  0  0  0  0  0  0  0  0  0  0
   54.1719   29.0867   44.6238 H   0  0  0  0  0  0  0  0  0  0  0  0
   55.2254   30.4617   43.8305 H   0  0  0  0  0  0  0  0  0  0  0  0
   58.4810   33.1990   43.7740 S   0  0  0  0  0  0  0  0  0  0  0  0
   58.7690   34.1150   45.1500 C   0  0  0  0  0  0  0  0  0  0  0  0
   58.9770   35.3580   45.1340 O   0  0  0  0  0  0  0  0  0  0  0  0
   58.7430   33.3680   46.2820 N   0  0  0  0  0  0  0  0  0  0  0  0
   58.9600   33.9250   47.6220 C   0  0  0  0  0  0  0  0  0  0  0  0
   59.7315   34.7073   47.5697 H   0  0  0  0  0  0  0  0  0  0  0  0
   58.0157   34.3526   47.9901 H   0  0  0  0  0  0  0  0  0  0  0  0
   59.4080   32.8520   48.5610 C   0  0  0  0  0  0  0  0  0  0  0  0
   58.8520   32.7330   49.6850 O   0  0  0  0  0  0  0  0  0  0  0  0
   60.5150   32.0160   48.2090 N   0  0  0  0  0  0  0  0  0  0  0  0
   61.8780   32.3500   48.5010 C   0  0  0  0  0  0  0  0  0  0  0  0
   62.5840   33.1980   47.6230 C   0  0  0  0  0  0  0  0  0  0  0  0
   61.9180   33.7380   46.3890 C   0  0  0  0  0  0  0  0  0  0  0  0
   61.0939   34.4062   46.6797 H   0  0  0  0  0  0  0  0  0  0  0  0
   62.6519   34.2992   45.7920 H   0  0  0  0  0  0  0  0  0  0  0  0
   61.5206   32.9039   45.7920 H   0  0  0  0  0  0  0  0  0  0  0  0
   63.9110   33.5480   47.9090 C   0  0  0  0  0  0  0  0  0  0  0  0
   64.4617   34.2122   47.2266 H   0  0  0  0  0  0  0  0  0  0  0  0
   64.5350   33.0580   49.0540 C   0  0  0  0  0  0  0  0  0  0  0  0
   65.5713   33.3494   49.2803 H   0  0  0  0  0  0  0  0  0  0  0  0
   63.8510   32.1990   49.9150 C   0  0  0  0  0  0  0  0  0  0  0  0
   64.3520   31.8170   50.8167 H   0  0  0  0  0  0  0  0  0  0  0  0
   62.5290   31.8190   49.6390 C   0  0  0  0  0  0  0  0  0  0  0  0
   61.8330   30.8650   50.5720 C   0  0  0  0  0  0  0  0  0  0  0  0
   62.0424   31.1520   51.6131 H   0  0  0  0  0  0  0  0  0  0  0  0
   60.7484   30.9022   50.3924 H   0  0  0  0  0  0  0  0  0  0  0  0
   62.1995   29.8435   50.3924 H   0  0  0  0  0  0  0  0  0  0  0  0
  1  2  1  0
  2  3  1  0
  3  4  2  0
  4  5  1  0
  5  6  1  0
  5  7  2  0
  7  8  1  0
  8  9  1  0
  8 10  2  0
 10 11  1  0
 11 12  1  0
 11 13  1  0
 11 14  1  0
 10 15  1  0
 15 16  1  0
 15 17  1  0
 17 18  2  0
 18 19  1  0
 18 20  1  0
  4 21  1  0
 21 22  1  0
 22 23  2  0
 22 24  1  0
 24 25  1  0
 25 26  1  0
 25 27  1  0
 25 28  1  0
 28 29  2  0
 28 30  1  0
 30 31  1  0
 31 32  2  0
 32 33  1  0
 33 34  1  0
 33 35  1  0
 33 36  1  0
 32 37  1  0
 37 38  1  0
 37 39  2  0
 39 40  1  0
 39 41  1  0
 41 42  1  0
 41 43  2  0
 43 44  1  0
 44 45  1  0
 44 46  1  0
 44 47  1  0
 24  3  1  0
 43 31  1  0
 17  7  1  0
M  CHG  2  16  -1  30  -1
M  END
>  <UniqueID>  (53) 
44

>  <SMILES>  (53) 
C=c1/c(=C/c2sc(=O)n(CC(=O)[N-]c3c(C)cccc3C)c2O)cc(C)n1[O-]

>  <Energy>  (53) 
119.04592677414496

>  <Genealogy>  (53) 
C=c1c(=Cc2sc(=O)n(CC(=O)[N-]c3c(C)cccc3C)c2O)cc(C)n1[O-] (protonated)
C=c1/c(=C/c2sc(=O)n(CC(=O)[N-]c3c(C)cccc3C)c2O)cc(C)n1[O-] (cis-trans isomerization)
C=c1/c(=C/c2sc(=O)n(CC(=O)[N-]c3c(C)cccc3C)c2O)cc(C)n1[O-] (3D coordinates assigned)
C=c1/c(=C/c2sc(=O)n(CC(=O)[N-]c3c(C)cccc3C)c2O)cc(C)n1[O-] (optimized conformer: 119.04592677414496 kcal/mol)

>  <smiles>  (53) 
C=c1c(=Cc2sc(=O)n(CC(=O)Nc3c(C)cccc3C)c2O)cc(C)n1O

>  <score_type>  (53) 
oracle

>  <origin>  (53) 
adg

>  <m_score__min__energy>  (53) 
-12.26

>  <m_primary>  (53) 
energy

$$$$
53:0
     RDKit          3D

 61 64  0  0  0  0  0  0  0  0999 V2000
   55.6740   29.3590   45.2300 N   0  0  0  0  0  0  0  0  0  0  0  0
   56.7800   28.0330   45.3010 S   0  0  0  0  0  0  0  0  0  0  0  0
   56.0470   26.7880   45.7140 O   0  0  0  0  0  0  0  0  0  0  0  0
   57.3810   27.8090   43.9430 O   0  0  0  0  0  0  0  0  0  0  0  0
   58.0520   28.3900   46.4660 C   0  0  0  0  0  0  0  0  0  0  0  0
   58.6270   29.6680   46.5150 C   0  0  0  0  0  0  0  0  0  0  0  0
   59.6260   29.9550   47.4490 C   0  0  0  0  0  0  0  0  0  0  0  0
   60.0640   28.9660   48.3460 C   0  0  0  0  0  0  0  0  0  0  0  0
   61.1380   29.2790   49.3540 C   0  0  0  0  0  0  0  0  0  0  0  0
   60.4660   30.1960   50.7890 S   0  0  0  0  0  0  0  0  0  0  0  0
   60.8260   28.9370   52.0720 C   0  0  0  0  0  0  0  0  0  0  0  0
   62.3030   28.6220   52.1480 C   0  0  0  0  0  0  0  0  0  0  0  0
   62.7050   27.2740   52.1640 C   0  0  0  0  0  0  0  0  0  0  0  0
   64.0530   26.9340   52.2740 C   0  0  0  0  0  0  0  0  0  0  0  0
   65.0190   27.9320   52.3610 C   0  0  0  0  0  0  0  0  0  0  0  0
   64.6440   29.2760   52.3320 C   0  0  0  0  0  0  0  0  0  0  0  0
   63.2870   29.6410   52.2240 C   0  0  0  0  0  0  0  0  0  0  0  0
   62.9170   31.0310   52.1650 N   0  0  0  0  0  0  0  0  0  0  0  0
   63.5940   32.1450   51.0200 S   0  0  0  0  0  0  0  0  0  0  0  0
   64.8150   31.5250   50.3970 O   0  0  0  0  0  0  0  0  0  0  0  0
   63.9990   33.4030   51.7330 O   0  0  0  0  0  0  0  0  0  0  0  0
   62.4040   32.5390   49.7840 C   0  0  0  0  0  0  0  0  0  0  0  0
   62.6080   32.1560   48.4560 C   0  0  0  0  0  0  0  0  0  0  0  0
   61.6640   32.4730   47.4750 C   0  0  0  0  0  0  0  0  0  0  0  0
   60.4840   33.1870   47.7990 C   0  0  0  0  0  0  0  0  0  0  0  0
   59.4960   33.5240   46.7760 N   0  0  0  0  0  0  0  0  0  0  0  0
   58.2070   32.7970   46.7480 C   0  0  0  0  0  0  0  0  0  0  0  0
   57.3040   33.1980   45.5800 C   0  0  0  0  0  0  0  0  0  0  0  0
   57.3810   34.5830   45.3360 O   0  0  0  0  0  0  0  0  0  0  0  0
   58.6580   34.8720   44.8180 C   0  0  0  0  0  0  0  0  0  0  0  0
   59.7400   34.6780   45.8850 C   0  0  0  0  0  0  0  0  0  0  0  0
   60.3040   33.5720   49.1500 C   0  0  0  0  0  0  0  0  0  0  0  0
   61.2520   33.2520   50.1250 C   0  0  0  0  0  0  0  0  0  0  0  0
   59.4700   27.6950   48.3090 C   0  0  0  0  0  0  0  0  0  0  0  0
   58.4720   27.4080   47.3730 C   0  0  0  0  0  0  0  0  0  0  0  0
   54.7710   28.9840   44.8630 H   0  0  0  0  0  0  0  0  0  0  0  0
   58.2904   30.4475   45.8156 H   0  0  0  0  0  0  0  0  0  0  0  0
   60.0717   30.9601   47.4822 H   0  0  0  0  0  0  0  0  0  0  0  0
   61.5813   28.3366   49.7080 H   0  0  0  0  0  0  0  0  0  0  0  0
   61.8957   29.9096   48.8659 H   0  0  0  0  0  0  0  0  0  0  0  0
   60.4920   29.3176   53.0485 H   0  0  0  0  0  0  0  0  0  0  0  0
   60.2918   28.0132   51.8052 H   0  0  0  0  0  0  0  0  0  0  0  0
   61.9479   26.4795   52.0889 H   0  0  0  0  0  0  0  0  0  0  0  0
   64.3530   25.8759   52.2920 H   0  0  0  0  0  0  0  0  0  0  0  0
   66.0811   27.6608   52.4529 H   0  0  0  0  0  0  0  0  0  0  0  0
   65.4151   30.0580   52.3940 H   0  0  0  0  0  0  0  0  0  0  0  0
   62.2700   31.4340   52.8780 H   0  0  0  0  0  0  0  0  0  0  0  0
   63.5172   31.6015   48.1806 H   0  0  0  0  0  0  0  0  0  0  0  0
   61.8402   32.1630   46.4344 H   0  0  0  0  0  0  0  0  0  0  0  0
   58.4166   31.7199   46.6718 H   0  0  0  0  0  0  0  0  0  0  0  0
   57.6711   33.0540   47.6736 H   0  0  0  0  0  0  0  0  0  0  0  0
   57.6210   32.6553   44.6772 H   0  0  0  0  0  0  0  0  0  0  0  0
   56.2649   32.9442   45.8367 H   0  0  0  0  0  0  0  0  0  0  0  0
   58.8632   34.2004   43.9713 H   0  0  0  0  0  0  0  0  0  0  0  0
   58.6737   35.9218   44.4898 H   0  0  0  0  0  0  0  0  0  0  0  0
   60.7046   34.5275   45.3781 H   0  0  0  0  0  0  0  0  0  0  0  0
   59.7337   35.5786   46.5165 H   0  0  0  0  0  0  0  0  0  0  0  0
   59.4021   34.1327   49.4366 H   0  0  0  0  0  0  0  0  0  0  0  0
   61.0904   33.5633   51.1676 H   0  0  0  0  0  0  0  0  0  0  0  0
   59.7915   26.9202   49.0205 H   0  0  0  0  0  0  0  0  0  0  0  0
   58.0149   26.4078   47.3485 H   0  0  0  0  0  0  0  0  0  0  0  0
  1  2  1  0
  2  3  2  0
  2  4  2  0
  2  5  1  0
  5  6  2  0
  6  7  1  0
  7  8  2  0
  8  9  1  0
  9 10  1  0
 10 11  1  0
 11 12  1  0
 12 13  2  0
 13 14  1  0
 14 15  2  0
 15 16  1  0
 16 17  2  0
 17 18  1  0
 18 19  1  0
 19 20  2  0
 19 21  2  0
 19 22  1  0
 22 23  2  0
 23 24  1  0
 24 25  2  0
 25 26  1  0
 26 27  1  0
 27 28  1  0
 28 29  1  0
 29 30  1  0
 30 31  1  0
 25 32  1  0
 32 33  2  0
  8 34  1  0
 34 35  2  0
 35  5  1  0
 17 12  1  0
 33 22  1  0
 31 26  1  0
  1 36  1  0
  6 37  1  0
  7 38  1  0
  9 39  1  0
  9 40  1  0
 11 41  1  0
 11 42  1  0
 13 43  1  0
 14 44  1  0
 15 45  1  0
 16 46  1  0
 18 47  1  0
 23 48  1  0
 24 49  1  0
 27 50  1  0
 27 51  1  0
 28 52  1  0
 28 53  1  0
 30 54  1  0
 30 55  1  0
 31 56  1  0
 31 57  1  0
 32 58  1  0
 33 59  1  0
 34 60  1  0
 35 61  1  0
M  CHG  1   1  -1
M  END
>  <UniqueID>  (54) 
45

>  <SMILES>  (54) 
[NH-]S(=O)(=O)c1ccc(CSCc2ccccc2NS(=O)(=O)c2ccc(N3CCOCC3)cc2)cc1

>  <Energy>  (54) 
72.93169440000955

>  <Genealogy>  (54) 
[NH-]S(=O)(=O)c1ccc(CSCc2ccccc2NS(=O)(=O)c2ccc(N3CCOCC3)cc2)cc1 (protonated)
[NH-]S(=O)(=O)c1ccc(CSCc2ccccc2NS(=O)(=O)c2ccc(N3CCOCC3)cc2)cc1 (3D coordinates assigned)
[NH-]S(=O)(=O)c1ccc(CSCc2ccccc2NS(=O)(=O)c2ccc(N3CCOCC3)cc2)cc1 (nonaromatic ring conformer: 72.93169440000955 kcal/mol)

>  <smiles>  (54) 
NS(=O)(=O)c1ccc(CSCc2ccccc2NS(=O)(=O)c2ccc(N3CCOCC3)cc2)cc1

>  <score_type>  (54) 
oracle

>  <origin>  (54) 
adg

>  <m_score__min__energy>  (54) 
-12.31

>  <m_primary>  (54) 
energy

$$$$
54:0
     RDKit          3D

 55 59  0  0  0  0  0  0  0  0999 V2000
   54.9920   29.3420   43.9020 N   0  0  0  0  0  0  0  0  0  0  0  0
   56.0990   29.8000   44.3890 C   0  0  0  0  0  0  0  0  0  0  0  0
   57.1190   28.9530   44.6860 N   0  0  0  0  0  0  0  0  0  0  0  0
   58.2860   29.4160   45.2040 C   0  0  0  0  0  0  0  0  0  0  0  0
   58.4520   30.7830   45.4460 C   0  0  0  0  0  0  0  0  0  0  0  0
   57.3910   31.6490   45.1120 C   0  0  0  0  0  0  0  0  0  0  0  0
   56.2390   31.1340   44.6070 N   0  0  0  0  0  0  0  0  0  0  0  0
   57.4660   33.1270   45.3910 C   0  0  0  0  0  0  0  0  0  0  0  0
   58.9130   33.6020   45.5150 C   0  0  0  0  0  0  0  0  0  0  0  0
   59.6360   32.7020   46.4190 N   0  0  0  0  0  0  0  0  0  0  0  0
   60.3470   33.2050   47.5720 C   0  0  0  0  0  0  0  0  0  0  0  0
   59.6770   33.3920   48.7960 C   0  0  0  0  0  0  0  0  0  0  0  0
   60.3720   33.8480   49.9290 C   0  0  0  0  0  0  0  0  0  0  0  0
   59.6940   34.0930   51.1670 N   0  0  0  0  0  0  0  0  0  0  0  0
   58.9910   33.0820   51.8960 C   0  0  0  0  0  0  0  0  0  0  0  0
   57.7790   33.2630   52.1870 O   0  0  0  0  0  0  0  0  0  0  0  0
   59.6330   31.7490   52.1790 C   0  0  0  0  0  0  0  0  0  0  0  0
   59.5860   30.8730   50.9970 N   0  0  0  0  0  0  0  0  0  0  0  0
   60.7370   30.6170   50.3060 C   0  0  0  0  0  0  0  0  0  0  0  0
   60.7520   29.6820   49.2730 C   0  0  0  0  0  0  0  0  0  0  0  0
   59.5630   29.0220   48.9420 C   0  0  0  0  0  0  0  0  0  0  0  0
   59.5240   27.9430   47.9230 C   0  0  0  0  0  0  0  0  0  0  0  0
   58.2880   27.3830   47.5480 C   0  0  0  0  0  0  0  0  0  0  0  0
   58.2300   26.3490   46.6100 C   0  0  0  0  0  0  0  0  0  0  0  0
   59.4040   25.8690   46.0250 C   0  0  0  0  0  0  0  0  0  0  0  0
   60.6370   26.4240   46.3770 C   0  0  0  0  0  0  0  0  0  0  0  0
   60.7000   27.4560   47.3190 C   0  0  0  0  0  0  0  0  0  0  0  0
   58.4290   29.3370   49.6220 N   0  0  0  0  0  0  0  0  0  0  0  0
   58.4240   30.2460   50.6310 C   0  0  0  0  0  0  0  0  0  0  0  0
   57.3450   30.4810   51.2370 O   0  0  0  0  0  0  0  0  0  0  0  0
   61.7480   34.0830   49.8480 C   0  0  0  0  0  0  0  0  0  0  0  0
   62.4120   33.9430   48.6300 C   0  0  0  0  0  0  0  0  0  0  0  0
   61.7180   33.5250   47.4910 C   0  0  0  0  0  0  0  0  0  0  0  0
   62.3780   33.4670   46.3080 F   0  0  0  0  0  0  0  0  0  0  0  0
   59.7560   31.2980   46.0040 C   0  0  0  0  0  0  0  0  0  0  0  0
   54.8690   29.1910   42.8750 H   0  0  0  0  0  0  0  0  0  0  0  0
   59.1017   28.7146   45.4335 H   0  0  0  0  0  0  0  0  0  0  0  0
   56.9808   33.6711   44.5673 H   0  0  0  0  0  0  0  0  0  0  0  0
   56.9557   33.3239   46.3454 H   0  0  0  0  0  0  0  0  0  0  0  0
   59.3907   33.5912   44.5242 H   0  0  0  0  0  0  0  0  0  0  0  0
   58.9345   34.6263   45.9154 H   0  0  0  0  0  0  0  0  0  0  0  0
   58.6000   33.1793   48.8661 H   0  0  0  0  0  0  0  0  0  0  0  0
   60.6830   31.9100   52.4645 H   0  0  0  0  0  0  0  0  0  0  0  0
   59.0790   31.2622   52.9951 H   0  0  0  0  0  0  0  0  0  0  0  0
   61.6605   31.1543   50.5679 H   0  0  0  0  0  0  0  0  0  0  0  0
   61.6823   29.4663   48.7271 H   0  0  0  0  0  0  0  0  0  0  0  0
   57.3589   27.7631   47.9978 H   0  0  0  0  0  0  0  0  0  0  0  0
   57.2592   25.9128   46.3321 H   0  0  0  0  0  0  0  0  0  0  0  0
   59.3579   25.0543   45.2874 H   0  0  0  0  0  0  0  0  0  0  0  0
   61.5605   26.0484   45.9121 H   0  0  0  0  0  0  0  0  0  0  0  0
   61.6737   27.8901   47.5899 H   0  0  0  0  0  0  0  0  0  0  0  0
   62.3080   34.3790   50.7473 H   0  0  0  0  0  0  0  0  0  0  0  0
   63.4879   34.1627   48.5651 H   0  0  0  0  0  0  0  0  0  0  0  0
   60.5344   31.2172   45.2310 H   0  0  0  0  0  0  0  0  0  0  0  0
   60.0216   30.6949   46.8847 H   0  0  0  0  0  0  0  0  0  0  0  0
  1  2  2  3
  2  3  1  0
  3  4  2  0
  4  5  1  0
  5  6  2  0
  6  7  1  0
  6  8  1  0
  8  9  1  0
  9 10  1  0
 10 11  1  0
 11 12  2  0
 12 13  1  0
 13 14  1  0
 14 15  1  0
 15 16  2  0
 15 17  1  0
 17 18  1  0
 18 19  1  0
 19 20  2  0
 20 21  1  0
 21 22  1  0
 22 23  2  0
 23 24  1  0
 24 25  2  0
 25 26  1  0
 26 27  2  0
 21 28  2  0
 28 29  1  0
 29 30  2  0
 13 31  2  0
 31 32  1  0
 32 33  2  0
 33 34  1  0
 10 35  1  0
  7  2  1  0
 33 11  1  0
 35  5  1  0
 29 18  1  0
 27 22  1  0
  1 36  1  0
  4 37  1  0
  8 38  1  0
  8 39  1  0
  9 40  1  0
  9 41  1  0
 12 42  1  0
 17 43  1  0
 17 44  1  0
 19 45  1  0
 20 46  1  0
 23 47  1  0
 24 48  1  0
 25 49  1  0
 26 50  1  0
 27 51  1  0
 31 52  1  0
 32 53  1  0
 35 54  1  0
 35 55  1  0
M  CHG  2   7  -1  14  -1
M  END
>  <UniqueID>  (55) 
46

>  <SMILES>  (55) 
N=c1ncc2c([n-]1)CCN(c1cc([N-]C(=O)Cn3ccc(-c4ccccc4)nc3=O)ccc1F)C2

>  <Energy>  (55) 
76.65485953555914

>  <Genealogy>  (55) 
N=c1ncc2c([n-]1)CCN(c1cc([N-]C(=O)Cn3ccc(-c4ccccc4)nc3=O)ccc1F)C2 (protonated)
N=c1ncc2c([n-]1)CCN(c1cc([N-]C(=O)Cn3ccc(-c4ccccc4)nc3=O)ccc1F)C2 (3D coordinates assigned)
N=c1ncc2c([n-]1)CCN(c1cc([N-]C(=O)Cn3ccc(-c4ccccc4)nc3=O)ccc1F)C2 (nonaromatic ring conformer: 76.65485953555914 kcal/mol)

>  <smiles>  (55) 
N=c1ncc2c([nH]1)CCN(c1cc(NC(=O)Cn3ccc(-c4ccccc4)nc3=O)ccc1F)C2

>  <score_type>  (55) 
oracle

>  <origin>  (55) 
adg

>  <m_score__min__energy>  (55) 
-12.24

>  <m_primary>  (55) 
energy

$$$$
55:0
     RDKit          3D

 49 52  0  0  0  0  0  0  0  0999 V2000
   60.0630   29.6600   45.0410 C   0  0  0  0  0  0  0  0  0  0  0  0
   60.0990   29.1540   46.2820 C   0  0  0  0  0  0  0  0  0  0  0  0
   59.6040   27.9120   46.7170 C   0  0  0  0  0  0  0  0  0  0  0  0
   59.0860   26.8720   46.0350 C   0  0  0  0  0  0  0  0  0  0  0  0
   57.6630   26.5050   45.9780 C   0  0  0  0  0  0  0  0  0  0  0  0
   57.1870   25.2700   46.2250 N   0  0  0  0  0  0  0  0  0  0  0  0
   55.8480   25.4420   46.2030 C   0  0  0  0  0  0  0  0  0  0  0  0
   55.0400   24.4940   46.3800 O   0  0  0  0  0  0  0  0  0  0  0  0
   55.4440   26.7120   45.9860 N   0  0  0  0  0  0  0  0  0  0  0  0
   56.6040   27.3750   45.8590 C   0  0  0  0  0  0  0  0  0  0  0  0
   56.6840   28.7480   45.6400 O   0  0  0  0  0  0  0  0  0  0  0  0
   59.7600   27.8920   48.0930 C   0  0  0  0  0  0  0  0  0  0  0  0
   60.3630   29.0800   48.4460 C   0  0  0  0  0  0  0  0  0  0  0  0
   60.7870   29.4420   49.8370 C   0  0  0  0  0  0  0  0  0  0  0  0
   60.5630   29.8480   47.3520 N   0  0  0  0  0  0  0  0  0  0  0  0
   61.1890   31.1430   47.3530 C   0  0  0  0  0  0  0  0  0  0  0  0
   62.5860   31.2110   47.2650 C   0  0  0  0  0  0  0  0  0  0  0  0
   63.2210   32.4520   47.2780 C   0  0  0  0  0  0  0  0  0  0  0  0
   62.4890   33.5890   47.3780 N   0  0  0  0  0  0  0  0  0  0  0  0
   61.1340   33.5610   47.4710 C   0  0  0  0  0  0  0  0  0  0  0  0
   60.4430   32.3400   47.4710 C   0  0  0  0  0  0  0  0  0  0  0  0
   58.6760   32.3750   47.5890 S   0  0  0  0  0  0  0  0  0  0  0  0
   58.2820   32.7680   48.9850 O   0  0  0  0  0  0  0  0  0  0  0  0
   58.1190   31.0070   47.3050 O   0  0  0  0  0  0  0  0  0  0  0  0
   57.9730   33.4960   46.4730 N   0  0  0  0  0  0  0  0  0  0  0  0
   58.3330   33.5520   45.0910 C   0  0  0  0  0  0  0  0  0  0  0  0
   59.1350   34.4380   44.6870 O   0  0  0  0  0  0  0  0  0  0  0  0
   57.7400   32.5920   44.1320 C   0  0  0  0  0  0  0  0  0  0  0  0
   57.9910   32.7130   42.7520 C   0  0  0  0  0  0  0  0  0  0  0  0
   57.4600   31.7840   41.8520 C   0  0  0  0  0  0  0  0  0  0  0  0
   56.6700   30.7310   42.3170 C   0  0  0  0  0  0  0  0  0  0  0  0
   56.4100   30.6030   43.6830 C   0  0  0  0  0  0  0  0  0  0  0  0
   56.9420   31.5270   44.5880 C   0  0  0  0  0  0  0  0  0  0  0  0
   60.4913   30.6529   44.8392 H   0  0  0  0  0  0  0  0  0  0  0  0
   59.6051   29.0823   44.2245 H   0  0  0  0  0  0  0  0  0  0  0  0
   59.7894   26.2418   45.4711 H   0  0  0  0  0  0  0  0  0  0  0  0
   57.2420   29.3450   46.2390 H   0  0  0  0  0  0  0  0  0  0  0  0
   59.4598   27.0822   48.7743 H   0  0  0  0  0  0  0  0  0  0  0  0
   60.1586   28.9055   50.5632 H   0  0  0  0  0  0  0  0  0  0  0  0
   61.8400   29.1600   49.9844 H   0  0  0  0  0  0  0  0  0  0  0  0
   60.6736   30.5262   49.9844 H   0  0  0  0  0  0  0  0  0  0  0  0
   63.1795   30.2882   47.1859 H   0  0  0  0  0  0  0  0  0  0  0  0
   64.3172   32.5089   47.2070 H   0  0  0  0  0  0  0  0  0  0  0  0
   60.5734   34.5044   47.5470 H   0  0  0  0  0  0  0  0  0  0  0  0
   58.6087   33.5435   42.3795 H   0  0  0  0  0  0  0  0  0  0  0  0
   57.6650   31.8830   40.7758 H   0  0  0  0  0  0  0  0  0  0  0  0
   56.2522   30.0019   41.6071 H   0  0  0  0  0  0  0  0  0  0  0  0
   55.7857   29.7740   44.0478 H   0  0  0  0  0  0  0  0  0  0  0  0
   56.7352   31.4203   45.6631 H   0  0  0  0  0  0  0  0  0  0  0  0
  1  2  2  0
  2  3  1  0
  3  4  2  3
  4  5  1  0
  5  6  1  0
  6  7  1  0
  7  8  2  0
  7  9  1  0
  9 10  1  0
 10 11  1  0
  3 12  1  0
 12 13  2  0
 13 14  1  0
 13 15  1  0
 15 16  1  0
 16 17  2  0
 17 18  1  0
 18 19  2  0
 19 20  1  0
 20 21  2  0
 21 22  1  0
 22 23  2  0
 22 24  2  0
 22 25  1  0
 25 26  1  0
 26 27  2  0
 26 28  1  0
 28 29  2  0
 29 30  1  0
 30 31  2  0
 31 32  1  0
 32 33  2  0
 15  2  1  0
 21 16  1  0
 33 28  1  0
 10  5  2  0
  1 34  1  0
  1 35  1  0
  4 36  1  0
 11 37  1  0
 12 38  1  0
 14 39  1  0
 14 40  1  0
 14 41  1  0
 17 42  1  0
 18 43  1  0
 20 44  1  0
 29 45  1  0
 30 46  1  0
 31 47  1  0
 32 48  1  0
 33 49  1  0
M  CHG  3   6  -1   9  -1  25  -1
M  END
>  <UniqueID>  (56) 
47

>  <SMILES>  (56) 
C=c1c(=Cc2[n-]c(=O)[n-]c2O)cc(C)n1-c1ccncc1S(=O)(=O)[N-]C(=O)c1ccccc1

>  <Energy>  (56) 
128.76976998993402

>  <Genealogy>  (56) 
C=c1c(=Cc2[n-]c(=O)[n-]c2O)cc(C)n1-c1ccncc1S(=O)(=O)[N-]C(=O)c1ccccc1 (protonated)
C=c1c(=Cc2[n-]c(=O)[n-]c2O)cc(C)n1-c1ccncc1S(=O)(=O)[N-]C(=O)c1ccccc1 (3D coordinates assigned)
C=c1c(=Cc2[n-]c(=O)[n-]c2O)cc(C)n1-c1ccncc1S(=O)(=O)[N-]C(=O)c1ccccc1 (optimized conformer: 128.76976998993402 kcal/mol)

>  <smiles>  (56) 
C=c1c(=Cc2[nH]c(=O)[nH]c2O)cc(C)n1-c1ccncc1S(=O)(=O)NC(=O)c1ccccc1

>  <score_type>  (56) 
oracle

>  <origin>  (56) 
adg

>  <m_score__min__energy>  (56) 
-14.76

>  <m_primary>  (56) 
energy

$$$$
56:0
     RDKit          3D

 65 69  0  0  0  0  0  0  0  0999 V2000
   58.6170   30.9450   48.7800 C   0  0  0  0  0  0  0  0  0  0  0  0
   58.6870   31.0640   47.3290 N   0  0  0  0  0  0  0  0  0  0  0  0
   57.8920   32.0180   46.6110 C   0  0  0  0  0  0  0  0  0  0  0  0
   57.2520   32.9040   47.2400 O   0  0  0  0  0  0  0  0  0  0  0  0
   57.8210   31.9760   45.1310 C   0  0  0  0  0  0  0  0  0  0  0  0
   57.1790   30.8910   44.4890 C   0  0  0  0  0  0  0  0  0  0  0  0
   56.6330   29.8260   45.2820 N   0  0  0  0  0  0  0  0  0  0  0  0
   57.3880   28.2940   45.5780 S   0  0  0  0  0  0  0  0  0  0  0  0
   58.1930   27.7570   44.0860 C   0  0  0  0  0  0  0  0  0  0  0  0
   58.4140   28.4360   46.6650 O   0  0  0  0  0  0  0  0  0  0  0  0
   56.3620   27.2730   45.9720 O   0  0  0  0  0  0  0  0  0  0  0  0
   57.0440   30.8970   43.0890 C   0  0  0  0  0  0  0  0  0  0  0  0
   57.5330   31.9630   42.3350 C   0  0  0  0  0  0  0  0  0  0  0  0
   58.1680   33.0330   42.9630 C   0  0  0  0  0  0  0  0  0  0  0  0
   58.3390   33.0420   44.3500 C   0  0  0  0  0  0  0  0  0  0  0  0
   59.0030   34.1360   44.9220 O   0  0  0  0  0  0  0  0  0  0  0  0
   59.8100   34.0770   46.0670 C   0  0  0  0  0  0  0  0  0  0  0  0
   59.3370   34.6580   47.2500 C   0  0  0  0  0  0  0  0  0  0  0  0
   60.0970   34.6020   48.4240 C   0  0  0  0  0  0  0  0  0  0  0  0
   61.3470   33.9750   48.4170 C   0  0  0  0  0  0  0  0  0  0  0  0
   62.0840   33.9020   49.5560 N   0  0  0  0  0  0  0  0  0  0  0  0
   63.3050   33.3070   49.5680 C   0  0  0  0  0  0  0  0  0  0  0  0
   63.9590   33.2230   50.6880 N   0  0  0  0  0  0  0  0  0  0  0  0
   65.2770   32.6770   50.8540 C   0  0  0  0  0  0  0  0  0  0  0  0
   66.4160   33.5010   50.8700 C   0  0  0  0  0  0  0  0  0  0  0  0
   67.6820   32.9440   51.0590 C   0  0  0  0  0  0  0  0  0  0  0  0
   67.8230   31.5660   51.2420 C   0  0  0  0  0  0  0  0  0  0  0  0
   66.6920   30.7330   51.2520 C   0  0  0  0  0  0  0  0  0  0  0  0
   66.8370   29.3070   51.3980 N   0  0  0  0  0  0  0  0  0  0  0  0
   65.9860   28.5800   52.3540 C   0  0  0  0  0  0  0  0  0  0  0  0
   65.7910   27.0990   51.9570 C   0  0  0  0  0  0  0  0  0  0  0  0
   66.3320   26.7960   50.6850 O   0  0  0  0  0  0  0  0  0  0  0  0
   67.7070   27.1040   50.6810 C   0  0  0  0  0  0  0  0  0  0  0  0
   67.8960   28.6210   50.6450 C   0  0  0  0  0  0  0  0  0  0  0  0
   65.4210   31.3000   51.0690 C   0  0  0  0  0  0  0  0  0  0  0  0
   63.7980   32.7560   48.4220 N   0  0  0  0  0  0  0  0  0  0  0  0
   63.0990   32.7980   47.2590 C   0  0  0  0  0  0  0  0  0  0  0  0
   61.8420   33.4110   47.2260 C   0  0  0  0  0  0  0  0  0  0  0  0
   61.0770   33.4640   46.0540 C   0  0  0  0  0  0  0  0  0  0  0  0
   59.1229   31.8049   49.2432 H   0  0  0  0  0  0  0  0  0  0  0  0
   57.5635   30.9255   49.0959 H   0  0  0  0  0  0  0  0  0  0  0  0
   59.1118   30.0147   49.0959 H   0  0  0  0  0  0  0  0  0  0  0  0
   59.3180   30.4190   46.8010 H   0  0  0  0  0  0  0  0  0  0  0  0
   59.0828   27.1634   44.3427 H   0  0  0  0  0  0  0  0  0  0  0  0
   57.4986   27.1405   43.4962 H   0  0  0  0  0  0  0  0  0  0  0  0
   58.4955   28.6349   43.4962 H   0  0  0  0  0  0  0  0  0  0  0  0
   56.5487   30.0540   42.5850 H   0  0  0  0  0  0  0  0  0  0  0  0
   57.4173   31.9595   41.2411 H   0  0  0  0  0  0  0  0  0  0  0  0
   58.5375   33.8771   42.3622 H   0  0  0  0  0  0  0  0  0  0  0  0
   58.3597   35.1628   47.2567 H   0  0  0  0  0  0  0  0  0  0  0  0
   59.7114   35.0508   49.3513 H   0  0  0  0  0  0  0  0  0  0  0  0
   66.3093   34.5872   50.7333 H   0  0  0  0  0  0  0  0  0  0  0  0
   68.5710   33.5917   51.0639 H   0  0  0  0  0  0  0  0  0  0  0  0
   68.8242   31.1315   51.3789 H   0  0  0  0  0  0  0  0  0  0  0  0
   66.4556   28.6210   53.3479 H   0  0  0  0  0  0  0  0  0  0  0  0
   64.9966   29.0607   52.3571 H   0  0  0  0  0  0  0  0  0  0  0  0
   66.2848   26.4658   52.7088 H   0  0  0  0  0  0  0  0  0  0  0  0
   64.7086   26.9086   51.9102 H   0  0  0  0  0  0  0  0  0  0  0  0
   68.1750   26.6988   51.5903 H   0  0  0  0  0  0  0  0  0  0  0  0
   68.1774   26.6574   49.7926 H   0  0  0  0  0  0  0  0  0  0  0  0
   68.8711   28.8716   51.0881 H   0  0  0  0  0  0  0  0  0  0  0  0
   67.8490   28.9529   49.5973 H   0  0  0  0  0  0  0  0  0  0  0  0
   64.5290   30.6568   51.0947 H   0  0  0  0  0  0  0  0  0  0  0  0
   63.5195   32.3516   46.3458 H   0  0  0  0  0  0  0  0  0  0  0  0
   61.4665   33.0264   45.1230 H   0  0  0  0  0  0  0  0  0  0  0  0
  1  2  1  0
  2  3  1  0
  3  4  2  0
  3  5  1  0
  5  6  2  0
  6  7  1  0
  7  8  1  0
  8  9  1  0
  8 10  2  0
  8 11  2  0
  6 12  1  0
 12 13  2  0
 13 14  1  0
 14 15  2  0
 15 16  1  0
 16 17  1  0
 17 18  2  0
 18 19  1  0
 19 20  2  0
 20 21  1  0
 21 22  1  0
 22 23  2  3
 23 24  1  0
 24 25  2  0
 25 26  1  0
 26 27  2  0
 27 28  1  0
 28 29  1  0
 29 30  1  0
 30 31  1  0
 31 32  1  0
 32 33  1  0
 33 34  1  0
 28 35  2  0
 22 36  1  0
 36 37  2  0
 37 38  1  0
 38 39  2  0
 15  5  1  0
 39 17  1  0
 38 20  1  0
 35 24  1  0
 34 29  1  0
  1 40  1  0
  1 41  1  0
  1 42  1  0
  2 43  1  0
  9 44  1  0
  9 45  1  0
  9 46  1  0
 12 47  1  0
 13 48  1  0
 14 49  1  0
 18 50  1  0
 19 51  1  0
 25 52  1  0
 26 53  1  0
 27 54  1  0
 30 55  1  0
 30 56  1  0
 31 57  1  0
 31 58  1  0
 33 59  1  0
 33 60  1  0
 34 61  1  0
 34 62  1  0
 35 63  1  0
 37 64  1  0
 39 65  1  0
M  CHG  2   7  -1  21  -1
M  END
>  <UniqueID>  (57) 
48

>  <SMILES>  (57) 
CNC(=O)c1c([N-]S(C)(=O)=O)cccc1Oc1ccc2[n-]c(=Nc3cccc(N4CCOCC4)c3)ncc2c1

>  <Energy>  (57) 
99.7660207140697

>  <Genealogy>  (57) 
CNC(=O)c1c([N-]S(C)(=O)=O)cccc1Oc1ccc2[n-]c(=Nc3cccc(N4CCOCC4)c3)ncc2c1 (protonated)
CNC(=O)c1c([N-]S(C)(=O)=O)cccc1Oc1ccc2[n-]c(=Nc3cccc(N4CCOCC4)c3)ncc2c1 (3D coordinates assigned)
CNC(=O)c1c([N-]S(C)(=O)=O)cccc1Oc1ccc2[n-]c(=Nc3cccc(N4CCOCC4)c3)ncc2c1 (nonaromatic ring conformer: 99.7660207140697 kcal/mol)

>  <smiles>  (57) 
CNC(=O)c1c(NS(C)(=O)=O)cccc1Oc1ccc2[nH]c(=Nc3cccc(N4CCOCC4)c3)ncc2c1

>  <score_type>  (57) 
oracle

>  <origin>  (57) 
adg

>  <m_score__min__energy>  (57) 
-12.779999999999999

>  <m_primary>  (57) 
energy

$$$$
57:0
     RDKit          3D

 52 55  0  0  0  0  0  0  0  0999 V2000
   57.6450   32.0110   42.0190 C   0  0  0  0  0  0  0  0  0  0  0  0
   57.8750   32.2590   43.4450 C   0  0  0  0  0  0  0  0  0  0  0  0
   58.4540   33.4920   43.7650 C   0  0  0  0  0  0  0  0  0  0  0  0
   58.6830   33.8590   45.0540 C   0  0  0  0  0  0  0  0  0  0  0  0
   58.3290   32.9750   46.0480 C   0  0  0  0  0  0  0  0  0  0  0  0
   58.5850   33.3840   47.3900 N   0  0  0  0  0  0  0  0  0  0  0  0
   58.9290   32.4490   48.3990 C   0  0  0  0  0  0  0  0  0  0  0  0
   59.0330   31.2080   48.1940 O   0  0  0  0  0  0  0  0  0  0  0  0
   59.1810   32.9590   49.7750 C   0  0  0  0  0  0  0  0  0  0  0  0
   58.3260   32.1810   50.7000 C   0  0  0  0  0  0  0  0  0  0  0  0
   57.7960   32.7320   51.8140 N   0  0  0  0  0  0  0  0  0  0  0  0
   57.0780   31.8400   52.4660 N   0  0  0  0  0  0  0  0  0  0  0  0
   57.1520   30.6940   51.7450 C   0  0  0  0  0  0  0  0  0  0  0  0
   56.5710   29.6250   52.0890 O   0  0  0  0  0  0  0  0  0  0  0  0
   57.9140   30.9050   50.6700 N   0  0  0  0  0  0  0  0  0  0  0  0
   57.7640   31.7690   45.7320 C   0  0  0  0  0  0  0  0  0  0  0  0
   57.5120   31.3600   44.4080 C   0  0  0  0  0  0  0  0  0  0  0  0
   56.8510   29.7870   44.1900 S   0  0  0  0  0  0  0  0  0  0  0  0
   55.4990   29.7270   44.8940 O   0  0  0  0  0  0  0  0  0  0  0  0
   56.6220   29.6200   42.7030 O   0  0  0  0  0  0  0  0  0  0  0  0
   57.7750   28.5040   44.8280 N   0  0  0  0  0  0  0  0  0  0  0  0
   57.8160   28.2830   46.1990 C   0  0  0  0  0  0  0  0  0  0  0  0
   59.0820   27.6770   46.7740 C   0  0  0  0  0  0  0  0  0  0  0  0
   59.1760   26.3160   46.5510 O   0  0  0  0  0  0  0  0  0  0  0  0
   58.5470   25.5260   45.5900 C   0  0  0  0  0  0  0  0  0  0  0  0
   58.5910   24.1760   45.8740 C   0  0  0  0  0  0  0  0  0  0  0  0
   58.0090   23.2790   45.0150 C   0  0  0  0  0  0  0  0  0  0  0  0
   57.3840   23.7530   43.8700 C   0  0  0  0  0  0  0  0  0  0  0  0
   57.3470   25.1140   43.5960 C   0  0  0  0  0  0  0  0  0  0  0  0
   57.9380   26.0470   44.4640 C   0  0  0  0  0  0  0  0  0  0  0  0
   57.7740   27.3740   43.9410 C   0  0  0  0  0  0  0  0  0  0  0  0
   56.9013   31.2091   41.9016 H   0  0  0  0  0  0  0  0  0  0  0  0
   57.2720   32.9296   41.5426 H   0  0  0  0  0  0  0  0  0  0  0  0
   58.5891   31.7082   41.5426 H   0  0  0  0  0  0  0  0  0  0  0  0
   58.7307   34.1814   42.9537 H   0  0  0  0  0  0  0  0  0  0  0  0
   59.1368   34.8316   45.2949 H   0  0  0  0  0  0  0  0  0  0  0  0
   58.5020   34.4230   47.5850 H   0  0  0  0  0  0  0  0  0  0  0  0
   60.2403   32.8228   50.0381 H   0  0  0  0  0  0  0  0  0  0  0  0
   58.9470   34.0319   49.8401 H   0  0  0  0  0  0  0  0  0  0  0  0
   56.5400   31.9340   53.3550 H   0  0  0  0  0  0  0  0  0  0  0  0
   58.1680   30.2330   49.9220 H   0  0  0  0  0  0  0  0  0  0  0  0
   57.4938   31.0866   46.5513 H   0  0  0  0  0  0  0  0  0  0  0  0
   57.6612   29.2532   46.6937 H   0  0  0  0  0  0  0  0  0  0  0  0
   57.0360   27.5299   46.3845 H   0  0  0  0  0  0  0  0  0  0  0  0
   59.9492   28.1695   46.3098 H   0  0  0  0  0  0  0  0  0  0  0  0
   59.0575   27.8323   47.8627 H   0  0  0  0  0  0  0  0  0  0  0  0
   59.0915   23.8205   46.7868 H   0  0  0  0  0  0  0  0  0  0  0  0
   58.0371   22.2006   45.2302 H   0  0  0  0  0  0  0  0  0  0  0  0
   56.9135   23.0440   43.1729 H   0  0  0  0  0  0  0  0  0  0  0  0
   56.8459   25.4677   42.6829 H   0  0  0  0  0  0  0  0  0  0  0  0
   58.5911   27.5346   43.2223 H   0  0  0  0  0  0  0  0  0  0  0  0
   56.7467   27.3640   43.5478 H   0  0  0  0  0  0  0  0  0  0  0  0
  1  2  1  0
  2  3  2  0
  3  4  1  0
  4  5  2  0
  5  6  1  0
  6  7  1  0
  7  8  2  0
  7  9  1  0
  9 10  1  0
 10 11  2  0
 11 12  1  0
 12 13  1  0
 13 14  2  0
 13 15  1  0
  5 16  1  0
 16 17  2  0
 17 18  1  0
 18 19  2  0
 18 20  2  0
 18 21  1  0
 21 22  1  0
 22 23  1  0
 23 24  1  0
 24 25  1  0
 25 26  2  0
 26 27  1  0
 27 28  2  0
 28 29  1  0
 29 30  2  0
 30 31  1  0
 17  2  1  0
 31 21  1  0
 15 10  1  0
 30 25  1  0
  1 32  1  0
  1 33  1  0
  1 34  1  0
  3 35  1  0
  4 36  1  0
  6 37  1  0
  9 38  1  0
  9 39  1  0
 12 40  1  0
 15 41  1  0
 16 42  1  0
 22 43  1  0
 22 44  1  0
 23 45  1  0
 23 46  1  0
 26 47  1  0
 27 48  1  0
 28 49  1  0
 29 50  1  0
 31 51  1  0
 31 52  1  0
M  END
>  <smiles>  (58) 
Cc1ccc(NC(=O)Cc2n[nH]c(=O)[nH]2)cc1S(=O)(=O)N1CCOc2ccccc2C1

>  <score_type>  (58) 
oracle

>  <origin>  (58) 
adg

>  <m_score__min__energy>  (58) 
-8.7400000000000002

>  <m_primary>  (58) 
energy

$$$$
58:0
     RDKit          3D

 52 56  0  0  0  0  0  0  0  0999 V2000
   58.7430   26.6750   47.7230 O   0  0  0  0  0  0  0  0  0  0  0  0
   58.7270   27.8630   47.3040 C   0  0  0  0  0  0  0  0  0  0  0  0
   58.6720   28.9820   48.3170 C   0  0  0  0  0  0  0  0  0  0  0  0
   59.7390   30.0120   48.0420 C   0  0  0  0  0  0  0  0  0  0  0  0
   60.7020   29.7860   47.0430 C   0  0  0  0  0  0  0  0  0  0  0  0
   61.7010   30.7320   46.7950 C   0  0  0  0  0  0  0  0  0  0  0  0
   61.7400   31.9180   47.5370 C   0  0  0  0  0  0  0  0  0  0  0  0
   60.8070   32.1410   48.5710 C   0  0  0  0  0  0  0  0  0  0  0  0
   59.8040   31.1860   48.8090 C   0  0  0  0  0  0  0  0  0  0  0  0
   60.9320   33.3160   49.4080 N   0  0  0  0  0  0  0  0  0  0  0  0
   62.2930   33.4320   49.8860 C   0  0  0  0  0  0  0  0  0  0  0  0
   62.5720   33.5620   51.2590 C   0  0  0  0  0  0  0  0  0  0  0  0
   63.8970   33.5940   51.7070 C   0  0  0  0  0  0  0  0  0  0  0  0
   64.9520   33.4900   50.7940 C   0  0  0  0  0  0  0  0  0  0  0  0
   64.6870   33.3550   49.4270 C   0  0  0  0  0  0  0  0  0  0  0  0
   63.3650   33.3420   48.9700 C   0  0  0  0  0  0  0  0  0  0  0  0
   63.0040   33.1590   47.2190 S   0  0  0  0  0  0  0  0  0  0  0  0
   58.5600   28.0840   45.8930 N   0  0  0  0  0  0  0  0  0  0  0  0
   57.8870   29.0290   45.3060 C   0  0  0  0  0  0  0  0  0  0  0  0
   58.3890   30.2380   44.9700 N   0  0  0  0  0  0  0  0  0  0  0  0
   57.4580   31.0110   44.3450 C   0  0  0  0  0  0  0  0  0  0  0  0
   57.7590   32.3940   43.9310 C   0  0  0  0  0  0  0  0  0  0  0  0
   57.6250   32.7210   42.7190 O   0  0  0  0  0  0  0  0  0  0  0  0
   58.2160   33.3700   44.8790 N   0  0  0  0  0  0  0  0  0  0  0  0
   57.3690   33.7350   46.0220 C   0  0  0  0  0  0  0  0  0  0  0  0
   58.2180   34.0300   47.2780 C   0  0  0  0  0  0  0  0  0  0  0  0
   59.6250   34.3510   46.9800 N   0  0  0  0  0  0  0  0  0  0  0  0
   59.7620   35.1030   45.7260 C   0  0  0  0  0  0  0  0  0  0  0  0
   59.3560   34.2260   44.5300 C   0  0  0  0  0  0  0  0  0  0  0  0
   56.2070   30.4100   44.1820 C   0  0  0  0  0  0  0  0  0  0  0  0
   56.2850   28.8600   44.8300 S   0  0  0  0  0  0  0  0  0  0  0  0
   57.6847   29.4644   48.2670 H   0  0  0  0  0  0  0  0  0  0  0  0
   58.8432   28.5581   49.3175 H   0  0  0  0  0  0  0  0  0  0  0  0
   60.6692   28.8585   46.4525 H   0  0  0  0  0  0  0  0  0  0  0  0
   62.4559   30.5443   46.0172 H   0  0  0  0  0  0  0  0  0  0  0  0
   59.0632   31.3599   49.6034 H   0  0  0  0  0  0  0  0  0  0  0  0
   60.2640   33.2710   50.2110 H   0  0  0  0  0  0  0  0  0  0  0  0
   60.7010   34.1610   48.8380 H   0  0  0  0  0  0  0  0  0  0  0  0
   61.7464   33.6387   51.9818 H   0  0  0  0  0  0  0  0  0  0  0  0
   64.1100   33.7013   52.7808 H   0  0  0  0  0  0  0  0  0  0  0  0
   65.9919   33.5144   51.1517 H   0  0  0  0  0  0  0  0  0  0  0  0
   65.5175   33.2592   48.7121 H   0  0  0  0  0  0  0  0  0  0  0  0
   56.7866   34.6319   45.7644 H   0  0  0  0  0  0  0  0  0  0  0  0
   56.7024   32.8887   46.2444 H   0  0  0  0  0  0  0  0  0  0  0  0
   57.7711   34.8851   47.8063 H   0  0  0  0  0  0  0  0  0  0  0  0
   58.2193   33.1143   47.8874 H   0  0  0  0  0  0  0  0  0  0  0  0
   60.1730   33.4590   46.9030 H   0  0  0  0  0  0  0  0  0  0  0  0
   59.1127   35.9902   45.7623 H   0  0  0  0  0  0  0  0  0  0  0  0
   60.8118   35.4086   45.6052 H   0  0  0  0  0  0  0  0  0  0  0  0
   59.0766   34.8733   43.6857 H   0  0  0  0  0  0  0  0  0  0  0  0
   60.2076   33.5866   44.2545 H   0  0  0  0  0  0  0  0  0  0  0  0
   55.3254   30.8702   43.7120 H   0  0  0  0  0  0  0  0  0  0  0  0
  1  2  2  0
  2  3  1  0
  3  4  1  0
  4  5  2  0
  5  6  1  0
  6  7  2  0
  7  8  1  0
  8  9  2  0
  8 10  1  0
 10 11  1  0
 11 12  2  0
 12 13  1  0
 13 14  2  0
 14 15  1  0
 15 16  2  0
 16 17  1  0
  2 18  1  0
 18 19  2  3
 19 20  1  0
 20 21  1  0
 21 22  1  0
 22 23  2  0
 22 24  1  0
 24 25  1  0
 25 26  1  0
 26 27  1  0
 27 28  1  0
 28 29  1  0
 21 30  2  0
 30 31  1  0
  9  4  1  0
 16 11  1  0
 31 19  1  0
 17  7  1  0
 29 24  1  0
  3 32  1  0
  3 33  1  0
  5 34  1  0
  6 35  1  0
  9 36  1  0
 10 37  1  0
 10 38  1  0
 12 39  1  0
 13 40  1  0
 14 41  1  0
 15 42  1  0
 25 43  1  0
 25 44  1  0
 26 45  1  0
 26 46  1  0
 27 47  1  0
 28 48  1  0
 28 49  1  0
 29 50  1  0
 29 51  1  0
 30 52  1  0
M  CHG  2  10   1  20  -1
M  END
>  <UniqueID>  (59) 
49

>  <SMILES>  (59) 
O=C(Cc1ccc2c(c1)[NH2+]c1ccccc1S2)N=c1[n-]c(C(=O)N2CCNCC2)cs1

>  <Energy>  (59) 
113.01795945926078

>  <Genealogy>  (59) 
O=C(Cc1ccc2c(c1)[NH2+]c1ccccc1S2)N=c1[n-]c(C(=O)N2CCNCC2)cs1 (protonated)
O=C(Cc1ccc2c(c1)[NH2+]c1ccccc1S2)N=c1[n-]c(C(=O)N2CCNCC2)cs1 (3D coordinates assigned)
O=C(Cc1ccc2c(c1)[NH2+]c1ccccc1S2)N=c1[n-]c(C(=O)N2CCNCC2)cs1 (nonaromatic ring conformer: 113.01795945926078 kcal/mol)

>  <smiles>  (59) 
O=C(Cc1ccc2c(c1)Nc1ccccc1S2)N=c1[nH]c(C(=O)N2CCNCC2)cs1

>  <score_type>  (59) 
oracle

>  <origin>  (59) 
adg

>  <m_score__min__energy>  (59) 
-11.109999999999999

>  <m_primary>  (59) 
energy

$$$$
59:0
     RDKit          3D

 49 52  0  0  0  0  0  0  0  0999 V2000
   59.2630   33.8590   44.0420 O   0  0  0  0  0  0  0  0  0  0  0  0
   58.4630   33.8180   45.0140 C   0  0  0  0  0  0  0  0  0  0  0  0
   57.1290   33.1490   44.8250 C   0  0  0  0  0  0  0  0  0  0  0  0
   57.1700   31.6480   44.9630 C   0  0  0  0  0  0  0  0  0  0  0  0
   56.0530   30.8980   44.8460 N   0  0  0  0  0  0  0  0  0  0  0  0
   56.4160   29.6450   45.1880 C   0  0  0  0  0  0  0  0  0  0  0  0
   55.5240   28.5830   45.2310 O   0  0  0  0  0  0  0  0  0  0  0  0
   57.7530   29.5710   45.5220 C   0  0  0  0  0  0  0  0  0  0  0  0
   58.4540   28.4120   46.1730 C   0  0  0  0  0  0  0  0  0  0  0  0
   58.1730   27.1420   45.4080 C   0  0  0  0  0  0  0  0  0  0  0  0
   57.9060   27.1850   44.0310 C   0  0  0  0  0  0  0  0  0  0  0  0
   57.7180   26.0020   43.3140 C   0  0  0  0  0  0  0  0  0  0  0  0
   57.7970   24.7670   43.9610 C   0  0  0  0  0  0  0  0  0  0  0  0
   58.0530   24.7010   45.3410 C   0  0  0  0  0  0  0  0  0  0  0  0
   58.1630   23.3930   46.0270 C   0  0  0  0  0  0  0  0  0  0  0  0
   58.9940   22.5350   45.6210 O   0  0  0  0  0  0  0  0  0  0  0  0
   57.3220   23.0930   47.1470 N   0  0  0  0  0  0  0  0  0  0  0  0
   55.9130   22.7370   47.0260 C   0  0  0  0  0  0  0  0  0  0  0  0
   55.1360   23.8880   46.4740 C   0  0  0  0  0  0  0  0  0  0  0  0
   55.5300   25.1720   46.5400 N   0  0  0  0  0  0  0  0  0  0  0  0
   54.5400   25.8530   45.9880 N   0  0  0  0  0  0  0  0  0  0  0  0
   53.5830   25.0230   45.6080 N   0  0  0  0  0  0  0  0  0  0  0  0
   53.9220   23.7800   45.9060 N   0  0  0  0  0  0  0  0  0  0  0  0
   58.2240   25.8980   46.0600 C   0  0  0  0  0  0  0  0  0  0  0  0
   58.2320   30.8550   45.3800 C   0  0  0  0  0  0  0  0  0  0  0  0
   59.5300   31.2840   45.6520 O   0  0  0  0  0  0  0  0  0  0  0  0
   58.8260   34.4820   46.2340 N   0  0  0  0  0  0  0  0  0  0  0  0
   59.9860   34.2640   47.0540 C   0  0  0  0  0  0  0  0  0  0  0  0
   59.9240   34.2820   48.4600 C   0  0  0  0  0  0  0  0  0  0  0  0
   61.0650   34.0080   49.2200 C   0  0  0  0  0  0  0  0  0  0  0  0
   62.2700   33.6980   48.5870 C   0  0  0  0  0  0  0  0  0  0  0  0
   62.3340   33.6550   47.1920 C   0  0  0  0  0  0  0  0  0  0  0  0
   61.1940   33.9270   46.4290 C   0  0  0  0  0  0  0  0  0  0  0  0
   56.4329   33.5466   45.5783 H   0  0  0  0  0  0  0  0  0  0  0  0
   56.8080   33.3650   43.7953 H   0  0  0  0  0  0  0  0  0  0  0  0
   59.5378   28.5999   46.1811 H   0  0  0  0  0  0  0  0  0  0  0  0
   58.0864   28.3010   47.2038 H   0  0  0  0  0  0  0  0  0  0  0  0
   57.8446   28.1544   43.5147 H   0  0  0  0  0  0  0  0  0  0  0  0
   57.5068   26.0428   42.2352 H   0  0  0  0  0  0  0  0  0  0  0  0
   57.6579   23.8394   43.3863 H   0  0  0  0  0  0  0  0  0  0  0  0
   55.8128   21.8740   46.3514 H   0  0  0  0  0  0  0  0  0  0  0  0
   55.5200   22.4828   48.0215 H   0  0  0  0  0  0  0  0  0  0  0  0
   58.3997   25.8599   47.1452 H   0  0  0  0  0  0  0  0  0  0  0  0
   59.8090   32.2470   45.5170 H   0  0  0  0  0  0  0  0  0  0  0  0
   58.9734   34.5127   48.9632 H   0  0  0  0  0  0  0  0  0  0  0  0
   61.0132   34.0367   50.3184 H   0  0  0  0  0  0  0  0  0  0  0  0
   63.1683   33.4878   49.1860 H   0  0  0  0  0  0  0  0  0  0  0  0
   63.2824   33.4068   46.6931 H   0  0  0  0  0  0  0  0  0  0  0  0
   61.2459   33.8761   45.3314 H   0  0  0  0  0  0  0  0  0  0  0  0
  1  2  2  0
  2  3  1  0
  3  4  1  0
  4  5  1  0
  5  6  1  0
  6  7  1  0
  6  8  2  0
  8  9  1  0
  9 10  1  0
 10 11  2  0
 11 12  1  0
 12 13  2  0
 13 14  1  0
 14 15  1  0
 15 16  2  0
 15 17  1  0
 17 18  1  0
 18 19  1  0
 19 20  1  0
 20 21  2  0
 21 22  1  0
 22 23  1  0
 14 24  2  0
  8 25  1  0
 25 26  1  0
  2 27  1  0
 27 28  1  0
 28 29  2  0
 29 30  1  0
 30 31  2  0
 31 32  1  0
 32 33  2  0
 25  4  2  0
 33 28  1  0
 24 10  1  0
 23 19  2  0
  3 34  1  0
  3 35  1  0
  9 36  1  0
  9 37  1  0
 11 38  1  0
 12 39  1  0
 13 40  1  0
 18 41  1  0
 18 42  1  0
 24 43  1  0
 26 44  1  0
 29 45  1  0
 30 46  1  0
 31 47  1  0
 32 48  1  0
 33 49  1  0
M  CHG  5   5  -1   7  -1  17  -1  22  -1  27  -1
M  END
>  <UniqueID>  (60) 
50

>  <SMILES>  (60) 
O=C(Cc1[n-]c([O-])c(Cc2cccc(C(=O)[N-]Cc3nn[n-]n3)c2)c1O)[N-]c1ccccc1

>  <Energy>  (60) 
118.48713492210207

>  <Genealogy>  (60) 
O=C(Cc1[n-]c([O-])c(Cc2cccc(C(=O)[N-]Cc3nn[n-]n3)c2)c1O)[N-]c1ccccc1 (protonated)
O=C(Cc1[n-]c([O-])c(Cc2cccc(C(=O)[N-]Cc3nn[n-]n3)c2)c1O)[N-]c1ccccc1 (3D coordinates assigned)
O=C(Cc1[n-]c([O-])c(Cc2cccc(C(=O)[N-]Cc3nn[n-]n3)c2)c1O)[N-]c1ccccc1 (optimized conformer: 118.48713492210207 kcal/mol)

>  <smiles>  (60) 
O=C(Cc1[nH]c(O)c(Cc2cccc(C(=O)NCc3nn[nH]n3)c2)c1O)Nc1ccccc1

>  <score_type>  (60) 
oracle

>  <origin>  (60) 
adg

>  <m_score__min__energy>  (60) 
-18.100000000000001

>  <m_primary>  (60) 
energy

$$$$
60:0
     RDKit          3D

 66 69  0  0  0  0  0  0  0  0999 V2000
   58.5180   25.5530   46.7730 C   0  0  0  0  0  0  0  0  0  0  0  0
   57.1660   25.3420   46.2490 N   0  0  0  0  0  0  0  0  0  0  0  0
   56.5260   24.0380   46.4590 C   0  0  0  0  0  0  0  0  0  0  0  0
   56.8280   23.1120   45.3180 C   0  0  0  0  0  0  0  0  0  0  0  0
   57.6130   21.9650   45.5030 C   0  0  0  0  0  0  0  0  0  0  0  0
   57.8890   21.1640   44.4410 N   0  0  0  0  0  0  0  0  0  0  0  0
   57.4020   21.4470   43.2030 C   0  0  0  0  0  0  0  0  0  0  0  0
   56.6000   22.5740   43.0210 C   0  0  0  0  0  0  0  0  0  0  0  0
   56.3320   23.3800   44.0810 N   0  0  0  0  0  0  0  0  0  0  0  0
   56.3850   26.4590   45.7790 C   0  0  0  0  0  0  0  0  0  0  0  0
   55.1470   26.4970   46.0140 O   0  0  0  0  0  0  0  0  0  0  0  0
   56.9840   27.5570   45.0790 N   0  0  0  0  0  0  0  0  0  0  0  0
   56.3340   28.8350   44.8110 C   0  0  0  0  0  0  0  0  0  0  0  0
   57.2400   29.9650   45.2090 C   0  0  0  0  0  0  0  0  0  0  0  0
   57.0320   31.2490   44.6820 C   0  0  0  0  0  0  0  0  0  0  0  0
   57.8550   32.3110   45.0630 C   0  0  0  0  0  0  0  0  0  0  0  0
   58.9050   32.1020   45.9670 C   0  0  0  0  0  0  0  0  0  0  0  0
   59.9290   33.4520   46.4650 S   0  0  0  0  0  0  0  0  0  0  0  0
   59.1330   34.3830   47.3360 O   0  0  0  0  0  0  0  0  0  0  0  0
   60.3630   34.2160   45.2460 O   0  0  0  0  0  0  0  0  0  0  0  0
   61.3450   32.9080   47.3350 N   0  0  0  0  0  0  0  0  0  0  0  0
   62.5520   33.5740   46.8130 C   0  0  0  0  0  0  0  0  0  0  0  0
   63.7000   33.4930   47.8240 C   0  0  0  0  0  0  0  0  0  0  0  0
   63.3920   34.2280   49.0800 N   0  0  0  0  0  0  0  0  0  0  0  0
   64.1860   33.7590   50.2560 C   0  0  0  0  0  0  0  0  0  0  0  0
   65.4370   32.9610   49.7790 C   0  0  0  0  0  0  0  0  0  0  0  0
   65.6830   31.6850   50.5990 C   0  0  0  0  0  0  0  0  0  0  0  0
   64.5820   30.7900   50.5390 O   0  0  0  0  0  0  0  0  0  0  0  0
   63.3150   31.4160   50.7470 C   0  0  0  0  0  0  0  0  0  0  0  0
   63.3680   32.8740   51.2410 C   0  0  0  0  0  0  0  0  0  0  0  0
   61.9270   34.2710   49.3610 C   0  0  0  0  0  0  0  0  0  0  0  0
   61.1770   33.0510   48.7980 C   0  0  0  0  0  0  0  0  0  0  0  0
   59.1260   30.8160   46.4830 C   0  0  0  0  0  0  0  0  0  0  0  0
   58.3010   29.7520   46.1040 C   0  0  0  0  0  0  0  0  0  0  0  0
   58.4899   25.5486   47.8726 H   0  0  0  0  0  0  0  0  0  0  0  0
   59.1780   24.7470   46.4199 H   0  0  0  0  0  0  0  0  0  0  0  0
   58.9011   26.5218   46.4199 H   0  0  0  0  0  0  0  0  0  0  0  0
   56.9036   23.5961   47.3929 H   0  0  0  0  0  0  0  0  0  0  0  0
   55.4373   24.1829   46.5197 H   0  0  0  0  0  0  0  0  0  0  0  0
   58.0026   21.7155   46.5010 H   0  0  0  0  0  0  0  0  0  0  0  0
   58.4900   20.3230   44.5770 H   0  0  0  0  0  0  0  0  0  0  0  0
   57.6387   20.7921   42.3515 H   0  0  0  0  0  0  0  0  0  0  0  0
   56.1884   22.8078   42.0280 H   0  0  0  0  0  0  0  0  0  0  0  0
   56.1075   28.9105   43.7372 H   0  0  0  0  0  0  0  0  0  0  0  0
   55.4030   28.8960   45.3936 H   0  0  0  0  0  0  0  0  0  0  0  0
   56.2159   31.4199   43.9646 H   0  0  0  0  0  0  0  0  0  0  0  0
   57.6782   33.3158   44.6517 H   0  0  0  0  0  0  0  0  0  0  0  0
   62.8594   33.0820   45.8784 H   0  0  0  0  0  0  0  0  0  0  0  0
   62.3183   34.6332   46.6300 H   0  0  0  0  0  0  0  0  0  0  0  0
   63.8844   32.4362   48.0675 H   0  0  0  0  0  0  0  0  0  0  0  0
   64.5865   33.9579   47.3680 H   0  0  0  0  0  0  0  0  0  0  0  0
   64.4868   34.6663   50.8004 H   0  0  0  0  0  0  0  0  0  0  0  0
   65.2921   32.6785   48.7258 H   0  0  0  0  0  0  0  0  0  0  0  0
   66.3135   33.6122   49.9123 H   0  0  0  0  0  0  0  0  0  0  0  0
   66.5751   31.1766   50.2046 H   0  0  0  0  0  0  0  0  0  0  0  0
   65.8228   31.9796   51.6496 H   0  0  0  0  0  0  0  0  0  0  0  0
   62.7692   31.4015   49.7921 H   0  0  0  0  0  0  0  0  0  0  0  0
   62.8237   30.8439   51.5478 H   0  0  0  0  0  0  0  0  0  0  0  0
   62.3435   33.2678   51.3147 H   0  0  0  0  0  0  0  0  0  0  0  0
   63.8571   32.8962   52.2260 H   0  0  0  0  0  0  0  0  0  0  0  0
   61.7787   34.3030   50.4505 H   0  0  0  0  0  0  0  0  0  0  0  0
   61.5208   35.1666   48.8680 H   0  0  0  0  0  0  0  0  0  0  0  0
   61.5613   32.1440   49.2875 H   0  0  0  0  0  0  0  0  0  0  0  0
   60.1052   33.1958   48.9987 H   0  0  0  0  0  0  0  0  0  0  0  0
   59.9519   30.6438   47.1889 H   0  0  0  0  0  0  0  0  0  0  0  0
   58.4838   28.7454   46.5082 H   0  0  0  0  0  0  0  0  0  0  0  0
  1  2  1  0
  2  3  1  0
  3  4  1  0
  4  5  2  0
  5  6  1  0
  6  7  2  0
  7  8  1  0
  8  9  2  0
  2 10  1  0
 10 11  2  0
 10 12  1  0
 12 13  1  0
 13 14  1  0
 14 15  2  0
 15 16  1  0
 16 17  2  0
 17 18  1  0
 18 19  2  0
 18 20  2  0
 18 21  1  0
 21 22  1  0
 22 23  1  0
 23 24  1  0
 24 25  1  0
 25 26  1  0
 26 27  1  0
 27 28  1  0
 28 29  1  0
 29 30  1  0
 24 31  1  0
 31 32  1  0
 17 33  1  0
 33 34  2  0
  9  4  1  0
 34 14  1  0
 32 21  1  0
 30 25  1  0
  1 35  1  0
  1 36  1  0
  1 37  1  0
  3 38  1  0
  3 39  1  0
  5 40  1  0
  6 41  1  0
  7 42  1  0
  8 43  1  0
 13 44  1  0
 13 45  1  0
 15 46  1  0
 16 47  1  0
 22 48  1  0
 22 49  1  0
 23 50  1  0
 23 51  1  0
 25 52  1  0
 26 53  1  0
 26 54  1  0
 27 55  1  0
 27 56  1  0
 29 57  1  0
 29 58  1  0
 30 59  1  0
 30 60  1  0
 31 61  1  0
 31 62  1  0
 32 63  1  0
 32 64  1  0
 33 65  1  0
 34 66  1  0
M  CHG  2   6   1  12  -1
M  END
>  <UniqueID>  (61) 
51

>  <SMILES>  (61) 
CN(Cc1c[nH+]ccn1)C(=O)[N-]Cc1ccc(S(=O)(=O)N2CCN(C3CCOCC3)CC2)cc1

>  <Energy>  (61) 
91.57421548597546

>  <Genealogy>  (61) 
CN(Cc1c[nH+]ccn1)C(=O)[N-]Cc1ccc(S(=O)(=O)N2CCN(C3CCOCC3)CC2)cc1 (protonated)
CN(Cc1c[nH+]ccn1)C(=O)[N-]Cc1ccc(S(=O)(=O)N2CCN(C3CCOCC3)CC2)cc1 (3D coordinates assigned)
CN(Cc1c[nH+]ccn1)C(=O)[N-]Cc1ccc(S(=O)(=O)N2CCN(C3CCOCC3)CC2)cc1 (nonaromatic ring conformer: 91.57421548597546 kcal/mol)

>  <smiles>  (61) 
CN(Cc1cnccn1)C(=O)NCc1ccc(S(=O)(=O)N2CCN(C3CCOCC3)CC2)cc1

>  <score_type>  (61) 
oracle

>  <origin>  (61) 
adg

>  <m_score__min__energy>  (61) 
-11.630000000000001

>  <m_primary>  (61) 
energy

$$$$
61:0
     RDKit          3D

 41 43  0  0  1  0  0  0  0  0999 V2000
   56.2710   28.9700   42.7700 N   0  0  0  0  0  0  0  0  0  0  0  0
   56.1950   29.8610   43.8730 C   0  0  0  0  0  0  0  0  0  0  0  0
   55.4240   29.6280   44.8340 O   0  0  0  0  0  0  0  0  0  0  0  0
   57.0230   31.0670   43.9000 C   0  0  0  0  0  0  0  0  0  0  0  0
   57.4120   31.5820   42.6640 C   0  0  0  0  0  0  0  0  0  0  0  0
   58.1920   32.7150   42.5940 C   0  0  0  0  0  0  0  0  0  0  0  0
   58.5640   33.3070   43.7800 C   0  0  0  0  0  0  0  0  0  0  0  0
   58.1890   32.8130   45.0190 C   0  0  0  0  0  0  0  0  0  0  0  0
   61.3360   30.8080   48.6910 N   0  0  0  0  0  0  0  0  0  0  0  0
   61.1890   31.8260   47.9400 C   0  0  0  0  0  0  0  0  0  0  0  0
   60.8060   33.9720   46.3430 N   0  0  0  0  0  0  0  0  0  0  0  0
   62.0560   33.7070   46.8090 C   0  0  0  0  0  0  0  0  0  0  0  0
   62.2830   32.6100   47.6320 C   0  0  0  0  0  0  0  0  0  0  0  0
   59.7660   33.1560   46.6850 C   0  0  0  0  0  0  0  0  0  0  0  0
   58.6200   33.4910   46.1940 N   0  0  0  0  0  0  0  0  0  0  0  0
   60.1610   29.5530   48.8360 S   0  0  0  0  0  0  0  0  0  0  0  0
   58.9230   30.1910   49.4500 O   0  0  0  0  0  0  0  0  0  0  0  0
   60.5780   28.4440   49.7270 O   0  0  0  0  0  0  0  0  0  0  0  0
   59.6560   28.9960   47.2510 C   0  0  0  0  0  0  0  0  0  0  0  0
   60.4540   29.1590   46.1380 C   0  0  0  0  0  0  0  0  0  0  0  0
   60.0930   28.7350   44.8760 C   0  0  0  0  0  0  0  0  0  0  0  0
   58.8650   28.1180   44.7430 C   0  0  0  0  0  0  0  0  0  0  0  0
   58.0110   27.9220   45.8270 C   0  0  0  0  0  0  0  0  0  0  0  0
   56.8200   27.3080   45.6230 F   0  0  0  0  0  0  0  0  0  0  0  0
   58.4390   28.3710   47.0530 C   0  0  0  0  0  0  0  0  0  0  0  0
   59.9460   32.0850   47.4800 N   0  0  0  0  0  0  0  0  0  0  0  0
   57.3990   31.6660   45.0700 C   0  0  0  0  0  0  0  0  0  0  0  0
   57.0860   28.3210   42.6070 H   0  0  0  0  0  0  0  0  0  0  0  0
   55.5150   28.8970   42.0350 H   0  0  0  0  0  0  0  0  0  0  0  0
   57.0937   31.0799   41.7385 H   0  0  0  0  0  0  0  0  0  0  0  0
   58.5063   33.1317   41.6257 H   0  0  0  0  0  0  0  0  0  0  0  0
   59.1869   34.2129   43.7423 H   0  0  0  0  0  0  0  0  0  0  0  0
   60.6530   34.8020   45.7240 H   0  0  0  0  0  0  0  0  0  0  0  0
   62.8929   34.3652   46.5328 H   0  0  0  0  0  0  0  0  0  0  0  0
   63.2860   32.3777   48.0193 H   0  0  0  0  0  0  0  0  0  0  0  0
   61.4290   29.6528   46.2632 H   0  0  0  0  0  0  0  0  0  0  0  0
   60.7563   28.8824   44.0110 H   0  0  0  0  0  0  0  0  0  0  0  0
   58.5501   27.7695   43.7483 H   0  0  0  0  0  0  0  0  0  0  0  0
   57.7795   28.2257   47.9213 H   0  0  0  0  0  0  0  0  0  0  0  0
   59.1350   31.4780   47.7260 H   0  0  0  0  0  0  0  0  0  0  0  0
   57.0826   31.2488   46.0374 H   0  0  0  0  0  0  0  0  0  0  0  0
  1  2  1  0
  2  3  2  0
  2  4  1  0
  4  5  2  0
  5  6  1  0
  6  7  2  0
  7  8  1  0
  8  9  1  0
  9 10  2  0
 10 11  1  0
 11 12  1  0
 12 13  2  0
 13 14  1  0
 14 15  2  0
 15 16  1  0
 16 17  2  0
 16 18  2  0
 16 19  1  0
 19 20  2  0
 20 21  1  0
 21 22  2  0
 22 23  1  0
 23 24  1  0
 23 25  2  0
 14 26  1  0
  8 27  2  0
 27  4  1  0
 26 10  1  0
 25 19  1  0
  1 28  1  0
  1 29  1  0
  5 30  1  0
  6 31  1  0
  7 32  1  0
 11 33  1  0
 12 34  1  0
 13 35  1  0
 20 36  1  0
 21 37  1  0
 22 38  1  0
 25 39  1  0
 26 40  1  0
 27 41  1  0
M  END
>  <smiles>  (62) 
NC(=O)c1cccc(N=c2[nH]ccc(=NS(=O)(=O)c3cccc(F)c3)[nH]2)c1

>  <score_type>  (62) 
oracle

>  <origin>  (62) 
adg

>  <m_score__min__energy>  (62) 
-9.6199999999999992

>  <m_primary>  (62) 
energy

$$$$
62:0
     RDKit          3D

 39 41  0  0  0  0  0  0  0  0999 V2000
   63.9763   33.2228   46.1196 H   0  0  0  0  0  0  0  0  0  0  0  0
   63.0780   33.2460   46.7540 C   0  0  0  0  0  0  0  0  0  0  0  0
   62.0940   34.1480   46.5040 N   0  0  0  0  0  0  0  0  0  0  0  0
   60.9670   34.2230   47.2640 C   0  0  0  0  0  0  0  0  0  0  0  0
   59.7130   35.4160   46.7750 S   0  0  0  0  0  0  0  0  0  0  0  0
   59.2370   34.5390   45.2430 C   0  0  0  0  0  0  0  0  0  0  0  0
   59.9944   33.7723   45.0228 H   0  0  0  0  0  0  0  0  0  0  0  0
   59.1740   35.2803   44.4327 H   0  0  0  0  0  0  0  0  0  0  0  0
   57.8940   33.8730   45.3690 C   0  0  0  0  0  0  0  0  0  0  0  0
   56.9290   34.3650   44.7260 O   0  0  0  0  0  0  0  0  0  0  0  0
   57.6590   32.6640   46.1150 N   0  0  0  0  0  0  0  0  0  0  0  0
   57.8370   31.4190   45.7810 C   0  0  0  0  0  0  0  0  0  0  0  0
   57.1380   30.8520   44.7740 N   0  0  0  0  0  0  0  0  0  0  0  0
   57.4620   29.5440   44.5970 C   0  0  0  0  0  0  0  0  0  0  0  0
   57.0066   28.9207   43.8134 H   0  0  0  0  0  0  0  0  0  0  0  0
   58.4140   29.0560   45.4840 C   0  0  0  0  0  0  0  0  0  0  0  0
   59.0320   27.6940   45.4480 C   0  0  0  0  0  0  0  0  0  0  0  0
   59.4362   27.5030   44.4429 H   0  0  0  0  0  0  0  0  0  0  0  0
   59.8427   27.6437   46.1898 H   0  0  0  0  0  0  0  0  0  0  0  0
   57.9950   26.6540   45.7750 C   0  0  0  0  0  0  0  0  0  0  0  0
   58.3860   25.3810   46.2210 C   0  0  0  0  0  0  0  0  0  0  0  0
   59.4546   25.1303   46.2940 H   0  0  0  0  0  0  0  0  0  0  0  0
   57.4210   24.4300   46.5730 C   0  0  0  0  0  0  0  0  0  0  0  0
   57.8140   23.1690   47.0020 O   0  0  0  0  0  0  0  0  0  0  0  0
   56.0620   24.7490   46.4910 C   0  0  0  0  0  0  0  0  0  0  0  0
   55.3044   23.9995   46.7637 H   0  0  0  0  0  0  0  0  0  0  0  0
   55.6650   26.0190   46.0630 C   0  0  0  0  0  0  0  0  0  0  0  0
   54.3150   26.3380   45.9890 O   0  0  0  0  0  0  0  0  0  0  0  0
   56.6280   26.9710   45.7090 C   0  0  0  0  0  0  0  0  0  0  0  0
   56.3131   27.9716   45.3777 H   0  0  0  0  0  0  0  0  0  0  0  0
   58.8820   30.3080   46.5050 S   0  0  0  0  0  0  0  0  0  0  0  0
   60.8060   33.3510   48.3700 C   0  0  0  0  0  0  0  0  0  0  0  0
   59.6340   33.4070   49.2810 C   0  0  0  0  0  0  0  0  0  0  0  0
   59.6210   34.2200   50.2430 O   0  0  0  0  0  0  0  0  0  0  0  0
   58.5210   32.6020   49.0720 O   0  0  0  0  0  0  0  0  0  0  0  0
   61.8150   32.4030   48.6180 C   0  0  0  0  0  0  0  0  0  0  0  0
   61.7068   31.6971   49.4546 H   0  0  0  0  0  0  0  0  0  0  0  0
   62.9510   32.3510   47.8120 C   0  0  0  0  0  0  0  0  0  0  0  0
   63.7393   31.6099   48.0103 H   0  0  0  0  0  0  0  0  0  0  0  0
  1  2  1  0
  2  3  2  0
  3  4  1  0
  4  5  1  0
  5  6  1  0
  6  7  1  0
  6  8  1  0
  6  9  1  0
  9 10  2  0
  9 11  1  0
 11 12  2  0
 12 13  1  0
 13 14  1  0
 14 15  1  0
 14 16  2  0
 16 17  1  0
 17 18  1  0
 17 19  1  0
 17 20  1  0
 20 21  2  0
 21 22  1  0
 21 23  1  0
 23 24  1  0
 23 25  2  0
 25 26  1  0
 25 27  1  0
 27 28  1  0
 27 29  2  0
 29 30  1  0
 16 31  1  0
  4 32  2  0
 32 33  1  0
 33 34  2  0
 33 35  1  0
 32 36  1  0
 36 37  1  0
 36 38  2  0
 38 39  1  0
 38  2  1  0
 31 12  1  0
 29 20  1  0
M  CHG  4  13  -1  24  -1  28  -1  35  -1
M  END
>  <UniqueID>  (63) 
52

>  <SMILES>  (63) 
O=C(CSc1ncccc1C(=O)[O-])/N=c1/[n-]cc(Cc2cc([O-])cc([O-])c2)s1

>  <Energy>  (63) 
77.11044150898792

>  <Genealogy>  (63) 
O=C(CSc1ncccc1C(=O)[O-])N=c1[n-]cc(Cc2cc([O-])cc([O-])c2)s1 (protonated)
O=C(CSc1ncccc1C(=O)[O-])/N=c1/[n-]cc(Cc2cc([O-])cc([O-])c2)s1 (cis-trans isomerization)
O=C(CSc1ncccc1C(=O)[O-])/N=c1/[n-]cc(Cc2cc([O-])cc([O-])c2)s1 (3D coordinates assigned)
O=C(CSc1ncccc1C(=O)[O-])/N=c1/[n-]cc(Cc2cc([O-])cc([O-])c2)s1 (optimized conformer: 77.11044150898792 kcal/mol)

>  <smiles>  (63) 
O=C(CSc1ncccc1C(=O)O)N=c1[nH]cc(Cc2cc(O)cc(O)c2)s1

>  <score_type>  (63) 
oracle

>  <origin>  (63) 
adg

>  <m_score__min__energy>  (63) 
-17.73

>  <m_primary>  (63) 
energy

$$$$
63:0
     RDKit          3D

 46 48  0  0  0  0  0  0  0  0999 V2000
   55.8900   26.1620   45.9840 C   0  0  0  0  0  0  0  0  0  0  0  0
   56.3330   27.4740   45.6500 O   0  0  0  0  0  0  0  0  0  0  0  0
   57.6780   27.8400   45.4720 C   0  0  0  0  0  0  0  0  0  0  0  0
   58.7300   27.1070   46.0590 C   0  0  0  0  0  0  0  0  0  0  0  0
   60.0570   27.5050   45.8770 C   0  0  0  0  0  0  0  0  0  0  0  0
   60.3500   28.6350   45.1150 C   0  0  0  0  0  0  0  0  0  0  0  0
   59.3180   29.3690   44.5270 C   0  0  0  0  0  0  0  0  0  0  0  0
   57.9820   28.9740   44.6910 C   0  0  0  0  0  0  0  0  0  0  0  0
   56.6960   29.9160   43.9290 S   0  0  0  0  0  0  0  0  0  0  0  0
   55.4890   29.8960   44.8240 O   0  0  0  0  0  0  0  0  0  0  0  0
   56.3260   29.3310   42.5940 O   0  0  0  0  0  0  0  0  0  0  0  0
   57.1990   31.5620   43.6980 N   0  0  0  0  0  0  0  0  0  0  0  0
   57.7550   32.3910   44.7340 C   0  0  0  0  0  0  0  0  0  0  0  0
   57.9340   33.7780   44.5660 C   0  0  0  0  0  0  0  0  0  0  0  0
   58.4820   34.5480   45.5930 C   0  0  0  0  0  0  0  0  0  0  0  0
   58.8550   33.9520   46.7980 C   0  0  0  0  0  0  0  0  0  0  0  0
   58.6770   32.5750   46.9850 C   0  0  0  0  0  0  0  0  0  0  0  0
   59.1250   31.8210   48.5170 S   0  0  0  0  0  0  0  0  0  0  0  0
   58.5290   30.4420   48.5810 O   0  0  0  0  0  0  0  0  0  0  0  0
   58.5510   32.6260   49.6500 O   0  0  0  0  0  0  0  0  0  0  0  0
   60.8620   31.7080   48.7110 N   0  0  0  0  0  0  0  0  0  0  0  0
   61.4020   32.9000   49.3720 C   0  0  0  0  0  0  0  0  0  0  0  0
   61.9600   33.8330   48.3060 C   0  0  0  0  0  0  0  0  0  0  0  0
   62.0320   33.0100   47.0350 C   0  0  0  0  0  0  0  0  0  0  0  0
   61.5350   31.6210   47.4100 C   0  0  0  0  0  0  0  0  0  0  0  0
   58.1370   31.8000   45.9490 C   0  0  0  0  0  0  0  0  0  0  0  0
   55.8538   26.0547   47.0782 H   0  0  0  0  0  0  0  0  0  0  0  0
   54.8861   25.9964   45.5659 H   0  0  0  0  0  0  0  0  0  0  0  0
   56.5880   25.4218   45.5659 H   0  0  0  0  0  0  0  0  0  0  0  0
   58.5046   26.2164   46.6639 H   0  0  0  0  0  0  0  0  0  0  0  0
   60.8718   26.9257   46.3358 H   0  0  0  0  0  0  0  0  0  0  0  0
   61.3952   28.9487   44.9768 H   0  0  0  0  0  0  0  0  0  0  0  0
   59.5542   30.2630   43.9312 H   0  0  0  0  0  0  0  0  0  0  0  0
   57.0760   31.9610   42.7400 H   0  0  0  0  0  0  0  0  0  0  0  0
   57.6403   34.2569   43.6203 H   0  0  0  0  0  0  0  0  0  0  0  0
   58.6205   35.6301   45.4516 H   0  0  0  0  0  0  0  0  0  0  0  0
   59.2894   34.5640   47.6022 H   0  0  0  0  0  0  0  0  0  0  0  0
   60.6021   33.4096   49.9292 H   0  0  0  0  0  0  0  0  0  0  0  0
   62.1976   32.6129   50.0753 H   0  0  0  0  0  0  0  0  0  0  0  0
   61.2936   34.6969   48.1659 H   0  0  0  0  0  0  0  0  0  0  0  0
   62.9467   34.2281   48.5894 H   0  0  0  0  0  0  0  0  0  0  0  0
   61.3898   33.4494   46.2575 H   0  0  0  0  0  0  0  0  0  0  0  0
   63.0548   32.9781   46.6314 H   0  0  0  0  0  0  0  0  0  0  0  0
   60.8274   31.2610   46.6486 H   0  0  0  0  0  0  0  0  0  0  0  0
   62.3798   30.9187   47.4666 H   0  0  0  0  0  0  0  0  0  0  0  0
   58.0111   30.7163   46.0897 H   0  0  0  0  0  0  0  0  0  0  0  0
  1  2  1  0
  2  3  1  0
  3  4  2  0
  4  5  1  0
  5  6  2  0
  6  7  1  0
  7  8  2  0
  8  9  1  0
  9 10  2  0
  9 11  2  0
  9 12  1  0
 12 13  1  0
 13 14  2  0
 14 15  1  0
 15 16  2  0
 16 17  1  0
 17 18  1  0
 18 19  2  0
 18 20  2  0
 18 21  1  0
 21 22  1  0
 22 23  1  0
 23 24  1  0
 24 25  1  0
 17 26  2  0
  8  3  1  0
 26 13  1  0
 25 21  1  0
  1 27  1  0
  1 28  1  0
  1 29  1  0
  4 30  1  0
  5 31  1  0
  6 32  1  0
  7 33  1  0
 12 34  1  0
 14 35  1  0
 15 36  1  0
 16 37  1  0
 22 38  1  0
 22 39  1  0
 23 40  1  0
 23 41  1  0
 24 42  1  0
 24 43  1  0
 25 44  1  0
 25 45  1  0
 26 46  1  0
M  END
>  <UniqueID>  (64) 
53

>  <SMILES>  (64) 
COc1ccccc1S(=O)(=O)Nc1cccc(S(=O)(=O)N2CCCC2)c1

>  <Energy>  (64) 
49.86991661710969

>  <Genealogy>  (64) 
COc1ccccc1S(=O)(=O)Nc1cccc(S(=O)(=O)N2CCCC2)c1 (3D coordinates assigned)
COc1ccccc1S(=O)(=O)Nc1cccc(S(=O)(=O)N2CCCC2)c1 (nonaromatic ring conformer: 49.86991661710969 kcal/mol)

>  <smiles>  (64) 
COc1ccccc1S(=O)(=O)Nc1cccc(S(=O)(=O)N2CCCC2)c1

>  <score_type>  (64) 
oracle

>  <origin>  (64) 
adg

>  <m_score__min__energy>  (64) 
-9.6999999999999993

>  <m_primary>  (64) 
energy

$$$$
64:0
     RDKit          3D

 51 54  0  0  0  0  0  0  0  0999 V2000
   58.6180   30.7410   47.6470 C   0  0  0  0  0  0  0  0  0  0  0  0
   58.4940   30.6880   46.3100 C   0  0  0  0  0  0  0  0  0  0  0  0
   58.3630   29.5280   45.5270 C   0  0  0  0  0  0  0  0  0  0  0  0
   58.5030   28.2250   45.8430 C   0  0  0  0  0  0  0  0  0  0  0  0
   57.4110   27.2500   45.9680 C   0  0  0  0  0  0  0  0  0  0  0  0
   57.5370   26.0650   46.5900 N   0  0  0  0  0  0  0  0  0  0  0  0
   56.2810   25.5650   46.5630 C   0  0  0  0  0  0  0  0  0  0  0  0
   55.9900   24.4420   47.0490 O   0  0  0  0  0  0  0  0  0  0  0  0
   55.3620   26.3680   45.9880 N   0  0  0  0  0  0  0  0  0  0  0  0
   56.0910   27.4390   45.6290 C   0  0  0  0  0  0  0  0  0  0  0  0
   55.5580   28.5740   45.0240 O   0  0  0  0  0  0  0  0  0  0  0  0
   58.0430   29.9540   44.2510 C   0  0  0  0  0  0  0  0  0  0  0  0
   58.0530   31.3320   44.2740 C   0  0  0  0  0  0  0  0  0  0  0  0
   57.7670   32.2020   43.0860 C   0  0  0  0  0  0  0  0  0  0  0  0
   58.3380   31.7870   45.5180 N   0  0  0  0  0  0  0  0  0  0  0  0
   58.3890   33.2080   45.9030 C   0  0  0  0  0  0  0  0  0  0  0  0
   59.6310   33.5070   46.7060 C   0  0  0  0  0  0  0  0  0  0  0  0
   60.9000   33.4450   46.1120 C   0  0  0  0  0  0  0  0  0  0  0  0
   62.0490   33.7210   46.8600 C   0  0  0  0  0  0  0  0  0  0  0  0
   61.9430   34.0700   48.2170 C   0  0  0  0  0  0  0  0  0  0  0  0
   63.0940   34.3460   49.0270 N   0  0  0  0  0  0  0  0  0  0  0  0
   63.8890   33.2020   50.0590 S   0  0  0  0  0  0  0  0  0  0  0  0
   65.2160   32.8280   49.4580 O   0  0  0  0  0  0  0  0  0  0  0  0
   64.1300   33.8330   51.4010 O   0  0  0  0  0  0  0  0  0  0  0  0
   62.8690   31.7820   50.2760 C   0  0  0  0  0  0  0  0  0  0  0  0
   62.2590   31.1620   49.1760 C   0  0  0  0  0  0  0  0  0  0  0  0
   61.4540   30.0320   49.3650 C   0  0  0  0  0  0  0  0  0  0  0  0
   61.2600   29.5170   50.6520 C   0  0  0  0  0  0  0  0  0  0  0  0
   61.8660   30.1320   51.7500 C   0  0  0  0  0  0  0  0  0  0  0  0
   62.6690   31.2650   51.5650 C   0  0  0  0  0  0  0  0  0  0  0  0
   60.6760   34.1570   48.8020 C   0  0  0  0  0  0  0  0  0  0  0  0
   59.5270   33.8780   48.0570 C   0  0  0  0  0  0  0  0  0  0  0  0
   58.7141   31.7133   48.1523 H   0  0  0  0  0  0  0  0  0  0  0  0
   58.6234   29.8121   48.2361 H   0  0  0  0  0  0  0  0  0  0  0  0
   59.5248   27.8596   46.0231 H   0  0  0  0  0  0  0  0  0  0  0  0
   54.6790   28.9650   45.3400 H   0  0  0  0  0  0  0  0  0  0  0  0
   57.8225   29.3150   43.3832 H   0  0  0  0  0  0  0  0  0  0  0  0
   57.4406   33.1949   43.4288 H   0  0  0  0  0  0  0  0  0  0  0  0
   58.6786   32.3050   42.4790 H   0  0  0  0  0  0  0  0  0  0  0  0
   56.9721   31.7440   42.4790 H   0  0  0  0  0  0  0  0  0  0  0  0
   58.3909   33.8271   44.9938 H   0  0  0  0  0  0  0  0  0  0  0  0
   57.5086   33.4349   46.5222 H   0  0  0  0  0  0  0  0  0  0  0  0
   60.9923   33.1771   45.0491 H   0  0  0  0  0  0  0  0  0  0  0  0
   63.0392   33.6647   46.3843 H   0  0  0  0  0  0  0  0  0  0  0  0
   62.4131   31.5638   48.1637 H   0  0  0  0  0  0  0  0  0  0  0  0
   60.9737   29.5487   48.5015 H   0  0  0  0  0  0  0  0  0  0  0  0
   60.6299   28.6274   50.7988 H   0  0  0  0  0  0  0  0  0  0  0  0
   61.7126   29.7263   52.7609 H   0  0  0  0  0  0  0  0  0  0  0  0
   63.1432   31.7498   52.4311 H   0  0  0  0  0  0  0  0  0  0  0  0
   60.5827   34.4478   49.8587 H   0  0  0  0  0  0  0  0  0  0  0  0
   58.5367   33.9492   48.5306 H   0  0  0  0  0  0  0  0  0  0  0  0
  1  2  2  0
  2  3  1  0
  3  4  2  3
  4  5  1  0
  5  6  1  0
  6  7  1  0
  7  8  2  0
  7  9  1  0
  9 10  1  0
 10 11  1  0
  3 12  1  0
 12 13  2  0
 13 14  1  0
 13 15  1  0
 15 16  1  0
 16 17  1  0
 17 18  2  0
 18 19  1  0
 19 20  2  0
 20 21  1  0
 21 22  1  0
 22 23  2  0
 22 24  2  0
 22 25  1  0
 25 26  2  0
 26 27  1  0
 27 28  2  0
 28 29  1  0
 29 30  2  0
 20 31  1  0
 31 32  2  0
 15  2  1  0
 32 17  1  0
 10  5  2  0
 30 25  1  0
  1 33  1  0
  1 34  1  0
  4 35  1  0
 11 36  1  0
 12 37  1  0
 14 38  1  0
 14 39  1  0
 14 40  1  0
 16 41  1  0
 16 42  1  0
 18 43  1  0
 19 44  1  0
 26 45  1  0
 27 46  1  0
 28 47  1  0
 29 48  1  0
 30 49  1  0
 31 50  1  0
 32 51  1  0
M  CHG  3   6  -1   9  -1  21  -1
M  END
>  <UniqueID>  (65) 
54

>  <SMILES>  (65) 
C=c1c(=Cc2[n-]c(=O)[n-]c2O)cc(C)n1Cc1ccc([N-]S(=O)(=O)c2ccccc2)cc1

>  <Energy>  (65) 
126.85186106450516

>  <Genealogy>  (65) 
C=c1c(=Cc2[n-]c(=O)[n-]c2O)cc(C)n1Cc1ccc([N-]S(=O)(=O)c2ccccc2)cc1 (protonated)
C=c1c(=Cc2[n-]c(=O)[n-]c2O)cc(C)n1Cc1ccc([N-]S(=O)(=O)c2ccccc2)cc1 (3D coordinates assigned)
C=c1c(=Cc2[n-]c(=O)[n-]c2O)cc(C)n1Cc1ccc([N-]S(=O)(=O)c2ccccc2)cc1 (optimized conformer: 126.85186106450516 kcal/mol)

>  <smiles>  (65) 
C=c1c(=Cc2[nH]c(=O)[nH]c2O)cc(C)n1Cc1ccc(NS(=O)(=O)c2ccccc2)cc1

>  <score_type>  (65) 
oracle

>  <origin>  (65) 
adg

>  <m_score__min__energy>  (65) 
-15.19

>  <m_primary>  (65) 
energy

$$$$
65:0
     RDKit          3D

 76 81  0  0  0  0  0  0  0  0999 V2000
   58.1030   32.5270   52.0490 C   0  0  0  0  0  0  0  0  0  0  0  0
   59.4740   32.2200   51.6200 N   0  0  0  0  0  0  0  0  0  0  0  0
   60.0000   30.8560   51.7720 C   0  0  0  0  0  0  0  0  0  0  0  0
   59.7830   30.0880   50.4970 C   0  0  0  0  0  0  0  0  0  0  0  0
   58.8610   30.5520   49.5480 C   0  0  0  0  0  0  0  0  0  0  0  0
   58.5470   29.7760   48.4290 C   0  0  0  0  0  0  0  0  0  0  0  0
   59.1410   28.5140   48.2480 C   0  0  0  0  0  0  0  0  0  0  0  0
   58.7360   27.6460   47.1120 C   0  0  0  0  0  0  0  0  0  0  0  0
   58.9070   26.2500   47.1770 C   0  0  0  0  0  0  0  0  0  0  0  0
   58.5630   25.4420   46.0880 C   0  0  0  0  0  0  0  0  0  0  0  0
   58.0570   26.0160   44.9100 C   0  0  0  0  0  0  0  0  0  0  0  0
   57.7060   25.1610   43.7580 C   0  0  0  0  0  0  0  0  0  0  0  0
   57.4880   25.7040   42.6390 O   0  0  0  0  0  0  0  0  0  0  0  0
   57.6030   23.7300   43.8840 N   0  0  0  0  0  0  0  0  0  0  0  0
   58.6060   22.9310   44.5690 C   0  0  0  0  0  0  0  0  0  0  0  0
   58.1610   21.4850   44.4020 C   0  0  0  0  0  0  0  0  0  0  0  0
   57.2190   21.4900   43.1980 C   0  0  1  0  0  0  0  0  0  0  0  0
   56.1880   20.5530   43.3720 O   0  0  0  0  0  0  0  0  0  0  0  0
   56.6720   22.9140   43.1200 C   0  0  0  0  0  0  0  0  0  0  0  0
   57.8580   27.4040   44.8540 C   0  0  0  0  0  0  0  0  0  0  0  0
   58.2000   28.2120   45.9410 C   0  0  0  0  0  0  0  0  0  0  0  0
   60.0830   28.0640   49.1900 C   0  0  0  0  0  0  0  0  0  0  0  0
   60.3990   28.8420   50.3050 C   0  0  0  0  0  0  0  0  0  0  0  0
   60.3370   33.2590   51.1050 C   0  0  0  0  0  0  0  0  0  0  0  0
   61.4860   33.4160   51.6020 O   0  0  0  0  0  0  0  0  0  0  0  0
   59.9060   34.1750   49.9920 C   0  0  0  0  0  0  0  0  0  0  0  0
   60.0510   33.5100   48.6550 C   0  0  0  0  0  0  0  0  0  0  0  0
   59.0530   33.4450   47.7570 N   0  0  0  0  0  0  0  0  0  0  0  0
   59.5600   32.7050   46.7470 C   0  0  0  0  0  0  0  0  0  0  0  0
   58.8060   32.3930   45.5140 C   0  0  0  0  0  0  0  0  0  0  0  0
   58.6080   33.3790   44.5310 C   0  0  0  0  0  0  0  0  0  0  0  0
   57.9110   33.0750   43.3560 C   0  0  0  0  0  0  0  0  0  0  0  0
   57.4150   31.7850   43.1490 C   0  0  0  0  0  0  0  0  0  0  0  0
   57.6050   30.7990   44.1190 C   0  0  0  0  0  0  0  0  0  0  0  0
   58.2920   31.1010   45.2990 C   0  0  0  0  0  0  0  0  0  0  0  0
   60.8270   32.2880   46.9660 N   0  0  0  0  0  0  0  0  0  0  0  0
   61.1400   32.8070   48.1670 C   0  0  0  0  0  0  0  0  0  0  0  0
   62.4440   32.5880   48.8210 C   0  0  0  0  0  0  0  0  0  0  0  0
   62.6280   31.4670   49.6470 C   0  0  0  0  0  0  0  0  0  0  0  0
   63.8600   31.2460   50.2720 C   0  0  0  0  0  0  0  0  0  0  0  0
   64.9180   32.1370   50.0690 C   0  0  0  0  0  0  0  0  0  0  0  0
   64.7500   33.2450   49.2290 C   0  0  0  0  0  0  0  0  0  0  0  0
   63.5220   33.4650   48.6000 C   0  0  0  0  0  0  0  0  0  0  0  0
   58.0563   32.5374   53.1480 H   0  0  0  0  0  0  0  0  0  0  0  0
   57.8093   33.5132   51.6601 H   0  0  0  0  0  0  0  0  0  0  0  0
   57.4168   31.7603   51.6601 H   0  0  0  0  0  0  0  0  0  0  0  0
   61.0765   30.9011   51.9938 H   0  0  0  0  0  0  0  0  0  0  0  0
   59.4756   30.3514   52.5968 H   0  0  0  0  0  0  0  0  0  0  0  0
   58.3820   31.5327   49.6851 H   0  0  0  0  0  0  0  0  0  0  0  0
   57.8307   30.1546   47.6850 H   0  0  0  0  0  0  0  0  0  0  0  0
   59.3139   25.7915   48.0903 H   0  0  0  0  0  0  0  0  0  0  0  0
   58.6894   24.3513   46.1546 H   0  0  0  0  0  0  0  0  0  0  0  0
   59.5954   23.0834   44.1131 H   0  0  0  0  0  0  0  0  0  0  0  0
   58.6942   23.2100   45.6294 H   0  0  0  0  0  0  0  0  0  0  0  0
   59.0274   20.8348   44.2108 H   0  0  0  0  0  0  0  0  0  0  0  0
   57.6682   21.1002   45.3070 H   0  0  0  0  0  0  0  0  0  0  0  0
   57.7338   21.2072   42.2679 H   0  0  0  0  0  0  0  0  0  0  0  0
   56.6260   19.6670   43.4740 H   0  0  0  0  0  0  0  0  0  0  0  0
   56.6315   23.2536   42.0745 H   0  0  0  0  0  0  0  0  0  0  0  0
   55.6488   22.9807   43.5183 H   0  0  0  0  0  0  0  0  0  0  0  0
   57.4300   27.8586   43.9484 H   0  0  0  0  0  0  0  0  0  0  0  0
   58.0489   29.2999   45.8808 H   0  0  0  0  0  0  0  0  0  0  0  0
   60.5750   27.0906   49.0470 H   0  0  0  0  0  0  0  0  0  0  0  0
   61.1345   28.4765   51.0367 H   0  0  0  0  0  0  0  0  0  0  0  0
   58.8521   34.4515   50.1427 H   0  0  0  0  0  0  0  0  0  0  0  0
   60.5476   35.0684   50.0080 H   0  0  0  0  0  0  0  0  0  0  0  0
   59.0028   34.3939   44.6863 H   0  0  0  0  0  0  0  0  0  0  0  0
   57.7534   33.8527   42.5942 H   0  0  0  0  0  0  0  0  0  0  0  0
   56.8745   31.5463   42.2212 H   0  0  0  0  0  0  0  0  0  0  0  0
   57.2141   29.7840   43.9550 H   0  0  0  0  0  0  0  0  0  0  0  0
   58.4315   30.3232   46.0643 H   0  0  0  0  0  0  0  0  0  0  0  0
   61.8000   30.7599   49.8031 H   0  0  0  0  0  0  0  0  0  0  0  0
   63.9963   30.3704   50.9237 H   0  0  0  0  0  0  0  0  0  0  0  0
   65.8829   31.9677   50.5693 H   0  0  0  0  0  0  0  0  0  0  0  0
   65.5849   33.9420   49.0645 H   0  0  0  0  0  0  0  0  0  0  0  0
   63.3973   34.3277   47.9290 H   0  0  0  0  0  0  0  0  0  0  0  0
  1  2  1  0
  2  3  1  0
  3  4  1  0
  4  5  2  0
  5  6  1  0
  6  7  2  0
  7  8  1  0
  8  9  2  0
  9 10  1  0
 10 11  2  0
 11 12  1  0
 12 13  2  0
 12 14  1  0
 14 15  1  0
 15 16  1  0
 16 17  1  0
 17 18  1  0
 17 19  1  0
 11 20  1  0
 20 21  2  0
  7 22  1  0
 22 23  2  0
  2 24  1  0
 24 25  2  0
 24 26  1  0
 26 27  1  0
 27 28  1  0
 28 29  2  0
 29 30  1  0
 30 31  2  0
 31 32  1  0
 32 33  2  0
 33 34  1  0
 34 35  2  0
 29 36  1  0
 36 37  1  0
 37 38  1  0
 38 39  2  0
 39 40  1  0
 40 41  2  0
 41 42  1  0
 42 43  2  0
 23  4  1  0
 37 27  2  0
 43 38  1  0
 21  8  1  0
 35 30  1  0
 19 14  1  0
  1 44  1  0
  1 45  1  0
  1 46  1  0
  3 47  1  0
  3 48  1  0
  5 49  1  0
  6 50  1  0
  9 51  1  0
 10 52  1  0
 15 53  1  0
 15 54  1  0
 16 55  1  0
 16 56  1  0
 17 57  1  6
 18 58  1  0
 19 59  1  0
 19 60  1  0
 20 61  1  0
 21 62  1  0
 22 63  1  0
 23 64  1  0
 26 65  1  0
 26 66  1  0
 31 67  1  0
 32 68  1  0
 33 69  1  0
 34 70  1  0
 35 71  1  0
 39 72  1  0
 40 73  1  0
 41 74  1  0
 42 75  1  0
 43 76  1  0
M  CHG  1  36  -1
M  END
>  <UniqueID>  (66) 
55

>  <SMILES>  (66) 
CN(Cc1ccc(-c2ccc(C(=O)N3CC[C@@H](O)C3)cc2)cc1)C(=O)Cc1nc(-c2ccccc2)[n-]c1-c1ccccc1

>  <Energy>  (66) 
123.03188731584616

>  <Genealogy>  (66) 
CN(Cc1ccc(-c2ccc(C(=O)N3CCC(O)C3)cc2)cc1)C(=O)Cc1nc(-c2ccccc2)[n-]c1-c1ccccc1 (protonated)
CN(Cc1ccc(-c2ccc(C(=O)N3CC[C@@H](O)C3)cc2)cc1)C(=O)Cc1nc(-c2ccccc2)[n-]c1-c1ccccc1 (chirality)
CN(Cc1ccc(-c2ccc(C(=O)N3CC[C@@H](O)C3)cc2)cc1)C(=O)Cc1nc(-c2ccccc2)[n-]c1-c1ccccc1 (3D coordinates assigned)
CN(Cc1ccc(-c2ccc(C(=O)N3CC[C@@H](O)C3)cc2)cc1)C(=O)Cc1nc(-c2ccccc2)[n-]c1-c1ccccc1 (nonaromatic ring conformer: 123.03188731584616 kcal/mol)

>  <smiles>  (66) 
CN(Cc1ccc(-c2ccc(C(=O)N3CCC(O)C3)cc2)cc1)C(=O)Cc1nc(-c2ccccc2)[nH]c1-c1ccccc1

>  <score_type>  (66) 
oracle

>  <origin>  (66) 
adg

>  <m_score__min__energy>  (66) 
-12.720000000000001

>  <m_primary>  (66) 
energy

$$$$
66:0
     RDKit          3D

 53 57  0  0  1  0  0  0  0  0999 V2000
   57.7830   26.6700   44.0360 N   0  0  0  0  0  0  0  0  0  0  0  0
   58.3760   27.5650   44.7870 C   0  0  0  0  0  0  0  0  0  0  0  0
   58.4910   27.3810   46.1290 N   0  0  0  0  0  0  0  0  0  0  0  0
   59.1000   28.3040   46.8790 C   0  0  0  0  0  0  0  0  0  0  0  0
   59.6150   29.4440   46.3170 C   0  0  0  0  0  0  0  0  0  0  0  0
   60.2890   30.4860   47.0820 C   0  0  0  0  0  0  0  0  0  0  0  0
   61.0990   30.2580   48.1330 N   0  0  0  0  0  0  0  0  0  0  0  0
   61.5580   31.4540   48.6110 C   0  0  0  0  0  0  0  0  0  0  0  0
   62.4260   31.5450   49.7060 N   0  0  0  0  0  0  0  0  0  0  0  0
   63.8240   31.5840   49.6170 C   0  0  0  0  0  0  0  0  0  0  0  0
   64.3030   32.5000   50.7550 C   0  0  0  0  0  0  0  0  0  0  0  0
   63.3390   33.4670   51.0350 O   0  0  0  0  0  0  0  0  0  0  0  0
   62.1850   32.9430   51.6020 C   0  0  0  0  0  0  0  0  0  0  0  0
   61.8130   31.6030   51.0550 C   0  0  0  0  0  0  0  0  0  0  0  0
   60.9870   32.3980   47.7990 C   0  0  0  0  0  0  0  0  0  0  0  0
   61.1060   33.7730   47.8270 C   0  0  0  0  0  0  0  0  0  0  0  0
   60.4200   34.5070   46.8890 C   0  0  0  0  0  0  0  0  0  0  0  0
   59.6340   33.8330   45.9480 C   0  0  0  0  0  0  0  0  0  0  0  0
   59.0100   34.5670   45.0880 N   0  0  0  0  0  0  0  0  0  0  0  0
   57.5850   34.3670   44.8500 C   0  0  0  0  0  0  0  0  0  0  0  0
   57.3840   33.0200   44.2330 C   0  0  0  0  0  0  0  0  0  0  0  0
   57.8810   32.6970   42.9870 C   0  0  0  0  0  0  0  0  0  0  0  0
   57.6520   31.4140   42.4740 C   0  0  0  0  0  0  0  0  0  0  0  0
   56.9280   30.4890   43.2310 C   0  0  0  0  0  0  0  0  0  0  0  0
   56.6800   29.2020   42.7540 O   0  0  0  0  0  0  0  0  0  0  0  0
   56.4270   30.8020   44.4780 C   0  0  0  0  0  0  0  0  0  0  0  0
   56.6620   32.0770   44.9720 C   0  0  0  0  0  0  0  0  0  0  0  0
   59.5400   32.4900   45.9490 N   0  0  0  0  0  0  0  0  0  0  0  0
   60.2150   31.8150   46.8680 N   0  0  0  0  0  0  0  0  0  0  0  0
   59.4810   29.5990   44.9490 C   0  0  0  0  0  0  0  0  0  0  0  0
   58.8670   28.6590   44.2260 N   0  0  0  0  0  0  0  0  0  0  0  0
   57.0740   26.9530   43.3230 H   0  0  0  0  0  0  0  0  0  0  0  0
   59.1897   28.1470   47.9640 H   0  0  0  0  0  0  0  0  0  0  0  0
   64.2419   30.5739   49.7396 H   0  0  0  0  0  0  0  0  0  0  0  0
   64.1520   31.9594   48.6364 H   0  0  0  0  0  0  0  0  0  0  0  0
   64.4832   31.8955   51.6562 H   0  0  0  0  0  0  0  0  0  0  0  0
   65.2324   33.0001   50.4451 H   0  0  0  0  0  0  0  0  0  0  0  0
   62.3419   32.8461   52.6864 H   0  0  0  0  0  0  0  0  0  0  0  0
   61.3622   33.6325   51.3620 H   0  0  0  0  0  0  0  0  0  0  0  0
   62.2125   30.8019   51.6942 H   0  0  0  0  0  0  0  0  0  0  0  0
   60.7223   31.4655   51.0152 H   0  0  0  0  0  0  0  0  0  0  0  0
   61.7343   34.2690   48.5814 H   0  0  0  0  0  0  0  0  0  0  0  0
   60.4877   35.6049   46.8783 H   0  0  0  0  0  0  0  0  0  0  0  0
   57.0396   34.4219   45.8037 H   0  0  0  0  0  0  0  0  0  0  0  0
   57.2057   35.1479   44.1745 H   0  0  0  0  0  0  0  0  0  0  0  0
   58.4493   33.4371   42.4045 H   0  0  0  0  0  0  0  0  0  0  0  0
   58.0392   31.1365   41.4825 H   0  0  0  0  0  0  0  0  0  0  0  0
   56.6490   28.4640   43.4680 H   0  0  0  0  0  0  0  0  0  0  0  0
   55.8588   30.0634   45.0624 H   0  0  0  0  0  0  0  0  0  0  0  0
   56.2731   32.3515   45.9637 H   0  0  0  0  0  0  0  0  0  0  0  0
   58.9470   32.0090   45.2370 H   0  0  0  0  0  0  0  0  0  0  0  0
   59.8806   30.4975   44.4561 H   0  0  0  0  0  0  0  0  0  0  0  0
   58.7710   28.7890   43.1850 H   0  0  0  0  0  0  0  0  0  0  0  0
  1  2  2  3
  2  3  1  0
  3  4  2  0
  4  5  1  0
  5  6  1  0
  6  7  2  0
  7  8  1  0
  8  9  1  0
  9 10  1  0
 10 11  1  0
 11 12  1  0
 12 13  1  0
 13 14  1  0
  8 15  2  0
 15 16  1  0
 16 17  2  0
 17 18  1  0
 18 19  2  0
 19 20  1  0
 20 21  1  0
 21 22  2  0
 22 23  1  0
 23 24  2  0
 24 25  1  0
 24 26  1  0
 26 27  2  0
 18 28  1  0
 28 29  1  0
  5 30  2  0
 30 31  1  0
 31  2  1  0
 29  6  1  0
 14  9  1  0
 29 15  1  0
 27 21  1  0
  1 32  1  0
  4 33  1  0
 10 34  1  0
 10 35  1  0
 11 36  1  0
 11 37  1  0
 13 38  1  0
 13 39  1  0
 14 40  1  0
 14 41  1  0
 16 42  1  0
 17 43  1  0
 20 44  1  0
 20 45  1  0
 22 46  1  0
 23 47  1  0
 25 48  1  0
 26 49  1  0
 27 50  1  0
 28 51  1  0
 30 52  1  0
 31 53  1  0
M  END
>  <smiles>  (67) 
N=c1ncc(-c2nc(N3CCOCC3)c3ccc(=NCc4ccc(O)cc4)[nH]n23)c[nH]1

>  <score_type>  (67) 
oracle

>  <origin>  (67) 
adg

>  <m_score__min__energy>  (67) 
-8.5

>  <m_primary>  (67) 
energy

$$$$
67:0
     RDKit          3D

 65 69  0  0  0  0  0  0  0  0999 V2000
   54.5640   31.0120   51.2720 C   0  0  0  0  0  0  0  0  0  0  0  0
   54.3890   30.5310   52.5130 C   0  0  0  0  0  0  0  0  0  0  0  0
   53.1700   30.2210   53.1440 C   0  0  0  0  0  0  0  0  0  0  0  0
   51.9140   30.1510   52.6670 C   0  0  0  0  0  0  0  0  0  0  0  0
   51.4560   30.6730   51.3730 C   0  0  0  0  0  0  0  0  0  0  0  0
   51.5100   29.9680   50.2310 N   0  0  0  0  0  0  0  0  0  0  0  0
   51.0920   30.8500   49.2980 C   0  0  0  0  0  0  0  0  0  0  0  0
   50.9900   30.5510   48.0790 O   0  0  0  0  0  0  0  0  0  0  0  0
   50.8020   32.0810   49.7720 N   0  0  0  0  0  0  0  0  0  0  0  0
   51.0530   31.9610   51.0850 C   0  0  0  0  0  0  0  0  0  0  0  0
   50.9360   33.0170   51.9850 O   0  0  0  0  0  0  0  0  0  0  0  0
   53.4790   29.9600   54.4700 C   0  0  0  0  0  0  0  0  0  0  0  0
   54.8480   30.0580   54.5910 C   0  0  0  0  0  0  0  0  0  0  0  0
   55.6080   29.8450   55.8640 C   0  0  0  0  0  0  0  0  0  0  0  0
   55.4020   30.4040   53.4080 N   0  0  0  0  0  0  0  0  0  0  0  0
   56.8050   30.6020   53.1670 C   0  0  0  0  0  0  0  0  0  0  0  0
   57.3260   31.8990   53.0550 C   0  0  0  0  0  0  0  0  0  0  0  0
   58.6930   32.0920   52.8450 C   0  0  0  0  0  0  0  0  0  0  0  0
   59.5610   30.9900   52.7390 C   0  0  0  0  0  0  0  0  0  0  0  0
   61.0120   31.1960   52.5300 C   0  0  0  0  0  0  0  0  0  0  0  0
   61.7420   31.5550   53.4940 O   0  0  0  0  0  0  0  0  0  0  0  0
   61.5960   31.0240   51.2310 N   0  0  0  0  0  0  0  0  0  0  0  0
   62.9790   31.4750   51.0180 C   0  0  0  0  0  0  0  0  0  0  0  0
   63.3100   31.5830   49.5280 C   0  0  0  0  0  0  0  0  0  0  0  0
   62.1060   31.9820   48.7970 N   0  0  0  0  0  0  0  0  0  0  0  0
   61.9330   33.3510   48.3720 C   0  0  0  0  0  0  0  0  0  0  0  0
   62.7340   34.2360   48.7800 O   0  0  0  0  0  0  0  0  0  0  0  0
   60.8150   33.7500   47.4870 C   0  0  0  0  0  0  0  0  0  0  0  0
   59.5540   34.0510   48.0290 C   0  0  0  0  0  0  0  0  0  0  0  0
   58.4940   34.4150   47.1940 C   0  0  0  0  0  0  0  0  0  0  0  0
   58.6850   34.4890   45.8130 C   0  0  0  0  0  0  0  0  0  0  0  0
   59.9410   34.2080   45.2660 C   0  0  0  0  0  0  0  0  0  0  0  0
   61.0030   33.8460   46.0980 C   0  0  0  0  0  0  0  0  0  0  0  0
   60.9620   31.0550   48.8150 C   0  0  0  0  0  0  0  0  0  0  0  0
   60.8420   30.3200   50.1760 C   0  0  1  0  0  0  0  0  0  0  0  0
   61.3070   28.8610   50.0880 C   0  0  0  0  0  0  0  0  0  0  0  0
   59.0350   29.6920   52.8600 C   0  0  0  0  0  0  0  0  0  0  0  0
   57.6660   29.5010   53.0680 C   0  0  0  0  0  0  0  0  0  0  0  0
   55.5788   31.2127   50.8979 H   0  0  0  0  0  0  0  0  0  0  0  0
   53.6926   31.2055   50.6292 H   0  0  0  0  0  0  0  0  0  0  0  0
   51.1633   29.6590   53.3028 H   0  0  0  0  0  0  0  0  0  0  0  0
   51.3280   32.9650   52.9170 H   0  0  0  0  0  0  0  0  0  0  0  0
   52.7665   29.7202   55.2730 H   0  0  0  0  0  0  0  0  0  0  0  0
   54.9453   30.0307   56.7221 H   0  0  0  0  0  0  0  0  0  0  0  0
   55.9760   28.8091   55.9024 H   0  0  0  0  0  0  0  0  0  0  0  0
   56.4608   30.5387   55.9024 H   0  0  0  0  0  0  0  0  0  0  0  0
   56.6555   32.7675   53.1328 H   0  0  0  0  0  0  0  0  0  0  0  0
   59.0939   33.1129   52.7619 H   0  0  0  0  0  0  0  0  0  0  0  0
   63.1092   32.4621   51.4856 H   0  0  0  0  0  0  0  0  0  0  0  0
   63.6567   30.7356   51.4696 H   0  0  0  0  0  0  0  0  0  0  0  0
   64.0976   32.3364   49.3794 H   0  0  0  0  0  0  0  0  0  0  0  0
   63.6640   30.6103   49.1558 H   0  0  0  0  0  0  0  0  0  0  0  0
   59.4002   33.9998   49.1170 H   0  0  0  0  0  0  0  0  0  0  0  0
   57.5082   34.6434   47.6253 H   0  0  0  0  0  0  0  0  0  0  0  0
   57.8483   34.7681   45.1557 H   0  0  0  0  0  0  0  0  0  0  0  0
   60.0929   34.2722   44.1784 H   0  0  0  0  0  0  0  0  0  0  0  0
   61.9913   33.6351   45.6636 H   0  0  0  0  0  0  0  0  0  0  0  0
   60.0384   31.6246   48.6346 H   0  0  0  0  0  0  0  0  0  0  0  0
   61.1189   30.3006   48.0299 H   0  0  0  0  0  0  0  0  0  0  0  0
   59.7739   30.3204   50.4391 H   0  0  0  0  0  0  0  0  0  0  0  0
   61.4362   28.4555   51.1023 H   0  0  0  0  0  0  0  0  0  0  0  0
   60.5534   28.2678   49.5493 H   0  0  0  0  0  0  0  0  0  0  0  0
   62.2649   28.8133   49.5493 H   0  0  0  0  0  0  0  0  0  0  0  0
   59.7044   28.8219   52.7906 H   0  0  0  0  0  0  0  0  0  0  0  0
   57.2626   28.4813   53.1544 H   0  0  0  0  0  0  0  0  0  0  0  0
  1  2  2  0
  2  3  1  0
  3  4  2  3
  4  5  1  0
  5  6  1  0
  6  7  1  0
  7  8  2  0
  7  9  1  0
  9 10  1  0
 10 11  1  0
  3 12  1  0
 12 13  2  0
 13 14  1  0
 13 15  1  0
 15 16  1  0
 16 17  2  0
 17 18  1  0
 18 19  2  0
 19 20  1  0
 20 21  2  0
 20 22  1  0
 22 23  1  0
 23 24  1  0
 24 25  1  0
 25 26  1  0
 26 27  2  0
 26 28  1  0
 28 29  2  0
 29 30  1  0
 30 31  2  0
 31 32  1  0
 32 33  2  0
 25 34  1  0
 34 35  1  0
 35 36  1  0
 19 37  1  0
 37 38  2  0
 15  2  1  0
 38 16  1  0
 10  5  2  0
 35 22  1  0
 33 28  1  0
  1 39  1  0
  1 40  1  0
  4 41  1  0
 11 42  1  0
 12 43  1  0
 14 44  1  0
 14 45  1  0
 14 46  1  0
 17 47  1  0
 18 48  1  0
 23 49  1  0
 23 50  1  0
 24 51  1  0
 24 52  1  0
 29 53  1  0
 30 54  1  0
 31 55  1  0
 32 56  1  0
 33 57  1  0
 34 58  1  0
 34 59  1  0
 35 60  1  1
 36 61  1  0
 36 62  1  0
 36 63  1  0
 37 64  1  0
 38 65  1  0
M  CHG  2   6  -1   9  -1
M  END
>  <UniqueID>  (68) 
56

>  <SMILES>  (68) 
C=c1c(=Cc2[n-]c(=O)[n-]c2O)cc(C)n1-c1ccc(C(=O)N2CCN(C(=O)c3ccccc3)C[C@H]2C)cc1

>  <Energy>  (68) 
156.9956577136508

>  <Genealogy>  (68) 
C=c1c(=Cc2[n-]c(=O)[n-]c2O)cc(C)n1-c1ccc(C(=O)N2CCN(C(=O)c3ccccc3)CC2C)cc1 (protonated)
C=c1c(=Cc2[n-]c(=O)[n-]c2O)cc(C)n1-c1ccc(C(=O)N2CCN(C(=O)c3ccccc3)C[C@H]2C)cc1 (chirality)
C=c1c(=Cc2[n-]c(=O)[n-]c2O)cc(C)n1-c1ccc(C(=O)N2CCN(C(=O)c3ccccc3)C[C@H]2C)cc1 (3D coordinates assigned)
C=c1c(=Cc2[n-]c(=O)[n-]c2O)cc(C)n1-c1ccc(C(=O)N2CCN(C(=O)c3ccccc3)C[C@H]2C)cc1 (nonaromatic ring conformer: 156.9956577136508 kcal/mol)

>  <smiles>  (68) 
C=c1c(=Cc2[nH]c(=O)[nH]c2O)cc(C)n1-c1ccc(C(=O)N2CCN(C(=O)c3ccccc3)CC2C)cc1

>  <score_type>  (68) 
oracle

>  <origin>  (68) 
adg

>  <m_score__min__energy>  (68) 
-14.42

>  <m_primary>  (68) 
energy

$$$$
68:0
     RDKit          3D

 73 77  0  0  1  0  0  0  0  0999 V2000
   60.3010   29.7770   53.3110 C   0  0  0  0  0  0  0  0  0  0  0  0
   58.9780   29.8180   53.6920 O   0  0  0  0  0  0  0  0  0  0  0  0
   58.7810   30.5100   54.8640 C   0  0  0  0  0  0  0  0  0  0  0  0
   57.7740   31.6110   54.7920 C   0  0  0  0  0  0  0  0  0  0  0  0
   57.8860   32.5320   53.7870 O   0  0  0  0  0  0  0  0  0  0  0  0
   58.8540   32.8820   52.9180 C   0  0  0  0  0  0  0  0  0  0  0  0
   60.0450   33.5020   53.1900 C   0  0  0  0  0  0  0  0  0  0  0  0
   60.9890   33.8300   52.2430 C   0  0  0  0  0  0  0  0  0  0  0  0
   60.7510   33.5260   50.9240 C   0  0  0  0  0  0  0  0  0  0  0  0
   59.5720   32.9020   50.5950 C   0  0  0  0  0  0  0  0  0  0  0  0
   59.2240   32.5610   49.2480 N   0  0  0  0  0  0  0  0  0  0  0  0
   59.1050   33.5960   48.2860 C   0  0  0  0  0  0  0  0  0  0  0  0
   59.2960   34.7980   48.6260 O   0  0  0  0  0  0  0  0  0  0  0  0
   58.7650   33.2990   46.9010 C   0  0  0  0  0  0  0  0  0  0  0  0
   59.1690   34.1120   45.8510 C   0  0  0  0  0  0  0  0  0  0  0  0
   58.8640   33.8420   44.5360 C   0  0  0  0  0  0  0  0  0  0  0  0
   58.1280   32.7170   44.2720 C   0  0  0  0  0  0  0  0  0  0  0  0
   57.8000   32.4420   42.8250 C   0  0  0  0  0  0  0  0  0  0  0  0
   57.6950   31.8640   45.2790 C   0  0  0  0  0  0  0  0  0  0  0  0
   56.9690   30.7230   44.8830 N   0  0  0  0  0  0  0  0  0  0  0  0
   57.5480   29.6000   44.6620 C   0  0  0  0  0  0  0  0  0  0  0  0
   57.2550   28.9680   43.5020 N   0  0  0  0  0  0  0  0  0  0  0  0
   57.7980   27.7960   43.1450 C   0  0  0  0  0  0  0  0  0  0  0  0
   58.6890   27.2360   44.0170 N   0  0  0  0  0  0  0  0  0  0  0  0
   59.0060   27.8210   45.1680 C   0  0  0  0  0  0  0  0  0  0  0  0
   59.9030   27.2610   46.0460 C   0  0  0  0  0  0  0  0  0  0  0  0
   60.1740   27.8900   47.1710 N   0  0  0  0  0  0  0  0  0  0  0  0
   59.6350   29.0610   47.5400 C   0  0  0  0  0  0  0  0  0  0  0  0
   59.9660   29.5680   48.6190 N   0  0  0  0  0  0  0  0  0  0  0  0
   61.0650   30.1000   49.2650 C   0  0  0  0  0  0  0  0  0  0  0  0
   61.8840   31.1510   48.7100 C   0  0  0  0  0  0  0  0  0  0  0  0
   62.9880   31.5870   49.4650 C   0  0  0  0  0  0  0  0  0  0  0  0
   63.8500   32.5460   48.9870 C   0  0  0  0  0  0  0  0  0  0  0  0
   63.6870   33.1350   47.7500 C   0  0  0  0  0  0  0  0  0  0  0  0
   62.6100   32.7160   47.0030 C   0  0  0  0  0  0  0  0  0  0  0  0
   61.7410   31.7560   47.4730 C   0  0  0  0  0  0  0  0  0  0  0  0
   58.7500   29.6410   46.6980 N   0  0  0  0  0  0  0  0  0  0  0  0
   58.4440   29.0360   45.5400 C   0  0  0  0  0  0  0  0  0  0  0  0
   58.0150   32.1570   46.5990 C   0  0  0  0  0  0  0  0  0  0  0  0
   58.6220   32.5740   51.5600 C   0  0  0  0  0  0  0  0  0  0  0  0
   57.4480   31.9490   51.2030 O   0  0  0  0  0  0  0  0  0  0  0  0
   57.0270   30.6780   51.6370 C   0  0  0  0  0  0  0  0  0  0  0  0
   60.9399   29.7572   54.2062 H   0  0  0  0  0  0  0  0  0  0  0  0
   60.4820   28.8728   52.7113 H   0  0  0  0  0  0  0  0  0  0  0  0
   60.5376   30.6682   52.7113 H   0  0  0  0  0  0  0  0  0  0  0  0
   58.4480   29.7941   55.6299 H   0  0  0  0  0  0  0  0  0  0  0  0
   59.7420   30.9907   55.0994 H   0  0  0  0  0  0  0  0  0  0  0  0
   56.7847   31.1405   54.6928 H   0  0  0  0  0  0  0  0  0  0  0  0
   57.9435   32.1921   55.7105 H   0  0  0  0  0  0  0  0  0  0  0  0
   60.2622   33.7554   54.2381 H   0  0  0  0  0  0  0  0  0  0  0  0
   61.9232   34.3298   52.5388 H   0  0  0  0  0  0  0  0  0  0  0  0
   61.4890   33.7770   50.1479 H   0  0  0  0  0  0  0  0  0  0  0  0
   59.0760   31.5530   49.0310 H   0  0  0  0  0  0  0  0  0  0  0  0
   59.7589   35.0118   46.0798 H   0  0  0  0  0  0  0  0  0  0  0  0
   59.1994   34.5061   43.7258 H   0  0  0  0  0  0  0  0  0  0  0  0
   56.9582   31.7362   42.7676 H   0  0  0  0  0  0  0  0  0  0  0  0
   57.5243   33.3829   42.3263 H   0  0  0  0  0  0  0  0  0  0  0  0
   58.6784   32.0064   42.3263 H   0  0  0  0  0  0  0  0  0  0  0  0
   56.5740   29.4060   42.8440 H   0  0  0  0  0  0  0  0  0  0  0  0
   57.5386   27.3074   42.1942 H   0  0  0  0  0  0  0  0  0  0  0  0
   60.3875   26.3015   45.8125 H   0  0  0  0  0  0  0  0  0  0  0  0
   60.8510   27.4750   47.8320 H   0  0  0  0  0  0  0  0  0  0  0  0
   60.6918   30.4852   50.2254 H   0  0  0  0  0  0  0  0  0  0  0  0
   61.7616   29.2491   49.2393 H   0  0  0  0  0  0  0  0  0  0  0  0
   63.1656   31.1514   50.4593 H   0  0  0  0  0  0  0  0  0  0  0  0
   64.7000   32.8546   49.6134 H   0  0  0  0  0  0  0  0  0  0  0  0
   64.3835   33.9015   47.3793 H   0  0  0  0  0  0  0  0  0  0  0  0
   62.4394   33.1569   46.0098 H   0  0  0  0  0  0  0  0  0  0  0  0
   60.8952   31.4566   46.8366 H   0  0  0  0  0  0  0  0  0  0  0  0
   57.6785   31.4908   47.4071 H   0  0  0  0  0  0  0  0  0  0  0  0
   57.0179   30.6505   52.7366 H   0  0  0  0  0  0  0  0  0  0  0  0
   56.0145   30.4775   51.2568 H   0  0  0  0  0  0  0  0  0  0  0  0
   57.7196   29.9127   51.2568 H   0  0  0  0  0  0  0  0  0  0  0  0
  1  2  1  0
  2  3  1  0
  3  4  1  0
  4  5  1  0
  5  6  1  0
  6  7  2  0
  7  8  1  0
  8  9  2  0
  9 10  1  0
 10 11  1  0
 11 12  1  0
 12 13  2  0
 12 14  1  0
 14 15  2  0
 15 16  1  0
 16 17  2  0
 17 18  1  0
 17 19  1  0
 19 20  1  0
 20 21  2  0
 21 22  1  0
 22 23  1  0
 23 24  2  0
 24 25  1  0
 25 26  2  0
 26 27  1  0
 27 28  1  0
 28 29  2  0
 29 30  1  0
 30 31  1  0
 31 32  2  0
 32 33  1  0
 33 34  2  0
 34 35  1  0
 35 36  2  0
 28 37  1  0
 37 38  2  0
 19 39  2  0
 10 40  2  0
 40 41  1  0
 41 42  1  0
 40  6  1  0
 39 14  1  0
 38 21  1  0
 38 25  1  0
 36 31  1  0
  1 43  1  0
  1 44  1  0
  1 45  1  0
  3 46  1  0
  3 47  1  0
  4 48  1  0
  4 49  1  0
  7 50  1  0
  8 51  1  0
  9 52  1  0
 11 53  1  0
 15 54  1  0
 16 55  1  0
 18 56  1  0
 18 57  1  0
 18 58  1  0
 22 59  1  0
 23 60  1  0
 26 61  1  0
 27 62  1  0
 30 63  1  0
 30 64  1  0
 32 65  1  0
 33 66  1  0
 34 67  1  0
 35 68  1  0
 36 69  1  0
 39 70  1  0
 42 71  1  0
 42 72  1  0
 42 73  1  0
M  END
>  <smiles>  (69) 
COCCOc1cccc(NC(=O)c2ccc(C)c(N=c3[nH]cnc4c[nH]c(=NCc5ccccc5)nc34)c2)c1OC

>  <score_type>  (69) 
oracle

>  <origin>  (69) 
adg

>  <m_score__min__energy>  (69) 
-9.7100000000000009

>  <m_primary>  (69) 
energy

$$$$
69:0
     RDKit          3D

 54 56  0  0  0  0  0  0  0  0999 V2000
   54.7690   29.3660   43.9350 O   0  0  0  0  0  0  0  0  0  0  0  0
   55.7940   29.7370   44.5690 C   0  0  0  0  0  0  0  0  0  0  0  0
   56.6690   28.7310   45.2540 C   0  0  0  0  0  0  0  0  0  0  0  0
   55.9060   27.5410   45.6230 N   0  0  0  0  0  0  0  0  0  0  0  0
   56.4430   26.2210   45.7820 C   0  0  0  0  0  0  0  0  0  0  0  0
   56.6830   25.5440   44.7460 O   0  0  0  0  0  0  0  0  0  0  0  0
   56.6540   25.6070   47.1500 C   0  0  2  0  0  0  0  0  0  0  0  0
   58.1420   25.5530   47.5550 C   0  0  0  0  0  0  0  0  0  0  0  0
   58.8640   26.8100   47.1390 C   0  0  0  0  0  0  0  0  0  0  0  0
   58.6820   28.0050   47.8550 C   0  0  0  0  0  0  0  0  0  0  0  0
   59.3110   29.1810   47.4330 C   0  0  0  0  0  0  0  0  0  0  0  0
   60.1230   29.1730   46.2970 C   0  0  0  0  0  0  0  0  0  0  0  0
   60.3050   27.9890   45.5770 C   0  0  0  0  0  0  0  0  0  0  0  0
   59.6760   26.8120   45.9920 C   0  0  0  0  0  0  0  0  0  0  0  0
   56.0460   24.2760   47.2140 N   0  0  0  0  0  0  0  0  0  0  0  0
   56.6840   23.0440   46.8530 C   0  0  0  0  0  0  0  0  0  0  0  0
   57.1850   22.3100   47.7480 O   0  0  0  0  0  0  0  0  0  0  0  0
   56.7660   22.6290   45.4310 C   0  0  0  0  0  0  0  0  0  0  0  0
   57.8210   21.7940   45.0140 C   0  0  0  0  0  0  0  0  0  0  0  0
   57.9220   21.3850   43.6820 C   0  0  0  0  0  0  0  0  0  0  0  0
   56.9710   21.7960   42.7500 C   0  0  0  0  0  0  0  0  0  0  0  0
   55.9140   22.6150   43.1470 C   0  0  0  0  0  0  0  0  0  0  0  0
   55.7970   23.0310   44.4820 C   0  0  0  0  0  0  0  0  0  0  0  0
   54.7140   23.8250   44.8600 O   0  0  0  0  0  0  0  0  0  0  0  0
   56.1580   31.1190   44.5990 N   0  0  0  0  0  0  0  0  0  0  0  0
   57.4240   31.6110   44.0730 C   0  0  0  0  0  0  0  0  0  0  0  0
   58.0040   32.6160   45.0240 C   0  0  0  0  0  0  0  0  0  0  0  0
   57.8080   32.4770   46.4080 C   0  0  0  0  0  0  0  0  0  0  0  0
   58.3230   33.4300   47.2920 C   0  0  0  0  0  0  0  0  0  0  0  0
   59.0240   34.5340   46.8000 C   0  0  0  0  0  0  0  0  0  0  0  0
   59.2100   34.6870   45.4230 C   0  0  0  0  0  0  0  0  0  0  0  0
   58.6970   33.7350   44.5360 C   0  0  0  0  0  0  0  0  0  0  0  0
   57.4834   28.4401   44.5743 H   0  0  0  0  0  0  0  0  0  0  0  0
   57.0760   29.1851   46.1695 H   0  0  0  0  0  0  0  0  0  0  0  0
   56.1544   26.2631   47.8780 H   0  0  0  0  0  0  0  0  0  0  0  0
   58.2133   25.4425   48.6471 H   0  0  0  0  0  0  0  0  0  0  0  0
   58.6111   24.6967   47.0483 H   0  0  0  0  0  0  0  0  0  0  0  0
   58.0429   28.0159   48.7502 H   0  0  0  0  0  0  0  0  0  0  0  0
   59.1657   30.1140   47.9972 H   0  0  0  0  0  0  0  0  0  0  0  0
   60.6192   30.0983   45.9689 H   0  0  0  0  0  0  0  0  0  0  0  0
   60.9445   27.9835   44.6820 H   0  0  0  0  0  0  0  0  0  0  0  0
   59.8170   25.8838   45.4188 H   0  0  0  0  0  0  0  0  0  0  0  0
   58.5729   21.4606   45.7445 H   0  0  0  0  0  0  0  0  0  0  0  0
   58.7539   20.7372   43.3683 H   0  0  0  0  0  0  0  0  0  0  0  0
   57.0539   21.4746   41.7013 H   0  0  0  0  0  0  0  0  0  0  0  0
   55.1661   22.9374   42.4076 H   0  0  0  0  0  0  0  0  0  0  0  0
   54.8310   24.6450   45.4430 H   0  0  0  0  0  0  0  0  0  0  0  0
   58.1239   30.7705   43.9560 H   0  0  0  0  0  0  0  0  0  0  0  0
   57.2550   32.0862   43.0955 H   0  0  0  0  0  0  0  0  0  0  0  0
   57.2470   31.6149   46.7979 H   0  0  0  0  0  0  0  0  0  0  0  0
   58.1762   33.3105   48.3756 H   0  0  0  0  0  0  0  0  0  0  0  0
   59.4295   35.2828   47.4963 H   0  0  0  0  0  0  0  0  0  0  0  0
   59.7606   35.5573   45.0365 H   0  0  0  0  0  0  0  0  0  0  0  0
   58.8370   33.8636   43.4525 H   0  0  0  0  0  0  0  0  0  0  0  0
  1  2  2  0
  2  3  1  0
  3  4  1  0
  4  5  1  0
  5  6  2  0
  5  7  1  0
  7  8  1  0
  8  9  1  0
  9 10  2  0
 10 11  1  0
 11 12  2  0
 12 13  1  0
 13 14  2  0
  7 15  1  0
 15 16  1  0
 16 17  2  0
 16 18  1  0
 18 19  2  0
 19 20  1  0
 20 21  2  0
 21 22  1  0
 22 23  2  0
 23 24  1  0
  2 25  1  0
 25 26  1  0
 26 27  1  0
 27 28  2  0
 28 29  1  0
 29 30  2  0
 30 31  1  0
 31 32  2  0
 14  9  1  0
 23 18  1  0
 32 27  1  0
  3 33  1  0
  3 34  1  0
  7 35  1  1
  8 36  1  0
  8 37  1  0
 10 38  1  0
 11 39  1  0
 12 40  1  0
 13 41  1  0
 14 42  1  0
 19 43  1  0
 20 44  1  0
 21 45  1  0
 22 46  1  0
 24 47  1  0
 26 48  1  0
 26 49  1  0
 28 50  1  0
 29 51  1  0
 30 52  1  0
 31 53  1  0
 32 54  1  0
M  CHG  3   4  -1  15  -1  25  -1
M  END
>  <UniqueID>  (70) 
57

>  <SMILES>  (70) 
O=C(C[N-]C(=O)[C@H](Cc1ccccc1)[N-]C(=O)c1ccccc1O)[N-]Cc1ccccc1

>  <Energy>  (70) 
51.30207354226301

>  <Genealogy>  (70) 
O=C(C[N-]C(=O)C(Cc1ccccc1)[N-]C(=O)c1ccccc1O)[N-]Cc1ccccc1 (protonated)
O=C(C[N-]C(=O)[C@H](Cc1ccccc1)[N-]C(=O)c1ccccc1O)[N-]Cc1ccccc1 (chirality)
O=C(C[N-]C(=O)[C@H](Cc1ccccc1)[N-]C(=O)c1ccccc1O)[N-]Cc1ccccc1 (3D coordinates assigned)
O=C(C[N-]C(=O)[C@H](Cc1ccccc1)[N-]C(=O)c1ccccc1O)[N-]Cc1ccccc1 (optimized conformer: 51.30207354226301 kcal/mol)

>  <smiles>  (70) 
O=C(CNC(=O)C(Cc1ccccc1)NC(=O)c1ccccc1O)NCc1ccccc1

>  <score_type>  (70) 
oracle

>  <origin>  (70) 
adg

>  <m_score__min__energy>  (70) 
-14.93

>  <m_primary>  (70) 
energy

$$$$
70:0
     RDKit          3D

 41 43  0  0  0  0  0  0  0  0999 V2000
   58.1550   27.1700   42.6390 N   0  0  0  0  0  0  0  0  0  0  0  0
   57.7870   27.8980   43.4590 C   0  0  0  0  0  0  0  0  0  0  0  0
   57.3280   28.8050   44.4810 C   0  0  0  0  0  0  0  0  0  0  0  0
   56.5890   28.3100   45.4910 C   0  0  0  0  0  0  0  0  0  0  0  0
   56.8000   26.9830   46.1150 C   0  0  0  0  0  0  0  0  0  0  0  0
   58.0320   26.6600   46.7120 C   0  0  0  0  0  0  0  0  0  0  0  0
   59.1440   27.5650   46.6540 N   0  0  0  0  0  0  0  0  0  0  0  0
   60.1910   27.3780   45.6430 C   0  0  0  0  0  0  0  0  0  0  0  0
   60.8380   28.7280   45.2540 C   0  0  0  0  0  0  0  0  0  0  0  0
   60.4480   29.8120   46.0810 O   0  0  0  0  0  0  0  0  0  0  0  0
   60.5200   29.4400   47.4420 C   0  0  0  0  0  0  0  0  0  0  0  0
   59.3670   28.4900   47.7680 C   0  0  0  0  0  0  0  0  0  0  0  0
   58.1740   25.4700   47.3570 N   0  0  0  0  0  0  0  0  0  0  0  0
   57.1520   24.5820   47.4340 C   0  0  0  0  0  0  0  0  0  0  0  0
   57.3150   23.4860   48.0290 O   0  0  0  0  0  0  0  0  0  0  0  0
   55.9520   24.8780   46.8750 N   0  0  0  0  0  0  0  0  0  0  0  0
   55.7480   26.0550   46.2310 C   0  0  0  0  0  0  0  0  0  0  0  0
   54.4900   26.3350   45.7100 O   0  0  0  0  0  0  0  0  0  0  0  0
   57.6650   30.2390   44.3410 C   0  0  0  0  0  0  0  0  0  0  0  0
   58.7200   30.5950   43.7460 O   0  0  0  0  0  0  0  0  0  0  0  0
   56.7980   31.2300   44.9060 N   0  0  0  0  0  0  0  0  0  0  0  0
   57.0510   32.6620   44.8130 C   0  0  0  0  0  0  0  0  0  0  0  0
   57.9340   33.1000   45.9390 C   0  0  0  0  0  0  0  0  0  0  0  0
   58.8310   34.1480   45.8980 C   0  0  0  0  0  0  0  0  0  0  0  0
   59.4460   34.1550   47.1320 C   0  0  0  0  0  0  0  0  0  0  0  0
   58.8870   33.1130   47.8450 C   0  0  0  0  0  0  0  0  0  0  0  0
   57.9910   32.5020   47.1060 O   0  0  0  0  0  0  0  0  0  0  0  0
   55.7713   28.9343   45.8804 H   0  0  0  0  0  0  0  0  0  0  0  0
   60.9667   26.7116   46.0483 H   0  0  0  0  0  0  0  0  0  0  0  0
   59.7339   26.9382   44.7443 H   0  0  0  0  0  0  0  0  0  0  0  0
   61.9308   28.6194   45.3179 H   0  0  0  0  0  0  0  0  0  0  0  0
   60.4957   28.9643   44.2357 H   0  0  0  0  0  0  0  0  0  0  0  0
   61.4780   28.9349   47.6347 H   0  0  0  0  0  0  0  0  0  0  0  0
   60.4476   30.3377   48.0736 H   0  0  0  0  0  0  0  0  0  0  0  0
   59.6139   27.9159   48.6732 H   0  0  0  0  0  0  0  0  0  0  0  0
   58.4528   29.0786   47.9347 H   0  0  0  0  0  0  0  0  0  0  0  0
   57.5451   32.8832   43.8554 H   0  0  0  0  0  0  0  0  0  0  0  0
   56.0947   33.2022   44.8730 H   0  0  0  0  0  0  0  0  0  0  0  0
   59.0163   34.8334   45.0578 H   0  0  0  0  0  0  0  0  0  0  0  0
   60.2248   34.8503   47.4785 H   0  0  0  0  0  0  0  0  0  0  0  0
   59.1525   32.8369   48.8762 H   0  0  0  0  0  0  0  0  0  0  0  0
  1  2  3  0
  2  3  1  0
  3  4  2  3
  4  5  1  0
  5  6  1  0
  6  7  1  0
  7  8  1  0
  8  9  1  0
  9 10  1  0
 10 11  1  0
 11 12  1  0
  6 13  2  0
 13 14  1  0
 14 15  2  0
 14 16  1  0
 16 17  1  0
 17 18  1  0
  3 19  1  0
 19 20  2  0
 19 21  1  0
 21 22  1  0
 22 23  1  0
 23 24  2  0
 24 25  1  0
 25 26  2  0
 26 27  1  0
 17  5  2  0
 27 23  1  0
 12  7  1  0
  4 28  1  0
  8 29  1  0
  8 30  1  0
  9 31  1  0
  9 32  1  0
 11 33  1  0
 11 34  1  0
 12 35  1  0
 12 36  1  0
 22 37  1  0
 22 38  1  0
 24 39  1  0
 25 40  1  0
 26 41  1  0
M  CHG  3  16  -1  18  -1  21  -1
M  END
>  <UniqueID>  (71) 
58

>  <SMILES>  (71) 
N#CC(=Cc1c(N2CCOCC2)nc(=O)[n-]c1[O-])C(=O)[N-]Cc1ccco1

>  <Energy>  (71) 
84.71910707127662

>  <Genealogy>  (71) 
N#CC(=Cc1c(N2CCOCC2)nc(=O)[n-]c1[O-])C(=O)[N-]Cc1ccco1 (protonated)
N#CC(=Cc1c(N2CCOCC2)nc(=O)[n-]c1[O-])C(=O)[N-]Cc1ccco1 (3D coordinates assigned)
N#CC(=Cc1c(N2CCOCC2)nc(=O)[n-]c1[O-])C(=O)[N-]Cc1ccco1 (nonaromatic ring conformer: 84.71910707127662 kcal/mol)

>  <smiles>  (71) 
N#CC(=Cc1c(N2CCOCC2)nc(=O)[nH]c1O)C(=O)NCc1ccco1

>  <score_type>  (71) 
oracle

>  <origin>  (71) 
adg

>  <m_score__min__energy>  (71) 
-14.33

>  <m_primary>  (71) 
energy

$$$$
71:0
     RDKit          3D

 54 56  0  0  0  0  0  0  0  0999 V2000
   56.5480   29.5450   45.6040 O   0  0  0  0  0  0  0  0  0  0  0  0
   57.5850   29.0590   45.0780 C   0  0  0  0  0  0  0  0  0  0  0  0
   58.1390   29.6790   43.8180 C   0  0  0  0  0  0  0  0  0  0  0  0
   57.1090   30.5770   43.1240 C   0  0  0  0  0  0  0  0  0  0  0  0
   57.4220   32.0170   43.3840 C   0  0  0  0  0  0  0  0  0  0  0  0
   57.9620   32.7110   42.4800 O   0  0  0  0  0  0  0  0  0  0  0  0
   57.1060   32.5920   44.6570 N   0  0  0  0  0  0  0  0  0  0  0  0
   58.0160   33.3130   45.5000 C   0  0  0  0  0  0  0  0  0  0  0  0
   58.6740   34.4340   44.9800 C   0  0  0  0  0  0  0  0  0  0  0  0
   59.5790   35.1490   45.7670 C   0  0  0  0  0  0  0  0  0  0  0  0
   59.8460   34.7390   47.0760 C   0  0  0  0  0  0  0  0  0  0  0  0
   59.2090   33.6080   47.6040 C   0  0  0  0  0  0  0  0  0  0  0  0
   59.5420   33.0870   49.2580 S   0  0  0  0  0  0  0  0  0  0  0  0
   59.6500   34.3030   50.1350 O   0  0  0  0  0  0  0  0  0  0  0  0
   58.3880   32.2620   49.7570 O   0  0  0  0  0  0  0  0  0  0  0  0
   61.0160   32.1470   49.3830 N   0  0  0  0  0  0  0  0  0  0  0  0
   62.2260   32.9260   49.0400 C   0  0  0  0  0  0  0  0  0  0  0  0
   62.7710   32.5950   47.6400 C   0  0  0  0  0  0  0  0  0  0  0  0
   61.7190   32.2400   46.7760 O   0  0  0  0  0  0  0  0  0  0  0  0
   61.1910   30.9820   47.1550 C   0  0  0  0  0  0  0  0  0  0  0  0
   60.9240   30.8580   48.6750 C   0  0  0  0  0  0  0  0  0  0  0  0
   58.3070   32.8870   46.8080 C   0  0  0  0  0  0  0  0  0  0  0  0
   58.1530   27.8770   45.6540 N   0  0  0  0  0  0  0  0  0  0  0  0
   58.1430   27.5590   47.0770 C   0  0  0  0  0  0  0  0  0  0  0  0
   58.0920   26.0430   47.2630 C   0  0  0  0  0  0  0  0  0  0  0  0
   56.7650   25.4960   46.8010 C   0  0  0  0  0  0  0  0  0  0  0  0
   55.8220   26.3430   46.2020 C   0  0  0  0  0  0  0  0  0  0  0  0
   54.6430   25.8410   45.7540 N   0  0  0  0  0  0  0  0  0  0  0  0
   54.3560   24.5190   45.8690 C   0  0  0  0  0  0  0  0  0  0  0  0
   53.2560   24.0760   45.4500 O   0  0  0  0  0  0  0  0  0  0  0  0
   55.2570   23.6740   46.4320 N   0  0  0  0  0  0  0  0  0  0  0  0
   56.4530   24.1280   46.8930 C   0  0  0  0  0  0  0  0  0  0  0  0
   57.2690   23.3120   47.3980 O   0  0  0  0  0  0  0  0  0  0  0  0
   59.0210   30.2832   44.0767 H   0  0  0  0  0  0  0  0  0  0  0  0
   58.4050   28.8664   43.1259 H   0  0  0  0  0  0  0  0  0  0  0  0
   57.1345   30.3893   42.0404 H   0  0  0  0  0  0  0  0  0  0  0  0
   56.1085   30.3494   43.5206 H   0  0  0  0  0  0  0  0  0  0  0  0
   58.4770   34.7532   43.9459 H   0  0  0  0  0  0  0  0  0  0  0  0
   60.0826   36.0364   45.3560 H   0  0  0  0  0  0  0  0  0  0  0  0
   60.5583   35.3057   47.6937 H   0  0  0  0  0  0  0  0  0  0  0  0
   61.9766   33.9967   49.0760 H   0  0  0  0  0  0  0  0  0  0  0  0
   63.0064   32.6641   49.7697 H   0  0  0  0  0  0  0  0  0  0  0  0
   63.2906   33.4762   47.2356 H   0  0  0  0  0  0  0  0  0  0  0  0
   63.4688   31.7484   47.7195 H   0  0  0  0  0  0  0  0  0  0  0  0
   60.2419   30.8273   46.6208 H   0  0  0  0  0  0  0  0  0  0  0  0
   61.9438   30.2231   46.8953 H   0  0  0  0  0  0  0  0  0  0  0  0
   59.9133   30.4492   48.8211 H   0  0  0  0  0  0  0  0  0  0  0  0
   61.6984   30.1976   49.0922 H   0  0  0  0  0  0  0  0  0  0  0  0
   57.8246   31.9834   47.2091 H   0  0  0  0  0  0  0  0  0  0  0  0
   59.0552   27.9550   47.5471 H   0  0  0  0  0  0  0  0  0  0  0  0
   57.2590   28.0147   47.5470 H   0  0  0  0  0  0  0  0  0  0  0  0
   58.8983   25.5794   46.6757 H   0  0  0  0  0  0  0  0  0  0  0  0
   58.2182   25.8123   48.3311 H   0  0  0  0  0  0  0  0  0  0  0  0
   56.0379   27.4163   46.0948 H   0  0  0  0  0  0  0  0  0  0  0  0
  1  2  2  0
  2  3  1  0
  3  4  1  0
  4  5  1  0
  5  6  2  0
  5  7  1  0
  7  8  1  0
  8  9  2  0
  9 10  1  0
 10 11  2  0
 11 12  1  0
 12 13  1  0
 13 14  2  0
 13 15  2  0
 13 16  1  0
 16 17  1  0
 17 18  1  0
 18 19  1  0
 19 20  1  0
 20 21  1  0
 12 22  2  0
  2 23  1  0
 23 24  1  0
 24 25  1  0
 25 26  1  0
 26 27  2  0
 27 28  1  0
 28 29  1  0
 29 30  2  0
 29 31  1  0
 31 32  1  0
 32 33  2  0
 22  8  1  0
 32 26  1  0
 21 16  1  0
  3 34  1  0
  3 35  1  0
  4 36  1  0
  4 37  1  0
  9 38  1  0
 10 39  1  0
 11 40  1  0
 17 41  1  0
 17 42  1  0
 18 43  1  0
 18 44  1  0
 20 45  1  0
 20 46  1  0
 21 47  1  0
 21 48  1  0
 22 49  1  0
 24 50  1  0
 24 51  1  0
 25 52  1  0
 25 53  1  0
 27 54  1  0
M  CHG  4   7  -1  23  -1  28  -1  31  -1
M  END
>  <UniqueID>  (72) 
59

>  <SMILES>  (72) 
O=C(CCC(=O)[N-]c1cccc(S(=O)(=O)N2CCOCC2)c1)[N-]CCc1c[n-]c(=O)[n-]c1=O

>  <Energy>  (72) 
63.054399421363186

>  <Genealogy>  (72) 
O=C(CCC(=O)[N-]c1cccc(S(=O)(=O)N2CCOCC2)c1)[N-]CCc1c[n-]c(=O)[n-]c1=O (protonated)
O=C(CCC(=O)[N-]c1cccc(S(=O)(=O)N2CCOCC2)c1)[N-]CCc1c[n-]c(=O)[n-]c1=O (3D coordinates assigned)
O=C(CCC(=O)[N-]c1cccc(S(=O)(=O)N2CCOCC2)c1)[N-]CCc1c[n-]c(=O)[n-]c1=O (nonaromatic ring conformer: 63.054399421363186 kcal/mol)

>  <smiles>  (72) 
O=C(CCC(=O)Nc1cccc(S(=O)(=O)N2CCOCC2)c1)NCCc1c[nH]c(=O)[nH]c1=O

>  <score_type>  (72) 
oracle

>  <origin>  (72) 
adg

>  <m_score__min__energy>  (72) 
-16.43

>  <m_primary>  (72) 
energy

$$$$
72:0
     RDKit          3D

 58 62  0  0  0  0  0  0  0  0999 V2000
   61.0460   28.6730   51.3760 C   0  0  0  0  0  0  0  0  0  0  0  0
   60.9670   30.0750   50.9510 N   0  0  0  0  0  0  0  0  0  0  0  0
   61.1140   31.1430   51.9180 C   0  0  0  0  0  0  0  0  0  0  0  0
   62.0700   31.9620   51.8110 O   0  0  0  0  0  0  0  0  0  0  0  0
   60.1630   31.2830   53.0850 C   0  0  0  0  0  0  0  0  0  0  0  0
   58.7730   31.6390   52.6430 C   0  0  0  0  0  0  0  0  0  0  0  0
   58.3730   32.8020   51.9910 C   0  0  0  0  0  0  0  0  0  0  0  0
   57.0880   32.7310   51.6900 O   0  0  0  0  0  0  0  0  0  0  0  0
   56.6420   31.5700   52.1060 C   0  0  0  0  0  0  0  0  0  0  0  0
   55.3490   31.0630   51.9900 C   0  0  0  0  0  0  0  0  0  0  0  0
   55.0970   29.7700   52.4990 C   0  0  0  0  0  0  0  0  0  0  0  0
   53.8240   29.2130   52.4090 O   0  0  0  0  0  0  0  0  0  0  0  0
   56.1390   29.0290   53.1050 C   0  0  0  0  0  0  0  0  0  0  0  0
   57.4340   29.5690   53.2080 C   0  0  0  0  0  0  0  0  0  0  0  0
   57.6450   30.8500   52.7000 C   0  0  0  0  0  0  0  0  0  0  0  0
   60.5980   30.3560   49.5850 C   0  0  0  0  0  0  0  0  0  0  0  0
   61.4330   30.1660   48.5380 N   0  0  0  0  0  0  0  0  0  0  0  0
   60.9040   30.5250   47.3680 N   0  0  0  0  0  0  0  0  0  0  0  0
   59.6450   31.0130   47.4590 C   0  0  0  0  0  0  0  0  0  0  0  0
   58.8410   31.4760   46.2960 C   0  0  0  0  0  0  0  0  0  0  0  0
   57.8720   30.6200   45.7340 C   0  0  0  0  0  0  0  0  0  0  0  0
   57.1020   31.0170   44.6290 C   0  0  0  0  0  0  0  0  0  0  0  0
   56.0860   30.1060   44.0480 C   0  0  0  0  0  0  0  0  0  0  0  0
   55.3030   29.2600   44.8880 N   0  0  0  0  0  0  0  0  0  0  0  0
   55.9050   30.0680   42.8010 O   0  0  0  0  0  0  0  0  0  0  0  0
   57.3060   32.2920   44.0830 C   0  0  0  0  0  0  0  0  0  0  0  0
   58.2600   33.1510   44.6250 C   0  0  0  0  0  0  0  0  0  0  0  0
   59.0400   32.7580   45.7290 C   0  0  0  0  0  0  0  0  0  0  0  0
   60.0140   33.6100   46.2780 O   0  0  0  0  0  0  0  0  0  0  0  0
   60.0620   34.0610   47.6330 C   0  0  0  0  0  0  0  0  0  0  0  0
   61.4410   33.8680   48.2080 C   0  0  0  0  0  0  0  0  0  0  0  0
   62.4590   33.3090   47.4180 C   0  0  0  0  0  0  0  0  0  0  0  0
   63.7390   33.1240   47.9480 C   0  0  0  0  0  0  0  0  0  0  0  0
   64.0090   33.4860   49.2710 C   0  0  0  0  0  0  0  0  0  0  0  0
   62.9980   34.0330   50.0660 C   0  0  0  0  0  0  0  0  0  0  0  0
   61.7150   34.2210   49.5400 C   0  0  0  0  0  0  0  0  0  0  0  0
   59.1350   31.0160   49.0720 S   0  0  0  0  0  0  0  0  0  0  0  0
   61.0488   28.6226   52.4748 H   0  0  0  0  0  0  0  0  0  0  0  0
   60.1775   28.1221   50.9859 H   0  0  0  0  0  0  0  0  0  0  0  0
   61.9709   28.2232   50.9859 H   0  0  0  0  0  0  0  0  0  0  0  0
   60.1280   30.3282   53.6302 H   0  0  0  0  0  0  0  0  0  0  0  0
   60.5325   32.0965   53.7266 H   0  0  0  0  0  0  0  0  0  0  0  0
   59.0293   33.6541   51.7604 H   0  0  0  0  0  0  0  0  0  0  0  0
   54.5495   31.6518   51.5166 H   0  0  0  0  0  0  0  0  0  0  0  0
   53.6740   28.3040   51.9860 H   0  0  0  0  0  0  0  0  0  0  0  0
   55.9348   28.0224   53.4988 H   0  0  0  0  0  0  0  0  0  0  0  0
   58.2522   28.9999   53.6735 H   0  0  0  0  0  0  0  0  0  0  0  0
   57.7162   29.6220   46.1695 H   0  0  0  0  0  0  0  0  0  0  0  0
   55.5210   28.2430   44.9800 H   0  0  0  0  0  0  0  0  0  0  0  0
   56.7077   32.6172   43.2191 H   0  0  0  0  0  0  0  0  0  0  0  0
   58.4054   34.1485   44.1847 H   0  0  0  0  0  0  0  0  0  0  0  0
   59.8022   35.1293   47.6678 H   0  0  0  0  0  0  0  0  0  0  0  0
   59.3451   33.4753   48.2271 H   0  0  0  0  0  0  0  0  0  0  0  0
   62.2482   33.0159   46.3789 H   0  0  0  0  0  0  0  0  0  0  0  0
   64.5351   32.6929   47.3232 H   0  0  0  0  0  0  0  0  0  0  0  0
   65.0171   33.3403   49.6863 H   0  0  0  0  0  0  0  0  0  0  0  0
   63.2113   34.3163   51.1073 H   0  0  0  0  0  0  0  0  0  0  0  0
   60.9198   34.6458   50.1703 H   0  0  0  0  0  0  0  0  0  0  0  0
  1  2  1  0
  2  3  1  0
  3  4  2  0
  3  5  1  0
  5  6  1  0
  6  7  2  0
  7  8  1  0
  8  9  1  0
  9 10  2  0
 10 11  1  0
 11 12  1  0
 11 13  2  0
 13 14  1  0
 14 15  2  0
  2 16  1  0
 16 17  2  0
 17 18  1  0
 18 19  2  0
 19 20  1  0
 20 21  2  0
 21 22  1  0
 22 23  1  0
 23 24  1  0
 23 25  2  0
 22 26  2  0
 26 27  1  0
 27 28  2  0
 28 29  1  0
 29 30  1  0
 30 31  1  0
 31 32  2  0
 32 33  1  0
 33 34  2  0
 34 35  1  0
 35 36  2  0
 19 37  1  0
 15  6  1  0
 37 16  1  0
 15  9  1  0
 28 20  1  0
 36 31  1  0
  1 38  1  0
  1 39  1  0
  1 40  1  0
  5 41  1  0
  5 42  1  0
  7 43  1  0
 10 44  1  0
 12 45  1  0
 13 46  1  0
 14 47  1  0
 21 48  1  0
 24 49  1  0
 26 50  1  0
 27 51  1  0
 30 52  1  0
 30 53  1  0
 32 54  1  0
 33 55  1  0
 34 56  1  0
 35 57  1  0
 36 58  1  0
M  CHG  1  24  -1
M  END
>  <UniqueID>  (73) 
60

>  <SMILES>  (73) 
CN(C(=O)Cc1coc2cc(O)ccc12)c1nnc(-c2cc(C([NH-])=O)ccc2OCc2ccccc2)s1

>  <Energy>  (73) 
138.75788640853528

>  <Genealogy>  (73) 
CN(C(=O)Cc1coc2cc(O)ccc12)c1nnc(-c2cc(C([NH-])=O)ccc2OCc2ccccc2)s1 (protonated)
CN(C(=O)Cc1coc2cc(O)ccc12)c1nnc(-c2cc(C([NH-])=O)ccc2OCc2ccccc2)s1 (3D coordinates assigned)
CN(C(=O)Cc1coc2cc(O)ccc12)c1nnc(-c2cc(C([NH-])=O)ccc2OCc2ccccc2)s1 (optimized conformer: 138.75788640853528 kcal/mol)

>  <smiles>  (73) 
CN(C(=O)Cc1coc2cc(O)ccc12)c1nnc(-c2cc(C(N)=O)ccc2OCc2ccccc2)s1

>  <score_type>  (73) 
oracle

>  <origin>  (73) 
adg

>  <m_score__min__energy>  (73) 
-12.279999999999999

>  <m_primary>  (73) 
energy

$$$$
73:0
     RDKit          3D

 37 39  0  0  0  0  0  0  0  0999 V2000
   59.8650   35.2970   47.1580 C   0  0  0  0  0  0  0  0  0  0  0  0
   59.2320   34.0670   46.5810 C   0  0  0  0  0  0  0  0  0  0  0  0
   59.0960   32.9000   47.3730 C   0  0  0  0  0  0  0  0  0  0  0  0
   58.5330   31.7300   46.8360 C   0  0  0  0  0  0  0  0  0  0  0  0
   58.1410   31.7440   45.4950 C   0  0  0  0  0  0  0  0  0  0  0  0
   57.5370   30.7800   44.6990 C   0  0  0  0  0  0  0  0  0  0  0  0
   57.1510   29.4010   45.0660 C   0  0  0  0  0  0  0  0  0  0  0  0
   55.9280   29.1130   45.1620 O   0  0  0  0  0  0  0  0  0  0  0  0
   58.1560   28.3400   45.2830 C   0  0  0  0  0  0  0  0  0  0  0  0
   59.1200   28.2190   44.4820 O   0  0  0  0  0  0  0  0  0  0  0  0
   57.9650   27.3390   46.2920 N   0  0  0  0  0  0  0  0  0  0  0  0
   57.5360   26.1130   46.1580 C   0  0  0  0  0  0  0  0  0  0  0  0
   58.4580   25.1140   46.2220 N   0  0  0  0  0  0  0  0  0  0  0  0
   58.1310   23.8020   46.0870 C   0  0  0  0  0  0  0  0  0  0  0  0
   56.8050   23.4330   45.8750 C   0  0  0  0  0  0  0  0  0  0  0  0
   55.8240   24.4200   45.8260 C   0  0  0  0  0  0  0  0  0  0  0  0
   56.1680   25.7700   45.9860 C   0  0  0  0  0  0  0  0  0  0  0  0
   55.1580   26.7290   46.0090 O   0  0  0  0  0  0  0  0  0  0  0  0
   57.3210   31.4060   43.4680 C   0  0  0  0  0  0  0  0  0  0  0  0
   56.6590   30.7930   42.2750 C   0  0  0  0  0  0  0  0  0  0  0  0
   57.7710   32.6830   43.4940 N   0  0  0  0  0  0  0  0  0  0  0  0
   58.2670   32.8750   44.7270 C   0  0  0  0  0  0  0  0  0  0  0  0
   58.8170   34.0510   45.2330 C   0  0  0  0  0  0  0  0  0  0  0  0
   59.8372   35.2429   48.2563 H   0  0  0  0  0  0  0  0  0  0  0  0
   60.9098   35.3644   46.8206 H   0  0  0  0  0  0  0  0  0  0  0  0
   59.3126   36.1864   46.8206 H   0  0  0  0  0  0  0  0  0  0  0  0
   59.4348   32.9101   48.4195 H   0  0  0  0  0  0  0  0  0  0  0  0
   58.4045   30.8289   47.4536 H   0  0  0  0  0  0  0  0  0  0  0  0
   58.9137   23.0313   46.1452 H   0  0  0  0  0  0  0  0  0  0  0  0
   56.5357   22.3741   45.7477 H   0  0  0  0  0  0  0  0  0  0  0  0
   54.7734   24.1392   45.6609 H   0  0  0  0  0  0  0  0  0  0  0  0
   55.1520   27.5160   45.3700 H   0  0  0  0  0  0  0  0  0  0  0  0
   55.8898   30.0807   42.6081 H   0  0  0  0  0  0  0  0  0  0  0  0
   56.1900   31.5827   41.6698 H   0  0  0  0  0  0  0  0  0  0  0  0
   57.4104   30.2647   41.6698 H   0  0  0  0  0  0  0  0  0  0  0  0
   57.7270   33.3810   42.7180 H   0  0  0  0  0  0  0  0  0  0  0  0
   58.9247   34.9429   44.5983 H   0  0  0  0  0  0  0  0  0  0  0  0
  1  2  1  0
  2  3  2  0
  3  4  1  0
  4  5  2  0
  5  6  1  0
  6  7  1  0
  7  8  2  0
  7  9  1  0
  9 10  2  0
  9 11  1  0
 11 12  2  3
 12 13  1  0
 13 14  1  0
 14 15  2  0
 15 16  1  0
 16 17  2  0
 17 18  1  0
  6 19  2  0
 19 20  1  0
 19 21  1  0
 21 22  1  0
 22 23  2  0
 23  2  1  0
 22  5  1  0
 17 12  1  0
  1 24  1  0
  1 25  1  0
  1 26  1  0
  3 27  1  0
  4 28  1  0
 14 29  1  0
 15 30  1  0
 16 31  1  0
 18 32  1  0
 20 33  1  0
 20 34  1  0
 20 35  1  0
 21 36  1  0
 23 37  1  0
M  CHG  1  13  -1
M  END
>  <UniqueID>  (74) 
61

>  <SMILES>  (74) 
Cc1ccc2c(C(=O)C(=O)N=c3[n-]cccc3O)c(C)[nH]c2c1

>  <Energy>  (74) 
87.21241236874467

>  <Genealogy>  (74) 
Cc1ccc2c(C(=O)C(=O)N=c3[n-]cccc3O)c(C)[nH]c2c1 (protonated)
Cc1ccc2c(C(=O)C(=O)N=c3[n-]cccc3O)c(C)[nH]c2c1 (3D coordinates assigned)
Cc1ccc2c(C(=O)C(=O)N=c3[n-]cccc3O)c(C)[nH]c2c1 (optimized conformer: 87.21241236874467 kcal/mol)

>  <smiles>  (74) 
Cc1ccc2c(C(=O)C(=O)N=c3[nH]cccc3O)c(C)[nH]c2c1

>  <score_type>  (74) 
oracle

>  <origin>  (74) 
adg

>  <m_score__min__energy>  (74) 
-10.49

>  <m_primary>  (74) 
energy

$$$$
74:0
     RDKit          3D

 36 38  0  0  0  0  0  0  0  0999 V2000
   54.0930   26.7210   46.7630 H   0  0  0  0  0  0  0  0  0  0  0  0
   54.7790   26.4560   46.0670 O   0  0  0  0  0  0  0  0  0  0  0  0
   55.9030   25.7000   46.3920 C   0  0  0  0  0  0  0  0  0  0  0  0
   55.8300   24.4800   46.9500 N   0  0  0  0  0  0  0  0  0  0  0  0
   57.1270   24.1340   47.0830 C   0  0  0  0  0  0  0  0  0  0  0  0
   57.4880   23.0340   47.5760 O   0  0  0  0  0  0  0  0  0  0  0  0
   58.0060   25.0570   46.6410 N   0  0  0  0  0  0  0  0  0  0  0  0
   57.2240   26.0620   46.2100 C   0  0  0  0  0  0  0  0  0  0  0  0
   57.7080   27.3000   45.5590 C   0  0  0  0  0  0  0  0  0  0  0  0
   57.7198   27.3256   44.4594 H   0  0  0  0  0  0  0  0  0  0  0  0
   58.1360   28.4000   46.2140 C   0  0  0  0  0  0  0  0  0  0  0  0
   58.4970   28.4890   47.5550 C   0  0  0  0  0  0  0  0  0  0  0  0
   58.5066   27.6690   48.2882 H   0  0  0  0  0  0  0  0  0  0  0  0
   58.8410   29.8070   47.7870 C   0  0  0  0  0  0  0  0  0  0  0  0
   59.2550   30.3660   49.1130 C   0  0  0  0  0  0  0  0  0  0  0  0
   58.8098   29.7649   49.9195 H   0  0  0  0  0  0  0  0  0  0  0  0
   60.3514   30.3374   49.1968 H   0  0  0  0  0  0  0  0  0  0  0  0
   58.9079   31.4064   49.1968 H   0  0  0  0  0  0  0  0  0  0  0  0
   58.7000   30.5340   46.6600 N   0  0  0  0  0  0  0  0  0  0  0  0
   58.9430   31.9450   46.5420 C   0  0  0  0  0  0  0  0  0  0  0  0
   60.2270   32.4840   46.7580 C   0  0  0  0  0  0  0  0  0  0  0  0
   61.3860   31.6070   47.1190 C   0  0  0  0  0  0  0  0  0  0  0  0
   61.4704   31.5431   48.2139 H   0  0  0  0  0  0  0  0  0  0  0  0
   61.2275   30.6006   46.7041 H   0  0  0  0  0  0  0  0  0  0  0  0
   62.3114   32.0331   46.7041 H   0  0  0  0  0  0  0  0  0  0  0  0
   60.4210   33.8260   46.6320 N   0  0  0  0  0  0  0  0  0  0  0  0
   59.4090   34.6740   46.3100 C   0  0  0  0  0  0  0  0  0  0  0  0
   59.6047   35.7524   46.2163 H   0  0  0  0  0  0  0  0  0  0  0  0
   58.1210   34.1780   46.0980 C   0  0  0  0  0  0  0  0  0  0  0  0
   57.2977   34.8604   45.8401 H   0  0  0  0  0  0  0  0  0  0  0  0
   57.8900   32.8070   46.2170 C   0  0  0  0  0  0  0  0  0  0  0  0
   56.8795   32.4037   46.0552 H   0  0  0  0  0  0  0  0  0  0  0  0
   58.2670   29.6930   45.6910 C   0  0  0  0  0  0  0  0  0  0  0  0
   58.0050   30.0810   44.4330 C   0  0  0  0  0  0  0  0  0  0  0  0
   58.1477   31.1317   44.1405 H   0  0  0  0  0  0  0  0  0  0  0  0
   57.6476   29.3482   43.6946 H   0  0  0  0  0  0  0  0  0  0  0  0
  1  2  1  0
  2  3  1  0
  3  4  1  0
  4  5  1  0
  5  6  2  0
  5  7  1  0
  7  8  1  0
  8  9  1  0
  9 10  1  0
  9 11  2  0
 11 12  1  0
 12 13  1  0
 12 14  2  0
 14 15  1  0
 15 16  1  0
 15 17  1  0
 15 18  1  0
 14 19  1  0
 19 20  1  0
 20 21  2  0
 21 22  1  0
 22 23  1  0
 22 24  1  0
 22 25  1  0
 21 26  1  0
 26 27  2  0
 27 28  1  0
 27 29  1  0
 29 30  1  0
 29 31  2  0
 31 32  1  0
 19 33  1  0
 33 34  2  0
 34 35  1  0
 34 36  1  0
  8  3  2  0
 33 11  1  0
 31 20  1  0
M  CHG  2   4  -1   7  -1
M  END
>  <UniqueID>  (75) 
62

>  <SMILES>  (75) 
C=c1/c(=C/c2[n-]c(=O)[n-]c2O)cc(C)n1-c1cccnc1C

>  <Energy>  (75) 
106.15588250848897

>  <Genealogy>  (75) 
C=c1c(=Cc2[n-]c(=O)[n-]c2O)cc(C)n1-c1cccnc1C (protonated)
C=c1/c(=C/c2[n-]c(=O)[n-]c2O)cc(C)n1-c1cccnc1C (cis-trans isomerization)
C=c1/c(=C/c2[n-]c(=O)[n-]c2O)cc(C)n1-c1cccnc1C (3D coordinates assigned)
C=c1/c(=C/c2[n-]c(=O)[n-]c2O)cc(C)n1-c1cccnc1C (optimized conformer: 106.15588250848897 kcal/mol)

>  <smiles>  (75) 
C=c1c(=Cc2[nH]c(=O)[nH]c2O)cc(C)n1-c1cccnc1C

>  <score_type>  (75) 
oracle

>  <origin>  (75) 
adg

>  <m_score__min__energy>  (75) 
-12.57

>  <m_primary>  (75) 
energy

$$$$
75:0
     RDKit          3D

 33 35  0  0  0  0  0  0  0  0999 V2000
   57.8200   25.7010   46.7560 O   0  0  0  0  0  0  0  0  0  0  0  0
   57.4700   26.7350   46.1270 C   0  0  0  0  0  0  0  0  0  0  0  0
   58.3520   27.5550   45.5150 N   0  0  0  0  0  0  0  0  0  0  0  0
   57.5690   28.5170   44.9820 C   0  0  0  0  0  0  0  0  0  0  0  0
   58.0780   29.6310   44.1220 C   0  0  0  0  0  0  0  0  0  0  0  0
   58.0670   30.9200   44.8950 C   0  0  0  0  0  0  0  0  0  0  0  0
   57.3660   32.0350   44.4080 C   0  0  0  0  0  0  0  0  0  0  0  0
   57.2970   33.2090   45.1640 C   0  0  0  0  0  0  0  0  0  0  0  0
   57.9100   33.2720   46.4180 C   0  0  0  0  0  0  0  0  0  0  0  0
   58.6000   32.1610   46.9170 C   0  0  0  0  0  0  0  0  0  0  0  0
   59.3370   32.2190   48.5500 S   0  0  0  0  0  0  0  0  0  0  0  0
   60.9660   32.5730   47.8900 C   0  0  0  0  0  0  0  0  0  0  0  0
   61.1270   33.5650   46.9140 C   0  0  0  0  0  0  0  0  0  0  0  0
   62.3940   33.8260   46.3820 C   0  0  0  0  0  0  0  0  0  0  0  0
   63.5030   33.1000   46.8300 C   0  0  0  0  0  0  0  0  0  0  0  0
   63.3450   32.1140   47.8090 C   0  0  0  0  0  0  0  0  0  0  0  0
   62.0790   31.8500   48.3390 C   0  0  0  0  0  0  0  0  0  0  0  0
   58.6860   30.9910   46.1530 C   0  0  0  0  0  0  0  0  0  0  0  0
   56.2510   28.2380   45.2700 C   0  0  0  0  0  0  0  0  0  0  0  0
   55.1450   28.9780   44.8700 O   0  0  0  0  0  0  0  0  0  0  0  0
   56.1840   27.1180   46.0000 N   0  0  0  0  0  0  0  0  0  0  0  0
   59.1065   29.4053   43.8037 H   0  0  0  0  0  0  0  0  0  0  0  0
   57.4294   29.7325   43.2394 H   0  0  0  0  0  0  0  0  0  0  0  0
   56.8692   31.9845   43.4279 H   0  0  0  0  0  0  0  0  0  0  0  0
   56.7593   34.0844   44.7710 H   0  0  0  0  0  0  0  0  0  0  0  0
   57.8504   34.1950   47.0134 H   0  0  0  0  0  0  0  0  0  0  0  0
   60.2559   34.1394   46.5656 H   0  0  0  0  0  0  0  0  0  0  0  0
   62.5185   34.6015   45.6119 H   0  0  0  0  0  0  0  0  0  0  0  0
   64.4996   33.3049   46.4119 H   0  0  0  0  0  0  0  0  0  0  0  0
   64.2180   31.5456   48.1623 H   0  0  0  0  0  0  0  0  0  0  0  0
   61.9563   31.0742   49.1091 H   0  0  0  0  0  0  0  0  0  0  0  0
   59.2409   30.1237   46.5401 H   0  0  0  0  0  0  0  0  0  0  0  0
   55.3310   26.6450   46.3730 H   0  0  0  0  0  0  0  0  0  0  0  0
  1  2  2  0
  2  3  1  0
  3  4  1  0
  4  5  1  0
  5  6  1  0
  6  7  2  0
  7  8  1  0
  8  9  2  0
  9 10  1  0
 10 11  1  0
 11 12  1  0
 12 13  2  0
 13 14  1  0
 14 15  2  0
 15 16  1  0
 16 17  2  0
 10 18  2  0
  4 19  2  0
 19 20  1  0
 19 21  1  0
 21  2  1  0
 18  6  1  0
 17 12  1  0
  5 22  1  0
  5 23  1  0
  7 24  1  0
  8 25  1  0
  9 26  1  0
 13 27  1  0
 14 28  1  0
 15 29  1  0
 16 30  1  0
 17 31  1  0
 18 32  1  0
 21 33  1  0
M  CHG  2   3  -1  20  -1
M  END
>  <UniqueID>  (76) 
63

>  <SMILES>  (76) 
O=c1[n-]c(Cc2cccc(Sc3ccccc3)c2)c([O-])[nH]1

>  <Energy>  (76) 
59.38285232546722

>  <Genealogy>  (76) 
O=c1[n-]c(Cc2cccc(Sc3ccccc3)c2)c([O-])[nH]1 (protonated)
O=c1[n-]c(Cc2cccc(Sc3ccccc3)c2)c([O-])[nH]1 (3D coordinates assigned)
O=c1[n-]c(Cc2cccc(Sc3ccccc3)c2)c([O-])[nH]1 (optimized conformer: 59.38285232546722 kcal/mol)

>  <smiles>  (76) 
O=c1[nH]c(O)c(Cc2cccc(Sc3ccccc3)c2)[nH]1

>  <score_type>  (76) 
oracle

>  <origin>  (76) 
adg

>  <m_score__min__energy>  (76) 
-13.300000000000001

>  <m_primary>  (76) 
energy

$$$$
76:0
     RDKit          3D

 53 56  0  0  1  0  0  0  0  0999 V2000
   56.6540   27.1040   45.6560 C   0  0  0  0  0  0  0  0  0  0  0  0
   55.9020   28.2110   45.2550 O   0  0  0  0  0  0  0  0  0  0  0  0
   56.4840   29.2730   44.5990 C   0  0  0  0  0  0  0  0  0  0  0  0
   55.9550   29.8530   43.4630 C   0  0  0  0  0  0  0  0  0  0  0  0
   56.8260   30.8600   43.1250 C   0  0  0  0  0  0  0  0  0  0  0  0
   57.8110   30.8750   44.0100 N   0  0  0  0  0  0  0  0  0  0  0  0
   57.6410   29.8950   44.9560 C   0  0  0  0  0  0  0  0  0  0  0  0
   58.6130   29.7340   46.0480 C   0  0  0  0  0  0  0  0  0  0  0  0
   58.9890   30.9010   46.7680 N   0  0  0  0  0  0  0  0  0  0  0  0
   58.9730   31.1580   48.1420 C   0  0  0  0  0  0  0  0  0  0  0  0
   58.6080   30.2570   48.9400 O   0  0  0  0  0  0  0  0  0  0  0  0
   59.3640   32.4280   48.7630 C   0  0  0  0  0  0  0  0  0  0  0  0
   59.3320   33.7020   48.2750 C   0  0  0  0  0  0  0  0  0  0  0  0
   58.7340   34.2510   47.0300 C   0  0  0  0  0  0  0  0  0  0  0  0
   59.8300   34.0440   45.9640 C   0  0  0  0  0  0  0  0  0  0  0  0
   59.2380   34.4530   44.6570 C   0  0  0  0  0  0  0  0  0  0  0  0
   58.0500   33.7400   44.2810 N   0  0  0  0  0  0  0  0  0  0  0  0
   57.0220   33.7210   45.2820 C   0  0  0  0  0  0  0  0  0  0  0  0
   57.5350   33.4640   46.6720 C   0  0  0  0  0  0  0  0  0  0  0  0
   59.9030   34.5430   49.1930 N   0  0  0  0  0  0  0  0  0  0  0  0
   60.2770   33.8350   50.2190 N   0  0  0  0  0  0  0  0  0  0  0  0
   59.9680   32.5260   50.0070 C   0  0  0  0  0  0  0  0  0  0  0  0
   60.2810   31.5080   50.9880 C   0  0  0  0  0  0  0  0  0  0  0  0
   61.1930   30.6570   50.8690 O   0  0  0  0  0  0  0  0  0  0  0  0
   59.4810   31.4910   52.1710 N   0  0  0  0  0  0  0  0  0  0  0  0
   58.2370   31.1620   52.1060 C   0  0  0  0  0  0  0  0  0  0  0  0
   57.1940   31.8220   52.6930 C   0  0  0  0  0  0  0  0  0  0  0  0
   56.0140   31.1380   52.3730 C   0  0  0  0  0  0  0  0  0  0  0  0
   56.4020   30.1270   51.6280 O   0  0  0  0  0  0  0  0  0  0  0  0
   57.6750   30.1070   51.4520 N   0  0  0  0  0  0  0  0  0  0  0  0
   56.6841   27.0597   46.7547 H   0  0  0  0  0  0  0  0  0  0  0  0
   56.1921   26.1857   45.2645 H   0  0  0  0  0  0  0  0  0  0  0  0
   57.6779   27.1950   45.2645 H   0  0  0  0  0  0  0  0  0  0  0  0
   55.0306   29.5685   42.9390 H   0  0  0  0  0  0  0  0  0  0  0  0
   56.7228   31.5385   42.2654 H   0  0  0  0  0  0  0  0  0  0  0  0
   58.6160   31.5660   43.9640 H   0  0  0  0  0  0  0  0  0  0  0  0
   58.1826   29.0251   46.7706 H   0  0  0  0  0  0  0  0  0  0  0  0
   59.5370   29.3988   45.5543 H   0  0  0  0  0  0  0  0  0  0  0  0
   59.3710   31.7100   46.1650 H   0  0  0  0  0  0  0  0  0  0  0  0
   58.4277   35.3030   47.1269 H   0  0  0  0  0  0  0  0  0  0  0  0
   60.7064   34.6673   46.1951 H   0  0  0  0  0  0  0  0  0  0  0  0
   60.1636   32.9962   45.9372 H   0  0  0  0  0  0  0  0  0  0  0  0
   58.9903   35.5232   44.7142 H   0  0  0  0  0  0  0  0  0  0  0  0
   59.9923   34.2205   43.8909 H   0  0  0  0  0  0  0  0  0  0  0  0
   58.2440   32.8010   43.8690 H   0  0  0  0  0  0  0  0  0  0  0  0
   56.5125   34.6959   45.2748 H   0  0  0  0  0  0  0  0  0  0  0  0
   56.3450   32.8911   45.0311 H   0  0  0  0  0  0  0  0  0  0  0  0
   56.7351   33.7098   47.3860 H   0  0  0  0  0  0  0  0  0  0  0  0
   57.8290   32.4047   46.7098 H   0  0  0  0  0  0  0  0  0  0  0  0
   60.7520   34.2420   51.0790 H   0  0  0  0  0  0  0  0  0  0  0  0
   57.2681   32.7306   53.3086 H   0  0  0  0  0  0  0  0  0  0  0  0
   54.9880   31.3914   52.6782 H   0  0  0  0  0  0  0  0  0  0  0  0
   58.2960   29.4450   50.9160 H   0  0  0  0  0  0  0  0  0  0  0  0
  1  2  1  0
  2  3  1  0
  3  4  1  0
  4  5  2  0
  5  6  1  0
  6  7  1  0
  7  8  1  0
  8  9  1  0
  9 10  1  0
 10 11  2  0
 10 12  1  0
 12 13  1  0
 13 14  1  0
 14 15  1  0
 15 16  1  0
 16 17  1  0
 17 18  1  0
 18 19  1  0
 13 20  2  0
 20 21  1  0
 21 22  1  0
 22 23  1  0
 23 24  2  0
 23 25  1  0
 25 26  2  0
 26 27  1  0
 27 28  2  0
 28 29  1  0
 29 30  1  0
  7  3  2  0
 22 12  2  0
 30 26  1  0
 19 14  1  0
  1 31  1  0
  1 32  1  0
  1 33  1  0
  4 34  1  0
  5 35  1  0
  6 36  1  0
  8 37  1  0
  8 38  1  0
  9 39  1  0
 14 40  1  0
 15 41  1  0
 15 42  1  0
 16 43  1  0
 16 44  1  0
 17 45  1  0
 18 46  1  0
 18 47  1  0
 19 48  1  0
 19 49  1  0
 21 50  1  0
 27 51  1  0
 28 52  1  0
 30 53  1  0
M  END
>  <smiles>  (77) 
COc1cc[nH]c1CNC(=O)c1c(C2CCNCC2)n[nH]c1C(=O)N=c1cco[nH]1

>  <score_type>  (77) 
oracle

>  <origin>  (77) 
adg

>  <m_score__min__energy>  (77) 
-9.4399999999999995

>  <m_primary>  (77) 
energy

$$$$
77:0
     RDKit          3D

 45 47  0  0  0  0  0  0  0  0999 V2000
   59.5830   28.2300   44.6140 C   0  0  0  0  0  0  0  0  0  0  0  0
   59.3070   28.3720   45.9210 C   0  0  0  0  0  0  0  0  0  0  0  0
   58.6910   27.4240   46.7580 C   0  0  0  0  0  0  0  0  0  0  0  0
   58.3640   26.1320   46.5480 C   0  0  0  0  0  0  0  0  0  0  0  0
   57.0010   25.6140   46.3210 C   0  0  0  0  0  0  0  0  0  0  0  0
   55.9630   26.4670   45.8940 C   0  0  0  0  0  0  0  0  0  0  0  0
   56.1870   27.8150   45.6130 O   0  0  0  0  0  0  0  0  0  0  0  0
   54.7080   25.9690   45.7390 N   0  0  0  0  0  0  0  0  0  0  0  0
   54.4270   24.6670   45.9980 C   0  0  0  0  0  0  0  0  0  0  0  0
   53.2570   24.2340   45.8410 O   0  0  0  0  0  0  0  0  0  0  0  0
   55.4070   23.8320   46.4300 N   0  0  0  0  0  0  0  0  0  0  0  0
   56.6780   24.2760   46.6050 C   0  0  0  0  0  0  0  0  0  0  0  0
   57.5570   23.4770   47.0260 O   0  0  0  0  0  0  0  0  0  0  0  0
   58.4790   28.0530   47.9690 C   0  0  0  0  0  0  0  0  0  0  0  0
   58.9970   29.3240   47.8580 C   0  0  0  0  0  0  0  0  0  0  0  0
   59.0480   30.3100   48.9870 C   0  0  0  0  0  0  0  0  0  0  0  0
   59.5090   29.5260   46.6200 N   0  0  0  0  0  0  0  0  0  0  0  0
   60.1890   30.7550   46.1770 C   0  0  0  0  0  0  0  0  0  0  0  0
   59.2070   31.9010   46.0780 C   0  0  0  0  0  0  0  0  0  0  0  0
   59.3760   33.0220   46.9100 C   0  0  0  0  0  0  0  0  0  0  0  0
   58.4790   34.0890   46.8540 C   0  0  0  0  0  0  0  0  0  0  0  0
   57.4010   34.0500   45.9720 C   0  0  0  0  0  0  0  0  0  0  0  0
   57.2220   32.9480   45.1330 C   0  0  0  0  0  0  0  0  0  0  0  0
   58.1300   31.8710   45.1640 C   0  0  0  0  0  0  0  0  0  0  0  0
   57.9620   30.7500   44.3360 O   0  0  0  0  0  0  0  0  0  0  0  0
   56.7470   30.0990   44.0810 C   0  0  0  0  0  0  0  0  0  0  0  0
   56.5150   29.4930   42.7400 C   0  0  0  0  0  0  0  0  0  0  0  0
   55.8140   30.1060   44.9310 O   0  0  0  0  0  0  0  0  0  0  0  0
   60.0704   29.0477   44.0628 H   0  0  0  0  0  0  0  0  0  0  0  0
   59.3216   27.2960   44.0950 H   0  0  0  0  0  0  0  0  0  0  0  0
   59.1855   25.4005   46.5458 H   0  0  0  0  0  0  0  0  0  0  0  0
   56.3520   28.5050   46.3350 H   0  0  0  0  0  0  0  0  0  0  0  0
   57.9894   27.6208   48.8541 H   0  0  0  0  0  0  0  0  0  0  0  0
   59.0201   29.7714   49.9457 H   0  0  0  0  0  0  0  0  0  0  0  0
   59.9776   30.8945   48.9217 H   0  0  0  0  0  0  0  0  0  0  0  0
   58.1837   30.9873   48.9217 H   0  0  0  0  0  0  0  0  0  0  0  0
   60.9752   31.0142   46.9014 H   0  0  0  0  0  0  0  0  0  0  0  0
   60.6291   30.5785   45.1844 H   0  0  0  0  0  0  0  0  0  0  0  0
   60.2229   33.0579   47.6111 H   0  0  0  0  0  0  0  0  0  0  0  0
   58.6230   34.9624   47.5071 H   0  0  0  0  0  0  0  0  0  0  0  0
   56.6899   34.8885   45.9365 H   0  0  0  0  0  0  0  0  0  0  0  0
   56.3659   32.9206   44.4429 H   0  0  0  0  0  0  0  0  0  0  0  0
   56.1241   28.4720   42.8617 H   0  0  0  0  0  0  0  0  0  0  0  0
   55.7860   30.1009   42.1841 H   0  0  0  0  0  0  0  0  0  0  0  0
   57.4636   29.4586   42.1841 H   0  0  0  0  0  0  0  0  0  0  0  0
  1  2  2  0
  2  3  1  0
  3  4  2  3
  4  5  1  0
  5  6  2  0
  6  7  1  0
  6  8  1  0
  8  9  1  0
  9 10  2  0
  9 11  1  0
 11 12  1  0
 12 13  2  0
  3 14  1  0
 14 15  2  0
 15 16  1  0
 15 17  1  0
 17 18  1  0
 18 19  1  0
 19 20  2  0
 20 21  1  0
 21 22  2  0
 22 23  1  0
 23 24  2  0
 24 25  1  0
 25 26  1  0
 26 27  1  0
 26 28  2  0
 17  2  1  0
 24 19  1  0
 12  5  1  0
  1 29  1  0
  1 30  1  0
  4 31  1  0
  7 32  1  0
 14 33  1  0
 16 34  1  0
 16 35  1  0
 16 36  1  0
 18 37  1  0
 18 38  1  0
 20 39  1  0
 21 40  1  0
 22 41  1  0
 23 42  1  0
 27 43  1  0
 27 44  1  0
 27 45  1  0
M  CHG  2   8  -1  11  -1
M  END
>  <UniqueID>  (78) 
64

>  <SMILES>  (78) 
C=c1c(=Cc2c(O)[n-]c(=O)[n-]c2=O)cc(C)n1Cc1ccccc1OC(C)=O

>  <Energy>  (78) 
93.6213709519297

>  <Genealogy>  (78) 
C=c1c(=Cc2c(O)[n-]c(=O)[n-]c2=O)cc(C)n1Cc1ccccc1OC(C)=O (protonated)
C=c1c(=Cc2c(O)[n-]c(=O)[n-]c2=O)cc(C)n1Cc1ccccc1OC(C)=O (3D coordinates assigned)
C=c1c(=Cc2c(O)[n-]c(=O)[n-]c2=O)cc(C)n1Cc1ccccc1OC(C)=O (optimized conformer: 93.6213709519297 kcal/mol)

>  <smiles>  (78) 
C=c1c(=Cc2c(O)[nH]c(=O)[nH]c2=O)cc(C)n1Cc1ccccc1OC(C)=O

>  <score_type>  (78) 
oracle

>  <origin>  (78) 
adg

>  <m_score__min__energy>  (78) 
-13.130000000000001

>  <m_primary>  (78) 
energy

$$$$
78:0
     RDKit          3D

 37 38  0  0  0  0  0  0  0  0999 V2000
   55.6660   28.9840   44.8670 O   0  0  0  0  0  0  0  0  0  0  0  0
   56.6420   28.5680   45.5480 C   0  0  0  0  0  0  0  0  0  0  0  0
   56.9140   27.0980   45.6240 C   0  0  0  0  0  0  0  0  0  0  0  0
   55.7890   26.3670   46.2010 N   0  0  0  0  0  0  0  0  0  0  0  0
   55.1080   25.2420   45.6240 C   0  0  0  0  0  0  0  0  0  0  0  0
   53.8490   25.2440   45.6030 O   0  0  0  0  0  0  0  0  0  0  0  0
   55.8310   24.1070   45.0170 C   0  0  0  0  0  0  0  0  0  0  0  0
   55.9410   24.0410   43.6180 C   0  0  0  0  0  0  0  0  0  0  0  0
   56.6440   23.0010   43.0080 C   0  0  0  0  0  0  0  0  0  0  0  0
   57.2680   22.0290   43.7880 C   0  0  0  0  0  0  0  0  0  0  0  0
   57.1990   22.0970   45.1790 C   0  0  0  0  0  0  0  0  0  0  0  0
   56.4830   23.1290   45.8150 C   0  0  0  0  0  0  0  0  0  0  0  0
   56.4270   23.1620   47.2550 N   0  0  0  0  0  0  0  0  0  0  0  0
   57.3560   22.6720   47.9300 O   0  0  0  0  0  0  0  0  0  0  0  0
   55.3060   23.6190   47.9100 O   0  0  0  0  0  0  0  0  0  0  0  0
   57.5160   29.4940   46.2020 N   0  0  0  0  0  0  0  0  0  0  0  0
   58.6570   30.1270   45.5470 C   0  0  0  0  0  0  0  0  0  0  0  0
   58.5450   31.6290   45.6140 C   0  0  0  0  0  0  0  0  0  0  0  0
   59.6470   32.3790   46.0580 C   0  0  0  0  0  0  0  0  0  0  0  0
   59.5730   33.7720   46.1350 C   0  0  0  0  0  0  0  0  0  0  0  0
   58.3940   34.4300   45.7800 C   0  0  0  0  0  0  0  0  0  0  0  0
   57.2910   33.6970   45.3390 C   0  0  0  0  0  0  0  0  0  0  0  0
   57.3580   32.2980   45.2490 C   0  0  0  0  0  0  0  0  0  0  0  0
   56.2530   31.5810   44.7910 O   0  0  0  0  0  0  0  0  0  0  0  0
   57.1026   26.7179   44.6091 H   0  0  0  0  0  0  0  0  0  0  0  0
   57.7893   26.9455   46.2725 H   0  0  0  0  0  0  0  0  0  0  0  0
   55.4685   24.8165   42.9973 H   0  0  0  0  0  0  0  0  0  0  0  0
   56.7056   22.9484   41.9110 H   0  0  0  0  0  0  0  0  0  0  0  0
   57.8161   21.2065   43.3052 H   0  0  0  0  0  0  0  0  0  0  0  0
   57.7099   21.3355   45.7865 H   0  0  0  0  0  0  0  0  0  0  0  0
   59.5828   29.8113   46.0501 H   0  0  0  0  0  0  0  0  0  0  0  0
   58.6727   29.8206   44.4906 H   0  0  0  0  0  0  0  0  0  0  0  0
   60.5756   31.8652   46.3473 H   0  0  0  0  0  0  0  0  0  0  0  0
   60.4443   34.3507   46.4756 H   0  0  0  0  0  0  0  0  0  0  0  0
   58.3343   35.5263   45.8478 H   0  0  0  0  0  0  0  0  0  0  0  0
   56.3637   34.2190   45.0603 H   0  0  0  0  0  0  0  0  0  0  0  0
   55.9550   30.7220   45.2390 H   0  0  0  0  0  0  0  0  0  0  0  0
  1  2  2  0
  2  3  1  0
  3  4  1  0
  4  5  1  0
  5  6  2  0
  5  7  1  0
  7  8  2  0
  8  9  1  0
  9 10  2  0
 10 11  1  0
 11 12  2  0
 12 13  1  0
 13 14  2  0
 13 15  1  0
  2 16  1  0
 16 17  1  0
 17 18  1  0
 18 19  2  0
 19 20  1  0
 20 21  2  0
 21 22  1  0
 22 23  2  0
 23 24  1  0
 12  7  1  0
 23 18  1  0
  3 25  1  0
  3 26  1  0
  8 27  1  0
  9 28  1  0
 10 29  1  0
 11 30  1  0
 17 31  1  0
 17 32  1  0
 19 33  1  0
 20 34  1  0
 21 35  1  0
 22 36  1  0
 24 37  1  0
M  CHG  4   4  -1  13   1  15  -1  16  -1
M  END
>  <UniqueID>  (79) 
65

>  <SMILES>  (79) 
O=C(C[N-]C(=O)c1ccccc1[N+](=O)[O-])[N-]Cc1ccccc1O

>  <Energy>  (79) 
40.55723846646616

>  <Genealogy>  (79) 
O=C(C[N-]C(=O)c1ccccc1[N+](=O)[O-])[N-]Cc1ccccc1O (protonated)
O=C(C[N-]C(=O)c1ccccc1[N+](=O)[O-])[N-]Cc1ccccc1O (3D coordinates assigned)
O=C(C[N-]C(=O)c1ccccc1[N+](=O)[O-])[N-]Cc1ccccc1O (optimized conformer: 40.55723846646616 kcal/mol)

>  <smiles>  (79) 
O=C(CNC(=O)c1ccccc1[N+](=O)[O-])NCc1ccccc1O

>  <score_type>  (79) 
oracle

>  <origin>  (79) 
adg

>  <m_score__min__energy>  (79) 
-11.85

>  <m_primary>  (79) 
energy

$$$$
79:0
     RDKit          3D

 48 51  0  0  0  0  0  0  0  0999 V2000
   59.6710   26.1500   47.4720 O   0  0  0  0  0  0  0  0  0  0  0  0
   58.9520   27.1440   47.7620 C   0  0  0  0  0  0  0  0  0  0  0  0
   57.5500   27.1100   47.4820 N   0  0  0  0  0  0  0  0  0  0  0  0
   56.9090   26.9830   45.8780 S   0  0  0  0  0  0  0  0  0  0  0  0
   57.6070   25.8730   45.1440 O   0  0  0  0  0  0  0  0  0  0  0  0
   55.4510   26.6280   45.9700 O   0  0  0  0  0  0  0  0  0  0  0  0
   57.0600   28.5430   45.0520 C   0  0  0  0  0  0  0  0  0  0  0  0
   55.8820   29.2730   44.8190 C   0  0  0  0  0  0  0  0  0  0  0  0
   55.9270   30.5150   44.1840 C   0  0  0  0  0  0  0  0  0  0  0  0
   57.1500   31.0480   43.7770 C   0  0  0  0  0  0  0  0  0  0  0  0
   58.3310   30.3390   44.0080 C   0  0  0  0  0  0  0  0  0  0  0  0
   58.3000   29.0910   44.6450 C   0  0  0  0  0  0  0  0  0  0  0  0
   59.8400   28.2820   44.9070 Cl  0  0  0  0  0  0  0  0  0  0  0  0
   59.5590   28.3400   48.3890 C   0  0  0  0  0  0  0  0  0  0  0  0
   60.7000   28.2220   49.2040 C   0  0  0  0  0  0  0  0  0  0  0  0
   61.2690   29.3530   49.7970 C   0  0  0  0  0  0  0  0  0  0  0  0
   60.7140   30.6220   49.5820 C   0  0  0  0  0  0  0  0  0  0  0  0
   61.3030   31.8380   50.2460 C   0  0  0  0  0  0  0  0  0  0  0  0
   62.3420   32.4870   49.3700 C   0  0  0  0  0  0  0  0  0  0  0  0
   63.7070   32.5090   49.5970 C   0  0  0  0  0  0  0  0  0  0  0  0
   64.3030   33.1830   48.6410 O   0  0  0  0  0  0  0  0  0  0  0  0
   63.4020   33.6010   47.7820 C   0  0  0  0  0  0  0  0  0  0  0  0
   62.1470   33.1780   48.1820 C   0  0  0  0  0  0  0  0  0  0  0  0
   60.8840   33.4200   47.4530 C   0  0  0  0  0  0  0  0  0  0  0  0
   60.4710   32.5590   46.4210 C   0  0  0  0  0  0  0  0  0  0  0  0
   59.2840   32.8070   45.7270 C   0  0  0  0  0  0  0  0  0  0  0  0
   58.5020   33.9210   46.0500 C   0  0  0  0  0  0  0  0  0  0  0  0
   57.0110   34.2300   45.1780 Cl  0  0  0  0  0  0  0  0  0  0  0  0
   58.9140   34.7910   47.0630 C   0  0  0  0  0  0  0  0  0  0  0  0
   60.1020   34.5470   47.7580 C   0  0  0  0  0  0  0  0  0  0  0  0
   59.5700   30.7440   48.7800 C   0  0  0  0  0  0  0  0  0  0  0  0
   58.9990   29.6150   48.1850 C   0  0  0  0  0  0  0  0  0  0  0  0
   54.9141   28.8611   45.1406 H   0  0  0  0  0  0  0  0  0  0  0  0
   54.9969   31.0742   44.0043 H   0  0  0  0  0  0  0  0  0  0  0  0
   57.1844   32.0259   43.2745 H   0  0  0  0  0  0  0  0  0  0  0  0
   59.2937   30.7638   43.6872 H   0  0  0  0  0  0  0  0  0  0  0  0
   61.1478   27.2321   49.3759 H   0  0  0  0  0  0  0  0  0  0  0  0
   62.1578   29.2463   50.4363 H   0  0  0  0  0  0  0  0  0  0  0  0
   60.4995   32.5621   50.4464 H   0  0  0  0  0  0  0  0  0  0  0  0
   61.7847   31.5240   51.1837 H   0  0  0  0  0  0  0  0  0  0  0  0
   64.2153   32.0339   50.4490 H   0  0  0  0  0  0  0  0  0  0  0  0
   63.6130   34.1967   46.8816 H   0  0  0  0  0  0  0  0  0  0  0  0
   61.0858   31.6854   46.1586 H   0  0  0  0  0  0  0  0  0  0  0  0
   58.9639   32.1252   44.9254 H   0  0  0  0  0  0  0  0  0  0  0  0
   58.3020   35.6699   47.3141 H   0  0  0  0  0  0  0  0  0  0  0  0
   60.4264   35.2407   48.5477 H   0  0  0  0  0  0  0  0  0  0  0  0
   59.1191   31.7342   48.6181 H   0  0  0  0  0  0  0  0  0  0  0  0
   58.1055   29.7240   47.5528 H   0  0  0  0  0  0  0  0  0  0  0  0
  1  2  2  0
  2  3  1  0
  3  4  1  0
  4  5  2  0
  4  6  2  0
  4  7  1  0
  7  8  2  0
  8  9  1  0
  9 10  2  0
 10 11  1  0
 11 12  2  0
 12 13  1  0
  2 14  1  0
 14 15  2  0
 15 16  1  0
 16 17  2  0
 17 18  1  0
 18 19  1  0
 19 20  2  0
 20 21  1  0
 21 22  1  0
 22 23  2  0
 23 24  1  0
 24 25  2  0
 25 26  1  0
 26 27  2  0
 27 28  1  0
 27 29  1  0
 29 30  2  0
 17 31  1  0
 31 32  2  0
 12  7  1  0
 32 14  1  0
 23 19  1  0
 30 24  1  0
  8 33  1  0
  9 34  1  0
 10 35  1  0
 11 36  1  0
 15 37  1  0
 16 38  1  0
 18 39  1  0
 18 40  1  0
 20 41  1  0
 22 42  1  0
 25 43  1  0
 26 44  1  0
 29 45  1  0
 30 46  1  0
 31 47  1  0
 32 48  1  0
M  CHG  1   3  -1
M  END
>  <UniqueID>  (80) 
66

>  <SMILES>  (80) 
O=C([N-]S(=O)(=O)c1ccccc1Cl)c1ccc(Cc2cocc2-c2ccc(Cl)cc2)cc1

>  <Energy>  (80) 
89.44548423384627

>  <Genealogy>  (80) 
O=C([N-]S(=O)(=O)c1ccccc1Cl)c1ccc(Cc2cocc2-c2ccc(Cl)cc2)cc1 (protonated)
O=C([N-]S(=O)(=O)c1ccccc1Cl)c1ccc(Cc2cocc2-c2ccc(Cl)cc2)cc1 (3D coordinates assigned)
O=C([N-]S(=O)(=O)c1ccccc1Cl)c1ccc(Cc2cocc2-c2ccc(Cl)cc2)cc1 (optimized conformer: 89.44548423384627 kcal/mol)

>  <smiles>  (80) 
O=C(NS(=O)(=O)c1ccccc1Cl)c1ccc(Cc2cocc2-c2ccc(Cl)cc2)cc1

>  <score_type>  (80) 
oracle

>  <origin>  (80) 
adg

>  <m_score__min__energy>  (80) 
-11.51

>  <m_primary>  (80) 
energy

$$$$
80:0
     RDKit          3D

 45 47  0  0  0  0  0  0  0  0999 V2000
   56.2225   28.5875   44.1829 H   0  0  0  0  0  0  0  0  0  0  0  0
   56.7950   28.5100   45.1190 C   0  0  0  0  0  0  0  0  0  0  0  0
   57.1260   29.6150   45.7250 N   0  0  0  0  0  0  0  0  0  0  0  0
   58.4230   29.9770   46.2290 C   0  0  0  0  0  0  0  0  0  0  0  0
   59.5930   29.7330   45.4890 C   0  0  0  0  0  0  0  0  0  0  0  0
   59.5249   29.2724   44.4924 H   0  0  0  0  0  0  0  0  0  0  0  0
   60.8410   30.0730   46.0140 C   0  0  0  0  0  0  0  0  0  0  0  0
   61.7507   29.9005   45.4201 H   0  0  0  0  0  0  0  0  0  0  0  0
   60.9390   30.6320   47.2920 C   0  0  0  0  0  0  0  0  0  0  0  0
   62.1870   31.0040   47.7800 O   0  0  0  0  0  0  0  0  0  0  0  0
   59.7790   30.8280   48.0630 C   0  0  0  0  0  0  0  0  0  0  0  0
   59.8590   31.4030   49.4180 C   0  0  0  0  0  0  0  0  0  0  0  0
   60.3530   30.7140   50.3500 O   0  0  0  0  0  0  0  0  0  0  0  0
   59.4130   32.7340   49.6990 N   0  0  0  0  0  0  0  0  0  0  0  0
   59.8510   33.9150   48.9650 C   0  0  0  0  0  0  0  0  0  0  0  0
   59.5294   34.8204   49.5006 H   0  0  0  0  0  0  0  0  0  0  0  0
   60.9478   33.9103   48.8813 H   0  0  0  0  0  0  0  0  0  0  0  0
   59.2430   33.9020   47.5930 C   0  0  0  0  0  0  0  0  0  0  0  0
   60.0270   34.2110   46.4690 C   0  0  0  0  0  0  0  0  0  0  0  0
   61.0830   34.4908   46.5973 H   0  0  0  0  0  0  0  0  0  0  0  0
   59.4690   34.1640   45.1870 C   0  0  0  0  0  0  0  0  0  0  0  0
   60.0839   34.4159   44.3104 H   0  0  0  0  0  0  0  0  0  0  0  0
   58.1300   33.7970   45.0190 C   0  0  0  0  0  0  0  0  0  0  0  0
   57.5910   33.7500   43.7750 F   0  0  0  0  0  0  0  0  0  0  0  0
   57.3490   33.4740   46.1320 C   0  0  0  0  0  0  0  0  0  0  0  0
   56.2970   33.1816   45.9986 H   0  0  0  0  0  0  0  0  0  0  0  0
   57.9030   33.5220   47.4150 C   0  0  0  0  0  0  0  0  0  0  0  0
   57.2868   33.2611   48.2881 H   0  0  0  0  0  0  0  0  0  0  0  0
   58.5260   30.5030   47.5230 C   0  0  0  0  0  0  0  0  0  0  0  0
   57.6165   30.6626   48.1208 H   0  0  0  0  0  0  0  0  0  0  0  0
   57.1410   27.1550   45.6110 C   0  0  0  0  0  0  0  0  0  0  0  0
   58.4720   26.7050   45.5940 C   0  0  0  0  0  0  0  0  0  0  0  0
   59.2701   27.3699   45.2321 H   0  0  0  0  0  0  0  0  0  0  0  0
   58.7860   25.4190   46.0340 C   0  0  0  0  0  0  0  0  0  0  0  0
   59.8321   25.0789   46.0321 H   0  0  0  0  0  0  0  0  0  0  0  0
   57.7760   24.5620   46.4770 C   0  0  0  0  0  0  0  0  0  0  0  0
   58.0306   23.5517   46.8297 H   0  0  0  0  0  0  0  0  0  0  0  0
   56.4330   24.9860   46.4740 C   0  0  0  0  0  0  0  0  0  0  0  0
   55.3860   24.1540   46.8980 O   0  0  0  0  0  0  0  0  0  0  0  0
   55.5120   23.1440   47.8950 C   0  0  0  0  0  0  0  0  0  0  0  0
   55.4546   23.6042   48.8925 H   0  0  0  0  0  0  0  0  0  0  0  0
   54.6981   22.4128   47.7811 H   0  0  0  0  0  0  0  0  0  0  0  0
   56.4806   22.6352   47.7811 H   0  0  0  0  0  0  0  0  0  0  0  0
   56.1230   26.2820   46.0330 C   0  0  0  0  0  0  0  0  0  0  0  0
   54.7950   26.7010   46.0270 O   0  0  0  0  0  0  0  0  0  0  0  0
  1  2  1  0
  2  3  2  0
  3  4  1  0
  4  5  2  0
  5  6  1  0
  5  7  1  0
  7  8  1  0
  7  9  2  0
  9 10  1  0
  9 11  1  0
 11 12  1  0
 12 13  2  0
 12 14  1  0
 14 15  1  0
 15 16  1  0
 15 17  1  0
 15 18  1  0
 18 19  2  0
 19 20  1  0
 19 21  1  0
 21 22  1  0
 21 23  2  0
 23 24  1  0
 23 25  1  0
 25 26  1  0
 25 27  2  0
 27 28  1  0
 11 29  2  0
 29 30  1  0
  2 31  1  0
 31 32  2  0
 32 33  1  0
 32 34  1  0
 34 35  1  0
 34 36  2  0
 36 37  1  0
 36 38  1  0
 38 39  1  0
 39 40  1  0
 40 41  1  0
 40 42  1  0
 40 43  1  0
 38 44  2  0
 44 45  1  0
 29  4  1  0
 44 31  1  0
 27 18  1  0
M  CHG  3  10  -1  14  -1  45  -1
M  END
>  <UniqueID>  (81) 
67

>  <SMILES>  (81) 
COc1cccc(/C=N\c2ccc([O-])c(C(=O)[N-]Cc3ccc(F)cc3)c2)c1[O-]

>  <Energy>  (81) 
63.84224601759647

>  <Genealogy>  (81) 
COc1cccc(C=Nc2ccc([O-])c(C(=O)[N-]Cc3ccc(F)cc3)c2)c1[O-] (protonated)
COc1cccc(/C=N\c2ccc([O-])c(C(=O)[N-]Cc3ccc(F)cc3)c2)c1[O-] (cis-trans isomerization)
COc1cccc(/C=N\c2ccc([O-])c(C(=O)[N-]Cc3ccc(F)cc3)c2)c1[O-] (3D coordinates assigned)
COc1cccc(/C=N\c2ccc([O-])c(C(=O)[N-]Cc3ccc(F)cc3)c2)c1[O-] (optimized conformer: 63.84224601759647 kcal/mol)

>  <smiles>  (81) 
COc1cccc(C=Nc2ccc(O)c(C(=O)NCc3ccc(F)cc3)c2)c1O

>  <score_type>  (81) 
oracle

>  <origin>  (81) 
adg

>  <m_score__min__energy>  (81) 
-13.85

>  <m_primary>  (81) 
energy

$$$$
81:0
     RDKit          3D

 56 59  0  0  0  0  0  0  0  0999 V2000
   55.7154   29.4903   42.2831 H   0  0  0  0  0  0  0  0  0  0  0  0
   56.3790   30.1160   42.8980 C   0  0  0  0  0  0  0  0  0  0  0  0
   56.5830   29.8050   44.2440 C   0  0  0  0  0  0  0  0  0  0  0  0
   56.0746   28.9376   44.6903 H   0  0  0  0  0  0  0  0  0  0  0  0
   57.4320   30.5940   45.0250 C   0  0  0  0  0  0  0  0  0  0  0  0
   57.5807   30.3507   46.0874 H   0  0  0  0  0  0  0  0  0  0  0  0
   58.0960   31.6950   44.4620 C   0  0  0  0  0  0  0  0  0  0  0  0
   58.9470   32.5060   45.2900 N   0  0  0  0  0  0  0  0  0  0  0  0
   59.8820   32.7780   44.9120 H   0  0  0  0  0  0  0  0  0  0  0  0
   58.5340   33.0570   46.5520 C   0  0  0  0  0  0  0  0  0  0  0  0
   57.3060   33.1920   46.8060 O   0  0  0  0  0  0  0  0  0  0  0  0
   59.5100   33.4810   47.5230 N   0  0  0  0  0  0  0  0  0  0  0  0
   60.8470   33.9330   47.1720 C   0  0  0  0  0  0  0  0  0  0  0  0
   60.7977   34.8806   46.6155 H   0  0  0  0  0  0  0  0  0  0  0  0
   61.3649   33.2070   46.5280 H   0  0  0  0  0  0  0  0  0  0  0  0
   61.5750   34.1310   48.4930 C   0  0  0  0  0  0  0  0  0  0  0  0
   62.1523   35.0672   48.4759 H   0  0  0  0  0  0  0  0  0  0  0  0
   62.2867   33.3157   48.6897 H   0  0  0  0  0  0  0  0  0  0  0  0
   60.4870   34.1970   49.5600 C   0  0  0  0  0  0  0  0  0  0  0  0
   60.2443   35.2438   49.7951 H   0  0  0  0  0  0  0  0  0  0  0  0
   60.8102   33.7205   50.4973 H   0  0  0  0  0  0  0  0  0  0  0  0
   59.2700   33.4900   48.9600 C   0  0  2  0  0  0  0  0  0  0  0  0
   58.3303   33.9983   49.2218 H   0  0  0  0  0  0  0  0  0  0  0  0
   59.1560   32.0730   49.4870 C   0  0  0  0  0  0  0  0  0  0  0  0
   58.1260   31.7470   50.1360 O   0  0  0  0  0  0  0  0  0  0  0  0
   60.1020   31.0460   49.1510 N   0  0  0  0  0  0  0  0  0  0  0  0
   60.0760   30.2800   48.1020 C   0  0  0  0  0  0  0  0  0  0  0  0
   59.3960   29.1150   48.0270 N   0  0  0  0  0  0  0  0  0  0  0  0
   59.5080   28.5320   46.8030 C   0  0  0  0  0  0  0  0  0  0  0  0
   58.8420   27.2440   46.5180 C   0  0  0  0  0  0  0  0  0  0  0  0
   59.5840   26.0700   46.3140 C   0  0  0  0  0  0  0  0  0  0  0  0
   60.6816   26.0962   46.3820 H   0  0  0  0  0  0  0  0  0  0  0  0
   58.9330   24.8690   46.0250 C   0  0  0  0  0  0  0  0  0  0  0  0
   59.5195   23.9497   45.8801 H   0  0  0  0  0  0  0  0  0  0  0  0
   57.5410   24.8290   45.9190 C   0  0  0  0  0  0  0  0  0  0  0  0
   57.0342   23.8775   45.7006 H   0  0  0  0  0  0  0  0  0  0  0  0
   56.7860   26.0030   46.0910 C   0  0  0  0  0  0  0  0  0  0  0  0
   55.3570   26.0160   45.9740 N   0  0  0  0  0  0  0  0  0  0  0  0
   54.3700   24.6340   45.6280 S   0  0  0  0  0  0  0  0  0  0  0  0
   52.9670   25.0710   45.3170 O   0  0  0  0  0  0  0  0  0  0  0  0
   54.3690   23.7020   46.8070 O   0  0  0  0  0  0  0  0  0  0  0  0
   55.0420   23.7830   44.2190 C   0  0  0  0  0  0  0  0  0  0  0  0
   55.6899   22.9625   44.5609 H   0  0  0  0  0  0  0  0  0  0  0  0
   54.2210   23.3734   43.6122 H   0  0  0  0  0  0  0  0  0  0  0  0
   55.6308   24.4866   43.6122 H   0  0  0  0  0  0  0  0  0  0  0  0
   57.4440   27.2040   46.3840 C   0  0  0  0  0  0  0  0  0  0  0  0
   56.8593   28.1271   46.5107 H   0  0  0  0  0  0  0  0  0  0  0  0
   60.2920   29.2620   45.9020 C   0  0  0  0  0  0  0  0  0  0  0  0
   60.6980   28.8490   44.5960 N   0  0  0  0  0  0  0  0  0  0  0  0
   61.6730   28.5360   44.4010 H   0  0  0  0  0  0  0  0  0  0  0  0
   60.0350   28.9410   43.7970 H   0  0  0  0  0  0  0  0  0  0  0  0
   60.8420   30.6620   46.6560 S   0  0  0  0  0  0  0  0  0  0  0  0
   57.8690   32.0130   43.1100 C   0  0  0  0  0  0  0  0  0  0  0  0
   58.3635   32.8879   42.6628 H   0  0  0  0  0  0  0  0  0  0  0  0
   57.0180   31.2220   42.3330 C   0  0  0  0  0  0  0  0  0  0  0  0
   56.8512   31.4710   41.2746 H   0  0  0  0  0  0  0  0  0  0  0  0
  1  2  1  0
  2  3  2  0
  3  4  1  0
  3  5  1  0
  5  6  1  0
  5  7  2  0
  7  8  1  0
  8  9  1  0
  8 10  1  0
 10 11  2  0
 10 12  1  0
 12 13  1  0
 13 14  1  0
 13 15  1  0
 13 16  1  0
 16 17  1  0
 16 18  1  0
 16 19  1  0
 19 20  1  0
 19 21  1  0
 19 22  1  0
 22 23  1  6
 22 24  1  0
 24 25  2  0
 24 26  1  0
 26 27  2  0
 27 28  1  0
 28 29  1  0
 29 30  1  0
 30 31  2  0
 31 32  1  0
 31 33  1  0
 33 34  1  0
 33 35  2  0
 35 36  1  0
 35 37  1  0
 37 38  1  0
 38 39  1  0
 39 40  2  0
 39 41  2  0
 39 42  1  0
 42 43  1  0
 42 44  1  0
 42 45  1  0
 37 46  2  0
 46 47  1  0
 29 48  2  0
 48 49  1  0
 49 50  1  0
 49 51  1  0
 48 52  1  0
  7 53  1  0
 53 54  1  0
 53 55  2  0
 55 56  1  0
 55  2  1  0
 22 12  1  0
 52 27  1  0
 46 30  1  0
M  CHG  2  28  -1  38  -1
M  END
>  <UniqueID>  (82) 
68

>  <SMILES>  (82) 
CS(=O)(=O)[N-]c1cccc(-c2[n-]/c(=N\C(=O)[C@H]3CCCN3C(=O)Nc3ccccc3)sc2N)c1

>  <Energy>  (82) 
100.92915919632217

>  <Genealogy>  (82) 
CS(=O)(=O)[N-]c1cccc(-c2[n-]c(=NC(=O)C3CCCN3C(=O)Nc3ccccc3)sc2N)c1 (protonated)
CS(=O)(=O)[N-]c1cccc(-c2[n-]c(=NC(=O)[C@H]3CCCN3C(=O)Nc3ccccc3)sc2N)c1 (chirality)
CS(=O)(=O)[N-]c1cccc(-c2[n-]/c(=N\C(=O)[C@H]3CCCN3C(=O)Nc3ccccc3)sc2N)c1 (cis-trans isomerization)
CS(=O)(=O)[N-]c1cccc(-c2[n-]/c(=N\C(=O)[C@H]3CCCN3C(=O)Nc3ccccc3)sc2N)c1 (3D coordinates assigned)
CS(=O)(=O)[N-]c1cccc(-c2[n-]/c(=N\C(=O)[C@H]3CCCN3C(=O)Nc3ccccc3)sc2N)c1 (nonaromatic ring conformer: 100.92915919632217 kcal/mol)

>  <smiles>  (82) 
CS(=O)(=O)Nc1cccc(-c2[nH]c(=NC(=O)C3CCCN3C(=O)Nc3ccccc3)sc2N)c1

>  <score_type>  (82) 
oracle

>  <origin>  (82) 
adg

>  <m_score__min__energy>  (82) 
-12.24

>  <m_primary>  (82) 
energy

$$$$
82:0
     RDKit          3D

 60 63  0  0  0  0  0  0  0  0999 V2000
   58.2930   30.2760   47.1480 O   0  0  0  0  0  0  0  0  0  0  0  0
   59.0290   29.3970   47.6690 C   0  0  0  0  0  0  0  0  0  0  0  0
   59.2160   28.0810   46.9730 C   0  0  0  0  0  0  0  0  0  0  0  0
   57.8930   27.4920   46.5780 C   0  0  0  0  0  0  0  0  0  0  0  0
   57.4740   26.2790   46.9850 N   0  0  0  0  0  0  0  0  0  0  0  0
   56.2680   26.1590   46.3910 C   0  0  0  0  0  0  0  0  0  0  0  0
   55.5430   25.1450   46.5480 O   0  0  0  0  0  0  0  0  0  0  0  0
   55.8980   27.2090   45.6300 N   0  0  0  0  0  0  0  0  0  0  0  0
   56.9390   28.0540   45.7430 C   0  0  0  0  0  0  0  0  0  0  0  0
   56.9860   29.4010   45.0740 C   0  0  0  0  0  0  0  0  0  0  0  0
   56.5850   29.3260   43.5930 C   0  0  0  0  0  0  0  0  0  0  0  0
   56.6640   30.6870   42.9020 C   0  0  0  0  0  0  0  0  0  0  0  0
   56.8920   31.7410   43.8870 N   0  0  0  0  0  0  0  0  0  0  0  0
   57.9110   32.7440   43.8170 C   0  0  0  0  0  0  0  0  0  0  0  0
   58.4480   32.9840   42.7040 O   0  0  0  0  0  0  0  0  0  0  0  0
   58.3540   33.4940   45.0010 C   0  0  0  0  0  0  0  0  0  0  0  0
   57.9280   33.1100   46.2770 C   0  0  0  0  0  0  0  0  0  0  0  0
   58.3680   33.8080   47.4070 C   0  0  0  0  0  0  0  0  0  0  0  0
   59.2480   34.8840   47.2640 C   0  0  0  0  0  0  0  0  0  0  0  0
   59.6870   35.2670   45.9910 C   0  0  0  0  0  0  0  0  0  0  0  0
   59.2420   34.5740   44.8600 C   0  0  0  0  0  0  0  0  0  0  0  0
   59.7140   29.6690   48.9000 N   0  0  0  0  0  0  0  0  0  0  0  0
   59.3400   30.7320   49.7940 C   0  0  0  0  0  0  0  0  0  0  0  0
   58.1870   30.6210   50.5940 C   0  0  0  0  0  0  0  0  0  0  0  0
   57.8430   31.6400   51.4850 C   0  0  0  0  0  0  0  0  0  0  0  0
   58.6520   32.7740   51.5990 C   0  0  0  0  0  0  0  0  0  0  0  0
   59.8050   32.8900   50.8270 C   0  0  0  0  0  0  0  0  0  0  0  0
   60.1610   31.8730   49.9230 C   0  0  0  0  0  0  0  0  0  0  0  0
   61.3320   32.0180   49.1090 N   0  0  0  0  0  0  0  0  0  0  0  0
   62.6040   31.5270   49.6300 C   0  0  0  0  0  0  0  0  0  0  0  0
   63.7670   32.1750   48.8700 C   0  0  0  0  0  0  0  0  0  0  0  0
   63.6050   31.9980   47.4800 O   0  0  0  0  0  0  0  0  0  0  0  0
   62.4680   32.7170   47.0390 C   0  0  0  0  0  0  0  0  0  0  0  0
   61.1760   32.1720   47.6610 C   0  0  0  0  0  0  0  0  0  0  0  0
   59.8260   28.2342   46.0705 H   0  0  0  0  0  0  0  0  0  0  0  0
   59.7184   27.3866   47.6626 H   0  0  0  0  0  0  0  0  0  0  0  0
   56.2944   30.0797   45.5946 H   0  0  0  0  0  0  0  0  0  0  0  0
   58.0215   29.7686   45.1260 H   0  0  0  0  0  0  0  0  0  0  0  0
   57.2614   28.6279   43.0781 H   0  0  0  0  0  0  0  0  0  0  0  0
   55.5410   28.9831   43.5436 H   0  0  0  0  0  0  0  0  0  0  0  0
   57.4932   30.6798   42.1792 H   0  0  0  0  0  0  0  0  0  0  0  0
   55.7141   30.8811   42.3824 H   0  0  0  0  0  0  0  0  0  0  0  0
   57.2444   32.2559   46.3924 H   0  0  0  0  0  0  0  0  0  0  0  0
   58.0213   33.5099   48.4075 H   0  0  0  0  0  0  0  0  0  0  0  0
   59.5962   35.4307   48.1527 H   0  0  0  0  0  0  0  0  0  0  0  0
   60.3817   36.1126   45.8800 H   0  0  0  0  0  0  0  0  0  0  0  0
   59.5874   34.8747   43.8599 H   0  0  0  0  0  0  0  0  0  0  0  0
   60.5730   29.1130   49.1180 H   0  0  0  0  0  0  0  0  0  0  0  0
   57.5527   29.7256   50.5168 H   0  0  0  0  0  0  0  0  0  0  0  0
   56.9340   31.5499   52.0979 H   0  0  0  0  0  0  0  0  0  0  0  0
   58.3774   33.5762   52.2998 H   0  0  0  0  0  0  0  0  0  0  0  0
   60.4411   33.7821   50.9247 H   0  0  0  0  0  0  0  0  0  0  0  0
   62.6816   31.7785   50.6980 H   0  0  0  0  0  0  0  0  0  0  0  0
   62.6507   30.4358   49.4994 H   0  0  0  0  0  0  0  0  0  0  0  0
   63.7942   33.2508   49.0977 H   0  0  0  0  0  0  0  0  0  0  0  0
   64.7077   31.6986   49.1833 H   0  0  0  0  0  0  0  0  0  0  0  0
   62.5822   33.7736   47.3227 H   0  0  0  0  0  0  0  0  0  0  0  0
   62.3955   32.6079   45.9468 H   0  0  0  0  0  0  0  0  0  0  0  0
   60.3524   32.8722   47.4576 H   0  0  0  0  0  0  0  0  0  0  0  0
   60.9543   31.1892   47.2194 H   0  0  0  0  0  0  0  0  0  0  0  0
  1  2  2  0
  2  3  1  0
  3  4  1  0
  4  5  1  0
  5  6  1  0
  6  7  2  0
  6  8  1  0
  8  9  1  0
  9 10  1  0
 10 11  1  0
 11 12  1  0
 12 13  1  0
 13 14  1  0
 14 15  2  0
 14 16  1  0
 16 17  2  0
 17 18  1  0
 18 19  2  0
 19 20  1  0
 20 21  2  0
  2 22  1  0
 22 23  1  0
 23 24  2  0
 24 25  1  0
 25 26  2  0
 26 27  1  0
 27 28  2  0
 28 29  1  0
 29 30  1  0
 30 31  1  0
 31 32  1  0
 32 33  1  0
 33 34  1  0
  9  4  2  0
 21 16  1  0
 28 23  1  0
 34 29  1  0
  3 35  1  0
  3 36  1  0
 10 37  1  0
 10 38  1  0
 11 39  1  0
 11 40  1  0
 12 41  1  0
 12 42  1  0
 17 43  1  0
 18 44  1  0
 19 45  1  0
 20 46  1  0
 21 47  1  0
 22 48  1  0
 24 49  1  0
 25 50  1  0
 26 51  1  0
 27 52  1  0
 30 53  1  0
 30 54  1  0
 31 55  1  0
 31 56  1  0
 33 57  1  0
 33 58  1  0
 34 59  1  0
 34 60  1  0
M  CHG  3   5  -1   8  -1  13  -1
M  END
>  <UniqueID>  (83) 
69

>  <SMILES>  (83) 
O=C(Cc1[n-]c(=O)[n-]c1CCC[N-]C(=O)c1ccccc1)Nc1ccccc1N1CCOCC1

>  <Energy>  (83) 
100.09726614654504

>  <Genealogy>  (83) 
O=C(Cc1[n-]c(=O)[n-]c1CCC[N-]C(=O)c1ccccc1)Nc1ccccc1N1CCOCC1 (protonated)
O=C(Cc1[n-]c(=O)[n-]c1CCC[N-]C(=O)c1ccccc1)Nc1ccccc1N1CCOCC1 (3D coordinates assigned)
O=C(Cc1[n-]c(=O)[n-]c1CCC[N-]C(=O)c1ccccc1)Nc1ccccc1N1CCOCC1 (nonaromatic ring conformer: 100.09726614654504 kcal/mol)

>  <smiles>  (83) 
O=C(Cc1[nH]c(=O)[nH]c1CCCNC(=O)c1ccccc1)Nc1ccccc1N1CCOCC1

>  <score_type>  (83) 
oracle

>  <origin>  (83) 
adg

>  <m_score__min__energy>  (83) 
-13.960000000000001

>  <m_primary>  (83) 
energy

$$$$
83:0
     RDKit          3D

 34 36  0  0  0  0  0  0  0  0999 V2000
   59.5580   29.3240   45.7610 C   0  0  0  0  0  0  0  0  0  0  0  0
   58.3050   29.2440   45.2870 C   0  0  0  0  0  0  0  0  0  0  0  0
   57.5260   28.0940   45.0940 C   0  0  0  0  0  0  0  0  0  0  0  0
   57.8790   26.7950   45.1070 C   0  0  0  0  0  0  0  0  0  0  0  0
   57.1990   25.7280   45.8570 C   0  0  0  0  0  0  0  0  0  0  0  0
   57.8330   24.6550   46.3600 N   0  0  0  0  0  0  0  0  0  0  0  0
   56.8660   24.0200   47.0590 C   0  0  0  0  0  0  0  0  0  0  0  0
   57.0720   22.9410   47.6750 O   0  0  0  0  0  0  0  0  0  0  0  0
   55.6660   24.6380   47.0570 N   0  0  0  0  0  0  0  0  0  0  0  0
   55.8960   25.7260   46.3040 C   0  0  0  0  0  0  0  0  0  0  0  0
   54.9460   26.7100   46.0500 O   0  0  0  0  0  0  0  0  0  0  0  0
   56.2490   28.4640   44.8510 N   0  0  0  0  0  0  0  0  0  0  0  0
   56.2840   29.8100   44.8500 C   0  0  0  0  0  0  0  0  0  0  0  0
   55.2640   30.5180   44.6340 O   0  0  0  0  0  0  0  0  0  0  0  0
   57.5090   30.3200   45.0880 N   0  0  0  0  0  0  0  0  0  0  0  0
   57.8540   31.7160   45.1540 C   0  0  0  0  0  0  0  0  0  0  0  0
   57.8670   32.3730   46.3940 C   0  0  0  0  0  0  0  0  0  0  0  0
   58.2030   33.7260   46.4720 C   0  0  0  0  0  0  0  0  0  0  0  0
   58.5220   34.4350   45.3140 C   0  0  0  0  0  0  0  0  0  0  0  0
   58.5010   33.7950   44.0720 C   0  0  0  0  0  0  0  0  0  0  0  0
   58.1600   32.4310   43.9790 C   0  0  0  0  0  0  0  0  0  0  0  0
   58.1040   31.7610   42.7470 O   0  0  0  0  0  0  0  0  0  0  0  0
   57.7310   32.3660   41.5130 C   0  0  0  0  0  0  0  0  0  0  0  0
   60.0476   30.3042   45.8585 H   0  0  0  0  0  0  0  0  0  0  0  0
   60.0954   28.4094   46.0520 H   0  0  0  0  0  0  0  0  0  0  0  0
   58.7525   26.5062   44.5039 H   0  0  0  0  0  0  0  0  0  0  0  0
   55.1450   27.4670   45.4090 H   0  0  0  0  0  0  0  0  0  0  0  0
   57.6111   31.8192   47.3093 H   0  0  0  0  0  0  0  0  0  0  0  0
   58.2161   34.2334   47.4479 H   0  0  0  0  0  0  0  0  0  0  0  0
   58.7906   35.4998   45.3785 H   0  0  0  0  0  0  0  0  0  0  0  0
   58.7521   34.3592   43.1617 H   0  0  0  0  0  0  0  0  0  0  0  0
   57.1633   33.2868   41.7129 H   0  0  0  0  0  0  0  0  0  0  0  0
   58.6353   32.6106   40.9365 H   0  0  0  0  0  0  0  0  0  0  0  0
   57.1063   31.6679   40.9365 H   0  0  0  0  0  0  0  0  0  0  0  0
  1  2  2  0
  2  3  1  0
  3  4  2  3
  4  5  1  0
  5  6  1  0
  6  7  1  0
  7  8  2  0
  7  9  1  0
  9 10  1  0
 10 11  1  0
  3 12  1  0
 12 13  1  0
 13 14  2  0
 13 15  1  0
 15 16  1  0
 16 17  2  0
 17 18  1  0
 18 19  2  0
 19 20  1  0
 20 21  2  0
 21 22  1  0
 22 23  1  0
 15  2  1  0
 21 16  1  0
 10  5  2  0
  1 24  1  0
  1 25  1  0
  4 26  1  0
 11 27  1  0
 17 28  1  0
 18 29  1  0
 19 30  1  0
 20 31  1  0
 23 32  1  0
 23 33  1  0
 23 34  1  0
M  CHG  3   6  -1   9  -1  12  -1
M  END
>  <UniqueID>  (84) 
70

>  <SMILES>  (84) 
C=c1c(=Cc2[n-]c(=O)[n-]c2O)[n-]c(=O)n1-c1ccccc1OC

>  <Energy>  (84) 
115.50739346955392

>  <Genealogy>  (84) 
C=c1c(=Cc2[n-]c(=O)[n-]c2O)[n-]c(=O)n1-c1ccccc1OC (protonated)
C=c1c(=Cc2[n-]c(=O)[n-]c2O)[n-]c(=O)n1-c1ccccc1OC (3D coordinates assigned)
C=c1c(=Cc2[n-]c(=O)[n-]c2O)[n-]c(=O)n1-c1ccccc1OC (optimized conformer: 115.50739346955392 kcal/mol)

>  <smiles>  (84) 
C=c1c(=Cc2[nH]c(=O)[nH]c2O)[nH]c(=O)n1-c1ccccc1OC

>  <score_type>  (84) 
oracle

>  <origin>  (84) 
adg

>  <m_score__min__energy>  (84) 
-14.220000000000001

>  <m_primary>  (84) 
energy

$$$$
84:0
     RDKit          3D

 55 58  0  0  0  0  0  0  0  0999 V2000
   54.9170   27.0540   46.5560 H   0  0  0  0  0  0  0  0  0  0  0  0
   54.7140   26.2910   45.8730 N   0  0  0  0  0  0  0  0  0  0  0  0
   56.0500   25.1940   45.9210 S   0  0  0  0  0  0  0  0  0  0  0  0
   55.9700   24.3550   47.1640 O   0  0  0  0  0  0  0  0  0  0  0  0
   55.9790   24.3020   44.7140 O   0  0  0  0  0  0  0  0  0  0  0  0
   57.5630   26.0980   45.9200 C   0  0  0  0  0  0  0  0  0  0  0  0
   58.7750   25.4730   46.2450 C   0  0  0  0  0  0  0  0  0  0  0  0
   58.7845   24.4139   46.5421 H   0  0  0  0  0  0  0  0  0  0  0  0
   59.9720   26.1940   46.1920 C   0  0  0  0  0  0  0  0  0  0  0  0
   60.9210   25.7002   46.4481 H   0  0  0  0  0  0  0  0  0  0  0  0
   59.9670   27.5390   45.8150 C   0  0  0  0  0  0  0  0  0  0  0  0
   60.9146   28.0930   45.7435 H   0  0  0  0  0  0  0  0  0  0  0  0
   58.7570   28.1830   45.5280 C   0  0  0  0  0  0  0  0  0  0  0  0
   58.7620   29.5470   45.0920 N   0  0  0  0  0  0  0  0  0  0  0  0
   59.0870   30.5610   45.8380 C   0  0  0  0  0  0  0  0  0  0  0  0
   58.6450   31.8110   45.5870 N   0  0  0  0  0  0  0  0  0  0  0  0
   59.1060   32.7110   46.4990 C   0  0  0  0  0  0  0  0  0  0  0  0
   58.7220   34.1330   46.4110 C   0  0  0  0  0  0  0  0  0  0  0  0
   58.2160   34.5650   45.3400 O   0  0  0  0  0  0  0  0  0  0  0  0
   58.9420   35.0420   47.4910 N   0  0  0  0  0  0  0  0  0  0  0  0
   59.5530   34.7920   48.2990 H   0  0  0  0  0  0  0  0  0  0  0  0
   58.5900   36.0220   47.4250 H   0  0  0  0  0  0  0  0  0  0  0  0
   59.9230   32.1570   47.4920 C   0  0  0  0  0  0  0  0  0  0  0  0
   60.5210   32.8920   48.5690 N   0  0  0  0  0  0  0  0  0  0  0  0
   60.0440   33.0440   49.9130 C   0  0  0  0  0  0  0  0  0  0  0  0
   60.3620   34.0870   50.5430 O   0  0  0  0  0  0  0  0  0  0  0  0
   59.1760   32.0510   50.5800 C   0  0  0  0  0  0  0  0  0  0  0  0
   57.8130   31.9400   50.2660 C   0  0  0  0  0  0  0  0  0  0  0  0
   57.3717   32.5939   49.4994 H   0  0  0  0  0  0  0  0  0  0  0  0
   57.0360   31.0260   50.9070 N   0  0  0  0  0  0  0  0  0  0  0  0
   57.5180   30.2150   51.8880 C   0  0  0  0  0  0  0  0  0  0  0  0
   56.7070   29.3560   52.4390 N   0  0  0  0  0  0  0  0  0  0  0  0
   55.9780   29.5100   53.6670 C   0  0  0  0  0  0  0  0  0  0  0  0
   56.5080   30.0720   54.6640 O   0  0  0  0  0  0  0  0  0  0  0  0
   54.5560   29.0450   53.7500 C   0  0  0  0  0  0  0  0  0  0  0  0
   54.4704   28.0614   53.2650 H   0  0  0  0  0  0  0  0  0  0  0  0
   54.2707   28.9784   54.8103 H   0  0  0  0  0  0  0  0  0  0  0  0
   53.6280   30.0160   53.0630 C   0  0  0  0  0  0  0  0  0  0  0  0
   53.8820   30.4360   51.7440 C   0  0  0  0  0  0  0  0  0  0  0  0
   54.7645   30.0554   51.2089 H   0  0  0  0  0  0  0  0  0  0  0  0
   53.0180   31.3350   51.1100 C   0  0  0  0  0  0  0  0  0  0  0  0
   53.2306   31.6719   50.0847 H   0  0  0  0  0  0  0  0  0  0  0  0
   51.8830   31.8060   51.7800 C   0  0  0  0  0  0  0  0  0  0  0  0
   51.0290   32.7060   51.1540 O   0  0  0  0  0  0  0  0  0  0  0  0
   51.6070   31.3690   53.0770 C   0  0  0  0  0  0  0  0  0  0  0  0
   50.7074   31.7292   53.5976 H   0  0  0  0  0  0  0  0  0  0  0  0
   52.4720   30.4740   53.7160 C   0  0  0  0  0  0  0  0  0  0  0  0
   52.2455   30.1273   54.7351 H   0  0  0  0  0  0  0  0  0  0  0  0
   58.8800   30.3090   52.2410 C   0  0  0  0  0  0  0  0  0  0  0  0
   59.2955   29.6580   53.0243 H   0  0  0  0  0  0  0  0  0  0  0  0
   59.6960   31.2330   51.5900 C   0  0  0  0  0  0  0  0  0  0  0  0
   60.7557   31.3199   51.8719 H   0  0  0  0  0  0  0  0  0  0  0  0
   60.0960   30.5070   47.1890 S   0  0  0  0  0  0  0  0  0  0  0  0
   57.5570   27.4540   45.5730 C   0  0  0  0  0  0  0  0  0  0  0  0
   56.6060   27.9523   45.3339 H   0  0  0  0  0  0  0  0  0  0  0  0
  1  2  1  0
  2  3  1  0
  3  4  2  0
  3  5  2  0
  3  6  1  0
  6  7  2  0
  7  8  1  0
  7  9  1  0
  9 10  1  0
  9 11  2  0
 11 12  1  0
 11 13  1  0
 13 14  1  0
 14 15  2  3
 15 16  1  0
 16 17  1  0
 17 18  1  0
 18 19  2  0
 18 20  1  0
 20 21  1  0
 20 22  1  0
 17 23  2  0
 23 24  1  0
 24 25  1  0
 25 26  2  0
 25 27  1  0
 27 28  2  0
 28 29  1  0
 28 30  1  0
 30 31  1  0
 31 32  2  0
 32 33  1  0
 33 34  2  0
 33 35  1  0
 35 36  1  0
 35 37  1  0
 35 38  1  0
 38 39  2  0
 39 40  1  0
 39 41  1  0
 41 42  1  0
 41 43  2  0
 43 44  1  0
 43 45  1  0
 45 46  1  0
 45 47  2  0
 47 48  1  0
 31 49  1  0
 49 50  1  0
 49 51  2  0
 51 52  1  0
 23 53  1  0
 13 54  2  0
 54 55  1  0
 54  6  1  0
 53 15  1  0
 51 27  1  0
 47 38  1  0
M  CHG  5   2  -1  16  -1  24  -1  30  -1  44  -1
M  END
>  <UniqueID>  (85) 
71

>  <SMILES>  (85) 
[NH-]S(=O)(=O)c1cccc(N=c2[n-]c(C(N)=O)c([N-]C(=O)c3cc/c(=N\C(=O)Cc4ccc([O-])cc4)[n-]c3)s2)c1

>  <Energy>  (85) 
109.4944754350573

>  <Genealogy>  (85) 
[NH-]S(=O)(=O)c1cccc(N=c2[n-]c(C(N)=O)c([N-]C(=O)c3ccc(=NC(=O)Cc4ccc([O-])cc4)[n-]c3)s2)c1 (protonated)
[NH-]S(=O)(=O)c1cccc(N=c2[n-]c(C(N)=O)c([N-]C(=O)c3cc/c(=N\C(=O)Cc4ccc([O-])cc4)[n-]c3)s2)c1 (cis-trans isomerization)
[NH-]S(=O)(=O)c1cccc(N=c2[n-]c(C(N)=O)c([N-]C(=O)c3cc/c(=N\C(=O)Cc4ccc([O-])cc4)[n-]c3)s2)c1 (3D coordinates assigned)
[NH-]S(=O)(=O)c1cccc(N=c2[n-]c(C(N)=O)c([N-]C(=O)c3cc/c(=N\C(=O)Cc4ccc([O-])cc4)[n-]c3)s2)c1 (optimized conformer: 109.4944754350573 kcal/mol)

>  <smiles>  (85) 
NC(=O)c1[nH]c(=Nc2cccc(S(N)(=O)=O)c2)sc1NC(=O)c1ccc(=NC(=O)Cc2ccc(O)cc2)[nH]c1

>  <score_type>  (85) 
oracle

>  <origin>  (85) 
adg

>  <m_score__min__energy>  (85) 
-19.98

>  <m_primary>  (85) 
energy

$$$$
85:0
     RDKit          3D

 75 79  0  0  0  0  0  0  0  0999 V2000
   56.2730   29.3470   42.5530 C   0  0  0  0  0  0  0  0  0  0  0  0
   55.6770   29.7210   43.9050 C   0  0  0  0  0  0  0  0  0  0  0  0
   56.7320   30.1310   44.8240 N   0  0  0  0  0  0  0  0  0  0  0  0
   57.2690   29.3290   45.7300 N   0  0  0  0  0  0  0  0  0  0  0  0
   58.1820   30.0660   46.3910 C   0  0  0  0  0  0  0  0  0  0  0  0
   59.0670   29.4950   47.4250 C   0  0  0  0  0  0  0  0  0  0  0  0
   59.8610   28.3710   47.1590 C   0  0  0  0  0  0  0  0  0  0  0  0
   60.6770   27.8380   48.1590 C   0  0  0  0  0  0  0  0  0  0  0  0
   60.6900   28.4070   49.4360 C   0  0  0  0  0  0  0  0  0  0  0  0
   59.8700   29.5050   49.7330 C   0  0  0  0  0  0  0  0  0  0  0  0
   59.8940   30.0590   51.0620 N   0  0  0  0  0  0  0  0  0  0  0  0
   58.5190   30.7710   51.8470 S   0  0  0  0  0  0  0  0  0  0  0  0
   58.2580   32.4290   51.2500 C   0  0  0  0  0  0  0  0  0  0  0  0
   58.7780   30.8240   53.3280 O   0  0  0  0  0  0  0  0  0  0  0  0
   57.2980   29.9260   51.6050 O   0  0  0  0  0  0  0  0  0  0  0  0
   59.0580   30.0440   48.7180 C   0  0  0  0  0  0  0  0  0  0  0  0
   58.1550   31.3530   45.8550 C   0  0  0  0  0  0  0  0  0  0  0  0
   58.9100   32.5670   46.2500 C   0  0  0  0  0  0  0  0  0  0  0  0
   58.3870   33.8580   46.0860 C   0  0  0  0  0  0  0  0  0  0  0  0
   59.1440   34.9650   46.4740 C   0  0  0  0  0  0  0  0  0  0  0  0
   60.3950   34.7960   46.9700 N   0  0  0  0  0  0  0  0  0  0  0  0
   60.9540   33.5630   47.1070 C   0  0  0  0  0  0  0  0  0  0  0  0
   62.1640   33.4100   47.5630 N   0  0  0  0  0  0  0  0  0  0  0  0
   62.5920   33.1790   48.9500 C   0  0  2  0  0  0  0  0  0  0  0  0
   63.9070   32.3700   49.0170 C   0  0  0  0  0  0  0  0  0  0  0  0
   64.1860   31.7810   50.4160 C   0  0  0  0  0  0  0  0  0  0  0  0
   63.4220   32.5150   51.5290 C   0  0  2  0  0  0  0  0  0  0  0  0
   63.7650   31.9150   52.8230 N   0  0  0  0  0  0  0  0  0  0  0  0
   63.8230   30.1790   52.7310 S   0  0  0  0  0  0  0  0  0  0  0  0
   62.8940   29.7100   51.6460 O   0  0  0  0  0  0  0  0  0  0  0  0
   63.3680   29.5960   54.0410 O   0  0  0  0  0  0  0  0  0  0  0  0
   65.4590   29.6450   52.3510 C   0  0  0  0  0  0  0  0  0  0  0  0
   66.5700   30.3980   52.7550 C   0  0  0  0  0  0  0  0  0  0  0  0
   67.8570   29.9910   52.4030 C   0  0  0  0  0  0  0  0  0  0  0  0
   68.0450   28.8320   51.6470 C   0  0  0  0  0  0  0  0  0  0  0  0
   66.9420   28.0620   51.2350 C   0  0  0  0  0  0  0  0  0  0  0  0
   67.1380   26.8300   50.4360 C   0  0  0  0  0  0  0  0  0  0  0  0
   68.1830   26.7550   49.4660 N   0  0  0  0  0  0  0  0  0  0  0  0
   66.3860   25.8330   50.6060 O   0  0  0  0  0  0  0  0  0  0  0  0
   65.6460   28.4810   51.5930 C   0  0  0  0  0  0  0  0  0  0  0  0
   61.8980   32.4160   51.3010 C   0  0  0  0  0  0  0  0  0  0  0  0
   61.4810   32.5520   49.8170 C   0  0  0  0  0  0  0  0  0  0  0  0
   60.2180   32.4290   46.7450 C   0  0  0  0  0  0  0  0  0  0  0  0
   57.2320   31.3550   44.8710 N   0  0  0  0  0  0  0  0  0  0  0  0
   57.1956   28.7680   42.7065 H   0  0  0  0  0  0  0  0  0  0  0  0
   55.5494   28.7408   41.9884 H   0  0  0  0  0  0  0  0  0  0  0  0
   56.5042   30.2623   41.9884 H   0  0  0  0  0  0  0  0  0  0  0  0
   54.9677   30.5513   43.7723 H   0  0  0  0  0  0  0  0  0  0  0  0
   55.1571   28.8462   44.3226 H   0  0  0  0  0  0  0  0  0  0  0  0
   59.8413   27.9082   46.1613 H   0  0  0  0  0  0  0  0  0  0  0  0
   61.3122   26.9668   47.9411 H   0  0  0  0  0  0  0  0  0  0  0  0
   61.3479   27.9905   50.2130 H   0  0  0  0  0  0  0  0  0  0  0  0
   60.7580   29.9500   51.6380 H   0  0  0  0  0  0  0  0  0  0  0  0
   58.1502   33.1136   52.1042 H   0  0  0  0  0  0  0  0  0  0  0  0
   59.1185   32.7383   50.6386 H   0  0  0  0  0  0  0  0  0  0  0  0
   57.3441   32.4589   50.6386 H   0  0  0  0  0  0  0  0  0  0  0  0
   58.4093   30.9044   48.9394 H   0  0  0  0  0  0  0  0  0  0  0  0
   57.3852   33.9976   45.6537 H   0  0  0  0  0  0  0  0  0  0  0  0
   58.7246   35.9773   46.3772 H   0  0  0  0  0  0  0  0  0  0  0  0
   62.7977   34.1690   49.3832 H   0  0  0  0  0  0  0  0  0  0  0  0
   64.7406   33.0339   48.7443 H   0  0  0  0  0  0  0  0  0  0  0  0
   63.8077   31.5251   48.3197 H   0  0  0  0  0  0  0  0  0  0  0  0
   65.2642   31.8550   50.6208 H   0  0  0  0  0  0  0  0  0  0  0  0
   63.8449   30.7352   50.4114 H   0  0  0  0  0  0  0  0  0  0  0  0
   63.7079   33.5771   51.5177 H   0  0  0  0  0  0  0  0  0  0  0  0
   66.4268   31.3116   53.3507 H   0  0  0  0  0  0  0  0  0  0  0  0
   68.7264   30.5848   52.7219 H   0  0  0  0  0  0  0  0  0  0  0  0
   69.0629   28.5188   51.3716 H   0  0  0  0  0  0  0  0  0  0  0  0
   68.0060   26.3560   48.5160 H   0  0  0  0  0  0  0  0  0  0  0  0
   64.7741   27.8904   51.2754 H   0  0  0  0  0  0  0  0  0  0  0  0
   61.4083   33.2171   51.8742 H   0  0  0  0  0  0  0  0  0  0  0  0
   61.5879   31.4137   51.6315 H   0  0  0  0  0  0  0  0  0  0  0  0
   60.5856   33.1882   49.7584 H   0  0  0  0  0  0  0  0  0  0  0  0
   61.2830   31.5416   49.4299 H   0  0  0  0  0  0  0  0  0  0  0  0
   60.6638   31.4287   46.8480 H   0  0  0  0  0  0  0  0  0  0  0  0
  1  2  1  0
  2  3  1  0
  3  4  1  0
  4  5  2  0
  5  6  1  0
  6  7  2  0
  7  8  1  0
  8  9  2  0
  9 10  1  0
 10 11  1  0
 11 12  1  0
 12 13  1  0
 12 14  2  0
 12 15  2  0
 10 16  2  0
  5 17  1  0
 17 18  1  0
 18 19  1  0
 19 20  2  0
 20 21  1  0
 21 22  1  0
 22 23  2  3
 23 24  1  0
 24 25  1  0
 25 26  1  0
 26 27  1  0
 27 28  1  0
 28 29  1  0
 29 30  2  0
 29 31  2  0
 29 32  1  0
 32 33  2  0
 33 34  1  0
 34 35  2  0
 35 36  1  0
 36 37  1  0
 37 38  1  0
 37 39  2  0
 36 40  2  0
 27 41  1  0
 41 42  1  0
 22 43  1  0
 17 44  2  0
 44  3  1  0
 16  6  1  0
 43 18  2  0
 42 24  1  0
 40 32  1  0
  1 45  1  0
  1 46  1  0
  1 47  1  0
  2 48  1  0
  2 49  1  0
  7 50  1  0
  8 51  1  0
  9 52  1  0
 11 53  1  0
 13 54  1  0
 13 55  1  0
 13 56  1  0
 16 57  1  0
 19 58  1  0
 20 59  1  0
 24 60  1  1
 25 61  1  0
 25 62  1  0
 26 63  1  0
 26 64  1  0
 27 65  1  1
 33 66  1  0
 34 67  1  0
 35 68  1  0
 38 69  1  0
 40 70  1  0
 41 71  1  0
 41 72  1  0
 42 73  1  0
 42 74  1  0
 43 75  1  0
M  CHG  3  21  -1  28  -1  38  -1
M  END
>  <UniqueID>  (86) 
72

>  <SMILES>  (86) 
CCn1nc(-c2cccc(NS(C)(=O)=O)c2)c(-c2cc[n-]c(=NC3CCC([N-]S(=O)(=O)c4cccc(C([NH-])=O)c4)CC3)c2)n1

>  <Energy>  (86) 
122.8179712026825

>  <Genealogy>  (86) 
CCn1nc(-c2cccc(NS(C)(=O)=O)c2)c(-c2cc[n-]c(=NC3CCC([N-]S(=O)(=O)c4cccc(C([NH-])=O)c4)CC3)c2)n1 (protonated)
CCn1nc(-c2cccc(NS(C)(=O)=O)c2)c(-c2cc[n-]c(=NC3CCC([N-]S(=O)(=O)c4cccc(C([NH-])=O)c4)CC3)c2)n1 (3D coordinates assigned)
CCn1nc(-c2cccc(NS(C)(=O)=O)c2)c(-c2cc[n-]c(=NC3CCC([N-]S(=O)(=O)c4cccc(C([NH-])=O)c4)CC3)c2)n1 (nonaromatic ring conformer: 122.8179712026825 kcal/mol)

>  <smiles>  (86) 
CCn1nc(-c2cccc(NS(C)(=O)=O)c2)c(-c2cc[nH]c(=NC3CCC(NS(=O)(=O)c4cccc(C(N)=O)c4)CC3)c2)n1

>  <score_type>  (86) 
oracle

>  <origin>  (86) 
adg

>  <m_score__min__energy>  (86) 
-16.850000000000001

>  <m_primary>  (86) 
energy

$$$$
86:0
     RDKit          3D

 58 61  0  0  1  0  0  0  0  0999 V2000
   61.4120   33.8600   48.4420 C   0  0  0  0  0  0  0  0  0  0  0  0
   61.7730   33.6370   47.1280 C   0  0  0  0  0  0  0  0  0  0  0  0
   60.8940   33.8640   46.0690 C   0  0  0  0  0  0  0  0  0  0  0  0
   59.6170   34.3310   46.3790 C   0  0  0  0  0  0  0  0  0  0  0  0
   58.6260   34.5940   45.2740 C   0  0  0  0  0  0  0  0  0  0  0  0
   57.3660   33.8820   45.6840 C   0  0  0  0  0  0  0  0  0  0  0  0
   57.2310   32.5520   45.1760 N   0  0  0  0  0  0  0  0  0  0  0  0
   57.6920   32.3960   43.8260 C   0  0  0  0  0  0  0  0  0  0  0  0
   57.4700   30.9880   43.3680 C   0  0  0  0  0  0  0  0  0  0  0  0
   58.0400   29.9600   44.3260 C   0  0  0  0  0  0  0  0  0  0  0  0
   55.3280   25.2400   46.2090 N   0  0  0  0  0  0  0  0  0  0  0  0
   56.2480   26.0350   46.1540 C   0  0  0  0  0  0  0  0  0  0  0  0
   58.3500   27.8050   46.0470 N   0  0  0  0  0  0  0  0  0  0  0  0
   58.5580   26.5700   46.5710 C   0  0  0  0  0  0  0  0  0  0  0  0
   57.4990   25.7200   46.6090 C   0  0  0  0  0  0  0  0  0  0  0  0
   57.1270   28.1340   45.5940 C   0  0  0  0  0  0  0  0  0  0  0  0
   56.9930   29.3250   45.1050 N   0  0  0  0  0  0  0  0  0  0  0  0
   55.0720   23.9370   45.9040 C   0  0  0  0  0  0  0  0  0  0  0  0
   55.7860   23.0950   44.9690 C   0  0  0  0  0  0  0  0  0  0  0  0
   56.6190   22.0270   45.3360 C   0  0  0  0  0  0  0  0  0  0  0  0
   57.2910   21.2900   44.3610 C   0  0  0  0  0  0  0  0  0  0  0  0
   57.1720   21.5710   43.0160 C   0  0  0  0  0  0  0  0  0  0  0  0
   56.3550   22.6200   42.6560 C   0  0  0  0  0  0  0  0  0  0  0  0
   55.6870   23.3530   43.6130 C   0  0  0  0  0  0  0  0  0  0  0  0
   56.0770   27.2730   45.6390 N   0  0  0  0  0  0  0  0  0  0  0  0
   58.8390   30.7840   45.3510 C   0  0  0  0  0  0  0  0  0  0  0  0
   57.8040   31.5970   46.0920 C   0  0  0  0  0  0  0  0  0  0  0  0
   59.2590   34.5530   47.7020 C   0  0  0  0  0  0  0  0  0  0  0  0
   60.1500   34.3210   48.7480 C   0  0  0  0  0  0  0  0  0  0  0  0
   62.1353   33.6687   49.2484 H   0  0  0  0  0  0  0  0  0  0  0  0
   62.7861   33.2686   46.9094 H   0  0  0  0  0  0  0  0  0  0  0  0
   61.1970   33.6813   45.0274 H   0  0  0  0  0  0  0  0  0  0  0  0
   58.4415   35.6736   45.1724 H   0  0  0  0  0  0  0  0  0  0  0  0
   58.9967   34.2386   44.3012 H   0  0  0  0  0  0  0  0  0  0  0  0
   57.3446   33.8315   46.7826 H   0  0  0  0  0  0  0  0  0  0  0  0
   56.5332   34.4602   45.2572 H   0  0  0  0  0  0  0  0  0  0  0  0
   57.1381   33.0839   43.1702 H   0  0  0  0  0  0  0  0  0  0  0  0
   58.7672   32.6241   43.7833 H   0  0  0  0  0  0  0  0  0  0  0  0
   56.3877   30.8165   43.2721 H   0  0  0  0  0  0  0  0  0  0  0  0
   57.9900   30.8675   42.4062 H   0  0  0  0  0  0  0  0  0  0  0  0
   58.6060   29.2004   43.7669 H   0  0  0  0  0  0  0  0  0  0  0  0
   59.1580   28.4710   46.0110 H   0  0  0  0  0  0  0  0  0  0  0  0
   59.5458   26.2692   46.9501 H   0  0  0  0  0  0  0  0  0  0  0  0
   57.6572   24.7168   47.0316 H   0  0  0  0  0  0  0  0  0  0  0  0
   55.1350   23.4058   46.8652 H   0  0  0  0  0  0  0  0  0  0  0  0
   54.1407   24.0739   45.3349 H   0  0  0  0  0  0  0  0  0  0  0  0
   56.7426   21.7697   46.3983 H   0  0  0  0  0  0  0  0  0  0  0  0
   57.9372   20.4571   44.6752 H   0  0  0  0  0  0  0  0  0  0  0  0
   57.7091   20.9799   42.2595 H   0  0  0  0  0  0  0  0  0  0  0  0
   56.2344   22.8755   41.5929 H   0  0  0  0  0  0  0  0  0  0  0  0
   55.0445   24.1827   43.2833 H   0  0  0  0  0  0  0  0  0  0  0  0
   55.1510   27.5880   45.2720 H   0  0  0  0  0  0  0  0  0  0  0  0
   59.3783   30.1212   46.0437 H   0  0  0  0  0  0  0  0  0  0  0  0
   59.5963   31.4200   44.8693 H   0  0  0  0  0  0  0  0  0  0  0  0
   57.0160   30.9328   46.4766 H   0  0  0  0  0  0  0  0  0  0  0  0
   58.2715   32.1206   46.9389 H   0  0  0  0  0  0  0  0  0  0  0  0
   58.2477   34.9209   47.9299 H   0  0  0  0  0  0  0  0  0  0  0  0
   59.8534   34.5013   49.7918 H   0  0  0  0  0  0  0  0  0  0  0  0
  1  2  2  0
  2  3  1  0
  3  4  2  0
  4  5  1  0
  5  6  1  0
  6  7  1  0
  7  8  1  0
  8  9  1  0
  9 10  1  0
 10 11  1  0
 11 12  2  0
 12 13  1  0
 13 14  1  0
 14 15  2  0
 15 16  1  0
 16 17  2  0
 17 18  1  0
 18 19  1  0
 19 20  2  0
 20 21  1  0
 21 22  2  0
 22 23  1  0
 23 24  2  0
 16 25  1  0
 10 26  1  0
 26 27  1  0
  4 28  1  0
 28 29  2  0
 29  1  1  0
 27  7  1  0
 25 12  1  0
 24 19  1  0
  1 30  1  0
  2 31  1  0
  3 32  1  0
  5 33  1  0
  5 34  1  0
  6 35  1  0
  6 36  1  0
  8 37  1  0
  8 38  1  0
  9 39  1  0
  9 40  1  0
 10 41  1  0
 13 42  1  0
 14 43  1  0
 15 44  1  0
 18 45  1  0
 18 46  1  0
 20 47  1  0
 21 48  1  0
 22 49  1  0
 23 50  1  0
 24 51  1  0
 25 52  1  0
 26 53  1  0
 26 54  1  0
 27 55  1  0
 27 56  1  0
 28 57  1  0
 29 58  1  0
M  END
>  <smiles>  (87) 
c1ccc(CCN2CCC(N=c3[nH]ccc(=NCc4ccccc4)[nH]3)CC2)cc1

>  <score_type>  (87) 
oracle

>  <origin>  (87) 
adg

>  <m_score__min__energy>  (87) 
-10.33

>  <m_primary>  (87) 
energy

$$$$
87:0
     RDKit          3D

 41 43  0  0  0  0  0  0  0  0999 V2000
   54.7620   26.0040   45.7490 O   0  0  0  0  0  0  0  0  0  0  0  0
   55.9090   26.2760   46.1930 C   0  0  0  0  0  0  0  0  0  0  0  0
   56.4440   25.4440   47.2320 N   0  0  0  0  0  0  0  0  0  0  0  0
   57.3060   24.2850   47.0410 C   0  0  0  0  0  0  0  0  0  0  0  0
   56.7220   23.1120   47.7550 C   0  0  0  0  0  0  0  0  0  0  0  0
   55.4780   23.1160   48.2770 N   0  0  0  0  0  0  0  0  0  0  0  0
   55.3340   21.8750   48.7700 C   0  0  0  0  0  0  0  0  0  0  0  0
   56.4790   21.1540   48.5260 C   0  0  0  0  0  0  0  0  0  0  0  0
   57.3620   21.9300   47.8760 N   0  0  0  0  0  0  0  0  0  0  0  0
   56.6530   27.4350   45.6310 C   0  0  0  0  0  0  0  0  0  0  0  0
   58.0460   27.3500   45.5740 C   0  0  0  0  0  0  0  0  0  0  0  0
   58.9690   28.2780   45.1020 C   0  0  0  0  0  0  0  0  0  0  0  0
   60.1820   27.9350   45.1470 O   0  0  0  0  0  0  0  0  0  0  0  0
   58.7010   29.5410   44.5830 C   0  0  0  0  0  0  0  0  0  0  0  0
   57.4830   30.2070   44.4190 C   0  0  0  0  0  0  0  0  0  0  0  0
   57.5750   31.5690   43.8390 C   0  0  0  0  0  0  0  0  0  0  0  0
   57.8640   31.7020   42.6200 O   0  0  0  0  0  0  0  0  0  0  0  0
   57.3280   32.7400   44.6240 N   0  0  0  0  0  0  0  0  0  0  0  0
   57.4520   32.7920   46.0760 C   0  0  0  0  0  0  0  0  0  0  0  0
   58.9030   32.8960   46.4490 C   0  0  0  0  0  0  0  0  0  0  0  0
   59.6340   34.0500   46.1160 C   0  0  0  0  0  0  0  0  0  0  0  0
   60.9930   34.1390   46.4320 C   0  0  0  0  0  0  0  0  0  0  0  0
   61.6350   33.0750   47.0730 C   0  0  0  0  0  0  0  0  0  0  0  0
   62.9540   33.1630   47.3760 F   0  0  0  0  0  0  0  0  0  0  0  0
   60.9190   31.9180   47.3930 C   0  0  0  0  0  0  0  0  0  0  0  0
   59.5600   31.8220   47.0790 C   0  0  0  0  0  0  0  0  0  0  0  0
   58.8860   30.6840   47.3840 F   0  0  0  0  0  0  0  0  0  0  0  0
   56.2010   29.7180   44.7220 C   0  0  0  0  0  0  0  0  0  0  0  0
   55.2140   30.4700   44.4970 O   0  0  0  0  0  0  0  0  0  0  0  0
   55.9220   28.5040   45.2460 N   0  0  0  0  0  0  0  0  0  0  0  0
   57.3854   24.0592   45.9673 H   0  0  0  0  0  0  0  0  0  0  0  0
   58.3068   24.5002   47.4437 H   0  0  0  0  0  0  0  0  0  0  0  0
   54.4407   21.4952   49.2875 H   0  0  0  0  0  0  0  0  0  0  0  0
   56.6457   20.1064   48.8173 H   0  0  0  0  0  0  0  0  0  0  0  0
   58.4758   26.4132   45.9581 H   0  0  0  0  0  0  0  0  0  0  0  0
   59.5858   30.1031   44.2497 H   0  0  0  0  0  0  0  0  0  0  0  0
   56.9106   33.6695   46.4594 H   0  0  0  0  0  0  0  0  0  0  0  0
   57.0244   31.8782   46.5144 H   0  0  0  0  0  0  0  0  0  0  0  0
   59.1346   34.8862   45.6048 H   0  0  0  0  0  0  0  0  0  0  0  0
   61.5580   35.0474   46.1760 H   0  0  0  0  0  0  0  0  0  0  0  0
   61.4265   31.0802   47.8936 H   0  0  0  0  0  0  0  0  0  0  0  0
  1  2  2  0
  2  3  1  0
  3  4  1  0
  4  5  1  0
  5  6  2  0
  6  7  1  0
  7  8  2  0
  8  9  1  0
  2 10  1  0
 10 11  2  0
 11 12  1  0
 12 13  2  0
 12 14  1  0
 14 15  2  0
 15 16  1  0
 16 17  2  0
 16 18  1  0
 18 19  1  0
 19 20  1  0
 20 21  2  0
 21 22  1  0
 22 23  2  0
 23 24  1  0
 23 25  1  0
 25 26  2  0
 26 27  1  0
 15 28  1  0
 28 29  2  0
 28 30  1  0
  9  5  1  0
 30 10  1  0
 26 20  1  0
  4 31  1  0
  4 32  1  0
  7 33  1  0
  8 34  1  0
 11 35  1  0
 14 36  1  0
 19 37  1  0
 19 38  1  0
 21 39  1  0
 22 40  1  0
 25 41  1  0
M  CHG  4   3  -1   9  -1  18  -1  30  -1
M  END
>  <UniqueID>  (88) 
73

>  <SMILES>  (88) 
O=C([N-]Cc1ncc[n-]1)c1cc(=O)cc(C(=O)[N-]Cc2ccc(F)cc2F)c(=O)[n-]1

>  <Energy>  (88) 
99.39266091903022

>  <Genealogy>  (88) 
O=C([N-]Cc1ncc[n-]1)c1cc(=O)cc(C(=O)[N-]Cc2ccc(F)cc2F)c(=O)[n-]1 (protonated)
O=C([N-]Cc1ncc[n-]1)c1cc(=O)cc(C(=O)[N-]Cc2ccc(F)cc2F)c(=O)[n-]1 (3D coordinates assigned)
O=C([N-]Cc1ncc[n-]1)c1cc(=O)cc(C(=O)[N-]Cc2ccc(F)cc2F)c(=O)[n-]1 (optimized conformer: 99.39266091903022 kcal/mol)

>  <smiles>  (88) 
O=C(NCc1ncc[nH]1)c1cc(=O)cc(C(=O)NCc2ccc(F)cc2F)c(=O)[nH]1

>  <score_type>  (88) 
oracle

>  <origin>  (88) 
adg

>  <m_score__min__energy>  (88) 
-15.720000000000001

>  <m_primary>  (88) 
energy

$$$$
88:0
     RDKit          3D

 43 46  0  0  0  0  0  0  0  0999 V2000
   58.5280   28.5070   46.7080 C   0  0  0  0  0  0  0  0  0  0  0  0
   58.0110   28.7140   45.4870 C   0  0  0  0  0  0  0  0  0  0  0  0
   57.7320   27.7440   44.5080 C   0  0  0  0  0  0  0  0  0  0  0  0
   57.7420   26.3980   44.5640 C   0  0  0  0  0  0  0  0  0  0  0  0
   57.2060   25.5790   45.6620 C   0  0  0  0  0  0  0  0  0  0  0  0
   57.8990   24.6320   46.3220 N   0  0  0  0  0  0  0  0  0  0  0  0
   57.0600   24.2680   47.3160 C   0  0  0  0  0  0  0  0  0  0  0  0
   57.3510   23.3750   48.1540 O   0  0  0  0  0  0  0  0  0  0  0  0
   55.8920   24.9430   47.3480 N   0  0  0  0  0  0  0  0  0  0  0  0
   56.0080   25.7790   46.3030 C   0  0  0  0  0  0  0  0  0  0  0  0
   55.0400   26.7100   45.9470 O   0  0  0  0  0  0  0  0  0  0  0  0
   57.3780   28.4400   43.3640 C   0  0  0  0  0  0  0  0  0  0  0  0
   57.3900   29.7800   43.6890 C   0  0  0  0  0  0  0  0  0  0  0  0
   57.0400   30.8910   42.7470 C   0  0  0  0  0  0  0  0  0  0  0  0
   57.7700   29.9490   44.9750 N   0  0  0  0  0  0  0  0  0  0  0  0
   57.9480   31.2230   45.6180 C   0  0  0  0  0  0  0  0  0  0  0  0
   59.1530   31.5350   46.2570 C   0  0  0  0  0  0  0  0  0  0  0  0
   59.2970   32.8000   46.8500 C   0  0  0  0  0  0  0  0  0  0  0  0
   60.5080   33.1760   47.5330 N   0  0  0  0  0  0  0  0  0  0  0  0
   61.8480   32.8160   47.0970 C   0  0  0  0  0  0  0  0  0  0  0  0
   62.7990   33.5520   48.0320 C   0  0  0  0  0  0  0  0  0  0  0  0
   61.9570   33.9850   49.2290 C   0  0  0  0  0  0  0  0  0  0  0  0
   60.5110   33.9680   48.7510 C   0  0  0  0  0  0  0  0  0  0  0  0
   58.2650   33.6860   46.7730 N   0  0  0  0  0  0  0  0  0  0  0  0
   57.1090   33.3710   46.1340 C   0  0  0  0  0  0  0  0  0  0  0  0
   56.9580   32.1510   45.5600 N   0  0  0  0  0  0  0  0  0  0  0  0
   58.6992   29.3575   47.3842 H   0  0  0  0  0  0  0  0  0  0  0  0
   58.7806   27.4868   47.0326 H   0  0  0  0  0  0  0  0  0  0  0  0
   58.1907   25.8642   43.7133 H   0  0  0  0  0  0  0  0  0  0  0  0
   57.1338   28.0064   42.3830 H   0  0  0  0  0  0  0  0  0  0  0  0
   56.7584   31.7849   43.3228 H   0  0  0  0  0  0  0  0  0  0  0  0
   57.9090   31.1218   42.1132 H   0  0  0  0  0  0  0  0  0  0  0  0
   56.1957   30.5821   42.1132 H   0  0  0  0  0  0  0  0  0  0  0  0
   59.9729   30.8026   46.2943 H   0  0  0  0  0  0  0  0  0  0  0  0
   61.9977   31.7291   47.1759 H   0  0  0  0  0  0  0  0  0  0  0  0
   62.0197   33.0906   46.0458 H   0  0  0  0  0  0  0  0  0  0  0  0
   63.6101   32.8836   48.3565 H   0  0  0  0  0  0  0  0  0  0  0  0
   63.2675   34.4141   47.5348 H   0  0  0  0  0  0  0  0  0  0  0  0
   62.0917   33.2833   50.0653 H   0  0  0  0  0  0  0  0  0  0  0  0
   62.2511   34.9816   49.5900 H   0  0  0  0  0  0  0  0  0  0  0  0
   59.8618   33.5068   49.5098 H   0  0  0  0  0  0  0  0  0  0  0  0
   60.1301   34.9848   48.5747 H   0  0  0  0  0  0  0  0  0  0  0  0
   56.2930   34.1068   46.0816 H   0  0  0  0  0  0  0  0  0  0  0  0
  1  2  2  0
  2  3  1  0
  3  4  2  3
  4  5  1  0
  5  6  1  0
  6  7  1  0
  7  8  2  0
  7  9  1  0
  9 10  1  0
 10 11  1  0
  3 12  1  0
 12 13  2  0
 13 14  1  0
 13 15  1  0
 15 16  1  0
 16 17  2  0
 17 18  1  0
 18 19  1  0
 19 20  1  0
 20 21  1  0
 21 22  1  0
 22 23  1  0
 18 24  2  0
 24 25  1  0
 25 26  2  0
 15  2  1  0
 26 16  1  0
 10  5  2  0
 23 19  1  0
  1 27  1  0
  1 28  1  0
  4 29  1  0
 12 30  1  0
 14 31  1  0
 14 32  1  0
 14 33  1  0
 17 34  1  0
 20 35  1  0
 20 36  1  0
 21 37  1  0
 21 38  1  0
 22 39  1  0
 22 40  1  0
 23 41  1  0
 23 42  1  0
 25 43  1  0
M  CHG  3   6  -1   9  -1  11  -1
M  END
>  <UniqueID>  (89) 
74

>  <SMILES>  (89) 
C=c1c(=Cc2[n-]c(=O)[n-]c2[O-])cc(C)n1-c1cc(N2CCCC2)ncn1

>  <Energy>  (89) 
121.95370536226305

>  <Genealogy>  (89) 
C=c1c(=Cc2[n-]c(=O)[n-]c2[O-])cc(C)n1-c1cc(N2CCCC2)ncn1 (protonated)
C=c1c(=Cc2[n-]c(=O)[n-]c2[O-])cc(C)n1-c1cc(N2CCCC2)ncn1 (3D coordinates assigned)
C=c1c(=Cc2[n-]c(=O)[n-]c2[O-])cc(C)n1-c1cc(N2CCCC2)ncn1 (nonaromatic ring conformer: 121.95370536226305 kcal/mol)

>  <smiles>  (89) 
C=c1c(=Cc2[nH]c(=O)[nH]c2O)cc(C)n1-c1cc(N2CCCC2)ncn1

>  <score_type>  (89) 
oracle

>  <origin>  (89) 
adg

>  <m_score__min__energy>  (89) 
-15.720000000000001

>  <m_primary>  (89) 
energy

$$$$
89:0
     RDKit          3D

 52 55  0  0  0  0  0  0  0  0999 V2000
   58.6360   30.0170   46.6530 C   0  0  0  0  0  0  0  0  0  0  0  0
   57.7500   31.0210   45.4220 S   0  0  0  0  0  0  0  0  0  0  0  0
   58.5980   32.5360   45.8770 C   0  0  0  0  0  0  0  0  0  0  0  0
   58.2470   33.7440   45.2650 C   0  0  0  0  0  0  0  0  0  0  0  0
   58.9080   34.9230   45.6170 C   0  0  0  0  0  0  0  0  0  0  0  0
   59.9210   34.8990   46.5790 C   0  0  0  0  0  0  0  0  0  0  0  0
   60.2810   33.6920   47.2040 C   0  0  0  0  0  0  0  0  0  0  0  0
   61.3580   33.6590   48.1620 N   0  0  0  0  0  0  0  0  0  0  0  0
   62.7110   33.3880   47.8140 C   0  0  0  0  0  0  0  0  0  0  0  0
   63.0840   33.2640   46.6160 O   0  0  0  0  0  0  0  0  0  0  0  0
   63.6700   33.2840   48.9330 C   0  0  0  0  0  0  0  0  0  0  0  0
   62.7360   33.5930   50.4670 S   0  0  0  0  0  0  0  0  0  0  0  0
   61.1500   33.8680   49.5920 C   0  0  2  0  0  0  0  0  0  0  0  0
   60.1040   32.9190   50.1290 C   0  0  0  0  0  0  0  0  0  0  0  0
   58.9470   33.4180   50.7500 C   0  0  0  0  0  0  0  0  0  0  0  0
   57.9770   32.5400   51.2430 C   0  0  0  0  0  0  0  0  0  0  0  0
   58.1540   31.1530   51.1330 C   0  0  0  0  0  0  0  0  0  0  0  0
   57.1310   30.2200   51.6420 C   0  0  0  0  0  0  0  0  0  0  0  0
   57.4820   29.0670   52.0070 O   0  0  0  0  0  0  0  0  0  0  0  0
   55.7550   30.5990   51.7770 N   0  0  0  0  0  0  0  0  0  0  0  0
   54.7140   29.7490   52.3420 C   0  0  0  0  0  0  0  0  0  0  0  0
   53.4110   30.4940   52.3450 C   0  0  0  0  0  0  0  0  0  0  0  0
   52.6000   30.4930   53.4910 C   0  0  0  0  0  0  0  0  0  0  0  0
   51.4010   31.2120   53.5060 C   0  0  0  0  0  0  0  0  0  0  0  0
   51.0080   31.9420   52.3820 C   0  0  0  0  0  0  0  0  0  0  0  0
   51.8160   31.9630   51.2400 C   0  0  0  0  0  0  0  0  0  0  0  0
   51.4120   32.7000   50.1280 O   0  0  0  0  0  0  0  0  0  0  0  0
   53.0190   31.2440   51.2230 C   0  0  0  0  0  0  0  0  0  0  0  0
   59.3000   30.6540   50.4980 C   0  0  0  0  0  0  0  0  0  0  0  0
   60.2740   31.5300   50.0130 C   0  0  0  0  0  0  0  0  0  0  0  0
   59.6180   32.5080   46.8360 C   0  0  0  0  0  0  0  0  0  0  0  0
   58.3502   30.3409   47.6646 H   0  0  0  0  0  0  0  0  0  0  0  0
   58.3734   28.9572   46.5194 H   0  0  0  0  0  0  0  0  0  0  0  0
   59.7202   30.1457   46.5194 H   0  0  0  0  0  0  0  0  0  0  0  0
   57.4505   33.7653   44.5066 H   0  0  0  0  0  0  0  0  0  0  0  0
   58.6305   35.8724   45.1358 H   0  0  0  0  0  0  0  0  0  0  0  0
   60.4402   35.8303   46.8492 H   0  0  0  0  0  0  0  0  0  0  0  0
   64.1141   32.2779   48.9575 H   0  0  0  0  0  0  0  0  0  0  0  0
   64.4871   34.0114   48.8181 H   0  0  0  0  0  0  0  0  0  0  0  0
   60.7972   34.8970   49.7555 H   0  0  0  0  0  0  0  0  0  0  0  0
   58.8035   34.5041   50.8488 H   0  0  0  0  0  0  0  0  0  0  0  0
   57.0698   32.9393   51.7199 H   0  0  0  0  0  0  0  0  0  0  0  0
   54.6144   28.8374   51.7346 H   0  0  0  0  0  0  0  0  0  0  0  0
   54.9828   29.4736   53.3725 H   0  0  0  0  0  0  0  0  0  0  0  0
   52.9091   29.9244   54.3805 H   0  0  0  0  0  0  0  0  0  0  0  0
   50.7663   31.2027   54.4043 H   0  0  0  0  0  0  0  0  0  0  0  0
   50.0611   32.5017   52.3947 H   0  0  0  0  0  0  0  0  0  0  0  0
   51.9720   32.7380   49.2830 H   0  0  0  0  0  0  0  0  0  0  0  0
   53.6586   31.2668   50.3283 H   0  0  0  0  0  0  0  0  0  0  0  0
   59.4327   29.5683   50.3812 H   0  0  0  0  0  0  0  0  0  0  0  0
   61.1808   31.1288   49.5367 H   0  0  0  0  0  0  0  0  0  0  0  0
   59.9022   31.5541   47.3042 H   0  0  0  0  0  0  0  0  0  0  0  0
  1  2  1  0
  2  3  1  0
  3  4  2  0
  4  5  1  0
  5  6  2  0
  6  7  1  0
  7  8  1  0
  8  9  1  0
  9 10  2  0
  9 11  1  0
 11 12  1  0
 12 13  1  0
 13 14  1  0
 14 15  2  0
 15 16  1  0
 16 17  2  0
 17 18  1  0
 18 19  2  0
 18 20  1  0
 20 21  1  0
 21 22  1  0
 22 23  2  0
 23 24  1  0
 24 25  2  0
 25 26  1  0
 26 27  1  0
 26 28  2  0
 17 29  1  0
 29 30  2  0
  7 31  2  0
 31  3  1  0
 13  8  1  0
 30 14  1  0
 28 22  1  0
  1 32  1  0
  1 33  1  0
  1 34  1  0
  4 35  1  0
  5 36  1  0
  6 37  1  0
 11 38  1  0
 11 39  1  0
 13 40  1  6
 15 41  1  0
 16 42  1  0
 21 43  1  0
 21 44  1  0
 23 45  1  0
 24 46  1  0
 25 47  1  0
 27 48  1  0
 28 49  1  0
 29 50  1  0
 30 51  1  0
 31 52  1  0
M  CHG  1  20  -1
M  END
>  <UniqueID>  (90) 
75

>  <SMILES>  (90) 
CSc1cccc(N2C(=O)CS[C@@H]2c2ccc(C(=O)[N-]Cc3cccc(O)c3)cc2)c1

>  <Energy>  (90) 
56.61931155425168

>  <Genealogy>  (90) 
CSc1cccc(N2C(=O)CSC2c2ccc(C(=O)[N-]Cc3cccc(O)c3)cc2)c1 (protonated)
CSc1cccc(N2C(=O)CS[C@@H]2c2ccc(C(=O)[N-]Cc3cccc(O)c3)cc2)c1 (chirality)
CSc1cccc(N2C(=O)CS[C@@H]2c2ccc(C(=O)[N-]Cc3cccc(O)c3)cc2)c1 (3D coordinates assigned)
CSc1cccc(N2C(=O)CS[C@@H]2c2ccc(C(=O)[N-]Cc3cccc(O)c3)cc2)c1 (nonaromatic ring conformer: 56.61931155425168 kcal/mol)

>  <smiles>  (90) 
CSc1cccc(N2C(=O)CSC2c2ccc(C(=O)NCc3cccc(O)c3)cc2)c1

>  <score_type>  (90) 
oracle

>  <origin>  (90) 
adg

>  <m_score__min__energy>  (90) 
-11.43

>  <m_primary>  (90) 
energy

$$$$
90:0
     RDKit          3D

 50 53  0  0  0  0  0  0  0  0999 V2000
   56.4500   29.3510   44.4770 C   0  0  0  0  0  0  0  0  0  0  0  0
   57.7020   28.9480   44.7450 C   0  0  0  0  0  0  0  0  0  0  0  0
   58.1520   27.6250   44.8850 C   0  0  0  0  0  0  0  0  0  0  0  0
   57.5610   26.4540   44.5820 C   0  0  0  0  0  0  0  0  0  0  0  0
   56.9810   25.5100   45.5520 C   0  0  0  0  0  0  0  0  0  0  0  0
   57.6250   24.4440   46.0630 N   0  0  0  0  0  0  0  0  0  0  0  0
   56.7630   23.9750   46.9910 C   0  0  0  0  0  0  0  0  0  0  0  0
   57.0040   22.9550   47.6880 O   0  0  0  0  0  0  0  0  0  0  0  0
   55.6260   24.6920   47.1230 N   0  0  0  0  0  0  0  0  0  0  0  0
   55.7880   25.6670   46.2140 C   0  0  0  0  0  0  0  0  0  0  0  0
   54.8670   26.6840   45.9980 O   0  0  0  0  0  0  0  0  0  0  0  0
   59.4290   27.7050   45.4190 C   0  0  0  0  0  0  0  0  0  0  0  0
   59.7410   29.0450   45.5090 C   0  0  0  0  0  0  0  0  0  0  0  0
   61.0480   29.5810   46.0100 C   0  0  0  0  0  0  0  0  0  0  0  0
   58.6960   29.8000   45.1040 N   0  0  0  0  0  0  0  0  0  0  0  0
   58.6550   31.2380   45.0900 C   0  0  0  0  0  0  0  0  0  0  0  0
   58.0800   31.9210   44.0080 C   0  0  0  0  0  0  0  0  0  0  0  0
   58.0310   33.3180   44.0060 C   0  0  0  0  0  0  0  0  0  0  0  0
   58.5510   34.0390   45.0830 C   0  0  0  0  0  0  0  0  0  0  0  0
   59.1230   33.3670   46.1730 C   0  0  0  0  0  0  0  0  0  0  0  0
   59.7470   34.2760   47.5520 S   0  0  0  0  0  0  0  0  0  0  0  0
   59.2040   33.6830   48.8220 O   0  0  0  0  0  0  0  0  0  0  0  0
   59.2720   35.7000   47.4620 O   0  0  0  0  0  0  0  0  0  0  0  0
   61.4950   34.2450   47.6040 N   0  0  0  0  0  0  0  0  0  0  0  0
   62.0440   33.8550   46.2900 C   0  0  0  0  0  0  0  0  0  0  0  0
   63.4920   33.3660   46.4230 C   0  0  0  0  0  0  0  0  0  0  0  0
   63.5890   32.1640   47.2730 N   0  0  0  0  0  0  0  0  0  0  0  0
   62.5090   32.0460   48.2700 C   0  0  0  0  0  0  0  0  0  0  0  0
   61.9940   33.4200   48.7300 C   0  0  0  0  0  0  0  0  0  0  0  0
   59.1810   31.9660   46.1680 C   0  0  0  0  0  0  0  0  0  0  0  0
   56.2241   30.4241   44.3916 H   0  0  0  0  0  0  0  0  0  0  0  0
   55.6499   28.6081   44.3428 H   0  0  0  0  0  0  0  0  0  0  0  0
   57.5067   26.1787   43.5184 H   0  0  0  0  0  0  0  0  0  0  0  0
   60.0702   26.8613   45.7142 H   0  0  0  0  0  0  0  0  0  0  0  0
   61.0470   29.5806   47.1100 H   0  0  0  0  0  0  0  0  0  0  0  0
   61.8689   28.9469   45.6438 H   0  0  0  0  0  0  0  0  0  0  0  0
   61.1873   30.6089   45.6438 H   0  0  0  0  0  0  0  0  0  0  0  0
   57.6668   31.3561   43.1594 H   0  0  0  0  0  0  0  0  0  0  0  0
   57.5820   33.8504   43.1545 H   0  0  0  0  0  0  0  0  0  0  0  0
   58.5118   35.1383   45.0764 H   0  0  0  0  0  0  0  0  0  0  0  0
   61.4285   33.0466   45.8684 H   0  0  0  0  0  0  0  0  0  0  0  0
   62.0301   34.7342   45.6291 H   0  0  0  0  0  0  0  0  0  0  0  0
   63.8802   33.1264   45.4220 H   0  0  0  0  0  0  0  0  0  0  0  0
   64.0810   34.1664   46.8946 H   0  0  0  0  0  0  0  0  0  0  0  0
   64.5070   32.1970   47.7780 H   0  0  0  0  0  0  0  0  0  0  0  0
   61.6742   31.4854   47.8240 H   0  0  0  0  0  0  0  0  0  0  0  0
   62.9151   31.5246   49.1493 H   0  0  0  0  0  0  0  0  0  0  0  0
   61.1733   33.2674   49.4464 H   0  0  0  0  0  0  0  0  0  0  0  0
   62.8373   33.9564   49.1895 H   0  0  0  0  0  0  0  0  0  0  0  0
   59.6415   31.4347   47.0140 H   0  0  0  0  0  0  0  0  0  0  0  0
  1  2  2  0
  2  3  1  0
  3  4  2  3
  4  5  1  0
  5  6  1  0
  6  7  1  0
  7  8  2  0
  7  9  1  0
  9 10  1  0
 10 11  1  0
  3 12  1  0
 12 13  2  0
 13 14  1  0
 13 15  1  0
 15 16  1  0
 16 17  2  0
 17 18  1  0
 18 19  2  0
 19 20  1  0
 20 21  1  0
 21 22  2  0
 21 23  2  0
 21 24  1  0
 24 25  1  0
 25 26  1  0
 26 27  1  0
 27 28  1  0
 28 29  1  0
 20 30  2  0
 15  2  1  0
 30 16  1  0
 10  5  2  0
 29 24  1  0
  1 31  1  0
  1 32  1  0
  4 33  1  0
 12 34  1  0
 14 35  1  0
 14 36  1  0
 14 37  1  0
 17 38  1  0
 18 39  1  0
 19 40  1  0
 25 41  1  0
 25 42  1  0
 26 43  1  0
 26 44  1  0
 27 45  1  0
 28 46  1  0
 28 47  1  0
 29 48  1  0
 29 49  1  0
 30 50  1  0
M  CHG  3   6  -1   9  -1  11  -1
M  END
>  <UniqueID>  (91) 
76

>  <SMILES>  (91) 
C=c1c(=Cc2[n-]c(=O)[n-]c2[O-])cc(C)n1-c1cccc(S(=O)(=O)N2CCNCC2)c1

>  <Energy>  (91) 
134.95269929390997

>  <Genealogy>  (91) 
C=c1c(=Cc2[n-]c(=O)[n-]c2[O-])cc(C)n1-c1cccc(S(=O)(=O)N2CCNCC2)c1 (protonated)
C=c1c(=Cc2[n-]c(=O)[n-]c2[O-])cc(C)n1-c1cccc(S(=O)(=O)N2CCNCC2)c1 (3D coordinates assigned)
C=c1c(=Cc2[n-]c(=O)[n-]c2[O-])cc(C)n1-c1cccc(S(=O)(=O)N2CCNCC2)c1 (nonaromatic ring conformer: 134.95269929390997 kcal/mol)

>  <smiles>  (91) 
C=c1c(=Cc2[nH]c(=O)[nH]c2O)cc(C)n1-c1cccc(S(=O)(=O)N2CCNCC2)c1

>  <score_type>  (91) 
oracle

>  <origin>  (91) 
adg

>  <m_score__min__energy>  (91) 
-17.27

>  <m_primary>  (91) 
energy

$$$$
91:0
     RDKit          3D

 37 39  0  0  0  0  0  0  0  0999 V2000
   55.5450   29.3640   42.2800 H   0  0  0  0  0  0  0  0  0  0  0  0
   56.2320   30.0810   42.4810 O   0  0  0  0  0  0  0  0  0  0  0  0
   56.8380   30.1780   43.7320 C   0  0  0  0  0  0  0  0  0  0  0  0
   57.3750   31.3950   44.1730 C   0  0  0  0  0  0  0  0  0  0  0  0
   57.3199   32.2852   43.5292 H   0  0  0  0  0  0  0  0  0  0  0  0
   57.9810   31.4790   45.4310 C   0  0  0  0  0  0  0  0  0  0  0  0
   58.4129   32.4335   45.7662 H   0  0  0  0  0  0  0  0  0  0  0  0
   58.0420   30.3570   46.2670 C   0  0  0  0  0  0  0  0  0  0  0  0
   58.6900   30.4840   47.5410 N   0  0  0  0  0  0  0  0  0  0  0  0
   58.9190   29.4350   48.4900 C   0  0  0  0  0  0  0  0  0  0  0  0
   58.6800   28.2340   48.1850 O   0  0  0  0  0  0  0  0  0  0  0  0
   59.3720   29.7850   49.8060 N   0  0  0  0  0  0  0  0  0  0  0  0
   58.6300   29.9140   50.8670 C   0  0  0  0  0  0  0  0  0  0  0  0
   59.0790   29.5860   52.0960 N   0  0  0  0  0  0  0  0  0  0  0  0
   58.0360   29.8530   52.9000 C   0  0  0  0  0  0  0  0  0  0  0  0
   58.0168   29.7108   53.9906 H   0  0  0  0  0  0  0  0  0  0  0  0
   56.9960   30.3330   52.1380 C   0  0  0  0  0  0  0  0  0  0  0  0
   55.6350   30.7030   52.6370 C   0  0  0  0  0  0  0  0  0  0  0  0
   55.6543   30.7522   53.7357 H   0  0  0  0  0  0  0  0  0  0  0  0
   55.3577   31.6806   52.2159 H   0  0  0  0  0  0  0  0  0  0  0  0
   54.3970   29.4660   52.1140 S   0  0  0  0  0  0  0  0  0  0  0  0
   53.0080   30.6030   52.1620 C   0  0  0  0  0  0  0  0  0  0  0  0
   52.3660   30.8750   53.3770 C   0  0  0  0  0  0  0  0  0  0  0  0
   52.7106   30.3885   54.3014 H   0  0  0  0  0  0  0  0  0  0  0  0
   51.2880   31.7640   53.4160 C   0  0  0  0  0  0  0  0  0  0  0  0
   50.7886   31.9809   54.3718 H   0  0  0  0  0  0  0  0  0  0  0  0
   50.8440   32.3780   52.2400 C   0  0  0  0  0  0  0  0  0  0  0  0
   49.9971   33.0793   52.2722 H   0  0  0  0  0  0  0  0  0  0  0  0
   51.4760   32.1010   51.0230 C   0  0  0  0  0  0  0  0  0  0  0  0
   51.0340   32.7080   49.8550 O   0  0  0  0  0  0  0  0  0  0  0  0
   52.5570   31.2110   50.9840 C   0  0  0  0  0  0  0  0  0  0  0  0
   53.0521   30.9895   50.0270 H   0  0  0  0  0  0  0  0  0  0  0  0
   57.3580   30.3720   50.8450 N   0  0  0  0  0  0  0  0  0  0  0  0
   57.5200   29.1310   45.8110 C   0  0  0  0  0  0  0  0  0  0  0  0
   57.5875   28.2359   46.4468 H   0  0  0  0  0  0  0  0  0  0  0  0
   56.9160   29.0480   44.5520 C   0  0  0  0  0  0  0  0  0  0  0  0
   56.5008   28.0901   44.2057 H   0  0  0  0  0  0  0  0  0  0  0  0
  1  2  1  0
  2  3  1  0
  3  4  2  0
  4  5  1  0
  4  6  1  0
  6  7  1  0
  6  8  2  0
  8  9  1  0
  9 10  1  0
 10 11  2  0
 10 12  1  0
 12 13  2  0
 13 14  1  0
 14 15  1  0
 15 16  1  0
 15 17  2  0
 17 18  1  0
 18 19  1  0
 18 20  1  0
 18 21  1  0
 21 22  1  0
 22 23  2  0
 23 24  1  0
 23 25  1  0
 25 26  1  0
 25 27  2  0
 27 28  1  0
 27 29  1  0
 29 30  1  0
 29 31  2  0
 31 32  1  0
 17 33  1  0
  8 34  1  0
 34 35  1  0
 34 36  2  0
 36 37  1  0
 36  3  1  0
 33 13  1  0
 31 22  1  0
M  CHG  4   9  -1  14  -1  30  -1  33  -1
M  END
>  <UniqueID>  (92) 
77

>  <SMILES>  (92) 
O=C(/N=c1/[n-]cc(CSc2cccc([O-])c2)[n-]1)[N-]c1ccc(O)cc1

>  <Energy>  (92) 
66.84698966060165

>  <Genealogy>  (92) 
O=C(N=c1[n-]cc(CSc2cccc([O-])c2)[n-]1)[N-]c1ccc(O)cc1 (protonated)
O=C(/N=c1/[n-]cc(CSc2cccc([O-])c2)[n-]1)[N-]c1ccc(O)cc1 (cis-trans isomerization)
O=C(/N=c1/[n-]cc(CSc2cccc([O-])c2)[n-]1)[N-]c1ccc(O)cc1 (3D coordinates assigned)
O=C(/N=c1/[n-]cc(CSc2cccc([O-])c2)[n-]1)[N-]c1ccc(O)cc1 (optimized conformer: 66.84698966060165 kcal/mol)

>  <smiles>  (92) 
O=C(N=c1[nH]cc(CSc2cccc(O)c2)[nH]1)Nc1ccc(O)cc1

>  <score_type>  (92) 
oracle

>  <origin>  (92) 
adg

>  <m_score__min__energy>  (92) 
-14.76

>  <m_primary>  (92) 
energy

$$$$
92:0
     RDKit          3D

 43 45  0  0  0  0  0  0  0  0999 V2000
   61.2320   34.2700   45.6190 H   0  0  0  0  0  0  0  0  0  0  0  0
   61.8640   33.5870   46.0210 O   0  0  0  0  0  0  0  0  0  0  0  0
   62.1310   33.5480   47.3890 C   0  0  0  0  0  0  0  0  0  0  0  0
   63.3800   33.0880   47.8270 C   0  0  0  0  0  0  0  0  0  0  0  0
   64.1122   32.7132   47.0966 H   0  0  0  0  0  0  0  0  0  0  0  0
   63.6990   33.1030   49.1830 C   0  0  0  0  0  0  0  0  0  0  0  0
   64.6786   32.7408   49.5284 H   0  0  0  0  0  0  0  0  0  0  0  0
   62.7630   33.5820   50.0960 C   0  0  0  0  0  0  0  0  0  0  0  0
   63.0068   33.6125   51.1682 H   0  0  0  0  0  0  0  0  0  0  0  0
   61.5480   34.0120   49.6630 N   0  0  0  0  0  0  0  0  0  0  0  0
   61.1880   33.9960   48.3500 C   0  0  0  0  0  0  0  0  0  0  0  0
   59.9920   34.4220   48.0470 N   0  0  0  0  0  0  0  0  0  0  0  0
   59.4670   34.7490   46.7550 C   0  0  0  0  0  0  0  0  0  0  0  0
   59.9850   35.6970   46.1060 O   0  0  0  0  0  0  0  0  0  0  0  0
   58.1860   34.1120   46.2680 C   0  0  0  0  0  0  0  0  0  0  0  0
   57.3870   34.8666   46.3135 H   0  0  0  0  0  0  0  0  0  0  0  0
   57.7270   32.9480   47.1840 C   0  0  0  0  0  0  0  0  0  0  0  0
   58.1920   33.0671   48.1737 H   0  0  0  0  0  0  0  0  0  0  0  0
   56.6302   32.9806   47.2606 H   0  0  0  0  0  0  0  0  0  0  0  0
   58.1290   31.5860   46.6050 C   0  0  0  0  0  0  0  0  0  0  0  0
   59.2233   31.5552   46.4973 H   0  0  0  0  0  0  0  0  0  0  0  0
   57.7742   30.8062   47.2949 H   0  0  0  0  0  0  0  0  0  0  0  0
   57.5090   31.3390   45.2760 N   0  0  0  0  0  0  0  0  0  0  0  0
   58.2370   30.2890   44.5310 C   0  0  0  0  0  0  0  0  0  0  0  0
   57.9003   30.2919   43.4838 H   0  0  0  0  0  0  0  0  0  0  0  0
   59.3148   30.5009   44.5900 H   0  0  0  0  0  0  0  0  0  0  0  0
   57.9820   28.9280   45.1270 C   0  0  0  0  0  0  0  0  0  0  0  0
   59.0610   28.1040   45.4850 C   0  0  0  0  0  0  0  0  0  0  0  0
   60.0922   28.4616   45.3482 H   0  0  0  0  0  0  0  0  0  0  0  0
   58.8300   26.8300   46.0150 C   0  0  0  0  0  0  0  0  0  0  0  0
   59.6791   26.1898   46.2966 H   0  0  0  0  0  0  0  0  0  0  0  0
   57.5220   26.3700   46.1870 C   0  0  0  0  0  0  0  0  0  0  0  0
   57.3421   25.3686   46.6050 H   0  0  0  0  0  0  0  0  0  0  0  0
   56.4410   27.1820   45.8280 C   0  0  0  0  0  0  0  0  0  0  0  0
   55.1410   26.7220   45.9950 O   0  0  0  0  0  0  0  0  0  0  0  0
   56.6690   28.4560   45.2970 C   0  0  0  0  0  0  0  0  0  0  0  0
   55.8173   29.0909   45.0114 H   0  0  0  0  0  0  0  0  0  0  0  0
   57.3340   32.5660   44.4520 C   0  0  0  0  0  0  0  0  0  0  0  0
   57.4546   32.2985   43.3918 H   0  0  0  0  0  0  0  0  0  0  0  0
   56.3300   32.9653   44.6581 H   0  0  0  0  0  0  0  0  0  0  0  0
   58.3500   33.6610   44.8010 C   0  0  0  0  0  0  0  0  0  0  0  0
   59.3674   33.2688   44.6557 H   0  0  0  0  0  0  0  0  0  0  0  0
   58.1762   34.5261   44.1442 H   0  0  0  0  0  0  0  0  0  0  0  0
  1  2  1  0
  2  3  1  0
  3  4  2  0
  4  5  1  0
  4  6  1  0
  6  7  1  0
  6  8  2  0
  8  9  1  0
  8 10  1  0
 10 11  1  0
 11 12  2  0
 12 13  1  0
 13 14  2  0
 13 15  1  0
 15 16  1  0
 15 17  1  0
 17 18  1  0
 17 19  1  0
 17 20  1  0
 20 21  1  0
 20 22  1  0
 20 23  1  0
 23 24  1  0
 24 25  1  0
 24 26  1  0
 24 27  1  0
 27 28  2  0
 28 29  1  0
 28 30  1  0
 30 31  1  0
 30 32  2  0
 32 33  1  0
 32 34  1  0
 34 35  1  0
 34 36  2  0
 36 37  1  0
 23 38  1  0
 38 39  1  0
 38 40  1  0
 38 41  1  0
 41 42  1  0
 41 43  1  0
 11  3  1  0
 41 15  1  0
 36 27  1  0
M  CHG  2  10  -1  35  -1
M  END
>  <UniqueID>  (93) 
78

>  <SMILES>  (93) 
O=C(/N=c1/[n-]cccc1O)C1CCN(Cc2cccc([O-])c2)CC1

>  <Energy>  (93) 
66.09843078810782

>  <Genealogy>  (93) 
O=C(N=c1[n-]cccc1O)C1CCN(Cc2cccc([O-])c2)CC1 (protonated)
O=C(/N=c1/[n-]cccc1O)C1CCN(Cc2cccc([O-])c2)CC1 (cis-trans isomerization)
O=C(/N=c1/[n-]cccc1O)C1CCN(Cc2cccc([O-])c2)CC1 (3D coordinates assigned)
O=C(/N=c1/[n-]cccc1O)C1CCN(Cc2cccc([O-])c2)CC1 (nonaromatic ring conformer: 66.09843078810782 kcal/mol)

>  <smiles>  (93) 
O=C(N=c1[nH]cccc1O)C1CCN(Cc2cccc(O)c2)CC1

>  <score_type>  (93) 
oracle

>  <origin>  (93) 
adg

>  <m_score__min__energy>  (93) 
-13.390000000000001

>  <m_primary>  (93) 
energy

$$$$
93:0
     RDKit          3D

 55 57  0  0  0  0  0  0  0  0999 V2000
   60.6060   34.5580   48.4310 C   0  0  0  0  0  0  0  0  0  0  0  0
   60.7090   33.8460   47.2020 O   0  0  0  0  0  0  0  0  0  0  0  0
   59.6360   33.2110   46.5560 C   0  0  0  0  0  0  0  0  0  0  0  0
   58.5290   33.9370   46.0760 C   0  0  0  0  0  0  0  0  0  0  0  0
   57.4760   33.2820   45.4370 C   0  0  0  0  0  0  0  0  0  0  0  0
   57.5190   31.9000   45.2370 C   0  0  0  0  0  0  0  0  0  0  0  0
   56.4310   31.2610   44.5580 N   0  0  0  0  0  0  0  0  0  0  0  0
   56.2160   29.8480   44.4150 C   0  0  0  0  0  0  0  0  0  0  0  0
   55.1540   29.3510   44.8730 O   0  0  0  0  0  0  0  0  0  0  0  0
   57.1810   28.9480   43.6900 C   0  0  0  0  0  0  0  0  0  0  0  0
   57.9270   28.1190   44.6360 N   0  0  0  0  0  0  0  0  0  0  0  0
   57.4200   27.6920   45.9090 C   0  0  0  0  0  0  0  0  0  0  0  0
   57.7760   28.3040   46.9490 O   0  0  0  0  0  0  0  0  0  0  0  0
   56.5270   26.5340   46.0330 C   0  0  0  0  0  0  0  0  0  0  0  0
   55.2820   26.7060   45.9730 O   0  0  0  0  0  0  0  0  0  0  0  0
   57.0890   25.2210   46.1590 N   0  0  0  0  0  0  0  0  0  0  0  0
   56.8540   24.0850   45.3090 C   0  0  0  0  0  0  0  0  0  0  0  0
   56.5550   22.8070   45.8210 C   0  0  0  0  0  0  0  0  0  0  0  0
   56.2930   21.7420   44.9540 C   0  0  0  0  0  0  0  0  0  0  0  0
   56.3510   21.9320   43.5720 C   0  0  0  0  0  0  0  0  0  0  0  0
   56.6840   23.1850   43.0540 C   0  0  0  0  0  0  0  0  0  0  0  0
   56.9390   24.2600   43.9170 C   0  0  0  0  0  0  0  0  0  0  0  0
   57.2680   25.5120   43.3970 O   0  0  0  0  0  0  0  0  0  0  0  0
   58.5970   31.1640   45.7490 C   0  0  0  0  0  0  0  0  0  0  0  0
   59.6600   31.8100   46.3970 C   0  0  0  0  0  0  0  0  0  0  0  0
   60.9980   30.8340   47.0230 S   0  0  0  0  0  0  0  0  0  0  0  0
   62.2250   31.6890   47.1840 O   0  0  0  0  0  0  0  0  0  0  0  0
   61.3250   29.7680   46.0140 O   0  0  0  0  0  0  0  0  0  0  0  0
   60.6140   30.0710   48.5540 N   0  0  0  0  0  0  0  0  0  0  0  0
   61.3820   30.6300   49.6810 C   0  0  0  0  0  0  0  0  0  0  0  0
   60.7350   31.8910   50.2980 C   0  0  0  0  0  0  0  0  0  0  0  0
   59.5160   32.2400   49.6770 O   0  0  0  0  0  0  0  0  0  0  0  0
   58.6420   31.1350   49.7040 C   0  0  0  0  0  0  0  0  0  0  0  0
   59.1600   29.9950   48.8070 C   0  0  0  0  0  0  0  0  0  0  0  0
   60.7076   33.8555   49.2713 H   0  0  0  0  0  0  0  0  0  0  0  0
   61.4043   35.3128   48.4855 H   0  0  0  0  0  0  0  0  0  0  0  0
   59.6265   35.0556   48.4855 H   0  0  0  0  0  0  0  0  0  0  0  0
   58.4943   35.0288   46.2059 H   0  0  0  0  0  0  0  0  0  0  0  0
   56.6059   33.8576   45.0882 H   0  0  0  0  0  0  0  0  0  0  0  0
   56.6206   28.2966   43.0033 H   0  0  0  0  0  0  0  0  0  0  0  0
   57.8928   29.5719   43.1296 H   0  0  0  0  0  0  0  0  0  0  0  0
   56.5275   22.6462   46.9088 H   0  0  0  0  0  0  0  0  0  0  0  0
   56.0406   20.7520   45.3616 H   0  0  0  0  0  0  0  0  0  0  0  0
   56.1345   21.0951   42.8918 H   0  0  0  0  0  0  0  0  0  0  0  0
   56.7465   23.3292   41.9653 H   0  0  0  0  0  0  0  0  0  0  0  0
   57.0020   26.3690   43.8700 H   0  0  0  0  0  0  0  0  0  0  0  0
   58.6092   30.0693   45.6414 H   0  0  0  0  0  0  0  0  0  0  0  0
   61.4630   29.8611   50.4634 H   0  0  0  0  0  0  0  0  0  0  0  0
   62.3653   30.9281   49.2883 H   0  0  0  0  0  0  0  0  0  0  0  0
   60.5445   31.7021   51.3648 H   0  0  0  0  0  0  0  0  0  0  0  0
   61.4335   32.7278   50.1501 H   0  0  0  0  0  0  0  0  0  0  0  0
   58.5582   30.7686   50.7378 H   0  0  0  0  0  0  0  0  0  0  0  0
   57.6603   31.4573   49.3267 H   0  0  0  0  0  0  0  0  0  0  0  0
   58.9399   29.0356   49.2981 H   0  0  0  0  0  0  0  0  0  0  0  0
   58.6529   30.0863   47.8351 H   0  0  0  0  0  0  0  0  0  0  0  0
  1  2  1  0
  2  3  1  0
  3  4  2  0
  4  5  1  0
  5  6  2  0
  6  7  1  0
  7  8  1  0
  8  9  2  0
  8 10  1  0
 10 11  1  0
 11 12  1  0
 12 13  2  0
 12 14  1  0
 14 15  2  0
 14 16  1  0
 16 17  1  0
 17 18  2  0
 18 19  1  0
 19 20  2  0
 20 21  1  0
 21 22  2  0
 22 23  1  0
  6 24  1  0
 24 25  2  0
 25 26  1  0
 26 27  2  0
 26 28  2  0
 26 29  1  0
 29 30  1  0
 30 31  1  0
 31 32  1  0
 32 33  1  0
 33 34  1  0
 25  3  1  0
 34 29  1  0
 22 17  1  0
  1 35  1  0
  1 36  1  0
  1 37  1  0
  4 38  1  0
  5 39  1  0
 10 40  1  0
 10 41  1  0
 18 42  1  0
 19 43  1  0
 20 44  1  0
 21 45  1  0
 23 46  1  0
 24 47  1  0
 30 48  1  0
 30 49  1  0
 31 50  1  0
 31 51  1  0
 33 52  1  0
 33 53  1  0
 34 54  1  0
 34 55  1  0
M  CHG  3   7  -1  11  -1  16  -1
M  END
>  <UniqueID>  (94) 
79

>  <SMILES>  (94) 
COc1ccc([N-]C(=O)C[N-]C(=O)C(=O)[N-]c2ccccc2O)cc1S(=O)(=O)N1CCOCC1

>  <Energy>  (94) 
75.88751571429896

>  <Genealogy>  (94) 
COc1ccc([N-]C(=O)C[N-]C(=O)C(=O)[N-]c2ccccc2O)cc1S(=O)(=O)N1CCOCC1 (protonated)
COc1ccc([N-]C(=O)C[N-]C(=O)C(=O)[N-]c2ccccc2O)cc1S(=O)(=O)N1CCOCC1 (3D coordinates assigned)
COc1ccc([N-]C(=O)C[N-]C(=O)C(=O)[N-]c2ccccc2O)cc1S(=O)(=O)N1CCOCC1 (nonaromatic ring conformer: 75.88751571429896 kcal/mol)

>  <smiles>  (94) 
COc1ccc(NC(=O)CNC(=O)C(=O)Nc2ccccc2O)cc1S(=O)(=O)N1CCOCC1

>  <score_type>  (94) 
oracle

>  <origin>  (94) 
adg

>  <m_score__min__energy>  (94) 
-13.34

>  <m_primary>  (94) 
energy

$$$$
94:0
     RDKit          3D

 58 61  0  0  0  0  0  0  0  0999 V2000
   55.9400   29.3320   44.8780 O   0  0  0  0  0  0  0  0  0  0  0  0
   56.4540   28.2470   45.2590 C   0  0  0  0  0  0  0  0  0  0  0  0
   57.9380   28.1420   45.3950 C   0  0  0  0  0  0  0  0  0  0  0  0
   58.4080   28.3460   47.1480 S   0  0  0  0  0  0  0  0  0  0  0  0
   58.5410   30.1460   47.0640 C   0  0  0  0  0  0  0  0  0  0  0  0
   58.2060   30.7490   45.8840 N   0  0  0  0  0  0  0  0  0  0  0  0
   58.2340   32.0990   45.7790 C   0  0  0  0  0  0  0  0  0  0  0  0
   57.8890   32.8310   44.6390 C   0  0  0  0  0  0  0  0  0  0  0  0
   58.0150   34.2060   44.8340 C   0  0  0  0  0  0  0  0  0  0  0  0
   58.5530   34.4940   46.4140 S   0  0  0  0  0  0  0  0  0  0  0  0
   58.6210   32.8710   46.8440 C   0  0  0  0  0  0  0  0  0  0  0  0
   58.9980   32.2790   48.0400 C   0  0  0  0  0  0  0  0  0  0  0  0
   59.3690   33.0020   49.0050 O   0  0  0  0  0  0  0  0  0  0  0  0
   58.9590   30.9050   48.1480 N   0  0  0  0  0  0  0  0  0  0  0  0
   59.4110   30.2730   49.4060 C   0  0  0  0  0  0  0  0  0  0  0  0
   60.7610   29.5560   49.2250 C   0  0  0  0  0  0  0  0  0  0  0  0
   61.8710   30.1800   50.0830 C   0  0  0  0  0  0  0  0  0  0  0  0
   61.8740   31.6880   50.0500 C   0  0  0  0  0  0  0  0  0  0  0  0
   61.4140   32.3430   51.0260 O   0  0  0  0  0  0  0  0  0  0  0  0
   62.4350   32.3910   48.9270 N   0  0  0  0  0  0  0  0  0  0  0  0
   63.0020   31.7410   47.7550 C   0  0  0  0  0  0  0  0  0  0  0  0
   63.3610   32.8680   46.7950 C   0  0  0  0  0  0  0  0  0  0  0  0
   63.3670   34.1470   47.6330 C   0  0  0  0  0  0  0  0  0  0  0  0
   62.5320   33.8400   48.8700 C   0  0  0  0  0  0  0  0  0  0  0  0
   55.6260   27.1420   45.6360 N   0  0  0  0  0  0  0  0  0  0  0  0
   56.0700   26.0360   46.4790 C   0  0  0  0  0  0  0  0  0  0  0  0
   56.5960   24.9050   45.6330 C   0  0  0  0  0  0  0  0  0  0  0  0
   55.8340   24.4110   44.5590 C   0  0  0  0  0  0  0  0  0  0  0  0
   56.3440   23.3980   43.7380 C   0  0  0  0  0  0  0  0  0  0  0  0
   57.6170   22.8710   43.9820 C   0  0  0  0  0  0  0  0  0  0  0  0
   58.3800   23.3560   45.0490 C   0  0  0  0  0  0  0  0  0  0  0  0
   57.8730   24.3670   45.8730 C   0  0  0  0  0  0  0  0  0  0  0  0
   58.2694   27.1552   45.0395 H   0  0  0  0  0  0  0  0  0  0  0  0
   58.4167   28.9294   44.7942 H   0  0  0  0  0  0  0  0  0  0  0  0
   57.9210   30.1680   45.0650 H   0  0  0  0  0  0  0  0  0  0  0  0
   57.5560   32.3742   43.6954 H   0  0  0  0  0  0  0  0  0  0  0  0
   57.7995   34.9796   44.0822 H   0  0  0  0  0  0  0  0  0  0  0  0
   59.5197   31.0499   50.1771 H   0  0  0  0  0  0  0  0  0  0  0  0
   58.6612   29.5258   49.7051 H   0  0  0  0  0  0  0  0  0  0  0  0
   60.6426   28.5008   49.5123 H   0  0  0  0  0  0  0  0  0  0  0  0
   61.0556   29.6540   48.1697 H   0  0  0  0  0  0  0  0  0  0  0  0
   61.7324   29.8538   51.1243 H   0  0  0  0  0  0  0  0  0  0  0  0
   62.8322   29.8431   49.6676 H   0  0  0  0  0  0  0  0  0  0  0  0
   63.9010   31.1698   48.0299 H   0  0  0  0  0  0  0  0  0  0  0  0
   62.2953   31.0301   47.3020 H   0  0  0  0  0  0  0  0  0  0  0  0
   64.3542   32.6941   46.3553 H   0  0  0  0  0  0  0  0  0  0  0  0
   62.6440   32.9336   45.9634 H   0  0  0  0  0  0  0  0  0  0  0  0
   64.3953   34.4107   47.9213 H   0  0  0  0  0  0  0  0  0  0  0  0
   62.9580   34.9997   47.0712 H   0  0  0  0  0  0  0  0  0  0  0  0
   63.0266   34.2274   49.7729 H   0  0  0  0  0  0  0  0  0  0  0  0
   61.5399   34.3124   48.8186 H   0  0  0  0  0  0  0  0  0  0  0  0
   56.8684   26.3890   47.1483 H   0  0  0  0  0  0  0  0  0  0  0  0
   55.2149   25.6720   47.0675 H   0  0  0  0  0  0  0  0  0  0  0  0
   54.8328   24.8224   44.3632 H   0  0  0  0  0  0  0  0  0  0  0  0
   55.7429   23.0158   42.8998 H   0  0  0  0  0  0  0  0  0  0  0  0
   58.0172   22.0762   43.3354 H   0  0  0  0  0  0  0  0  0  0  0  0
   59.3808   22.9419   45.2409 H   0  0  0  0  0  0  0  0  0  0  0  0
   58.4763   24.7428   46.7126 H   0  0  0  0  0  0  0  0  0  0  0  0
  1  2  2  0
  2  3  1  0
  3  4  1  0
  4  5  1  0
  5  6  2  0
  6  7  1  0
  7  8  1  0
  8  9  2  0
  9 10  1  0
 10 11  1  0
 11 12  1  0
 12 13  2  0
 12 14  1  0
 14 15  1  0
 15 16  1  0
 16 17  1  0
 17 18  1  0
 18 19  2  0
 18 20  1  0
 20 21  1  0
 21 22  1  0
 22 23  1  0
 23 24  1  0
  2 25  1  0
 25 26  1  0
 26 27  1  0
 27 28  2  0
 28 29  1  0
 29 30  2  0
 30 31  1  0
 31 32  2  0
 14  5  1  0
 24 20  1  0
 32 27  1  0
 11  7  2  0
  3 33  1  0
  3 34  1  0
  6 35  1  0
  8 36  1  0
  9 37  1  0
 15 38  1  0
 15 39  1  0
 16 40  1  0
 16 41  1  0
 17 42  1  0
 17 43  1  0
 21 44  1  0
 21 45  1  0
 22 46  1  0
 22 47  1  0
 23 48  1  0
 23 49  1  0
 24 50  1  0
 24 51  1  0
 26 52  1  0
 26 53  1  0
 28 54  1  0
 29 55  1  0
 30 56  1  0
 31 57  1  0
 32 58  1  0
M  CHG  2   6   1  25  -1
M  END
>  <UniqueID>  (95) 
80

>  <SMILES>  (95) 
O=C(CSc1[nH+]c2ccsc2c(=O)n1CCCC(=O)N1CCCC1)[N-]Cc1ccccc1

>  <Energy>  (95) 
84.22268867936312

>  <Genealogy>  (95) 
O=C(CSc1[nH+]c2ccsc2c(=O)n1CCCC(=O)N1CCCC1)[N-]Cc1ccccc1 (protonated)
O=C(CSc1[nH+]c2ccsc2c(=O)n1CCCC(=O)N1CCCC1)[N-]Cc1ccccc1 (3D coordinates assigned)
O=C(CSc1[nH+]c2ccsc2c(=O)n1CCCC(=O)N1CCCC1)[N-]Cc1ccccc1 (nonaromatic ring conformer: 84.22268867936312 kcal/mol)

>  <smiles>  (95) 
O=C(CSc1nc2ccsc2c(=O)n1CCCC(=O)N1CCCC1)NCc1ccccc1

>  <score_type>  (95) 
oracle

>  <origin>  (95) 
adg

>  <m_score__min__energy>  (95) 
-10.050000000000001

>  <m_primary>  (95) 
energy

$$$$
95:0
     RDKit          3D

 46 49  0  0  0  0  0  0  0  0999 V2000
   53.0920   24.8590   45.7350 O   0  0  0  0  0  0  0  0  0  0  0  0
   54.2040   24.2630   45.7110 C   0  0  0  0  0  0  0  0  0  0  0  0
   54.3680   23.0500   44.8590 C   0  0  0  0  0  0  0  0  0  0  0  0
   55.1080   23.4090   43.6520 N   0  0  0  0  0  0  0  0  0  0  0  0
   56.3620   22.2430   43.3610 S   0  0  0  0  0  0  0  0  0  0  0  0
   56.6480   22.1850   41.8870 O   0  0  0  0  0  0  0  0  0  0  0  0
   55.9060   20.8830   43.8120 O   0  0  0  0  0  0  0  0  0  0  0  0
   57.8320   22.7060   44.2130 C   0  0  0  0  0  0  0  0  0  0  0  0
   57.8940   23.9390   44.8780 C   0  0  0  0  0  0  0  0  0  0  0  0
   59.0510   24.3070   45.5710 C   0  0  0  0  0  0  0  0  0  0  0  0
   60.1500   23.4440   45.6080 C   0  0  0  0  0  0  0  0  0  0  0  0
   60.0910   22.2100   44.9520 C   0  0  0  0  0  0  0  0  0  0  0  0
   58.9360   21.8400   44.2560 C   0  0  0  0  0  0  0  0  0  0  0  0
   55.3010   24.7000   46.5310 N   0  0  0  0  0  0  0  0  0  0  0  0
   55.9860   25.7940   46.3780 C   0  0  0  0  0  0  0  0  0  0  0  0
   57.2030   26.0080   46.9490 N   0  0  0  0  0  0  0  0  0  0  0  0
   57.5060   27.2420   46.5210 C   0  0  0  0  0  0  0  0  0  0  0  0
   58.6490   27.9800   46.7990 C   0  0  0  0  0  0  0  0  0  0  0  0
   58.7520   29.2660   46.2360 C   0  0  0  0  0  0  0  0  0  0  0  0
   57.7160   29.7900   45.4090 C   0  0  0  0  0  0  0  0  0  0  0  0
   57.8310   31.1120   44.8340 N   0  0  0  0  0  0  0  0  0  0  0  0
   58.0090   32.3270   45.6170 C   0  0  0  0  0  0  0  0  0  0  0  0
   57.9090   33.4780   44.6260 C   0  0  0  0  0  0  0  0  0  0  0  0
   58.1200   32.8590   43.2490 C   0  0  0  0  0  0  0  0  0  0  0  0
   57.7860   31.3830   43.4050 C   0  0  0  0  0  0  0  0  0  0  0  0
   56.5710   28.9910   45.1580 C   0  0  0  0  0  0  0  0  0  0  0  0
   56.5090   27.7270   45.7340 C   0  0  0  0  0  0  0  0  0  0  0  0
   55.5230   26.8240   45.6240 N   0  0  0  0  0  0  0  0  0  0  0  0
   54.9232   22.2811   45.4162 H   0  0  0  0  0  0  0  0  0  0  0  0
   53.3791   22.6550   44.5832 H   0  0  0  0  0  0  0  0  0  0  0  0
   57.0295   24.6188   44.8543 H   0  0  0  0  0  0  0  0  0  0  0  0
   59.0966   25.2769   46.0878 H   0  0  0  0  0  0  0  0  0  0  0  0
   61.0604   23.7350   46.1525 H   0  0  0  0  0  0  0  0  0  0  0  0
   60.9547   21.5295   44.9837 H   0  0  0  0  0  0  0  0  0  0  0  0
   58.8924   20.8688   43.7414 H   0  0  0  0  0  0  0  0  0  0  0  0
   59.4470   27.5733   47.4376 H   0  0  0  0  0  0  0  0  0  0  0  0
   59.6452   29.8756   46.4372 H   0  0  0  0  0  0  0  0  0  0  0  0
   57.2214   32.4094   46.3804 H   0  0  0  0  0  0  0  0  0  0  0  0
   58.9740   32.3304   46.1451 H   0  0  0  0  0  0  0  0  0  0  0  0
   56.9173   33.9502   44.6860 H   0  0  0  0  0  0  0  0  0  0  0  0
   58.6532   34.2601   44.8370 H   0  0  0  0  0  0  0  0  0  0  0  0
   57.4517   33.3275   42.5115 H   0  0  0  0  0  0  0  0  0  0  0  0
   59.1497   33.0064   42.8913 H   0  0  0  0  0  0  0  0  0  0  0  0
   56.7819   31.1740   43.0075 H   0  0  0  0  0  0  0  0  0  0  0  0
   58.4937   30.7484   42.8514 H   0  0  0  0  0  0  0  0  0  0  0  0
   55.7526   29.3621   44.5235 H   0  0  0  0  0  0  0  0  0  0  0  0
  1  2  2  0
  2  3  1  0
  3  4  1  0
  4  5  1  0
  5  6  2  0
  5  7  2  0
  5  8  1  0
  8  9  2  0
  9 10  1  0
 10 11  2  0
 11 12  1  0
 12 13  2  0
  2 14  1  0
 14 15  2  3
 15 16  1  0
 16 17  1  0
 17 18  2  0
 18 19  1  0
 19 20  2  0
 20 21  1  0
 21 22  1  0
 22 23  1  0
 23 24  1  0
 24 25  1  0
 20 26  1  0
 26 27  2  0
 27 28  1  0
 13  8  1  0
 28 15  1  0
 27 17  1  0
 25 21  1  0
  3 29  1  0
  3 30  1  0
  9 31  1  0
 10 32  1  0
 11 33  1  0
 12 34  1  0
 13 35  1  0
 18 36  1  0
 19 37  1  0
 22 38  1  0
 22 39  1  0
 23 40  1  0
 23 41  1  0
 24 42  1  0
 24 43  1  0
 25 44  1  0
 25 45  1  0
 26 46  1  0
M  CHG  3   4  -1  16  -1  28  -1
M  END
>  <UniqueID>  (96) 
81

>  <SMILES>  (96) 
O=C(C[N-]S(=O)(=O)c1ccccc1)N=c1[n-]c2ccc(N3CCCC3)cc2[n-]1

>  <Energy>  (96) 
84.22865896755836

>  <Genealogy>  (96) 
O=C(C[N-]S(=O)(=O)c1ccccc1)N=c1[n-]c2ccc(N3CCCC3)cc2[n-]1 (protonated)
O=C(C[N-]S(=O)(=O)c1ccccc1)N=c1[n-]c2ccc(N3CCCC3)cc2[n-]1 (3D coordinates assigned)
O=C(C[N-]S(=O)(=O)c1ccccc1)N=c1[n-]c2ccc(N3CCCC3)cc2[n-]1 (nonaromatic ring conformer: 84.22865896755836 kcal/mol)

>  <smiles>  (96) 
O=C(CNS(=O)(=O)c1ccccc1)N=c1[nH]c2ccc(N3CCCC3)cc2[nH]1

>  <score_type>  (96) 
oracle

>  <origin>  (96) 
adg

>  <m_score__min__energy>  (96) 
-13.49

>  <m_primary>  (96) 
energy

$$$$
