0:0
     RDKit          3D

 52 53  0  0  1  0  0  0  0  0999 V2000
   60.2250   34.2220   48.9990 C   0  0  0  0  0  0  0  0  0  0  0  0
   61.3720   34.2100   48.0350 C   0  0  0  0  0  0  0  0  0  0  0  0
   62.6260   34.0740   48.7070 N   0  0  0  0  0  0  0  0  0  0  0  0
   62.6540   34.5660   50.0470 C   0  0  0  0  0  0  0  0  0  0  0  0
   63.2620   32.8100   48.5090 C   0  0  0  0  0  0  0  0  0  0  0  0
   62.3380   31.6580   48.4030 C   0  0  0  0  0  0  0  0  0  0  0  0
   61.8010   31.0090   49.4990 C   0  0  0  0  0  0  0  0  0  0  0  0
   58.1750   29.5750   46.3590 C   0  0  0  0  0  0  0  0  0  0  0  0
   57.3130   29.4960   45.2700 C   0  0  0  0  0  0  0  0  0  0  0  0
   56.6300   30.5140   44.8710 N   0  0  0  0  0  0  0  0  0  0  0  0
   58.8960   28.4730   46.7660 C   0  0  0  0  0  0  0  0  0  0  0  0
   60.9330   29.9290   49.3160 C   0  0  0  0  0  0  0  0  0  0  0  0
   60.5990   29.4900   48.0440 C   0  0  0  0  0  0  0  0  0  0  0  0
   59.7930   28.4860   47.8690 N   0  0  0  0  0  0  0  0  0  0  0  0
   57.2140   31.7610   44.4710 C   0  0  0  0  0  0  0  0  0  0  0  0
   57.4570   32.7080   45.6300 C   0  0  0  0  0  0  0  0  0  0  0  0
   57.0290   34.1110   45.2410 C   0  0  0  0  0  0  0  0  0  0  0  0
   58.9320   32.7480   45.9560 C   0  0  0  0  0  0  0  0  0  0  0  0
   61.1330   30.1380   47.0120 N   0  0  0  0  0  0  0  0  0  0  0  0
   61.9790   31.1920   47.1620 C   0  0  0  0  0  0  0  0  0  0  0  0
   57.7730   25.9370   44.2950 C   0  0  0  0  0  0  0  0  0  0  0  0
   58.7230   27.3280   46.0590 N   0  0  0  0  0  0  0  0  0  0  0  0
   57.1940   28.3390   44.6250 N   0  0  0  0  0  0  0  0  0  0  0  0
   57.8950   27.2390   45.0070 C   0  0  0  0  0  0  0  0  0  0  0  0
   60.6115   34.2180   50.0288 H   0  0  0  0  0  0  0  0  0  0  0  0
   59.6201   35.1265   48.8379 H   0  0  0  0  0  0  0  0  0  0  0  0
   59.6013   33.3303   48.8379 H   0  0  0  0  0  0  0  0  0  0  0  0
   61.2459   33.3656   47.3414 H   0  0  0  0  0  0  0  0  0  0  0  0
   61.3751   35.1677   47.4938 H   0  0  0  0  0  0  0  0  0  0  0  0
   62.6059   33.7206   50.7491 H   0  0  0  0  0  0  0  0  0  0  0  0
   63.5855   35.1272   50.2122 H   0  0  0  0  0  0  0  0  0  0  0  0
   61.7921   35.2293   50.2122 H   0  0  0  0  0  0  0  0  0  0  0  0
   63.8487   32.8643   47.5801 H   0  0  0  0  0  0  0  0  0  0  0  0
   63.8779   32.6308   49.4026 H   0  0  0  0  0  0  0  0  0  0  0  0
   62.0569   31.3427   50.5155 H   0  0  0  0  0  0  0  0  0  0  0  0
   58.2823   30.5264   46.9007 H   0  0  0  0  0  0  0  0  0  0  0  0
   60.5087   29.4199   50.1939 H   0  0  0  0  0  0  0  0  0  0  0  0
   58.1769   31.5544   43.9810 H   0  0  0  0  0  0  0  0  0  0  0  0
   56.5010   32.2522   43.7926 H   0  0  0  0  0  0  0  0  0  0  0  0
   56.8811   32.3558   46.4985 H   0  0  0  0  0  0  0  0  0  0  0  0
   56.8480   34.7043   46.1495 H   0  0  0  0  0  0  0  0  0  0  0  0
   57.8234   34.5849   44.6458 H   0  0  0  0  0  0  0  0  0  0  0  0
   56.1053   34.0608   44.6458 H   0  0  0  0  0  0  0  0  0  0  0  0
   59.0662   32.7516   47.0478 H   0  0  0  0  0  0  0  0  0  0  0  0
   59.4261   31.8629   45.5288 H   0  0  0  0  0  0  0  0  0  0  0  0
   59.3774   33.6586   45.5288 H   0  0  0  0  0  0  0  0  0  0  0  0
   60.9280   29.8650   46.0260 H   0  0  0  0  0  0  0  0  0  0  0  0
   57.6967   25.1226   45.0305 H   0  0  0  0  0  0  0  0  0  0  0  0
   56.8719   25.9470   43.6642 H   0  0  0  0  0  0  0  0  0  0  0  0
   58.6603   25.7795   43.6642 H   0  0  0  0  0  0  0  0  0  0  0  0
   56.5680   28.1950   43.7980 H   0  0  0  0  0  0  0  0  0  0  0  0
   62.3862   31.6840   46.2664 H   0  0  0  0  0  0  0  0  0  0  0  0
  1  2  1  0
  2  3  1  0
  3  4  1  0
  3  5  1  0
  5  6  1  0
  6  7  1  0
  7  8  2  0
  8  9  1  0
  9 10  2  0
 10 11  1  0
 11 12  2  0
 12 13  1  0
 13 14  2  0
 14 15  1  0
 15 16  1  0
 16 17  1  0
 16 18  1  0
 13 19  1  0
 19 20  1  0
 20 21  1  0
 20 22  2  0
  9 23  1  0
 23 24  1  0
 24  6  2  0
 22 11  1  0
  1 25  1  0
  1 26  1  0
  1 27  1  0
  2 28  1  0
  2 29  1  0
  4 30  1  0
  4 31  1  0
  4 32  1  0
  5 33  1  0
  5 34  1  0
  7 35  1  0
  8 36  1  0
 12 37  1  0
 15 38  1  0
 15 39  1  0
 16 40  1  0
 17 41  1  0
 17 42  1  0
 17 43  1  0
 18 44  1  0
 18 45  1  0
 18 46  1  0
 19 47  1  0
 21 48  1  0
 21 49  1  0
 21 50  1  0
 23 51  1  0
 24 52  1  0
M  END
>  <smiles>  (1) 
CCN(C)Cc1ccc(=Nc2cc(=NCC(C)C)[nH]c(C)n2)[nH]c1

>  <score_type>  (1) 
oracle

>  <origin>  (1) 
adg

>  <m_score__min__energy>  (1) 
-7.2400000000000002

>  <m_primary>  (1) 
energy

$$$$
1:0
     RDKit          3D

 63 66  0  0  0  0  0  0  0  0999 V2000
   59.5680   21.8520   45.0700 C   0  0  0  0  0  0  0  0  0  0  0  0
   58.2680   22.2030   44.3930 C   0  0  0  0  0  0  0  0  0  0  0  0
   57.8470   21.4320   43.2960 C   0  0  0  0  0  0  0  0  0  0  0  0
   56.6620   21.7370   42.6240 C   0  0  0  0  0  0  0  0  0  0  0  0
   55.8890   22.8230   43.0280 C   0  0  0  0  0  0  0  0  0  0  0  0
   56.2950   23.6070   44.1090 C   0  0  0  0  0  0  0  0  0  0  0  0
   57.4810   23.3120   44.8040 C   0  0  0  0  0  0  0  0  0  0  0  0
   57.8220   24.1460   46.0190 C   0  0  0  0  0  0  0  0  0  0  0  0
   56.6250   24.7710   46.5780 N   0  0  0  0  0  0  0  0  0  0  0  0
   56.2680   26.1300   46.3100 C   0  0  0  0  0  0  0  0  0  0  0  0
   55.0780   26.3980   45.9960 O   0  0  0  0  0  0  0  0  0  0  0  0
   57.2760   27.2090   46.3970 C   0  0  0  0  0  0  0  0  0  0  0  0
   57.1620   28.3420   45.5750 C   0  0  0  0  0  0  0  0  0  0  0  0
   58.0670   29.4000   45.6930 C   0  0  0  0  0  0  0  0  0  0  0  0
   59.1020   29.3430   46.6360 C   0  0  0  0  0  0  0  0  0  0  0  0
   60.0880   30.4720   46.7460 C   0  0  0  0  0  0  0  0  0  0  0  0
   59.4280   31.6600   47.3830 C   0  0  0  0  0  0  0  0  0  0  0  0
   59.1960   31.6370   48.6210 O   0  0  0  0  0  0  0  0  0  0  0  0
   58.9870   32.7810   46.5940 N   0  0  0  0  0  0  0  0  0  0  0  0
   57.6930   32.8270   45.9320 C   0  0  0  0  0  0  0  0  0  0  0  0
   57.8190   33.9010   44.8620 C   0  0  0  0  0  0  0  0  0  0  0  0
   59.0060   34.7610   45.2810 C   0  0  0  0  0  0  0  0  0  0  0  0
   59.8650   33.8690   46.1850 C   0  0  1  0  0  0  0  0  0  0  0  0
   60.4100   34.6310   47.4120 C   0  0  0  0  0  0  0  0  0  0  0  0
   61.5760   33.9440   47.9940 N   0  0  0  0  0  0  0  0  0  0  0  0
   61.5620   33.6450   49.3290 C   0  0  0  0  0  0  0  0  0  0  0  0
   62.6390   32.9810   49.9260 C   0  0  0  0  0  0  0  0  0  0  0  0
   62.6210   32.6430   51.3910 C   0  0  0  0  0  0  0  0  0  0  0  0
   63.7250   32.6270   49.1150 C   0  0  0  0  0  0  0  0  0  0  0  0
   64.7180   32.0210   49.5970 O   0  0  0  0  0  0  0  0  0  0  0  0
   63.7100   32.9390   47.7950 N   0  0  0  0  0  0  0  0  0  0  0  0
   62.6600   33.5890   47.2310 C   0  0  0  0  0  0  0  0  0  0  0  0
   62.7030   33.8600   46.0000 O   0  0  0  0  0  0  0  0  0  0  0  0
   59.2430   28.1960   47.4330 C   0  0  0  0  0  0  0  0  0  0  0  0
   58.3390   27.1360   47.3160 C   0  0  0  0  0  0  0  0  0  0  0  0
   58.4820   26.0590   48.1300 F   0  0  0  0  0  0  0  0  0  0  0  0
   59.4345   21.8880   46.1613 H   0  0  0  0  0  0  0  0  0  0  0  0
   59.8750   20.8388   44.7714 H   0  0  0  0  0  0  0  0  0  0  0  0
   60.3433   22.5730   44.7714 H   0  0  0  0  0  0  0  0  0  0  0  0
   58.4575   20.5795   42.9635 H   0  0  0  0  0  0  0  0  0  0  0  0
   56.3381   21.1186   41.7739 H   0  0  0  0  0  0  0  0  0  0  0  0
   54.9575   23.0630   42.4945 H   0  0  0  0  0  0  0  0  0  0  0  0
   55.6806   24.4646   44.4204 H   0  0  0  0  0  0  0  0  0  0  0  0
   58.2800   23.4995   46.7821 H   0  0  0  0  0  0  0  0  0  0  0  0
   58.5217   24.9385   45.7150 H   0  0  0  0  0  0  0  0  0  0  0  0
   56.3530   28.3970   44.8317 H   0  0  0  0  0  0  0  0  0  0  0  0
   57.9666   30.2816   45.0428 H   0  0  0  0  0  0  0  0  0  0  0  0
   60.9413   30.1534   47.3628 H   0  0  0  0  0  0  0  0  0  0  0  0
   60.4407   30.7467   45.7410 H   0  0  0  0  0  0  0  0  0  0  0  0
   57.4611   31.8541   45.4741 H   0  0  0  0  0  0  0  0  0  0  0  0
   56.8813   33.0508   46.6399 H   0  0  0  0  0  0  0  0  0  0  0  0
   58.0044   33.4436   43.8790 H   0  0  0  0  0  0  0  0  0  0  0  0
   56.8978   34.4954   44.7719 H   0  0  0  0  0  0  0  0  0  0  0  0
   59.5802   35.0787   44.3982 H   0  0  0  0  0  0  0  0  0  0  0  0
   58.6823   35.6747   45.8010 H   0  0  0  0  0  0  0  0  0  0  0  0
   60.7559   33.5077   45.6505 H   0  0  0  0  0  0  0  0  0  0  0  0
   60.7085   35.6432   47.1016 H   0  0  0  0  0  0  0  0  0  0  0  0
   59.6174   34.6754   48.1734 H   0  0  0  0  0  0  0  0  0  0  0  0
   60.6932   33.9302   49.9405 H   0  0  0  0  0  0  0  0  0  0  0  0
   62.6703   33.5696   51.9817 H   0  0  0  0  0  0  0  0  0  0  0  0
   61.6929   32.1038   51.6315 H   0  0  0  0  0  0  0  0  0  0  0  0
   63.4866   32.0083   51.6315 H   0  0  0  0  0  0  0  0  0  0  0  0
   60.0706   28.1308   48.1547 H   0  0  0  0  0  0  0  0  0  0  0  0
  1  2  1  0
  2  3  2  0
  3  4  1  0
  4  5  2  0
  5  6  1  0
  6  7  2  0
  7  8  1  0
  8  9  1  0
  9 10  1  0
 10 11  2  0
 10 12  1  0
 12 13  2  0
 13 14  1  0
 14 15  2  0
 15 16  1  0
 16 17  1  0
 17 18  2  0
 17 19  1  0
 19 20  1  0
 20 21  1  0
 21 22  1  0
 22 23  1  0
 23 24  1  0
 24 25  1  0
 25 26  1  0
 26 27  2  0
 27 28  1  0
 27 29  1  0
 29 30  2  0
 29 31  1  0
 31 32  1  0
 32 33  2  0
 15 34  1  0
 34 35  2  0
 35 36  1  0
  7  2  1  0
 35 12  1  0
 23 19  1  0
 32 25  1  0
  1 37  1  0
  1 38  1  0
  1 39  1  0
  3 40  1  0
  4 41  1  0
  5 42  1  0
  6 43  1  0
  8 44  1  0
  8 45  1  0
 13 46  1  0
 14 47  1  0
 16 48  1  0
 16 49  1  0
 20 50  1  0
 20 51  1  0
 21 52  1  0
 21 53  1  0
 22 54  1  0
 22 55  1  0
 23 56  1  6
 24 57  1  0
 24 58  1  0
 26 59  1  0
 28 60  1  0
 28 61  1  0
 28 62  1  0
 34 63  1  0
M  CHG  2   9  -1  31  -1
M  END
>  <UniqueID>  (2) 
1

>  <SMILES>  (2) 
Cc1ccccc1C[N-]C(=O)c1ccc(CC(=O)N2CCC[C@H]2Cn2cc(C)c(=O)[n-]c2=O)cc1F

>  <Energy>  (2) 
72.95529479156187

>  <Genealogy>  (2) 
Cc1ccccc1C[N-]C(=O)c1ccc(CC(=O)N2CCCC2Cn2cc(C)c(=O)[n-]c2=O)cc1F (protonated)
Cc1ccccc1C[N-]C(=O)c1ccc(CC(=O)N2CCC[C@H]2Cn2cc(C)c(=O)[n-]c2=O)cc1F (chirality)
Cc1ccccc1C[N-]C(=O)c1ccc(CC(=O)N2CCC[C@H]2Cn2cc(C)c(=O)[n-]c2=O)cc1F (3D coordinates assigned)
Cc1ccccc1C[N-]C(=O)c1ccc(CC(=O)N2CCC[C@H]2Cn2cc(C)c(=O)[n-]c2=O)cc1F (nonaromatic ring conformer: 72.95529479156187 kcal/mol)

>  <smiles>  (2) 
Cc1ccccc1CNC(=O)c1ccc(CC(=O)N2CCCC2Cn2cc(C)c(=O)[nH]c2=O)cc1F

>  <score_type>  (2) 
oracle

>  <origin>  (2) 
adg

>  <m_score__min__energy>  (2) 
-13.449999999999999

>  <m_primary>  (2) 
energy

$$$$
2:0
     RDKit          3D

 63 66  0  0  0  0  0  0  0  0999 V2000
   63.0920   33.8120   46.8820 C   0  0  0  0  0  0  0  0  0  0  0  0
   61.6100   33.5980   46.9530 C   0  0  0  0  0  0  0  0  0  0  0  0
   60.7320   33.9340   45.9420 C   0  0  0  0  0  0  0  0  0  0  0  0
   59.4640   33.6620   46.4210 C   0  0  0  0  0  0  0  0  0  0  0  0
   58.1860   34.0270   45.7180 C   0  0  0  0  0  0  0  0  0  0  0  0
   57.7860   32.9490   44.7420 C   0  0  0  0  0  0  0  0  0  0  0  0
   58.1370   33.0470   43.3840 C   0  0  0  0  0  0  0  0  0  0  0  0
   57.7810   32.0340   42.4860 C   0  0  0  0  0  0  0  0  0  0  0  0
   57.0570   30.9260   42.9310 C   0  0  0  0  0  0  0  0  0  0  0  0
   56.6860   30.8280   44.2780 C   0  0  0  0  0  0  0  0  0  0  0  0
   57.0550   31.8300   45.1810 C   0  0  0  0  0  0  0  0  0  0  0  0
   59.6190   33.1590   47.7080 C   0  0  0  0  0  0  0  0  0  0  0  0
   58.5090   32.8320   48.6690 C   0  0  0  0  0  0  0  0  0  0  0  0
   60.9330   33.1360   48.0310 N   0  0  0  0  0  0  0  0  0  0  0  0
   61.5660   32.8530   49.6320 S   0  0  0  0  0  0  0  0  0  0  0  0
   60.9600   33.7870   50.6400 O   0  0  0  0  0  0  0  0  0  0  0  0
   63.0550   33.0560   49.6230 O   0  0  0  0  0  0  0  0  0  0  0  0
   61.1580   31.1990   50.0680 C   0  0  0  0  0  0  0  0  0  0  0  0
   60.7910   30.9200   51.3890 C   0  0  0  0  0  0  0  0  0  0  0  0
   60.3270   29.6500   51.7380 C   0  0  0  0  0  0  0  0  0  0  0  0
   60.2120   28.6580   50.7660 C   0  0  0  0  0  0  0  0  0  0  0  0
   60.5720   28.9260   49.4330 C   0  0  0  0  0  0  0  0  0  0  0  0
   60.3810   27.8940   48.3930 C   0  0  0  0  0  0  0  0  0  0  0  0
   60.0370   26.7290   48.7220 O   0  0  0  0  0  0  0  0  0  0  0  0
   60.5460   28.2090   47.0040 N   0  0  0  0  0  0  0  0  0  0  0  0
   59.6320   27.7990   45.9780 C   0  0  0  0  0  0  0  0  0  0  0  0
   59.4210   28.5910   44.8380 C   0  0  0  0  0  0  0  0  0  0  0  0
   58.5340   28.1730   43.8460 C   0  0  0  0  0  0  0  0  0  0  0  0
   57.8380   26.9700   43.9910 C   0  0  0  0  0  0  0  0  0  0  0  0
   58.0210   26.1770   45.1350 C   0  0  0  0  0  0  0  0  0  0  0  0
   57.2510   24.9720   45.2870 N   0  0  0  0  0  0  0  0  0  0  0  0
   55.6580   24.9510   45.9820 S   0  0  0  0  0  0  0  0  0  0  0  0
   54.6070   23.8500   45.0570 C   0  0  0  0  0  0  0  0  0  0  0  0
   55.0870   26.3410   45.9930 O   0  0  0  0  0  0  0  0  0  0  0  0
   55.7490   24.4490   47.3960 O   0  0  0  0  0  0  0  0  0  0  0  0
   58.9520   26.5820   46.1080 C   0  0  0  0  0  0  0  0  0  0  0  0
   61.0670   30.1940   49.0940 C   0  0  0  0  0  0  0  0  0  0  0  0
   63.5031   33.8714   47.9006 H   0  0  0  0  0  0  0  0  0  0  0  0
   63.5585   32.9719   46.3467 H   0  0  0  0  0  0  0  0  0  0  0  0
   63.3018   34.7498   46.3467 H   0  0  0  0  0  0  0  0  0  0  0  0
   60.9901   34.3379   44.9519 H   0  0  0  0  0  0  0  0  0  0  0  0
   57.3873   34.1530   46.4638 H   0  0  0  0  0  0  0  0  0  0  0  0
   58.3432   34.9642   45.1639 H   0  0  0  0  0  0  0  0  0  0  0  0
   58.6945   33.9247   43.0252 H   0  0  0  0  0  0  0  0  0  0  0  0
   58.0721   32.1109   41.4280 H   0  0  0  0  0  0  0  0  0  0  0  0
   56.7782   30.1307   42.2241 H   0  0  0  0  0  0  0  0  0  0  0  0
   56.1038   29.9620   44.6260 H   0  0  0  0  0  0  0  0  0  0  0  0
   56.7721   31.7428   46.2404 H   0  0  0  0  0  0  0  0  0  0  0  0
   58.8740   32.9395   49.7011 H   0  0  0  0  0  0  0  0  0  0  0  0
   57.6668   33.5202   48.5043 H   0  0  0  0  0  0  0  0  0  0  0  0
   58.1744   31.7971   48.5043 H   0  0  0  0  0  0  0  0  0  0  0  0
   60.8683   31.7046   52.1561 H   0  0  0  0  0  0  0  0  0  0  0  0
   60.0521   29.4325   52.7807 H   0  0  0  0  0  0  0  0  0  0  0  0
   59.8381   27.6611   51.0424 H   0  0  0  0  0  0  0  0  0  0  0  0
   59.9573   29.5449   44.7268 H   0  0  0  0  0  0  0  0  0  0  0  0
   58.3822   28.7909   42.9487 H   0  0  0  0  0  0  0  0  0  0  0  0
   57.1426   26.6424   43.2042 H   0  0  0  0  0  0  0  0  0  0  0  0
   57.5560   24.1120   44.7790 H   0  0  0  0  0  0  0  0  0  0  0  0
   54.0187   23.2338   45.7528 H   0  0  0  0  0  0  0  0  0  0  0  0
   53.9269   24.4383   44.4234 H   0  0  0  0  0  0  0  0  0  0  0  0
   55.2262   23.1980   44.4234 H   0  0  0  0  0  0  0  0  0  0  0  0
   59.1475   25.9378   46.9779 H   0  0  0  0  0  0  0  0  0  0  0  0
   61.3847   30.4007   48.0613 H   0  0  0  0  0  0  0  0  0  0  0  0
  1  2  1  0
  2  3  2  0
  3  4  1  0
  4  5  1  0
  5  6  1  0
  6  7  2  0
  7  8  1  0
  8  9  2  0
  9 10  1  0
 10 11  2  0
  4 12  2  0
 12 13  1  0
 12 14  1  0
 14 15  1  0
 15 16  2  0
 15 17  2  0
 15 18  1  0
 18 19  2  0
 19 20  1  0
 20 21  2  0
 21 22  1  0
 22 23  1  0
 23 24  2  0
 23 25  1  0
 25 26  1  0
 26 27  2  0
 27 28  1  0
 28 29  2  0
 29 30  1  0
 30 31  1  0
 31 32  1  0
 32 33  1  0
 32 34  2  0
 32 35  2  0
 30 36  2  0
 22 37  2  0
 14  2  1  0
 37 18  1  0
 11  6  1  0
 36 26  1  0
  1 38  1  0
  1 39  1  0
  1 40  1  0
  3 41  1  0
  5 42  1  0
  5 43  1  0
  7 44  1  0
  8 45  1  0
  9 46  1  0
 10 47  1  0
 11 48  1  0
 13 49  1  0
 13 50  1  0
 13 51  1  0
 19 52  1  0
 20 53  1  0
 21 54  1  0
 27 55  1  0
 28 56  1  0
 29 57  1  0
 31 58  1  0
 33 59  1  0
 33 60  1  0
 33 61  1  0
 36 62  1  0
 37 63  1  0
M  CHG  1  25  -1
M  END
>  <UniqueID>  (3) 
2

>  <SMILES>  (3) 
Cc1cc(Cc2ccccc2)c(C)n1S(=O)(=O)c1cccc(C(=O)[N-]c2cccc(NS(C)(=O)=O)c2)c1

>  <Energy>  (3) 
97.19254657708991

>  <Genealogy>  (3) 
Cc1cc(Cc2ccccc2)c(C)n1S(=O)(=O)c1cccc(C(=O)[N-]c2cccc(NS(C)(=O)=O)c2)c1 (protonated)
Cc1cc(Cc2ccccc2)c(C)n1S(=O)(=O)c1cccc(C(=O)[N-]c2cccc(NS(C)(=O)=O)c2)c1 (3D coordinates assigned)
Cc1cc(Cc2ccccc2)c(C)n1S(=O)(=O)c1cccc(C(=O)[N-]c2cccc(NS(C)(=O)=O)c2)c1 (optimized conformer: 97.19254657708991 kcal/mol)

>  <smiles>  (3) 
Cc1cc(Cc2ccccc2)c(C)n1S(=O)(=O)c1cccc(C(=O)Nc2cccc(NS(C)(=O)=O)c2)c1

>  <score_type>  (3) 
oracle

>  <origin>  (3) 
adg

>  <m_score__min__energy>  (3) 
-12.65

>  <m_primary>  (3) 
energy

$$$$
3:0
     RDKit          3D

 47 49  0  0  0  0  0  0  0  0999 V2000
   58.8760   34.7970   45.5770 C   0  0  0  0  0  0  0  0  0  0  0  0
   58.5070   33.2190   46.3160 S   0  0  0  0  0  0  0  0  0  0  0  0
   59.1090   32.1140   45.4950 O   0  0  0  0  0  0  0  0  0  0  0  0
   57.0120   33.0580   46.3270 O   0  0  0  0  0  0  0  0  0  0  0  0
   59.1330   33.1540   47.9430 N   0  0  0  0  0  0  0  0  0  0  0  0
   59.9130   34.2810   48.4690 C   0  0  0  0  0  0  0  0  0  0  0  0
   61.3820   33.9560   48.4240 C   0  0  0  0  0  0  0  0  0  0  0  0
   62.1590   33.9960   49.5940 C   0  0  0  0  0  0  0  0  0  0  0  0
   63.5310   33.7290   49.5360 C   0  0  0  0  0  0  0  0  0  0  0  0
   64.1350   33.4280   48.3130 C   0  0  0  0  0  0  0  0  0  0  0  0
   63.3700   33.3960   47.1430 C   0  0  0  0  0  0  0  0  0  0  0  0
   61.9980   33.6630   47.1970 C   0  0  0  0  0  0  0  0  0  0  0  0
   58.9130   31.9960   48.7730 C   0  0  0  0  0  0  0  0  0  0  0  0
   58.6580   32.1210   50.1450 C   0  0  0  0  0  0  0  0  0  0  0  0
   58.4860   30.9640   50.9020 C   0  0  0  0  0  0  0  0  0  0  0  0
   58.5740   29.7460   50.3100 N   0  0  0  0  0  0  0  0  0  0  0  0
   58.8240   29.6310   48.9770 C   0  0  0  0  0  0  0  0  0  0  0  0
   58.9400   28.4660   48.4080 N   0  0  0  0  0  0  0  0  0  0  0  0
   58.4930   28.0980   47.0930 C   0  0  0  0  0  0  0  0  0  0  0  0
   58.9030   26.8670   46.5640 C   0  0  0  0  0  0  0  0  0  0  0  0
   58.5110   26.4830   45.2800 C   0  0  0  0  0  0  0  0  0  0  0  0
   57.7270   27.3360   44.5010 C   0  0  0  0  0  0  0  0  0  0  0  0
   57.3430   28.5890   45.0000 C   0  0  0  0  0  0  0  0  0  0  0  0
   56.3670   29.6780   44.0190 S   0  0  0  0  0  0  0  0  0  0  0  0
   56.6480   31.3110   44.5110 N   0  0  0  0  0  0  0  0  0  0  0  0
   56.7330   29.5190   42.5700 O   0  0  0  0  0  0  0  0  0  0  0  0
   54.9080   29.3520   44.1860 O   0  0  0  0  0  0  0  0  0  0  0  0
   57.7310   28.9690   46.2920 C   0  0  0  0  0  0  0  0  0  0  0  0
   59.0010   30.7510   48.2290 N   0  0  0  0  0  0  0  0  0  0  0  0
   59.0499   35.5408   46.3685 H   0  0  0  0  0  0  0  0  0  0  0  0
   59.7775   34.7079   44.9531 H   0  0  0  0  0  0  0  0  0  0  0  0
   58.0284   35.1169   44.9531 H   0  0  0  0  0  0  0  0  0  0  0  0
   59.7188   35.1750   47.8582 H   0  0  0  0  0  0  0  0  0  0  0  0
   59.6168   34.4698   49.5114 H   0  0  0  0  0  0  0  0  0  0  0  0
   61.6874   34.2378   50.5579 H   0  0  0  0  0  0  0  0  0  0  0  0
   64.1351   33.7561   50.4549 H   0  0  0  0  0  0  0  0  0  0  0  0
   65.2135   33.2159   48.2703 H   0  0  0  0  0  0  0  0  0  0  0  0
   63.8471   33.1609   46.1801 H   0  0  0  0  0  0  0  0  0  0  0  0
   61.3994   33.6433   46.2744 H   0  0  0  0  0  0  0  0  0  0  0  0
   58.5948   33.1133   50.6154 H   0  0  0  0  0  0  0  0  0  0  0  0
   58.2788   31.0378   51.9798 H   0  0  0  0  0  0  0  0  0  0  0  0
   59.5379   26.1987   47.1642 H   0  0  0  0  0  0  0  0  0  0  0  0
   58.8208   25.5058   44.8812 H   0  0  0  0  0  0  0  0  0  0  0  0
   57.4101   27.0248   43.4946 H   0  0  0  0  0  0  0  0  0  0  0  0
   55.8950   31.5600   45.1910 H   0  0  0  0  0  0  0  0  0  0  0  0
   57.5470   31.3180   45.0430 H   0  0  0  0  0  0  0  0  0  0  0  0
   57.4380   29.9547   46.6827 H   0  0  0  0  0  0  0  0  0  0  0  0
  1  2  1  0
  2  3  2  0
  2  4  2  0
  2  5  1  0
  5  6  1  0
  6  7  1  0
  7  8  2  0
  8  9  1  0
  9 10  2  0
 10 11  1  0
 11 12  2  0
  5 13  1  0
 13 14  1  0
 14 15  2  0
 15 16  1  0
 16 17  1  0
 17 18  2  3
 18 19  1  0
 19 20  2  0
 20 21  1  0
 21 22  2  0
 22 23  1  0
 23 24  1  0
 24 25  1  0
 24 26  2  0
 24 27  2  0
 23 28  2  0
 17 29  1  0
 12  7  1  0
 29 13  2  0
 28 19  1  0
  1 30  1  0
  1 31  1  0
  1 32  1  0
  6 33  1  0
  6 34  1  0
  8 35  1  0
  9 36  1  0
 10 37  1  0
 11 38  1  0
 12 39  1  0
 14 40  1  0
 15 41  1  0
 20 42  1  0
 21 43  1  0
 22 44  1  0
 25 45  1  0
 25 46  1  0
 28 47  1  0
M  CHG  1  16  -1
M  END
>  <UniqueID>  (4) 
3

>  <SMILES>  (4) 
CS(=O)(=O)N(Cc1ccccc1)c1cc[n-]c(=Nc2cccc(S(N)(=O)=O)c2)n1

>  <Energy>  (4) 
53.35704280102023

>  <Genealogy>  (4) 
CS(=O)(=O)N(Cc1ccccc1)c1cc[n-]c(=Nc2cccc(S(N)(=O)=O)c2)n1 (protonated)
CS(=O)(=O)N(Cc1ccccc1)c1cc[n-]c(=Nc2cccc(S(N)(=O)=O)c2)n1 (3D coordinates assigned)
CS(=O)(=O)N(Cc1ccccc1)c1cc[n-]c(=Nc2cccc(S(N)(=O)=O)c2)n1 (optimized conformer: 53.35704280102023 kcal/mol)

>  <smiles>  (4) 
CS(=O)(=O)N(Cc1ccccc1)c1cc[nH]c(=Nc2cccc(S(N)(=O)=O)c2)n1

>  <score_type>  (4) 
oracle

>  <origin>  (4) 
adg

>  <m_score__min__energy>  (4) 
-11.289999999999999

>  <m_primary>  (4) 
energy

$$$$
4:0
     RDKit          3D

 46 48  0  0  0  0  0  0  0  0999 V2000
   55.1340   23.1030   48.1750 C   0  0  0  0  0  0  0  0  0  0  0  0
   55.1320   23.9210   47.0090 O   0  0  0  0  0  0  0  0  0  0  0  0
   56.1230   24.8680   46.7030 C   0  0  0  0  0  0  0  0  0  0  0  0
   57.4890   24.6300   46.9450 C   0  0  0  0  0  0  0  0  0  0  0  0
   58.4380   25.6080   46.6410 C   0  0  0  0  0  0  0  0  0  0  0  0
   58.0390   26.8240   46.0820 C   0  0  0  0  0  0  0  0  0  0  0  0
   56.6830   27.0650   45.8040 C   0  0  0  0  0  0  0  0  0  0  0  0
   56.2360   28.3140   45.2530 N   0  0  0  0  0  0  0  0  0  0  0  0
   57.0600   29.4290   44.8960 C   0  0  0  0  0  0  0  0  0  0  0  0
   58.1750   29.2150   44.3510 O   0  0  0  0  0  0  0  0  0  0  0  0
   56.6540   30.7680   45.2020 N   0  0  0  0  0  0  0  0  0  0  0  0
   57.2840   31.9550   44.6330 C   0  0  0  0  0  0  0  0  0  0  0  0
   58.4480   32.3850   45.4840 C   0  0  0  0  0  0  0  0  0  0  0  0
   59.2860   31.4310   46.0800 C   0  0  0  0  0  0  0  0  0  0  0  0
   60.3410   31.8360   46.9000 C   0  0  0  0  0  0  0  0  0  0  0  0
   60.5780   33.2000   47.1390 C   0  0  0  0  0  0  0  0  0  0  0  0
   61.6520   33.6080   48.0070 N   0  0  0  0  0  0  0  0  0  0  0  0
   61.4700   34.2880   49.2920 C   0  0  0  0  0  0  0  0  0  0  0  0
   62.8190   34.1570   50.0430 C   0  0  0  0  0  0  0  0  0  0  0  0
   63.7030   33.4320   49.1390 N   0  0  0  0  0  0  0  0  0  0  0  0
   65.0850   33.0610   49.4150 C   0  0  0  0  0  0  0  0  0  0  0  0
   62.9820   33.1240   47.9680 C   0  0  0  0  0  0  0  0  0  0  0  0
   63.4780   32.5080   46.9860 O   0  0  0  0  0  0  0  0  0  0  0  0
   59.7360   34.1560   46.5390 C   0  0  0  0  0  0  0  0  0  0  0  0
   59.9540   35.5150   46.7320 O   0  0  0  0  0  0  0  0  0  0  0  0
   58.6760   33.7460   45.7240 C   0  0  0  0  0  0  0  0  0  0  0  0
   55.7290   26.0900   46.1380 C   0  0  0  0  0  0  0  0  0  0  0  0
   54.3790   26.3340   45.9030 O   0  0  0  0  0  0  0  0  0  0  0  0
   55.1324   23.7414   49.0708 H   0  0  0  0  0  0  0  0  0  0  0  0
   54.2374   22.4657   48.1774 H   0  0  0  0  0  0  0  0  0  0  0  0
   56.0337   22.4701   48.1774 H   0  0  0  0  0  0  0  0  0  0  0  0
   57.8101   23.6699   47.3752 H   0  0  0  0  0  0  0  0  0  0  0  0
   59.5030   25.4202   46.8424 H   0  0  0  0  0  0  0  0  0  0  0  0
   58.7896   27.5964   45.8584 H   0  0  0  0  0  0  0  0  0  0  0  0
   57.6412   31.7255   43.6182 H   0  0  0  0  0  0  0  0  0  0  0  0
   56.5461   32.7700   44.5965 H   0  0  0  0  0  0  0  0  0  0  0  0
   59.1113   30.3599   45.9007 H   0  0  0  0  0  0  0  0  0  0  0  0
   60.9925   31.0803   47.3631 H   0  0  0  0  0  0  0  0  0  0  0  0
   61.2240   35.3480   49.1314 H   0  0  0  0  0  0  0  0  0  0  0  0
   60.6448   33.8439   49.8681 H   0  0  0  0  0  0  0  0  0  0  0  0
   63.2315   35.1517   50.2675 H   0  0  0  0  0  0  0  0  0  0  0  0
   62.7008   33.6333   51.0031 H   0  0  0  0  0  0  0  0  0  0  0  0
   65.2430   33.0186   50.5028 H   0  0  0  0  0  0  0  0  0  0  0  0
   65.2947   32.0748   48.9753 H   0  0  0  0  0  0  0  0  0  0  0  0
   65.7604   33.8096   48.9753 H   0  0  0  0  0  0  0  0  0  0  0  0
   58.0160   34.4985   45.2678 H   0  0  0  0  0  0  0  0  0  0  0  0
  1  2  1  0
  2  3  1  0
  3  4  2  0
  4  5  1  0
  5  6  2  0
  6  7  1  0
  7  8  1  0
  8  9  1  0
  9 10  2  0
  9 11  1  0
 11 12  1  0
 12 13  1  0
 13 14  2  0
 14 15  1  0
 15 16  2  0
 16 17  1  0
 17 18  1  0
 18 19  1  0
 19 20  1  0
 20 21  1  0
 20 22  1  0
 22 23  2  0
 16 24  1  0
 24 25  1  0
 24 26  2  0
  7 27  2  0
 27 28  1  0
 27  3  1  0
 26 13  1  0
 22 17  1  0
  1 29  1  0
  1 30  1  0
  1 31  1  0
  4 32  1  0
  5 33  1  0
  6 34  1  0
 12 35  1  0
 12 36  1  0
 14 37  1  0
 15 38  1  0
 18 39  1  0
 18 40  1  0
 19 41  1  0
 19 42  1  0
 21 43  1  0
 21 44  1  0
 21 45  1  0
 26 46  1  0
M  CHG  4   8  -1  11  -1  25  -1  28  -1
M  END
>  <UniqueID>  (5) 
4

>  <SMILES>  (5) 
COc1cccc([N-]C(=O)[N-]Cc2ccc(N3CCN(C)C3=O)c([O-])c2)c1[O-]

>  <Energy>  (5) 
65.21850162012093

>  <Genealogy>  (5) 
COc1cccc([N-]C(=O)[N-]Cc2ccc(N3CCN(C)C3=O)c([O-])c2)c1[O-] (protonated)
COc1cccc([N-]C(=O)[N-]Cc2ccc(N3CCN(C)C3=O)c([O-])c2)c1[O-] (3D coordinates assigned)
COc1cccc([N-]C(=O)[N-]Cc2ccc(N3CCN(C)C3=O)c([O-])c2)c1[O-] (nonaromatic ring conformer: 65.21850162012093 kcal/mol)

>  <smiles>  (5) 
COc1cccc(NC(=O)NCc2ccc(N3CCN(C)C3=O)c(O)c2)c1O

>  <score_type>  (5) 
oracle

>  <origin>  (5) 
adg

>  <m_score__min__energy>  (5) 
-16.780000000000001

>  <m_primary>  (5) 
energy

$$$$
5:0
     RDKit          3D

 61 64  0  0  0  0  0  0  0  0999 V2000
   56.8949   25.1656   42.2285 H   0  0  0  0  0  0  0  0  0  0  0  0
   57.3920   25.1260   43.2090 C   0  0  0  0  0  0  0  0  0  0  0  0
   58.1440   26.3270   43.6230 C   0  0  0  0  0  0  0  0  0  0  0  0
   58.5970   27.0930   42.7280 O   0  0  0  0  0  0  0  0  0  0  0  0
   58.3830   26.6260   45.0030 N   0  0  0  0  0  0  0  0  0  0  0  0
   57.3000   27.5410   45.9980 S   0  0  0  0  0  0  0  0  0  0  0  0
   55.9140   26.9750   45.8530 O   0  0  0  0  0  0  0  0  0  0  0  0
   57.7350   27.3980   47.4310 O   0  0  0  0  0  0  0  0  0  0  0  0
   57.3520   29.2500   45.5250 C   0  0  0  0  0  0  0  0  0  0  0  0
   56.5820   29.6620   44.4260 C   0  0  0  0  0  0  0  0  0  0  0  0
   55.9416   28.9337   43.9068 H   0  0  0  0  0  0  0  0  0  0  0  0
   56.6200   30.9850   43.9850 C   0  0  0  0  0  0  0  0  0  0  0  0
   56.0014   31.2955   43.1300 H   0  0  0  0  0  0  0  0  0  0  0  0
   57.4380   31.9140   44.6230 C   0  0  0  0  0  0  0  0  0  0  0  0
   57.4650   32.9548   44.2681 H   0  0  0  0  0  0  0  0  0  0  0  0
   58.2260   31.5290   45.7140 C   0  0  0  0  0  0  0  0  0  0  0  0
   59.1080   32.5340   46.3320 C   0  0  0  0  0  0  0  0  0  0  0  0
   58.5600   33.6920   46.9030 C   0  0  0  0  0  0  0  0  0  0  0  0
   57.4740   33.8627   46.8642 H   0  0  0  0  0  0  0  0  0  0  0  0
   59.3920   34.6290   47.5210 C   0  0  0  0  0  0  0  0  0  0  0  0
   58.9612   35.5413   47.9594 H   0  0  0  0  0  0  0  0  0  0  0  0
   60.7700   34.4090   47.5830 C   0  0  0  0  0  0  0  0  0  0  0  0
   61.4198   35.1548   48.0642 H   0  0  0  0  0  0  0  0  0  0  0  0
   61.3340   33.2430   47.0360 C   0  0  0  0  0  0  0  0  0  0  0  0
   62.7540   33.0150   47.1210 N   0  0  0  0  0  0  0  0  0  0  0  0
   63.2020   31.9810   47.6570 O   0  0  0  0  0  0  0  0  0  0  0  0
   63.6440   33.9500   46.6440 O   0  0  0  0  0  0  0  0  0  0  0  0
   60.4890   32.3030   46.4150 C   0  0  0  0  0  0  0  0  0  0  0  0
   60.9150   31.3812   45.9921 H   0  0  0  0  0  0  0  0  0  0  0  0
   58.1850   30.1940   46.1820 C   0  0  0  0  0  0  0  0  0  0  0  0
   58.9890   29.8050   47.3060 N   0  0  0  0  0  0  0  0  0  0  0  0
   58.6480   30.3440   48.6320 C   0  0  0  0  0  0  0  0  0  0  0  0
   58.9489   31.4014   48.6693 H   0  0  0  0  0  0  0  0  0  0  0  0
   57.5634   30.2225   48.7693 H   0  0  0  0  0  0  0  0  0  0  0  0
   59.3470   29.5930   49.7810 C   0  0  0  0  0  0  0  0  0  0  0  0
   60.2179   30.1791   50.1096 H   0  0  0  0  0  0  0  0  0  0  0  0
   58.6189   29.4681   50.5960 H   0  0  0  0  0  0  0  0  0  0  0  0
   59.7840   28.3100   49.3890 O   0  0  0  0  0  0  0  0  0  0  0  0
   60.7680   28.4500   48.3880 C   0  0  0  0  0  0  0  0  0  0  0  0
   61.5085   29.1974   48.7090 H   0  0  0  0  0  0  0  0  0  0  0  0
   61.2582   27.4781   48.2294 H   0  0  0  0  0  0  0  0  0  0  0  0
   60.1280   28.9050   47.0750 C   0  0  0  0  0  0  0  0  0  0  0  0
   60.8835   29.4335   46.4750 H   0  0  0  0  0  0  0  0  0  0  0  0
   59.7577   28.0132   46.5481 H   0  0  0  0  0  0  0  0  0  0  0  0
   57.2550   23.9880   43.9130 C   0  0  0  0  0  0  0  0  0  0  0  0
   58.0134   23.2060   43.7603 H   0  0  0  0  0  0  0  0  0  0  0  0
   56.1730   23.7020   44.8720 C   0  0  0  0  0  0  0  0  0  0  0  0
   56.4600   23.6520   46.2400 C   0  0  0  0  0  0  0  0  0  0  0  0
   57.4919   23.8033   46.5896 H   0  0  0  0  0  0  0  0  0  0  0  0
   55.4420   23.4110   47.1620 C   0  0  0  0  0  0  0  0  0  0  0  0
   55.6705   23.3924   48.2378 H   0  0  0  0  0  0  0  0  0  0  0  0
   54.1330   23.1930   46.7250 C   0  0  0  0  0  0  0  0  0  0  0  0
   53.3349   23.0021   47.4575 H   0  0  0  0  0  0  0  0  0  0  0  0
   53.8320   23.2170   45.3480 C   0  0  0  0  0  0  0  0  0  0  0  0
   52.5330   23.0070   44.8550 O   0  0  0  0  0  0  0  0  0  0  0  0
   51.6290   24.0520   44.5000 C   0  0  0  0  0  0  0  0  0  0  0  0
   51.2278   24.5158   45.4132 H   0  0  0  0  0  0  0  0  0  0  0  0
   52.1603   24.8106   43.9065 H   0  0  0  0  0  0  0  0  0  0  0  0
   50.8018   23.6354   43.9065 H   0  0  0  0  0  0  0  0  0  0  0  0
   54.8600   23.4630   44.4280 C   0  0  0  0  0  0  0  0  0  0  0  0
   54.6384   23.4692   43.3506 H   0  0  0  0  0  0  0  0  0  0  0  0
  1  2  1  0
  2  3  1  0
  3  4  2  0
  3  5  1  0
  5  6  1  0
  6  7  2  0
  6  8  2  0
  6  9  1  0
  9 10  2  0
 10 11  1  0
 10 12  1  0
 12 13  1  0
 12 14  2  0
 14 15  1  0
 14 16  1  0
 16 17  1  0
 17 18  2  0
 18 19  1  0
 18 20  1  0
 20 21  1  0
 20 22  2  0
 22 23  1  0
 22 24  1  0
 24 25  1  0
 25 26  2  0
 25 27  1  0
 24 28  2  0
 28 29  1  0
 16 30  2  0
 30 31  1  0
 31 32  1  0
 32 33  1  0
 32 34  1  0
 32 35  1  0
 35 36  1  0
 35 37  1  0
 35 38  1  0
 38 39  1  0
 39 40  1  0
 39 41  1  0
 39 42  1  0
 42 43  1  0
 42 44  1  0
  2 45  2  0
 45 46  1  0
 45 47  1  0
 47 48  2  0
 48 49  1  0
 48 50  1  0
 50 51  1  0
 50 52  2  0
 52 53  1  0
 52 54  1  0
 54 55  1  0
 55 56  1  0
 56 57  1  0
 56 58  1  0
 56 59  1  0
 54 60  2  0
 60 61  1  0
 30  9  1  0
 42 31  1  0
 60 47  1  0
 28 17  1  0
M  CHG  3   5  -1  25   1  27  -1
M  END
>  <UniqueID>  (6) 
5

>  <SMILES>  (6) 
COc1cccc(/C=C\C(=O)[N-]S(=O)(=O)c2cccc(-c3cccc([N+](=O)[O-])c3)c2N2CCOCC2)c1

>  <Energy>  (6) 
93.78715473782405

>  <Genealogy>  (6) 
COc1cccc(C=CC(=O)[N-]S(=O)(=O)c2cccc(-c3cccc([N+](=O)[O-])c3)c2N2CCOCC2)c1 (protonated)
COc1cccc(/C=C\C(=O)[N-]S(=O)(=O)c2cccc(-c3cccc([N+](=O)[O-])c3)c2N2CCOCC2)c1 (cis-trans isomerization)
COc1cccc(/C=C\C(=O)[N-]S(=O)(=O)c2cccc(-c3cccc([N+](=O)[O-])c3)c2N2CCOCC2)c1 (3D coordinates assigned)
COc1cccc(/C=C\C(=O)[N-]S(=O)(=O)c2cccc(-c3cccc([N+](=O)[O-])c3)c2N2CCOCC2)c1 (nonaromatic ring conformer: 93.78715473782405 kcal/mol)

>  <smiles>  (6) 
COc1cccc(C=CC(=O)NS(=O)(=O)c2cccc(-c3cccc([N+](=O)[O-])c3)c2N2CCOCC2)c1

>  <score_type>  (6) 
oracle

>  <origin>  (6) 
adg

>  <m_score__min__energy>  (6) 
-12.48

>  <m_primary>  (6) 
energy

$$$$
6:0
     RDKit          3D

 51 54  0  0  0  0  0  0  0  0999 V2000
   57.0290   31.5590   42.9520 O   0  0  0  0  0  0  0  0  0  0  0  0
   57.2720   31.1390   44.1150 C   0  0  0  0  0  0  0  0  0  0  0  0
   57.0240   32.0150   45.2260 N   0  0  0  0  0  0  0  0  0  0  0  0
   57.8080   32.9570   45.6770 C   0  0  0  0  0  0  0  0  0  0  0  0
   57.9710   33.2040   47.0570 C   0  0  0  0  0  0  0  0  0  0  0  0
   58.8250   34.2240   47.4770 C   0  0  0  0  0  0  0  0  0  0  0  0
   59.5140   34.9860   46.5350 C   0  0  0  0  0  0  0  0  0  0  0  0
   59.3470   34.7080   45.1800 C   0  0  0  0  0  0  0  0  0  0  0  0
   58.5110   33.7090   44.7810 N   0  0  0  0  0  0  0  0  0  0  0  0
   57.7310   29.7410   44.3090 C   0  0  0  0  0  0  0  0  0  0  0  0
   57.3930   28.7370   43.3840 C   0  0  0  0  0  0  0  0  0  0  0  0
   57.8330   27.4250   43.5710 C   0  0  0  0  0  0  0  0  0  0  0  0
   58.6150   27.0980   44.6790 C   0  0  0  0  0  0  0  0  0  0  0  0
   58.9620   28.0810   45.6200 C   0  0  0  0  0  0  0  0  0  0  0  0
   59.8110   27.7400   46.7850 C   0  0  0  0  0  0  0  0  0  0  0  0
   60.1860   26.5470   46.9480 O   0  0  0  0  0  0  0  0  0  0  0  0
   60.1880   28.7360   47.7520 N   0  0  0  0  0  0  0  0  0  0  0  0
   60.1380   28.3930   49.1800 C   0  0  0  0  0  0  0  0  0  0  0  0
   60.6580   29.5420   50.0510 C   0  0  0  0  0  0  0  0  0  0  0  0
   60.1200   30.8170   49.5610 N   0  0  0  0  0  0  0  0  0  0  0  0
   59.4140   31.7060   50.4480 C   0  0  0  0  0  0  0  0  0  0  0  0
   59.9460   32.9680   50.7630 C   0  0  0  0  0  0  0  0  0  0  0  0
   59.2520   33.8330   51.6170 C   0  0  0  0  0  0  0  0  0  0  0  0
   58.0220   33.4480   52.1570 C   0  0  0  0  0  0  0  0  0  0  0  0
   57.4830   32.1980   51.8430 C   0  0  0  0  0  0  0  0  0  0  0  0
   58.1730   31.3300   50.9930 C   0  0  0  0  0  0  0  0  0  0  0  0
   60.2670   31.1720   48.1410 C   0  0  0  0  0  0  0  0  0  0  0  0
   60.8100   29.9960   47.3170 C   0  0  0  0  0  0  0  0  0  0  0  0
   58.5260   29.4040   45.4200 C   0  0  0  0  0  0  0  0  0  0  0  0
   57.4284   32.5964   47.7962 H   0  0  0  0  0  0  0  0  0  0  0  0
   58.9545   34.4267   48.5504 H   0  0  0  0  0  0  0  0  0  0  0  0
   60.1823   35.7979   46.8578 H   0  0  0  0  0  0  0  0  0  0  0  0
   59.8927   35.2979   44.4288 H   0  0  0  0  0  0  0  0  0  0  0  0
   58.4040   33.5300   43.7560 H   0  0  0  0  0  0  0  0  0  0  0  0
   56.7777   28.9870   42.5071 H   0  0  0  0  0  0  0  0  0  0  0  0
   57.5621   26.6468   42.8423 H   0  0  0  0  0  0  0  0  0  0  0  0
   58.9621   26.0633   44.8165 H   0  0  0  0  0  0  0  0  0  0  0  0
   59.0965   28.1755   49.4593 H   0  0  0  0  0  0  0  0  0  0  0  0
   60.7792   27.5150   49.3472 H   0  0  0  0  0  0  0  0  0  0  0  0
   60.3377   29.3858   51.0917 H   0  0  0  0  0  0  0  0  0  0  0  0
   61.7566   29.5675   50.0025 H   0  0  0  0  0  0  0  0  0  0  0  0
   60.9117   33.2773   50.3367 H   0  0  0  0  0  0  0  0  0  0  0  0
   59.6756   34.8178   51.8635 H   0  0  0  0  0  0  0  0  0  0  0  0
   57.4786   34.1287   52.8288 H   0  0  0  0  0  0  0  0  0  0  0  0
   56.5133   31.8965   52.2659 H   0  0  0  0  0  0  0  0  0  0  0  0
   57.7434   30.3473   50.7487 H   0  0  0  0  0  0  0  0  0  0  0  0
   59.2840   31.4632   47.7424 H   0  0  0  0  0  0  0  0  0  0  0  0
   60.9834   32.0034   48.0669 H   0  0  0  0  0  0  0  0  0  0  0  0
   60.5844   30.1636   46.2535 H   0  0  0  0  0  0  0  0  0  0  0  0
   61.8977   29.9275   47.4659 H   0  0  0  0  0  0  0  0  0  0  0  0
   58.8102   30.1844   46.1412 H   0  0  0  0  0  0  0  0  0  0  0  0
  1  2  2  0
  2  3  1  0
  3  4  2  3
  4  5  1  0
  5  6  2  0
  6  7  1  0
  7  8  2  0
  8  9  1  0
  2 10  1  0
 10 11  2  0
 11 12  1  0
 12 13  2  0
 13 14  1  0
 14 15  1  0
 15 16  2  0
 15 17  1  0
 17 18  1  0
 18 19  1  0
 19 20  1  0
 20 21  1  0
 21 22  2  0
 22 23  1  0
 23 24  2  0
 24 25  1  0
 25 26  2  0
 20 27  1  0
 27 28  1  0
 14 29  2  0
  9  4  1  0
 29 10  1  0
 28 17  1  0
 26 21  1  0
  5 30  1  0
  6 31  1  0
  7 32  1  0
  8 33  1  0
  9 34  1  0
 11 35  1  0
 12 36  1  0
 13 37  1  0
 18 38  1  0
 18 39  1  0
 19 40  1  0
 19 41  1  0
 22 42  1  0
 23 43  1  0
 24 44  1  0
 25 45  1  0
 26 46  1  0
 27 47  1  0
 27 48  1  0
 28 49  1  0
 28 50  1  0
 29 51  1  0
M  END
>  <UniqueID>  (7) 
6

>  <SMILES>  (7) 
O=C(N=c1cccc[nH]1)c1cccc(C(=O)N2CCN(c3ccccc3)CC2)c1

>  <Energy>  (7) 
75.16390584537497

>  <Genealogy>  (7) 
O=C(N=c1cccc[nH]1)c1cccc(C(=O)N2CCN(c3ccccc3)CC2)c1 (3D coordinates assigned)
O=C(N=c1cccc[nH]1)c1cccc(C(=O)N2CCN(c3ccccc3)CC2)c1 (nonaromatic ring conformer: 75.16390584537497 kcal/mol)

>  <smiles>  (7) 
O=C(N=c1cccc[nH]1)c1cccc(C(=O)N2CCN(c3ccccc3)CC2)c1

>  <score_type>  (7) 
oracle

>  <origin>  (7) 
adg

>  <m_score__min__energy>  (7) 
-9.2400000000000002

>  <m_primary>  (7) 
energy

$$$$
7:0
     RDKit          3D

 54 57  0  0  0  0  0  0  0  0999 V2000
   60.5630   30.0200   49.5390 O   0  0  0  0  0  0  0  0  0  0  0  0
   60.6020   29.7010   48.3210 C   0  0  0  0  0  0  0  0  0  0  0  0
   60.6480   30.7740   47.2780 C   0  0  0  0  0  0  0  0  0  0  0  0
   61.8170   31.6930   47.5260 C   0  0  0  0  0  0  0  0  0  0  0  0
   61.9900   32.8480   46.7390 C   0  0  0  0  0  0  0  0  0  0  0  0
   63.0750   33.6990   46.9640 C   0  0  0  0  0  0  0  0  0  0  0  0
   63.9860   33.4200   47.9860 C   0  0  0  0  0  0  0  0  0  0  0  0
   63.8130   32.2860   48.7850 C   0  0  0  0  0  0  0  0  0  0  0  0
   62.7400   31.4190   48.5520 C   0  0  0  0  0  0  0  0  0  0  0  0
   60.6330   28.3240   47.9270 N   0  0  0  0  0  0  0  0  0  0  0  0
   59.5570   27.6520   47.2600 C   0  0  0  0  0  0  0  0  0  0  0  0
   59.1310   26.4030   47.7270 C   0  0  0  0  0  0  0  0  0  0  0  0
   58.0520   25.7550   47.1180 C   0  0  0  0  0  0  0  0  0  0  0  0
   57.3920   26.3500   46.0380 C   0  0  0  0  0  0  0  0  0  0  0  0
   57.8070   27.5970   45.5590 C   0  0  0  0  0  0  0  0  0  0  0  0
   57.1010   28.2000   44.4630 N   0  0  0  0  0  0  0  0  0  0  0  0
   56.3620   29.4280   44.5400 C   0  0  0  0  0  0  0  0  0  0  0  0
   55.1450   29.3890   44.8580 O   0  0  0  0  0  0  0  0  0  0  0  0
   56.9950   30.7280   44.2330 C   0  0  0  0  0  0  0  0  0  0  0  0
   57.2130   31.1120   42.9000 C   0  0  0  0  0  0  0  0  0  0  0  0
   57.8470   32.3200   42.6100 C   0  0  0  0  0  0  0  0  0  0  0  0
   58.2800   33.1510   43.6440 C   0  0  0  0  0  0  0  0  0  0  0  0
   58.0810   32.7830   44.9870 C   0  0  0  0  0  0  0  0  0  0  0  0
   58.5920   33.6400   46.0810 C   0  0  0  0  0  0  0  0  0  0  0  0
   59.4370   34.5410   45.8300 O   0  0  0  0  0  0  0  0  0  0  0  0
   58.1060   33.4620   47.4190 N   0  0  0  0  0  0  0  0  0  0  0  0
   58.8940   33.4150   48.6160 C   0  0  0  0  0  0  0  0  0  0  0  0
   60.0280   34.2270   48.7990 C   0  0  0  0  0  0  0  0  0  0  0  0
   60.7870   34.1240   49.9690 C   0  0  0  0  0  0  0  0  0  0  0  0
   60.4310   33.2010   50.9550 C   0  0  0  0  0  0  0  0  0  0  0  0
   59.3160   32.3810   50.7740 C   0  0  0  0  0  0  0  0  0  0  0  0
   58.5540   32.4820   49.6060 C   0  0  0  0  0  0  0  0  0  0  0  0
   57.4200   31.5720   45.2720 C   0  0  0  0  0  0  0  0  0  0  0  0
   58.8700   28.2600   46.1970 C   0  0  0  0  0  0  0  0  0  0  0  0
   60.7539   30.3115   46.2856 H   0  0  0  0  0  0  0  0  0  0  0  0
   59.7170   31.3581   47.3234 H   0  0  0  0  0  0  0  0  0  0  0  0
   61.2673   33.0813   45.9432 H   0  0  0  0  0  0  0  0  0  0  0  0
   63.2124   34.5909   46.3350 H   0  0  0  0  0  0  0  0  0  0  0  0
   64.8388   34.0922   48.1618 H   0  0  0  0  0  0  0  0  0  0  0  0
   64.5222   32.0749   49.5989 H   0  0  0  0  0  0  0  0  0  0  0  0
   62.6175   30.5196   49.1733 H   0  0  0  0  0  0  0  0  0  0  0  0
   59.6467   25.9299   48.5757 H   0  0  0  0  0  0  0  0  0  0  0  0
   57.7211   24.7739   47.4896 H   0  0  0  0  0  0  0  0  0  0  0  0
   56.5434   25.8355   45.5635 H   0  0  0  0  0  0  0  0  0  0  0  0
   56.8822   30.4569   42.0806 H   0  0  0  0  0  0  0  0  0  0  0  0
   58.0061   32.6185   41.5633 H   0  0  0  0  0  0  0  0  0  0  0  0
   58.7808   34.1013   43.4070 H   0  0  0  0  0  0  0  0  0  0  0  0
   60.3189   34.9458   48.0188 H   0  0  0  0  0  0  0  0  0  0  0  0
   61.6652   34.7705   50.1129 H   0  0  0  0  0  0  0  0  0  0  0  0
   61.0295   33.1203   51.8744 H   0  0  0  0  0  0  0  0  0  0  0  0
   59.0365   31.6545   51.5512 H   0  0  0  0  0  0  0  0  0  0  0  0
   57.6828   31.8258   49.4629 H   0  0  0  0  0  0  0  0  0  0  0  0
   57.2351   31.2849   46.3177 H   0  0  0  0  0  0  0  0  0  0  0  0
   59.1663   29.2644   45.8603 H   0  0  0  0  0  0  0  0  0  0  0  0
  1  2  2  0
  2  3  1  0
  3  4  1  0
  4  5  2  0
  5  6  1  0
  6  7  2  0
  7  8  1  0
  8  9  2  0
  2 10  1  0
 10 11  1  0
 11 12  2  0
 12 13  1  0
 13 14  2  0
 14 15  1  0
 15 16  1  0
 16 17  1  0
 17 18  2  0
 17 19  1  0
 19 20  2  0
 20 21  1  0
 21 22  2  0
 22 23  1  0
 23 24  1  0
 24 25  2  0
 24 26  1  0
 26 27  1  0
 27 28  2  0
 28 29  1  0
 29 30  2  0
 30 31  1  0
 31 32  2  0
 23 33  2  0
 15 34  2  0
  9  4  1  0
 34 11  1  0
 33 19  1  0
 32 27  1  0
  3 35  1  0
  3 36  1  0
  5 37  1  0
  6 38  1  0
  7 39  1  0
  8 40  1  0
  9 41  1  0
 12 42  1  0
 13 43  1  0
 14 44  1  0
 20 45  1  0
 21 46  1  0
 22 47  1  0
 28 48  1  0
 29 49  1  0
 30 50  1  0
 31 51  1  0
 32 52  1  0
 33 53  1  0
 34 54  1  0
M  CHG  3  10  -1  16  -1  26  -1
M  END
>  <UniqueID>  (8) 
7

>  <SMILES>  (8) 
O=C(Cc1ccccc1)[N-]c1cccc([N-]C(=O)c2cccc(C(=O)[N-]c3ccccc3)c2)c1

>  <Energy>  (8) 
67.8212438685845

>  <Genealogy>  (8) 
O=C(Cc1ccccc1)[N-]c1cccc([N-]C(=O)c2cccc(C(=O)[N-]c3ccccc3)c2)c1 (protonated)
O=C(Cc1ccccc1)[N-]c1cccc([N-]C(=O)c2cccc(C(=O)[N-]c3ccccc3)c2)c1 (3D coordinates assigned)
O=C(Cc1ccccc1)[N-]c1cccc([N-]C(=O)c2cccc(C(=O)[N-]c3ccccc3)c2)c1 (optimized conformer: 67.8212438685845 kcal/mol)

>  <smiles>  (8) 
O=C(Cc1ccccc1)Nc1cccc(NC(=O)c2cccc(C(=O)Nc3ccccc3)c2)c1

>  <score_type>  (8) 
oracle

>  <origin>  (8) 
adg

>  <m_score__min__energy>  (8) 
-14.039999999999999

>  <m_primary>  (8) 
energy

$$$$
8:0
     RDKit          3D

 37 40  0  0  1  0  0  0  0  0999 V2000
   57.7720   32.3400   42.4100 C   0  0  0  0  0  0  0  0  0  0  0  0
   57.0420   31.2150   42.0710 C   0  0  0  0  0  0  0  0  0  0  0  0
   56.6710   30.2650   43.0120 C   0  0  0  0  0  0  0  0  0  0  0  0
   57.0450   30.4410   44.3670 C   0  0  0  0  0  0  0  0  0  0  0  0
   55.5230   25.2390   45.9540 N   0  0  0  0  0  0  0  0  0  0  0  0
   56.3970   26.1880   46.0700 C   0  0  0  0  0  0  0  0  0  0  0  0
   56.1140   27.4290   45.6540 N   0  0  0  0  0  0  0  0  0  0  0  0
   56.9570   28.4720   45.7350 C   0  0  0  0  0  0  0  0  0  0  0  0
   56.5990   29.5780   45.3230 N   0  0  0  0  0  0  0  0  0  0  0  0
   55.5950   24.3460   44.7890 C   0  0  0  0  0  0  0  0  0  0  0  0
   56.6580   23.2850   44.7790 C   0  0  0  0  0  0  0  0  0  0  0  0
   56.8820   24.5030   43.9650 C   0  0  0  0  0  0  0  0  0  0  0  0
   57.6100   25.9800   46.6010 N   0  0  0  0  0  0  0  0  0  0  0  0
   58.4810   26.9980   46.6980 C   0  0  0  0  0  0  0  0  0  0  0  0
   59.7050   26.7220   47.2510 C   0  0  0  0  0  0  0  0  0  0  0  0
   60.6000   27.7560   47.3540 C   0  0  0  0  0  0  0  0  0  0  0  0
   60.3740   29.0370   46.9520 C   0  0  0  0  0  0  0  0  0  0  0  0
   59.1100   29.2950   46.3880 C   0  0  0  0  0  0  0  0  0  0  0  0
   58.2000   28.2860   46.2730 C   0  0  0  0  0  0  0  0  0  0  0  0
   57.7930   31.5940   44.7160 C   0  0  0  0  0  0  0  0  0  0  0  0
   58.1330   32.5060   43.7320 C   0  0  0  0  0  0  0  0  0  0  0  0
   58.0566   33.0808   41.6483 H   0  0  0  0  0  0  0  0  0  0  0  0
   56.7461   31.0687   41.0217 H   0  0  0  0  0  0  0  0  0  0  0  0
   56.0906   29.3815   42.7079 H   0  0  0  0  0  0  0  0  0  0  0  0
   55.1500   27.5630   45.2400 H   0  0  0  0  0  0  0  0  0  0  0  0
   54.5100   24.3435   44.6080 H   0  0  0  0  0  0  0  0  0  0  0  0
   57.2645   23.1135   45.6805 H   0  0  0  0  0  0  0  0  0  0  0  0
   56.6621   22.2067   44.5614 H   0  0  0  0  0  0  0  0  0  0  0  0
   57.6443   25.2358   44.2681 H   0  0  0  0  0  0  0  0  0  0  0  0
   57.1117   24.7033   42.9081 H   0  0  0  0  0  0  0  0  0  0  0  0
   57.8430   25.0160   46.9280 H   0  0  0  0  0  0  0  0  0  0  0  0
   59.9593   25.7099   47.5987 H   0  0  0  0  0  0  0  0  0  0  0  0
   61.5812   27.5320   47.7979 H   0  0  0  0  0  0  0  0  0  0  0  0
   61.1344   29.8243   47.0614 H   0  0  0  0  0  0  0  0  0  0  0  0
   58.8572   30.3078   46.0411 H   0  0  0  0  0  0  0  0  0  0  0  0
   58.1001   31.7620   45.7588 H   0  0  0  0  0  0  0  0  0  0  0  0
   58.7130   33.3971   44.0141 H   0  0  0  0  0  0  0  0  0  0  0  0
  1  2  2  0
  2  3  1  0
  3  4  2  0
  4  5  1  0
  5  6  2  0
  6  7  1  0
  7  8  1  0
  8  9  2  0
  9 10  1  0
 10 11  1  0
 11 12  1  0
  8 13  1  0
 13 14  1  0
 14 15  2  0
 15 16  1  0
 16 17  2  0
 17 18  1  0
 18 19  2  0
  4 20  1  0
 20 21  2  0
 21  1  1  0
 19  6  1  0
 12 10  1  0
 19 14  1  0
  1 22  1  0
  2 23  1  0
  3 24  1  0
  7 25  1  0
 10 26  1  0
 11 27  1  0
 11 28  1  0
 12 29  1  0
 12 30  1  0
 13 31  1  0
 15 32  1  0
 16 33  1  0
 17 34  1  0
 18 35  1  0
 20 36  1  0
 21 37  1  0
M  END
>  <smiles>  (9) 
c1ccc(N=c2[nH]c(=NC3CC3)[nH]c3ccccc23)cc1

>  <score_type>  (9) 
oracle

>  <origin>  (9) 
adg

>  <m_score__min__energy>  (9) 
-7.8300000000000001

>  <m_primary>  (9) 
energy

$$$$
9:0
     RDKit          3D

 53 56  0  0  0  0  0  0  0  0999 V2000
   60.2192   30.4110   44.5004 H   0  0  0  0  0  0  0  0  0  0  0  0
   59.5650   29.5720   44.7800 C   0  0  0  0  0  0  0  0  0  0  0  0
   58.9837   29.0468   44.0078 H   0  0  0  0  0  0  0  0  0  0  0  0
   59.4760   29.1890   46.0640 C   0  0  0  0  0  0  0  0  0  0  0  0
   58.6880   28.1430   46.5650 C   0  0  0  0  0  0  0  0  0  0  0  0
   57.8880   27.3190   45.8570 C   0  0  0  0  0  0  0  0  0  0  0  0
   57.6946   27.5806   44.8062 H   0  0  0  0  0  0  0  0  0  0  0  0
   57.2500   26.0910   46.3820 C   0  0  0  0  0  0  0  0  0  0  0  0
   57.8920   25.0540   46.9500 N   0  0  0  0  0  0  0  0  0  0  0  0
   56.8890   24.2290   47.3240 C   0  0  0  0  0  0  0  0  0  0  0  0
   57.0970   23.1270   47.8950 O   0  0  0  0  0  0  0  0  0  0  0  0
   55.6500   24.6800   47.0400 N   0  0  0  0  0  0  0  0  0  0  0  0
   55.8960   25.8620   46.4510 C   0  0  0  0  0  0  0  0  0  0  0  0
   54.9020   26.7140   45.9870 O   0  0  0  0  0  0  0  0  0  0  0  0
   58.9240   28.1050   47.9340 C   0  0  0  0  0  0  0  0  0  0  0  0
   58.4757   27.4096   48.6588 H   0  0  0  0  0  0  0  0  0  0  0  0
   59.8290   29.1080   48.2070 C   0  0  0  0  0  0  0  0  0  0  0  0
   60.3620   29.3990   49.5530 C   0  0  0  0  0  0  0  0  0  0  0  0
   61.5510   29.0510   49.7900 O   0  0  0  0  0  0  0  0  0  0  0  0
   59.6130   30.1180   50.5760 N   0  0  0  0  0  0  0  0  0  0  0  0
   59.1460   29.3820   51.1580 H   0  0  0  0  0  0  0  0  0  0  0  0
   58.5370   30.9240   49.9300 C   0  0  0  0  0  0  0  0  0  0  0  0
   58.8842   31.2446   48.9367 H   0  0  0  0  0  0  0  0  0  0  0  0
   57.6407   30.2903   49.8593 H   0  0  0  0  0  0  0  0  0  0  0  0
   58.1660   32.1680   50.7470 C   0  0  0  0  0  0  0  0  0  0  0  0
   57.3398   32.6949   50.2472 H   0  0  0  0  0  0  0  0  0  0  0  0
   57.8623   31.8506   51.7555 H   0  0  0  0  0  0  0  0  0  0  0  0
   59.3240   33.0820   50.8650 N   0  0  0  0  0  0  0  0  0  0  0  0
   59.1070   34.0430   51.9570 C   0  0  0  0  0  0  0  0  0  0  0  0
   59.2225   33.5315   52.9240 H   0  0  0  0  0  0  0  0  0  0  0  0
   59.8442   34.8560   51.8819 H   0  0  0  0  0  0  0  0  0  0  0  0
   58.0920   34.4603   51.8819 H   0  0  0  0  0  0  0  0  0  0  0  0
   60.6220   32.3760   51.0120 C   0  0  0  0  0  0  0  0  0  0  0  0
   61.1262   32.3554   50.0346 H   0  0  0  0  0  0  0  0  0  0  0  0
   61.2181   32.9194   51.7599 H   0  0  0  0  0  0  0  0  0  0  0  0
   60.4470   30.9310   51.5090 C   0  0  0  0  0  0  0  0  0  0  0  0
   61.4386   30.4634   51.5987 H   0  0  0  0  0  0  0  0  0  0  0  0
   59.9348   30.9651   52.4819 H   0  0  0  0  0  0  0  0  0  0  0  0
   60.1550   29.7810   47.0810 N   0  0  0  0  0  0  0  0  0  0  0  0
   61.0690   30.9310   46.9930 C   0  0  0  0  0  0  0  0  0  0  0  0
   61.7758   30.8938   47.8351 H   0  0  0  0  0  0  0  0  0  0  0  0
   61.6070   30.8780   46.0350 H   0  0  0  0  0  0  0  0  0  0  0  0
   60.3080   32.2330   47.0450 C   0  0  0  0  0  0  0  0  0  0  0  0
   60.9170   33.3900   47.5590 C   0  0  0  0  0  0  0  0  0  0  0  0
   61.9594   33.3508   47.9081 H   0  0  0  0  0  0  0  0  0  0  0  0
   60.2040   34.5920   47.6290 C   0  0  0  0  0  0  0  0  0  0  0  0
   60.6886   35.4964   48.0257 H   0  0  0  0  0  0  0  0  0  0  0  0
   58.8760   34.6440   47.1950 C   0  0  0  0  0  0  0  0  0  0  0  0
   58.3166   35.5895   47.2496 H   0  0  0  0  0  0  0  0  0  0  0  0
   58.2590   33.4960   46.6920 C   0  0  0  0  0  0  0  0  0  0  0  0
   57.2136   33.5378   46.3523 H   0  0  0  0  0  0  0  0  0  0  0  0
   58.9700   32.2930   46.6200 C   0  0  0  0  0  0  0  0  0  0  0  0
   58.4791   31.3897   46.2287 H   0  0  0  0  0  0  0  0  0  0  0  0
  1  2  1  0
  2  3  1  0
  2  4  2  0
  4  5  1  0
  5  6  2  0
  6  7  1  0
  6  8  1  0
  8  9  1  0
  9 10  1  0
 10 11  2  0
 10 12  1  0
 12 13  1  0
 13 14  1  0
  5 15  1  0
 15 16  1  0
 15 17  2  0
 17 18  1  0
 18 19  2  0
 18 20  1  0
 20 21  1  0
 20 22  1  0
 22 23  1  0
 22 24  1  0
 22 25  1  0
 25 26  1  0
 25 27  1  0
 25 28  1  0
 28 29  1  0
 29 30  1  0
 29 31  1  0
 29 32  1  0
 28 33  1  0
 33 34  1  0
 33 35  1  0
 33 36  1  0
 36 37  1  0
 36 38  1  0
 17 39  1  0
 39 40  1  0
 40 41  1  0
 40 42  1  0
 40 43  1  0
 43 44  2  0
 44 45  1  0
 44 46  1  0
 46 47  1  0
 46 48  2  0
 48 49  1  0
 48 50  1  0
 50 51  1  0
 50 52  2  0
 52 53  1  0
 39  4  1  0
 52 43  1  0
 13  8  2  0
 36 20  1  0
M  CHG  4   9  -1  12  -1  14  -1  20   1
M  END
>  <UniqueID>  (10) 
8

>  <SMILES>  (10) 
C=c1/c(=C/c2[n-]c(=O)[n-]c2[O-])cc(C(=O)[NH+]2CCN(C)CC2)n1Cc1ccccc1

>  <Energy>  (10) 
143.04401390137974

>  <Genealogy>  (10) 
C=c1c(=Cc2[n-]c(=O)[n-]c2[O-])cc(C(=O)[NH+]2CCN(C)CC2)n1Cc1ccccc1 (protonated)
C=c1/c(=C/c2[n-]c(=O)[n-]c2[O-])cc(C(=O)[NH+]2CCN(C)CC2)n1Cc1ccccc1 (cis-trans isomerization)
C=c1/c(=C/c2[n-]c(=O)[n-]c2[O-])cc(C(=O)[NH+]2CCN(C)CC2)n1Cc1ccccc1 (3D coordinates assigned)
C=c1/c(=C/c2[n-]c(=O)[n-]c2[O-])cc(C(=O)[NH+]2CCN(C)CC2)n1Cc1ccccc1 (nonaromatic ring conformer: 143.04401390137974 kcal/mol)

>  <smiles>  (10) 
C=c1c(=Cc2[nH]c(=O)[nH]c2O)cc(C(=O)N2CCN(C)CC2)n1Cc1ccccc1

>  <score_type>  (10) 
oracle

>  <origin>  (10) 
adg

>  <m_score__min__energy>  (10) 
-15.369999999999999

>  <m_primary>  (10) 
energy

$$$$
10:0
     RDKit          3D

 60 62  0  0  0  0  0  0  0  0999 V2000
   60.1970   33.4070   47.1740 C   0  0  0  0  0  0  0  0  0  0  0  0
   59.6210   32.2820   46.3490 C   0  0  0  0  0  0  0  0  0  0  0  0
   58.6420   32.4920   45.4400 C   0  0  0  0  0  0  0  0  0  0  0  0
   58.1640   33.8650   45.1650 C   0  0  0  0  0  0  0  0  0  0  0  0
   56.9720   34.1840   45.4180 O   0  0  0  0  0  0  0  0  0  0  0  0
   59.0280   34.8070   44.6190 O   0  0  0  0  0  0  0  0  0  0  0  0
   58.1300   31.3130   44.6100 C   0  0  2  0  0  0  0  0  0  0  0  0
   56.7460   31.5910   43.9860 C   0  0  0  0  0  0  0  0  0  0  0  0
   58.1390   30.0210   45.4310 C   0  0  0  0  0  0  0  0  0  0  0  0
   57.2120   28.9340   45.0610 C   0  0  0  0  0  0  0  0  0  0  0  0
   55.8050   29.1660   45.0680 N   0  0  0  0  0  0  0  0  0  0  0  0
   57.6670   27.8150   44.7010 O   0  0  0  0  0  0  0  0  0  0  0  0
   59.1160   29.8240   46.3530 C   0  0  0  0  0  0  0  0  0  0  0  0
   59.2710   28.5610   47.1300 C   0  0  0  0  0  0  0  0  0  0  0  0
   59.9340   27.6080   46.6310 O   0  0  0  0  0  0  0  0  0  0  0  0
   58.7610   28.4530   48.4680 N   0  0  0  0  0  0  0  0  0  0  0  0
   59.0880   29.2990   49.5800 C   0  0  0  0  0  0  0  0  0  0  0  0
   58.9540   30.6970   49.5230 C   0  0  0  0  0  0  0  0  0  0  0  0
   59.2800   31.4840   50.6320 C   0  0  0  0  0  0  0  0  0  0  0  0
   59.7650   30.8880   51.8070 C   0  0  0  0  0  0  0  0  0  0  0  0
   60.0620   31.7230   53.0250 C   0  0  0  0  0  0  0  0  0  0  0  0
   58.8960   32.6150   53.3590 C   0  0  0  0  0  0  0  0  0  0  0  0
   59.0280   33.4980   54.2510 O   0  0  0  0  0  0  0  0  0  0  0  0
   57.6520   32.5290   52.6530 N   0  0  0  0  0  0  0  0  0  0  0  0
   56.7330   31.4270   52.6720 C   0  0  0  0  0  0  0  0  0  0  0  0
   57.0040   30.2530   53.3970 C   0  0  0  0  0  0  0  0  0  0  0  0
   56.0700   29.2150   53.4270 C   0  0  0  0  0  0  0  0  0  0  0  0
   54.8490   29.3490   52.7590 C   0  0  0  0  0  0  0  0  0  0  0  0
   54.5460   30.5370   52.0720 C   0  0  0  0  0  0  0  0  0  0  0  0
   53.2760   30.6840   51.3340 C   0  0  0  0  0  0  0  0  0  0  0  0
   52.1340   31.1640   51.8530 C   0  0  0  0  0  0  0  0  0  0  0  0
   51.2870   32.2120   51.2500 C   0  0  0  0  0  0  0  0  0  0  0  0
   51.0630   32.2490   50.0110 O   0  0  0  0  0  0  0  0  0  0  0  0
   50.6720   33.1430   52.0770 O   0  0  0  0  0  0  0  0  0  0  0  0
   55.4990   31.5650   52.0200 C   0  0  0  0  0  0  0  0  0  0  0  0
   59.9240   29.4940   51.8540 C   0  0  0  0  0  0  0  0  0  0  0  0
   59.5970   28.7100   50.7440 C   0  0  0  0  0  0  0  0  0  0  0  0
   60.1780   30.8890   46.5330 C   0  0  0  0  0  0  0  0  0  0  0  0
   60.0786   33.1757   48.2429 H   0  0  0  0  0  0  0  0  0  0  0  0
   61.2656   33.5233   46.9402 H   0  0  0  0  0  0  0  0  0  0  0  0
   59.6667   34.3419   46.9402 H   0  0  0  0  0  0  0  0  0  0  0  0
   58.8247   31.1798   43.7676 H   0  0  0  0  0  0  0  0  0  0  0  0
   56.0061   31.7396   44.7863 H   0  0  0  0  0  0  0  0  0  0  0  0
   56.7996   32.4963   43.3635 H   0  0  0  0  0  0  0  0  0  0  0  0
   56.4459   30.7352   43.3635 H   0  0  0  0  0  0  0  0  0  0  0  0
   55.1660   28.5780   45.6460 H   0  0  0  0  0  0  0  0  0  0  0  0
   58.5907   31.1746   48.6011 H   0  0  0  0  0  0  0  0  0  0  0  0
   59.1558   32.5759   50.5835 H   0  0  0  0  0  0  0  0  0  0  0  0
   60.2632   31.0580   53.8778 H   0  0  0  0  0  0  0  0  0  0  0  0
   60.9391   32.3529   52.8153 H   0  0  0  0  0  0  0  0  0  0  0  0
   57.9541   30.1519   53.9420 H   0  0  0  0  0  0  0  0  0  0  0  0
   56.2955   28.2898   53.9775 H   0  0  0  0  0  0  0  0  0  0  0  0
   54.1235   28.5222   52.7712 H   0  0  0  0  0  0  0  0  0  0  0  0
   53.2640   30.3768   50.2778 H   0  0  0  0  0  0  0  0  0  0  0  0
   51.8006   30.7390   52.8113 H   0  0  0  0  0  0  0  0  0  0  0  0
   55.2766   32.4872   51.4631 H   0  0  0  0  0  0  0  0  0  0  0  0
   60.3074   29.0168   52.7679 H   0  0  0  0  0  0  0  0  0  0  0  0
   59.7408   27.6202   50.7852 H   0  0  0  0  0  0  0  0  0  0  0  0
   60.5966   30.8051   47.5468 H   0  0  0  0  0  0  0  0  0  0  0  0
   60.9521   30.7292   45.7680 H   0  0  0  0  0  0  0  0  0  0  0  0
  1  2  1  0
  2  3  2  0
  3  4  1  0
  4  5  2  0
  4  6  1  0
  3  7  1  0
  7  8  1  0
  7  9  1  0
  9 10  1  0
 10 11  1  0
 10 12  2  0
  9 13  2  0
 13 14  1  0
 14 15  2  0
 14 16  1  0
 16 17  1  0
 17 18  2  0
 18 19  1  0
 19 20  2  0
 20 21  1  0
 21 22  1  0
 22 23  2  0
 22 24  1  0
 24 25  1  0
 25 26  2  0
 26 27  1  0
 27 28  2  0
 28 29  1  0
 29 30  1  0
 30 31  2  3
 31 32  1  0
 32 33  2  0
 32 34  1  0
 29 35  2  0
 20 36  1  0
 36 37  2  0
 13 38  1  0
 38  2  1  0
 37 17  1  0
 35 25  1  0
  1 39  1  0
  1 40  1  0
  1 41  1  0
  7 42  1  6
  8 43  1  0
  8 44  1  0
  8 45  1  0
 11 46  1  0
 18 47  1  0
 19 48  1  0
 21 49  1  0
 21 50  1  0
 26 51  1  0
 27 52  1  0
 28 53  1  0
 30 54  1  0
 31 55  1  0
 35 56  1  0
 36 57  1  0
 37 58  1  0
 38 59  1  0
 38 60  1  0
M  CHG  5   6  -1  11  -1  16  -1  24  -1  34  -1
M  END
>  <UniqueID>  (11) 
9

>  <SMILES>  (11) 
CC1=C(C(=O)[O-])[C@H](C)C(C([NH-])=O)=C(C(=O)[N-]c2ccc(CC(=O)[N-]c3cccc(C=CC(=O)[O-])c3)cc2)C1

>  <Energy>  (11) 
100.50829261817395

>  <Genealogy>  (11) 
CC1=C(C(=O)[O-])C(C)C(C([NH-])=O)=C(C(=O)[N-]c2ccc(CC(=O)[N-]c3cccc(C=CC(=O)[O-])c3)cc2)C1 (protonated)
CC1=C(C(=O)[O-])[C@H](C)C(C([NH-])=O)=C(C(=O)[N-]c2ccc(CC(=O)[N-]c3cccc(C=CC(=O)[O-])c3)cc2)C1 (chirality)
CC1=C(C(=O)[O-])[C@H](C)C(C([NH-])=O)=C(C(=O)[N-]c2ccc(CC(=O)[N-]c3cccc(C=CC(=O)[O-])c3)cc2)C1 (3D coordinates assigned)
CC1=C(C(=O)[O-])[C@H](C)C(C([NH-])=O)=C(C(=O)[N-]c2ccc(CC(=O)[N-]c3cccc(C=CC(=O)[O-])c3)cc2)C1 (nonaromatic ring conformer: 100.50829261817395 kcal/mol)

>  <smiles>  (11) 
CC1=C(C(=O)O)C(C)C(C(N)=O)=C(C(=O)Nc2ccc(CC(=O)Nc3cccc(C=CC(=O)O)c3)cc2)C1

>  <score_type>  (11) 
oracle

>  <origin>  (11) 
adg

>  <m_score__min__energy>  (11) 
-18.969999999999999

>  <m_primary>  (11) 
energy

$$$$
11:0
     RDKit          3D

 60 63  0  0  0  0  0  0  0  0999 V2000
   57.3820   29.7350   50.3120 H   0  0  0  0  0  0  0  0  0  0  0  0
   57.4430   29.7290   51.3030 O   0  0  0  0  0  0  0  0  0  0  0  0
   58.8050   29.6500   51.6200 C   0  0  0  0  0  0  0  0  0  0  0  0
   58.9331   28.9935   52.4933 H   0  0  0  0  0  0  0  0  0  0  0  0
   59.1715   30.6633   51.8409 H   0  0  0  0  0  0  0  0  0  0  0  0
   59.6120   29.0860   50.4480 C   0  0  0  0  0  0  0  0  0  0  0  0
   59.3259   28.0362   50.2867 H   0  0  0  0  0  0  0  0  0  0  0  0
   60.6821   29.1614   50.6915 H   0  0  0  0  0  0  0  0  0  0  0  0
   59.3650   29.8260   49.2520 O   0  0  0  0  0  0  0  0  0  0  0  0
   59.3680   29.3130   47.9440 C   0  0  0  0  0  0  0  0  0  0  0  0
   58.1390   29.0200   47.3460 C   0  0  0  0  0  0  0  0  0  0  0  0
   57.2075   29.1916   47.9053 H   0  0  0  0  0  0  0  0  0  0  0  0
   58.0800   28.5090   46.0390 C   0  0  0  0  0  0  0  0  0  0  0  0
   56.7780   28.1920   45.4050 C   0  0  0  0  0  0  0  0  0  0  0  0
   56.2120   27.0940   45.6610 O   0  0  0  0  0  0  0  0  0  0  0  0
   56.1270   29.1740   44.5790 N   0  0  0  0  0  0  0  0  0  0  0  0
   56.6090   30.2700   44.0610 C   0  0  0  0  0  0  0  0  0  0  0  0
   56.8250   30.2980   42.7190 N   0  0  0  0  0  0  0  0  0  0  0  0
   57.3130   31.3940   42.0820 C   0  0  0  0  0  0  0  0  0  0  0  0
   57.4733   31.3698   40.9940 H   0  0  0  0  0  0  0  0  0  0  0  0
   57.6110   32.5480   42.8020 C   0  0  0  0  0  0  0  0  0  0  0  0
   58.0100   33.4343   42.2869 H   0  0  0  0  0  0  0  0  0  0  0  0
   57.3990   32.5730   44.1890 C   0  0  0  0  0  0  0  0  0  0  0  0
   57.6810   33.8020   44.9700 C   0  0  0  0  0  0  0  0  0  0  0  0
   57.1970   34.9050   44.5970 O   0  0  0  0  0  0  0  0  0  0  0  0
   58.5140   33.7640   46.1390 N   0  0  0  0  0  0  0  0  0  0  0  0
   58.1390   32.9160   47.2790 C   0  0  0  0  0  0  0  0  0  0  0  0
   57.6381   32.0094   46.9087 H   0  0  0  0  0  0  0  0  0  0  0  0
   57.4591   33.4774   47.9367 H   0  0  0  0  0  0  0  0  0  0  0  0
   59.3840   32.5180   48.0700 C   0  0  0  0  0  0  0  0  0  0  0  0
   60.0593   31.9491   47.4141 H   0  0  0  0  0  0  0  0  0  0  0  0
   59.0707   31.9056   48.9284 H   0  0  0  0  0  0  0  0  0  0  0  0
   60.1280   33.7620   48.6020 C   0  0  0  0  0  0  0  0  0  0  0  0
   59.5843   34.0967   49.4977 H   0  0  0  0  0  0  0  0  0  0  0  0
   61.5460   33.4040   49.0100 C   0  0  0  0  0  0  0  0  0  0  0  0
   62.4970   33.0590   48.0320 C   0  0  0  0  0  0  0  0  0  0  0  0
   62.2068   33.0409   46.9711 H   0  0  0  0  0  0  0  0  0  0  0  0
   63.8080   32.7390   48.3980 C   0  0  0  0  0  0  0  0  0  0  0  0
   64.5426   32.4677   47.6255 H   0  0  0  0  0  0  0  0  0  0  0  0
   64.1880   32.7630   49.7450 C   0  0  0  0  0  0  0  0  0  0  0  0
   65.5380   32.4370   50.1200 C   0  0  0  0  0  0  0  0  0  0  0  0
   66.6240   32.1750   50.4220 N   0  0  0  0  0  0  0  0  0  0  0  0
   63.2520   33.1090   50.7250 C   0  0  0  0  0  0  0  0  0  0  0  0
   63.5483   33.1295   51.7841 H   0  0  0  0  0  0  0  0  0  0  0  0
   61.9400   33.4290   50.3610 C   0  0  0  0  0  0  0  0  0  0  0  0
   61.2100   33.7025   51.1371 H   0  0  0  0  0  0  0  0  0  0  0  0
   60.0880   34.9730   47.6280 C   0  0  0  0  0  0  0  0  0  0  0  0
   61.0805   35.4474   47.6234 H   0  0  0  0  0  0  0  0  0  0  0  0
   59.2999   35.6496   47.9900 H   0  0  0  0  0  0  0  0  0  0  0  0
   59.7250   34.5950   46.1840 C   0  0  0  0  0  0  0  0  0  0  0  0
   60.5608   34.0350   45.7391 H   0  0  0  0  0  0  0  0  0  0  0  0
   59.5330   35.5199   45.6203 H   0  0  0  0  0  0  0  0  0  0  0  0
   56.8800   31.4300   44.8200 C   0  0  0  0  0  0  0  0  0  0  0  0
   56.6852   31.4385   45.9026 H   0  0  0  0  0  0  0  0  0  0  0  0
   59.2860   28.3040   45.3490 C   0  0  0  0  0  0  0  0  0  0  0  0
   59.2690   27.9020   44.3252 H   0  0  0  0  0  0  0  0  0  0  0  0
   60.4750   28.6000   45.9400 N   0  0  0  0  0  0  0  0  0  0  0  0
   61.3590   28.4440   45.4060 H   0  0  0  0  0  0  0  0  0  0  0  0
   60.5430   29.0960   47.2040 C   0  0  0  0  0  0  0  0  0  0  0  0
   61.5216   29.3284   47.6493 H   0  0  0  0  0  0  0  0  0  0  0  0
  1  2  1  0
  2  3  1  0
  3  4  1  0
  3  5  1  0
  3  6  1  0
  6  7  1  0
  6  8  1  0
  6  9  1  0
  9 10  1  0
 10 11  2  0
 11 12  1  0
 11 13  1  0
 13 14  1  0
 14 15  2  0
 14 16  1  0
 16 17  2  0
 17 18  1  0
 18 19  1  0
 19 20  1  0
 19 21  2  0
 21 22  1  0
 21 23  1  0
 23 24  1  0
 24 25  2  0
 24 26  1  0
 26 27  1  0
 27 28  1  0
 27 29  1  0
 27 30  1  0
 30 31  1  0
 30 32  1  0
 30 33  1  0
 33 34  1  0
 33 35  1  0
 35 36  2  0
 36 37  1  0
 36 38  1  0
 38 39  1  0
 38 40  2  0
 40 41  1  0
 41 42  3  0
 40 43  1  0
 43 44  1  0
 43 45  2  0
 45 46  1  0
 33 47  1  0
 47 48  1  0
 47 49  1  0
 47 50  1  0
 50 51  1  0
 50 52  1  0
 23 53  2  0
 53 54  1  0
 13 55  2  0
 55 56  1  0
 55 57  1  0
 57 58  1  0
 57 59  2  0
 59 60  1  0
 59 10  1  0
 53 17  1  0
 50 26  1  0
 45 35  1  0
M  CHG  2  18  -1  57   1
M  END
>  <UniqueID>  (12) 
10

>  <SMILES>  (12) 
N#Cc1ccc(C2CCN(C(=O)c3cc[n-]/c(=N/C(=O)c4c[nH+]cc(OCCO)c4)c3)CC2)cc1

>  <Energy>  (12) 
80.52613797869117

>  <Genealogy>  (12) 
N#Cc1ccc(C2CCN(C(=O)c3cc[n-]c(=NC(=O)c4c[nH+]cc(OCCO)c4)c3)CC2)cc1 (protonated)
N#Cc1ccc(C2CCN(C(=O)c3cc[n-]/c(=N/C(=O)c4c[nH+]cc(OCCO)c4)c3)CC2)cc1 (cis-trans isomerization)
N#Cc1ccc(C2CCN(C(=O)c3cc[n-]/c(=N/C(=O)c4c[nH+]cc(OCCO)c4)c3)CC2)cc1 (3D coordinates assigned)
N#Cc1ccc(C2CCN(C(=O)c3cc[n-]/c(=N/C(=O)c4c[nH+]cc(OCCO)c4)c3)CC2)cc1 (nonaromatic ring conformer: 80.52613797869117 kcal/mol)

>  <smiles>  (12) 
N#Cc1ccc(C2CCN(C(=O)c3cc[nH]c(=NC(=O)c4cncc(OCCO)c4)c3)CC2)cc1

>  <score_type>  (12) 
oracle

>  <origin>  (12) 
adg

>  <m_score__min__energy>  (12) 
-9.6199999999999992

>  <m_primary>  (12) 
energy

$$$$
12:0
     RDKit          3D

 43 45  0  0  0  0  0  0  0  0999 V2000
   57.3960   26.7810   47.4740 O   0  0  0  0  0  0  0  0  0  0  0  0
   58.1880   26.7600   46.4930 C   0  0  0  0  0  0  0  0  0  0  0  0
   58.4130   25.4810   45.7540 C   0  0  0  0  0  0  0  0  0  0  0  0
   57.3960   25.3470   44.6610 C   0  0  0  0  0  0  0  0  0  0  0  0
   57.6050   25.9030   43.5480 O   0  0  0  0  0  0  0  0  0  0  0  0
   56.1170   24.6470   44.8960 C   0  0  0  0  0  0  0  0  0  0  0  0
   55.0430   25.2820   45.5540 C   0  0  0  0  0  0  0  0  0  0  0  0
   55.1470   26.5820   46.0540 O   0  0  0  0  0  0  0  0  0  0  0  0
   53.8750   24.6120   45.7310 N   0  0  0  0  0  0  0  0  0  0  0  0
   53.7170   23.3380   45.2930 C   0  0  0  0  0  0  0  0  0  0  0  0
   52.6230   22.7430   45.4730 O   0  0  0  0  0  0  0  0  0  0  0  0
   54.7360   22.7060   44.6590 N   0  0  0  0  0  0  0  0  0  0  0  0
   55.9250   23.3270   44.4490 C   0  0  0  0  0  0  0  0  0  0  0  0
   56.8400   22.7130   43.8390 O   0  0  0  0  0  0  0  0  0  0  0  0
   58.7750   27.9380   46.0120 O   0  0  0  0  0  0  0  0  0  0  0  0
   58.1050   28.9450   45.3030 C   0  0  0  0  0  0  0  0  0  0  0  0
   56.9560   28.5990   44.5830 C   0  0  0  0  0  0  0  0  0  0  0  0
   56.2640   29.5640   43.8480 C   0  0  0  0  0  0  0  0  0  0  0  0
   56.7180   30.8860   43.8240 C   0  0  0  0  0  0  0  0  0  0  0  0
   57.8670   31.2520   44.5400 C   0  0  0  0  0  0  0  0  0  0  0  0
   58.3560   32.6460   44.4890 C   0  0  0  0  0  0  0  0  0  0  0  0
   58.3030   33.2700   43.3940 O   0  0  0  0  0  0  0  0  0  0  0  0
   58.8710   33.3100   45.6580 N   0  0  0  0  0  0  0  0  0  0  0  0
   59.5830   34.5740   45.5870 C   0  0  0  0  0  0  0  0  0  0  0  0
   59.8650   34.9680   47.0300 C   0  0  0  0  0  0  0  0  0  0  0  0
   58.8910   34.1540   47.8750 C   0  0  0  0  0  0  0  0  0  0  0  0
   58.5130   32.9510   47.0220 C   0  0  0  0  0  0  0  0  0  0  0  0
   58.5720   30.2710   45.2580 C   0  0  0  0  0  0  0  0  0  0  0  0
   59.4224   25.4834   45.3168 H   0  0  0  0  0  0  0  0  0  0  0  0
   58.3155   24.6347   46.4499 H   0  0  0  0  0  0  0  0  0  0  0  0
   55.5280   26.7920   46.9670 H   0  0  0  0  0  0  0  0  0  0  0  0
   56.5954   27.5599   44.5961 H   0  0  0  0  0  0  0  0  0  0  0  0
   55.3603   29.2834   43.2871 H   0  0  0  0  0  0  0  0  0  0  0  0
   56.1718   31.6422   43.2411 H   0  0  0  0  0  0  0  0  0  0  0  0
   60.5245   34.4534   45.0311 H   0  0  0  0  0  0  0  0  0  0  0  0
   58.9957   35.3425   45.0631 H   0  0  0  0  0  0  0  0  0  0  0  0
   60.9034   34.7239   47.2988 H   0  0  0  0  0  0  0  0  0  0  0  0
   59.7372   36.0489   47.1893 H   0  0  0  0  0  0  0  0  0  0  0  0
   59.3732   33.8266   48.8079 H   0  0  0  0  0  0  0  0  0  0  0  0
   58.0075   34.7446   48.1589 H   0  0  0  0  0  0  0  0  0  0  0  0
   59.0730   32.0607   47.3442 H   0  0  0  0  0  0  0  0  0  0  0  0
   57.4438   32.7085   47.1116 H   0  0  0  0  0  0  0  0  0  0  0  0
   59.4964   30.5423   45.7890 H   0  0  0  0  0  0  0  0  0  0  0  0
  1  2  2  0
  2  3  1  0
  3  4  1  0
  4  5  2  0
  4  6  1  0
  6  7  2  0
  7  8  1  0
  7  9  1  0
  9 10  1  0
 10 11  2  0
 10 12  1  0
 12 13  1  0
 13 14  2  0
  2 15  1  0
 15 16  1  0
 16 17  2  0
 17 18  1  0
 18 19  2  0
 19 20  1  0
 20 21  1  0
 21 22  2  0
 21 23  1  0
 23 24  1  0
 24 25  1  0
 25 26  1  0
 26 27  1  0
 20 28  2  0
 13  6  1  0
 28 16  1  0
 27 23  1  0
  3 29  1  0
  3 30  1  0
  8 31  1  0
 17 32  1  0
 18 33  1  0
 19 34  1  0
 24 35  1  0
 24 36  1  0
 25 37  1  0
 25 38  1  0
 26 39  1  0
 26 40  1  0
 27 41  1  0
 27 42  1  0
 28 43  1  0
M  CHG  2   9  -1  12  -1
M  END
>  <UniqueID>  (13) 
11

>  <SMILES>  (13) 
O=C(CC(=O)c1c(O)[n-]c(=O)[n-]c1=O)Oc1cccc(C(=O)N2CCCC2)c1

>  <Energy>  (13) 
58.98769575439598

>  <Genealogy>  (13) 
O=C(CC(=O)c1c(O)[n-]c(=O)[n-]c1=O)Oc1cccc(C(=O)N2CCCC2)c1 (protonated)
O=C(CC(=O)c1c(O)[n-]c(=O)[n-]c1=O)Oc1cccc(C(=O)N2CCCC2)c1 (3D coordinates assigned)
O=C(CC(=O)c1c(O)[n-]c(=O)[n-]c1=O)Oc1cccc(C(=O)N2CCCC2)c1 (nonaromatic ring conformer: 58.98769575439598 kcal/mol)

>  <smiles>  (13) 
O=C(CC(=O)c1c(O)[nH]c(=O)[nH]c1=O)Oc1cccc(C(=O)N2CCCC2)c1

>  <score_type>  (13) 
oracle

>  <origin>  (13) 
adg

>  <m_score__min__energy>  (13) 
-13.529999999999999

>  <m_primary>  (13) 
energy

$$$$
13:0
     RDKit          3D

 40 42  0  0  0  0  0  0  0  0999 V2000
   57.0170   30.4810   45.5210 O   0  0  0  0  0  0  0  0  0  0  0  0
   58.2140   30.8260   45.7280 C   0  0  0  0  0  0  0  0  0  0  0  0
   59.2130   29.8200   45.9690 N   0  0  0  0  0  0  0  0  0  0  0  0
   58.9140   28.4940   46.4420 C   0  0  0  0  0  0  0  0  0  0  0  0
   59.7070   27.8690   47.4210 C   0  0  0  0  0  0  0  0  0  0  0  0
   59.3990   26.5780   47.8570 C   0  0  0  0  0  0  0  0  0  0  0  0
   58.3150   25.8900   47.3070 C   0  0  0  0  0  0  0  0  0  0  0  0
   57.5410   26.4820   46.2980 C   0  0  0  0  0  0  0  0  0  0  0  0
   56.3920   25.7520   45.7250 C   0  0  0  0  0  0  0  0  0  0  0  0
   55.2250   26.1480   45.9940 O   0  0  0  0  0  0  0  0  0  0  0  0
   56.5750   24.6020   44.8800 N   0  0  0  0  0  0  0  0  0  0  0  0
   55.5200   24.0820   44.0260 C   0  0  0  0  0  0  0  0  0  0  0  0
   55.9590   22.6800   43.6260 C   0  0  0  0  0  0  0  0  0  0  0  0
   57.4430   22.5880   43.9700 C   0  0  0  0  0  0  0  0  0  0  0  0
   57.7080   23.6950   44.9830 C   0  0  0  0  0  0  0  0  0  0  0  0
   57.8400   27.7890   45.8790 C   0  0  0  0  0  0  0  0  0  0  0  0
   58.5800   32.2610   45.6680 C   0  0  0  0  0  0  0  0  0  0  0  0
   59.7090   32.7340   46.3640 C   0  0  0  0  0  0  0  0  0  0  0  0
   60.0620   34.0860   46.3060 C   0  0  0  0  0  0  0  0  0  0  0  0
   59.2990   34.9790   45.5510 C   0  0  0  0  0  0  0  0  0  0  0  0
   59.6440   36.2890   45.4950 F   0  0  0  0  0  0  0  0  0  0  0  0
   58.1830   34.5200   44.8470 C   0  0  0  0  0  0  0  0  0  0  0  0
   57.8240   33.1700   44.9020 C   0  0  0  0  0  0  0  0  0  0  0  0
   60.1950   30.0250   45.6800 H   0  0  0  0  0  0  0  0  0  0  0  0
   60.5729   28.3986   47.8450 H   0  0  0  0  0  0  0  0  0  0  0  0
   60.0123   26.1017   48.6361 H   0  0  0  0  0  0  0  0  0  0  0  0
   58.0674   24.8803   47.6664 H   0  0  0  0  0  0  0  0  0  0  0  0
   54.5678   24.0425   44.5753 H   0  0  0  0  0  0  0  0  0  0  0  0
   55.3613   24.7219   43.1454 H   0  0  0  0  0  0  0  0  0  0  0  0
   55.3890   21.9261   44.1889 H   0  0  0  0  0  0  0  0  0  0  0  0
   55.7816   22.4926   42.5567 H   0  0  0  0  0  0  0  0  0  0  0  0
   57.6738   21.6057   44.4080 H   0  0  0  0  0  0  0  0  0  0  0  0
   58.0722   22.7015   43.0749 H   0  0  0  0  0  0  0  0  0  0  0  0
   57.7742   23.2777   45.9986 H   0  0  0  0  0  0  0  0  0  0  0  0
   58.6595   24.2094   44.7829 H   0  0  0  0  0  0  0  0  0  0  0  0
   57.2251   28.2648   45.1008 H   0  0  0  0  0  0  0  0  0  0  0  0
   60.3173   32.0355   46.9573 H   0  0  0  0  0  0  0  0  0  0  0  0
   60.9432   34.4469   46.8567 H   0  0  0  0  0  0  0  0  0  0  0  0
   57.5852   35.2226   44.2479 H   0  0  0  0  0  0  0  0  0  0  0  0
   56.9453   32.8152   44.3434 H   0  0  0  0  0  0  0  0  0  0  0  0
  1  2  2  0
  2  3  1  0
  3  4  1  0
  4  5  2  0
  5  6  1  0
  6  7  2  0
  7  8  1  0
  8  9  1  0
  9 10  2  0
  9 11  1  0
 11 12  1  0
 12 13  1  0
 13 14  1  0
 14 15  1  0
  8 16  2  0
  2 17  1  0
 17 18  2  0
 18 19  1  0
 19 20  2  0
 20 21  1  0
 20 22  1  0
 22 23  2  0
 16  4  1  0
 23 17  1  0
 15 11  1  0
  3 24  1  0
  5 25  1  0
  6 26  1  0
  7 27  1  0
 12 28  1  0
 12 29  1  0
 13 30  1  0
 13 31  1  0
 14 32  1  0
 14 33  1  0
 15 34  1  0
 15 35  1  0
 16 36  1  0
 18 37  1  0
 19 38  1  0
 22 39  1  0
 23 40  1  0
M  END
>  <UniqueID>  (14) 
12

>  <SMILES>  (14) 
O=C(Nc1cccc(C(=O)N2CCCC2)c1)c1ccc(F)cc1

>  <Energy>  (14) 
51.53247888925967

>  <Genealogy>  (14) 
O=C(Nc1cccc(C(=O)N2CCCC2)c1)c1ccc(F)cc1 (3D coordinates assigned)
O=C(Nc1cccc(C(=O)N2CCCC2)c1)c1ccc(F)cc1 (nonaromatic ring conformer: 51.53247888925967 kcal/mol)

>  <smiles>  (14) 
O=C(Nc1cccc(C(=O)N2CCCC2)c1)c1ccc(F)cc1

>  <score_type>  (14) 
oracle

>  <origin>  (14) 
adg

>  <m_score__min__energy>  (14) 
-8.0600000000000005

>  <m_primary>  (14) 
energy

$$$$
14:0
     RDKit          3D

 36 38  0  0  0  0  0  0  0  0999 V2000
   57.3780   28.1850   43.1520 N   0  0  0  0  0  0  0  0  0  0  0  0
   57.7360   28.3670   44.5570 C   0  0  0  0  0  0  0  0  0  0  0  0
   57.8200   29.8330   44.8990 C   0  0  0  0  0  0  0  0  0  0  0  0
   57.3440   30.7970   43.9980 C   0  0  0  0  0  0  0  0  0  0  0  0
   57.4530   32.1590   44.3000 C   0  0  0  0  0  0  0  0  0  0  0  0
   58.0400   32.5720   45.5050 C   0  0  0  0  0  0  0  0  0  0  0  0
   58.1910   34.0370   45.8130 C   0  0  0  0  0  0  0  0  0  0  0  0
   59.6230   34.4980   45.5380 C   0  0  0  0  0  0  0  0  0  0  0  0
   60.4850   34.2600   46.7330 C   0  0  0  0  0  0  0  0  0  0  0  0
   61.7620   33.8860   46.9250 C   0  0  0  0  0  0  0  0  0  0  0  0
   63.0890   33.5160   46.4020 C   0  0  0  0  0  0  0  0  0  0  0  0
   63.8560   33.2540   47.7670 C   0  0  0  0  0  0  0  0  0  0  0  0
   62.8400   33.5100   48.8810 C   0  0  0  0  0  0  0  0  0  0  0  0
   63.0400   33.4060   50.1190 O   0  0  0  0  0  0  0  0  0  0  0  0
   61.6210   33.8780   48.3030 N   0  0  0  0  0  0  0  0  0  0  0  0
   60.2740   34.2540   48.1710 C   0  0  0  0  0  0  0  0  0  0  0  0
   59.3150   34.4780   48.9540 O   0  0  0  0  0  0  0  0  0  0  0  0
   58.5420   31.6080   46.3920 C   0  0  0  0  0  0  0  0  0  0  0  0
   58.4330   30.2460   46.0910 C   0  0  0  0  0  0  0  0  0  0  0  0
   56.4100   28.5440   42.9780 H   0  0  0  0  0  0  0  0  0  0  0  0
   57.4060   27.1650   42.9200 H   0  0  0  0  0  0  0  0  0  0  0  0
   58.0580   28.6910   42.5390 H   0  0  0  0  0  0  0  0  0  0  0  0
   56.9714   27.8918   45.1891 H   0  0  0  0  0  0  0  0  0  0  0  0
   58.7184   27.9051   44.7347 H   0  0  0  0  0  0  0  0  0  0  0  0
   56.8833   30.4811   43.0504 H   0  0  0  0  0  0  0  0  0  0  0  0
   57.0766   32.9092   43.5890 H   0  0  0  0  0  0  0  0  0  0  0  0
   57.4980   34.6128   45.1819 H   0  0  0  0  0  0  0  0  0  0  0  0
   57.9624   34.2021   46.8762 H   0  0  0  0  0  0  0  0  0  0  0  0
   60.0265   33.9365   44.6825 H   0  0  0  0  0  0  0  0  0  0  0  0
   59.6142   35.5748   45.3133 H   0  0  0  0  0  0  0  0  0  0  0  0
   63.0447   32.6113   45.7778 H   0  0  0  0  0  0  0  0  0  0  0  0
   63.5543   34.2646   45.7439 H   0  0  0  0  0  0  0  0  0  0  0  0
   64.2154   32.2152   47.8095 H   0  0  0  0  0  0  0  0  0  0  0  0
   64.7343   33.9088   47.8662 H   0  0  0  0  0  0  0  0  0  0  0  0
   59.0237   31.9245   47.3289 H   0  0  0  0  0  0  0  0  0  0  0  0
   58.8295   29.4964   46.7917 H   0  0  0  0  0  0  0  0  0  0  0  0
  1  2  1  0
  2  3  1  0
  3  4  2  0
  4  5  1  0
  5  6  2  0
  6  7  1  0
  7  8  1  0
  8  9  1  0
  9 10  2  0
 10 11  1  0
 11 12  1  0
 12 13  1  0
 13 14  2  0
 13 15  1  0
 15 16  1  0
 16 17  2  0
  6 18  1  0
 18 19  2  0
 19  3  1  0
 16  9  1  0
 15 10  1  0
  1 20  1  0
  1 21  1  0
  1 22  1  0
  2 23  1  0
  2 24  1  0
  4 25  1  0
  5 26  1  0
  7 27  1  0
  7 28  1  0
  8 29  1  0
  8 30  1  0
 11 31  1  0
 11 32  1  0
 12 33  1  0
 12 34  1  0
 18 35  1  0
 19 36  1  0
M  CHG  1   1   1
M  END
>  <UniqueID>  (15) 
13

>  <SMILES>  (15) 
[NH3+]Cc1ccc(CCC2=C3CCC(=O)N3C2=O)cc1

>  <Energy>  (15) 
85.47793239871719

>  <Genealogy>  (15) 
[NH3+]Cc1ccc(CCC2=C3CCC(=O)N3C2=O)cc1 (protonated)
[NH3+]Cc1ccc(CCC2=C3CCC(=O)N3C2=O)cc1 (3D coordinates assigned)
[NH3+]Cc1ccc(CCC2=C3CCC(=O)N3C2=O)cc1 (nonaromatic ring conformer: 85.47793239871719 kcal/mol)

>  <smiles>  (15) 
NCc1ccc(CCC2=C3CCC(=O)N3C2=O)cc1

>  <score_type>  (15) 
oracle

>  <origin>  (15) 
adg

>  <m_score__min__energy>  (15) 
-6.79

>  <m_primary>  (15) 
energy

$$$$
15:0
     RDKit          3D

 30 31  0  0  1  0  0  0  0  0999 V2000
   56.2180   21.8950   42.3300 N   0  0  0  0  0  0  0  0  0  0  0  0
   57.3080   24.8110   43.9580 C   0  0  0  0  0  0  0  0  0  0  0  0
   56.4030   22.3220   44.5580 C   0  0  0  0  0  0  0  0  0  0  0  0
   56.7500   23.2370   45.5260 C   0  0  0  0  0  0  0  0  0  0  0  0
   57.1990   24.4700   45.2720 N   0  0  0  0  0  0  0  0  0  0  0  0
   57.5550   25.4030   46.3070 C   0  0  0  0  0  0  0  0  0  0  0  0
   56.7310   26.6490   46.2510 C   0  0  0  0  0  0  0  0  0  0  0  0
   55.4990   26.6250   45.9840 O   0  0  0  0  0  0  0  0  0  0  0  0
   57.4170   27.8710   46.5200 N   0  0  0  0  0  0  0  0  0  0  0  0
   57.6430   28.7600   45.6100 C   0  0  0  0  0  0  0  0  0  0  0  0
   58.9310   29.0730   45.3540 N   0  0  0  0  0  0  0  0  0  0  0  0
   59.2410   29.9870   44.4220 C   0  0  0  0  0  0  0  0  0  0  0  0
   58.2130   30.5970   43.7340 C   0  0  0  0  0  0  0  0  0  0  0  0
   56.8880   30.2940   43.9770 C   0  0  0  0  0  0  0  0  0  0  0  0
   56.5920   29.3460   44.9450 C   0  0  0  0  0  0  0  0  0  0  0  0
   55.2920   28.9940   45.2390 O   0  0  0  0  0  0  0  0  0  0  0  0
   56.5370   22.7320   43.2410 C   0  0  0  0  0  0  0  0  0  0  0  0
   57.7240   25.9570   43.6060 O   0  0  0  0  0  0  0  0  0  0  0  0
   56.9860   23.9680   42.9660 N   0  0  0  0  0  0  0  0  0  0  0  0
   56.3230   22.0920   41.3130 H   0  0  0  0  0  0  0  0  0  0  0  0
   56.0381   21.3170   44.8165 H   0  0  0  0  0  0  0  0  0  0  0  0
   56.6512   22.9333   46.5786 H   0  0  0  0  0  0  0  0  0  0  0  0
   57.4043   24.9221   47.2848 H   0  0  0  0  0  0  0  0  0  0  0  0
   58.6074   25.6868   46.1588 H   0  0  0  0  0  0  0  0  0  0  0  0
   59.7190   28.6200   45.8660 H   0  0  0  0  0  0  0  0  0  0  0  0
   60.2898   30.2437   44.2117 H   0  0  0  0  0  0  0  0  0  0  0  0
   58.4562   31.3481   42.9680 H   0  0  0  0  0  0  0  0  0  0  0  0
   56.0849   30.7935   43.4152 H   0  0  0  0  0  0  0  0  0  0  0  0
   55.1490   28.1910   45.8390 H   0  0  0  0  0  0  0  0  0  0  0  0
   57.0790   24.2540   41.9580 H   0  0  0  0  0  0  0  0  0  0  0  0
  1  2  2  3
  2  3  1  0
  3  4  2  0
  4  5  1  0
  5  6  1  0
  6  7  1  0
  7  8  2  0
  7  9  1  0
  9 10  2  0
 10 11  1  0
 11 12  1  0
 12 13  2  0
 13 14  1  0
 14 15  2  0
 15 16  1  0
  5 17  1  0
 17 18  2  0
 17 19  1  0
 19  2  1  0
 15 10  1  0
  1 20  1  0
  3 21  1  0
  4 22  1  0
  6 23  1  0
  6 24  1  0
 11 25  1  0
 12 26  1  0
 13 27  1  0
 14 28  1  0
 16 29  1  0
 19 30  1  0
M  END
>  <smiles>  (16) 
N=c1ccn(CC(=O)N=c2[nH]cccc2O)c(=O)[nH]1

>  <score_type>  (16) 
oracle

>  <origin>  (16) 
adg

>  <m_score__min__energy>  (16) 
-7.1399999999999997

>  <m_primary>  (16) 
energy

$$$$
16:0
     RDKit          3D

 42 45  0  0  0  0  0  0  0  0999 V2000
   56.4179   30.9641   51.7280 H   0  0  0  0  0  0  0  0  0  0  0  0
   55.3690   31.0700   52.0420 C   0  0  0  0  0  0  0  0  0  0  0  0
   54.8049   31.9769   51.7786 H   0  0  0  0  0  0  0  0  0  0  0  0
   54.7770   30.0920   52.7470 C   0  0  0  0  0  0  0  0  0  0  0  0
   53.4530   30.0750   53.2200 C   0  0  0  0  0  0  0  0  0  0  0  0
   52.4090   30.8850   52.9570 C   0  0  0  0  0  0  0  0  0  0  0  0
   51.9993   31.4633   53.7982 H   0  0  0  0  0  0  0  0  0  0  0  0
   51.7680   31.0650   51.6450 C   0  0  0  0  0  0  0  0  0  0  0  0
   51.9810   30.2540   50.5960 N   0  0  0  0  0  0  0  0  0  0  0  0
   51.3080   30.8580   49.5920 C   0  0  0  0  0  0  0  0  0  0  0  0
   51.2550   30.3820   48.4290 O   0  0  0  0  0  0  0  0  0  0  0  0
   50.7040   32.0170   49.9300 N   0  0  0  0  0  0  0  0  0  0  0  0
   51.0180   32.1430   51.2290 C   0  0  0  0  0  0  0  0  0  0  0  0
   50.6510   33.2320   52.0100 O   0  0  0  0  0  0  0  0  0  0  0  0
   53.3610   28.9920   54.0740 C   0  0  0  0  0  0  0  0  0  0  0  0
   52.4786   28.6924   54.6584 H   0  0  0  0  0  0  0  0  0  0  0  0
   54.5850   28.3590   54.0540 C   0  0  0  0  0  0  0  0  0  0  0  0
   54.9070   27.1110   54.8180 C   0  0  0  0  0  0  0  0  0  0  0  0
   54.8537   27.3176   55.8971 H   0  0  0  0  0  0  0  0  0  0  0  0
   54.1822   26.3252   54.5589 H   0  0  0  0  0  0  0  0  0  0  0  0
   55.9215   26.7739   54.5589 H   0  0  0  0  0  0  0  0  0  0  0  0
   55.4410   29.0090   53.2320 N   0  0  0  0  0  0  0  0  0  0  0  0
   56.8530   28.6550   53.0190 C   0  0  0  0  0  0  0  0  0  0  0  0
   57.1300   27.8414   53.7055 H   0  0  0  0  0  0  0  0  0  0  0  0
   56.9860   28.3319   51.9760 H   0  0  0  0  0  0  0  0  0  0  0  0
   57.7530   29.8650   53.2820 C   0  0  0  0  0  0  0  0  0  0  0  0
   57.1779   30.6342   53.8183 H   0  0  0  0  0  0  0  0  0  0  0  0
   58.6132   29.5436   53.8876 H   0  0  0  0  0  0  0  0  0  0  0  0
   58.2540   30.4340   51.9950 C   0  0  0  0  0  0  0  0  0  0  0  0
   58.2600   29.7500   50.8310 N   0  0  0  0  0  0  0  0  0  0  0  0
   58.8290   30.4650   49.8220 C   0  0  0  0  0  0  0  0  0  0  0  0
   58.9420   29.9240   48.4590 C   0  0  0  0  0  0  0  0  0  0  0  0
   59.1340   30.8250   47.0490 S   0  0  0  0  0  0  0  0  0  0  0  0
   59.1760   29.5160   45.9940 C   0  0  0  0  0  0  0  0  0  0  0  0
   59.2914   29.5720   44.9015 H   0  0  0  0  0  0  0  0  0  0  0  0
   59.0400   28.3530   46.7390 C   0  0  0  0  0  0  0  0  0  0  0  0
   59.0348   27.3487   46.2902 H   0  0  0  0  0  0  0  0  0  0  0  0
   58.9100   28.5770   48.1160 C   0  0  0  0  0  0  0  0  0  0  0  0
   58.7942   27.7679   48.8522 H   0  0  0  0  0  0  0  0  0  0  0  0
   59.2950   31.7290   50.1890 C   0  0  0  0  0  0  0  0  0  0  0  0
   59.7813   32.4581   49.5242 H   0  0  0  0  0  0  0  0  0  0  0  0
   58.9810   31.9390   51.8270 S   0  0  0  0  0  0  0  0  0  0  0  0
  1  2  1  0
  2  3  1  0
  2  4  2  0
  4  5  1  0
  5  6  2  0
  6  7  1  0
  6  8  1  0
  8  9  1  0
  9 10  1  0
 10 11  2  0
 10 12  1  0
 12 13  1  0
 13 14  1  0
  5 15  1  0
 15 16  1  0
 15 17  2  0
 17 18  1  0
 18 19  1  0
 18 20  1  0
 18 21  1  0
 17 22  1  0
 22 23  1  0
 23 24  1  0
 23 25  1  0
 23 26  1  0
 26 27  1  0
 26 28  1  0
 26 29  1  0
 29 30  2  0
 30 31  1  0
 31 32  1  0
 32 33  1  0
 33 34  1  0
 34 35  1  0
 34 36  2  0
 36 37  1  0
 36 38  1  0
 38 39  1  0
 31 40  2  0
 40 41  1  0
 40 42  1  0
 22  4  1  0
 42 29  1  0
 13  8  2  0
 38 32  2  0
M  CHG  3   9  -1  12  -1  14  -1
M  END
>  <UniqueID>  (17) 
14

>  <SMILES>  (17) 
C=c1/c(=C\c2[n-]c(=O)[n-]c2[O-])cc(C)n1CCc1nc(-c2cccs2)cs1

>  <Energy>  (17) 
166.32529358805644

>  <Genealogy>  (17) 
C=c1c(=Cc2[n-]c(=O)[n-]c2[O-])cc(C)n1CCc1nc(-c2cccs2)cs1 (protonated)
C=c1/c(=C\c2[n-]c(=O)[n-]c2[O-])cc(C)n1CCc1nc(-c2cccs2)cs1 (cis-trans isomerization)
C=c1/c(=C\c2[n-]c(=O)[n-]c2[O-])cc(C)n1CCc1nc(-c2cccs2)cs1 (3D coordinates assigned)
C=c1/c(=C\c2[n-]c(=O)[n-]c2[O-])cc(C)n1CCc1nc(-c2cccs2)cs1 (optimized conformer: 166.32529358805644 kcal/mol)

>  <smiles>  (17) 
C=c1c(=Cc2[nH]c(=O)[nH]c2O)cc(C)n1CCc1nc(-c2cccs2)cs1

>  <score_type>  (17) 
oracle

>  <origin>  (17) 
adg

>  <m_score__min__energy>  (17) 
-17.039999999999999

>  <m_primary>  (17) 
energy

$$$$
17:0
     RDKit          3D

 40 42  0  0  0  0  0  0  0  0999 V2000
   57.0220   31.3010   42.3000 C   0  0  0  0  0  0  0  0  0  0  0  0
   56.5830   30.3740   43.1490 C   0  0  0  0  0  0  0  0  0  0  0  0
   57.3720   29.8870   44.3040 C   0  0  0  0  0  0  0  0  0  0  0  0
   58.7270   30.2440   44.3810 C   0  0  0  0  0  0  0  0  0  0  0  0
   59.5180   29.8150   45.4500 C   0  0  0  0  0  0  0  0  0  0  0  0
   58.9650   29.0150   46.4630 C   0  0  0  0  0  0  0  0  0  0  0  0
   59.7300   28.5550   47.5450 O   0  0  0  0  0  0  0  0  0  0  0  0
   60.4340   29.3650   48.4460 C   0  0  0  0  0  0  0  0  0  0  0  0
   60.2840   29.2370   49.8360 C   0  0  0  0  0  0  0  0  0  0  0  0
   61.0360   30.0630   50.6680 C   0  0  0  0  0  0  0  0  0  0  0  0
   61.9030   30.9590   50.1310 N   0  0  0  0  0  0  0  0  0  0  0  0
   62.0530   31.0610   48.7850 C   0  0  0  0  0  0  0  0  0  0  0  0
   63.2190   32.2300   48.1020 S   0  0  0  0  0  0  0  0  0  0  0  0
   61.9300   33.1130   47.2310 C   0  0  0  0  0  0  0  0  0  0  0  0
   62.2440   34.0440   46.4430 O   0  0  0  0  0  0  0  0  0  0  0  0
   60.5560   32.7760   47.4650 N   0  0  0  0  0  0  0  0  0  0  0  0
   59.4670   33.2010   46.6260 C   0  0  0  0  0  0  0  0  0  0  0  0
   59.6870   34.2040   45.6690 C   0  0  0  0  0  0  0  0  0  0  0  0
   58.6390   34.6510   44.8590 C   0  0  0  0  0  0  0  0  0  0  0  0
   57.3590   34.1110   45.0090 C   0  0  0  0  0  0  0  0  0  0  0  0
   57.1240   33.1290   45.9740 C   0  0  0  0  0  0  0  0  0  0  0  0
   58.1700   32.6780   46.7860 C   0  0  0  0  0  0  0  0  0  0  0  0
   61.3260   30.2660   47.9560 N   0  0  0  0  0  0  0  0  0  0  0  0
   57.6280   28.6160   46.3670 C   0  0  0  0  0  0  0  0  0  0  0  0
   56.8320   29.0380   45.2960 C   0  0  0  0  0  0  0  0  0  0  0  0
   55.5220   28.5800   45.2150 O   0  0  0  0  0  0  0  0  0  0  0  0
   56.3883   31.6218   41.4600 H   0  0  0  0  0  0  0  0  0  0  0  0
   58.0183   31.7461   42.4386 H   0  0  0  0  0  0  0  0  0  0  0  0
   55.5825   29.9477   42.9840 H   0  0  0  0  0  0  0  0  0  0  0  0
   59.1711   30.8681   43.5915 H   0  0  0  0  0  0  0  0  0  0  0  0
   60.5780   30.1051   45.4982 H   0  0  0  0  0  0  0  0  0  0  0  0
   59.5866   28.4992   50.2595 H   0  0  0  0  0  0  0  0  0  0  0  0
   60.9274   29.9893   51.7601 H   0  0  0  0  0  0  0  0  0  0  0  0
   60.3320   32.2300   48.3270 H   0  0  0  0  0  0  0  0  0  0  0  0
   60.6901   34.6409   45.5557 H   0  0  0  0  0  0  0  0  0  0  0  0
   58.8222   35.4286   44.1028 H   0  0  0  0  0  0  0  0  0  0  0  0
   56.5364   34.4593   44.3671 H   0  0  0  0  0  0  0  0  0  0  0  0
   56.1145   32.7094   46.0957 H   0  0  0  0  0  0  0  0  0  0  0  0
   57.9783   31.9122   47.5520 H   0  0  0  0  0  0  0  0  0  0  0  0
   57.1976   27.9638   47.1412 H   0  0  0  0  0  0  0  0  0  0  0  0
  1  2  2  0
  2  3  1  0
  3  4  2  0
  4  5  1  0
  5  6  2  0
  6  7  1  0
  7  8  1  0
  8  9  2  0
  9 10  1  0
 10 11  2  0
 11 12  1  0
 12 13  1  0
 13 14  1  0
 14 15  2  0
 14 16  1  0
 16 17  1  0
 17 18  2  0
 18 19  1  0
 19 20  2  0
 20 21  1  0
 21 22  2  0
 12 23  2  0
  6 24  1  0
 24 25  2  0
 25 26  1  0
 25  3  1  0
 23  8  1  0
 22 17  1  0
  1 27  1  0
  1 28  1  0
  2 29  1  0
  4 30  1  0
  5 31  1  0
  9 32  1  0
 10 33  1  0
 16 34  1  0
 18 35  1  0
 19 36  1  0
 20 37  1  0
 21 38  1  0
 22 39  1  0
 24 40  1  0
M  CHG  1  26  -1
M  END
>  <UniqueID>  (18) 
15

>  <SMILES>  (18) 
C=Cc1ccc(Oc2ccnc(SC(=O)Nc3ccccc3)n2)cc1[O-]

>  <Energy>  (18) 
53.092390520049406

>  <Genealogy>  (18) 
C=Cc1ccc(Oc2ccnc(SC(=O)Nc3ccccc3)n2)cc1[O-] (protonated)
C=Cc1ccc(Oc2ccnc(SC(=O)Nc3ccccc3)n2)cc1[O-] (3D coordinates assigned)
C=Cc1ccc(Oc2ccnc(SC(=O)Nc3ccccc3)n2)cc1[O-] (optimized conformer: 53.092390520049406 kcal/mol)

>  <smiles>  (18) 
C=Cc1ccc(Oc2ccnc(SC(=O)Nc3ccccc3)n2)cc1O

>  <score_type>  (18) 
oracle

>  <origin>  (18) 
adg

>  <m_score__min__energy>  (18) 
-11.74

>  <m_primary>  (18) 
energy

$$$$
18:0
     RDKit          3D

 46 48  0  0  0  0  0  0  0  0999 V2000
   59.8530   27.1610   48.2110 C   0  0  0  0  0  0  0  0  0  0  0  0
   59.7800   28.6500   48.1810 C   0  0  0  0  0  0  0  0  0  0  0  0
   59.0670   29.4480   49.0680 C   0  0  0  0  0  0  0  0  0  0  0  0
   59.2640   30.8190   48.8590 C   0  0  0  0  0  0  0  0  0  0  0  0
   60.1400   31.0990   47.8130 C   0  0  0  0  0  0  0  0  0  0  0  0
   60.6000   32.4440   47.4160 C   0  0  0  0  0  0  0  0  0  0  0  0
   61.8150   32.7490   47.5520 O   0  0  0  0  0  0  0  0  0  0  0  0
   59.6960   33.3910   46.8230 N   0  0  0  0  0  0  0  0  0  0  0  0
   58.4620   33.7830   47.5080 C   0  0  0  0  0  0  0  0  0  0  0  0
   57.2570   33.7320   46.5470 C   0  0  0  0  0  0  0  0  0  0  0  0
   57.6520   33.6970   45.0480 C   0  0  0  0  0  0  0  0  0  0  0  0
   57.8120   32.2700   44.5590 C   0  0  0  0  0  0  0  0  0  0  0  0
   58.3130   32.0360   43.4240 O   0  0  0  0  0  0  0  0  0  0  0  0
   57.4470   31.1810   45.4240 N   0  0  0  0  0  0  0  0  0  0  0  0
   57.8050   29.8140   45.1650 C   0  0  0  0  0  0  0  0  0  0  0  0
   58.9230   29.4890   44.3790 C   0  0  0  0  0  0  0  0  0  0  0  0
   59.2570   28.1530   44.1510 C   0  0  0  0  0  0  0  0  0  0  0  0
   58.4740   27.1300   44.6910 C   0  0  0  0  0  0  0  0  0  0  0  0
   57.3370   27.4340   45.4620 C   0  0  0  0  0  0  0  0  0  0  0  0
   56.5050   26.3490   46.0330 C   0  0  0  0  0  0  0  0  0  0  0  0
   55.0830   26.4570   46.0480 N   0  0  0  0  0  0  0  0  0  0  0  0
   57.0470   25.3180   46.5150 O   0  0  0  0  0  0  0  0  0  0  0  0
   57.0080   28.7840   45.6850 C   0  0  0  0  0  0  0  0  0  0  0  0
   58.8980   34.5760   44.7900 C   0  0  0  0  0  0  0  0  0  0  0  0
   60.1140   34.1520   45.6410 C   0  0  0  0  0  0  0  0  0  0  0  0
   60.6800   29.6400   47.1660 S   0  0  0  0  0  0  0  0  0  0  0  0
   59.8699   26.8157   49.2553 H   0  0  0  0  0  0  0  0  0  0  0  0
   58.9744   26.7404   47.6999 H   0  0  0  0  0  0  0  0  0  0  0  0
   60.7685   26.8284   47.6999 H   0  0  0  0  0  0  0  0  0  0  0  0
   58.4136   29.0435   49.8551 H   0  0  0  0  0  0  0  0  0  0  0  0
   58.7748   31.5982   49.4619 H   0  0  0  0  0  0  0  0  0  0  0  0
   58.2823   33.0951   48.3473 H   0  0  0  0  0  0  0  0  0  0  0  0
   58.5760   34.8144   47.8731 H   0  0  0  0  0  0  0  0  0  0  0  0
   56.6718   32.8283   46.7725 H   0  0  0  0  0  0  0  0  0  0  0  0
   56.6823   34.6565   46.7050 H   0  0  0  0  0  0  0  0  0  0  0  0
   56.8351   34.1323   44.4537 H   0  0  0  0  0  0  0  0  0  0  0  0
   57.0890   31.4160   46.3770 H   0  0  0  0  0  0  0  0  0  0  0  0
   59.5373   30.2899   43.9418 H   0  0  0  0  0  0  0  0  0  0  0  0
   60.1401   27.9049   43.5438 H   0  0  0  0  0  0  0  0  0  0  0  0
   58.7481   26.0798   44.5123 H   0  0  0  0  0  0  0  0  0  0  0  0
   54.6000   27.0990   46.7160 H   0  0  0  0  0  0  0  0  0  0  0  0
   56.1140   29.0345   46.2749 H   0  0  0  0  0  0  0  0  0  0  0  0
   59.1688   34.4988   43.7267 H   0  0  0  0  0  0  0  0  0  0  0  0
   58.6401   35.6078   45.0708 H   0  0  0  0  0  0  0  0  0  0  0  0
   60.7796   33.5261   45.0285 H   0  0  0  0  0  0  0  0  0  0  0  0
   60.6360   35.0596   45.9783 H   0  0  0  0  0  0  0  0  0  0  0  0
  1  2  1  0
  2  3  2  0
  3  4  1  0
  4  5  2  0
  5  6  1  0
  6  7  2  0
  6  8  1  0
  8  9  1  0
  9 10  1  0
 10 11  1  0
 11 12  1  0
 12 13  2  0
 12 14  1  0
 14 15  1  0
 15 16  2  0
 16 17  1  0
 17 18  2  0
 18 19  1  0
 19 20  1  0
 20 21  1  0
 20 22  2  0
 19 23  2  0
 11 24  1  0
 24 25  1  0
  5 26  1  0
 26  2  1  0
 25  8  1  0
 23 15  1  0
  1 27  1  0
  1 28  1  0
  1 29  1  0
  3 30  1  0
  4 31  1  0
  9 32  1  0
  9 33  1  0
 10 34  1  0
 10 35  1  0
 11 36  1  0
 14 37  1  0
 16 38  1  0
 17 39  1  0
 18 40  1  0
 21 41  1  0
 23 42  1  0
 24 43  1  0
 24 44  1  0
 25 45  1  0
 25 46  1  0
M  CHG  1  21  -1
M  END
>  <UniqueID>  (19) 
16

>  <SMILES>  (19) 
Cc1ccc(C(=O)N2CCC(C(=O)Nc3cccc(C([NH-])=O)c3)CC2)s1

>  <Energy>  (19) 
80.32154646844846

>  <Genealogy>  (19) 
Cc1ccc(C(=O)N2CCC(C(=O)Nc3cccc(C([NH-])=O)c3)CC2)s1 (protonated)
Cc1ccc(C(=O)N2CCC(C(=O)Nc3cccc(C([NH-])=O)c3)CC2)s1 (3D coordinates assigned)
Cc1ccc(C(=O)N2CCC(C(=O)Nc3cccc(C([NH-])=O)c3)CC2)s1 (nonaromatic ring conformer: 80.32154646844846 kcal/mol)

>  <smiles>  (19) 
Cc1ccc(C(=O)N2CCC(C(=O)Nc3cccc(C(N)=O)c3)CC2)s1

>  <score_type>  (19) 
oracle

>  <origin>  (19) 
adg

>  <m_score__min__energy>  (19) 
-12.1

>  <m_primary>  (19) 
energy

$$$$
19:0
     RDKit          3D

 28 29  0  0  0  0  0  0  0  0999 V2000
   56.1570   29.1660   44.8140 C   0  0  0  0  0  0  0  0  0  0  0  0
   56.9910   28.2540   45.6140 N   0  0  0  0  0  0  0  0  0  0  0  0
   56.4630   27.0470   46.0110 C   0  0  0  0  0  0  0  0  0  0  0  0
   55.1410   26.7150   45.7240 O   0  0  0  0  0  0  0  0  0  0  0  0
   57.2410   26.1240   46.7120 C   0  0  0  0  0  0  0  0  0  0  0  0
   58.5590   26.4300   47.0230 C   0  0  0  0  0  0  0  0  0  0  0  0
   59.0840   27.6640   46.6560 C   0  0  0  0  0  0  0  0  0  0  0  0
   58.2830   28.5930   45.9700 C   0  0  0  0  0  0  0  0  0  0  0  0
   58.8750   29.9210   45.6750 C   0  0  0  0  0  0  0  0  0  0  0  0
   60.1010   30.0050   45.3970 O   0  0  0  0  0  0  0  0  0  0  0  0
   58.0590   31.1000   45.7100 N   0  0  0  0  0  0  0  0  0  0  0  0
   58.5090   32.4520   45.8810 C   0  0  0  0  0  0  0  0  0  0  0  0
   58.5180   33.3010   44.7660 C   0  0  0  0  0  0  0  0  0  0  0  0
   58.9310   34.6310   44.8930 C   0  0  0  0  0  0  0  0  0  0  0  0
   59.3220   35.1260   46.1390 C   0  0  0  0  0  0  0  0  0  0  0  0
   59.2930   34.2950   47.2620 C   0  0  0  0  0  0  0  0  0  0  0  0
   59.6510   34.7830   48.4750 F   0  0  0  0  0  0  0  0  0  0  0  0
   58.8810   32.9630   47.1380 C   0  0  0  0  0  0  0  0  0  0  0  0
   55.5690   29.8090   45.4854 H   0  0  0  0  0  0  0  0  0  0  0  0
   56.8022   29.7913   44.1794 H   0  0  0  0  0  0  0  0  0  0  0  0
   55.4766   28.5791   44.1794 H   0  0  0  0  0  0  0  0  0  0  0  0
   56.8116   25.1582   47.0167 H   0  0  0  0  0  0  0  0  0  0  0  0
   59.1848   25.6998   47.5571 H   0  0  0  0  0  0  0  0  0  0  0  0
   60.1266   27.9133   46.9026 H   0  0  0  0  0  0  0  0  0  0  0  0
   58.1983   32.9190   43.7852 H   0  0  0  0  0  0  0  0  0  0  0  0
   58.9479   35.2878   44.0108 H   0  0  0  0  0  0  0  0  0  0  0  0
   59.6529   36.1705   46.2364 H   0  0  0  0  0  0  0  0  0  0  0  0
   58.8480   32.3141   48.0256 H   0  0  0  0  0  0  0  0  0  0  0  0
  1  2  1  0
  2  3  2  0
  3  4  1  0
  3  5  1  0
  5  6  2  0
  6  7  1  0
  7  8  2  0
  8  9  1  0
  9 10  2  0
  9 11  1  0
 11 12  1  0
 12 13  2  0
 13 14  1  0
 14 15  2  0
 15 16  1  0
 16 17  1  0
 16 18  2  0
  8  2  1  0
 18 12  1  0
  1 19  1  0
  1 20  1  0
  1 21  1  0
  5 22  1  0
  6 23  1  0
  7 24  1  0
 13 25  1  0
 14 26  1  0
 15 27  1  0
 18 28  1  0
M  CHG  3   2   1   4  -1  11  -1
M  END
>  <UniqueID>  (20) 
17

>  <SMILES>  (20) 
C[n+]1c([O-])cccc1C(=O)[N-]c1cccc(F)c1

>  <Energy>  (20) 
41.17239812149135

>  <Genealogy>  (20) 
C[n+]1c([O-])cccc1C(=O)[N-]c1cccc(F)c1 (protonated)
C[n+]1c([O-])cccc1C(=O)[N-]c1cccc(F)c1 (3D coordinates assigned)
C[n+]1c([O-])cccc1C(=O)[N-]c1cccc(F)c1 (optimized conformer: 41.17239812149135 kcal/mol)

>  <smiles>  (20) 
C[n+]1c(O)cccc1C(=O)Nc1cccc(F)c1

>  <score_type>  (20) 
oracle

>  <origin>  (20) 
adg

>  <m_score__min__energy>  (20) 
-8.2599999999999998

>  <m_primary>  (20) 
energy

$$$$
20:0
     RDKit          3D

 37 39  0  0  0  0  0  0  0  0999 V2000
   55.7980   30.2970   44.7700 O   0  0  0  0  0  0  0  0  0  0  0  0
   57.0400   30.1180   44.9000 C   0  0  0  0  0  0  0  0  0  0  0  0
   57.5670   28.8300   45.3940 C   0  0  0  0  0  0  0  0  0  0  0  0
   57.2640   27.6200   44.8980 C   0  0  0  0  0  0  0  0  0  0  0  0
   57.1790   26.3740   45.6910 C   0  0  0  0  0  0  0  0  0  0  0  0
   55.9580   25.9210   46.2190 C   0  0  0  0  0  0  0  0  0  0  0  0
   54.7820   26.6330   45.9950 O   0  0  0  0  0  0  0  0  0  0  0  0
   55.9200   24.7860   46.9690 N   0  0  0  0  0  0  0  0  0  0  0  0
   57.0560   24.0890   47.2380 C   0  0  0  0  0  0  0  0  0  0  0  0
   57.0050   23.0400   47.9340 O   0  0  0  0  0  0  0  0  0  0  0  0
   58.2500   24.5250   46.7620 N   0  0  0  0  0  0  0  0  0  0  0  0
   58.3390   25.6490   46.0060 C   0  0  0  0  0  0  0  0  0  0  0  0
   59.4660   26.0250   45.5860 O   0  0  0  0  0  0  0  0  0  0  0  0
   57.9770   31.1370   44.5200 N   0  0  0  0  0  0  0  0  0  0  0  0
   58.3700   32.1590   45.2240 C   0  0  0  0  0  0  0  0  0  0  0  0
   57.8530   33.3930   45.0380 N   0  0  0  0  0  0  0  0  0  0  0  0
   58.4140   34.3100   45.8700 C   0  0  0  0  0  0  0  0  0  0  0  0
   59.3790   33.8000   46.7320 C   0  0  0  0  0  0  0  0  0  0  0  0
   60.2070   34.5960   47.6900 C   0  0  0  0  0  0  0  0  0  0  0  0
   61.5420   33.9340   47.8920 C   0  0  0  0  0  0  0  0  0  0  0  0
   62.4340   33.7930   46.8150 C   0  0  0  0  0  0  0  0  0  0  0  0
   63.6900   33.2110   47.0120 C   0  0  0  0  0  0  0  0  0  0  0  0
   64.0670   32.7750   48.2850 C   0  0  0  0  0  0  0  0  0  0  0  0
   63.1910   32.9230   49.3630 C   0  0  0  0  0  0  0  0  0  0  0  0
   61.9340   33.5050   49.1710 C   0  0  0  0  0  0  0  0  0  0  0  0
   59.5570   32.1550   46.4280 S   0  0  0  0  0  0  0  0  0  0  0  0
   58.2679   28.8651   46.2410 H   0  0  0  0  0  0  0  0  0  0  0  0
   57.0634   27.5495   43.8187 H   0  0  0  0  0  0  0  0  0  0  0  0
   55.0040   24.4530   47.3480 H   0  0  0  0  0  0  0  0  0  0  0  0
   58.1273   35.3719   45.8621 H   0  0  0  0  0  0  0  0  0  0  0  0
   60.3598   35.6075   47.2856 H   0  0  0  0  0  0  0  0  0  0  0  0
   59.6840   34.6545   48.6559 H   0  0  0  0  0  0  0  0  0  0  0  0
   62.1429   34.1419   45.8132 H   0  0  0  0  0  0  0  0  0  0  0  0
   64.3817   33.0963   46.1644 H   0  0  0  0  0  0  0  0  0  0  0  0
   65.0543   32.3149   48.4383 H   0  0  0  0  0  0  0  0  0  0  0  0
   63.4905   32.5811   50.3647 H   0  0  0  0  0  0  0  0  0  0  0  0
   61.2502   33.6272   50.0239 H   0  0  0  0  0  0  0  0  0  0  0  0
  1  2  2  0
  2  3  1  0
  3  4  2  3
  4  5  1  0
  5  6  2  0
  6  7  1  0
  6  8  1  0
  8  9  1  0
  9 10  2  0
  9 11  1  0
 11 12  1  0
 12 13  2  0
  2 14  1  0
 14 15  2  3
 15 16  1  0
 16 17  1  0
 17 18  2  0
 18 19  1  0
 19 20  1  0
 20 21  2  0
 21 22  1  0
 22 23  2  0
 23 24  1  0
 24 25  2  0
 18 26  1  0
 12  5  1  0
 26 15  1  0
 25 20  1  0
  3 27  1  0
  4 28  1  0
  8 29  1  0
 17 30  1  0
 19 31  1  0
 19 32  1  0
 21 33  1  0
 22 34  1  0
 23 35  1  0
 24 36  1  0
 25 37  1  0
M  CHG  3   7  -1  11  -1  16  -1
M  END
>  <UniqueID>  (21) 
18

>  <SMILES>  (21) 
O=C(C=Cc1c([O-])[nH]c(=O)[n-]c1=O)N=c1[n-]cc(Cc2ccccc2)s1

>  <Energy>  (21) 
81.34760908140254

>  <Genealogy>  (21) 
O=C(C=Cc1c([O-])[nH]c(=O)[n-]c1=O)N=c1[n-]cc(Cc2ccccc2)s1 (protonated)
O=C(C=Cc1c([O-])[nH]c(=O)[n-]c1=O)N=c1[n-]cc(Cc2ccccc2)s1 (3D coordinates assigned)
O=C(C=Cc1c([O-])[nH]c(=O)[n-]c1=O)N=c1[n-]cc(Cc2ccccc2)s1 (optimized conformer: 81.34760908140254 kcal/mol)

>  <smiles>  (21) 
O=C(C=Cc1c(O)[nH]c(=O)[nH]c1=O)N=c1[nH]cc(Cc2ccccc2)s1

>  <score_type>  (21) 
oracle

>  <origin>  (21) 
adg

>  <m_score__min__energy>  (21) 
-15.960000000000001

>  <m_primary>  (21) 
energy

$$$$
21:0
     RDKit          3D

 36 36  0  0  0  0  0  0  0  0999 V2000
   58.1660   22.5260   45.9310 H   0  0  0  0  0  0  0  0  0  0  0  0
   58.6640   23.4080   45.9370 O   0  0  0  0  0  0  0  0  0  0  0  0
   57.9760   24.6120   45.8470 C   0  0  0  0  0  0  0  0  0  0  0  0
   58.5860   25.8050   45.6760 N   0  0  0  0  0  0  0  0  0  0  0  0
   57.5900   26.7150   45.6480 C   0  0  0  0  0  0  0  0  0  0  0  0
   56.8950   29.1000   45.3880 C   0  0  0  0  0  0  0  0  0  0  0  0
   58.2099   31.3546   46.4053 H   0  0  0  0  0  0  0  0  0  0  0  0
   57.3790   31.2790   44.3300 C   0  0  0  0  0  0  0  0  0  0  0  0
   57.5735   31.8196   43.3920 H   0  0  0  0  0  0  0  0  0  0  0  0
   57.7370   31.9400   45.6030 C   0  0  0  0  0  0  0  0  0  0  0  0
   56.8290   30.0540   44.2540 C   0  0  0  0  0  0  0  0  0  0  0  0
   56.1091   29.1643   46.1550 H   0  0  0  0  0  0  0  0  0  0  0  0
   57.8430   28.1650   45.5460 C   0  0  0  0  0  0  0  0  0  0  0  0
   58.8877   28.5045   45.6039 H   0  0  0  0  0  0  0  0  0  0  0  0
   57.4930   33.2390   45.7900 C   0  0  0  0  0  0  0  0  0  0  0  0
   56.4548   33.5837   45.9054 H   0  0  0  0  0  0  0  0  0  0  0  0
   58.6080   34.2320   45.8450 C   0  0  0  0  0  0  0  0  0  0  0  0
   58.8531   34.4503   46.8949 H   0  0  0  0  0  0  0  0  0  0  0  0
   59.4932   33.8177   45.3403 H   0  0  0  0  0  0  0  0  0  0  0  0
   58.2986   35.1591   45.3403 H   0  0  0  0  0  0  0  0  0  0  0  0
   56.2120   29.6210   42.9500 C   0  0  0  0  0  0  0  0  0  0  0  0
   55.3268   28.9998   43.1516 H   0  0  0  0  0  0  0  0  0  0  0  0
   55.9133   30.5087   42.3730 H   0  0  0  0  0  0  0  0  0  0  0  0
   56.9452   29.0383   42.3730 H   0  0  0  0  0  0  0  0  0  0  0  0
   56.3670   26.0960   45.8400 C   0  0  0  0  0  0  0  0  0  0  0  0
   55.1300   26.7170   45.9730 O   0  0  0  0  0  0  0  0  0  0  0  0
   56.6050   24.7450   45.9370 C   0  0  0  0  0  0  0  0  0  0  0  0
   55.6040   23.6680   46.2260 C   0  0  0  0  0  0  0  0  0  0  0  0
   54.5966   24.1085   46.2591 H   0  0  0  0  0  0  0  0  0  0  0  0
   55.6574   22.9080   45.4326 H   0  0  0  0  0  0  0  0  0  0  0  0
   55.9040   23.0170   47.5470 C   0  0  0  0  0  0  0  0  0  0  0  0
   57.0190   22.5620   47.7580 O   0  0  0  0  0  0  0  0  0  0  0  0
   54.8460   22.9150   48.6020 C   0  0  0  0  0  0  0  0  0  0  0  0
   55.3142   22.9601   49.5964 H   0  0  0  0  0  0  0  0  0  0  0  0
   54.1372   23.7490   48.4923 H   0  0  0  0  0  0  0  0  0  0  0  0
   54.3095   21.9610   48.4923 H   0  0  0  0  0  0  0  0  0  0  0  0
  1  2  1  0
  2  3  1  0
  3  4  1  0
  4  5  1  0
  5  6  1  0
  6  7  1  0
  6  8  2  0
  8  9  1  0
  8 10  1  0
 10 11  2  0
 11 12  1  0
 11 13  1  0
 13 14  1  0
 13 15  2  0
 15 16  1  0
 15 17  1  0
 17 18  1  0
 17 19  1  0
 17 20  1  0
 10 21  1  0
 21 22  1  0
 21 23  1  0
 21 24  1  0
  5 25  2  0
 25 26  1  0
 25 27  1  0
 27 28  1  0
 28 29  1  0
 28 30  1  0
 28 31  1  0
 31 32  2  0
 31 33  1  0
 33 34  1  0
 33 35  1  0
 33 36  1  0
 27  3  2  0
M  CHG  2   4  -1  26  -1
M  END
>  <UniqueID>  (22) 
19

>  <SMILES>  (22) 
C/C=C/C=C(C)\C=C/c1[n-]c(O)c(CC(C)=O)c1[O-]

>  <Energy>  (22) 
60.63331093654884

>  <Genealogy>  (22) 
CC=CC=C(C)C=Cc1[n-]c(O)c(CC(C)=O)c1[O-] (protonated)
C/C=C/C=C(C)\C=C/c1[n-]c(O)c(CC(C)=O)c1[O-] (cis-trans isomerization)
C/C=C/C=C(C)\C=C/c1[n-]c(O)c(CC(C)=O)c1[O-] (3D coordinates assigned)
C/C=C/C=C(C)\C=C/c1[n-]c(O)c(CC(C)=O)c1[O-] (optimized conformer: 60.63331093654884 kcal/mol)

>  <smiles>  (22) 
CC=CC=C(C)C=Cc1[nH]c(O)c(CC(C)=O)c1O

>  <score_type>  (22) 
oracle

>  <origin>  (22) 
adg

>  <m_score__min__energy>  (22) 
-11.25

>  <m_primary>  (22) 
energy

$$$$
22:0
     RDKit          3D

 28 29  0  0  0  0  0  0  0  0999 V2000
   55.1410   29.2930   44.8470 N   0  0  0  0  0  0  0  0  0  0  0  0
   56.5090   29.6520   45.0320 C   0  0  0  0  0  0  0  0  0  0  0  0
   57.2250   28.9610   45.8060 O   0  0  0  0  0  0  0  0  0  0  0  0
   57.0840   30.8210   44.3260 C   0  0  0  0  0  0  0  0  0  0  0  0
   57.2270   30.8130   42.9260 C   0  0  0  0  0  0  0  0  0  0  0  0
   57.7760   31.9130   42.2640 C   0  0  0  0  0  0  0  0  0  0  0  0
   58.1860   33.0360   42.9870 C   0  0  0  0  0  0  0  0  0  0  0  0
   58.0430   33.0690   44.3820 C   0  0  0  0  0  0  0  0  0  0  0  0
   58.5180   34.2620   45.1680 C   0  0  0  0  0  0  0  0  0  0  0  0
   59.3060   33.8240   46.3330 N   0  0  0  0  0  0  0  0  0  0  0  0
   60.6700   33.8290   46.2540 C   0  0  0  0  0  0  0  0  0  0  0  0
   61.4460   33.4510   47.3470 C   0  0  0  0  0  0  0  0  0  0  0  0
   63.3560   33.4640   47.2150 Br  0  0  0  0  0  0  0  0  0  0  0  0
   60.8000   33.0740   48.5240 C   0  0  0  0  0  0  0  0  0  0  0  0
   61.4680   32.7260   49.5330 O   0  0  0  0  0  0  0  0  0  0  0  0
   59.4420   33.0840   48.5800 N   0  0  0  0  0  0  0  0  0  0  0  0
   58.6940   33.4560   47.5050 C   0  0  0  0  0  0  0  0  0  0  0  0
   57.4360   33.4590   47.6000 O   0  0  0  0  0  0  0  0  0  0  0  0
   57.4990   31.9570   45.0450 C   0  0  0  0  0  0  0  0  0  0  0  0
   54.4600   29.3480   45.6360 H   0  0  0  0  0  0  0  0  0  0  0  0
   56.9040   29.9339   42.3491 H   0  0  0  0  0  0  0  0  0  0  0  0
   57.8861   31.8953   41.1697 H   0  0  0  0  0  0  0  0  0  0  0  0
   58.6225   33.8974   42.4604 H   0  0  0  0  0  0  0  0  0  0  0  0
   59.1447   34.8956   44.5232 H   0  0  0  0  0  0  0  0  0  0  0  0
   57.6444   34.8307   45.5194 H   0  0  0  0  0  0  0  0  0  0  0  0
   61.1601   34.1346   45.3178 H   0  0  0  0  0  0  0  0  0  0  0  0
   58.9630   32.8030   49.4670 H   0  0  0  0  0  0  0  0  0  0  0  0
   57.3960   31.9743   46.1400 H   0  0  0  0  0  0  0  0  0  0  0  0
  1  2  1  0
  2  3  2  0
  2  4  1  0
  4  5  2  0
  5  6  1  0
  6  7  2  0
  7  8  1  0
  8  9  1  0
  9 10  1  0
 10 11  1  0
 11 12  2  0
 12 13  1  0
 12 14  1  0
 14 15  2  0
 14 16  1  0
 16 17  1  0
 17 18  2  0
  8 19  2  0
 19  4  1  0
 17 10  1  0
  1 20  1  0
  5 21  1  0
  6 22  1  0
  7 23  1  0
  9 24  1  0
  9 25  1  0
 11 26  1  0
 16 27  1  0
 19 28  1  0
M  CHG  1   1  -1
M  END
>  <UniqueID>  (23) 
20

>  <SMILES>  (23) 
[NH-]C(=O)c1cccc(Cn2cc(Br)c(=O)[nH]c2=O)c1

>  <Energy>  (23) 
30.836648402065368

>  <Genealogy>  (23) 
[NH-]C(=O)c1cccc(Cn2cc(Br)c(=O)[nH]c2=O)c1 (protonated)
[NH-]C(=O)c1cccc(Cn2cc(Br)c(=O)[nH]c2=O)c1 (3D coordinates assigned)
[NH-]C(=O)c1cccc(Cn2cc(Br)c(=O)[nH]c2=O)c1 (optimized conformer: 30.836648402065368 kcal/mol)

>  <smiles>  (23) 
NC(=O)c1cccc(Cn2cc(Br)c(=O)[nH]c2=O)c1

>  <score_type>  (23) 
oracle

>  <origin>  (23) 
adg

>  <m_score__min__energy>  (23) 
-10.44

>  <m_primary>  (23) 
energy

$$$$
23:0
     RDKit          3D

 46 48  0  0  0  0  0  0  0  0999 V2000
   56.6870   19.6660   43.1000 H   0  0  0  0  0  0  0  0  0  0  0  0
   56.2690   20.5840   43.0000 O   0  0  0  0  0  0  0  0  0  0  0  0
   56.8540   21.7160   43.5600 C   0  0  0  0  0  0  0  0  0  0  0  0
   58.0390   21.6160   44.3010 C   0  0  0  0  0  0  0  0  0  0  0  0
   58.5155   20.6350   44.4448 H   0  0  0  0  0  0  0  0  0  0  0  0
   58.6170   22.7610   44.8580 C   0  0  0  0  0  0  0  0  0  0  0  0
   59.5537   22.6779   45.4287 H   0  0  0  0  0  0  0  0  0  0  0  0
   58.0110   24.0130   44.6940 C   0  0  0  0  0  0  0  0  0  0  0  0
   58.6300   25.1390   45.2550 O   0  0  0  0  0  0  0  0  0  0  0  0
   58.2360   26.4700   45.0520 C   0  0  0  0  0  0  0  0  0  0  0  0
   58.1330   27.0270   43.7660 C   0  0  0  0  0  0  0  0  0  0  0  0
   58.3766   26.4168   42.8838 H   0  0  0  0  0  0  0  0  0  0  0  0
   57.7220   28.3540   43.6030 C   0  0  0  0  0  0  0  0  0  0  0  0
   57.6539   28.7835   42.5926 H   0  0  0  0  0  0  0  0  0  0  0  0
   57.3950   29.1440   44.7200 C   0  0  0  0  0  0  0  0  0  0  0  0
   56.9560   30.5490   44.5460 C   0  0  0  0  0  0  0  0  0  0  0  0
   55.7250   30.8190   44.5140 O   0  0  0  0  0  0  0  0  0  0  0  0
   57.9330   31.5810   44.3230 N   0  0  0  0  0  0  0  0  0  0  0  0
   58.4880   32.3890   45.1850 C   0  0  0  0  0  0  0  0  0  0  0  0
   58.0270   33.6670   45.2510 N   0  0  0  0  0  0  0  0  0  0  0  0
   58.5430   34.5830   46.1100 C   0  0  0  0  0  0  0  0  0  0  0  0
   58.1359   35.6046   46.1331 H   0  0  0  0  0  0  0  0  0  0  0  0
   59.5870   34.2310   46.9620 C   0  0  0  0  0  0  0  0  0  0  0  0
   59.9994   34.9709   47.6638 H   0  0  0  0  0  0  0  0  0  0  0  0
   60.1090   32.9360   46.9230 C   0  0  0  0  0  0  0  0  0  0  0  0
   61.1720   32.6280   47.7880 O   0  0  0  0  0  0  0  0  0  0  0  0
   62.5530   32.5390   47.4230 C   0  0  0  0  0  0  0  0  0  0  0  0
   62.7105   31.6597   46.7812 H   0  0  0  0  0  0  0  0  0  0  0  0
   63.4240   32.3810   48.6730 C   0  0  0  0  0  0  0  0  0  0  0  0
   62.7997   32.4942   49.5716 H   0  0  0  0  0  0  0  0  0  0  0  0
   63.8886   31.3839   48.6726 H   0  0  0  0  0  0  0  0  0  0  0  0
   64.2092   33.1514   48.6726 H   0  0  0  0  0  0  0  0  0  0  0  0
   62.9420   33.8080   46.6680 C   0  0  0  0  0  0  0  0  0  0  0  0
   63.1857   34.6030   47.3882 H   0  0  0  0  0  0  0  0  0  0  0  0
   63.8190   33.6044   46.0360 H   0  0  0  0  0  0  0  0  0  0  0  0
   62.1016   34.1308   46.0360 H   0  0  0  0  0  0  0  0  0  0  0  0
   59.5640   32.0070   46.0160 C   0  0  0  0  0  0  0  0  0  0  0  0
   59.9745   30.9883   45.9550 H   0  0  0  0  0  0  0  0  0  0  0  0
   57.4790   28.5720   46.0030 C   0  0  0  0  0  0  0  0  0  0  0  0
   57.2188   29.1728   46.8870 H   0  0  0  0  0  0  0  0  0  0  0  0
   57.8910   27.2450   46.1620 C   0  0  0  0  0  0  0  0  0  0  0  0
   57.9439   26.8076   47.1699 H   0  0  0  0  0  0  0  0  0  0  0  0
   56.8310   24.1120   43.9330 C   0  0  0  0  0  0  0  0  0  0  0  0
   56.3603   25.0938   43.7766 H   0  0  0  0  0  0  0  0  0  0  0  0
   56.2550   22.9660   43.3750 C   0  0  0  0  0  0  0  0  0  0  0  0
   55.3279   23.0483   42.7888 H   0  0  0  0  0  0  0  0  0  0  0  0
  1  2  1  0
  2  3  1  0
  3  4  2  0
  4  5  1  0
  4  6  1  0
  6  7  1  0
  6  8  2  0
  8  9  1  0
  9 10  1  0
 10 11  2  0
 11 12  1  0
 11 13  1  0
 13 14  1  0
 13 15  2  0
 15 16  1  0
 16 17  2  0
 16 18  1  0
 18 19  2  0
 19 20  1  0
 20 21  1  0
 21 22  1  0
 21 23  2  0
 23 24  1  0
 23 25  1  0
 25 26  1  0
 26 27  1  0
 27 28  1  0
 27 29  1  0
 29 30  1  0
 29 31  1  0
 29 32  1  0
 27 33  1  0
 33 34  1  0
 33 35  1  0
 33 36  1  0
 25 37  2  0
 37 38  1  0
 15 39  1  0
 39 40  1  0
 39 41  2  0
 41 42  1  0
  8 43  1  0
 43 44  1  0
 43 45  2  0
 45 46  1  0
 45  3  1  0
 41 10  1  0
 37 19  1  0
M  CHG  1  20  -1
M  END
>  <UniqueID>  (24) 
21

>  <SMILES>  (24) 
CC(C)Oc1cc[n-]/c(=N/C(=O)c2ccc(Oc3ccc(O)cc3)cc2)c1

>  <Energy>  (24) 
59.857434365708926

>  <Genealogy>  (24) 
CC(C)Oc1cc[n-]c(=NC(=O)c2ccc(Oc3ccc(O)cc3)cc2)c1 (protonated)
CC(C)Oc1cc[n-]/c(=N/C(=O)c2ccc(Oc3ccc(O)cc3)cc2)c1 (cis-trans isomerization)
CC(C)Oc1cc[n-]/c(=N/C(=O)c2ccc(Oc3ccc(O)cc3)cc2)c1 (3D coordinates assigned)
CC(C)Oc1cc[n-]/c(=N/C(=O)c2ccc(Oc3ccc(O)cc3)cc2)c1 (optimized conformer: 59.857434365708926 kcal/mol)

>  <smiles>  (24) 
CC(C)Oc1cc[nH]c(=NC(=O)c2ccc(Oc3ccc(O)cc3)cc2)c1

>  <score_type>  (24) 
oracle

>  <origin>  (24) 
adg

>  <m_score__min__energy>  (24) 
-9.7699999999999996

>  <m_primary>  (24) 
energy

$$$$
24:0
     RDKit          3D

 62 65  0  0  0  0  0  0  0  0999 V2000
   55.5370   28.8540   44.9060 O   0  0  0  0  0  0  0  0  0  0  0  0
   56.3670   29.4150   44.1370 C   0  0  0  0  0  0  0  0  0  0  0  0
   57.3560   28.5780   43.4280 C   0  0  0  0  0  0  0  0  0  0  0  0
   58.3080   27.8230   43.9940 C   0  0  0  0  0  0  0  0  0  0  0  0
   58.9830   28.1380   45.2720 C   0  0  0  0  0  0  0  0  0  0  0  0
   59.9050   29.1990   45.3150 C   0  0  0  0  0  0  0  0  0  0  0  0
   60.6340   29.4580   46.4780 C   0  0  0  0  0  0  0  0  0  0  0  0
   60.4310   28.6770   47.6170 C   0  0  0  0  0  0  0  0  0  0  0  0
   59.4890   27.6440   47.6030 C   0  0  0  0  0  0  0  0  0  0  0  0
   58.7470   27.3700   46.4420 C   0  0  0  0  0  0  0  0  0  0  0  0
   57.7660   26.2560   46.4550 C   0  0  0  0  0  0  0  0  0  0  0  0
   57.9630   25.2610   47.2020 O   0  0  0  0  0  0  0  0  0  0  0  0
   56.5860   26.3160   45.6400 N   0  0  0  0  0  0  0  0  0  0  0  0
   55.5880   25.2480   45.6230 C   0  0  0  0  0  0  0  0  0  0  0  0
   56.1540   24.0290   44.9510 C   0  0  0  0  0  0  0  0  0  0  0  0
   56.8410   23.0580   45.6970 C   0  0  0  0  0  0  0  0  0  0  0  0
   57.3970   21.9410   45.0630 C   0  0  0  0  0  0  0  0  0  0  0  0
   57.2700   21.7900   43.6780 C   0  0  0  0  0  0  0  0  0  0  0  0
   56.5950   22.7570   42.9260 C   0  0  0  0  0  0  0  0  0  0  0  0
   56.0440   23.8760   43.5580 C   0  0  0  0  0  0  0  0  0  0  0  0
   56.3500   30.8420   44.0140 N   0  0  0  0  0  0  0  0  0  0  0  0
   57.1540   31.7160   44.8200 C   0  0  0  0  0  0  0  0  0  0  0  0
   57.7800   31.2560   45.9930 C   0  0  0  0  0  0  0  0  0  0  0  0
   58.6320   32.0930   46.7180 C   0  0  0  0  0  0  0  0  0  0  0  0
   58.8550   33.4080   46.2920 C   0  0  0  0  0  0  0  0  0  0  0  0
   59.9770   34.4420   47.1900 S   0  0  0  0  0  0  0  0  0  0  0  0
   59.3180   34.8930   48.4640 O   0  0  0  0  0  0  0  0  0  0  0  0
   60.2720   35.6620   46.3610 O   0  0  0  0  0  0  0  0  0  0  0  0
   61.4770   33.6310   47.5720 N   0  0  0  0  0  0  0  0  0  0  0  0
   62.4600   33.8270   46.4960 C   0  0  0  0  0  0  0  0  0  0  0  0
   63.7700   33.0850   46.8410 C   0  0  0  0  0  0  0  0  0  0  0  0
   63.7460   32.5350   48.1470 O   0  0  0  0  0  0  0  0  0  0  0  0
   63.4380   33.5440   49.0890 C   0  0  0  0  0  0  0  0  0  0  0  0
   62.0230   34.1180   48.8520 C   0  0  0  0  0  0  0  0  0  0  0  0
   58.2330   33.8740   45.1220 C   0  0  0  0  0  0  0  0  0  0  0  0
   57.3970   33.0270   44.3840 C   0  0  0  0  0  0  0  0  0  0  0  0
   57.3065   28.5738   42.3291 H   0  0  0  0  0  0  0  0  0  0  0  0
   58.6088   26.9034   43.4707 H   0  0  0  0  0  0  0  0  0  0  0  0
   60.0532   29.8297   44.4260 H   0  0  0  0  0  0  0  0  0  0  0  0
   61.3679   30.2772   46.4963 H   0  0  0  0  0  0  0  0  0  0  0  0
   61.0141   28.8749   48.5285 H   0  0  0  0  0  0  0  0  0  0  0  0
   59.3275   27.0408   48.5086 H   0  0  0  0  0  0  0  0  0  0  0  0
   56.3810   27.1820   45.0890 H   0  0  0  0  0  0  0  0  0  0  0  0
   55.3052   24.9967   46.6559 H   0  0  0  0  0  0  0  0  0  0  0  0
   54.7022   25.5892   45.0672 H   0  0  0  0  0  0  0  0  0  0  0  0
   56.9428   23.1759   46.7859 H   0  0  0  0  0  0  0  0  0  0  0  0
   57.9331   21.1829   45.6529 H   0  0  0  0  0  0  0  0  0  0  0  0
   57.7016   20.9095   43.1797 H   0  0  0  0  0  0  0  0  0  0  0  0
   56.4976   22.6372   41.8369 H   0  0  0  0  0  0  0  0  0  0  0  0
   55.5223   24.6398   42.9626 H   0  0  0  0  0  0  0  0  0  0  0  0
   57.5972   30.2290   46.3422 H   0  0  0  0  0  0  0  0  0  0  0  0
   59.1285   31.7182   47.6252 H   0  0  0  0  0  0  0  0  0  0  0  0
   62.0535   33.4310   45.5537 H   0  0  0  0  0  0  0  0  0  0  0  0
   62.6695   34.9014   46.3874 H   0  0  0  0  0  0  0  0  0  0  0  0
   63.9172   32.2706   46.1164 H   0  0  0  0  0  0  0  0  0  0  0  0
   64.5926   33.8140   46.7967 H   0  0  0  0  0  0  0  0  0  0  0  0
   63.4866   33.1164   50.1013 H   0  0  0  0  0  0  0  0  0  0  0  0
   64.1676   34.3595   48.9764 H   0  0  0  0  0  0  0  0  0  0  0  0
   61.3616   33.8011   49.6719 H   0  0  0  0  0  0  0  0  0  0  0  0
   62.0850   35.2157   48.8182 H   0  0  0  0  0  0  0  0  0  0  0  0
   58.4030   34.9071   44.7845 H   0  0  0  0  0  0  0  0  0  0  0  0
   56.9286   33.3915   43.4579 H   0  0  0  0  0  0  0  0  0  0  0  0
  1  2  2  0
  2  3  1  0
  3  4  2  3
  4  5  1  0
  5  6  2  0
  6  7  1  0
  7  8  2  0
  8  9  1  0
  9 10  2  0
 10 11  1  0
 11 12  2  0
 11 13  1  0
 13 14  1  0
 14 15  1  0
 15 16  2  0
 16 17  1  0
 17 18  2  0
 18 19  1  0
 19 20  2  0
  2 21  1  0
 21 22  1  0
 22 23  2  0
 23 24  1  0
 24 25  2  0
 25 26  1  0
 26 27  2  0
 26 28  2  0
 26 29  1  0
 29 30  1  0
 30 31  1  0
 31 32  1  0
 32 33  1  0
 33 34  1  0
 25 35  1  0
 35 36  2  0
 10  5  1  0
 20 15  1  0
 36 22  1  0
 34 29  1  0
  3 37  1  0
  4 38  1  0
  6 39  1  0
  7 40  1  0
  8 41  1  0
  9 42  1  0
 13 43  1  0
 14 44  1  0
 14 45  1  0
 16 46  1  0
 17 47  1  0
 18 48  1  0
 19 49  1  0
 20 50  1  0
 23 51  1  0
 24 52  1  0
 30 53  1  0
 30 54  1  0
 31 55  1  0
 31 56  1  0
 33 57  1  0
 33 58  1  0
 34 59  1  0
 34 60  1  0
 35 61  1  0
 36 62  1  0
M  CHG  1  21  -1
M  END
>  <UniqueID>  (25) 
22

>  <SMILES>  (25) 
O=C(C=Cc1ccccc1C(=O)NCc1ccccc1)[N-]c1ccc(S(=O)(=O)N2CCOCC2)cc1

>  <Energy>  (25) 
90.0826144930039

>  <Genealogy>  (25) 
O=C(C=Cc1ccccc1C(=O)NCc1ccccc1)[N-]c1ccc(S(=O)(=O)N2CCOCC2)cc1 (protonated)
O=C(C=Cc1ccccc1C(=O)NCc1ccccc1)[N-]c1ccc(S(=O)(=O)N2CCOCC2)cc1 (3D coordinates assigned)
O=C(C=Cc1ccccc1C(=O)NCc1ccccc1)[N-]c1ccc(S(=O)(=O)N2CCOCC2)cc1 (nonaromatic ring conformer: 90.0826144930039 kcal/mol)

>  <smiles>  (25) 
O=C(C=Cc1ccccc1C(=O)NCc1ccccc1)Nc1ccc(S(=O)(=O)N2CCOCC2)cc1

>  <score_type>  (25) 
oracle

>  <origin>  (25) 
adg

>  <m_score__min__energy>  (25) 
-12.6

>  <m_primary>  (25) 
energy

$$$$
25:0
     RDKit          3D

 56 59  0  0  0  0  0  0  0  0999 V2000
   61.1120   28.4440   49.0040 O   0  0  0  0  0  0  0  0  0  0  0  0
   60.2310   29.1060   48.3950 C   0  0  0  0  0  0  0  0  0  0  0  0
   59.5560   30.1920   49.0470 N   0  0  0  0  0  0  0  0  0  0  0  0
   59.4580   31.5550   48.6030 C   0  0  0  0  0  0  0  0  0  0  0  0
   59.7720   32.5730   49.5120 C   0  0  0  0  0  0  0  0  0  0  0  0
   59.6830   33.9130   49.1330 C   0  0  0  0  0  0  0  0  0  0  0  0
   59.2680   34.2500   47.8430 C   0  0  0  0  0  0  0  0  0  0  0  0
   58.9270   33.2460   46.9280 C   0  0  0  0  0  0  0  0  0  0  0  0
   58.4120   33.6760   45.2940 S   0  0  0  0  0  0  0  0  0  0  0  0
   59.5280   34.4080   44.6010 O   0  0  0  0  0  0  0  0  0  0  0  0
   57.2280   34.5970   45.3710 O   0  0  0  0  0  0  0  0  0  0  0  0
   57.9830   32.2640   44.3600 N   0  0  0  0  0  0  0  0  0  0  0  0
   57.8310   32.6150   42.9380 C   0  0  0  0  0  0  0  0  0  0  0  0
   57.2720   31.4160   42.1410 C   0  0  0  0  0  0  0  0  0  0  0  0
   57.2390   30.2420   42.9310 O   0  0  0  0  0  0  0  0  0  0  0  0
   56.3640   30.4280   44.0310 C   0  0  0  0  0  0  0  0  0  0  0  0
   56.7390   31.6670   44.8700 C   0  0  0  0  0  0  0  0  0  0  0  0
   59.0080   31.9000   47.3140 C   0  0  0  0  0  0  0  0  0  0  0  0
   59.8560   28.7270   47.0140 C   0  0  0  0  0  0  0  0  0  0  0  0
   60.7640   28.8960   45.9550 C   0  0  0  0  0  0  0  0  0  0  0  0
   60.3940   28.5660   44.6490 C   0  0  0  0  0  0  0  0  0  0  0  0
   59.1210   28.0560   44.3870 C   0  0  0  0  0  0  0  0  0  0  0  0
   58.2050   27.8550   45.4310 C   0  0  0  0  0  0  0  0  0  0  0  0
   56.9050   27.3140   45.1340 N   0  0  0  0  0  0  0  0  0  0  0  0
   56.2650   25.8920   45.8960 S   0  0  0  0  0  0  0  0  0  0  0  0
   56.8150   25.7890   47.2910 O   0  0  0  0  0  0  0  0  0  0  0  0
   54.7700   26.0060   45.9790 O   0  0  0  0  0  0  0  0  0  0  0  0
   56.7360   24.4590   44.9930 C   0  0  0  0  0  0  0  0  0  0  0  0
   57.8980   23.7480   45.3280 C   0  0  0  0  0  0  0  0  0  0  0  0
   58.2520   22.6040   44.6070 C   0  0  0  0  0  0  0  0  0  0  0  0
   57.4510   22.1680   43.5460 C   0  0  0  0  0  0  0  0  0  0  0  0
   56.2940   22.8730   43.2060 C   0  0  0  0  0  0  0  0  0  0  0  0
   55.9340   24.0150   43.9290 C   0  0  0  0  0  0  0  0  0  0  0  0
   58.5790   28.2030   46.7440 C   0  0  0  0  0  0  0  0  0  0  0  0
   60.0912   32.3144   50.5324 H   0  0  0  0  0  0  0  0  0  0  0  0
   59.9402   34.7051   49.8516 H   0  0  0  0  0  0  0  0  0  0  0  0
   59.2087   35.3071   47.5446 H   0  0  0  0  0  0  0  0  0  0  0  0
   57.1382   33.4646   42.8470 H   0  0  0  0  0  0  0  0  0  0  0  0
   58.8169   32.8839   42.5309 H   0  0  0  0  0  0  0  0  0  0  0  0
   56.2506   31.6523   41.8080 H   0  0  0  0  0  0  0  0  0  0  0  0
   57.9311   31.2353   41.2791 H   0  0  0  0  0  0  0  0  0  0  0  0
   55.3393   30.5540   43.6514 H   0  0  0  0  0  0  0  0  0  0  0  0
   56.4442   29.5435   44.6800 H   0  0  0  0  0  0  0  0  0  0  0  0
   55.9279   32.4075   44.8083 H   0  0  0  0  0  0  0  0  0  0  0  0
   56.8880   31.3621   45.9164 H   0  0  0  0  0  0  0  0  0  0  0  0
   58.7184   31.1095   46.6060 H   0  0  0  0  0  0  0  0  0  0  0  0
   61.7712   29.2901   46.1554 H   0  0  0  0  0  0  0  0  0  0  0  0
   61.1079   28.7084   43.8244 H   0  0  0  0  0  0  0  0  0  0  0  0
   58.8338   27.8098   43.3541 H   0  0  0  0  0  0  0  0  0  0  0  0
   56.3620   27.7090   44.3330 H   0  0  0  0  0  0  0  0  0  0  0  0
   58.5314   24.0912   46.1592 H   0  0  0  0  0  0  0  0  0  0  0  0
   59.1615   22.0459   44.8741 H   0  0  0  0  0  0  0  0  0  0  0  0
   57.7328   21.2687   42.9787 H   0  0  0  0  0  0  0  0  0  0  0  0
   55.6664   22.5303   42.3702 H   0  0  0  0  0  0  0  0  0  0  0  0
   55.0202   24.5668   43.6635 H   0  0  0  0  0  0  0  0  0  0  0  0
   57.8637   28.0632   47.5679 H   0  0  0  0  0  0  0  0  0  0  0  0
  1  2  2  0
  2  3  1  0
  3  4  1  0
  4  5  2  0
  5  6  1  0
  6  7  2  0
  7  8  1  0
  8  9  1  0
  9 10  2  0
  9 11  2  0
  9 12  1  0
 12 13  1  0
 13 14  1  0
 14 15  1  0
 15 16  1  0
 16 17  1  0
  8 18  2  0
  2 19  1  0
 19 20  2  0
 20 21  1  0
 21 22  2  0
 22 23  1  0
 23 24  1  0
 24 25  1  0
 25 26  2  0
 25 27  2  0
 25 28  1  0
 28 29  2  0
 29 30  1  0
 30 31  2  0
 31 32  1  0
 32 33  2  0
 23 34  2  0
 18  4  1  0
 34 19  1  0
 17 12  1  0
 33 28  1  0
  5 35  1  0
  6 36  1  0
  7 37  1  0
 13 38  1  0
 13 39  1  0
 14 40  1  0
 14 41  1  0
 16 42  1  0
 16 43  1  0
 17 44  1  0
 17 45  1  0
 18 46  1  0
 20 47  1  0
 21 48  1  0
 22 49  1  0
 24 50  1  0
 29 51  1  0
 30 52  1  0
 31 53  1  0
 32 54  1  0
 33 55  1  0
 34 56  1  0
M  CHG  1   3  -1
M  END
>  <UniqueID>  (26) 
23

>  <SMILES>  (26) 
O=C([N-]c1cccc(S(=O)(=O)N2CCOCC2)c1)c1cccc(NS(=O)(=O)c2ccccc2)c1

>  <Energy>  (26) 
74.33134787284803

>  <Genealogy>  (26) 
O=C([N-]c1cccc(S(=O)(=O)N2CCOCC2)c1)c1cccc(NS(=O)(=O)c2ccccc2)c1 (protonated)
O=C([N-]c1cccc(S(=O)(=O)N2CCOCC2)c1)c1cccc(NS(=O)(=O)c2ccccc2)c1 (3D coordinates assigned)
O=C([N-]c1cccc(S(=O)(=O)N2CCOCC2)c1)c1cccc(NS(=O)(=O)c2ccccc2)c1 (nonaromatic ring conformer: 74.33134787284803 kcal/mol)

>  <smiles>  (26) 
O=C(Nc1cccc(S(=O)(=O)N2CCOCC2)c1)c1cccc(NS(=O)(=O)c2ccccc2)c1

>  <score_type>  (26) 
oracle

>  <origin>  (26) 
adg

>  <m_score__min__energy>  (26) 
-13.1

>  <m_primary>  (26) 
energy

$$$$
26:0
     RDKit          3D

 76 80  0  0  1  0  0  0  0  0999 V2000
   58.9530   33.5580   48.9370 O   0  0  0  0  0  0  0  0  0  0  0  0
   60.0500   33.5500   49.5840 C   0  0  0  0  0  0  0  0  0  0  0  0
   60.0730   33.7360   50.9730 N   0  0  0  0  0  0  0  0  0  0  0  0
   58.9080   33.9560   51.8060 C   0  0  0  0  0  0  0  0  0  0  0  0
   58.9590   33.0190   52.9650 C   0  0  0  0  0  0  0  0  0  0  0  0
   57.7880   32.1720   53.1020 N   0  0  0  0  0  0  0  0  0  0  0  0
   57.2350   32.0340   51.7670 C   0  0  0  0  0  0  0  0  0  0  0  0
   57.8510   30.8370   51.1180 C   0  0  0  0  0  0  0  0  0  0  0  0
   57.3240   29.6910   51.6880 O   0  0  0  0  0  0  0  0  0  0  0  0
   57.0440   29.8990   53.0290 C   0  0  0  0  0  0  0  0  0  0  0  0
   58.1060   30.8420   53.5810 C   0  0  0  0  0  0  0  0  0  0  0  0
   61.2520   33.3400   48.7860 C   0  0  0  0  0  0  0  0  0  0  0  0
   61.2210   33.7830   47.4650 C   0  0  0  0  0  0  0  0  0  0  0  0
   62.2890   33.6480   46.6100 C   0  0  0  0  0  0  0  0  0  0  0  0
   63.4410   33.0410   47.1030 C   0  0  0  0  0  0  0  0  0  0  0  0
   60.4850   28.4830   47.2160 C   0  0  0  0  0  0  0  0  0  0  0  0
   59.9100   28.9580   48.3740 C   0  0  0  0  0  0  0  0  0  0  0  0
   62.4530   32.2810   50.6170 N   0  0  0  0  0  0  0  0  0  0  0  0
   61.9060   31.2080   51.0330 C   0  0  0  0  0  0  0  0  0  0  0  0
   61.3170   30.3520   50.1790 N   0  0  0  0  0  0  0  0  0  0  0  0
   60.7340   29.2020   50.5580 C   0  0  0  0  0  0  0  0  0  0  0  0
   60.1940   28.4380   49.6670 N   0  0  0  0  0  0  0  0  0  0  0  0
   62.3920   32.7390   49.2730 C   0  0  0  0  0  0  0  0  0  0  0  0
   58.9910   30.0130   48.3420 C   0  0  0  0  0  0  0  0  0  0  0  0
   60.1190   29.0860   46.0130 C   0  0  0  0  0  0  0  0  0  0  0  0
   59.2170   30.1270   45.9530 C   0  0  0  0  0  0  0  0  0  0  0  0
   58.8130   30.7960   44.7030 C   0  0  0  0  0  0  0  0  0  0  0  0
   57.8730   30.1060   43.8970 N   0  0  0  0  0  0  0  0  0  0  0  0
   57.7440   28.6980   44.1090 C   0  0  0  0  0  0  0  0  0  0  0  0
   56.7500   28.5190   45.2430 C   0  0  0  0  0  0  0  0  0  0  0  0
   55.4820   28.9790   44.8770 O   0  0  0  0  0  0  0  0  0  0  0  0
   55.5150   29.7300   43.7040 C   0  0  0  0  0  0  0  0  0  0  0  0
   56.6130   30.7830   43.7360 C   0  0  0  0  0  0  0  0  0  0  0  0
   58.6550   30.5860   47.1300 C   0  0  0  0  0  0  0  0  0  0  0  0
   63.4750   32.6070   48.3940 C   0  0  0  0  0  0  0  0  0  0  0  0
   60.6940   28.8130   51.8560 N   0  0  0  0  0  0  0  0  0  0  0  0
   61.2730   29.6470   52.7380 C   0  0  0  0  0  0  0  0  0  0  0  0
   61.8790   30.8320   52.3790 C   0  0  0  0  0  0  0  0  0  0  0  0
   62.5100   31.7230   53.3940 C   0  0  0  0  0  0  0  0  0  0  0  0
   62.1920   31.3040   54.6680 F   0  0  0  0  0  0  0  0  0  0  0  0
   63.8830   31.7360   53.1660 F   0  0  0  0  0  0  0  0  0  0  0  0
   61.9920   32.9930   53.2400 F   0  0  0  0  0  0  0  0  0  0  0  0
   61.0330   33.7100   51.4350 H   0  0  0  0  0  0  0  0  0  0  0  0
   58.9051   34.9940   52.1702 H   0  0  0  0  0  0  0  0  0  0  0  0
   57.9931   33.7771   51.2221 H   0  0  0  0  0  0  0  0  0  0  0  0
   59.8402   32.3715   52.8457 H   0  0  0  0  0  0  0  0  0  0  0  0
   59.0045   33.6415   53.8708 H   0  0  0  0  0  0  0  0  0  0  0  0
   56.1447   31.9021   51.8292 H   0  0  0  0  0  0  0  0  0  0  0  0
   57.4512   32.9357   51.1753 H   0  0  0  0  0  0  0  0  0  0  0  0
   57.6299   30.8476   50.0405 H   0  0  0  0  0  0  0  0  0  0  0  0
   58.9411   30.8560   51.2644 H   0  0  0  0  0  0  0  0  0  0  0  0
   56.0474   30.3515   53.1382 H   0  0  0  0  0  0  0  0  0  0  0  0
   57.0516   28.9455   53.5774 H   0  0  0  0  0  0  0  0  0  0  0  0
   58.0913   30.8239   54.6808 H   0  0  0  0  0  0  0  0  0  0  0  0
   59.1096   30.5370   53.2497 H   0  0  0  0  0  0  0  0  0  0  0  0
   60.3035   34.2607   47.0908 H   0  0  0  0  0  0  0  0  0  0  0  0
   62.2353   34.0073   45.5717 H   0  0  0  0  0  0  0  0  0  0  0  0
   64.3193   32.9125   46.4534 H   0  0  0  0  0  0  0  0  0  0  0  0
   61.2091   27.6553   47.2393 H   0  0  0  0  0  0  0  0  0  0  0  0
   61.3020   30.5780   49.1630 H   0  0  0  0  0  0  0  0  0  0  0  0
   58.5396   30.3833   49.2743 H   0  0  0  0  0  0  0  0  0  0  0  0
   60.5662   28.7177   45.0779 H   0  0  0  0  0  0  0  0  0  0  0  0
   58.3751   31.7691   44.9700 H   0  0  0  0  0  0  0  0  0  0  0  0
   59.7281   30.8610   44.0961 H   0  0  0  0  0  0  0  0  0  0  0  0
   57.3710   28.2095   43.1967 H   0  0  0  0  0  0  0  0  0  0  0  0
   58.7146   28.2437   44.3570 H   0  0  0  0  0  0  0  0  0  0  0  0
   56.6849   27.4511   45.4987 H   0  0  0  0  0  0  0  0  0  0  0  0
   57.0975   29.1028   46.1081 H   0  0  0  0  0  0  0  0  0  0  0  0
   55.6942   29.0549   42.8542 H   0  0  0  0  0  0  0  0  0  0  0  0
   54.5493   30.2469   43.6025 H   0  0  0  0  0  0  0  0  0  0  0  0
   56.6124   31.3519   42.7945 H   0  0  0  0  0  0  0  0  0  0  0  0
   56.4465   31.4840   44.5672 H   0  0  0  0  0  0  0  0  0  0  0  0
   57.9332   31.4156   47.1014 H   0  0  0  0  0  0  0  0  0  0  0  0
   64.3953   32.1309   48.7633 H   0  0  0  0  0  0  0  0  0  0  0  0
   60.2470   27.9270   52.1740 H   0  0  0  0  0  0  0  0  0  0  0  0
   61.2625   29.3688   53.8022 H   0  0  0  0  0  0  0  0  0  0  0  0
  1  2  2  0
  2  3  1  0
  3  4  1  0
  4  5  1  0
  5  6  1  0
  6  7  1  0
  7  8  1  0
  8  9  1  0
  9 10  1  0
 10 11  1  0
  2 12  1  0
 12 13  2  0
 13 14  1  0
 14 15  2  0
 15 16  1  0
 16 17  2  0
 17 18  1  0
 18 19  2  0
 19 20  1  0
 20 21  1  0
 21 22  2  0
 22 23  1  0
 23 24  2  0
 24 25  1  0
 25 26  2  0
 26 27  1  0
 27 28  1  0
 28 29  1  0
 29 30  1  0
 30 31  1  0
 31 32  1  0
 32 33  1  0
 26 34  1  0
 34 35  2  0
 21 36  1  0
 36 37  1  0
 37 38  2  0
 38 39  1  0
 39 40  1  0
 39 41  1  0
 39 42  1  0
 11  6  1  0
 17 12  1  0
 38 19  1  0
 35 23  1  0
 33 28  1  0
  3 43  1  0
  4 44  1  0
  4 45  1  0
  5 46  1  0
  5 47  1  0
  7 48  1  0
  7 49  1  0
  8 50  1  0
  8 51  1  0
 10 52  1  0
 10 53  1  0
 11 54  1  0
 11 55  1  0
 13 56  1  0
 14 57  1  0
 15 58  1  0
 16 59  1  0
 20 60  1  0
 24 61  1  0
 25 62  1  0
 27 63  1  0
 27 64  1  0
 29 65  1  0
 29 66  1  0
 30 67  1  0
 30 68  1  0
 32 69  1  0
 32 70  1  0
 33 71  1  0
 33 72  1  0
 34 73  1  0
 35 74  1  0
 36 75  1  0
 37 76  1  0
M  END
>  <smiles>  (27) 
O=C(NCCN1CCOCC1)c1ccccc1N=c1[nH]c(=Nc2ccc(CN3CCOCC3)cc2)[nH]cc1C(F)(F)F

>  <score_type>  (27) 
oracle

>  <origin>  (27) 
adg

>  <m_score__min__energy>  (27) 
-9.5999999999999996

>  <m_primary>  (27) 
energy

$$$$
27:0
     RDKit          3D

 54 55  0  0  0  0  0  0  0  0999 V2000
   56.7520   25.5060   46.6370 C   0  0  0  0  0  0  0  0  0  0  0  0
   57.0200   26.8670   45.9890 C   0  0  0  0  0  0  0  0  0  0  0  0
   58.4610   27.2250   46.0050 N   0  0  0  0  0  0  0  0  0  0  0  0
   58.7720   28.1860   47.1010 C   0  0  0  0  0  0  0  0  0  0  0  0
   58.9370   29.6550   46.6420 C   0  0  0  0  0  0  0  0  0  0  0  0
   58.2030   29.9160   45.3970 N   0  0  0  0  0  0  0  0  0  0  0  0
   57.4570   31.1320   45.2270 C   0  0  0  0  0  0  0  0  0  0  0  0
   56.2530   31.0620   44.8610 O   0  0  0  0  0  0  0  0  0  0  0  0
   58.0850   32.4550   45.4490 C   0  0  0  0  0  0  0  0  0  0  0  0
   58.2380   33.3550   44.3810 C   0  0  0  0  0  0  0  0  0  0  0  0
   58.8550   34.5920   44.5840 C   0  0  0  0  0  0  0  0  0  0  0  0
   59.3230   34.9450   45.8510 C   0  0  0  0  0  0  0  0  0  0  0  0
   59.1680   34.0670   46.9320 C   0  0  0  0  0  0  0  0  0  0  0  0
   59.6870   34.4330   48.2220 N   0  0  0  0  0  0  0  0  0  0  0  0
   60.5370   33.5870   49.0080 C   0  0  0  0  0  0  0  0  0  0  0  0
   60.5890   32.3460   48.7870 O   0  0  0  0  0  0  0  0  0  0  0  0
   61.2910   34.1450   50.0380 O   0  0  0  0  0  0  0  0  0  0  0  0
   62.6050   34.5080   49.8390 N   0  0  0  0  0  0  0  0  0  0  0  0
   63.4580   33.7120   49.3200 N   0  0  0  0  0  0  0  0  0  0  0  0
   63.7500   33.8310   47.8870 C   0  0  0  0  0  0  0  0  0  0  0  0
   63.3710   32.5490   47.1510 C   0  0  0  0  0  0  0  0  0  0  0  0
   64.1320   32.6890   50.1320 C   0  0  0  0  0  0  0  0  0  0  0  0
   65.6450   32.7910   49.9720 C   0  0  0  0  0  0  0  0  0  0  0  0
   58.5740   32.8110   46.7180 C   0  0  0  0  0  0  0  0  0  0  0  0
   58.3310   28.9990   44.2580 C   0  0  0  0  0  0  0  0  0  0  0  0
   58.9860   27.6850   44.6980 C   0  0  0  0  0  0  0  0  0  0  0  0
   56.7726   25.6107   47.7318 H   0  0  0  0  0  0  0  0  0  0  0  0
   55.7642   25.1382   46.3224 H   0  0  0  0  0  0  0  0  0  0  0  0
   57.5266   24.7912   46.3224 H   0  0  0  0  0  0  0  0  0  0  0  0
   56.6749   26.8358   44.9450 H   0  0  0  0  0  0  0  0  0  0  0  0
   56.4777   27.6284   46.5689 H   0  0  0  0  0  0  0  0  0  0  0  0
   57.9538   28.1457   47.8351 H   0  0  0  0  0  0  0  0  0  0  0  0
   59.7421   27.8790   47.5190 H   0  0  0  0  0  0  0  0  0  0  0  0
   58.5534   30.3206   47.4293 H   0  0  0  0  0  0  0  0  0  0  0  0
   60.0054   29.8409   46.4580 H   0  0  0  0  0  0  0  0  0  0  0  0
   57.8703   33.0844   43.3802 H   0  0  0  0  0  0  0  0  0  0  0  0
   58.9725   35.2904   43.7423 H   0  0  0  0  0  0  0  0  0  0  0  0
   59.8157   35.9169   46.0014 H   0  0  0  0  0  0  0  0  0  0  0  0
   59.4040   35.3500   48.6330 H   0  0  0  0  0  0  0  0  0  0  0  0
   63.1746   34.6705   47.4697 H   0  0  0  0  0  0  0  0  0  0  0  0
   64.8284   34.0066   47.7592 H   0  0  0  0  0  0  0  0  0  0  0  0
   63.1381   31.7613   47.8827 H   0  0  0  0  0  0  0  0  0  0  0  0
   62.4895   32.7354   46.5199 H   0  0  0  0  0  0  0  0  0  0  0  0
   64.2121   32.2262   46.5199 H   0  0  0  0  0  0  0  0  0  0  0  0
   63.8692   32.8357   51.1900 H   0  0  0  0  0  0  0  0  0  0  0  0
   63.8050   31.6945   49.7942 H   0  0  0  0  0  0  0  0  0  0  0  0
   66.1174   32.8228   50.9649 H   0  0  0  0  0  0  0  0  0  0  0  0
   66.0149   31.9158   49.4178 H   0  0  0  0  0  0  0  0  0  0  0  0
   65.8941   33.7080   49.4178 H   0  0  0  0  0  0  0  0  0  0  0  0
   58.4909   32.0991   47.5525 H   0  0  0  0  0  0  0  0  0  0  0  0
   57.3317   28.7866   43.8501 H   0  0  0  0  0  0  0  0  0  0  0  0
   58.9614   29.4712   43.4901 H   0  0  0  0  0  0  0  0  0  0  0  0
   58.7832   26.9137   43.9403 H   0  0  0  0  0  0  0  0  0  0  0  0
   60.0673   27.8577   44.8029 H   0  0  0  0  0  0  0  0  0  0  0  0
  1  2  1  0
  2  3  1  0
  3  4  1  0
  4  5  1  0
  5  6  1  0
  6  7  1  0
  7  8  2  0
  7  9  1  0
  9 10  2  0
 10 11  1  0
 11 12  2  0
 12 13  1  0
 13 14  1  0
 14 15  1  0
 15 16  2  0
 15 17  1  0
 17 18  1  0
 18 19  2  3
 19 20  1  0
 20 21  1  0
 19 22  1  0
 22 23  1  0
 13 24  2  0
  6 25  1  0
 25 26  1  0
 26  3  1  0
 24  9  1  0
  1 27  1  0
  1 28  1  0
  1 29  1  0
  2 30  1  0
  2 31  1  0
  4 32  1  0
  4 33  1  0
  5 34  1  0
  5 35  1  0
 10 36  1  0
 11 37  1  0
 12 38  1  0
 14 39  1  0
 20 40  1  0
 20 41  1  0
 21 42  1  0
 21 43  1  0
 21 44  1  0
 22 45  1  0
 22 46  1  0
 23 47  1  0
 23 48  1  0
 23 49  1  0
 24 50  1  0
 25 51  1  0
 25 52  1  0
 26 53  1  0
 26 54  1  0
M  CHG  1  19   1
M  END
>  <UniqueID>  (28) 
24

>  <SMILES>  (28) 
CCN1CCN(C(=O)c2cccc(NC(=O)ON=[N+](CC)CC)c2)CC1

>  <Energy>  (28) 
59.297637191023085

>  <Genealogy>  (28) 
CCN1CCN(C(=O)c2cccc(NC(=O)ON=[N+](CC)CC)c2)CC1 (3D coordinates assigned)
CCN1CCN(C(=O)c2cccc(NC(=O)ON=[N+](CC)CC)c2)CC1 (nonaromatic ring conformer: 59.297637191023085 kcal/mol)

>  <smiles>  (28) 
CCN1CCN(C(=O)c2cccc(NC(=O)ON=[N+](CC)CC)c2)CC1

>  <score_type>  (28) 
oracle

>  <origin>  (28) 
adg

>  <m_score__min__energy>  (28) 
-6.8099999999999996

>  <m_primary>  (28) 
energy

$$$$
28:0
     RDKit          3D

 54 57  0  0  0  0  0  0  0  0999 V2000
   53.9570   24.3540   45.4170 O   0  0  0  0  0  0  0  0  0  0  0  0
   55.0770   24.9320   45.3860 C   0  0  0  0  0  0  0  0  0  0  0  0
   56.2200   24.2930   44.6450 C   0  0  0  0  0  0  0  0  0  0  0  0
   56.5350   22.9270   45.2000 C   0  0  0  0  0  0  0  0  0  0  0  0
   56.6280   21.8300   44.3270 C   0  0  0  0  0  0  0  0  0  0  0  0
   56.9150   20.5560   44.8200 C   0  0  0  0  0  0  0  0  0  0  0  0
   57.1030   20.3610   46.1900 C   0  0  0  0  0  0  0  0  0  0  0  0
   56.9990   21.4400   47.0710 C   0  0  0  0  0  0  0  0  0  0  0  0
   56.7110   22.7250   46.5850 C   0  0  0  0  0  0  0  0  0  0  0  0
   56.6030   23.7950   47.4740 O   0  0  0  0  0  0  0  0  0  0  0  0
   55.2110   26.2270   45.9930 N   0  0  0  0  0  0  0  0  0  0  0  0
   56.2510   27.0140   45.9620 C   0  0  0  0  0  0  0  0  0  0  0  0
   56.2660   28.2270   45.2430 C   0  0  0  0  0  0  0  0  0  0  0  0
   57.4020   29.0500   45.2780 C   0  0  0  0  0  0  0  0  0  0  0  0
   57.4200   30.3500   44.5640 C   0  0  0  0  0  0  0  0  0  0  0  0
   57.5830   30.3670   43.3150 O   0  0  0  0  0  0  0  0  0  0  0  0
   57.2120   31.5950   45.2480 N   0  0  0  0  0  0  0  0  0  0  0  0
   58.2190   32.5870   45.5020 C   0  0  0  0  0  0  0  0  0  0  0  0
   57.9740   33.9160   45.1390 C   0  0  0  0  0  0  0  0  0  0  0  0
   58.9260   34.9040   45.4020 C   0  0  0  0  0  0  0  0  0  0  0  0
   60.1330   34.5700   46.0200 C   0  0  0  0  0  0  0  0  0  0  0  0
   60.4060   33.2370   46.3700 C   0  0  0  0  0  0  0  0  0  0  0  0
   61.6390   32.8820   47.0240 N   0  0  0  0  0  0  0  0  0  0  0  0
   61.7950   31.5670   47.6550 C   0  0  0  0  0  0  0  0  0  0  0  0
   62.8050   31.6650   48.8030 C   0  0  0  0  0  0  0  0  0  0  0  0
   64.0150   32.2530   48.3620 O   0  0  0  0  0  0  0  0  0  0  0  0
   63.7830   33.5940   47.9710 C   0  0  0  0  0  0  0  0  0  0  0  0
   62.8590   33.6490   46.7520 C   0  0  0  0  0  0  0  0  0  0  0  0
   59.4500   32.2460   46.0860 C   0  0  0  0  0  0  0  0  0  0  0  0
   58.5330   28.6150   45.9830 C   0  0  0  0  0  0  0  0  0  0  0  0
   58.5000   27.3890   46.6500 C   0  0  0  0  0  0  0  0  0  0  0  0
   57.3740   26.6280   46.6260 N   0  0  0  0  0  0  0  0  0  0  0  0
   55.9491   24.1951   43.5834 H   0  0  0  0  0  0  0  0  0  0  0  0
   57.1095   24.9295   44.7616 H   0  0  0  0  0  0  0  0  0  0  0  0
   56.4736   21.9761   43.2477 H   0  0  0  0  0  0  0  0  0  0  0  0
   56.9932   19.7043   44.1283 H   0  0  0  0  0  0  0  0  0  0  0  0
   57.3332   19.3569   46.5757 H   0  0  0  0  0  0  0  0  0  0  0  0
   57.1434   21.2821   48.1500 H   0  0  0  0  0  0  0  0  0  0  0  0
   56.4230   24.7370   47.1500 H   0  0  0  0  0  0  0  0  0  0  0  0
   55.3868   28.5282   44.6545 H   0  0  0  0  0  0  0  0  0  0  0  0
   57.0284   34.1837   44.6448 H   0  0  0  0  0  0  0  0  0  0  0  0
   58.7243   35.9483   45.1214 H   0  0  0  0  0  0  0  0  0  0  0  0
   60.8737   35.3546   46.2338 H   0  0  0  0  0  0  0  0  0  0  0  0
   60.8240   31.2324   48.0491 H   0  0  0  0  0  0  0  0  0  0  0  0
   62.1582   30.8445   46.9093 H   0  0  0  0  0  0  0  0  0  0  0  0
   62.3773   32.2813   49.6075 H   0  0  0  0  0  0  0  0  0  0  0  0
   63.0202   30.6505   49.1696 H   0  0  0  0  0  0  0  0  0  0  0  0
   63.3141   34.1374   48.8046 H   0  0  0  0  0  0  0  0  0  0  0  0
   64.7451   34.0574   47.7072 H   0  0  0  0  0  0  0  0  0  0  0  0
   62.5939   34.6954   46.5405 H   0  0  0  0  0  0  0  0  0  0  0  0
   63.3757   33.2169   45.8824 H   0  0  0  0  0  0  0  0  0  0  0  0
   59.6681   31.1943   46.3233 H   0  0  0  0  0  0  0  0  0  0  0  0
   59.4407   29.2358   46.0105 H   0  0  0  0  0  0  0  0  0  0  0  0
   59.3877   27.0379   47.1965 H   0  0  0  0  0  0  0  0  0  0  0  0
  1  2  2  0
  2  3  1  0
  3  4  1  0
  4  5  2  0
  5  6  1  0
  6  7  2  0
  7  8  1  0
  8  9  2  0
  9 10  1  0
  2 11  1  0
 11 12  2  3
 12 13  1  0
 13 14  2  0
 14 15  1  0
 15 16  2  0
 15 17  1  0
 17 18  1  0
 18 19  2  0
 19 20  1  0
 20 21  2  0
 21 22  1  0
 22 23  1  0
 23 24  1  0
 24 25  1  0
 25 26  1  0
 26 27  1  0
 27 28  1  0
 22 29  2  0
 14 30  1  0
 30 31  2  0
 31 32  1  0
  9  4  1  0
 32 12  1  0
 29 18  1  0
 28 23  1  0
  3 33  1  0
  3 34  1  0
  5 35  1  0
  6 36  1  0
  7 37  1  0
  8 38  1  0
 10 39  1  0
 13 40  1  0
 19 41  1  0
 20 42  1  0
 21 43  1  0
 24 44  1  0
 24 45  1  0
 25 46  1  0
 25 47  1  0
 27 48  1  0
 27 49  1  0
 28 50  1  0
 28 51  1  0
 29 52  1  0
 30 53  1  0
 31 54  1  0
M  CHG  2  17  -1  32  -1
M  END
>  <UniqueID>  (29) 
25

>  <SMILES>  (29) 
O=C(Cc1ccccc1O)N=c1cc(C(=O)[N-]c2cccc(N3CCOCC3)c2)cc[n-]1

>  <Energy>  (29) 
72.99964506536571

>  <Genealogy>  (29) 
O=C(Cc1ccccc1O)N=c1cc(C(=O)[N-]c2cccc(N3CCOCC3)c2)cc[n-]1 (protonated)
O=C(Cc1ccccc1O)N=c1cc(C(=O)[N-]c2cccc(N3CCOCC3)c2)cc[n-]1 (3D coordinates assigned)
O=C(Cc1ccccc1O)N=c1cc(C(=O)[N-]c2cccc(N3CCOCC3)c2)cc[n-]1 (nonaromatic ring conformer: 72.99964506536571 kcal/mol)

>  <smiles>  (29) 
O=C(Cc1ccccc1O)N=c1cc(C(=O)Nc2cccc(N3CCOCC3)c2)cc[nH]1

>  <score_type>  (29) 
oracle

>  <origin>  (29) 
adg

>  <m_score__min__energy>  (29) 
-12.140000000000001

>  <m_primary>  (29) 
energy

$$$$
29:0
     RDKit          3D

 48 51  0  0  0  0  0  0  0  0999 V2000
   60.9000   27.0830   48.4510 C   0  0  0  0  0  0  0  0  0  0  0  0
   60.3550   28.2830   47.7300 C   0  0  0  0  0  0  0  0  0  0  0  0
   61.1270   29.4020   47.7240 N   0  0  0  0  0  0  0  0  0  0  0  0
   60.7390   30.5400   47.1020 C   0  0  0  0  0  0  0  0  0  0  0  0
   61.5840   31.6990   47.1190 N   0  0  0  0  0  0  0  0  0  0  0  0
   61.1210   33.0340   46.7850 C   0  0  0  0  0  0  0  0  0  0  0  0
   62.2910   33.9600   47.0890 C   0  0  0  0  0  0  0  0  0  0  0  0
   63.5210   33.0610   47.2020 C   0  0  0  0  0  0  0  0  0  0  0  0
   62.9920   31.6580   47.4710 C   0  0  0  0  0  0  0  0  0  0  0  0
   59.5460   30.5780   46.4620 N   0  0  0  0  0  0  0  0  0  0  0  0
   58.7100   29.5030   46.4220 C   0  0  0  0  0  0  0  0  0  0  0  0
   59.0980   28.2990   47.0610 C   0  0  0  0  0  0  0  0  0  0  0  0
   58.2190   27.1930   46.9950 C   0  0  0  0  0  0  0  0  0  0  0  0
   58.4990   26.1040   47.5670 O   0  0  0  0  0  0  0  0  0  0  0  0
   57.0070   27.2990   46.2930 C   0  0  0  0  0  0  0  0  0  0  0  0
   56.0910   26.1370   46.2050 C   0  0  0  0  0  0  0  0  0  0  0  0
   54.8610   26.3380   46.0170 O   0  0  0  0  0  0  0  0  0  0  0  0
   56.5980   24.7980   46.3440 N   0  0  0  0  0  0  0  0  0  0  0  0
   55.7950   23.6140   46.2000 C   0  0  0  0  0  0  0  0  0  0  0  0
   56.2000   22.5480   45.3730 C   0  0  0  0  0  0  0  0  0  0  0  0
   55.4120   21.3970   45.2710 C   0  0  0  0  0  0  0  0  0  0  0  0
   54.2250   21.2920   46.0030 C   0  0  0  0  0  0  0  0  0  0  0  0
   53.4660   20.1740   45.9050 F   0  0  0  0  0  0  0  0  0  0  0  0
   53.8300   22.3350   46.8440 C   0  0  0  0  0  0  0  0  0  0  0  0
   54.6150   23.4870   46.9490 C   0  0  0  0  0  0  0  0  0  0  0  0
   56.6860   28.5070   45.6550 C   0  0  0  0  0  0  0  0  0  0  0  0
   55.5260   28.5830   44.8840 O   0  0  0  0  0  0  0  0  0  0  0  0
   57.5110   29.5950   45.7600 N   0  0  0  0  0  0  0  0  0  0  0  0
   57.1420   30.8500   45.0790 C   0  0  0  0  0  0  0  0  0  0  0  0
   60.8272   27.2433   49.5368 H   0  0  0  0  0  0  0  0  0  0  0  0
   60.3182   26.1921   48.1721 H   0  0  0  0  0  0  0  0  0  0  0  0
   61.9537   26.9349   48.1721 H   0  0  0  0  0  0  0  0  0  0  0  0
   60.8518   33.0920   45.7200 H   0  0  0  0  0  0  0  0  0  0  0  0
   60.2237   33.3094   47.3585 H   0  0  0  0  0  0  0  0  0  0  0  0
   62.4234   34.6884   46.2754 H   0  0  0  0  0  0  0  0  0  0  0  0
   62.1230   34.5312   48.0139 H   0  0  0  0  0  0  0  0  0  0  0  0
   64.0955   33.0796   46.2641 H   0  0  0  0  0  0  0  0  0  0  0  0
   64.1945   33.3984   48.0036 H   0  0  0  0  0  0  0  0  0  0  0  0
   63.5222   30.9217   46.8492 H   0  0  0  0  0  0  0  0  0  0  0  0
   63.1416   31.3600   48.5192 H   0  0  0  0  0  0  0  0  0  0  0  0
   57.5970   24.6700   46.6220 H   0  0  0  0  0  0  0  0  0  0  0  0
   57.1394   22.6211   44.8054 H   0  0  0  0  0  0  0  0  0  0  0  0
   55.7265   20.5728   44.6138 H   0  0  0  0  0  0  0  0  0  0  0  0
   52.8997   22.2498   47.4247 H   0  0  0  0  0  0  0  0  0  0  0  0
   54.3057   24.2993   47.6232 H   0  0  0  0  0  0  0  0  0  0  0  0
   56.9152   31.6215   45.8296 H   0  0  0  0  0  0  0  0  0  0  0  0
   57.9795   31.1857   44.4497 H   0  0  0  0  0  0  0  0  0  0  0  0
   56.2561   30.6790   44.4497 H   0  0  0  0  0  0  0  0  0  0  0  0
  1  2  1  0
  2  3  2  0
  3  4  1  0
  4  5  1  0
  5  6  1  0
  6  7  1  0
  7  8  1  0
  8  9  1  0
  4 10  2  0
 10 11  1  0
 11 12  2  0
 12 13  1  0
 13 14  2  0
 13 15  1  0
 15 16  1  0
 16 17  2  0
 16 18  1  0
 18 19  1  0
 19 20  2  0
 20 21  1  0
 21 22  2  0
 22 23  1  0
 22 24  1  0
 24 25  2  0
 15 26  2  0
 26 27  1  0
 26 28  1  0
 28 29  1  0
 12  2  1  0
 25 19  1  0
  9  5  1  0
 28 11  1  0
  1 30  1  0
  1 31  1  0
  1 32  1  0
  6 33  1  0
  6 34  1  0
  7 35  1  0
  7 36  1  0
  8 37  1  0
  8 38  1  0
  9 39  1  0
  9 40  1  0
 18 41  1  0
 20 42  1  0
 21 43  1  0
 24 44  1  0
 25 45  1  0
 29 46  1  0
 29 47  1  0
 29 48  1  0
M  CHG  1  27  -1
M  END
>  <UniqueID>  (30) 
26

>  <SMILES>  (30) 
Cc1nc(N2CCCC2)nc2c1c(=O)c(C(=O)Nc1ccc(F)cc1)c([O-])n2C

>  <Energy>  (30) 
71.52452263796556

>  <Genealogy>  (30) 
Cc1nc(N2CCCC2)nc2c1c(=O)c(C(=O)Nc1ccc(F)cc1)c([O-])n2C (protonated)
Cc1nc(N2CCCC2)nc2c1c(=O)c(C(=O)Nc1ccc(F)cc1)c([O-])n2C (3D coordinates assigned)
Cc1nc(N2CCCC2)nc2c1c(=O)c(C(=O)Nc1ccc(F)cc1)c([O-])n2C (nonaromatic ring conformer: 71.52452263796556 kcal/mol)

>  <smiles>  (30) 
Cc1nc(N2CCCC2)nc2c1c(=O)c(C(=O)Nc1ccc(F)cc1)c(O)n2C

>  <score_type>  (30) 
oracle

>  <origin>  (30) 
adg

>  <m_score__min__energy>  (30) 
-9.9800000000000004

>  <m_primary>  (30) 
energy

$$$$
30:0
     RDKit          3D

 68 71  0  0  0  0  0  0  0  0999 V2000
   60.5590   26.7340   47.9250 C   0  0  0  0  0  0  0  0  0  0  0  0
   59.7340   27.1300   46.7360 C   0  0  0  0  0  0  0  0  0  0  0  0
   58.3420   26.9610   46.7530 C   0  0  0  0  0  0  0  0  0  0  0  0
   57.5700   27.3500   45.6560 C   0  0  0  0  0  0  0  0  0  0  0  0
   58.1730   27.9260   44.5310 C   0  0  0  0  0  0  0  0  0  0  0  0
   57.3570   28.2890   43.4480 O   0  0  0  0  0  0  0  0  0  0  0  0
   56.8960   29.6150   43.1980 C   0  0  0  0  0  0  0  0  0  0  0  0
   56.0760   30.0930   44.3520 C   0  0  0  0  0  0  0  0  0  0  0  0
   55.2230   29.3260   44.8730 O   0  0  0  0  0  0  0  0  0  0  0  0
   56.2600   31.4280   44.8380 N   0  0  0  0  0  0  0  0  0  0  0  0
   57.4380   31.9600   45.4630 C   0  0  0  0  0  0  0  0  0  0  0  0
   57.6150   33.3390   45.6720 C   0  0  0  0  0  0  0  0  0  0  0  0
   58.7980   33.8170   46.2380 C   0  0  0  0  0  0  0  0  0  0  0  0
   59.8190   32.9300   46.5860 C   0  0  0  0  0  0  0  0  0  0  0  0
   59.6700   31.5520   46.3650 C   0  0  0  0  0  0  0  0  0  0  0  0
   60.7820   30.5970   46.7410 C   0  0  0  0  0  0  0  0  0  0  0  0
   61.1870   30.7820   48.1590 N   0  0  0  0  0  0  0  0  0  0  0  0
   60.4790   30.0940   49.1210 C   0  0  0  0  0  0  0  0  0  0  0  0
   59.5080   29.3600   48.7780 O   0  0  0  0  0  0  0  0  0  0  0  0
   60.7990   30.1970   50.4520 N   0  0  0  0  0  0  0  0  0  0  0  0
   60.0000   29.4780   51.4720 C   0  0  0  0  0  0  0  0  0  0  0  0
   59.1920   30.4470   52.3490 C   0  0  0  0  0  0  0  0  0  0  0  0
   57.8830   30.8550   51.7040 C   0  0  0  0  0  0  0  0  0  0  0  0
   56.9940   30.0190   51.6120 O   0  0  0  0  0  0  0  0  0  0  0  0
   57.6720   32.1780   51.1440 N   0  0  0  0  0  0  0  0  0  0  0  0
   58.3260   32.3040   49.8320 C   0  0  0  0  0  0  0  0  0  0  0  0
   58.1270   33.2300   52.0670 C   0  0  0  0  0  0  0  0  0  0  0  0
   61.8450   30.9820   50.8500 C   0  0  0  0  0  0  0  0  0  0  0  0
   62.1350   31.0760   52.0760 O   0  0  0  0  0  0  0  0  0  0  0  0
   62.5980   31.6860   49.9040 C   0  0  0  0  0  0  0  0  0  0  0  0
   63.6840   32.4920   50.3050 C   0  0  0  0  0  0  0  0  0  0  0  0
   64.4240   33.1990   49.3640 C   0  0  0  0  0  0  0  0  0  0  0  0
   64.0920   33.1190   48.0170 C   0  0  0  0  0  0  0  0  0  0  0  0
   63.0190   32.3280   47.6010 C   0  0  0  0  0  0  0  0  0  0  0  0
   62.2500   31.5840   48.5340 C   0  0  0  0  0  0  0  0  0  0  0  0
   58.4750   31.0770   45.7980 C   0  0  0  0  0  0  0  0  0  0  0  0
   59.5680   28.1190   44.5230 C   0  0  0  0  0  0  0  0  0  0  0  0
   60.3400   27.7280   45.6200 C   0  0  0  0  0  0  0  0  0  0  0  0
   60.0197   26.9929   48.8481 H   0  0  0  0  0  0  0  0  0  0  0  0
   60.7424   25.6497   47.8993 H   0  0  0  0  0  0  0  0  0  0  0  0
   61.5197   27.2691   47.8993 H   0  0  0  0  0  0  0  0  0  0  0  0
   57.8554   26.5196   47.6353 H   0  0  0  0  0  0  0  0  0  0  0  0
   56.4801   27.2028   45.6759 H   0  0  0  0  0  0  0  0  0  0  0  0
   57.7599   30.2824   43.0629 H   0  0  0  0  0  0  0  0  0  0  0  0
   56.2782   29.6187   42.2879 H   0  0  0  0  0  0  0  0  0  0  0  0
   56.8189   34.0433   45.3887 H   0  0  0  0  0  0  0  0  0  0  0  0
   58.9265   34.8958   46.4105 H   0  0  0  0  0  0  0  0  0  0  0  0
   60.7462   33.3139   47.0364 H   0  0  0  0  0  0  0  0  0  0  0  0
   60.4322   29.5638   46.5988 H   0  0  0  0  0  0  0  0  0  0  0  0
   61.6514   30.8016   46.0989 H   0  0  0  0  0  0  0  0  0  0  0  0
   59.3049   28.7940   50.9630 H   0  0  0  0  0  0  0  0  0  0  0  0
   60.6932   28.9243   52.1223 H   0  0  0  0  0  0  0  0  0  0  0  0
   58.9749   29.9568   53.3095 H   0  0  0  0  0  0  0  0  0  0  0  0
   59.7953   31.3563   52.4879 H   0  0  0  0  0  0  0  0  0  0  0  0
   56.6440   32.3190   50.9960 H   0  0  0  0  0  0  0  0  0  0  0  0
   59.3970   32.5103   49.9745 H   0  0  0  0  0  0  0  0  0  0  0  0
   58.2049   31.3660   49.2703 H   0  0  0  0  0  0  0  0  0  0  0  0
   57.8650   33.1299   49.2703 H   0  0  0  0  0  0  0  0  0  0  0  0
   57.9821   32.8951   53.1047 H   0  0  0  0  0  0  0  0  0  0  0  0
   59.1938   33.4341   51.8931 H   0  0  0  0  0  0  0  0  0  0  0  0
   57.5451   34.1472   51.8931 H   0  0  0  0  0  0  0  0  0  0  0  0
   63.9475   32.5617   51.3707 H   0  0  0  0  0  0  0  0  0  0  0  0
   65.2720   33.8215   49.6856 H   0  0  0  0  0  0  0  0  0  0  0  0
   64.6773   33.6815   47.2747 H   0  0  0  0  0  0  0  0  0  0  0  0
   62.7652   32.2806   46.5317 H   0  0  0  0  0  0  0  0  0  0  0  0
   58.3514   29.9994   45.6147 H   0  0  0  0  0  0  0  0  0  0  0  0
   60.0520   28.5796   43.6492 H   0  0  0  0  0  0  0  0  0  0  0  0
   61.4280   27.8896   45.6090 H   0  0  0  0  0  0  0  0  0  0  0  0
  1  2  1  0
  2  3  2  0
  3  4  1  0
  4  5  2  0
  5  6  1  0
  6  7  1  0
  7  8  1  0
  8  9  2  0
  8 10  1  0
 10 11  1  0
 11 12  2  0
 12 13  1  0
 13 14  2  0
 14 15  1  0
 15 16  1  0
 16 17  1  0
 17 18  1  0
 18 19  2  0
 18 20  1  0
 20 21  1  0
 21 22  1  0
 22 23  1  0
 23 24  2  0
 23 25  1  0
 25 26  1  0
 25 27  1  0
 20 28  1  0
 28 29  2  0
 28 30  1  0
 30 31  2  0
 31 32  1  0
 32 33  2  0
 33 34  1  0
 34 35  2  0
 15 36  2  0
  5 37  1  0
 37 38  2  0
 38  2  1  0
 36 11  1  0
 35 17  1  0
 35 30  1  0
  1 39  1  0
  1 40  1  0
  1 41  1  0
  3 42  1  0
  4 43  1  0
  7 44  1  0
  7 45  1  0
 12 46  1  0
 13 47  1  0
 14 48  1  0
 16 49  1  0
 16 50  1  0
 21 51  1  0
 21 52  1  0
 22 53  1  0
 22 54  1  0
 25 55  1  0
 26 56  1  0
 26 57  1  0
 26 58  1  0
 27 59  1  0
 27 60  1  0
 27 61  1  0
 31 62  1  0
 32 63  1  0
 33 64  1  0
 34 65  1  0
 36 66  1  0
 37 67  1  0
 38 68  1  0
M  CHG  2  10  -1  25   1
M  END
>  <UniqueID>  (31) 
27

>  <SMILES>  (31) 
Cc1ccc(OCC(=O)[N-]c2cccc(Cn3c(=O)n(CCC(=O)[NH+](C)C)c(=O)c4ccccc43)c2)cc1

>  <Energy>  (31) 
88.67111481260852

>  <Genealogy>  (31) 
Cc1ccc(OCC(=O)[N-]c2cccc(Cn3c(=O)n(CCC(=O)[NH+](C)C)c(=O)c4ccccc43)c2)cc1 (protonated)
Cc1ccc(OCC(=O)[N-]c2cccc(Cn3c(=O)n(CCC(=O)[NH+](C)C)c(=O)c4ccccc43)c2)cc1 (3D coordinates assigned)
Cc1ccc(OCC(=O)[N-]c2cccc(Cn3c(=O)n(CCC(=O)[NH+](C)C)c(=O)c4ccccc43)c2)cc1 (optimized conformer: 88.67111481260852 kcal/mol)

>  <smiles>  (31) 
Cc1ccc(OCC(=O)Nc2cccc(Cn3c(=O)n(CCC(=O)N(C)C)c(=O)c4ccccc43)c2)cc1

>  <score_type>  (31) 
oracle

>  <origin>  (31) 
adg

>  <m_score__min__energy>  (31) 
-10.32

>  <m_primary>  (31) 
energy

$$$$
31:0
     RDKit          3D

 52 55  0  0  0  0  0  0  0  0999 V2000
   61.5696   28.4271   49.7475 H   0  0  0  0  0  0  0  0  0  0  0  0
   60.6080   28.8080   49.3730 C   0  0  0  0  0  0  0  0  0  0  0  0
   60.4250   28.8060   48.0410 C   0  0  0  0  0  0  0  0  0  0  0  0
   60.0480   27.5350   47.3800 C   0  0  0  0  0  0  0  0  0  0  0  0
   60.9420   26.6860   47.1360 O   0  0  0  0  0  0  0  0  0  0  0  0
   58.6520   27.2480   46.9800 C   0  0  0  0  0  0  0  0  0  0  0  0
   57.9730   28.1040   46.0970 C   0  0  0  0  0  0  0  0  0  0  0  0
   58.4660   29.0211   45.7421 H   0  0  0  0  0  0  0  0  0  0  0  0
   56.6780   27.8040   45.6640 C   0  0  0  0  0  0  0  0  0  0  0  0
   56.1570   28.4837   44.9737 H   0  0  0  0  0  0  0  0  0  0  0  0
   56.0490   26.6450   46.1070 C   0  0  0  0  0  0  0  0  0  0  0  0
   54.7670   26.3470   45.6680 O   0  0  0  0  0  0  0  0  0  0  0  0
   56.7120   25.7870   46.9860 C   0  0  0  0  0  0  0  0  0  0  0  0
   56.2142   24.8714   47.3379 H   0  0  0  0  0  0  0  0  0  0  0  0
   58.0100   26.0880   47.4220 C   0  0  0  0  0  0  0  0  0  0  0  0
   58.5258   25.4076   48.1156 H   0  0  0  0  0  0  0  0  0  0  0  0
   60.6800   29.9790   47.1630 C   0  0  0  0  0  0  0  0  0  0  0  0
   60.5740   29.8110   45.9210 O   0  0  0  0  0  0  0  0  0  0  0  0
   60.9560   31.3050   47.6750 N   0  0  0  0  0  0  0  0  0  0  0  0
   60.5560   31.7310   49.0230 C   0  0  0  0  0  0  0  0  0  0  0  0
   60.0094   30.9156   49.5194 H   0  0  0  0  0  0  0  0  0  0  0  0
   61.4508   31.9804   49.6122 H   0  0  0  0  0  0  0  0  0  0  0  0
   59.6520   32.9620   48.9150 C   0  0  0  0  0  0  0  0  0  0  0  0
   58.6850   32.6515   48.4925 H   0  0  0  0  0  0  0  0  0  0  0  0
   59.5412   33.3802   49.9264 H   0  0  0  0  0  0  0  0  0  0  0  0
   60.2260   34.0260   48.0530 N   0  0  0  0  0  0  0  0  0  0  0  0
   59.2300   34.7600   47.2440 C   0  0  0  0  0  0  0  0  0  0  0  0
   58.4098   35.0770   47.9049 H   0  0  0  0  0  0  0  0  0  0  0  0
   59.7505   35.6143   46.7865 H   0  0  0  0  0  0  0  0  0  0  0  0
   58.6480   33.9410   46.1200 C   0  0  0  0  0  0  0  0  0  0  0  0
   57.7750   32.5050   46.2870 S   0  0  0  0  0  0  0  0  0  0  0  0
   57.5980   32.2160   44.6460 C   0  0  0  0  0  0  0  0  0  0  0  0
   56.6900   30.7170   43.8850 Br  0  0  0  0  0  0  0  0  0  0  0  0
   58.2160   33.2420   43.9340 C   0  0  0  0  0  0  0  0  0  0  0  0
   58.2396   33.2882   42.8352 H   0  0  0  0  0  0  0  0  0  0  0  0
   58.8050   34.2100   44.7610 C   0  0  0  0  0  0  0  0  0  0  0  0
   59.3371   35.0924   44.3761 H   0  0  0  0  0  0  0  0  0  0  0  0
   61.4980   33.7220   47.3660 C   0  0  0  0  0  0  0  0  0  0  0  0
   61.6419   34.4504   46.5544 H   0  0  0  0  0  0  0  0  0  0  0  0
   62.3014   33.7816   48.1150 H   0  0  0  0  0  0  0  0  0  0  0  0
   61.5280   32.3050   46.7660 C   0  0  0  0  0  0  0  0  0  0  0  0
   60.9500   32.3045   45.8301 H   0  0  0  0  0  0  0  0  0  0  0  0
   62.5797   32.0364   46.5877 H   0  0  0  0  0  0  0  0  0  0  0  0
   59.6310   29.2770   50.3790 C   0  0  0  0  0  0  0  0  0  0  0  0
   59.6700   29.0520   51.7430 C   0  0  0  0  0  0  0  0  0  0  0  0
   60.4740   28.5556   52.3062 H   0  0  0  0  0  0  0  0  0  0  0  0
   58.5040   29.5720   52.2560 C   0  0  0  0  0  0  0  0  0  0  0  0
   58.1940   29.5781   53.3114 H   0  0  0  0  0  0  0  0  0  0  0  0
   57.8020   30.0830   51.1880 C   0  0  0  0  0  0  0  0  0  0  0  0
   56.8201   30.5738   51.2581 H   0  0  0  0  0  0  0  0  0  0  0  0
   58.4860   29.8970   50.0500 N   0  0  0  0  0  0  0  0  0  0  0  0
   58.1790   30.1690   49.0940 H   0  0  0  0  0  0  0  0  0  0  0  0
  1  2  1  0
  2  3  2  0
  3  4  1  0
  4  5  2  0
  4  6  1  0
  6  7  2  0
  7  8  1  0
  7  9  1  0
  9 10  1  0
  9 11  2  0
 11 12  1  0
 11 13  1  0
 13 14  1  0
 13 15  2  0
 15 16  1  0
  3 17  1  0
 17 18  2  0
 17 19  1  0
 19 20  1  0
 20 21  1  0
 20 22  1  0
 20 23  1  0
 23 24  1  0
 23 25  1  0
 23 26  1  0
 26 27  1  0
 27 28  1  0
 27 29  1  0
 27 30  1  0
 30 31  1  0
 31 32  1  0
 32 33  1  0
 32 34  2  0
 34 35  1  0
 34 36  1  0
 36 37  1  0
 26 38  1  0
 38 39  1  0
 38 40  1  0
 38 41  1  0
 41 42  1  0
 41 43  1  0
  2 44  1  0
 44 45  2  0
 45 46  1  0
 45 47  1  0
 47 48  1  0
 47 49  2  0
 49 50  1  0
 49 51  1  0
 51 52  1  0
 15  6  1  0
 41 19  1  0
 51 44  1  0
 36 30  2  0
M  CHG  1  12  -1
M  END
>  <UniqueID>  (32) 
28

>  <SMILES>  (32) 
O=C(/C(=C/c1ccc[nH]1)C(=O)N1CCN(Cc2ccc(Br)s2)CC1)c1ccc([O-])cc1

>  <Energy>  (32) 
129.3948915955951

>  <Genealogy>  (32) 
O=C(C(=Cc1ccc[nH]1)C(=O)N1CCN(Cc2ccc(Br)s2)CC1)c1ccc([O-])cc1 (protonated)
O=C(/C(=C/c1ccc[nH]1)C(=O)N1CCN(Cc2ccc(Br)s2)CC1)c1ccc([O-])cc1 (cis-trans isomerization)
O=C(/C(=C/c1ccc[nH]1)C(=O)N1CCN(Cc2ccc(Br)s2)CC1)c1ccc([O-])cc1 (3D coordinates assigned)
O=C(/C(=C/c1ccc[nH]1)C(=O)N1CCN(Cc2ccc(Br)s2)CC1)c1ccc([O-])cc1 (nonaromatic ring conformer: 129.3948915955951 kcal/mol)

>  <smiles>  (32) 
O=C(C(=Cc1ccc[nH]1)C(=O)N1CCN(Cc2ccc(Br)s2)CC1)c1ccc(O)cc1

>  <score_type>  (32) 
oracle

>  <origin>  (32) 
adg

>  <m_score__min__energy>  (32) 
-12.33

>  <m_primary>  (32) 
energy

$$$$
32:0
     RDKit          3D

 48 51  0  0  0  0  0  0  0  0999 V2000
   55.5530   29.7160   45.9350 H   0  0  0  0  0  0  0  0  0  0  0  0
   55.6190   28.9770   45.2480 O   0  0  0  0  0  0  0  0  0  0  0  0
   56.1050   27.7140   45.5780 C   0  0  0  0  0  0  0  0  0  0  0  0
   55.3290   26.7260   46.0520 N   0  0  0  0  0  0  0  0  0  0  0  0
   56.2140   25.7310   46.2760 C   0  0  0  0  0  0  0  0  0  0  0  0
   55.8740   24.6100   46.7370 O   0  0  0  0  0  0  0  0  0  0  0  0
   57.4960   26.0340   45.9770 N   0  0  0  0  0  0  0  0  0  0  0  0
   57.4170   27.2910   45.5060 C   0  0  0  0  0  0  0  0  0  0  0  0
   58.5930   28.0900   45.1360 C   0  0  0  0  0  0  0  0  0  0  0  0
   59.3061   27.6365   44.4319 H   0  0  0  0  0  0  0  0  0  0  0  0
   58.8750   29.3290   45.5830 C   0  0  0  0  0  0  0  0  0  0  0  0
   58.4030   30.4750   44.9630 C   0  0  0  0  0  0  0  0  0  0  0  0
   57.7288   30.5195   44.0949 H   0  0  0  0  0  0  0  0  0  0  0  0
   58.9390   31.5480   45.6410 C   0  0  0  0  0  0  0  0  0  0  0  0
   58.6840   32.9860   45.3010 C   0  0  0  0  0  0  0  0  0  0  0  0
   58.5806   33.5692   46.2279 H   0  0  0  0  0  0  0  0  0  0  0  0
   59.5265   33.3787   44.7128 H   0  0  0  0  0  0  0  0  0  0  0  0
   57.7578   33.0650   44.7128 H   0  0  0  0  0  0  0  0  0  0  0  0
   59.6930   31.1210   46.6770 N   0  0  0  0  0  0  0  0  0  0  0  0
   60.3620   31.9660   47.6310 C   0  0  0  0  0  0  0  0  0  0  0  0
   61.7480   32.1490   47.5500 C   0  0  0  0  0  0  0  0  0  0  0  0
   62.3155   31.6558   46.7471 H   0  0  0  0  0  0  0  0  0  0  0  0
   62.4210   32.9540   48.4810 C   0  0  0  0  0  0  0  0  0  0  0  0
   63.8830   33.0800   48.3640 C   0  0  0  0  0  0  0  0  0  0  0  0
   64.3930   33.4520   47.2740 O   0  0  0  0  0  0  0  0  0  0  0  0
   64.7320   32.7340   49.4590 N   0  0  0  0  0  0  0  0  0  0  0  0
   66.1760   32.7450   49.7480 C   0  0  0  0  0  0  0  0  0  0  0  0
   66.7580   32.1522   49.0270 H   0  0  0  0  0  0  0  0  0  0  0  0
   66.6885   33.7174   49.7048 H   0  0  0  0  0  0  0  0  0  0  0  0
   66.0740   32.0880   51.0860 C   0  0  0  0  0  0  0  0  0  0  0  0
   66.5458   31.0975   51.1658 H   0  0  0  0  0  0  0  0  0  0  0  0
   66.5047   32.5035   52.0089 H   0  0  0  0  0  0  0  0  0  0  0  0
   64.6140   32.0830   50.7760 C   0  0  0  0  0  0  0  0  0  0  0  0
   64.1970   31.0671   50.7117 H   0  0  0  0  0  0  0  0  0  0  0  0
   63.9442   32.5548   51.5100 H   0  0  0  0  0  0  0  0  0  0  0  0
   61.6830   33.6220   49.4890 C   0  0  0  0  0  0  0  0  0  0  0  0
   62.3270   34.5530   50.4830 C   0  0  0  0  0  0  0  0  0  0  0  0
   62.0945   34.2168   51.5042 H   0  0  0  0  0  0  0  0  0  0  0  0
   63.4170   34.5500   50.3353 H   0  0  0  0  0  0  0  0  0  0  0  0
   61.9397   35.5719   50.3353 H   0  0  0  0  0  0  0  0  0  0  0  0
   60.2960   33.4180   49.5720 C   0  0  0  0  0  0  0  0  0  0  0  0
   59.7206   33.9113   50.3692 H   0  0  0  0  0  0  0  0  0  0  0  0
   59.6390   32.5960   48.6540 C   0  0  0  0  0  0  0  0  0  0  0  0
   58.2660   32.4050   48.7630 O   0  0  0  0  0  0  0  0  0  0  0  0
   59.6450   29.7640   46.6760 C   0  0  0  0  0  0  0  0  0  0  0  0
   60.1550   29.0120   47.6640 C   0  0  0  0  0  0  0  0  0  0  0  0
   60.7440   29.4823   48.4652 H   0  0  0  0  0  0  0  0  0  0  0  0
   59.9839   27.9254   47.6725 H   0  0  0  0  0  0  0  0  0  0  0  0
  1  2  1  0
  2  3  1  0
  3  4  1  0
  4  5  1  0
  5  6  2  0
  5  7  1  0
  7  8  1  0
  8  9  1  0
  9 10  1  0
  9 11  2  0
 11 12  1  0
 12 13  1  0
 12 14  2  0
 14 15  1  0
 15 16  1  0
 15 17  1  0
 15 18  1  0
 14 19  1  0
 19 20  1  0
 20 21  2  0
 21 22  1  0
 21 23  1  0
 23 24  1  0
 24 25  2  0
 24 26  1  0
 26 27  1  0
 27 28  1  0
 27 29  1  0
 27 30  1  0
 30 31  1  0
 30 32  1  0
 30 33  1  0
 33 34  1  0
 33 35  1  0
 23 36  2  0
 36 37  1  0
 37 38  1  0
 37 39  1  0
 37 40  1  0
 36 41  1  0
 41 42  1  0
 41 43  2  0
 43 44  1  0
 19 45  1  0
 45 46  2  0
 46 47  1  0
 46 48  1  0
  8  3  2  0
 45 11  1  0
 43 20  1  0
 33 26  1  0
M  CHG  3   4  -1   7  -1  44  -1
M  END
>  <UniqueID>  (33) 
29

>  <SMILES>  (33) 
C=c1/c(=C\c2[n-]c(=O)[n-]c2O)cc(C)n1-c1cc(C(=O)N2CCC2)c(C)cc1[O-]

>  <Energy>  (33) 
175.668561158371

>  <Genealogy>  (33) 
C=c1c(=Cc2[n-]c(=O)[n-]c2O)cc(C)n1-c1cc(C(=O)N2CCC2)c(C)cc1[O-] (protonated)
C=c1/c(=C\c2[n-]c(=O)[n-]c2O)cc(C)n1-c1cc(C(=O)N2CCC2)c(C)cc1[O-] (cis-trans isomerization)
C=c1/c(=C\c2[n-]c(=O)[n-]c2O)cc(C)n1-c1cc(C(=O)N2CCC2)c(C)cc1[O-] (3D coordinates assigned)
C=c1/c(=C\c2[n-]c(=O)[n-]c2O)cc(C)n1-c1cc(C(=O)N2CCC2)c(C)cc1[O-] (nonaromatic ring conformer: 175.668561158371 kcal/mol)

>  <smiles>  (33) 
C=c1c(=Cc2[nH]c(=O)[nH]c2O)cc(C)n1-c1cc(C(=O)N2CCC2)c(C)cc1O

>  <score_type>  (33) 
oracle

>  <origin>  (33) 
adg

>  <m_score__min__energy>  (33) 
-15.17

>  <m_primary>  (33) 
energy

$$$$
33:0
     RDKit          3D

 42 44  0  0  0  0  0  0  0  0999 V2000
   57.5020   26.0120   47.5290 O   0  0  0  0  0  0  0  0  0  0  0  0
   58.2280   26.5420   46.6440 C   0  0  0  0  0  0  0  0  0  0  0  0
   57.6990   26.7020   45.2540 C   0  0  0  0  0  0  0  0  0  0  0  0
   57.8080   28.1020   44.8510 N   0  0  0  0  0  0  0  0  0  0  0  0
   56.8450   29.0370   44.8830 C   0  0  0  0  0  0  0  0  0  0  0  0
   55.5220   28.7960   45.2340 O   0  0  0  0  0  0  0  0  0  0  0  0
   57.3890   30.2540   44.5360 C   0  0  0  0  0  0  0  0  0  0  0  0
   56.6750   31.5680   44.4970 C   0  0  0  0  0  0  0  0  0  0  0  0
   57.5290   32.6440   45.1070 C   0  0  0  0  0  0  0  0  0  0  0  0
   57.5300   32.8460   46.4980 C   0  0  0  0  0  0  0  0  0  0  0  0
   58.3340   33.8400   47.0630 C   0  0  0  0  0  0  0  0  0  0  0  0
   59.1440   34.6350   46.2480 C   0  0  0  0  0  0  0  0  0  0  0  0
   59.1610   34.4290   44.8660 C   0  0  0  0  0  0  0  0  0  0  0  0
   58.3650   33.4320   44.2960 C   0  0  0  0  0  0  0  0  0  0  0  0
   58.7140   30.1060   44.3150 N   0  0  0  0  0  0  0  0  0  0  0  0
   58.9240   28.7870   44.5200 C   0  0  0  0  0  0  0  0  0  0  0  0
   60.0620   28.2550   44.4220 O   0  0  0  0  0  0  0  0  0  0  0  0
   59.5180   27.0670   46.9840 N   0  0  0  0  0  0  0  0  0  0  0  0
   59.9020   27.3440   48.3650 C   0  0  0  0  0  0  0  0  0  0  0  0
   59.8650   28.8260   48.6220 C   0  0  0  0  0  0  0  0  0  0  0  0
   59.0670   29.3390   49.6570 C   0  0  0  0  0  0  0  0  0  0  0  0
   59.0370   30.7140   49.9090 C   0  0  0  0  0  0  0  0  0  0  0  0
   59.8010   31.5850   49.1290 C   0  0  0  0  0  0  0  0  0  0  0  0
   60.6150   31.0820   48.1080 C   0  0  0  0  0  0  0  0  0  0  0  0
   61.5860   32.1760   47.1420 Cl  0  0  0  0  0  0  0  0  0  0  0  0
   60.6490   29.7060   47.8550 C   0  0  0  0  0  0  0  0  0  0  0  0
   58.2835   26.0751   44.5645 H   0  0  0  0  0  0  0  0  0  0  0  0
   56.6438   26.3925   45.2248 H   0  0  0  0  0  0  0  0  0  0  0  0
   56.4532   31.8296   43.4518 H   0  0  0  0  0  0  0  0  0  0  0  0
   55.7404   31.4846   45.0710 H   0  0  0  0  0  0  0  0  0  0  0  0
   56.8964   32.2202   47.1436 H   0  0  0  0  0  0  0  0  0  0  0  0
   58.3290   33.9968   48.1518 H   0  0  0  0  0  0  0  0  0  0  0  0
   59.7683   35.4231   46.6943 H   0  0  0  0  0  0  0  0  0  0  0  0
   59.8021   35.0528   44.2257 H   0  0  0  0  0  0  0  0  0  0  0  0
   58.3924   33.2630   43.2094 H   0  0  0  0  0  0  0  0  0  0  0  0
   60.1630   27.3670   46.2190 H   0  0  0  0  0  0  0  0  0  0  0  0
   59.2017   26.8386   49.0462 H   0  0  0  0  0  0  0  0  0  0  0  0
   60.9232   26.9730   48.5372 H   0  0  0  0  0  0  0  0  0  0  0  0
   58.4627   28.6562   50.2723 H   0  0  0  0  0  0  0  0  0  0  0  0
   58.4111   31.1101   50.7223 H   0  0  0  0  0  0  0  0  0  0  0  0
   59.7628   32.6680   49.3176 H   0  0  0  0  0  0  0  0  0  0  0  0
   61.2910   29.3116   47.0536 H   0  0  0  0  0  0  0  0  0  0  0  0
  1  2  2  0
  2  3  1  0
  3  4  1  0
  4  5  1  0
  5  6  1  0
  5  7  2  0
  7  8  1  0
  8  9  1  0
  9 10  2  0
 10 11  1  0
 11 12  2  0
 12 13  1  0
 13 14  2  0
  7 15  1  0
 15 16  1  0
 16 17  2  0
  2 18  1  0
 18 19  1  0
 19 20  1  0
 20 21  2  0
 21 22  1  0
 22 23  2  0
 23 24  1  0
 24 25  1  0
 24 26  2  0
 16  4  1  0
 26 20  1  0
 14  9  1  0
  3 27  1  0
  3 28  1  0
  8 29  1  0
  8 30  1  0
 10 31  1  0
 11 32  1  0
 12 33  1  0
 13 34  1  0
 14 35  1  0
 18 36  1  0
 19 37  1  0
 19 38  1  0
 21 39  1  0
 22 40  1  0
 23 41  1  0
 26 42  1  0
M  CHG  2   6  -1  15  -1
M  END
>  <UniqueID>  (34) 
30

>  <SMILES>  (34) 
O=C(Cn1c([O-])c(Cc2ccccc2)[n-]c1=O)NCc1cccc(Cl)c1

>  <Energy>  (34) 
65.47338337330629

>  <Genealogy>  (34) 
O=C(Cn1c([O-])c(Cc2ccccc2)[n-]c1=O)NCc1cccc(Cl)c1 (protonated)
O=C(Cn1c([O-])c(Cc2ccccc2)[n-]c1=O)NCc1cccc(Cl)c1 (3D coordinates assigned)
O=C(Cn1c([O-])c(Cc2ccccc2)[n-]c1=O)NCc1cccc(Cl)c1 (optimized conformer: 65.47338337330629 kcal/mol)

>  <smiles>  (34) 
O=C(Cn1c(O)c(Cc2ccccc2)[nH]c1=O)NCc1cccc(Cl)c1

>  <score_type>  (34) 
oracle

>  <origin>  (34) 
adg

>  <m_score__min__energy>  (34) 
-13.75

>  <m_primary>  (34) 
energy

$$$$
34:0
     RDKit          3D

 36 38  0  0  0  0  0  0  0  0999 V2000
   54.5480   27.0710   46.7520 H   0  0  0  0  0  0  0  0  0  0  0  0
   55.1560   26.6660   46.0070 N   0  0  0  0  0  0  0  0  0  0  0  0
   56.5780   26.7140   46.1140 C   0  0  0  0  0  0  0  0  0  0  0  0
   57.2090   25.6370   46.2860 O   0  0  0  0  0  0  0  0  0  0  0  0
   57.3160   28.0040   46.0260 C   0  0  0  0  0  0  0  0  0  0  0  0
   56.8960   28.9730   45.0930 C   0  0  0  0  0  0  0  0  0  0  0  0
   56.0604   28.7449   44.4149 H   0  0  0  0  0  0  0  0  0  0  0  0
   57.5270   30.2250   45.0150 C   0  0  0  0  0  0  0  0  0  0  0  0
   57.0520   31.2770   44.0880 C   0  0  0  0  0  0  0  0  0  0  0  0
   56.1669   31.0494   43.4758 H   0  0  0  0  0  0  0  0  0  0  0  0
   57.6150   32.4880   43.9340 C   0  0  0  0  0  0  0  0  0  0  0  0
   58.1151   32.6925   42.9758 H   0  0  0  0  0  0  0  0  0  0  0  0
   57.6190   33.5690   44.9440 C   0  0  0  0  0  0  0  0  0  0  0  0
   56.6590   34.3840   44.9520 O   0  0  0  0  0  0  0  0  0  0  0  0
   58.7150   33.7450   45.9160 C   0  0  0  0  0  0  0  0  0  0  0  0
   58.5420   33.8610   47.2940 C   0  0  0  0  0  0  0  0  0  0  0  0
   57.5937   33.9073   47.8494 H   0  0  0  0  0  0  0  0  0  0  0  0
   59.8200   33.9050   47.8080 C   0  0  0  0  0  0  0  0  0  0  0  0
   60.2630   33.9730   49.1270 C   0  0  0  0  0  0  0  0  0  0  0  0
   59.5510   34.0265   49.9638 H   0  0  0  0  0  0  0  0  0  0  0  0
   61.6520   33.9710   49.3530 C   0  0  0  0  0  0  0  0  0  0  0  0
   62.1410   34.0380   50.6520 O   0  0  0  0  0  0  0  0  0  0  0  0
   62.5530   33.8980   48.2650 C   0  0  0  0  0  0  0  0  0  0  0  0
   63.6369   33.8968   48.4527 H   0  0  0  0  0  0  0  0  0  0  0  0
   62.0730   33.8270   46.9450 C   0  0  0  0  0  0  0  0  0  0  0  0
   62.7640   33.7672   46.0912 H   0  0  0  0  0  0  0  0  0  0  0  0
   60.6920   33.8350   46.7550 C   0  0  0  0  0  0  0  0  0  0  0  0
   60.0300   33.7460   45.5890 N   0  0  0  0  0  0  0  0  0  0  0  0
   60.4490   33.6730   44.6350 H   0  0  0  0  0  0  0  0  0  0  0  0
   58.6430   30.4810   45.8180 C   0  0  0  0  0  0  0  0  0  0  0  0
   59.1769   31.4382   45.7244 H   0  0  0  0  0  0  0  0  0  0  0  0
   59.0820   29.5280   46.7370 C   0  0  0  0  0  0  0  0  0  0  0  0
   59.9539   29.7442   47.3718 H   0  0  0  0  0  0  0  0  0  0  0  0
   58.4220   28.2970   46.8590 C   0  0  0  0  0  0  0  0  0  0  0  0
   58.8680   27.3790   47.8080 O   0  0  0  0  0  0  0  0  0  0  0  0
   58.5640   26.4130   47.8020 H   0  0  0  0  0  0  0  0  0  0  0  0
  1  2  1  0
  2  3  1  0
  3  4  2  0
  3  5  1  0
  5  6  2  0
  6  7  1  0
  6  8  1  0
  8  9  1  0
  9 10  1  0
  9 11  2  0
 11 12  1  0
 11 13  1  0
 13 14  2  0
 13 15  1  0
 15 16  2  0
 16 17  1  0
 16 18  1  0
 18 19  2  0
 19 20  1  0
 19 21  1  0
 21 22  1  0
 21 23  2  0
 23 24  1  0
 23 25  1  0
 25 26  1  0
 25 27  2  0
 27 28  1  0
 28 29  1  0
  8 30  2  0
 30 31  1  0
 30 32  1  0
 32 33  1  0
 32 34  2  0
 34 35  1  0
 35 36  1  0
 34  5  1  0
 28 15  1  0
 27 18  1  0
M  CHG  2   2  -1  22  -1
M  END
>  <UniqueID>  (35) 
31

>  <SMILES>  (35) 
[NH-]C(=O)c1cc(/C=C\C(=O)c2cc3cc([O-])ccc3[nH]2)ccc1O

>  <Energy>  (35) 
80.54370874557891

>  <Genealogy>  (35) 
[NH-]C(=O)c1cc(C=CC(=O)c2cc3cc([O-])ccc3[nH]2)ccc1O (protonated)
[NH-]C(=O)c1cc(/C=C\C(=O)c2cc3cc([O-])ccc3[nH]2)ccc1O (cis-trans isomerization)
[NH-]C(=O)c1cc(/C=C\C(=O)c2cc3cc([O-])ccc3[nH]2)ccc1O (3D coordinates assigned)
[NH-]C(=O)c1cc(/C=C\C(=O)c2cc3cc([O-])ccc3[nH]2)ccc1O (optimized conformer: 80.54370874557891 kcal/mol)

>  <smiles>  (35) 
NC(=O)c1cc(C=CC(=O)c2cc3cc(O)ccc3[nH]2)ccc1O

>  <score_type>  (35) 
oracle

>  <origin>  (35) 
adg

>  <m_score__min__energy>  (35) 
-11.529999999999999

>  <m_primary>  (35) 
energy

$$$$
35:0
     RDKit          3D

 46 49  0  0  0  0  0  0  0  0999 V2000
   50.6090   32.7310   48.7670 O   0  0  0  0  0  0  0  0  0  0  0  0
   51.0300   31.9800   49.6850 C   0  0  0  0  0  0  0  0  0  0  0  0
   51.3970   30.7010   49.4670 N   0  0  0  0  0  0  0  0  0  0  0  0
   51.7670   30.2870   50.6920 C   0  0  0  0  0  0  0  0  0  0  0  0
   52.2510   29.0100   50.9580 O   0  0  0  0  0  0  0  0  0  0  0  0
   51.6170   31.3070   51.6080 C   0  0  0  0  0  0  0  0  0  0  0  0
   51.8670   31.2560   53.0710 C   0  0  0  0  0  0  0  0  0  0  0  0
   50.9270   31.8080   53.9610 C   0  0  0  0  0  0  0  0  0  0  0  0
   51.1760   31.8290   55.3360 C   0  0  0  0  0  0  0  0  0  0  0  0
   52.3650   31.3060   55.8400 C   0  0  0  0  0  0  0  0  0  0  0  0
   53.3120   30.7600   54.9720 C   0  0  0  0  0  0  0  0  0  0  0  0
   53.0750   30.7330   53.5890 C   0  0  0  0  0  0  0  0  0  0  0  0
   54.0440   30.1400   52.7200 N   0  0  0  0  0  0  0  0  0  0  0  0
   55.5620   29.5650   53.3190 S   0  0  0  0  0  0  0  0  0  0  0  0
   55.6470   29.7460   54.8090 O   0  0  0  0  0  0  0  0  0  0  0  0
   55.6970   28.1010   53.0050 O   0  0  0  0  0  0  0  0  0  0  0  0
   56.8380   30.4710   52.5160 C   0  0  0  0  0  0  0  0  0  0  0  0
   56.9060   31.8590   52.6700 C   0  0  0  0  0  0  0  0  0  0  0  0
   57.8170   32.6030   51.9180 C   0  0  0  0  0  0  0  0  0  0  0  0
   58.6520   31.9720   50.9910 C   0  0  0  0  0  0  0  0  0  0  0  0
   59.4600   32.7700   50.1720 O   0  0  0  0  0  0  0  0  0  0  0  0
   59.1390   33.1060   48.8470 C   0  0  0  0  0  0  0  0  0  0  0  0
   58.2120   32.3590   48.0890 C   0  0  0  0  0  0  0  0  0  0  0  0
   57.9220   32.7260   46.7720 C   0  0  0  0  0  0  0  0  0  0  0  0
   58.5450   33.8390   46.2030 C   0  0  0  0  0  0  0  0  0  0  0  0
   59.4560   34.5900   46.9510 C   0  0  0  0  0  0  0  0  0  0  0  0
   59.7510   34.2260   48.2690 C   0  0  0  0  0  0  0  0  0  0  0  0
   60.6380   34.9600   48.9850 F   0  0  0  0  0  0  0  0  0  0  0  0
   58.6390   30.5620   50.8740 C   0  0  0  0  0  0  0  0  0  0  0  0
   59.5470   29.8710   49.9960 N   0  0  0  0  0  0  0  0  0  0  0  0
   59.1510   29.4150   48.9030 O   0  0  0  0  0  0  0  0  0  0  0  0
   60.8900   29.8190   50.2880 O   0  0  0  0  0  0  0  0  0  0  0  0
   57.7110   29.8260   51.6310 C   0  0  0  0  0  0  0  0  0  0  0  0
   51.1480   32.3920   50.9640 N   0  0  0  0  0  0  0  0  0  0  0  0
   53.1100   28.8820   51.4780 H   0  0  0  0  0  0  0  0  0  0  0  0
   49.9876   32.2268   53.5708 H   0  0  0  0  0  0  0  0  0  0  0  0
   50.4316   32.2594   56.0220 H   0  0  0  0  0  0  0  0  0  0  0  0
   52.5576   31.3234   56.9229 H   0  0  0  0  0  0  0  0  0  0  0  0
   54.2495   30.3485   55.3743 H   0  0  0  0  0  0  0  0  0  0  0  0
   56.2407   32.3655   53.3847 H   0  0  0  0  0  0  0  0  0  0  0  0
   57.8782   33.6926   52.0557 H   0  0  0  0  0  0  0  0  0  0  0  0
   57.7161   31.4850   48.5363 H   0  0  0  0  0  0  0  0  0  0  0  0
   57.2026   32.1379   46.1832 H   0  0  0  0  0  0  0  0  0  0  0  0
   58.3185   34.1248   45.1652 H   0  0  0  0  0  0  0  0  0  0  0  0
   59.9419   35.4690   46.5024 H   0  0  0  0  0  0  0  0  0  0  0  0
   57.6700   28.7317   51.5272 H   0  0  0  0  0  0  0  0  0  0  0  0
  1  2  2  0
  2  3  1  0
  3  4  1  0
  4  5  1  0
  4  6  2  0
  6  7  1  0
  7  8  2  0
  8  9  1  0
  9 10  2  0
 10 11  1  0
 11 12  2  0
 12 13  1  0
 13 14  1  0
 14 15  2  0
 14 16  2  0
 14 17  1  0
 17 18  2  0
 18 19  1  0
 19 20  2  0
 20 21  1  0
 21 22  1  0
 22 23  2  0
 23 24  1  0
 24 25  2  0
 25 26  1  0
 26 27  2  0
 27 28  1  0
 20 29  1  0
 29 30  1  0
 30 31  2  0
 30 32  1  0
 29 33  2  0
  6 34  1  0
 34  2  1  0
 12  7  1  0
 33 17  1  0
 27 22  1  0
  5 35  1  0
  8 36  1  0
  9 37  1  0
 10 38  1  0
 11 39  1  0
 18 40  1  0
 19 41  1  0
 23 42  1  0
 24 43  1  0
 25 44  1  0
 26 45  1  0
 33 46  1  0
M  CHG  5   3  -1  13  -1  30   1  32  -1  34  -1
M  END
>  <UniqueID>  (36) 
32

>  <SMILES>  (36) 
O=c1[n-]c(O)c(-c2ccccc2[N-]S(=O)(=O)c2ccc(Oc3ccccc3F)c([N+](=O)[O-])c2)[n-]1

>  <Energy>  (36) 
101.20357353875488

>  <Genealogy>  (36) 
O=c1[n-]c(O)c(-c2ccccc2[N-]S(=O)(=O)c2ccc(Oc3ccccc3F)c([N+](=O)[O-])c2)[n-]1 (protonated)
O=c1[n-]c(O)c(-c2ccccc2[N-]S(=O)(=O)c2ccc(Oc3ccccc3F)c([N+](=O)[O-])c2)[n-]1 (3D coordinates assigned)
O=c1[n-]c(O)c(-c2ccccc2[N-]S(=O)(=O)c2ccc(Oc3ccccc3F)c([N+](=O)[O-])c2)[n-]1 (optimized conformer: 101.20357353875488 kcal/mol)

>  <smiles>  (36) 
O=c1[nH]c(O)c(-c2ccccc2NS(=O)(=O)c2ccc(Oc3ccccc3F)c([N+](=O)[O-])c2)[nH]1

>  <score_type>  (36) 
oracle

>  <origin>  (36) 
adg

>  <m_score__min__energy>  (36) 
-14.970000000000001

>  <m_primary>  (36) 
energy

$$$$
36:0
     RDKit          3D

 54 57  0  0  0  0  0  0  0  0999 V2000
   64.0250   32.9140   50.4860 C   0  0  0  0  0  0  0  0  0  0  0  0
   62.6510   32.5480   50.4060 O   0  0  0  0  0  0  0  0  0  0  0  0
   62.1040   31.7340   49.4020 C   0  0  0  0  0  0  0  0  0  0  0  0
   61.5740   30.4510   49.6860 C   0  0  0  0  0  0  0  0  0  0  0  0
   61.0520   29.7110   48.6320 C   0  0  0  0  0  0  0  0  0  0  0  0
   60.4990   28.4870   48.6980 N   0  0  0  0  0  0  0  0  0  0  0  0
   60.1580   28.2340   47.4090 C   0  0  0  0  0  0  0  0  0  0  0  0
   59.5120   26.9740   47.0080 C   0  0  0  0  0  0  0  0  0  0  0  0
   60.2620   25.9790   46.3720 C   0  0  0  0  0  0  0  0  0  0  0  0
   59.6450   24.7810   46.0140 C   0  0  0  0  0  0  0  0  0  0  0  0
   58.3250   24.5890   46.2730 N   0  0  0  0  0  0  0  0  0  0  0  0
   57.5570   25.5390   46.8740 C   0  0  0  0  0  0  0  0  0  0  0  0
   56.3000   25.2740   47.0850 N   0  0  0  0  0  0  0  0  0  0  0  0
   55.1280   24.8020   45.8920 S   0  0  0  0  0  0  0  0  0  0  0  0
   55.9770   24.4120   44.3790 C   0  0  0  0  0  0  0  0  0  0  0  0
   54.1690   25.9310   45.6390 O   0  0  0  0  0  0  0  0  0  0  0  0
   54.3790   23.5860   46.3580 O   0  0  0  0  0  0  0  0  0  0  0  0
   58.1470   26.7640   47.2440 C   0  0  0  0  0  0  0  0  0  0  0  0
   60.4520   29.2610   46.5580 N   0  0  0  0  0  0  0  0  0  0  0  0
   60.1510   29.3680   45.1210 C   0  0  0  0  0  0  0  0  0  0  0  0
   58.7180   29.7980   44.8840 C   0  0  0  0  0  0  0  0  0  0  0  0
   58.3430   31.1150   45.2030 C   0  0  0  0  0  0  0  0  0  0  0  0
   57.0430   31.5520   44.9470 C   0  0  0  0  0  0  0  0  0  0  0  0
   56.7110   32.7360   45.2130 O   0  0  0  0  0  0  0  0  0  0  0  0
   56.1340   30.7020   44.4070 N   0  0  0  0  0  0  0  0  0  0  0  0
   56.4480   29.4150   44.1090 C   0  0  0  0  0  0  0  0  0  0  0  0
   57.7380   28.9190   44.3550 C   0  0  0  0  0  0  0  0  0  0  0  0
   58.0490   27.4890   44.0010 C   0  0  0  0  0  0  0  0  0  0  0  0
   61.0360   30.1790   47.3530 C   0  0  0  0  0  0  0  0  0  0  0  0
   61.5480   31.4370   47.0290 C   0  0  0  0  0  0  0  0  0  0  0  0
   62.0900   32.2280   48.0730 C   0  0  0  0  0  0  0  0  0  0  0  0
   62.6240   33.5040   47.8340 O   0  0  0  0  0  0  0  0  0  0  0  0
   63.3940   33.8540   46.6890 C   0  0  0  0  0  0  0  0  0  0  0  0
   64.3225   32.9932   51.5421 H   0  0  0  0  0  0  0  0  0  0  0  0
   64.6381   32.1478   49.9889 H   0  0  0  0  0  0  0  0  0  0  0  0
   64.1757   33.8836   49.9889 H   0  0  0  0  0  0  0  0  0  0  0  0
   61.5757   30.0523   50.7112 H   0  0  0  0  0  0  0  0  0  0  0  0
   61.3285   26.1402   46.1564 H   0  0  0  0  0  0  0  0  0  0  0  0
   60.2282   23.9894   45.5207 H   0  0  0  0  0  0  0  0  0  0  0  0
   56.9539   23.9632   44.6119 H   0  0  0  0  0  0  0  0  0  0  0  0
   55.3762   23.6996   43.7946 H   0  0  0  0  0  0  0  0  0  0  0  0
   56.1260   25.3319   43.7946 H   0  0  0  0  0  0  0  0  0  0  0  0
   57.5395   27.5507   47.7153 H   0  0  0  0  0  0  0  0  0  0  0  0
   60.8260   30.1095   44.6687 H   0  0  0  0  0  0  0  0  0  0  0  0
   60.2940   28.3777   44.6640 H   0  0  0  0  0  0  0  0  0  0  0  0
   59.0748   31.8010   45.6545 H   0  0  0  0  0  0  0  0  0  0  0  0
   55.6847   28.7551   43.6709 H   0  0  0  0  0  0  0  0  0  0  0  0
   58.1766   26.9025   44.9228 H   0  0  0  0  0  0  0  0  0  0  0  0
   57.2212   27.0690   43.4108 H   0  0  0  0  0  0  0  0  0  0  0  0
   58.9765   27.4508   43.4108 H   0  0  0  0  0  0  0  0  0  0  0  0
   61.5312   31.8041   45.9922 H   0  0  0  0  0  0  0  0  0  0  0  0
   64.3517   34.2893   47.0103 H   0  0  0  0  0  0  0  0  0  0  0  0
   63.5843   32.9539   46.0860 H   0  0  0  0  0  0  0  0  0  0  0  0
   62.8410   34.5892   46.0860 H   0  0  0  0  0  0  0  0  0  0  0  0
  1  2  1  0
  2  3  1  0
  3  4  2  0
  4  5  1  0
  5  6  1  0
  6  7  2  0
  7  8  1  0
  8  9  1  0
  9 10  2  0
 10 11  1  0
 11 12  1  0
 12 13  2  3
 13 14  1  0
 14 15  1  0
 14 16  2  0
 14 17  2  0
 12 18  1  0
  7 19  1  0
 19 20  1  0
 20 21  1  0
 21 22  2  0
 22 23  1  0
 23 24  2  0
 23 25  1  0
 25 26  1  0
 26 27  2  0
 27 28  1  0
 19 29  1  0
 29 30  1  0
 30 31  2  0
 31 32  1  0
 32 33  1  0
 31  3  1  0
 29  5  2  0
 18  8  2  0
 27 21  1  0
  1 34  1  0
  1 35  1  0
  1 36  1  0
  4 37  1  0
  9 38  1  0
 10 39  1  0
 15 40  1  0
 15 41  1  0
 15 42  1  0
 18 43  1  0
 20 44  1  0
 20 45  1  0
 22 46  1  0
 26 47  1  0
 28 48  1  0
 28 49  1  0
 28 50  1  0
 30 51  1  0
 33 52  1  0
 33 53  1  0
 33 54  1  0
M  CHG  2  11  -1  25  -1
M  END
>  <UniqueID>  (37) 
33

>  <SMILES>  (37) 
COc1cc2nc(-c3cc[n-]c(=NS(C)(=O)=O)c3)n(Cc3cc(=O)[n-]cc3C)c2cc1OC

>  <Energy>  (37) 
100.28325562701022

>  <Genealogy>  (37) 
COc1cc2nc(-c3cc[n-]c(=NS(C)(=O)=O)c3)n(Cc3cc(=O)[n-]cc3C)c2cc1OC (protonated)
COc1cc2nc(-c3cc[n-]c(=NS(C)(=O)=O)c3)n(Cc3cc(=O)[n-]cc3C)c2cc1OC (3D coordinates assigned)
COc1cc2nc(-c3cc[n-]c(=NS(C)(=O)=O)c3)n(Cc3cc(=O)[n-]cc3C)c2cc1OC (optimized conformer: 100.28325562701022 kcal/mol)

>  <smiles>  (37) 
COc1cc2nc(-c3cc[nH]c(=NS(C)(=O)=O)c3)n(Cc3cc(=O)[nH]cc3C)c2cc1OC

>  <score_type>  (37) 
oracle

>  <origin>  (37) 
adg

>  <m_score__min__energy>  (37) 
-11.26

>  <m_primary>  (37) 
energy

$$$$
37:0
     RDKit          3D

 57 60  0  0  0  0  0  0  0  0999 V2000
   54.7820   26.1560   45.9840 N   0  0  0  0  0  0  0  0  0  0  0  0
   55.9940   25.5700   46.4540 C   0  0  0  0  0  0  0  0  0  0  0  0
   55.9610   24.7170   47.3800 O   0  0  0  0  0  0  0  0  0  0  0  0
   57.2960   25.9410   45.8200 C   0  0  0  0  0  0  0  0  0  0  0  0
   57.3860   27.3900   45.6780 N   0  0  0  0  0  0  0  0  0  0  0  0
   58.4150   28.1600   46.0770 C   0  0  0  0  0  0  0  0  0  0  0  0
   58.0930   29.4800   45.8180 C   0  0  0  0  0  0  0  0  0  0  0  0
   58.9230   30.6850   46.0810 C   0  0  0  0  0  0  0  0  0  0  0  0
   58.4750   31.9630   45.6960 C   0  0  0  0  0  0  0  0  0  0  0  0
   59.2590   33.0950   45.9400 C   0  0  0  0  0  0  0  0  0  0  0  0
   60.5070   32.9730   46.5630 C   0  0  0  0  0  0  0  0  0  0  0  0
   61.3370   34.1980   46.8540 C   0  0  0  0  0  0  0  0  0  0  0  0
   62.7060   33.8530   47.3930 C   0  0  0  0  0  0  0  0  0  0  0  0
   63.7160   33.9720   46.6460 O   0  0  0  0  0  0  0  0  0  0  0  0
   62.8760   33.4230   48.7630 N   0  0  0  0  0  0  0  0  0  0  0  0
   64.1860   32.9600   49.2390 C   0  0  0  0  0  0  0  0  0  0  0  0
   64.0300   31.7510   50.1810 C   0  0  0  0  0  0  0  0  0  0  0  0
   62.8550   31.8190   51.0930 N   0  0  0  0  0  0  0  0  0  0  0  0
   61.8900   30.7310   50.8200 C   0  0  0  0  0  0  0  0  0  0  0  0
   60.4800   31.1380   51.1580 C   0  0  0  0  0  0  0  0  0  0  0  0
   60.0940   31.2960   52.4980 C   0  0  0  0  0  0  0  0  0  0  0  0
   58.7860   31.6790   52.8140 C   0  0  0  0  0  0  0  0  0  0  0  0
   57.8570   31.9140   51.7960 C   0  0  0  0  0  0  0  0  0  0  0  0
   56.5900   32.2810   52.1040 F   0  0  0  0  0  0  0  0  0  0  0  0
   58.2380   31.7660   50.4590 C   0  0  0  0  0  0  0  0  0  0  0  0
   59.5430   31.3810   50.1390 C   0  0  0  0  0  0  0  0  0  0  0  0
   62.2270   33.1590   51.1390 C   0  0  0  0  0  0  0  0  0  0  0  0
   61.8040   33.6400   49.7440 C   0  0  0  0  0  0  0  0  0  0  0  0
   60.9530   31.7050   46.9630 C   0  0  0  0  0  0  0  0  0  0  0  0
   60.1710   30.5720   46.7200 C   0  0  0  0  0  0  0  0  0  0  0  0
   56.8250   29.4260   45.2580 C   0  0  0  0  0  0  0  0  0  0  0  0
   56.4160   28.1440   45.1900 N   0  0  0  0  0  0  0  0  0  0  0  0
   54.7690   26.7310   45.1120 H   0  0  0  0  0  0  0  0  0  0  0  0
   58.1233   25.5846   46.4513 H   0  0  0  0  0  0  0  0  0  0  0  0
   57.3591   25.4758   44.8252 H   0  0  0  0  0  0  0  0  0  0  0  0
   59.3507   27.8015   46.5308 H   0  0  0  0  0  0  0  0  0  0  0  0
   57.4998   32.0720   45.1989 H   0  0  0  0  0  0  0  0  0  0  0  0
   58.8927   34.0880   45.6404 H   0  0  0  0  0  0  0  0  0  0  0  0
   61.4583   34.7715   45.9232 H   0  0  0  0  0  0  0  0  0  0  0  0
   60.8120   34.7833   47.6233 H   0  0  0  0  0  0  0  0  0  0  0  0
   64.8006   32.6670   48.3751 H   0  0  0  0  0  0  0  0  0  0  0  0
   64.6692   33.7784   49.7929 H   0  0  0  0  0  0  0  0  0  0  0  0
   63.9321   30.8460   49.5634 H   0  0  0  0  0  0  0  0  0  0  0  0
   64.9220   31.7421   50.8246 H   0  0  0  0  0  0  0  0  0  0  0  0
   61.9394   30.4704   49.7525 H   0  0  0  0  0  0  0  0  0  0  0  0
   62.1580   29.8696   51.4493 H   0  0  0  0  0  0  0  0  0  0  0  0
   60.8225   31.1181   53.3028 H   0  0  0  0  0  0  0  0  0  0  0  0
   58.4877   31.7956   53.8663 H   0  0  0  0  0  0  0  0  0  0  0  0
   57.5089   31.9530   49.6569 H   0  0  0  0  0  0  0  0  0  0  0  0
   59.8379   31.2677   49.0853 H   0  0  0  0  0  0  0  0  0  0  0  0
   61.3374   33.1131   51.7844 H   0  0  0  0  0  0  0  0  0  0  0  0
   62.9674   33.8696   51.5351 H   0  0  0  0  0  0  0  0  0  0  0  0
   60.9094   33.0834   49.4279 H   0  0  0  0  0  0  0  0  0  0  0  0
   61.5901   34.7178   49.7956 H   0  0  0  0  0  0  0  0  0  0  0  0
   61.9233   31.6014   47.4707 H   0  0  0  0  0  0  0  0  0  0  0  0
   60.5353   29.5820   47.0317 H   0  0  0  0  0  0  0  0  0  0  0  0
   56.2427   30.2963   44.9211 H   0  0  0  0  0  0  0  0  0  0  0  0
  1  2  1  0
  2  3  2  0
  2  4  1  0
  4  5  1  0
  5  6  1  0
  6  7  2  0
  7  8  1  0
  8  9  2  0
  9 10  1  0
 10 11  2  0
 11 12  1  0
 12 13  1  0
 13 14  2  0
 13 15  1  0
 15 16  1  0
 16 17  1  0
 17 18  1  0
 18 19  1  0
 19 20  1  0
 20 21  2  0
 21 22  1  0
 22 23  2  0
 23 24  1  0
 23 25  1  0
 25 26  2  0
 18 27  1  0
 27 28  1  0
 11 29  1  0
 29 30  2  0
  7 31  1  0
 31 32  2  0
 32  5  1  0
 30  8  1  0
 28 15  1  0
 26 20  1  0
  1 33  1  0
  4 34  1  0
  4 35  1  0
  6 36  1  0
  9 37  1  0
 10 38  1  0
 12 39  1  0
 12 40  1  0
 16 41  1  0
 16 42  1  0
 17 43  1  0
 17 44  1  0
 19 45  1  0
 19 46  1  0
 21 47  1  0
 22 48  1  0
 25 49  1  0
 26 50  1  0
 27 51  1  0
 27 52  1  0
 28 53  1  0
 28 54  1  0
 29 55  1  0
 30 56  1  0
 31 57  1  0
M  CHG  1   1  -1
M  END
>  <UniqueID>  (38) 
34

>  <SMILES>  (38) 
[NH-]C(=O)Cn1cc(-c2ccc(CC(=O)N3CCN(Cc4ccc(F)cc4)CC3)cc2)cn1

>  <Energy>  (38) 
98.69997509663705

>  <Genealogy>  (38) 
[NH-]C(=O)Cn1cc(-c2ccc(CC(=O)N3CCN(Cc4ccc(F)cc4)CC3)cc2)cn1 (protonated)
[NH-]C(=O)Cn1cc(-c2ccc(CC(=O)N3CCN(Cc4ccc(F)cc4)CC3)cc2)cn1 (3D coordinates assigned)
[NH-]C(=O)Cn1cc(-c2ccc(CC(=O)N3CCN(Cc4ccc(F)cc4)CC3)cc2)cn1 (nonaromatic ring conformer: 98.69997509663705 kcal/mol)

>  <smiles>  (38) 
NC(=O)Cn1cc(-c2ccc(CC(=O)N3CCN(Cc4ccc(F)cc4)CC3)cc2)cn1

>  <score_type>  (38) 
oracle

>  <origin>  (38) 
adg

>  <m_score__min__energy>  (38) 
-12.17

>  <m_primary>  (38) 
energy

$$$$
38:0
     RDKit          3D

 42 44  0  0  0  0  0  0  0  0999 V2000
   58.2312   33.9313   47.8786 H   0  0  0  0  0  0  0  0  0  0  0  0
   58.1840   33.6920   46.8060 C   0  0  0  0  0  0  0  0  0  0  0  0
   57.3920   32.6760   46.3700 N   0  0  0  0  0  0  0  0  0  0  0  0
   57.3090   32.3390   45.0510 C   0  0  0  0  0  0  0  0  0  0  0  0
   56.5350   31.3720   44.6500 N   0  0  0  0  0  0  0  0  0  0  0  0
   56.9370   30.2420   43.8580 C   0  0  0  0  0  0  0  0  0  0  0  0
   57.0260   30.3840   42.6110 O   0  0  0  0  0  0  0  0  0  0  0  0
   57.3070   28.9410   44.4670 C   0  0  0  0  0  0  0  0  0  0  0  0
   56.3820   28.2180   45.2410 C   0  0  0  0  0  0  0  0  0  0  0  0
   55.3673   28.6150   45.3916 H   0  0  0  0  0  0  0  0  0  0  0  0
   56.7430   26.9990   45.8200 C   0  0  0  0  0  0  0  0  0  0  0  0
   56.0043   26.4303   46.4039 H   0  0  0  0  0  0  0  0  0  0  0  0
   58.0470   26.4950   45.6600 C   0  0  0  0  0  0  0  0  0  0  0  0
   58.4480   25.2270   46.2070 N   0  0  0  0  0  0  0  0  0  0  0  0
   57.7430   24.1330   46.2450 C   0  0  0  0  0  0  0  0  0  0  0  0
   57.4150   23.5190   45.0800 N   0  0  0  0  0  0  0  0  0  0  0  0
   56.6980   22.3630   45.0490 C   0  0  0  0  0  0  0  0  0  0  0  0
   56.4700   21.7260   43.7320 C   0  0  0  0  0  0  0  0  0  0  0  0
   55.9480   22.3770   42.7870 O   0  0  0  0  0  0  0  0  0  0  0  0
   56.7880   20.3480   43.5330 N   0  0  0  0  0  0  0  0  0  0  0  0
   56.5970   19.8930   42.6120 H   0  0  0  0  0  0  0  0  0  0  0  0
   57.2340   19.7820   44.2870 H   0  0  0  0  0  0  0  0  0  0  0  0
   56.2690   21.7900   46.2710 C   0  0  0  0  0  0  0  0  0  0  0  0
   55.3950   20.5990   46.3560 C   0  0  0  0  0  0  0  0  0  0  0  0
   55.7930   19.5050   45.8760 O   0  0  0  0  0  0  0  0  0  0  0  0
   54.0830   20.6410   47.0780 C   0  0  0  0  0  0  0  0  0  0  0  0
   54.2614   20.6353   48.1634 H   0  0  0  0  0  0  0  0  0  0  0  0
   53.5408   21.5570   46.8004 H   0  0  0  0  0  0  0  0  0  0  0  0
   53.4834   19.7616   46.8004 H   0  0  0  0  0  0  0  0  0  0  0  0
   56.6570   22.4200   47.4600 C   0  0  0  0  0  0  0  0  0  0  0  0
   56.3752   21.9809   48.4284 H   0  0  0  0  0  0  0  0  0  0  0  0
   57.3780   23.5680   47.4250 N   0  0  0  0  0  0  0  0  0  0  0  0
   58.9620   27.2070   44.8770 C   0  0  0  0  0  0  0  0  0  0  0  0
   59.9726   26.8033   44.7164 H   0  0  0  0  0  0  0  0  0  0  0  0
   58.6030   28.4270   44.2970 C   0  0  0  0  0  0  0  0  0  0  0  0
   59.3401   28.9881   43.7037 H   0  0  0  0  0  0  0  0  0  0  0  0
   58.0430   33.0680   44.1070 C   0  0  0  0  0  0  0  0  0  0  0  0
   57.9752   32.8174   43.0381 H   0  0  0  0  0  0  0  0  0  0  0  0
   58.8620   34.1160   44.5340 C   0  0  0  0  0  0  0  0  0  0  0  0
   59.4467   34.6920   43.8016 H   0  0  0  0  0  0  0  0  0  0  0  0
   58.9370   34.4310   45.8920 C   0  0  0  0  0  0  0  0  0  0  0  0
   59.7290   35.4460   46.3180 F   0  0  0  0  0  0  0  0  0  0  0  0
  1  2  1  0
  2  3  1  0
  3  4  1  0
  4  5  2  0
  5  6  1  0
  6  7  2  0
  6  8  1  0
  8  9  2  0
  9 10  1  0
  9 11  1  0
 11 12  1  0
 11 13  2  0
 13 14  1  0
 14 15  2  3
 15 16  1  0
 16 17  2  0
 17 18  1  0
 18 19  2  0
 18 20  1  0
 20 21  1  0
 20 22  1  0
 17 23  1  0
 23 24  1  0
 24 25  2  0
 24 26  1  0
 26 27  1  0
 26 28  1  0
 26 29  1  0
 23 30  2  0
 30 31  1  0
 30 32  1  0
 13 33  1  0
 33 34  1  0
 33 35  2  0
 35 36  1  0
  4 37  1  0
 37 38  1  0
 37 39  2  0
 39 40  1  0
 39 41  1  0
 41 42  1  0
 41  2  2  0
 35  8  1  0
 32 15  1  0
M  CHG  2   3  -1  32  -1
M  END
>  <UniqueID>  (39) 
35

>  <SMILES>  (39) 
CC(=O)c1c[n-]c(=Nc2ccc(C(=O)/N=c3/ccc(F)c[n-]3)cc2)nc1C(N)=O

>  <Energy>  (39) 
67.85650694961328

>  <Genealogy>  (39) 
CC(=O)c1c[n-]c(=Nc2ccc(C(=O)N=c3ccc(F)c[n-]3)cc2)nc1C(N)=O (protonated)
CC(=O)c1c[n-]c(=Nc2ccc(C(=O)/N=c3/ccc(F)c[n-]3)cc2)nc1C(N)=O (cis-trans isomerization)
CC(=O)c1c[n-]c(=Nc2ccc(C(=O)/N=c3/ccc(F)c[n-]3)cc2)nc1C(N)=O (3D coordinates assigned)
CC(=O)c1c[n-]c(=Nc2ccc(C(=O)/N=c3/ccc(F)c[n-]3)cc2)nc1C(N)=O (optimized conformer: 67.85650694961328 kcal/mol)

>  <smiles>  (39) 
CC(=O)c1c[nH]c(=Nc2ccc(C(=O)N=c3ccc(F)c[nH]3)cc2)nc1C(N)=O

>  <score_type>  (39) 
oracle

>  <origin>  (39) 
adg

>  <m_score__min__energy>  (39) 
-11.619999999999999

>  <m_primary>  (39) 
energy

$$$$
39:0
     RDKit          3D

 53 56  0  0  0  0  0  0  0  0999 V2000
   58.6630   29.4610   47.8390 C   0  0  0  0  0  0  0  0  0  0  0  0
   58.1040   29.3020   46.6280 C   0  0  0  0  0  0  0  0  0  0  0  0
   57.6910   28.0980   46.0320 C   0  0  0  0  0  0  0  0  0  0  0  0
   57.5770   26.8520   46.5340 C   0  0  0  0  0  0  0  0  0  0  0  0
   56.9710   25.6990   45.8440 C   0  0  0  0  0  0  0  0  0  0  0  0
   55.5850   25.6530   45.6280 C   0  0  0  0  0  0  0  0  0  0  0  0
   54.7740   26.7130   46.0140 O   0  0  0  0  0  0  0  0  0  0  0  0
   55.0280   24.5690   45.0280 N   0  0  0  0  0  0  0  0  0  0  0  0
   55.7880   23.5120   44.6450 C   0  0  0  0  0  0  0  0  0  0  0  0
   55.2490   22.5200   44.0880 O   0  0  0  0  0  0  0  0  0  0  0  0
   57.1270   23.5200   44.8670 N   0  0  0  0  0  0  0  0  0  0  0  0
   57.7330   24.5790   45.4640 C   0  0  0  0  0  0  0  0  0  0  0  0
   58.9740   24.5430   45.6760 O   0  0  0  0  0  0  0  0  0  0  0  0
   57.3720   28.4060   44.7190 C   0  0  0  0  0  0  0  0  0  0  0  0
   57.5390   29.7660   44.5740 C   0  0  0  0  0  0  0  0  0  0  0  0
   57.2900   30.5230   43.3030 C   0  0  0  0  0  0  0  0  0  0  0  0
   57.9840   30.3130   45.7280 N   0  0  0  0  0  0  0  0  0  0  0  0
   58.2880   31.7030   45.9350 C   0  0  0  0  0  0  0  0  0  0  0  0
   57.3570   32.6890   45.5810 C   0  0  0  0  0  0  0  0  0  0  0  0
   57.6600   34.0390   45.7670 C   0  0  0  0  0  0  0  0  0  0  0  0
   58.8910   34.4150   46.3080 C   0  0  0  0  0  0  0  0  0  0  0  0
   59.8350   33.4390   46.6740 C   0  0  0  0  0  0  0  0  0  0  0  0
   61.1140   33.8270   47.2130 N   0  0  0  0  0  0  0  0  0  0  0  0
   62.3160   33.8400   46.3700 C   0  0  0  0  0  0  0  0  0  0  0  0
   63.4670   33.0700   47.0490 C   0  0  0  0  0  0  0  0  0  0  0  0
   63.3330   33.0210   48.5260 N   0  0  0  0  0  0  0  0  0  0  0  0
   64.6080   32.6960   49.1990 C   0  0  0  0  0  0  0  0  0  0  0  0
   64.8190   33.4750   50.4340 C   0  0  0  0  0  0  0  0  0  0  0  0
   64.9840   34.0850   51.4030 N   0  0  0  0  0  0  0  0  0  0  0  0
   62.6810   34.2210   49.0820 C   0  0  0  0  0  0  0  0  0  0  0  0
   61.2230   34.2580   48.6130 C   0  0  0  0  0  0  0  0  0  0  0  0
   59.5250   32.0830   46.4790 C   0  0  0  0  0  0  0  0  0  0  0  0
   58.9418   30.4661   48.1884 H   0  0  0  0  0  0  0  0  0  0  0  0
   58.8420   28.5861   48.4813 H   0  0  0  0  0  0  0  0  0  0  0  0
   57.9705   26.6809   47.5468 H   0  0  0  0  0  0  0  0  0  0  0  0
   57.0474   27.6994   43.9409 H   0  0  0  0  0  0  0  0  0  0  0  0
   56.9546   31.5427   43.5433 H   0  0  0  0  0  0  0  0  0  0  0  0
   58.2196   30.5713   42.7169 H   0  0  0  0  0  0  0  0  0  0  0  0
   56.5132   30.0101   42.7169 H   0  0  0  0  0  0  0  0  0  0  0  0
   56.3851   32.3984   45.1555 H   0  0  0  0  0  0  0  0  0  0  0  0
   56.9264   34.8091   45.4864 H   0  0  0  0  0  0  0  0  0  0  0  0
   59.1238   35.4808   46.4488 H   0  0  0  0  0  0  0  0  0  0  0  0
   62.0849   33.3663   45.4045 H   0  0  0  0  0  0  0  0  0  0  0  0
   62.6299   34.8833   46.2181 H   0  0  0  0  0  0  0  0  0  0  0  0
   63.4770   32.0402   46.6626 H   0  0  0  0  0  0  0  0  0  0  0  0
   64.4023   33.6012   46.8186 H   0  0  0  0  0  0  0  0  0  0  0  0
   64.6075   31.6261   49.4544 H   0  0  0  0  0  0  0  0  0  0  0  0
   65.4224   32.9502   48.5047 H   0  0  0  0  0  0  0  0  0  0  0  0
   62.7142   34.1833   50.1809 H   0  0  0  0  0  0  0  0  0  0  0  0
   63.2060   35.1236   48.7361 H   0  0  0  0  0  0  0  0  0  0  0  0
   60.6238   33.5859   49.2449 H   0  0  0  0  0  0  0  0  0  0  0  0
   60.8529   35.2907   48.6937 H   0  0  0  0  0  0  0  0  0  0  0  0
   60.2587   31.3114   46.7552 H   0  0  0  0  0  0  0  0  0  0  0  0
  1  2  2  0
  2  3  1  0
  3  4  2  3
  4  5  1  0
  5  6  2  0
  6  7  1  0
  6  8  1  0
  8  9  1  0
  9 10  2  0
  9 11  1  0
 11 12  1  0
 12 13  2  0
  3 14  1  0
 14 15  2  0
 15 16  1  0
 15 17  1  0
 17 18  1  0
 18 19  2  0
 19 20  1  0
 20 21  2  0
 21 22  1  0
 22 23  1  0
 23 24  1  0
 24 25  1  0
 25 26  1  0
 26 27  1  0
 27 28  1  0
 28 29  3  0
 26 30  1  0
 30 31  1  0
 22 32  2  0
 17  2  1  0
 32 18  1  0
 12  5  1  0
 31 23  1  0
  1 33  1  0
  1 34  1  0
  4 35  1  0
 14 36  1  0
 16 37  1  0
 16 38  1  0
 16 39  1  0
 19 40  1  0
 20 41  1  0
 21 42  1  0
 24 43  1  0
 24 44  1  0
 25 45  1  0
 25 46  1  0
 27 47  1  0
 27 48  1  0
 30 49  1  0
 30 50  1  0
 31 51  1  0
 31 52  1  0
 32 53  1  0
M  CHG  3   7  -1   8  -1  11  -1
M  END
>  <UniqueID>  (40) 
36

>  <SMILES>  (40) 
C=c1c(=Cc2c([O-])[n-]c(=O)[n-]c2=O)cc(C)n1-c1cccc(N2CCN(CC#N)CC2)c1

>  <Energy>  (40) 
116.16096787983668

>  <Genealogy>  (40) 
C=c1c(=Cc2c([O-])[n-]c(=O)[n-]c2=O)cc(C)n1-c1cccc(N2CCN(CC#N)CC2)c1 (protonated)
C=c1c(=Cc2c([O-])[n-]c(=O)[n-]c2=O)cc(C)n1-c1cccc(N2CCN(CC#N)CC2)c1 (3D coordinates assigned)
C=c1c(=Cc2c([O-])[n-]c(=O)[n-]c2=O)cc(C)n1-c1cccc(N2CCN(CC#N)CC2)c1 (nonaromatic ring conformer: 116.16096787983668 kcal/mol)

>  <smiles>  (40) 
C=c1c(=Cc2c(O)[nH]c(=O)[nH]c2=O)cc(C)n1-c1cccc(N2CCN(CC#N)CC2)c1

>  <score_type>  (40) 
oracle

>  <origin>  (40) 
adg

>  <m_score__min__energy>  (40) 
-16.77

>  <m_primary>  (40) 
energy

$$$$
40:0
     RDKit          3D

 54 57  0  0  0  0  0  0  0  0999 V2000
   60.7390   31.6030   50.7760 H   0  0  0  0  0  0  0  0  0  0  0  0
   60.4890   32.5120   50.4660 O   0  0  0  0  0  0  0  0  0  0  0  0
   59.2700   32.8140   51.0870 C   0  0  0  0  0  0  0  0  0  0  0  0
   58.9613   33.8310   50.8034 H   0  0  0  0  0  0  0  0  0  0  0  0
   59.3997   32.7477   52.1773 H   0  0  0  0  0  0  0  0  0  0  0  0
   58.1830   31.8150   50.6530 C   0  0  1  0  0  0  0  0  0  0  0  0
   57.8749   32.1180   49.6414 H   0  0  0  0  0  0  0  0  0  0  0  0
   58.6900   30.4450   50.6880 N   0  0  0  0  0  0  0  0  0  0  0  0
   59.5700   29.8970   49.6840 C   0  0  0  0  0  0  0  0  0  0  0  0
   60.7540   29.5950   49.9900 O   0  0  0  0  0  0  0  0  0  0  0  0
   59.1220   29.6710   48.2940 C   0  0  0  0  0  0  0  0  0  0  0  0
   58.8190   28.4300   47.7750 C   0  0  0  0  0  0  0  0  0  0  0  0
   59.0183   27.4571   48.2480 H   0  0  0  0  0  0  0  0  0  0  0  0
   58.2180   28.6390   46.5490 C   0  0  0  0  0  0  0  0  0  0  0  0
   57.7010   27.6280   45.8210 C   0  0  0  0  0  0  0  0  0  0  0  0
   57.6482   27.7725   44.7318 H   0  0  0  0  0  0  0  0  0  0  0  0
   57.2010   26.3490   46.3510 C   0  0  0  0  0  0  0  0  0  0  0  0
   57.9820   25.3180   46.7210 N   0  0  0  0  0  0  0  0  0  0  0  0
   57.0940   24.3350   46.9870 C   0  0  0  0  0  0  0  0  0  0  0  0
   57.4450   23.1950   47.3870 O   0  0  0  0  0  0  0  0  0  0  0  0
   55.8020   24.6680   46.7800 N   0  0  0  0  0  0  0  0  0  0  0  0
   55.8910   25.9400   46.3620 C   0  0  0  0  0  0  0  0  0  0  0  0
   54.7960   26.7120   45.9930 O   0  0  0  0  0  0  0  0  0  0  0  0
   58.2250   30.0270   46.3380 C   0  0  0  0  0  0  0  0  0  0  0  0
   57.8200   30.6670   45.2300 C   0  0  0  0  0  0  0  0  0  0  0  0
   57.8722   31.7646   45.1787 H   0  0  0  0  0  0  0  0  0  0  0  0
   57.4359   30.0940   44.3732 H   0  0  0  0  0  0  0  0  0  0  0  0
   58.7880   30.6500   47.4130 N   0  0  0  0  0  0  0  0  0  0  0  0
   58.9620   32.0990   47.6410 C   0  0  0  0  0  0  0  0  0  0  0  0
   58.2349   32.6392   47.0168 H   0  0  0  0  0  0  0  0  0  0  0  0
   58.8054   32.2779   48.7150 H   0  0  0  0  0  0  0  0  0  0  0  0
   60.3590   32.6060   47.3020 C   0  0  0  0  0  0  0  0  0  0  0  0
   61.4490   31.7900   47.6700 C   0  0  0  0  0  0  0  0  0  0  0  0
   61.2594   30.8234   48.1597 H   0  0  0  0  0  0  0  0  0  0  0  0
   62.7620   32.1870   47.4240 C   0  0  0  0  0  0  0  0  0  0  0  0
   63.5985   31.5398   47.7263 H   0  0  0  0  0  0  0  0  0  0  0  0
   63.0140   33.4020   46.7960 C   0  0  0  0  0  0  0  0  0  0  0  0
   64.0510   33.7238   46.6200 H   0  0  0  0  0  0  0  0  0  0  0  0
   61.9560   34.2130   46.3890 C   0  0  0  0  0  0  0  0  0  0  0  0
   62.1685   35.1745   45.8987 H   0  0  0  0  0  0  0  0  0  0  0  0
   60.6160   33.8200   46.5960 C   0  0  0  0  0  0  0  0  0  0  0  0
   59.5130   34.7300   46.0950 C   0  0  0  0  0  0  0  0  0  0  0  0
   58.5240   34.8620   47.0470 F   0  0  0  0  0  0  0  0  0  0  0  0
   58.9150   34.2220   44.9540 F   0  0  0  0  0  0  0  0  0  0  0  0
   60.0390   35.9700   45.7870 F   0  0  0  0  0  0  0  0  0  0  0  0
   58.1270   29.6760   51.7890 C   0  0  0  0  0  0  0  0  0  0  0  0
   57.5007   28.8578   51.4041 H   0  0  0  0  0  0  0  0  0  0  0  0
   58.9132   29.2182   52.4073 H   0  0  0  0  0  0  0  0  0  0  0  0
   57.2840   30.6570   52.5900 C   0  0  0  0  0  0  0  0  0  0  0  0
   56.3398   30.1877   52.9034 H   0  0  0  0  0  0  0  0  0  0  0  0
   57.7953   30.9847   53.5071 H   0  0  0  0  0  0  0  0  0  0  0  0
   57.0140   31.8200   51.6420 C   0  0  0  0  0  0  0  0  0  0  0  0
   56.0610   31.6725   51.1128 H   0  0  0  0  0  0  0  0  0  0  0  0
   56.9352   32.7768   52.1789 H   0  0  0  0  0  0  0  0  0  0  0  0
  1  2  1  0
  2  3  1  0
  3  4  1  0
  3  5  1  0
  3  6  1  0
  6  7  1  6
  6  8  1  0
  8  9  1  0
  9 10  2  0
  9 11  1  0
 11 12  2  0
 12 13  1  0
 12 14  1  0
 14 15  2  0
 15 16  1  0
 15 17  1  0
 17 18  1  0
 18 19  1  0
 19 20  2  0
 19 21  1  0
 21 22  1  0
 22 23  1  0
 14 24  1  0
 24 25  2  0
 25 26  1  0
 25 27  1  0
 24 28  1  0
 28 29  1  0
 29 30  1  0
 29 31  1  0
 29 32  1  0
 32 33  2  0
 33 34  1  0
 33 35  1  0
 35 36  1  0
 35 37  2  0
 37 38  1  0
 37 39  1  0
 39 40  1  0
 39 41  2  0
 41 42  1  0
 42 43  1  0
 42 44  1  0
 42 45  1  0
  8 46  1  0
 46 47  1  0
 46 48  1  0
 46 49  1  0
 49 50  1  0
 49 51  1  0
 49 52  1  0
 52 53  1  0
 52 54  1  0
 52  6  1  0
 28 11  1  0
 41 32  1  0
 22 17  2  0
M  CHG  3  18  -1  21  -1  23  -1
M  END
>  <UniqueID>  (41) 
37

>  <SMILES>  (41) 
C=c1/c(=C\c2[n-]c(=O)[n-]c2[O-])cc(C(=O)N2CCC[C@H]2CO)n1Cc1ccccc1C(F)(F)F

>  <Energy>  (41) 
136.21441099264467

>  <Genealogy>  (41) 
C=c1c(=Cc2[n-]c(=O)[n-]c2[O-])cc(C(=O)N2CCCC2CO)n1Cc1ccccc1C(F)(F)F (protonated)
C=c1c(=Cc2[n-]c(=O)[n-]c2[O-])cc(C(=O)N2CCC[C@H]2CO)n1Cc1ccccc1C(F)(F)F (chirality)
C=c1/c(=C\c2[n-]c(=O)[n-]c2[O-])cc(C(=O)N2CCC[C@H]2CO)n1Cc1ccccc1C(F)(F)F (cis-trans isomerization)
C=c1/c(=C\c2[n-]c(=O)[n-]c2[O-])cc(C(=O)N2CCC[C@H]2CO)n1Cc1ccccc1C(F)(F)F (3D coordinates assigned)
C=c1/c(=C\c2[n-]c(=O)[n-]c2[O-])cc(C(=O)N2CCC[C@H]2CO)n1Cc1ccccc1C(F)(F)F (nonaromatic ring conformer: 136.21441099264467 kcal/mol)

>  <smiles>  (41) 
C=c1c(=Cc2[nH]c(=O)[nH]c2O)cc(C(=O)N2CCCC2CO)n1Cc1ccccc1C(F)(F)F

>  <score_type>  (41) 
oracle

>  <origin>  (41) 
adg

>  <m_score__min__energy>  (41) 
-16.420000000000002

>  <m_primary>  (41) 
energy

$$$$
41:0
     RDKit          3D

 66 70  0  0  1  0  0  0  0  0999 V2000
   62.0370   32.7700   49.2690 O   0  0  0  0  0  0  0  0  0  0  0  0
   62.8890   32.9720   48.3960 C   0  0  0  0  0  0  0  0  0  0  0  0
   62.4090   33.4010   47.1170 N   0  0  0  0  0  0  0  0  0  0  0  0
   60.9930   33.5790   46.8950 C   0  0  0  0  0  0  0  0  0  0  0  0
   60.3810   34.7200   47.3840 C   0  0  0  0  0  0  0  0  0  0  0  0
   59.0210   34.8430   47.1460 C   0  0  0  0  0  0  0  0  0  0  0  0
   58.2990   33.8970   46.4610 C   0  0  0  0  0  0  0  0  0  0  0  0
   58.9130   32.7680   45.9790 C   0  0  0  0  0  0  0  0  0  0  0  0
   58.1890   31.7360   45.2470 C   0  0  0  0  0  0  0  0  0  0  0  0
   56.9040   31.9570   44.8930 N   0  0  0  0  0  0  0  0  0  0  0  0
   56.1440   31.0900   44.2260 C   0  0  0  0  0  0  0  0  0  0  0  0
   56.7100   29.8850   43.8720 C   0  0  0  0  0  0  0  0  0  0  0  0
   55.9860   28.9870   43.2020 F   0  0  0  0  0  0  0  0  0  0  0  0
   58.0130   29.6120   44.2090 C   0  0  0  0  0  0  0  0  0  0  0  0
   58.6190   28.5120   43.9180 N   0  0  0  0  0  0  0  0  0  0  0  0
   58.1200   27.2870   44.5090 C   0  0  0  0  0  0  0  0  0  0  0  0
   59.2240   26.8550   45.4890 C   0  0  0  0  0  0  0  0  0  0  0  0
   59.4470   27.8900   46.5290 C   0  0  0  0  0  0  0  0  0  0  0  0
   60.5770   28.6720   46.4040 C   0  0  0  0  0  0  0  0  0  0  0  0
   60.8600   29.6490   47.3170 C   0  0  0  0  0  0  0  0  0  0  0  0
   60.0060   29.8670   48.3910 C   0  0  0  0  0  0  0  0  0  0  0  0
   60.2760   30.8450   49.3170 O   0  0  0  0  0  0  0  0  0  0  0  0
   58.8920   29.0840   48.4990 C   0  0  0  0  0  0  0  0  0  0  0  0
   58.5790   28.0810   47.5830 C   0  0  0  0  0  0  0  0  0  0  0  0
   58.7180   30.5590   44.8940 N   0  0  0  0  0  0  0  0  0  0  0  0
   60.2610   32.6320   46.2080 C   0  0  0  0  0  0  0  0  0  0  0  0
   64.2870   32.8120   48.5620 N   0  0  0  0  0  0  0  0  0  0  0  0
   64.9360   32.4060   49.7490 C   0  0  0  0  0  0  0  0  0  0  0  0
   66.0990   33.0130   50.1980 C   0  0  0  0  0  0  0  0  0  0  0  0
   66.7530   32.6140   51.3610 C   0  0  0  0  0  0  0  0  0  0  0  0
   66.2380   31.5830   52.1010 C   0  0  0  0  0  0  0  0  0  0  0  0
   65.0930   30.9840   51.6620 C   0  0  0  0  0  0  0  0  0  0  0  0
   64.4190   31.3800   50.4840 C   0  0  0  0  0  0  0  0  0  0  0  0
   63.2870   30.6440   50.2320 O   0  0  0  0  0  0  0  0  0  0  0  0
   62.4410   30.2160   51.2060 C   0  0  0  0  0  0  0  0  0  0  0  0
   61.8360   31.2210   51.9870 C   0  0  0  0  0  0  0  0  0  0  0  0
   60.9630   30.9060   53.0060 C   0  0  0  0  0  0  0  0  0  0  0  0
   60.6440   29.5990   53.3080 C   0  0  0  0  0  0  0  0  0  0  0  0
   61.2270   28.6010   52.5550 C   0  0  0  0  0  0  0  0  0  0  0  0
   62.0950   28.9350   51.5410 C   0  0  0  0  0  0  0  0  0  0  0  0
   63.0410   33.6000   46.3110 H   0  0  0  0  0  0  0  0  0  0  0  0
   60.9444   35.4890   47.9328 H   0  0  0  0  0  0  0  0  0  0  0  0
   58.4986   35.7353   47.5214 H   0  0  0  0  0  0  0  0  0  0  0  0
   57.2213   34.0449   46.2974 H   0  0  0  0  0  0  0  0  0  0  0  0
   55.1017   31.3277   43.9671 H   0  0  0  0  0  0  0  0  0  0  0  0
   57.1757   27.4693   45.0429 H   0  0  0  0  0  0  0  0  0  0  0  0
   57.9049   26.5158   43.7546 H   0  0  0  0  0  0  0  0  0  0  0  0
   58.9253   25.9147   45.9755 H   0  0  0  0  0  0  0  0  0  0  0  0
   60.1586   26.7175   44.9254 H   0  0  0  0  0  0  0  0  0  0  0  0
   61.2598   28.5068   45.5575 H   0  0  0  0  0  0  0  0  0  0  0  0
   61.7650   30.2634   47.2013 H   0  0  0  0  0  0  0  0  0  0  0  0
   61.2370   31.1540   49.5310 H   0  0  0  0  0  0  0  0  0  0  0  0
   58.2115   29.2525   49.3467 H   0  0  0  0  0  0  0  0  0  0  0  0
   57.6744   27.4656   47.6967 H   0  0  0  0  0  0  0  0  0  0  0  0
   59.6980   30.3420   45.1420 H   0  0  0  0  0  0  0  0  0  0  0  0
   60.7752   31.7360   45.8301 H   0  0  0  0  0  0  0  0  0  0  0  0
   64.8730   33.0430   47.7360 H   0  0  0  0  0  0  0  0  0  0  0  0
   66.5218   33.8426   49.6124 H   0  0  0  0  0  0  0  0  0  0  0  0
   67.6743   33.1220   51.6822 H   0  0  0  0  0  0  0  0  0  0  0  0
   66.7336   31.2470   53.0238 H   0  0  0  0  0  0  0  0  0  0  0  0
   64.6753   30.1548   52.2519 H   0  0  0  0  0  0  0  0  0  0  0  0
   62.0648   32.2767   51.7795 H   0  0  0  0  0  0  0  0  0  0  0  0
   60.5092   31.7179   53.5933 H   0  0  0  0  0  0  0  0  0  0  0  0
   59.9463   29.3596   54.1240 H   0  0  0  0  0  0  0  0  0  0  0  0
   60.9995   27.5452   52.7638 H   0  0  0  0  0  0  0  0  0  0  0  0
   62.5419   28.1154   50.9592 H   0  0  0  0  0  0  0  0  0  0  0  0
  1  2  2  0
  2  3  1  0
  3  4  1  0
  4  5  2  0
  5  6  1  0
  6  7  2  0
  7  8  1  0
  8  9  1  0
  9 10  2  0
 10 11  1  0
 11 12  2  0
 12 13  1  0
 12 14  1  0
 14 15  2  0
 15 16  1  0
 16 17  1  0
 17 18  1  0
 18 19  2  0
 19 20  1  0
 20 21  2  0
 21 22  1  0
 21 23  1  0
 23 24  2  0
 14 25  1  0
  8 26  2  0
  2 27  1  0
 27 28  1  0
 28 29  2  0
 29 30  1  0
 30 31  2  0
 31 32  1  0
 32 33  2  0
 33 34  1  0
 34 35  1  0
 35 36  2  0
 36 37  1  0
 37 38  2  0
 38 39  1  0
 39 40  2  0
 26  4  1  0
 33 28  1  0
 40 35  1  0
 25  9  1  0
 24 18  1  0
  3 41  1  0
  5 42  1  0
  6 43  1  0
  7 44  1  0
 11 45  1  0
 16 46  1  0
 16 47  1  0
 17 48  1  0
 17 49  1  0
 19 50  1  0
 20 51  1  0
 22 52  1  0
 23 53  1  0
 24 54  1  0
 25 55  1  0
 26 56  1  0
 27 57  1  0
 29 58  1  0
 30 59  1  0
 31 60  1  0
 32 61  1  0
 36 62  1  0
 37 63  1  0
 38 64  1  0
 39 65  1  0
 40 66  1  0
M  END
>  <smiles>  (42) 
O=C(Nc1cccc(-c2ncc(F)c(=NCCc3ccc(O)cc3)[nH]2)c1)Nc1ccccc1Oc1ccccc1

>  <score_type>  (42) 
oracle

>  <origin>  (42) 
adg

>  <m_score__min__energy>  (42) 
-9.2799999999999994

>  <m_primary>  (42) 
energy

$$$$
42:0
     RDKit          3D

 52 55  0  0  0  0  0  0  0  0999 V2000
   54.8714   31.1670   43.5791 H   0  0  0  0  0  0  0  0  0  0  0  0
   55.5190   30.4530   44.1090 C   0  0  0  0  0  0  0  0  0  0  0  0
   55.1500   29.2270   44.5280 N   0  0  0  0  0  0  0  0  0  0  0  0
   56.2700   28.7370   45.1030 C   0  0  0  0  0  0  0  0  0  0  0  0
   56.3120   27.5540   45.6390 N   0  0  0  0  0  0  0  0  0  0  0  0
   57.7620   26.8340   46.2640 S   0  0  0  0  0  0  0  0  0  0  0  0
   58.4180   26.0270   45.1760 O   0  0  0  0  0  0  0  0  0  0  0  0
   57.3900   25.9240   47.3980 O   0  0  0  0  0  0  0  0  0  0  0  0
   58.8810   28.0560   46.8650 C   0  0  0  0  0  0  0  0  0  0  0  0
   59.8360   28.6060   45.9960 C   0  0  0  0  0  0  0  0  0  0  0  0
   59.8591   28.2997   44.9398 H   0  0  0  0  0  0  0  0  0  0  0  0
   60.7580   29.5430   46.4720 C   0  0  0  0  0  0  0  0  0  0  0  0
   61.5092   29.9698   45.7911 H   0  0  0  0  0  0  0  0  0  0  0  0
   60.7260   29.9390   47.8160 C   0  0  0  0  0  0  0  0  0  0  0  0
   61.4566   30.6740   48.1847 H   0  0  0  0  0  0  0  0  0  0  0  0
   59.7710   29.4070   48.6960 C   0  0  0  0  0  0  0  0  0  0  0  0
   59.7600   29.8640   50.0550 N   0  0  0  0  0  0  0  0  0  0  0  0
   58.5620   30.8980   50.7670 S   0  0  0  0  0  0  0  0  0  0  0  0
   58.0560   31.8500   49.7210 O   0  0  0  0  0  0  0  0  0  0  0  0
   57.4070   30.0730   51.2700 O   0  0  0  0  0  0  0  0  0  0  0  0
   59.2770   31.8410   52.1000 C   0  0  0  0  0  0  0  0  0  0  0  0
   58.9555   31.4170   53.0627 H   0  0  0  0  0  0  0  0  0  0  0  0
   60.3741   31.8013   52.0299 H   0  0  0  0  0  0  0  0  0  0  0  0
   58.9427   32.8866   52.0299 H   0  0  0  0  0  0  0  0  0  0  0  0
   58.8530   28.4530   48.2140 C   0  0  0  0  0  0  0  0  0  0  0  0
   58.1097   28.0159   48.8970 H   0  0  0  0  0  0  0  0  0  0  0  0
   57.3250   29.5800   45.0740 N   0  0  0  0  0  0  0  0  0  0  0  0
   56.8380   30.6710   44.4500 C   0  0  0  0  0  0  0  0  0  0  0  0
   57.6230   31.8830   44.1450 C   0  0  0  0  0  0  0  0  0  0  0  0
   57.8990   32.1420   42.9420 O   0  0  0  0  0  0  0  0  0  0  0  0
   58.0990   32.7930   45.2070 C   0  0  0  0  0  0  0  0  0  0  0  0
   57.7490   34.1210   45.3770 C   0  0  0  0  0  0  0  0  0  0  0  0
   56.9010   34.8610   44.5620 O   0  0  0  0  0  0  0  0  0  0  0  0
   58.3740   34.5830   46.5120 C   0  0  0  0  0  0  0  0  0  0  0  0
   58.2957   35.6034   46.9154 H   0  0  0  0  0  0  0  0  0  0  0  0
   59.0980   33.5810   47.0490 N   0  0  0  0  0  0  0  0  0  0  0  0
   59.8210   33.6260   48.3150 C   0  0  0  0  0  0  0  0  0  0  0  0
   59.6379   34.5939   48.8045 H   0  0  0  0  0  0  0  0  0  0  0  0
   59.4686   32.8080   48.9605 H   0  0  0  0  0  0  0  0  0  0  0  0
   61.2960   33.4620   48.0730 C   0  0  0  0  0  0  0  0  0  0  0  0
   62.1190   32.8880   49.0580 C   0  0  0  0  0  0  0  0  0  0  0  0
   61.6864   32.5670   50.0171 H   0  0  0  0  0  0  0  0  0  0  0  0
   63.4870   32.7250   48.8190 C   0  0  0  0  0  0  0  0  0  0  0  0
   64.1310   32.2851   49.5947 H   0  0  0  0  0  0  0  0  0  0  0  0
   64.0370   33.1190   47.5990 C   0  0  0  0  0  0  0  0  0  0  0  0
   65.1153   32.9987   47.4181 H   0  0  0  0  0  0  0  0  0  0  0  0
   63.2200   33.6660   46.6070 C   0  0  0  0  0  0  0  0  0  0  0  0
   63.6542   33.9664   45.6420 H   0  0  0  0  0  0  0  0  0  0  0  0
   61.8540   33.8320   46.8380 C   0  0  0  0  0  0  0  0  0  0  0  0
   61.2121   34.2539   46.0507 H   0  0  0  0  0  0  0  0  0  0  0  0
   58.9280   32.4870   46.2750 C   0  0  0  0  0  0  0  0  0  0  0  0
   59.3794   31.5018   46.4638 H   0  0  0  0  0  0  0  0  0  0  0  0
  1  2  1  0
  2  3  1  0
  3  4  1  0
  4  5  2  0
  5  6  1  0
  6  7  2  0
  6  8  2  0
  6  9  1  0
  9 10  2  0
 10 11  1  0
 10 12  1  0
 12 13  1  0
 12 14  2  0
 14 15  1  0
 14 16  1  0
 16 17  1  0
 17 18  1  0
 18 19  2  0
 18 20  2  0
 18 21  1  0
 21 22  1  0
 21 23  1  0
 21 24  1  0
 16 25  2  0
 25 26  1  0
  4 27  1  0
 27 28  1  0
 28 29  1  0
 29 30  2  0
 29 31  1  0
 31 32  1  0
 32 33  1  0
 32 34  2  0
 34 35  1  0
 34 36  1  0
 36 37  1  0
 37 38  1  0
 37 39  1  0
 37 40  1  0
 40 41  2  0
 41 42  1  0
 41 43  1  0
 43 44  1  0
 43 45  2  0
 45 46  1  0
 45 47  1  0
 47 48  1  0
 47 49  2  0
 49 50  1  0
 36 51  1  0
 51 52  1  0
 28  2  2  0
 51 31  2  0
 25  9  1  0
 49 40  1  0
M  CHG  4   3  -1  17  -1  27  -1  33  -1
M  END
>  <UniqueID>  (43) 
38

>  <SMILES>  (43) 
CS(=O)(=O)[N-]c1cccc(S(=O)(=O)/N=c2/[n-]cc(C(=O)c3cn(Cc4ccccc4)cc3[O-])[n-]2)c1

>  <Energy>  (43) 
108.26318288779436

>  <Genealogy>  (43) 
CS(=O)(=O)[N-]c1cccc(S(=O)(=O)N=c2[n-]cc(C(=O)c3cn(Cc4ccccc4)cc3[O-])[n-]2)c1 (protonated)
CS(=O)(=O)[N-]c1cccc(S(=O)(=O)/N=c2/[n-]cc(C(=O)c3cn(Cc4ccccc4)cc3[O-])[n-]2)c1 (cis-trans isomerization)
CS(=O)(=O)[N-]c1cccc(S(=O)(=O)/N=c2/[n-]cc(C(=O)c3cn(Cc4ccccc4)cc3[O-])[n-]2)c1 (3D coordinates assigned)
CS(=O)(=O)[N-]c1cccc(S(=O)(=O)/N=c2/[n-]cc(C(=O)c3cn(Cc4ccccc4)cc3[O-])[n-]2)c1 (optimized conformer: 108.26318288779436 kcal/mol)

>  <smiles>  (43) 
CS(=O)(=O)Nc1cccc(S(=O)(=O)N=c2[nH]cc(C(=O)c3cn(Cc4ccccc4)cc3O)[nH]2)c1

>  <score_type>  (43) 
oracle

>  <origin>  (43) 
adg

>  <m_score__min__energy>  (43) 
-18.010000000000002

>  <m_primary>  (43) 
energy

$$$$
43:0
     RDKit          3D

 39 41  0  0  0  0  0  0  0  0999 V2000
   54.7710   26.3320   45.9660 N   0  0  0  0  0  0  0  0  0  0  0  0
   56.2720   25.4940   46.1520 S   0  0  0  0  0  0  0  0  0  0  0  0
   56.3160   24.8420   47.5040 O   0  0  0  0  0  0  0  0  0  0  0  0
   56.3690   24.4380   45.0850 O   0  0  0  0  0  0  0  0  0  0  0  0
   57.6140   26.6240   46.0020 C   0  0  0  0  0  0  0  0  0  0  0  0
   58.2260   26.8230   44.7580 C   0  0  0  0  0  0  0  0  0  0  0  0
   59.2870   27.7230   44.6360 C   0  0  0  0  0  0  0  0  0  0  0  0
   59.7390   28.4320   45.7510 C   0  0  0  0  0  0  0  0  0  0  0  0
   59.1300   28.2510   47.0060 C   0  0  0  0  0  0  0  0  0  0  0  0
   59.6060   29.0050   48.1900 C   0  0  0  0  0  0  0  0  0  0  0  0
   60.2350   28.4090   49.1070 O   0  0  0  0  0  0  0  0  0  0  0  0
   59.3520   30.4110   48.3000 N   0  0  0  0  0  0  0  0  0  0  0  0
   60.0680   31.4260   47.5370 C   0  0  0  0  0  0  0  0  0  0  0  0
   59.1810   31.9910   46.4610 C   0  0  0  0  0  0  0  0  0  0  0  0
   59.2620   33.3500   46.1320 C   0  0  0  0  0  0  0  0  0  0  0  0
   58.4240   33.8870   45.1540 C   0  0  0  0  0  0  0  0  0  0  0  0
   57.4950   33.0730   44.5010 C   0  0  0  0  0  0  0  0  0  0  0  0
   57.3880   31.7090   44.8170 C   0  0  0  0  0  0  0  0  0  0  0  0
   56.3450   30.8930   44.0700 C   0  0  0  0  0  0  0  0  0  0  0  0
   56.1400   29.4520   44.5160 C   0  0  0  0  0  0  0  0  0  0  0  0
   56.8450   29.7500   43.1970 C   0  0  0  0  0  0  0  0  0  0  0  0
   58.2420   31.1750   45.8070 C   0  0  0  0  0  0  0  0  0  0  0  0
   58.0630   27.3410   47.1200 C   0  0  0  0  0  0  0  0  0  0  0  0
   54.7550   27.0910   46.6840 H   0  0  0  0  0  0  0  0  0  0  0  0
   57.8706   26.2698   43.8761 H   0  0  0  0  0  0  0  0  0  0  0  0
   59.7682   27.8739   43.6584 H   0  0  0  0  0  0  0  0  0  0  0  0
   60.5771   29.1369   45.6471 H   0  0  0  0  0  0  0  0  0  0  0  0
   60.3797   32.2358   48.2130 H   0  0  0  0  0  0  0  0  0  0  0  0
   60.9508   30.9660   47.0689 H   0  0  0  0  0  0  0  0  0  0  0  0
   59.9886   33.9961   46.6463 H   0  0  0  0  0  0  0  0  0  0  0  0
   58.4950   34.9541   44.8965 H   0  0  0  0  0  0  0  0  0  0  0  0
   56.8399   33.5056   43.7305 H   0  0  0  0  0  0  0  0  0  0  0  0
   55.6874   31.7606   43.9123 H   0  0  0  0  0  0  0  0  0  0  0  0
   56.7112   29.0530   45.3672 H   0  0  0  0  0  0  0  0  0  0  0  0
   55.2719   28.8460   44.8147 H   0  0  0  0  0  0  0  0  0  0  0  0
   57.9249   29.5662   43.0965 H   0  0  0  0  0  0  0  0  0  0  0  0
   56.6965   29.4482   42.1497 H   0  0  0  0  0  0  0  0  0  0  0  0
   58.1715   30.1090   46.0690 H   0  0  0  0  0  0  0  0  0  0  0  0
   57.5767   27.1907   48.0951 H   0  0  0  0  0  0  0  0  0  0  0  0
  1  2  1  0
  2  3  2  0
  2  4  2  0
  2  5  1  0
  5  6  2  0
  6  7  1  0
  7  8  2  0
  8  9  1  0
  9 10  1  0
 10 11  2  0
 10 12  1  0
 12 13  1  0
 13 14  1  0
 14 15  2  0
 15 16  1  0
 16 17  2  0
 17 18  1  0
 18 19  1  0
 19 20  1  0
 20 21  1  0
 18 22  2  0
  9 23  2  0
 23  5  1  0
 22 14  1  0
 21 19  1  0
  1 24  1  0
  6 25  1  0
  7 26  1  0
  8 27  1  0
 13 28  1  0
 13 29  1  0
 15 30  1  0
 16 31  1  0
 17 32  1  0
 19 33  1  0
 20 34  1  0
 20 35  1  0
 21 36  1  0
 21 37  1  0
 22 38  1  0
 23 39  1  0
M  CHG  2   1  -1  12  -1
M  END
>  <UniqueID>  (44) 
39

>  <SMILES>  (44) 
[NH-]S(=O)(=O)c1cccc(C(=O)[N-]Cc2cccc(C3CC3)c2)c1

>  <Energy>  (44) 
306.0108111330887

>  <Genealogy>  (44) 
[NH-]S(=O)(=O)c1cccc(C(=O)[N-]Cc2cccc(C3CC3)c2)c1 (protonated)
[NH-]S(=O)(=O)c1cccc(C(=O)[N-]Cc2cccc(C3CC3)c2)c1 (3D coordinates assigned)
[NH-]S(=O)(=O)c1cccc(C(=O)[N-]Cc2cccc(C3CC3)c2)c1 (nonaromatic ring conformer: 306.0108111330887 kcal/mol)

>  <smiles>  (44) 
NS(=O)(=O)c1cccc(C(=O)NCc2cccc(C3CC3)c2)c1

>  <score_type>  (44) 
oracle

>  <origin>  (44) 
adg

>  <m_score__min__energy>  (44) 
-12.98

>  <m_primary>  (44) 
energy

$$$$
44:0
     RDKit          3D

 52 55  0  0  0  0  0  0  0  0999 V2000
   58.8189   34.7291   44.4301 H   0  0  0  0  0  0  0  0  0  0  0  0
   58.4200   33.7110   44.5500 C   0  0  0  0  0  0  0  0  0  0  0  0
   58.1140   32.6140   43.3090 S   0  0  0  0  0  0  0  0  0  0  0  0
   57.5560   31.4290   44.3590 C   0  0  0  0  0  0  0  0  0  0  0  0
   57.1060   30.2740   43.9660 N   0  0  0  0  0  0  0  0  0  0  0  0
   56.4180   29.3140   44.7850 C   0  0  0  0  0  0  0  0  0  0  0  0
   55.1640   29.3350   44.8830 O   0  0  0  0  0  0  0  0  0  0  0  0
   57.1460   28.3120   45.5020 N   0  0  0  0  0  0  0  0  0  0  0  0
   58.0160   27.2800   44.9310 C   0  0  1  0  0  0  0  0  0  0  0  0
   57.5496   26.2990   45.1042 H   0  0  0  0  0  0  0  0  0  0  0  0
   58.1470   27.4400   43.4100 C   0  0  0  0  0  0  0  0  0  0  0  0
   58.8293   28.2733   43.1864 H   0  0  0  0  0  0  0  0  0  0  0  0
   58.5477   26.5117   42.9768 H   0  0  0  0  0  0  0  0  0  0  0  0
   57.1579   27.6496   42.9768 H   0  0  0  0  0  0  0  0  0  0  0  0
   59.3830   27.2640   45.6400 C   0  0  0  0  0  0  0  0  0  0  0  0
   59.3709   26.4966   46.4280 H   0  0  0  0  0  0  0  0  0  0  0  0
   60.1617   27.0393   44.8963 H   0  0  0  0  0  0  0  0  0  0  0  0
   59.6740   28.5630   46.2420 N   0  0  0  0  0  0  0  0  0  0  0  0
   59.6740   28.8610   47.5550 C   0  0  0  0  0  0  0  0  0  0  0  0
   59.4452   28.1667   48.3770 H   0  0  0  0  0  0  0  0  0  0  0  0
   60.0120   30.1920   47.6860 C   0  0  0  0  0  0  0  0  0  0  0  0
   60.1330   30.9220   48.9940 C   0  0  0  0  0  0  0  0  0  0  0  0
   61.1750   31.2383   48.8387 H   0  0  0  0  0  0  0  0  0  0  0  0
   58.8250   31.5610   49.4450 C   0  0  0  0  0  0  0  0  0  0  0  0
   58.8326   32.5551   49.9158 H   0  0  0  0  0  0  0  0  0  0  0  0
   57.8677   31.7984   48.9580 H   0  0  0  0  0  0  0  0  0  0  0  0
   59.3800   30.3600   50.1960 C   0  0  0  0  0  0  0  0  0  0  0  0
   59.7891   30.4861   51.2093 H   0  0  0  0  0  0  0  0  0  0  0  0
   58.9905   29.3702   50.4763 H   0  0  0  0  0  0  0  0  0  0  0  0
   60.2050   30.7190   46.4590 N   0  0  0  0  0  0  0  0  0  0  0  0
   60.4490   31.7020   46.2070 H   0  0  0  0  0  0  0  0  0  0  0  0
   60.0000   29.7040   45.5990 C   0  0  0  0  0  0  0  0  0  0  0  0
   60.0874   29.7935   44.5061 H   0  0  0  0  0  0  0  0  0  0  0  0
   57.5910   31.8350   45.6470 N   0  0  0  0  0  0  0  0  0  0  0  0
   58.0780   33.1000   45.7570 C   0  0  0  0  0  0  0  0  0  0  0  0
   58.1870   33.7830   47.0860 C   0  0  0  0  0  0  0  0  0  0  0  0
   57.2203   34.2451   47.3347 H   0  0  0  0  0  0  0  0  0  0  0  0
   58.4600   33.0360   47.8459 H   0  0  0  0  0  0  0  0  0  0  0  0
   59.2690   34.8680   47.0510 C   0  0  0  0  0  0  0  0  0  0  0  0
   59.3216   35.2960   46.0390 H   0  0  0  0  0  0  0  0  0  0  0  0
   59.0135   35.6527   47.7783 H   0  0  0  0  0  0  0  0  0  0  0  0
   60.6090   34.2800   47.4130 C   0  0  0  0  0  0  0  0  0  0  0  0
   61.5030   33.8750   46.4050 C   0  0  0  0  0  0  0  0  0  0  0  0
   61.2089   33.9539   45.3480 H   0  0  0  0  0  0  0  0  0  0  0  0
   62.7630   33.3730   46.7410 C   0  0  0  0  0  0  0  0  0  0  0  0
   63.4534   33.0479   45.9488 H   0  0  0  0  0  0  0  0  0  0  0  0
   63.1480   33.2830   48.0820 C   0  0  0  0  0  0  0  0  0  0  0  0
   64.1402   32.8871   48.3445 H   0  0  0  0  0  0  0  0  0  0  0  0
   62.2700   33.6970   49.0900 C   0  0  0  0  0  0  0  0  0  0  0  0
   62.5736   33.6283   50.1450 H   0  0  0  0  0  0  0  0  0  0  0  0
   61.0070   34.1980   48.7580 C   0  0  0  0  0  0  0  0  0  0  0  0
   60.3226   34.5291   49.5530 H   0  0  0  0  0  0  0  0  0  0  0  0
  1  2  1  0
  2  3  1  0
  3  4  1  0
  4  5  2  0
  5  6  1  0
  6  7  2  0
  6  8  1  0
  8  9  1  0
  9 10  1  6
  9 11  1  0
 11 12  1  0
 11 13  1  0
 11 14  1  0
  9 15  1  0
 15 16  1  0
 15 17  1  0
 15 18  1  0
 18 19  1  0
 19 20  1  0
 19 21  2  0
 21 22  1  0
 22 23  1  0
 22 24  1  0
 24 25  1  0
 24 26  1  0
 24 27  1  0
 27 28  1  0
 27 29  1  0
 21 30  1  0
 30 31  1  0
 30 32  2  0
 32 33  1  0
  4 34  1  0
 34 35  1  0
 35 36  1  0
 36 37  1  0
 36 38  1  0
 36 39  1  0
 39 40  1  0
 39 41  1  0
 39 42  1  0
 42 43  2  0
 43 44  1  0
 43 45  1  0
 45 46  1  0
 45 47  2  0
 47 48  1  0
 47 49  1  0
 49 50  1  0
 49 51  2  0
 51 52  1  0
 35  2  2  0
 51 42  1  0
 32 18  1  0
 27 22  1  0
M  CHG  3   8  -1  30   1  34  -1
M  END
>  <UniqueID>  (45) 
40

>  <SMILES>  (45) 
C[C@@H](Cn1c[nH+]c(C2CC2)c1)[N-]C(=O)/N=c1\[n-]c(CCc2ccccc2)cs1

>  <Energy>  (45) 
372.16872893332555

>  <Genealogy>  (45) 
CC(Cn1c[nH+]c(C2CC2)c1)[N-]C(=O)N=c1[n-]c(CCc2ccccc2)cs1 (protonated)
C[C@@H](Cn1c[nH+]c(C2CC2)c1)[N-]C(=O)N=c1[n-]c(CCc2ccccc2)cs1 (chirality)
C[C@@H](Cn1c[nH+]c(C2CC2)c1)[N-]C(=O)/N=c1\[n-]c(CCc2ccccc2)cs1 (cis-trans isomerization)
C[C@@H](Cn1c[nH+]c(C2CC2)c1)[N-]C(=O)/N=c1\[n-]c(CCc2ccccc2)cs1 (3D coordinates assigned)
C[C@@H](Cn1c[nH+]c(C2CC2)c1)[N-]C(=O)/N=c1\[n-]c(CCc2ccccc2)cs1 (nonaromatic ring conformer: 372.16872893332555 kcal/mol)

>  <smiles>  (45) 
CC(Cn1cnc(C2CC2)c1)NC(=O)N=c1[nH]c(CCc2ccccc2)cs1

>  <score_type>  (45) 
oracle

>  <origin>  (45) 
adg

>  <m_score__min__energy>  (45) 
-10.16

>  <m_primary>  (45) 
energy

$$$$
45:0
     RDKit          3D

 49 51  0  0  0  0  0  0  0  0999 V2000
   55.3220   24.5310   46.7510 O   0  0  0  0  0  0  0  0  0  0  0  0
   55.8960   25.5410   46.2640 C   0  0  0  0  0  0  0  0  0  0  0  0
   55.1570   26.6920   46.0230 O   0  0  0  0  0  0  0  0  0  0  0  0
   57.3380   25.4980   45.9670 C   0  0  0  0  0  0  0  0  0  0  0  0
   58.0430   24.5720   46.4500 O   0  0  0  0  0  0  0  0  0  0  0  0
   58.0000   26.5600   45.1310 C   0  0  0  0  0  0  0  0  0  0  0  0
   59.4490   26.8110   45.5670 C   0  0  0  0  0  0  0  0  0  0  0  0
   59.5440   27.9770   46.5160 C   0  0  0  0  0  0  0  0  0  0  0  0
   59.0070   27.8860   47.8100 C   0  0  0  0  0  0  0  0  0  0  0  0
   58.9730   29.0110   48.6400 C   0  0  0  0  0  0  0  0  0  0  0  0
   59.4840   30.2380   48.1910 C   0  0  0  0  0  0  0  0  0  0  0  0
   59.2870   31.4840   49.0140 C   0  0  0  0  0  0  0  0  0  0  0  0
   59.5560   32.6660   48.1810 N   0  0  0  0  0  0  0  0  0  0  0  0
   58.7650   32.8920   47.0900 C   0  0  0  0  0  0  0  0  0  0  0  0
   58.8810   34.0710   46.3490 C   0  0  0  0  0  0  0  0  0  0  0  0
   57.9070   34.3540   45.2330 C   0  0  0  0  0  0  0  0  0  0  0  0
   57.6920   33.1080   44.4130 C   0  0  0  0  0  0  0  0  0  0  0  0
   58.0810   33.0730   43.0650 C   0  0  0  0  0  0  0  0  0  0  0  0
   57.8350   31.9370   42.2900 C   0  0  0  0  0  0  0  0  0  0  0  0
   57.1850   30.8330   42.8480 C   0  0  0  0  0  0  0  0  0  0  0  0
   56.7710   30.8550   44.1900 C   0  0  0  0  0  0  0  0  0  0  0  0
   56.0580   29.6940   44.7700 C   0  0  0  0  0  0  0  0  0  0  0  0
   56.5920   29.0020   45.6770 O   0  0  0  0  0  0  0  0  0  0  0  0
   54.7860   29.3550   44.3200 O   0  0  0  0  0  0  0  0  0  0  0  0
   57.0300   31.9990   44.9670 C   0  0  0  0  0  0  0  0  0  0  0  0
   59.8480   35.0040   46.7490 C   0  0  0  0  0  0  0  0  0  0  0  0
   59.9930   36.0910   46.1280 O   0  0  0  0  0  0  0  0  0  0  0  0
   60.6340   34.7410   47.8210 N   0  0  0  0  0  0  0  0  0  0  0  0
   60.4980   33.5970   48.5400 C   0  0  0  0  0  0  0  0  0  0  0  0
   61.2400   33.4140   49.5430 O   0  0  0  0  0  0  0  0  0  0  0  0
   60.0430   30.3220   46.9070 C   0  0  0  0  0  0  0  0  0  0  0  0
   60.0730   29.2000   46.0760 C   0  0  0  0  0  0  0  0  0  0  0  0
   57.9959   26.2384   44.0791 H   0  0  0  0  0  0  0  0  0  0  0  0
   57.4377   27.4963   45.2618 H   0  0  0  0  0  0  0  0  0  0  0  0
   59.8331   25.9100   46.0677 H   0  0  0  0  0  0  0  0  0  0  0  0
   60.0441   27.0443   44.6718 H   0  0  0  0  0  0  0  0  0  0  0  0
   58.6113   26.9258   48.1725 H   0  0  0  0  0  0  0  0  0  0  0  0
   58.5435   28.9335   49.6497 H   0  0  0  0  0  0  0  0  0  0  0  0
   58.2507   31.5216   49.3811 H   0  0  0  0  0  0  0  0  0  0  0  0
   59.9776   31.4724   49.8701 H   0  0  0  0  0  0  0  0  0  0  0  0
   58.0258   32.1344   46.7905 H   0  0  0  0  0  0  0  0  0  0  0  0
   56.9472   34.6798   45.6602 H   0  0  0  0  0  0  0  0  0  0  0  0
   58.3146   35.1466   44.5882 H   0  0  0  0  0  0  0  0  0  0  0  0
   58.5818   33.9438   42.6167 H   0  0  0  0  0  0  0  0  0  0  0  0
   58.1539   31.9115   41.2375 H   0  0  0  0  0  0  0  0  0  0  0  0
   56.9964   29.9411   42.2324 H   0  0  0  0  0  0  0  0  0  0  0  0
   56.7109   32.0257   46.0194 H   0  0  0  0  0  0  0  0  0  0  0  0
   60.4598   31.2765   46.5530 H   0  0  0  0  0  0  0  0  0  0  0  0
   60.5138   29.2754   45.0710 H   0  0  0  0  0  0  0  0  0  0  0  0
  1  2  2  0
  2  3  1  0
  2  4  1  0
  4  5  2  0
  4  6  1  0
  6  7  1  0
  7  8  1  0
  8  9  2  0
  9 10  1  0
 10 11  2  0
 11 12  1  0
 12 13  1  0
 13 14  1  0
 14 15  2  0
 15 16  1  0
 16 17  1  0
 17 18  2  0
 18 19  1  0
 19 20  2  0
 20 21  1  0
 21 22  1  0
 22 23  2  0
 22 24  1  0
 21 25  2  0
 15 26  1  0
 26 27  2  0
 26 28  1  0
 28 29  1  0
 29 30  2  0
 11 31  1  0
 31 32  2  0
 32  8  1  0
 29 13  1  0
 25 17  1  0
  6 33  1  0
  6 34  1  0
  7 35  1  0
  7 36  1  0
  9 37  1  0
 10 38  1  0
 12 39  1  0
 12 40  1  0
 14 41  1  0
 16 42  1  0
 16 43  1  0
 18 44  1  0
 19 45  1  0
 20 46  1  0
 25 47  1  0
 31 48  1  0
 32 49  1  0
M  CHG  3   3  -1  24  -1  28  -1
M  END
>  <UniqueID>  (46) 
41

>  <SMILES>  (46) 
O=C([O-])C(=O)CCc1ccc(Cn2cc(Cc3cccc(C(=O)[O-])c3)c(=O)[n-]c2=O)cc1

>  <Energy>  (46) 
44.787084093229375

>  <Genealogy>  (46) 
O=C([O-])C(=O)CCc1ccc(Cn2cc(Cc3cccc(C(=O)[O-])c3)c(=O)[n-]c2=O)cc1 (protonated)
O=C([O-])C(=O)CCc1ccc(Cn2cc(Cc3cccc(C(=O)[O-])c3)c(=O)[n-]c2=O)cc1 (3D coordinates assigned)
O=C([O-])C(=O)CCc1ccc(Cn2cc(Cc3cccc(C(=O)[O-])c3)c(=O)[n-]c2=O)cc1 (optimized conformer: 44.787084093229375 kcal/mol)

>  <smiles>  (46) 
O=C(O)C(=O)CCc1ccc(Cn2cc(Cc3cccc(C(=O)O)c3)c(=O)[nH]c2=O)cc1

>  <score_type>  (46) 
oracle

>  <origin>  (46) 
adg

>  <m_score__min__energy>  (46) 
-16.280000000000001

>  <m_primary>  (46) 
energy

$$$$
46:0
     RDKit          3D

 55 58  0  0  0  0  0  0  0  0999 V2000
   57.7790   32.3950   53.6140 C   0  0  0  0  0  0  0  0  0  0  0  0
   58.2950   31.7040   52.3790 C   0  0  0  0  0  0  0  0  0  0  0  0
   59.1320   32.4070   51.4970 C   0  0  0  0  0  0  0  0  0  0  0  0
   59.5850   31.8120   50.3100 C   0  0  0  0  0  0  0  0  0  0  0  0
   60.4650   32.5860   49.3630 C   0  0  0  0  0  0  0  0  0  0  0  0
   59.7010   33.6660   48.6330 C   0  0  0  0  0  0  0  0  0  0  0  0
   59.5800   34.8010   49.1720 O   0  0  0  0  0  0  0  0  0  0  0  0
   59.0560   33.4100   47.3650 N   0  0  0  0  0  0  0  0  0  0  0  0
   58.9930   32.0490   46.8130 C   0  0  0  0  0  0  0  0  0  0  0  0
   57.8170   31.9160   45.8410 C   0  0  0  0  0  0  0  0  0  0  0  0
   57.8360   32.9550   44.8820 O   0  0  0  0  0  0  0  0  0  0  0  0
   57.6130   34.1930   45.5250 C   0  0  0  0  0  0  0  0  0  0  0  0
   58.7740   34.5350   46.4620 C   0  0  0  0  0  0  0  0  0  0  0  0
   59.1650   30.5150   49.9850 C   0  0  0  0  0  0  0  0  0  0  0  0
   58.3240   29.8110   50.8470 C   0  0  0  0  0  0  0  0  0  0  0  0
   57.8900   30.3900   52.0480 C   0  0  0  0  0  0  0  0  0  0  0  0
   57.0080   29.6060   52.9390 C   0  0  0  0  0  0  0  0  0  0  0  0
   57.6010   28.7090   53.8410 C   0  0  0  0  0  0  0  0  0  0  0  0
   56.8100   27.9090   54.6670 C   0  0  0  0  0  0  0  0  0  0  0  0
   55.4200   27.9960   54.5990 C   0  0  0  0  0  0  0  0  0  0  0  0
   54.8150   28.8880   53.7110 C   0  0  0  0  0  0  0  0  0  0  0  0
   55.5940   29.7080   52.8740 C   0  0  0  0  0  0  0  0  0  0  0  0
   54.9220   30.6710   51.9650 C   0  0  0  0  0  0  0  0  0  0  0  0
   55.1820   31.9020   52.0600 O   0  0  0  0  0  0  0  0  0  0  0  0
   53.8710   30.2150   50.9860 C   0  0  0  0  0  0  0  0  0  0  0  0
   52.6290   31.0500   51.0920 C   0  0  0  0  0  0  0  0  0  0  0  0
   52.4420   32.0070   52.0200 N   0  0  0  0  0  0  0  0  0  0  0  0
   51.2380   32.5240   51.6920 C   0  0  0  0  0  0  0  0  0  0  0  0
   50.7020   33.4580   52.3440 O   0  0  0  0  0  0  0  0  0  0  0  0
   50.6550   31.9650   50.6110 N   0  0  0  0  0  0  0  0  0  0  0  0
   51.5510   31.0370   50.2390 C   0  0  0  0  0  0  0  0  0  0  0  0
   51.3910   30.1940   49.1450 O   0  0  0  0  0  0  0  0  0  0  0  0
   58.1622   31.8819   54.5084 H   0  0  0  0  0  0  0  0  0  0  0  0
   58.1187   33.4412   53.6177 H   0  0  0  0  0  0  0  0  0  0  0  0
   56.6794   32.3665   53.6177 H   0  0  0  0  0  0  0  0  0  0  0  0
   59.4358   33.4360   51.7397 H   0  0  0  0  0  0  0  0  0  0  0  0
   61.2791   33.0531   49.9366 H   0  0  0  0  0  0  0  0  0  0  0  0
   60.8578   31.8829   48.6137 H   0  0  0  0  0  0  0  0  0  0  0  0
   59.9298   31.8316   46.2790 H   0  0  0  0  0  0  0  0  0  0  0  0
   58.8524   31.3370   47.6396 H   0  0  0  0  0  0  0  0  0  0  0  0
   57.8845   30.9473   45.3241 H   0  0  0  0  0  0  0  0  0  0  0  0
   56.8793   31.9816   46.4123 H   0  0  0  0  0  0  0  0  0  0  0  0
   57.5184   34.9824   44.7648 H   0  0  0  0  0  0  0  0  0  0  0  0
   56.6898   34.1210   46.1188 H   0  0  0  0  0  0  0  0  0  0  0  0
   59.6707   34.7518   45.8629 H   0  0  0  0  0  0  0  0  0  0  0  0
   58.4982   35.4135   47.0639 H   0  0  0  0  0  0  0  0  0  0  0  0
   59.5000   30.0501   49.0460 H   0  0  0  0  0  0  0  0  0  0  0  0
   57.9989   28.7940   50.5825 H   0  0  0  0  0  0  0  0  0  0  0  0
   58.6971   28.6360   53.8973 H   0  0  0  0  0  0  0  0  0  0  0  0
   57.2833   27.2096   55.3719 H   0  0  0  0  0  0  0  0  0  0  0  0
   54.7983   27.3603   55.2466 H   0  0  0  0  0  0  0  0  0  0  0  0
   53.7177   28.9502   53.6654 H   0  0  0  0  0  0  0  0  0  0  0  0
   54.2723   30.2975   49.9651 H   0  0  0  0  0  0  0  0  0  0  0  0
   53.6093   29.1721   51.2180 H   0  0  0  0  0  0  0  0  0  0  0  0
   50.9110   29.3080   49.2430 H   0  0  0  0  0  0  0  0  0  0  0  0
  1  2  1  0
  2  3  2  0
  3  4  1  0
  4  5  1  0
  5  6  1  0
  6  7  2  0
  6  8  1  0
  8  9  1  0
  9 10  1  0
 10 11  1  0
 11 12  1  0
 12 13  1  0
  4 14  2  0
 14 15  1  0
 15 16  2  0
 16 17  1  0
 17 18  2  0
 18 19  1  0
 19 20  2  0
 20 21  1  0
 21 22  2  0
 22 23  1  0
 23 24  2  0
 23 25  1  0
 25 26  1  0
 26 27  1  0
 27 28  1  0
 28 29  2  0
 28 30  1  0
 30 31  1  0
 31 32  1  0
 16  2  1  0
 22 17  1  0
 31 26  2  0
 13  8  1  0
  1 33  1  0
  1 34  1  0
  1 35  1  0
  3 36  1  0
  5 37  1  0
  5 38  1  0
  9 39  1  0
  9 40  1  0
 10 41  1  0
 10 42  1  0
 12 43  1  0
 12 44  1  0
 13 45  1  0
 13 46  1  0
 14 47  1  0
 15 48  1  0
 18 49  1  0
 19 50  1  0
 20 51  1  0
 21 52  1  0
 25 53  1  0
 25 54  1  0
 32 55  1  0
M  CHG  2  27  -1  30  -1
M  END
>  <UniqueID>  (47) 
42

>  <SMILES>  (47) 
Cc1cc(CC(=O)N2CCOCC2)ccc1-c1ccccc1C(=O)Cc1[n-]c(=O)[n-]c1O

>  <Energy>  (47) 
98.97388166731106

>  <Genealogy>  (47) 
Cc1cc(CC(=O)N2CCOCC2)ccc1-c1ccccc1C(=O)Cc1[n-]c(=O)[n-]c1O (protonated)
Cc1cc(CC(=O)N2CCOCC2)ccc1-c1ccccc1C(=O)Cc1[n-]c(=O)[n-]c1O (3D coordinates assigned)
Cc1cc(CC(=O)N2CCOCC2)ccc1-c1ccccc1C(=O)Cc1[n-]c(=O)[n-]c1O (nonaromatic ring conformer: 98.97388166731106 kcal/mol)

>  <smiles>  (47) 
Cc1cc(CC(=O)N2CCOCC2)ccc1-c1ccccc1C(=O)Cc1[nH]c(=O)[nH]c1O

>  <score_type>  (47) 
oracle

>  <origin>  (47) 
adg

>  <m_score__min__energy>  (47) 
-13.92

>  <m_primary>  (47) 
energy

$$$$
47:0
     RDKit          3D

 54 56  0  0  0  0  0  0  0  0999 V2000
   57.0000   31.5760   51.7360 C   0  0  0  0  0  0  0  0  0  0  0  0
   57.8970   30.9700   50.9540 C   0  0  0  0  0  0  0  0  0  0  0  0
   59.2000   31.6320   50.5950 C   0  0  0  0  0  0  0  0  0  0  0  0
   59.2790   31.8690   49.1370 N   0  0  0  0  0  0  0  0  0  0  0  0
   59.3230   33.3250   48.8640 C   0  0  0  0  0  0  0  0  0  0  0  0
   58.8850   33.6300   47.4550 C   0  0  0  0  0  0  0  0  0  0  0  0
   57.6560   33.1560   46.9680 C   0  0  0  0  0  0  0  0  0  0  0  0
   57.2420   33.4750   45.6720 C   0  0  0  0  0  0  0  0  0  0  0  0
   58.0550   34.2600   44.8510 C   0  0  0  0  0  0  0  0  0  0  0  0
   59.2810   34.7330   45.3270 C   0  0  0  0  0  0  0  0  0  0  0  0
   59.6940   34.4250   46.6260 C   0  0  0  0  0  0  0  0  0  0  0  0
   60.4540   31.1680   48.5530 C   0  0  0  0  0  0  0  0  0  0  0  0
   60.0160   30.1100   47.5570 C   0  0  0  0  0  0  0  0  0  0  0  0
   59.7010   30.5150   46.2470 C   0  0  0  0  0  0  0  0  0  0  0  0
   59.3110   29.5880   45.2820 C   0  0  0  0  0  0  0  0  0  0  0  0
   59.2230   28.2280   45.6040 C   0  0  0  0  0  0  0  0  0  0  0  0
   58.7650   27.2220   44.5830 C   0  0  0  0  0  0  0  0  0  0  0  0
   57.3350   26.9490   44.7350 N   0  0  0  0  0  0  0  0  0  0  0  0
   56.7690   25.6500   45.0090 C   0  0  0  0  0  0  0  0  0  0  0  0
   57.4380   24.4610   44.6510 C   0  0  0  0  0  0  0  0  0  0  0  0
   56.8600   23.2140   44.9070 C   0  0  0  0  0  0  0  0  0  0  0  0
   57.7810   21.6150   44.4150 Br  0  0  0  0  0  0  0  0  0  0  0  0
   55.6130   23.1360   45.5310 C   0  0  0  0  0  0  0  0  0  0  0  0
   54.9400   24.3030   45.8930 C   0  0  0  0  0  0  0  0  0  0  0  0
   55.5080   25.5550   45.6350 C   0  0  0  0  0  0  0  0  0  0  0  0
   54.8150   26.7010   46.0070 O   0  0  0  0  0  0  0  0  0  0  0  0
   59.5110   27.8140   46.9110 C   0  0  0  0  0  0  0  0  0  0  0  0
   59.8770   28.7400   47.9010 C   0  0  0  0  0  0  0  0  0  0  0  0
   60.0770   28.2610   49.2390 N   0  0  0  0  0  0  0  0  0  0  0  0
   56.0551   31.0701   51.9834 H   0  0  0  0  0  0  0  0  0  0  0  0
   57.2061   32.5810   52.1328 H   0  0  0  0  0  0  0  0  0  0  0  0
   57.6787   29.9650   50.5637 H   0  0  0  0  0  0  0  0  0  0  0  0
   59.2738   32.5946   51.1223 H   0  0  0  0  0  0  0  0  0  0  0  0
   60.0274   30.9710   50.8923 H   0  0  0  0  0  0  0  0  0  0  0  0
   58.6538   33.8421   49.5674 H   0  0  0  0  0  0  0  0  0  0  0  0
   60.3597   33.6710   48.9885 H   0  0  0  0  0  0  0  0  0  0  0  0
   57.0168   32.5312   47.6092 H   0  0  0  0  0  0  0  0  0  0  0  0
   56.2750   33.1076   45.2980 H   0  0  0  0  0  0  0  0  0  0  0  0
   57.7301   34.5060   43.8293 H   0  0  0  0  0  0  0  0  0  0  0  0
   59.9216   35.3485   44.6783 H   0  0  0  0  0  0  0  0  0  0  0  0
   60.6555   34.8062   47.0006 H   0  0  0  0  0  0  0  0  0  0  0  0
   61.0927   31.9023   48.0403 H   0  0  0  0  0  0  0  0  0  0  0  0
   61.0084   30.6761   49.3658 H   0  0  0  0  0  0  0  0  0  0  0  0
   59.7635   31.5803   45.9801 H   0  0  0  0  0  0  0  0  0  0  0  0
   59.0713   29.9261   44.2631 H   0  0  0  0  0  0  0  0  0  0  0  0
   58.9521   27.6195   43.5745 H   0  0  0  0  0  0  0  0  0  0  0  0
   59.3228   26.2858   44.7322 H   0  0  0  0  0  0  0  0  0  0  0  0
   56.6940   27.7690   44.6410 H   0  0  0  0  0  0  0  0  0  0  0  0
   58.4237   24.5154   44.1658 H   0  0  0  0  0  0  0  0  0  0  0  0
   55.1615   22.1543   45.7370 H   0  0  0  0  0  0  0  0  0  0  0  0
   53.9577   24.2384   46.3838 H   0  0  0  0  0  0  0  0  0  0  0  0
   59.4494   26.7457   47.1659 H   0  0  0  0  0  0  0  0  0  0  0  0
   60.0540   28.8900   50.0690 H   0  0  0  0  0  0  0  0  0  0  0  0
   60.0980   27.2340   49.4310 H   0  0  0  0  0  0  0  0  0  0  0  0
  1  2  2  0
  2  3  1  0
  3  4  1  0
  4  5  1  0
  5  6  1  0
  6  7  2  0
  7  8  1  0
  8  9  2  0
  9 10  1  0
 10 11  2  0
  4 12  1  0
 12 13  1  0
 13 14  2  0
 14 15  1  0
 15 16  2  0
 16 17  1  0
 17 18  1  0
 18 19  1  0
 19 20  2  0
 20 21  1  0
 21 22  1  0
 21 23  2  0
 23 24  1  0
 24 25  2  0
 25 26  1  0
 16 27  1  0
 27 28  2  0
 28 29  1  0
 11  6  1  0
 28 13  1  0
 25 19  1  0
  1 30  1  0
  1 31  1  0
  2 32  1  0
  3 33  1  0
  3 34  1  0
  5 35  1  0
  5 36  1  0
  7 37  1  0
  8 38  1  0
  9 39  1  0
 10 40  1  0
 11 41  1  0
 12 42  1  0
 12 43  1  0
 14 44  1  0
 15 45  1  0
 17 46  1  0
 17 47  1  0
 18 48  1  0
 20 49  1  0
 23 50  1  0
 24 51  1  0
 27 52  1  0
 29 53  1  0
 29 54  1  0
M  CHG  1  26  -1
M  END
>  <UniqueID>  (48) 
43

>  <SMILES>  (48) 
C=CCN(Cc1ccccc1)Cc1ccc(CNc2cc(Br)ccc2[O-])cc1N

>  <Energy>  (48) 
52.32234865220974

>  <Genealogy>  (48) 
C=CCN(Cc1ccccc1)Cc1ccc(CNc2cc(Br)ccc2[O-])cc1N (protonated)
C=CCN(Cc1ccccc1)Cc1ccc(CNc2cc(Br)ccc2[O-])cc1N (3D coordinates assigned)
C=CCN(Cc1ccccc1)Cc1ccc(CNc2cc(Br)ccc2[O-])cc1N (optimized conformer: 52.32234865220974 kcal/mol)

>  <smiles>  (48) 
C=CCN(Cc1ccccc1)Cc1ccc(CNc2cc(Br)ccc2O)cc1N

>  <score_type>  (48) 
oracle

>  <origin>  (48) 
adg

>  <m_score__min__energy>  (48) 
-12.5

>  <m_primary>  (48) 
energy

$$$$
48:0
     RDKit          3D

 57 60  0  0  0  0  0  0  0  0999 V2000
   57.6820   32.2520   42.4970 O   0  0  0  0  0  0  0  0  0  0  0  0
   57.4340   31.6180   43.5580 C   0  0  0  0  0  0  0  0  0  0  0  0
   57.0540   32.3680   44.7940 C   0  0  0  0  0  0  0  0  0  0  0  0
   58.2700   32.6110   45.6450 C   0  0  0  0  0  0  0  0  0  0  0  0
   58.4610   31.8910   46.8330 C   0  0  0  0  0  0  0  0  0  0  0  0
   59.5750   32.1420   47.6400 C   0  0  0  0  0  0  0  0  0  0  0  0
   60.5030   33.1350   47.2860 C   0  0  0  0  0  0  0  0  0  0  0  0
   61.6480   33.3930   48.1200 N   0  0  0  0  0  0  0  0  0  0  0  0
   61.6140   34.1340   49.3700 C   0  0  0  0  0  0  0  0  0  0  0  0
   63.0220   34.0050   49.9820 C   0  0  0  0  0  0  0  0  0  0  0  0
   63.9290   33.3890   48.9100 C   0  0  0  0  0  0  0  0  0  0  0  0
   62.9850   33.0110   47.8400 C   0  0  0  0  0  0  0  0  0  0  0  0
   63.3390   32.4580   46.7650 O   0  0  0  0  0  0  0  0  0  0  0  0
   60.3090   33.8540   46.0940 C   0  0  0  0  0  0  0  0  0  0  0  0
   59.2000   33.5970   45.2830 C   0  0  0  0  0  0  0  0  0  0  0  0
   57.6210   30.1980   43.6260 N   0  0  0  0  0  0  0  0  0  0  0  0
   58.3240   29.4710   44.6470 C   0  0  0  0  0  0  0  0  0  0  0  0
   59.7110   29.6420   44.8180 C   0  0  0  0  0  0  0  0  0  0  0  0
   60.4070   28.9050   45.7750 C   0  0  0  0  0  0  0  0  0  0  0  0
   59.7420   27.9600   46.5610 C   0  0  0  0  0  0  0  0  0  0  0  0
   60.5000   27.1850   47.6070 C   0  0  0  0  0  0  0  0  0  0  0  0
   60.2290   27.7310   48.9520 N   0  0  0  0  0  0  0  0  0  0  0  0
   60.8760   26.9160   50.0040 C   0  0  0  0  0  0  0  0  0  0  0  0
   60.8550   27.6440   51.3630 C   0  0  0  0  0  0  0  0  0  0  0  0
   59.9230   28.7040   51.3490 O   0  0  0  0  0  0  0  0  0  0  0  0
   60.3490   29.7030   50.4380 C   0  0  0  0  0  0  0  0  0  0  0  0
   60.6890   29.1280   49.0470 C   0  0  0  0  0  0  0  0  0  0  0  0
   58.3640   27.7700   46.3910 C   0  0  0  0  0  0  0  0  0  0  0  0
   57.6400   28.5130   45.4370 C   0  0  0  0  0  0  0  0  0  0  0  0
   56.1780   28.2750   45.2980 C   0  0  0  0  0  0  0  0  0  0  0  0
   55.6830   27.1610   45.6190 O   0  0  0  0  0  0  0  0  0  0  0  0
   55.3260   29.2670   44.8260 O   0  0  0  0  0  0  0  0  0  0  0  0
   56.6088   33.3334   44.5114 H   0  0  0  0  0  0  0  0  0  0  0  0
   56.3266   31.7738   45.3665 H   0  0  0  0  0  0  0  0  0  0  0  0
   57.7306   31.1247   47.1317 H   0  0  0  0  0  0  0  0  0  0  0  0
   59.7257   31.5571   48.5593 H   0  0  0  0  0  0  0  0  0  0  0  0
   61.3754   35.1910   49.1808 H   0  0  0  0  0  0  0  0  0  0  0  0
   60.8432   33.7409   50.0492 H   0  0  0  0  0  0  0  0  0  0  0  0
   63.3997   34.9971   50.2703 H   0  0  0  0  0  0  0  0  0  0  0  0
   62.9993   33.3744   50.8830 H   0  0  0  0  0  0  0  0  0  0  0  0
   64.6631   34.1230   48.5462 H   0  0  0  0  0  0  0  0  0  0  0  0
   64.5187   32.5386   49.2830 H   0  0  0  0  0  0  0  0  0  0  0  0
   61.0354   34.6248   45.7971 H   0  0  0  0  0  0  0  0  0  0  0  0
   59.0556   34.1710   44.3558 H   0  0  0  0  0  0  0  0  0  0  0  0
   60.2514   30.3651   44.1895 H   0  0  0  0  0  0  0  0  0  0  0  0
   61.4861   29.0683   45.9123 H   0  0  0  0  0  0  0  0  0  0  0  0
   60.1871   26.1310   47.5743 H   0  0  0  0  0  0  0  0  0  0  0  0
   61.5772   27.2671   47.3999 H   0  0  0  0  0  0  0  0  0  0  0  0
   60.3385   25.9611   50.0998 H   0  0  0  0  0  0  0  0  0  0  0  0
   61.9237   26.7434   49.7167 H   0  0  0  0  0  0  0  0  0  0  0  0
   60.5762   26.9289   52.1510 H   0  0  0  0  0  0  0  0  0  0  0  0
   61.8559   28.0568   51.5576 H   0  0  0  0  0  0  0  0  0  0  0  0
   59.5443   30.4446   50.3261 H   0  0  0  0  0  0  0  0  0  0  0  0
   61.2644   30.1577   50.8446 H   0  0  0  0  0  0  0  0  0  0  0  0
   60.1900   29.7291   48.2726 H   0  0  0  0  0  0  0  0  0  0  0  0
   61.7787   29.1598   48.9000 H   0  0  0  0  0  0  0  0  0  0  0  0
   57.8391   27.0292   47.0120 H   0  0  0  0  0  0  0  0  0  0  0  0
  1  2  2  0
  2  3  1  0
  3  4  1  0
  4  5  2  0
  5  6  1  0
  6  7  2  0
  7  8  1  0
  8  9  1  0
  9 10  1  0
 10 11  1  0
 11 12  1  0
 12 13  2  0
  7 14  1  0
 14 15  2  0
  2 16  1  0
 16 17  1  0
 17 18  2  0
 18 19  1  0
 19 20  2  0
 20 21  1  0
 21 22  1  0
 22 23  1  0
 23 24  1  0
 24 25  1  0
 25 26  1  0
 26 27  1  0
 20 28  1  0
 28 29  2  0
 29 30  1  0
 30 31  2  0
 30 32  1  0
 15  4  1  0
 29 17  1  0
 12  8  1  0
 27 22  1  0
  3 33  1  0
  3 34  1  0
  5 35  1  0
  6 36  1  0
  9 37  1  0
  9 38  1  0
 10 39  1  0
 10 40  1  0
 11 41  1  0
 11 42  1  0
 14 43  1  0
 15 44  1  0
 18 45  1  0
 19 46  1  0
 21 47  1  0
 21 48  1  0
 23 49  1  0
 23 50  1  0
 24 51  1  0
 24 52  1  0
 26 53  1  0
 26 54  1  0
 27 55  1  0
 27 56  1  0
 28 57  1  0
M  CHG  2  16  -1  32  -1
M  END
>  <UniqueID>  (49) 
44

>  <SMILES>  (49) 
O=C(Cc1ccc(N2CCCC2=O)cc1)[N-]c1ccc(CN2CCOCC2)cc1C(=O)[O-]

>  <Energy>  (49) 
83.1084057856832

>  <Genealogy>  (49) 
O=C(Cc1ccc(N2CCCC2=O)cc1)[N-]c1ccc(CN2CCOCC2)cc1C(=O)[O-] (protonated)
O=C(Cc1ccc(N2CCCC2=O)cc1)[N-]c1ccc(CN2CCOCC2)cc1C(=O)[O-] (3D coordinates assigned)
O=C(Cc1ccc(N2CCCC2=O)cc1)[N-]c1ccc(CN2CCOCC2)cc1C(=O)[O-] (nonaromatic ring conformer: 83.1084057856832 kcal/mol)

>  <smiles>  (49) 
O=C(Cc1ccc(N2CCCC2=O)cc1)Nc1ccc(CN2CCOCC2)cc1C(=O)O

>  <score_type>  (49) 
oracle

>  <origin>  (49) 
adg

>  <m_score__min__energy>  (49) 
-12.619999999999999

>  <m_primary>  (49) 
energy

$$$$
49:0
     RDKit          3D

 55 58  0  0  0  0  0  0  0  0999 V2000
   54.0280   26.3430   46.3950 H   0  0  0  0  0  0  0  0  0  0  0  0
   54.9320   26.3540   45.9400 O   0  0  0  0  0  0  0  0  0  0  0  0
   55.8570   25.3430   46.1770 C   0  0  0  0  0  0  0  0  0  0  0  0
   55.6190   24.2720   46.9540 N   0  0  0  0  0  0  0  0  0  0  0  0
   56.7910   23.6050   46.9040 C   0  0  0  0  0  0  0  0  0  0  0  0
   56.9840   22.5260   47.5220 O   0  0  0  0  0  0  0  0  0  0  0  0
   57.7460   24.1920   46.1490 N   0  0  0  0  0  0  0  0  0  0  0  0
   57.1300   25.2880   45.6660 C   0  0  0  0  0  0  0  0  0  0  0  0
   57.7890   26.3430   44.8790 C   0  0  0  0  0  0  0  0  0  0  0  0
   58.1875   26.0603   43.8935 H   0  0  0  0  0  0  0  0  0  0  0  0
   57.9460   27.6250   45.2620 C   0  0  0  0  0  0  0  0  0  0  0  0
   58.3000   27.9830   46.5520 C   0  0  0  0  0  0  0  0  0  0  0  0
   58.4282   27.3046   47.4083 H   0  0  0  0  0  0  0  0  0  0  0  0
   58.4610   29.3520   46.5580 C   0  0  0  0  0  0  0  0  0  0  0  0
   58.8780   30.1480   47.7590 C   0  0  0  0  0  0  0  0  0  0  0  0
   58.5946   29.6070   48.6739 H   0  0  0  0  0  0  0  0  0  0  0  0
   59.9682   30.2936   47.7419 H   0  0  0  0  0  0  0  0  0  0  0  0
   58.3770   31.1271   47.7419 H   0  0  0  0  0  0  0  0  0  0  0  0
   58.1780   29.8670   45.3400 N   0  0  0  0  0  0  0  0  0  0  0  0
   58.2200   31.2620   44.9870 C   0  0  0  0  0  0  0  0  0  0  0  0
   57.6880   31.8500   43.8550 C   0  0  0  0  0  0  0  0  0  0  0  0
   57.1124   31.3324   43.0735 H   0  0  0  0  0  0  0  0  0  0  0  0
   57.9920   33.1640   43.8680 N   0  0  0  0  0  0  0  0  0  0  0  0
   58.6730   33.4090   44.9790 N   0  0  0  0  0  0  0  0  0  0  0  0
   59.2630   34.7030   45.3010 C   0  0  0  0  0  0  0  0  0  0  0  0
   60.1063   34.9001   44.6228 H   0  0  0  0  0  0  0  0  0  0  0  0
   58.5043   35.4907   45.1826 H   0  0  0  0  0  0  0  0  0  0  0  0
   59.7520   34.6920   46.7130 C   0  0  0  0  0  0  0  0  0  0  0  0
   61.0420   34.5320   47.0600 N   0  0  0  0  0  0  0  0  0  0  0  0
   61.0890   34.4610   48.3810 N   0  0  0  0  0  0  0  0  0  0  0  0
   62.3320   34.3550   49.1410 C   0  0  0  0  0  0  0  0  0  0  0  0
   63.1034   34.9607   48.6430 H   0  0  0  0  0  0  0  0  0  0  0  0
   62.1333   34.7152   50.1612 H   0  0  0  0  0  0  0  0  0  0  0  0
   62.8340   32.9030   49.2450 C   0  0  0  0  0  0  0  0  0  0  0  0
   63.7478   32.8972   49.8574 H   0  0  0  0  0  0  0  0  0  0  0  0
   62.0168   32.3179   49.6921 H   0  0  0  0  0  0  0  0  0  0  0  0
   63.1570   32.2470   47.8900 C   0  0  0  0  0  0  0  0  0  0  0  0
   63.6469   31.2809   48.0813 H   0  0  0  0  0  0  0  0  0  0  0  0
   62.2031   32.1388   47.3530 H   0  0  0  0  0  0  0  0  0  0  0  0
   64.0810   33.0890   46.9920 C   0  0  0  0  0  0  0  0  0  0  0  0
   64.6335   33.8069   47.6160 H   0  0  0  0  0  0  0  0  0  0  0  0
   64.7786   32.4143   46.4741 H   0  0  0  0  0  0  0  0  0  0  0  0
   63.3100   33.8190   45.9930 N   0  0  0  0  0  0  0  0  0  0  0  0
   63.0900   34.7600   46.3870 H   0  0  0  0  0  0  0  0  0  0  0  0
   62.3940   33.3310   45.8600 H   0  0  0  0  0  0  0  0  0  0  0  0
   59.8470   34.5920   48.8890 C   0  0  0  0  0  0  0  0  0  0  0  0
   59.5872   34.5939   49.9579 H   0  0  0  0  0  0  0  0  0  0  0  0
   58.9580   34.7230   47.8450 C   0  0  0  0  0  0  0  0  0  0  0  0
   57.8644   34.8284   47.8993 H   0  0  0  0  0  0  0  0  0  0  0  0
   58.8400   32.2740   45.6840 C   0  0  0  0  0  0  0  0  0  0  0  0
   59.3736   32.1740   46.6407 H   0  0  0  0  0  0  0  0  0  0  0  0
   57.8260   28.8250   44.5410 C   0  0  0  0  0  0  0  0  0  0  0  0
   57.2650   28.9770   43.3290 C   0  0  0  0  0  0  0  0  0  0  0  0
   57.2285   29.9716   42.8607 H   0  0  0  0  0  0  0  0  0  0  0  0
   56.8424   28.1067   42.8055 H   0  0  0  0  0  0  0  0  0  0  0  0
  1  2  1  0
  2  3  1  0
  3  4  1  0
  4  5  1  0
  5  6  2  0
  5  7  1  0
  7  8  1  0
  8  9  1  0
  9 10  1  0
  9 11  2  0
 11 12  1  0
 12 13  1  0
 12 14  2  0
 14 15  1  0
 15 16  1  0
 15 17  1  0
 15 18  1  0
 14 19  1  0
 19 20  1  0
 20 21  1  0
 21 22  1  0
 21 23  2  0
 23 24  1  0
 24 25  1  0
 25 26  1  0
 25 27  1  0
 25 28  1  0
 28 29  2  0
 29 30  1  0
 30 31  1  0
 31 32  1  0
 31 33  1  0
 31 34  1  0
 34 35  1  0
 34 36  1  0
 34 37  1  0
 37 38  1  0
 37 39  1  0
 37 40  1  0
 40 41  1  0
 40 42  1  0
 40 43  1  0
 43 44  1  0
 43 45  1  0
 30 46  1  0
 46 47  1  0
 46 48  2  0
 48 49  1  0
 24 50  1  0
 50 51  1  0
 19 52  1  0
 52 53  2  0
 53 54  1  0
 53 55  1  0
  8  3  2  0
 52 11  1  0
 50 20  2  0
 48 28  1  0
M  CHG  2   4  -1   7  -1
M  END
>  <UniqueID>  (50) 
45

>  <SMILES>  (50) 
C=c1/c(=C\c2[n-]c(=O)[n-]c2O)cc(C)n1-c1cnn(Cc2ccn(CCCCN)n2)c1

>  <Energy>  (50) 
182.79055298728804

>  <Genealogy>  (50) 
C=c1c(=Cc2[n-]c(=O)[n-]c2O)cc(C)n1-c1cnn(Cc2ccn(CCCCN)n2)c1 (protonated)
C=c1/c(=C\c2[n-]c(=O)[n-]c2O)cc(C)n1-c1cnn(Cc2ccn(CCCCN)n2)c1 (cis-trans isomerization)
C=c1/c(=C\c2[n-]c(=O)[n-]c2O)cc(C)n1-c1cnn(Cc2ccn(CCCCN)n2)c1 (3D coordinates assigned)
C=c1/c(=C\c2[n-]c(=O)[n-]c2O)cc(C)n1-c1cnn(Cc2ccn(CCCCN)n2)c1 (optimized conformer: 182.79055298728804 kcal/mol)

>  <smiles>  (50) 
C=c1c(=Cc2[nH]c(=O)[nH]c2O)cc(C)n1-c1cnn(Cc2ccn(CCCCN)n2)c1

>  <score_type>  (50) 
oracle

>  <origin>  (50) 
adg

>  <m_score__min__energy>  (50) 
-13.289999999999999

>  <m_primary>  (50) 
energy

$$$$
50:0
     RDKit          3D

 38 40  0  0  0  0  0  0  0  0999 V2000
   60.3290   27.6410   48.5170 C   0  0  0  0  0  0  0  0  0  0  0  0
   59.2950   27.9450   47.7280 C   0  0  0  0  0  0  0  0  0  0  0  0
   59.4780   28.3170   46.2830 C   0  0  0  0  0  0  0  0  0  0  0  0
   58.9180   29.6620   46.0070 N   0  0  0  0  0  0  0  0  0  0  0  0
   57.6490   29.8330   45.4990 C   0  0  0  0  0  0  0  0  0  0  0  0
   56.6440   28.5730   45.1710 S   0  0  0  0  0  0  0  0  0  0  0  0
   57.1850   31.0750   45.2310 N   0  0  0  0  0  0  0  0  0  0  0  0
   57.9220   32.1850   45.4620 C   0  0  0  0  0  0  0  0  0  0  0  0
   57.3860   33.4340   45.1390 C   0  0  0  0  0  0  0  0  0  0  0  0
   58.1280   34.5920   45.3540 C   0  0  0  0  0  0  0  0  0  0  0  0
   59.4010   34.5120   45.9130 C   0  0  0  0  0  0  0  0  0  0  0  0
   59.9490   33.2710   46.2720 C   0  0  0  0  0  0  0  0  0  0  0  0
   61.5660   33.3040   47.0770 S   0  0  0  0  0  0  0  0  0  0  0  0
   60.9590   34.0120   48.6510 C   0  0  0  0  0  0  0  0  0  0  0  0
   60.0980   33.0310   49.4000 C   0  0  0  0  0  0  0  0  0  0  0  0
   59.2890   33.4710   50.4580 C   0  0  0  0  0  0  0  0  0  0  0  0
   58.5150   32.5430   51.1590 C   0  0  0  0  0  0  0  0  0  0  0  0
   58.5600   31.1950   50.8080 C   0  0  0  0  0  0  0  0  0  0  0  0
   59.3850   30.7890   49.7580 C   0  0  0  0  0  0  0  0  0  0  0  0
   60.1300   31.7030   49.0790 N   0  0  0  0  0  0  0  0  0  0  0  0
   59.2140   32.0750   46.0180 C   0  0  0  0  0  0  0  0  0  0  0  0
   59.6960   30.7670   46.2770 C   0  0  0  0  0  0  0  0  0  0  0  0
   60.8550   30.6040   46.7480 O   0  0  0  0  0  0  0  0  0  0  0  0
   60.1573   27.3733   49.5700 H   0  0  0  0  0  0  0  0  0  0  0  0
   61.3523   27.6583   48.1137 H   0  0  0  0  0  0  0  0  0  0  0  0
   58.2787   27.9225   48.1483 H   0  0  0  0  0  0  0  0  0  0  0  0
   60.5519   28.3184   46.0448 H   0  0  0  0  0  0  0  0  0  0  0  0
   58.9471   27.5812   45.6611 H   0  0  0  0  0  0  0  0  0  0  0  0
   56.3741   33.5026   44.7133 H   0  0  0  0  0  0  0  0  0  0  0  0
   57.7082   35.5717   45.0820 H   0  0  0  0  0  0  0  0  0  0  0  0
   59.9831   35.4312   46.0748 H   0  0  0  0  0  0  0  0  0  0  0  0
   61.8216   34.2821   49.2778 H   0  0  0  0  0  0  0  0  0  0  0  0
   60.3510   34.8989   48.4193 H   0  0  0  0  0  0  0  0  0  0  0  0
   59.2643   34.5358   50.7329 H   0  0  0  0  0  0  0  0  0  0  0  0
   57.8712   32.8757   51.9865 H   0  0  0  0  0  0  0  0  0  0  0  0
   57.9514   30.4584   51.3530 H   0  0  0  0  0  0  0  0  0  0  0  0
   59.4331   29.7262   49.4783 H   0  0  0  0  0  0  0  0  0  0  0  0
   60.7420   31.3690   48.3010 H   0  0  0  0  0  0  0  0  0  0  0  0
  1  2  2  0
  2  3  1  0
  3  4  1  0
  4  5  1  0
  5  6  2  0
  5  7  1  0
  7  8  1  0
  8  9  2  0
  9 10  1  0
 10 11  2  0
 11 12  1  0
 12 13  1  0
 13 14  1  0
 14 15  1  0
 15 16  2  0
 16 17  1  0
 17 18  2  0
 18 19  1  0
 19 20  2  0
 12 21  2  0
 21 22  1  0
 22 23  2  0
 22  4  1  0
 21  8  1  0
 20 15  1  0
  1 24  1  0
  1 25  1  0
  2 26  1  0
  3 27  1  0
  3 28  1  0
  9 29  1  0
 10 30  1  0
 11 31  1  0
 14 32  1  0
 14 33  1  0
 16 34  1  0
 17 35  1  0
 18 36  1  0
 19 37  1  0
 20 38  1  0
M  CHG  2   7  -1  20   1
M  END
>  <UniqueID>  (51) 
46

>  <SMILES>  (51) 
C=CCn1c(=S)[n-]c2cccc(SCc3cccc[nH+]3)c2c1=O

>  <Energy>  (51) 
44.642705864967645

>  <Genealogy>  (51) 
C=CCn1c(=S)[n-]c2cccc(SCc3cccc[nH+]3)c2c1=O (protonated)
C=CCn1c(=S)[n-]c2cccc(SCc3cccc[nH+]3)c2c1=O (3D coordinates assigned)
C=CCn1c(=S)[n-]c2cccc(SCc3cccc[nH+]3)c2c1=O (optimized conformer: 44.642705864967645 kcal/mol)

>  <smiles>  (51) 
C=CCn1c(=S)[nH]c2cccc(SCc3ccccn3)c2c1=O

>  <score_type>  (51) 
oracle

>  <origin>  (51) 
adg

>  <m_score__min__energy>  (51) 
-7.0999999999999996

>  <m_primary>  (51) 
energy

$$$$
51:0
     RDKit          3D

 53 56  0  0  0  0  0  0  0  0999 V2000
   55.5610   29.2920   44.8640 O   0  0  0  0  0  0  0  0  0  0  0  0
   56.5030   29.3430   44.0290 C   0  0  0  0  0  0  0  0  0  0  0  0
   56.6580   30.5470   43.1560 C   0  0  0  0  0  0  0  0  0  0  0  0
   57.3790   31.6050   43.8810 N   0  0  0  0  0  0  0  0  0  0  0  0
   57.4040   31.5640   45.2480 C   0  0  0  0  0  0  0  0  0  0  0  0
   58.1120   32.5190   45.9790 C   0  0  0  0  0  0  0  0  0  0  0  0
   58.7950   33.5430   45.3060 C   0  0  0  0  0  0  0  0  0  0  0  0
   59.5720   34.5350   45.9960 N   0  0  0  0  0  0  0  0  0  0  0  0
   59.9840   34.5100   47.3720 C   0  0  0  0  0  0  0  0  0  0  0  0
   59.2750   35.0720   48.2490 O   0  0  0  0  0  0  0  0  0  0  0  0
   61.2490   33.8200   47.7530 C   0  0  0  0  0  0  0  0  0  0  0  0
   62.3320   33.8570   46.8520 C   0  0  0  0  0  0  0  0  0  0  0  0
   63.5000   33.1340   47.1040 C   0  0  0  0  0  0  0  0  0  0  0  0
   63.6060   32.3560   48.2540 C   0  0  0  0  0  0  0  0  0  0  0  0
   62.5560   32.3170   49.1710 C   0  0  0  0  0  0  0  0  0  0  0  0
   61.3820   33.0550   48.9450 C   0  0  0  0  0  0  0  0  0  0  0  0
   60.3480   33.0340   50.0000 C   0  0  0  0  0  0  0  0  0  0  0  0
   59.1960   32.2450   49.8580 C   0  0  0  0  0  0  0  0  0  0  0  0
   58.2310   32.2590   50.8680 C   0  0  0  0  0  0  0  0  0  0  0  0
   58.4180   33.0560   51.9970 C   0  0  0  0  0  0  0  0  0  0  0  0
   59.5730   33.8390   52.1000 C   0  0  0  0  0  0  0  0  0  0  0  0
   60.5010   33.8140   51.1060 N   0  0  0  0  0  0  0  0  0  0  0  0
   58.7850   33.5540   43.9110 C   0  0  0  0  0  0  0  0  0  0  0  0
   58.0770   32.5760   43.2060 C   0  0  0  0  0  0  0  0  0  0  0  0
   58.0960   32.5970   41.9440 O   0  0  0  0  0  0  0  0  0  0  0  0
   57.3780   28.2630   43.8680 O   0  0  0  0  0  0  0  0  0  0  0  0
   57.9500   27.5470   44.9580 C   0  0  0  0  0  0  0  0  0  0  0  0
   58.8010   28.4620   45.7960 C   0  0  0  0  0  0  0  0  0  0  0  0
   59.9160   29.1130   45.2400 C   0  0  0  0  0  0  0  0  0  0  0  0
   60.7080   29.9520   46.0320 C   0  0  0  0  0  0  0  0  0  0  0  0
   60.3930   30.1440   47.3800 C   0  0  0  0  0  0  0  0  0  0  0  0
   59.2890   29.4950   47.9410 C   0  0  0  0  0  0  0  0  0  0  0  0
   58.4950   28.6560   47.1530 C   0  0  0  0  0  0  0  0  0  0  0  0
   57.2246   30.2724   42.2540 H   0  0  0  0  0  0  0  0  0  0  0  0
   55.6620   30.9180   42.8725 H   0  0  0  0  0  0  0  0  0  0  0  0
   56.8594   30.7685   45.7777 H   0  0  0  0  0  0  0  0  0  0  0  0
   58.1344   32.4690   47.0776 H   0  0  0  0  0  0  0  0  0  0  0  0
   62.2563   34.4637   45.9376 H   0  0  0  0  0  0  0  0  0  0  0  0
   64.3378   33.1792   46.3927 H   0  0  0  0  0  0  0  0  0  0  0  0
   64.5192   31.7714   48.4394 H   0  0  0  0  0  0  0  0  0  0  0  0
   62.6478   31.7031   50.0791 H   0  0  0  0  0  0  0  0  0  0  0  0
   59.0546   31.6229   48.9619 H   0  0  0  0  0  0  0  0  0  0  0  0
   57.3251   31.6423   50.7729 H   0  0  0  0  0  0  0  0  0  0  0  0
   57.6649   33.0690   52.7987 H   0  0  0  0  0  0  0  0  0  0  0  0
   59.7304   34.4743   52.9841 H   0  0  0  0  0  0  0  0  0  0  0  0
   59.3354   34.3339   43.3645 H   0  0  0  0  0  0  0  0  0  0  0  0
   57.1447   27.1297   45.5803 H   0  0  0  0  0  0  0  0  0  0  0  0
   58.5795   26.7365   44.5621 H   0  0  0  0  0  0  0  0  0  0  0  0
   60.1666   28.9625   44.1796 H   0  0  0  0  0  0  0  0  0  0  0  0
   61.5790   30.4607   45.5933 H   0  0  0  0  0  0  0  0  0  0  0  0
   61.0144   30.8065   48.0004 H   0  0  0  0  0  0  0  0  0  0  0  0
   59.0448   29.6445   49.0031 H   0  0  0  0  0  0  0  0  0  0  0  0
   57.6276   28.1461   47.5975 H   0  0  0  0  0  0  0  0  0  0  0  0
  1  2  2  0
  2  3  1  0
  3  4  1  0
  4  5  1  0
  5  6  2  0
  6  7  1  0
  7  8  1  0
  8  9  1  0
  9 10  2  0
  9 11  1  0
 11 12  2  0
 12 13  1  0
 13 14  2  0
 14 15  1  0
 15 16  2  0
 16 17  1  0
 17 18  2  0
 18 19  1  0
 19 20  2  0
 20 21  1  0
 21 22  2  0
  7 23  2  0
 23 24  1  0
 24 25  2  0
  2 26  1  0
 26 27  1  0
 27 28  1  0
 28 29  2  0
 29 30  1  0
 30 31  2  0
 31 32  1  0
 32 33  2  0
 24  4  1  0
 33 28  1  0
 16 11  1  0
 22 17  1  0
  3 34  1  0
  3 35  1  0
  5 36  1  0
  6 37  1  0
 12 38  1  0
 13 39  1  0
 14 40  1  0
 15 41  1  0
 18 42  1  0
 19 43  1  0
 20 44  1  0
 21 45  1  0
 23 46  1  0
 27 47  1  0
 27 48  1  0
 29 49  1  0
 30 50  1  0
 31 51  1  0
 32 52  1  0
 33 53  1  0
M  CHG  1   8  -1
M  END
>  <UniqueID>  (52) 
47

>  <SMILES>  (52) 
O=C(Cn1ccc([N-]C(=O)c2ccccc2-c2ccccn2)cc1=O)OCc1ccccc1

>  <Energy>  (52) 
72.49104281058732

>  <Genealogy>  (52) 
O=C(Cn1ccc([N-]C(=O)c2ccccc2-c2ccccn2)cc1=O)OCc1ccccc1 (protonated)
O=C(Cn1ccc([N-]C(=O)c2ccccc2-c2ccccn2)cc1=O)OCc1ccccc1 (3D coordinates assigned)
O=C(Cn1ccc([N-]C(=O)c2ccccc2-c2ccccn2)cc1=O)OCc1ccccc1 (optimized conformer: 72.49104281058732 kcal/mol)

>  <smiles>  (52) 
O=C(Cn1ccc(NC(=O)c2ccccc2-c2ccccn2)cc1=O)OCc1ccccc1

>  <score_type>  (52) 
oracle

>  <origin>  (52) 
adg

>  <m_score__min__energy>  (52) 
-10.68

>  <m_primary>  (52) 
energy

$$$$
52:0
     RDKit          3D

 41 43  0  0  0  0  0  0  0  0999 V2000
   60.8120   29.6970   48.2770 O   0  0  0  0  0  0  0  0  0  0  0  0
   60.8230   30.3700   47.2110 C   0  0  0  0  0  0  0  0  0  0  0  0
   60.1270   29.8910   46.0480 N   0  0  0  0  0  0  0  0  0  0  0  0
   59.1030   28.8820   46.0880 C   0  0  0  0  0  0  0  0  0  0  0  0
   59.3480   27.6090   46.6320 C   0  0  0  0  0  0  0  0  0  0  0  0
   58.3300   26.6530   46.6790 C   0  0  0  0  0  0  0  0  0  0  0  0
   57.0530   26.9500   46.1800 C   0  0  0  0  0  0  0  0  0  0  0  0
   55.9910   25.9860   46.2610 N   0  0  0  0  0  0  0  0  0  0  0  0
   56.0520   24.6550   45.7100 C   0  0  0  0  0  0  0  0  0  0  0  0
   57.3300   24.1660   44.8010 S   0  0  0  0  0  0  0  0  0  0  0  0
   54.9990   23.7140   45.9610 N   0  0  0  0  0  0  0  0  0  0  0  0
   53.6020   24.0570   45.9380 C   0  0  0  0  0  0  0  0  0  0  0  0
   53.2400   25.2210   45.6140 O   0  0  0  0  0  0  0  0  0  0  0  0
   52.5700   23.0590   46.2890 C   0  0  0  0  0  0  0  0  0  0  0  0
   51.3750   23.0150   45.5510 C   0  0  0  0  0  0  0  0  0  0  0  0
   50.3820   22.0810   45.8650 C   0  0  0  0  0  0  0  0  0  0  0  0
   50.5780   21.1750   46.9100 C   0  0  0  0  0  0  0  0  0  0  0  0
   51.7710   21.1960   47.6370 C   0  0  0  0  0  0  0  0  0  0  0  0
   52.7680   22.1280   47.3300 C   0  0  0  0  0  0  0  0  0  0  0  0
   53.9400   22.0800   48.0120 F   0  0  0  0  0  0  0  0  0  0  0  0
   56.7930   28.2340   45.6790 C   0  0  0  0  0  0  0  0  0  0  0  0
   55.5230   28.5640   45.2170 O   0  0  0  0  0  0  0  0  0  0  0  0
   57.8120   29.1920   45.6340 C   0  0  0  0  0  0  0  0  0  0  0  0
   61.5920   31.6260   47.1670 C   0  0  0  0  0  0  0  0  0  0  0  0
   61.1010   32.8970   46.8790 C   0  0  0  0  0  0  0  0  0  0  0  0
   62.0820   33.8950   46.9320 C   0  0  0  0  0  0  0  0  0  0  0  0
   63.3440   33.4220   47.2640 C   0  0  0  0  0  0  0  0  0  0  0  0
   63.2380   31.7600   47.4920 S   0  0  0  0  0  0  0  0  0  0  0  0
   60.4530   30.2140   45.1100 H   0  0  0  0  0  0  0  0  0  0  0  0
   60.3467   27.3642   47.0228 H   0  0  0  0  0  0  0  0  0  0  0  0
   58.5312   25.6612   47.1100 H   0  0  0  0  0  0  0  0  0  0  0  0
   55.1190   26.2900   46.7490 H   0  0  0  0  0  0  0  0  0  0  0  0
   55.2750   22.7190   46.1180 H   0  0  0  0  0  0  0  0  0  0  0  0
   51.2193   23.7197   44.7208 H   0  0  0  0  0  0  0  0  0  0  0  0
   49.4456   22.0600   45.2882 H   0  0  0  0  0  0  0  0  0  0  0  0
   49.7937   20.4455   47.1604 H   0  0  0  0  0  0  0  0  0  0  0  0
   51.9269   20.4765   48.4543 H   0  0  0  0  0  0  0  0  0  0  0  0
   57.5992   30.1965   45.2394 H   0  0  0  0  0  0  0  0  0  0  0  0
   60.0474   33.0971   46.6342 H   0  0  0  0  0  0  0  0  0  0  0  0
   61.8719   34.9555   46.7293 H   0  0  0  0  0  0  0  0  0  0  0  0
   64.2558   34.0297   47.3611 H   0  0  0  0  0  0  0  0  0  0  0  0
  1  2  2  0
  2  3  1  0
  3  4  1  0
  4  5  2  0
  5  6  1  0
  6  7  2  0
  7  8  1  0
  8  9  1  0
  9 10  2  0
  9 11  1  0
 11 12  1  0
 12 13  2  0
 12 14  1  0
 14 15  2  0
 15 16  1  0
 16 17  2  0
 17 18  1  0
 18 19  2  0
 19 20  1  0
  7 21  1  0
 21 22  1  0
 21 23  2  0
  2 24  1  0
 24 25  2  0
 25 26  1  0
 26 27  2  0
 27 28  1  0
 23  4  1  0
 28 24  1  0
 19 14  1  0
  3 29  1  0
  5 30  1  0
  6 31  1  0
  8 32  1  0
 11 33  1  0
 15 34  1  0
 16 35  1  0
 17 36  1  0
 18 37  1  0
 23 38  1  0
 25 39  1  0
 26 40  1  0
 27 41  1  0
M  CHG  1  22  -1
M  END
>  <UniqueID>  (53) 
48

>  <SMILES>  (53) 
O=C(Nc1ccc(NC(=S)NC(=O)c2ccccc2F)c([O-])c1)c1cccs1

>  <Energy>  (53) 
87.25590643246159

>  <Genealogy>  (53) 
O=C(Nc1ccc(NC(=S)NC(=O)c2ccccc2F)c([O-])c1)c1cccs1 (protonated)
O=C(Nc1ccc(NC(=S)NC(=O)c2ccccc2F)c([O-])c1)c1cccs1 (3D coordinates assigned)
O=C(Nc1ccc(NC(=S)NC(=O)c2ccccc2F)c([O-])c1)c1cccs1 (optimized conformer: 87.25590643246159 kcal/mol)

>  <smiles>  (53) 
O=C(Nc1ccc(NC(=S)NC(=O)c2ccccc2F)c(O)c1)c1cccs1

>  <score_type>  (53) 
oracle

>  <origin>  (53) 
adg

>  <m_score__min__energy>  (53) 
-10.470000000000001

>  <m_primary>  (53) 
energy

$$$$
53:0
     RDKit          3D

 39 40  0  0  0  0  0  0  0  0999 V2000
   60.1780   32.0080   49.1880 C   0  0  0  0  0  0  0  0  0  0  0  0
   60.5600   31.3010   48.1160 C   0  0  0  0  0  0  0  0  0  0  0  0
   61.5480   31.9020   47.1510 C   0  0  0  0  0  0  0  0  0  0  0  0
   59.9840   29.9540   47.8550 C   0  0  0  0  0  0  0  0  0  0  0  0
   60.1200   29.0400   48.7150 O   0  0  0  0  0  0  0  0  0  0  0  0
   59.2490   29.6870   46.6480 N   0  0  0  0  0  0  0  0  0  0  0  0
   58.8640   28.3610   46.2440 C   0  0  0  0  0  0  0  0  0  0  0  0
   59.7450   27.2880   46.4610 C   0  0  0  0  0  0  0  0  0  0  0  0
   59.4370   26.0100   45.9910 C   0  0  0  0  0  0  0  0  0  0  0  0
   58.2550   25.7910   45.2870 C   0  0  0  0  0  0  0  0  0  0  0  0
   57.3700   26.8460   45.0570 C   0  0  0  0  0  0  0  0  0  0  0  0
   57.6550   28.1380   45.5370 C   0  0  0  0  0  0  0  0  0  0  0  0
   56.6650   29.2180   45.3170 C   0  0  0  0  0  0  0  0  0  0  0  0
   55.5170   28.9450   44.8730 O   0  0  0  0  0  0  0  0  0  0  0  0
   57.0200   30.5790   45.5860 N   0  0  0  0  0  0  0  0  0  0  0  0
   57.3180   31.5550   44.5430 C   0  0  0  0  0  0  0  0  0  0  0  0
   57.9670   32.7730   45.1420 C   0  0  0  0  0  0  0  0  0  0  0  0
   57.9250   32.9980   46.5290 C   0  0  0  0  0  0  0  0  0  0  0  0
   58.5610   34.1140   47.0810 C   0  0  0  0  0  0  0  0  0  0  0  0
   59.2470   35.0090   46.2560 C   0  0  0  0  0  0  0  0  0  0  0  0
   59.2990   34.7880   44.8760 C   0  0  0  0  0  0  0  0  0  0  0  0
   58.6650   33.6730   44.3200 C   0  0  0  0  0  0  0  0  0  0  0  0
   59.4571   31.5805   49.9004 H   0  0  0  0  0  0  0  0  0  0  0  0
   60.5853   33.0159   49.3558 H   0  0  0  0  0  0  0  0  0  0  0  0
   62.3562   32.3936   47.7124 H   0  0  0  0  0  0  0  0  0  0  0  0
   61.9714   31.1083   46.5179 H   0  0  0  0  0  0  0  0  0  0  0  0
   61.0379   32.6430   46.5179 H   0  0  0  0  0  0  0  0  0  0  0  0
   58.9290   30.4880   46.0600 H   0  0  0  0  0  0  0  0  0  0  0  0
   60.6856   27.4565   47.0060 H   0  0  0  0  0  0  0  0  0  0  0  0
   60.1285   25.1749   46.1768 H   0  0  0  0  0  0  0  0  0  0  0  0
   58.0184   24.7845   44.9115 H   0  0  0  0  0  0  0  0  0  0  0  0
   56.4414   26.6658   44.4955 H   0  0  0  0  0  0  0  0  0  0  0  0
   58.0005   31.1041   43.8076 H   0  0  0  0  0  0  0  0  0  0  0  0
   56.3802   31.8529   44.0513 H   0  0  0  0  0  0  0  0  0  0  0  0
   57.3897   32.2934   47.1825 H   0  0  0  0  0  0  0  0  0  0  0  0
   58.5213   34.2877   48.1665 H   0  0  0  0  0  0  0  0  0  0  0  0
   59.7460   35.8871   46.6918 H   0  0  0  0  0  0  0  0  0  0  0  0
   59.8396   35.4927   44.2270 H   0  0  0  0  0  0  0  0  0  0  0  0
   58.7129   33.4998   43.2348 H   0  0  0  0  0  0  0  0  0  0  0  0
  1  2  2  0
  2  3  1  0
  2  4  1  0
  4  5  2  0
  4  6  1  0
  6  7  1  0
  7  8  2  0
  8  9  1  0
  9 10  2  0
 10 11  1  0
 11 12  2  0
 12 13  1  0
 13 14  2  0
 13 15  1  0
 15 16  1  0
 16 17  1  0
 17 18  2  0
 18 19  1  0
 19 20  2  0
 20 21  1  0
 21 22  2  0
 12  7  1  0
 22 17  1  0
  1 23  1  0
  1 24  1  0
  3 25  1  0
  3 26  1  0
  3 27  1  0
  6 28  1  0
  8 29  1  0
  9 30  1  0
 10 31  1  0
 11 32  1  0
 16 33  1  0
 16 34  1  0
 18 35  1  0
 19 36  1  0
 20 37  1  0
 21 38  1  0
 22 39  1  0
M  CHG  1  15  -1
M  END
>  <UniqueID>  (54) 
49

>  <SMILES>  (54) 
C=C(C)C(=O)Nc1ccccc1C(=O)[N-]Cc1ccccc1

>  <Energy>  (54) 
43.7379872237815

>  <Genealogy>  (54) 
C=C(C)C(=O)Nc1ccccc1C(=O)[N-]Cc1ccccc1 (protonated)
C=C(C)C(=O)Nc1ccccc1C(=O)[N-]Cc1ccccc1 (3D coordinates assigned)
C=C(C)C(=O)Nc1ccccc1C(=O)[N-]Cc1ccccc1 (optimized conformer: 43.7379872237815 kcal/mol)

>  <smiles>  (54) 
C=C(C)C(=O)Nc1ccccc1C(=O)NCc1ccccc1

>  <score_type>  (54) 
oracle

>  <origin>  (54) 
adg

>  <m_score__min__energy>  (54) 
-9.4900000000000002

>  <m_primary>  (54) 
energy

$$$$
54:0
     RDKit          3D

 52 56  0  0  0  0  0  0  0  0999 V2000
   55.1420   27.8410   45.9870 H   0  0  0  0  0  0  0  0  0  0  0  0
   55.2570   26.8370   45.9260 O   0  0  0  0  0  0  0  0  0  0  0  0
   56.5070   26.2190   45.9360 C   0  0  0  0  0  0  0  0  0  0  0  0
   56.6200   24.8430   45.6930 C   0  0  0  0  0  0  0  0  0  0  0  0
   57.8390   24.2140   45.7200 C   0  0  0  0  0  0  0  0  0  0  0  0
   59.0170   24.9120   45.9870 C   0  0  0  0  0  0  0  0  0  0  0  0
   60.2350   24.2370   45.9990 O   0  0  0  0  0  0  0  0  0  0  0  0
   58.9460   26.2980   46.2460 C   0  0  0  0  0  0  0  0  0  0  0  0
   60.2030   27.0950   46.4900 C   0  0  0  0  0  0  0  0  0  0  0  0
   60.3669   27.1989   47.5727 H   0  0  0  0  0  0  0  0  0  0  0  0
   61.0604   26.5752   46.0376 H   0  0  0  0  0  0  0  0  0  0  0  0
   60.0985   28.0922   46.0376 H   0  0  0  0  0  0  0  0  0  0  0  0
   57.6870   26.9560   46.1960 C   0  0  0  0  0  0  0  0  0  0  0  0
   57.6150   28.3730   46.4070 N   0  0  0  0  0  0  0  0  0  0  0  0
   57.7290   28.7240   47.3850 H   0  0  0  0  0  0  0  0  0  0  0  0
   57.4700   29.3230   45.3350 C   0  0  0  0  0  0  0  0  0  0  0  0
   56.6560   29.0030   44.2370 C   0  0  0  0  0  0  0  0  0  0  0  0
   56.1414   28.0314   44.2032 H   0  0  0  0  0  0  0  0  0  0  0  0
   56.4950   29.9110   43.1860 C   0  0  0  0  0  0  0  0  0  0  0  0
   55.8552   29.6519   42.3295 H   0  0  0  0  0  0  0  0  0  0  0  0
   57.1450   31.1460   43.2220 C   0  0  0  0  0  0  0  0  0  0  0  0
   57.0209   31.8574   42.3923 H   0  0  0  0  0  0  0  0  0  0  0  0
   57.9530   31.4780   44.3120 C   0  0  0  0  0  0  0  0  0  0  0  0
   58.4622   32.4526   44.3408 H   0  0  0  0  0  0  0  0  0  0  0  0
   58.1160   30.5750   45.3660 C   0  0  0  0  0  0  0  0  0  0  0  0
   58.7511   30.8426   46.2233 H   0  0  0  0  0  0  0  0  0  0  0  0
   57.7390   22.8250   45.4130 N   0  0  0  0  0  0  0  0  0  0  0  0
   58.5150   22.2200   44.3370 C   0  0  0  0  0  0  0  0  0  0  0  0
   59.1173   22.9831   43.8224 H   0  0  0  0  0  0  0  0  0  0  0  0
   59.2138   21.4604   44.7174 H   0  0  0  0  0  0  0  0  0  0  0  0
   57.4920   21.6160   43.3810 C   0  0  2  0  0  0  0  0  0  0  0  0
   58.0736   20.7811   42.9631 H   0  0  0  0  0  0  0  0  0  0  0  0
   56.6010   22.6370   42.7970 N   0  0  0  0  0  0  0  0  0  0  0  0
   56.1810   22.2340   41.9280 H   0  0  0  0  0  0  0  0  0  0  0  0
   56.1550   21.8070   43.9340 C   0  0  2  0  0  0  0  0  0  0  0  0
   55.2487   21.2092   44.1109 H   0  0  0  0  0  0  0  0  0  0  0  0
   56.3190   22.4860   45.2990 C   0  0  1  0  0  0  0  0  0  0  0  0
   55.8670   21.6710   46.3750 O   0  0  0  0  0  0  0  0  0  0  0  0
   56.5700   21.9130   47.5770 C   0  0  0  0  0  0  0  0  0  0  0  0
   55.9184   21.6887   48.4344 H   0  0  0  0  0  0  0  0  0  0  0  0
   57.4617   21.2701   47.6161 H   0  0  0  0  0  0  0  0  0  0  0  0
   56.8770   22.9686   47.6161 H   0  0  0  0  0  0  0  0  0  0  0  0
   55.6140   23.8230   45.3780 C   0  0  0  0  0  0  0  0  0  0  0  0
   54.2980   24.0060   45.2220 C   0  0  0  0  0  0  0  0  0  0  0  0
   53.8987   25.0173   45.0553 H   0  0  0  0  0  0  0  0  0  0  0  0
   53.4310   22.9110   45.2710 O   0  0  0  0  0  0  0  0  0  0  0  0
   52.0410   23.0290   45.1790 C   0  0  0  0  0  0  0  0  0  0  0  0
   51.4790   23.2280   44.0670 O   0  0  0  0  0  0  0  0  0  0  0  0
   51.2160   22.8750   46.4110 C   0  0  0  0  0  0  0  0  0  0  0  0
   51.8556   22.9944   47.2979 H   0  0  0  0  0  0  0  0  0  0  0  0
   50.4270   23.6414   46.4221 H   0  0  0  0  0  0  0  0  0  0  0  0
   50.7566   21.8756   46.4221 H   0  0  0  0  0  0  0  0  0  0  0  0
  1  2  1  0
  2  3  1  0
  3  4  2  0
  4  5  1  0
  5  6  2  0
  6  7  1  0
  6  8  1  0
  8  9  1  0
  9 10  1  0
  9 11  1  0
  9 12  1  0
  8 13  2  0
 13 14  1  0
 14 15  1  0
 14 16  1  0
 16 17  2  0
 17 18  1  0
 17 19  1  0
 19 20  1  0
 19 21  2  0
 21 22  1  0
 21 23  1  0
 23 24  1  0
 23 25  2  0
 25 26  1  0
  5 27  1  0
 27 28  1  0
 28 29  1  0
 28 30  1  0
 28 31  1  0
 31 32  1  6
 31 33  1  0
 33 34  1  0
 33 35  1  0
 35 36  1  6
 35 37  1  0
 37 38  1  1
 38 39  1  0
 39 40  1  0
 39 41  1  0
 39 42  1  0
 37 43  1  0
 43 44  2  0
 44 45  1  0
 44 46  1  0
 46 47  1  0
 47 48  2  0
 47 49  1  0
 49 50  1  0
 49 51  1  0
 49 52  1  0
 13  3  1  0
 25 16  1  0
 37 27  1  0
 43  4  1  0
 35 31  1  0
M  CHG  1   7  -1
M  END
>  <UniqueID>  (55) 
50

>  <SMILES>  (55) 
CO[C@@]12/C(=C\OC(C)=O)c3c(O)c(Nc4ccccc4)c(C)c([O-])c3N1C[C@@H]1NC12

>  <Energy>  (55) 
433.099992214661

>  <Genealogy>  (55) 
COC12C(=COC(C)=O)c3c(O)c(Nc4ccccc4)c(C)c([O-])c3N1CC1NC12 (protonated)
CO[C@@]12C(=COC(C)=O)c3c(O)c(Nc4ccccc4)c(C)c([O-])c3N1C[C@@H]1NC12 (chirality)
CO[C@@]12/C(=C\OC(C)=O)c3c(O)c(Nc4ccccc4)c(C)c([O-])c3N1C[C@@H]1NC12 (cis-trans isomerization)
CO[C@@]12/C(=C\OC(C)=O)c3c(O)c(Nc4ccccc4)c(C)c([O-])c3N1C[C@@H]1NC12 (3D coordinates assigned)
CO[C@@]12/C(=C\OC(C)=O)c3c(O)c(Nc4ccccc4)c(C)c([O-])c3N1C[C@@H]1NC12 (nonaromatic ring conformer: 433.099992214661 kcal/mol)

>  <smiles>  (55) 
COC12C(=COC(C)=O)c3c(O)c(Nc4ccccc4)c(C)c(O)c3N1CC1NC12

>  <score_type>  (55) 
oracle

>  <origin>  (55) 
adg

>  <m_score__min__energy>  (55) 
-10.699999999999999

>  <m_primary>  (55) 
energy

$$$$
55:0
     RDKit          3D

 41 43  0  0  0  0  0  0  0  0999 V2000
   58.6320   29.0500   54.3740 H   0  0  0  0  0  0  0  0  0  0  0  0
   58.1690   28.8190   53.5030 O   0  0  0  0  0  0  0  0  0  0  0  0
   56.7850   28.8880   53.3750 C   0  0  0  0  0  0  0  0  0  0  0  0
   55.9780   27.8390   53.6260 N   0  0  0  0  0  0  0  0  0  0  0  0
   54.7250   28.2840   53.3920 C   0  0  0  0  0  0  0  0  0  0  0  0
   53.8172   27.6713   53.4944 H   0  0  0  0  0  0  0  0  0  0  0  0
   54.7340   29.6140   53.0060 C   0  0  0  0  0  0  0  0  0  0  0  0
   53.5320   30.4400   52.7480 C   0  0  0  0  0  0  0  0  0  0  0  0
   52.4630   30.4310   53.6610 C   0  0  0  0  0  0  0  0  0  0  0  0
   52.5312   29.8254   54.5768 H   0  0  0  0  0  0  0  0  0  0  0  0
   51.3140   31.1870   53.4120 C   0  0  0  0  0  0  0  0  0  0  0  0
   50.4789   31.1683   54.1277 H   0  0  0  0  0  0  0  0  0  0  0  0
   51.2240   31.9670   52.2550 C   0  0  0  0  0  0  0  0  0  0  0  0
   50.0800   32.7140   52.0070 O   0  0  0  0  0  0  0  0  0  0  0  0
   52.2880   31.9940   51.3490 C   0  0  0  0  0  0  0  0  0  0  0  0
   52.2196   32.6096   50.4400 H   0  0  0  0  0  0  0  0  0  0  0  0
   53.4390   31.2400   51.5960 C   0  0  0  0  0  0  0  0  0  0  0  0
   54.2771   31.2730   50.8844 H   0  0  0  0  0  0  0  0  0  0  0  0
   56.0680   29.9980   52.9730 C   0  0  0  0  0  0  0  0  0  0  0  0
   56.6410   31.3140   52.6240 C   0  0  0  0  0  0  0  0  0  0  0  0
   56.0773   32.2170   52.9011 H   0  0  0  0  0  0  0  0  0  0  0  0
   57.8180   31.4680   51.9840 C   0  0  0  0  0  0  0  0  0  0  0  0
   58.5190   32.6650   51.8110 C   0  0  0  0  0  0  0  0  0  0  0  0
   58.1600   33.8830   52.2420 C   0  0  0  0  0  0  0  0  0  0  0  0
   57.2233   34.0137   52.8037 H   0  0  0  0  0  0  0  0  0  0  0  0
   58.8022   34.7515   52.0339 H   0  0  0  0  0  0  0  0  0  0  0  0
   59.6710   32.3460   51.0910 C   0  0  0  0  0  0  0  0  0  0  0  0
   60.7640   33.2770   50.6410 C   0  0  0  0  0  0  0  0  0  0  0  0
   61.2665   33.7050   51.5210 H   0  0  0  0  0  0  0  0  0  0  0  0
   61.4947   32.7196   50.0365 H   0  0  0  0  0  0  0  0  0  0  0  0
   60.3299   34.0870   50.0365 H   0  0  0  0  0  0  0  0  0  0  0  0
   59.6320   30.9700   50.8850 C   0  0  0  0  0  0  0  0  0  0  0  0
   60.6460   30.1420   50.2020 C   0  0  0  0  0  0  0  0  0  0  0  0
   61.8620   30.2700   50.5130 O   0  0  0  0  0  0  0  0  0  0  0  0
   60.2670   29.2300   49.2140 O   0  0  0  0  0  0  0  0  0  0  0  0
   60.1440   29.5880   47.8440 C   0  0  0  0  0  0  0  0  0  0  0  0
   59.7875   30.6257   47.7668 H   0  0  0  0  0  0  0  0  0  0  0  0
   61.1241   29.4995   47.3525 H   0  0  0  0  0  0  0  0  0  0  0  0
   59.4253   28.9158   47.3525 H   0  0  0  0  0  0  0  0  0  0  0  0
   58.5130   30.4530   51.4270 N   0  0  0  0  0  0  0  0  0  0  0  0
   58.2680   29.4380   51.4460 H   0  0  0  0  0  0  0  0  0  0  0  0
  1  2  1  0
  2  3  1  0
  3  4  1  0
  4  5  1  0
  5  6  1  0
  5  7  2  0
  7  8  1  0
  8  9  2  0
  9 10  1  0
  9 11  1  0
 11 12  1  0
 11 13  2  0
 13 14  1  0
 13 15  1  0
 15 16  1  0
 15 17  2  0
 17 18  1  0
  7 19  1  0
 19 20  1  0
 20 21  1  0
 20 22  2  0
 22 23  1  0
 23 24  2  0
 24 25  1  0
 24 26  1  0
 23 27  1  0
 27 28  1  0
 28 29  1  0
 28 30  1  0
 28 31  1  0
 27 32  2  0
 32 33  1  0
 33 34  2  0
 33 35  1  0
 35 36  1  0
 36 37  1  0
 36 38  1  0
 36 39  1  0
 32 40  1  0
 40 41  1  0
 19  3  2  0
 40 22  1  0
 17  8  1  0
M  CHG  2   4  -1  14  -1
M  END
>  <UniqueID>  (56) 
51

>  <SMILES>  (56) 
C=c1c(C)c(C(=O)OC)[nH]/c1=C\c1c(-c2ccc([O-])cc2)c[n-]c1O

>  <Energy>  (56) 
104.61769556795633

>  <Genealogy>  (56) 
C=c1c(C)c(C(=O)OC)[nH]c1=Cc1c(-c2ccc([O-])cc2)c[n-]c1O (protonated)
C=c1c(C)c(C(=O)OC)[nH]/c1=C\c1c(-c2ccc([O-])cc2)c[n-]c1O (cis-trans isomerization)
C=c1c(C)c(C(=O)OC)[nH]/c1=C\c1c(-c2ccc([O-])cc2)c[n-]c1O (3D coordinates assigned)
C=c1c(C)c(C(=O)OC)[nH]/c1=C\c1c(-c2ccc([O-])cc2)c[n-]c1O (optimized conformer: 104.61769556795633 kcal/mol)

>  <smiles>  (56) 
C=c1c(C)c(C(=O)OC)[nH]c1=Cc1c(-c2ccc(O)cc2)c[nH]c1O

>  <score_type>  (56) 
oracle

>  <origin>  (56) 
adg

>  <m_score__min__energy>  (56) 
-11.08

>  <m_primary>  (56) 
energy

$$$$
56:0
     RDKit          3D

 64 69  0  0  1  0  0  0  0  0999 V2000
   59.8000   29.7900   49.0330 O   0  0  0  0  0  0  0  0  0  0  0  0
   60.1000   29.8200   47.8300 C   0  0  0  0  0  0  0  0  0  0  0  0
   59.3670   29.3230   46.7350 N   0  0  0  0  0  0  0  0  0  0  0  0
   57.9390   29.0200   46.7040 C   0  0  0  0  0  0  0  0  0  0  0  0
   57.3740   29.6410   45.4790 C   0  0  0  0  0  0  0  0  0  0  0  0
   56.3990   28.9530   44.7900 C   0  0  0  0  0  0  0  0  0  0  0  0
   55.8980   29.5630   43.6590 C   0  0  0  0  0  0  0  0  0  0  0  0
   56.3820   30.8000   43.2760 C   0  0  0  0  0  0  0  0  0  0  0  0
   57.3440   31.5010   43.9430 C   0  0  0  0  0  0  0  0  0  0  0  0
   57.8330   32.8250   43.7080 C   0  0  0  0  0  0  0  0  0  0  0  0
   57.8380   33.8570   44.4850 C   0  0  0  0  0  0  0  0  0  0  0  0
   58.5060   34.0700   45.7300 C   0  0  0  0  0  0  0  0  0  0  0  0
   59.5500   34.8970   46.0280 C   0  0  0  0  0  0  0  0  0  0  0  0
   60.2030   34.9430   47.2430 C   0  0  0  0  0  0  0  0  0  0  0  0
   59.7800   34.0940   48.2500 C   0  0  0  0  0  0  0  0  0  0  0  0
   60.3930   34.0890   49.4860 C   0  0  0  0  0  0  0  0  0  0  0  0
   59.9430   33.2240   50.4750 C   0  0  0  0  0  0  0  0  0  0  0  0
   58.8870   32.3930   50.1640 C   0  0  0  0  0  0  0  0  0  0  0  0
   58.3370   31.3020   51.4420 Cl  0  0  0  0  0  0  0  0  0  0  0  0
   58.2760   32.4030   48.9160 C   0  0  0  0  0  0  0  0  0  0  0  0
   58.7220   33.2650   47.9360 C   0  0  0  0  0  0  0  0  0  0  0  0
   58.1170   33.2450   46.7570 N   0  0  0  0  0  0  0  0  0  0  0  0
   57.8490   30.8700   45.0950 C   0  0  0  0  0  0  0  0  0  0  0  0
   60.2210   29.1350   45.5840 C   0  0  0  0  0  0  0  0  0  0  0  0
   61.5180   29.7540   45.9960 C   0  0  0  0  0  0  0  0  0  0  0  0
   61.2860   30.3780   47.2790 N   0  0  0  0  0  0  0  0  0  0  0  0
   62.1400   31.3800   47.8450 C   0  0  0  0  0  0  0  0  0  0  0  0
   62.5900   32.4620   47.0810 C   0  0  0  0  0  0  0  0  0  0  0  0
   63.4130   33.4320   47.6170 C   0  0  0  0  0  0  0  0  0  0  0  0
   63.8190   33.3690   48.9220 C   0  0  0  0  0  0  0  0  0  0  0  0
   63.3880   32.3090   49.6980 C   0  0  0  0  0  0  0  0  0  0  0  0
   63.8050   32.1960   51.1310 C   0  0  0  0  0  0  0  0  0  0  0  0
   63.0540   31.1270   51.8250 C   0  0  0  0  0  0  0  0  0  0  0  0
   61.8830   31.1880   52.5510 C   0  0  0  0  0  0  0  0  0  0  0  0
   61.5970   29.9230   52.9920 C   0  0  0  0  0  0  0  0  0  0  0  0
   62.5600   29.1180   52.5510 N   0  0  0  0  0  0  0  0  0  0  0  0
   63.4460   29.8310   51.8460 N   0  0  0  0  0  0  0  0  0  0  0  0
   62.5640   31.3450   49.1470 C   0  0  0  0  0  0  0  0  0  0  0  0
   57.7873   27.9309   46.6764 H   0  0  0  0  0  0  0  0  0  0  0  0
   57.4410   29.4149   47.6018 H   0  0  0  0  0  0  0  0  0  0  0  0
   56.0391   27.9688   45.1245 H   0  0  0  0  0  0  0  0  0  0  0  0
   55.1166   29.0673   43.0642 H   0  0  0  0  0  0  0  0  0  0  0  0
   55.9604   31.2526   42.3663 H   0  0  0  0  0  0  0  0  0  0  0  0
   58.2721   32.9893   42.7129 H   0  0  0  0  0  0  0  0  0  0  0  0
   57.2328   34.7053   44.1327 H   0  0  0  0  0  0  0  0  0  0  0  0
   59.8979   35.5797   45.2388 H   0  0  0  0  0  0  0  0  0  0  0  0
   61.0397   35.6381   47.4067 H   0  0  0  0  0  0  0  0  0  0  0  0
   61.2350   34.7676   49.6874 H   0  0  0  0  0  0  0  0  0  0  0  0
   60.4116   33.2024   51.4699 H   0  0  0  0  0  0  0  0  0  0  0  0
   57.4363   31.7231   48.7096 H   0  0  0  0  0  0  0  0  0  0  0  0
   58.6295   31.3650   45.6915 H   0  0  0  0  0  0  0  0  0  0  0  0
   60.3503   28.0653   45.3628 H   0  0  0  0  0  0  0  0  0  0  0  0
   59.8069   29.5849   44.6696 H   0  0  0  0  0  0  0  0  0  0  0  0
   62.2965   28.9819   46.0842 H   0  0  0  0  0  0  0  0  0  0  0  0
   61.8619   30.4885   45.2529 H   0  0  0  0  0  0  0  0  0  0  0  0
   62.2808   32.5417   46.0284 H   0  0  0  0  0  0  0  0  0  0  0  0
   63.7474   34.2682   46.9854 H   0  0  0  0  0  0  0  0  0  0  0  0
   64.4742   34.1449   49.3447 H   0  0  0  0  0  0  0  0  0  0  0  0
   64.8797   31.9656   51.1747 H   0  0  0  0  0  0  0  0  0  0  0  0
   63.5921   33.1520   51.6317 H   0  0  0  0  0  0  0  0  0  0  0  0
   61.2852   32.0914   52.7419 H   0  0  0  0  0  0  0  0  0  0  0  0
   60.7294   29.6268   53.5999 H   0  0  0  0  0  0  0  0  0  0  0  0
   62.6680   28.0940   52.6950 H   0  0  0  0  0  0  0  0  0  0  0  0
   62.2336   30.5112   49.7839 H   0  0  0  0  0  0  0  0  0  0  0  0
  1  2  2  0
  2  3  1  0
  3  4  1  0
  4  5  1  0
  5  6  2  0
  6  7  1  0
  7  8  2  0
  8  9  1  0
  9 10  1  0
 10 11  2  0
 11 12  1  0
 12 13  2  0
 13 14  1  0
 14 15  2  0
 15 16  1  0
 16 17  2  0
 17 18  1  0
 18 19  1  0
 18 20  2  0
 20 21  1  0
 21 22  2  0
  9 23  2  0
  3 24  1  0
 24 25  1  0
 25 26  1  0
 26 27  1  0
 27 28  2  0
 28 29  1  0
 29 30  2  0
 30 31  1  0
 31 32  1  0
 32 33  1  0
 33 34  1  0
 34 35  2  0
 35 36  1  0
 36 37  1  0
 31 38  2  0
 26  2  1  0
 38 27  1  0
 23  5  1  0
 37 33  2  0
 22 12  1  0
 21 15  1  0
  4 39  1  0
  4 40  1  0
  6 41  1  0
  7 42  1  0
  8 43  1  0
 10 44  1  0
 11 45  1  0
 13 46  1  0
 14 47  1  0
 16 48  1  0
 17 49  1  0
 20 50  1  0
 23 51  1  0
 24 52  1  0
 24 53  1  0
 25 54  1  0
 25 55  1  0
 28 56  1  0
 29 57  1  0
 30 58  1  0
 32 59  1  0
 32 60  1  0
 34 61  1  0
 35 62  1  0
 36 63  1  0
 38 64  1  0
M  END
>  <smiles>  (57) 
O=C1N(Cc2cccc(C=Cc3ccc4ccc(Cl)cc4n3)c2)CCN1c1cccc(Cc2cc[nH]n2)c1

>  <score_type>  (57) 
oracle

>  <origin>  (57) 
adg

>  <m_score__min__energy>  (57) 
-11.279999999999999

>  <m_primary>  (57) 
energy

$$$$
57:0
     RDKit          3D

 37 39  0  0  0  0  0  0  0  0999 V2000
   57.9880   30.7260   44.4250 C   0  0  0  0  0  0  0  0  0  0  0  0
   58.2370   30.2490   45.6550 C   0  0  0  0  0  0  0  0  0  0  0  0
   57.9440   28.9660   46.1270 C   0  0  0  0  0  0  0  0  0  0  0  0
   57.3240   27.9710   45.4630 C   0  0  0  0  0  0  0  0  0  0  0  0
   57.2020   26.5920   45.9870 C   0  0  0  0  0  0  0  0  0  0  0  0
   55.9480   26.0080   46.2400 C   0  0  0  0  0  0  0  0  0  0  0  0
   54.7730   26.7120   46.0000 O   0  0  0  0  0  0  0  0  0  0  0  0
   55.8770   24.7480   46.7420 N   0  0  0  0  0  0  0  0  0  0  0  0
   57.0000   24.0410   47.0260 C   0  0  0  0  0  0  0  0  0  0  0  0
   56.9100   22.8750   47.4870 O   0  0  0  0  0  0  0  0  0  0  0  0
   58.2230   24.5950   46.8180 N   0  0  0  0  0  0  0  0  0  0  0  0
   58.3480   25.8500   46.3150 C   0  0  0  0  0  0  0  0  0  0  0  0
   59.4990   26.3340   46.1390 O   0  0  0  0  0  0  0  0  0  0  0  0
   58.3880   28.9230   47.4430 C   0  0  0  0  0  0  0  0  0  0  0  0
   58.9260   30.1640   47.7190 C   0  0  0  0  0  0  0  0  0  0  0  0
   59.5340   30.5650   49.0280 C   0  0  0  0  0  0  0  0  0  0  0  0
   58.8440   30.9630   46.6330 N   0  0  0  0  0  0  0  0  0  0  0  0
   59.2950   32.3240   46.5590 C   0  0  0  0  0  0  0  0  0  0  0  0
   60.6680   32.5990   46.6420 C   0  0  0  0  0  0  0  0  0  0  0  0
   61.1310   33.9140   46.5560 C   0  0  0  0  0  0  0  0  0  0  0  0
   60.2260   34.9640   46.3870 C   0  0  0  0  0  0  0  0  0  0  0  0
   58.8560   34.7020   46.3060 C   0  0  0  0  0  0  0  0  0  0  0  0
   58.3780   33.3850   46.3950 C   0  0  0  0  0  0  0  0  0  0  0  0
   56.9680   33.1400   46.3340 N   0  0  0  0  0  0  0  0  0  0  0  0
   58.2660   31.7590   44.1690 H   0  0  0  0  0  0  0  0  0  0  0  0
   57.5060   30.0838   43.6732 H   0  0  0  0  0  0  0  0  0  0  0  0
   56.8853   28.1953   44.4795 H   0  0  0  0  0  0  0  0  0  0  0  0
   58.3234   28.0670   48.1308 H   0  0  0  0  0  0  0  0  0  0  0  0
   58.9263   30.1642   49.8526 H   0  0  0  0  0  0  0  0  0  0  0  0
   60.5556   30.1629   49.0963 H   0  0  0  0  0  0  0  0  0  0  0  0
   59.5666   31.6624   49.0963 H   0  0  0  0  0  0  0  0  0  0  0  0
   61.3839   31.7746   46.7755 H   0  0  0  0  0  0  0  0  0  0  0  0
   62.2091   34.1226   46.6214 H   0  0  0  0  0  0  0  0  0  0  0  0
   60.5923   35.9989   46.3175 H   0  0  0  0  0  0  0  0  0  0  0  0
   58.1476   35.5327   46.1717 H   0  0  0  0  0  0  0  0  0  0  0  0
   56.2730   33.8710   46.6030 H   0  0  0  0  0  0  0  0  0  0  0  0
   56.6020   32.2210   45.9980 H   0  0  0  0  0  0  0  0  0  0  0  0
  1  2  2  0
  2  3  1  0
  3  4  2  3
  4  5  1  0
  5  6  2  0
  6  7  1  0
  6  8  1  0
  8  9  1  0
  9 10  2  0
  9 11  1  0
 11 12  1  0
 12 13  2  0
  3 14  1  0
 14 15  2  0
 15 16  1  0
 15 17  1  0
 17 18  1  0
 18 19  2  0
 19 20  1  0
 20 21  2  0
 21 22  1  0
 22 23  2  0
 23 24  1  0
 17  2  1  0
 23 18  1  0
 12  5  1  0
  1 25  1  0
  1 26  1  0
  4 27  1  0
 14 28  1  0
 16 29  1  0
 16 30  1  0
 16 31  1  0
 19 32  1  0
 20 33  1  0
 21 34  1  0
 22 35  1  0
 24 36  1  0
 24 37  1  0
M  CHG  3   7  -1   8  -1  11  -1
M  END
>  <UniqueID>  (58) 
52

>  <SMILES>  (58) 
C=c1c(=Cc2c([O-])[n-]c(=O)[n-]c2=O)cc(C)n1-c1ccccc1N

>  <Energy>  (58) 
84.50972626749972

>  <Genealogy>  (58) 
C=c1c(=Cc2c([O-])[n-]c(=O)[n-]c2=O)cc(C)n1-c1ccccc1N (protonated)
C=c1c(=Cc2c([O-])[n-]c(=O)[n-]c2=O)cc(C)n1-c1ccccc1N (3D coordinates assigned)
C=c1c(=Cc2c([O-])[n-]c(=O)[n-]c2=O)cc(C)n1-c1ccccc1N (optimized conformer: 84.50972626749972 kcal/mol)

>  <smiles>  (58) 
C=c1c(=Cc2c(O)[nH]c(=O)[nH]c2=O)cc(C)n1-c1ccccc1N

>  <score_type>  (58) 
oracle

>  <origin>  (58) 
adg

>  <m_score__min__energy>  (58) 
-15.050000000000001

>  <m_primary>  (58) 
energy

$$$$
58:0
     RDKit          3D

 60 63  0  0  0  0  0  0  0  0999 V2000
   57.8890   21.1010   43.4070 C   0  0  0  0  0  0  0  0  0  0  0  0
   56.8790   22.0630   43.9630 C   0  0  0  0  0  0  0  0  0  0  0  0
   56.3940   23.1010   43.1570 C   0  0  0  0  0  0  0  0  0  0  0  0
   55.4720   24.0180   43.6740 C   0  0  0  0  0  0  0  0  0  0  0  0
   55.0360   23.9190   45.0060 C   0  0  0  0  0  0  0  0  0  0  0  0
   54.0630   24.9190   45.5610 C   0  0  0  0  0  0  0  0  0  0  0  0
   54.7890   26.1040   45.9950 N   0  0  0  0  0  0  0  0  0  0  0  0
   56.1920   26.2000   46.2580 C   0  0  0  0  0  0  0  0  0  0  0  0
   56.6520   25.5550   47.2350 O   0  0  0  0  0  0  0  0  0  0  0  0
   57.1300   27.0320   45.4780 C   0  0  0  0  0  0  0  0  0  0  0  0
   58.4300   26.7430   45.1040 C   0  0  0  0  0  0  0  0  0  0  0  0
   58.8940   27.8540   44.4360 C   0  0  0  0  0  0  0  0  0  0  0  0
   57.8510   28.7560   44.4440 C   0  0  0  0  0  0  0  0  0  0  0  0
   57.8750   30.1340   43.8590 C   0  0  0  0  0  0  0  0  0  0  0  0
   57.0460   31.0900   44.6720 C   0  0  0  0  0  0  0  0  0  0  0  0
   55.7940   31.1180   44.4950 O   0  0  0  0  0  0  0  0  0  0  0  0
   57.6580   31.9850   45.6190 N   0  0  0  0  0  0  0  0  0  0  0  0
   58.4280   31.4110   46.7420 C   0  0  0  0  0  0  0  0  0  0  0  0
   59.3450   32.4260   47.4690 C   0  0  0  0  0  0  0  0  0  0  0  0
   59.4620   33.6990   46.7370 N   0  0  0  0  0  0  0  0  0  0  0  0
   60.3080   34.6530   47.4810 C   0  0  0  0  0  0  0  0  0  0  0  0
   61.6320   34.0160   47.7970 C   0  0  0  0  0  0  0  0  0  0  0  0
   62.0280   33.8420   49.1340 C   0  0  0  0  0  0  0  0  0  0  0  0
   63.2610   33.2440   49.4320 C   0  0  0  0  0  0  0  0  0  0  0  0
   64.1030   32.8140   48.4000 C   0  0  0  0  0  0  0  0  0  0  0  0
   63.7140   32.9780   47.0650 C   0  0  0  0  0  0  0  0  0  0  0  0
   62.4810   33.5760   46.7610 C   0  0  0  0  0  0  0  0  0  0  0  0
   58.1150   34.2470   46.5090 C   0  0  0  0  0  0  0  0  0  0  0  0
   57.4370   33.4200   45.4320 C   0  0  0  0  0  0  0  0  0  0  0  0
   56.8210   28.2410   45.0700 O   0  0  0  0  0  0  0  0  0  0  0  0
   55.5590   22.9100   45.8240 C   0  0  0  0  0  0  0  0  0  0  0  0
   56.4650   21.9790   45.3070 C   0  0  0  0  0  0  0  0  0  0  0  0
   58.4137   20.6012   44.2346 H   0  0  0  0  0  0  0  0  0  0  0  0
   57.3772   20.3482   42.7895 H   0  0  0  0  0  0  0  0  0  0  0  0
   58.6160   21.6489   42.7895 H   0  0  0  0  0  0  0  0  0  0  0  0
   56.7383   23.1954   42.1165 H   0  0  0  0  0  0  0  0  0  0  0  0
   55.0853   24.8232   43.0321 H   0  0  0  0  0  0  0  0  0  0  0  0
   53.3370   25.1969   44.7827 H   0  0  0  0  0  0  0  0  0  0  0  0
   53.5288   24.4793   46.4161 H   0  0  0  0  0  0  0  0  0  0  0  0
   58.9823   25.8123   45.3008 H   0  0  0  0  0  0  0  0  0  0  0  0
   59.8894   27.9931   43.9890 H   0  0  0  0  0  0  0  0  0  0  0  0
   58.9142   30.4939   43.8334 H   0  0  0  0  0  0  0  0  0  0  0  0
   57.4531   30.0866   42.8442 H   0  0  0  0  0  0  0  0  0  0  0  0
   57.7165   31.0028   47.4748 H   0  0  0  0  0  0  0  0  0  0  0  0
   59.0867   30.6418   46.3125 H   0  0  0  0  0  0  0  0  0  0  0  0
   58.9274   32.6287   48.4663 H   0  0  0  0  0  0  0  0  0  0  0  0
   60.3497   31.9833   47.5361 H   0  0  0  0  0  0  0  0  0  0  0  0
   60.4716   35.5517   46.8682 H   0  0  0  0  0  0  0  0  0  0  0  0
   59.8048   34.9319   48.4186 H   0  0  0  0  0  0  0  0  0  0  0  0
   61.3690   34.1758   49.9491 H   0  0  0  0  0  0  0  0  0  0  0  0
   63.5674   33.1125   50.4803 H   0  0  0  0  0  0  0  0  0  0  0  0
   65.0703   32.3472   48.6377 H   0  0  0  0  0  0  0  0  0  0  0  0
   64.3749   32.6381   46.2541 H   0  0  0  0  0  0  0  0  0  0  0  0
   62.1763   33.7017   45.7115 H   0  0  0  0  0  0  0  0  0  0  0  0
   57.5307   34.1958   47.4396 H   0  0  0  0  0  0  0  0  0  0  0  0
   58.1834   35.2979   46.1914 H   0  0  0  0  0  0  0  0  0  0  0  0
   56.3555   33.6190   45.4601 H   0  0  0  0  0  0  0  0  0  0  0  0
   57.8702   33.7060   44.4622 H   0  0  0  0  0  0  0  0  0  0  0  0
   55.2553   22.8495   46.8795 H   0  0  0  0  0  0  0  0  0  0  0  0
   56.8559   21.1782   45.9519 H   0  0  0  0  0  0  0  0  0  0  0  0
  1  2  1  0
  2  3  2  0
  3  4  1  0
  4  5  2  0
  5  6  1  0
  6  7  1  0
  7  8  1  0
  8  9  2  0
  8 10  1  0
 10 11  2  0
 11 12  1  0
 12 13  2  0
 13 14  1  0
 14 15  1  0
 15 16  2  0
 15 17  1  0
 17 18  1  0
 18 19  1  0
 19 20  1  0
 20 21  1  0
 21 22  1  0
 22 23  2  0
 23 24  1  0
 24 25  2  0
 25 26  1  0
 26 27  2  0
 20 28  1  0
 28 29  1  0
 13 30  1  0
  5 31  1  0
 31 32  2  0
 32  2  1  0
 30 10  1  0
 29 17  1  0
 27 22  1  0
  1 33  1  0
  1 34  1  0
  1 35  1  0
  3 36  1  0
  4 37  1  0
  6 38  1  0
  6 39  1  0
 11 40  1  0
 12 41  1  0
 14 42  1  0
 14 43  1  0
 18 44  1  0
 18 45  1  0
 19 46  1  0
 19 47  1  0
 21 48  1  0
 21 49  1  0
 23 50  1  0
 24 51  1  0
 25 52  1  0
 26 53  1  0
 27 54  1  0
 28 55  1  0
 28 56  1  0
 29 57  1  0
 29 58  1  0
 31 59  1  0
 32 60  1  0
M  CHG  1   7  -1
M  END
>  <UniqueID>  (59) 
53

>  <SMILES>  (59) 
Cc1ccc(C[N-]C(=O)c2ccc(CC(=O)N3CCN(Cc4ccccc4)CC3)o2)cc1

>  <Energy>  (59) 
96.93387052178358

>  <Genealogy>  (59) 
Cc1ccc(C[N-]C(=O)c2ccc(CC(=O)N3CCN(Cc4ccccc4)CC3)o2)cc1 (protonated)
Cc1ccc(C[N-]C(=O)c2ccc(CC(=O)N3CCN(Cc4ccccc4)CC3)o2)cc1 (3D coordinates assigned)
Cc1ccc(C[N-]C(=O)c2ccc(CC(=O)N3CCN(Cc4ccccc4)CC3)o2)cc1 (nonaromatic ring conformer: 96.93387052178358 kcal/mol)

>  <smiles>  (59) 
Cc1ccc(CNC(=O)c2ccc(CC(=O)N3CCN(Cc4ccccc4)CC3)o2)cc1

>  <score_type>  (59) 
oracle

>  <origin>  (59) 
adg

>  <m_score__min__energy>  (59) 
-12.779999999999999

>  <m_primary>  (59) 
energy

$$$$
59:0
     RDKit          3D

 33 35  0  0  0  0  0  0  0  0999 V2000
   59.4680   32.7980   53.3970 O   0  0  0  0  0  0  0  0  0  0  0  0
   59.0750   32.1210   52.4110 C   0  0  0  0  0  0  0  0  0  0  0  0
   58.5480   30.8080   52.6450 N   0  0  0  0  0  0  0  0  0  0  0  0
   57.1830   30.4030   52.4760 C   0  0  0  0  0  0  0  0  0  0  0  0
   56.7640   29.1850   53.0240 C   0  0  0  0  0  0  0  0  0  0  0  0
   55.4350   28.7710   52.8930 C   0  0  0  0  0  0  0  0  0  0  0  0
   54.5070   29.5750   52.2090 C   0  0  0  0  0  0  0  0  0  0  0  0
   53.1320   29.1880   52.0780 N   0  0  0  0  0  0  0  0  0  0  0  0
   52.1100   29.9290   51.3970 C   0  0  0  0  0  0  0  0  0  0  0  0
   51.7510   29.5530   50.2500 O   0  0  0  0  0  0  0  0  0  0  0  0
   51.4240   31.0700   52.0320 C   0  0  0  0  0  0  0  0  0  0  0  0
   50.9010   31.0710   53.3150 C   0  0  0  0  0  0  0  0  0  0  0  0
   50.3810   32.3290   53.5190 C   0  0  0  0  0  0  0  0  0  0  0  0
   50.6230   33.0240   52.3550 C   0  0  0  0  0  0  0  0  0  0  0  0
   50.2610   34.3460   52.1350 O   0  0  0  0  0  0  0  0  0  0  0  0
   51.2630   32.2720   51.4400 N   0  0  0  0  0  0  0  0  0  0  0  0
   54.9140   30.8160   51.7080 C   0  0  0  0  0  0  0  0  0  0  0  0
   56.2430   31.2300   51.8390 C   0  0  0  0  0  0  0  0  0  0  0  0
   59.2320   32.6620   51.0420 C   0  0  0  0  0  0  0  0  0  0  0  0
   58.7130   31.9830   49.9310 C   0  0  0  0  0  0  0  0  0  0  0  0
   58.8710   32.5320   48.6600 C   0  0  0  0  0  0  0  0  0  0  0  0
   59.5340   33.7510   48.5260 C   0  0  0  0  0  0  0  0  0  0  0  0
   59.6920   34.2690   47.3900 O   0  0  0  0  0  0  0  0  0  0  0  0
   60.0120   34.3790   49.6300 N   0  0  0  0  0  0  0  0  0  0  0  0
   59.8630   33.8530   50.8480 N   0  0  0  0  0  0  0  0  0  0  0  0
   57.4843   28.5501   53.5607 H   0  0  0  0  0  0  0  0  0  0  0  0
   55.1145   27.8124   53.3269 H   0  0  0  0  0  0  0  0  0  0  0  0
   50.9013   30.2336   54.0282 H   0  0  0  0  0  0  0  0  0  0  0  0
   49.8772   32.7015   54.4231 H   0  0  0  0  0  0  0  0  0  0  0  0
   54.1843   31.4699   51.2081 H   0  0  0  0  0  0  0  0  0  0  0  0
   56.5538   32.2075   51.4416 H   0  0  0  0  0  0  0  0  0  0  0  0
   58.1862   31.0262   50.0612 H   0  0  0  0  0  0  0  0  0  0  0  0
   58.4780   32.0107   47.7747 H   0  0  0  0  0  0  0  0  0  0  0  0
  1  2  2  0
  2  3  1  0
  3  4  1  0
  4  5  2  0
  5  6  1  0
  6  7  2  0
  7  8  1  0
  8  9  1  0
  9 10  2  0
  9 11  1  0
 11 12  2  0
 12 13  1  0
 13 14  2  0
 14 15  1  0
 14 16  1  0
  7 17  1  0
 17 18  2  0
  2 19  1  0
 19 20  1  0
 20 21  2  0
 21 22  1  0
 22 23  2  0
 22 24  1  0
 24 25  1  0
 18  4  1  0
 25 19  2  0
 16 11  1  0
  5 26  1  0
  6 27  1  0
 12 28  1  0
 13 29  1  0
 17 30  1  0
 18 31  1  0
 20 32  1  0
 21 33  1  0
M  CHG  5   3  -1   8  -1  15  -1  16  -1  24  -1
M  END
>  <UniqueID>  (60) 
54

>  <SMILES>  (60) 
O=C([N-]c1ccc([N-]C(=O)c2ccc([O-])[n-]2)cc1)c1ccc(=O)[n-]n1

>  <Energy>  (60) 
72.95486703599532

>  <Genealogy>  (60) 
O=C([N-]c1ccc([N-]C(=O)c2ccc([O-])[n-]2)cc1)c1ccc(=O)[n-]n1 (protonated)
O=C([N-]c1ccc([N-]C(=O)c2ccc([O-])[n-]2)cc1)c1ccc(=O)[n-]n1 (3D coordinates assigned)
O=C([N-]c1ccc([N-]C(=O)c2ccc([O-])[n-]2)cc1)c1ccc(=O)[n-]n1 (optimized conformer: 72.95486703599532 kcal/mol)

>  <smiles>  (60) 
O=C(Nc1ccc(NC(=O)c2ccc(O)[nH]2)cc1)c1ccc(=O)[nH]n1

>  <score_type>  (60) 
oracle

>  <origin>  (60) 
adg

>  <m_score__min__energy>  (60) 
-15.69

>  <m_primary>  (60) 
energy

$$$$
60:0
     RDKit          3D

 37 39  0  0  0  0  0  0  0  0999 V2000
   54.1750   26.3380   46.4880 H   0  0  0  0  0  0  0  0  0  0  0  0
   54.2760   25.8030   45.6350 O   0  0  0  0  0  0  0  0  0  0  0  0
   53.7430   24.5220   45.5340 C   0  0  0  0  0  0  0  0  0  0  0  0
   52.4280   24.2660   45.4440 N   0  0  0  0  0  0  0  0  0  0  0  0
   52.3960   22.9240   45.2970 C   0  0  0  0  0  0  0  0  0  0  0  0
   51.3220   22.2810   45.1710 O   0  0  0  0  0  0  0  0  0  0  0  0
   53.6070   22.3260   45.2880 N   0  0  0  0  0  0  0  0  0  0  0  0
   54.4620   23.3480   45.4630 C   0  0  0  0  0  0  0  0  0  0  0  0
   55.9280   23.1900   45.4420 C   0  0  0  0  0  0  0  0  0  0  0  0
   56.3380   22.2239   45.1126 H   0  0  0  0  0  0  0  0  0  0  0  0
   56.7960   24.1550   45.8010 C   0  0  0  0  0  0  0  0  0  0  0  0
   57.2520   24.4080   47.0840 C   0  0  0  0  0  0  0  0  0  0  0  0
   56.9528   23.8812   48.0022 H   0  0  0  0  0  0  0  0  0  0  0  0
   58.1530   25.4470   46.9890 C   0  0  0  0  0  0  0  0  0  0  0  0
   58.9180   25.9980   48.1550 C   0  0  0  0  0  0  0  0  0  0  0  0
   58.4507   25.6614   49.0922 H   0  0  0  0  0  0  0  0  0  0  0  0
   59.9572   25.6396   48.1141 H   0  0  0  0  0  0  0  0  0  0  0  0
   58.9073   27.0972   48.1141 H   0  0  0  0  0  0  0  0  0  0  0  0
   58.3020   25.8380   45.7000 N   0  0  0  0  0  0  0  0  0  0  0  0
   59.2030   26.9090   45.2370 C   0  0  0  0  0  0  0  0  0  0  0  0
   59.9528   27.1096   46.0165 H   0  0  0  0  0  0  0  0  0  0  0  0
   59.6900   26.5782   44.3078 H   0  0  0  0  0  0  0  0  0  0  0  0
   58.4370   28.1790   44.9510 C   0  0  0  0  0  0  0  0  0  0  0  0
   57.0320   28.1820   45.0280 C   0  0  0  0  0  0  0  0  0  0  0  0
   56.4975   27.2569   45.2898 H   0  0  0  0  0  0  0  0  0  0  0  0
   56.3100   29.3530   44.7740 C   0  0  0  0  0  0  0  0  0  0  0  0
   54.9240   29.3460   44.8610 O   0  0  0  0  0  0  0  0  0  0  0  0
   56.9830   30.5290   44.4340 C   0  0  0  0  0  0  0  0  0  0  0  0
   56.4149   31.4501   44.2370 H   0  0  0  0  0  0  0  0  0  0  0  0
   58.3770   30.5360   44.3440 C   0  0  0  0  0  0  0  0  0  0  0  0
   58.9037   31.4631   44.0738 H   0  0  0  0  0  0  0  0  0  0  0  0
   59.1060   29.3690   44.5960 C   0  0  0  0  0  0  0  0  0  0  0  0
   60.4910   29.4010   44.4880 O   0  0  0  0  0  0  0  0  0  0  0  0
   57.4660   25.0540   44.9610 C   0  0  0  0  0  0  0  0  0  0  0  0
   57.3030   25.1470   43.6290 C   0  0  0  0  0  0  0  0  0  0  0  0
   57.8779   25.8886   43.0550 H   0  0  0  0  0  0  0  0  0  0  0  0
   56.5948   24.4814   43.1138 H   0  0  0  0  0  0  0  0  0  0  0  0
  1  2  1  0
  2  3  1  0
  3  4  1  0
  4  5  1  0
  5  6  2  0
  5  7  1  0
  7  8  1  0
  8  9  1  0
  9 10  1  0
  9 11  2  0
 11 12  1  0
 12 13  1  0
 12 14  2  0
 14 15  1  0
 15 16  1  0
 15 17  1  0
 15 18  1  0
 14 19  1  0
 19 20  1  0
 20 21  1  0
 20 22  1  0
 20 23  1  0
 23 24  2  0
 24 25  1  0
 24 26  1  0
 26 27  1  0
 26 28  2  0
 28 29  1  0
 28 30  1  0
 30 31  1  0
 30 32  2  0
 32 33  1  0
 19 34  1  0
 34 35  2  0
 35 36  1  0
 35 37  1  0
  8  3  2  0
 34 11  1  0
 32 23  1  0
M  CHG  4   4  -1   7  -1  27  -1  33  -1
M  END
>  <UniqueID>  (61) 
55

>  <SMILES>  (61) 
C=c1/c(=C/c2[n-]c(=O)[n-]c2O)cc(C)n1Cc1cc([O-])ccc1[O-]

>  <Energy>  (61) 
104.55663745589496

>  <Genealogy>  (61) 
C=c1c(=Cc2[n-]c(=O)[n-]c2O)cc(C)n1Cc1cc([O-])ccc1[O-] (protonated)
C=c1/c(=C/c2[n-]c(=O)[n-]c2O)cc(C)n1Cc1cc([O-])ccc1[O-] (cis-trans isomerization)
C=c1/c(=C/c2[n-]c(=O)[n-]c2O)cc(C)n1Cc1cc([O-])ccc1[O-] (3D coordinates assigned)
C=c1/c(=C/c2[n-]c(=O)[n-]c2O)cc(C)n1Cc1cc([O-])ccc1[O-] (optimized conformer: 104.55663745589496 kcal/mol)

>  <smiles>  (61) 
C=c1c(=Cc2[nH]c(=O)[nH]c2O)cc(C)n1Cc1cc(O)ccc1O

>  <score_type>  (61) 
oracle

>  <origin>  (61) 
adg

>  <m_score__min__energy>  (61) 
-14.960000000000001

>  <m_primary>  (61) 
energy

$$$$
61:0
     RDKit          3D

 62 65  0  0  0  0  0  0  0  0999 V2000
   59.6280   28.1500   47.2430 O   0  0  0  0  0  0  0  0  0  0  0  0
   59.1890   29.2910   47.5430 C   0  0  0  0  0  0  0  0  0  0  0  0
   59.7130   29.9710   48.7850 C   0  0  0  0  0  0  0  0  0  0  0  0
   58.8610   31.1820   49.1880 C   0  0  0  0  0  0  0  0  0  0  0  0
   58.4300   31.1080   50.6220 C   0  0  0  0  0  0  0  0  0  0  0  0
   57.5450   30.1560   51.0200 N   0  0  0  0  0  0  0  0  0  0  0  0
   57.1350   30.0680   52.3130 C   0  0  0  0  0  0  0  0  0  0  0  0
   56.3110   29.1710   52.6400 O   0  0  0  0  0  0  0  0  0  0  0  0
   57.6300   30.9770   53.2660 C   0  0  0  0  0  0  0  0  0  0  0  0
   57.2490   30.9380   54.6190 C   0  0  0  0  0  0  0  0  0  0  0  0
   57.7720   31.8730   55.5220 C   0  0  0  0  0  0  0  0  0  0  0  0
   58.6750   32.8460   55.0820 C   0  0  0  0  0  0  0  0  0  0  0  0
   59.0530   32.8950   53.7360 C   0  0  0  0  0  0  0  0  0  0  0  0
   58.5400   31.9620   52.8280 C   0  0  0  0  0  0  0  0  0  0  0  0
   58.9170   32.0050   51.5220 N   0  0  0  0  0  0  0  0  0  0  0  0
   58.1910   29.8830   46.6970 N   0  0  0  0  0  0  0  0  0  0  0  0
   57.9970   29.6340   45.2690 C   0  0  2  0  0  0  0  0  0  0  0  0
   58.5690   30.8030   44.4390 C   0  0  0  0  0  0  0  0  0  0  0  0
   58.5320   32.1130   45.1900 C   0  0  0  0  0  0  0  0  0  0  0  0
   57.4460   32.9910   45.0350 C   0  0  0  0  0  0  0  0  0  0  0  0
   57.4350   34.2230   45.6980 C   0  0  0  0  0  0  0  0  0  0  0  0
   58.5080   34.5890   46.5140 C   0  0  0  0  0  0  0  0  0  0  0  0
   59.5890   33.7190   46.6780 C   0  0  0  0  0  0  0  0  0  0  0  0
   59.6010   32.4840   46.0240 C   0  0  0  0  0  0  0  0  0  0  0  0
   56.5290   29.4600   44.9970 C   0  0  0  0  0  0  0  0  0  0  0  0
   55.8590   30.4180   44.5200 O   0  0  0  0  0  0  0  0  0  0  0  0
   55.9170   28.1890   45.2470 N   0  0  0  0  0  0  0  0  0  0  0  0
   56.5830   26.9680   45.7020 C   0  0  2  0  0  0  0  0  0  0  0  0
   57.5940   26.4590   44.6520 C   0  0  0  0  0  0  0  0  0  0  0  0
   57.5100   24.9630   44.4840 C   0  0  0  0  0  0  0  0  0  0  0  0
   56.6570   24.3980   43.5220 C   0  0  0  0  0  0  0  0  0  0  0  0
   56.5830   23.0090   43.3760 C   0  0  0  0  0  0  0  0  0  0  0  0
   57.3480   22.1740   44.1970 C   0  0  0  0  0  0  0  0  0  0  0  0
   58.1880   22.7300   45.1670 C   0  0  0  0  0  0  0  0  0  0  0  0
   58.2690   24.1180   45.3120 C   0  0  0  0  0  0  0  0  0  0  0  0
   55.5710   25.9160   46.0700 C   0  0  0  0  0  0  0  0  0  0  0  0
   54.3810   26.0260   45.6740 O   0  0  0  0  0  0  0  0  0  0  0  0
   55.9320   24.8280   46.8550 O   0  0  0  0  0  0  0  0  0  0  0  0
   59.7119   29.2463   49.6125 H   0  0  0  0  0  0  0  0  0  0  0  0
   60.7296   30.3312   48.5686 H   0  0  0  0  0  0  0  0  0  0  0  0
   59.4522   32.0979   49.0408 H   0  0  0  0  0  0  0  0  0  0  0  0
   57.9580   31.1886   48.5598 H   0  0  0  0  0  0  0  0  0  0  0  0
   56.5400   30.1731   54.9686 H   0  0  0  0  0  0  0  0  0  0  0  0
   57.4716   31.8416   56.5797 H   0  0  0  0  0  0  0  0  0  0  0  0
   59.0887   33.5739   55.7954 H   0  0  0  0  0  0  0  0  0  0  0  0
   59.7548   33.6684   53.3907 H   0  0  0  0  0  0  0  0  0  0  0  0
   58.5314   28.7176   44.9780 H   0  0  0  0  0  0  0  0  0  0  0  0
   59.6130   30.5741   44.1787 H   0  0  0  0  0  0  0  0  0  0  0  0
   57.9450   30.9135   43.5399 H   0  0  0  0  0  0  0  0  0  0  0  0
   56.6010   32.7086   44.3898 H   0  0  0  0  0  0  0  0  0  0  0  0
   56.5801   34.9044   45.5765 H   0  0  0  0  0  0  0  0  0  0  0  0
   58.5020   35.5619   47.0273 H   0  0  0  0  0  0  0  0  0  0  0  0
   60.4322   34.0067   47.3231 H   0  0  0  0  0  0  0  0  0  0  0  0
   60.4507   31.7993   46.1625 H   0  0  0  0  0  0  0  0  0  0  0  0
   57.1576   27.2040   46.6098 H   0  0  0  0  0  0  0  0  0  0  0  0
   57.3790   26.9398   43.6863 H   0  0  0  0  0  0  0  0  0  0  0  0
   58.6073   26.7111   44.9979 H   0  0  0  0  0  0  0  0  0  0  0  0
   56.0451   25.0500   42.8813 H   0  0  0  0  0  0  0  0  0  0  0  0
   55.9214   22.5721   42.6135 H   0  0  0  0  0  0  0  0  0  0  0  0
   57.2890   21.0818   44.0799 H   0  0  0  0  0  0  0  0  0  0  0  0
   58.7859   22.0741   45.8169 H   0  0  0  0  0  0  0  0  0  0  0  0
   58.9297   24.5509   46.0775 H   0  0  0  0  0  0  0  0  0  0  0  0
  1  2  2  0
  2  3  1  0
  3  4  1  0
  4  5  1  0
  5  6  2  0
  6  7  1  0
  7  8  2  0
  7  9  1  0
  9 10  2  0
 10 11  1  0
 11 12  2  0
 12 13  1  0
 13 14  2  0
 14 15  1  0
  2 16  1  0
 16 17  1  0
 17 18  1  0
 18 19  1  0
 19 20  2  0
 20 21  1  0
 21 22  2  0
 22 23  1  0
 23 24  2  0
 17 25  1  0
 25 26  2  0
 25 27  1  0
 27 28  1  0
 28 29  1  0
 29 30  1  0
 30 31  2  0
 31 32  1  0
 32 33  2  0
 33 34  1  0
 34 35  2  0
 28 36  1  0
 36 37  2  0
 36 38  1  0
 15  5  1  0
 24 19  1  0
 35 30  1  0
 14  9  1  0
  3 39  1  0
  3 40  1  0
  4 41  1  0
  4 42  1  0
 10 43  1  0
 11 44  1  0
 12 45  1  0
 13 46  1  0
 17 47  1  6
 18 48  1  0
 18 49  1  0
 20 50  1  0
 21 51  1  0
 22 52  1  0
 23 53  1  0
 24 54  1  0
 28 55  1  1
 29 56  1  0
 29 57  1  0
 31 58  1  0
 32 59  1  0
 33 60  1  0
 34 61  1  0
 35 62  1  0
M  CHG  4  15  -1  16  -1  27  -1  38  -1
M  END
>  <UniqueID>  (62) 
56

>  <SMILES>  (62) 
O=C(CCc1nc(=O)c2ccccc2[n-]1)[N-][C@H](Cc1ccccc1)C(=O)[N-][C@H](Cc1ccccc1)C(=O)[O-]

>  <Energy>  (62) 
60.825194446293395

>  <Genealogy>  (62) 
O=C(CCc1nc(=O)c2ccccc2[n-]1)[N-]C(Cc1ccccc1)C(=O)[N-]C(Cc1ccccc1)C(=O)[O-] (protonated)
O=C(CCc1nc(=O)c2ccccc2[n-]1)[N-][C@H](Cc1ccccc1)C(=O)[N-][C@H](Cc1ccccc1)C(=O)[O-] (chirality)
O=C(CCc1nc(=O)c2ccccc2[n-]1)[N-][C@H](Cc1ccccc1)C(=O)[N-][C@H](Cc1ccccc1)C(=O)[O-] (3D coordinates assigned)
O=C(CCc1nc(=O)c2ccccc2[n-]1)[N-][C@H](Cc1ccccc1)C(=O)[N-][C@H](Cc1ccccc1)C(=O)[O-] (optimized conformer: 60.825194446293395 kcal/mol)

>  <smiles>  (62) 
O=C(CCc1nc(=O)c2ccccc2[nH]1)NC(Cc1ccccc1)C(=O)NC(Cc1ccccc1)C(=O)O

>  <score_type>  (62) 
oracle

>  <origin>  (62) 
adg

>  <m_score__min__energy>  (62) 
-17.550000000000001

>  <m_primary>  (62) 
energy

$$$$
62:0
     RDKit          3D

 50 52  0  0  0  0  0  0  0  0999 V2000
   60.1820   27.3790   46.6270 H   0  0  0  0  0  0  0  0  0  0  0  0
   59.4680   26.7010   46.8650 O   0  0  0  0  0  0  0  0  0  0  0  0
   58.1580   26.8540   46.4150 C   0  0  0  0  0  0  0  0  0  0  0  0
   57.2840   25.8190   46.5290 N   0  0  0  0  0  0  0  0  0  0  0  0
   55.9910   25.9450   46.1340 C   0  0  0  0  0  0  0  0  0  0  0  0
   55.2010   24.9730   46.2470 O   0  0  0  0  0  0  0  0  0  0  0  0
   55.5480   27.1230   45.6230 N   0  0  0  0  0  0  0  0  0  0  0  0
   56.3830   28.1860   45.4840 C   0  0  0  0  0  0  0  0  0  0  0  0
   55.9360   29.2640   45.0100 O   0  0  0  0  0  0  0  0  0  0  0  0
   57.7300   28.0730   45.8600 C   0  0  0  0  0  0  0  0  0  0  0  0
   58.6430   29.2310   45.7450 C   0  0  0  0  0  0  0  0  0  0  0  0
   59.6260   29.1715   46.2351 H   0  0  0  0  0  0  0  0  0  0  0  0
   58.3320   30.3540   45.0710 C   0  0  0  0  0  0  0  0  0  0  0  0
   57.9760   31.5800   45.6380 C   0  0  0  0  0  0  0  0  0  0  0  0
   58.0180   31.9590   47.0990 C   0  0  0  0  0  0  0  0  0  0  0  0
   57.3732   32.8346   47.2650 H   0  0  0  0  0  0  0  0  0  0  0  0
   57.6621   31.1083   47.6987 H   0  0  0  0  0  0  0  0  0  0  0  0
   59.4260   32.2940   47.5140 C   0  0  0  0  0  0  0  0  0  0  0  0
   60.4620   31.3670   47.3230 C   0  0  0  0  0  0  0  0  0  0  0  0
   60.2514   30.4050   46.8330 H   0  0  0  0  0  0  0  0  0  0  0  0
   61.7610   31.6590   47.7520 C   0  0  0  0  0  0  0  0  0  0  0  0
   62.5674   30.9268   47.5986 H   0  0  0  0  0  0  0  0  0  0  0  0
   62.0370   32.8830   48.3770 C   0  0  0  0  0  0  0  0  0  0  0  0
   63.6600   33.2520   48.9540 S   0  0  0  0  0  0  0  0  0  0  0  0
   64.5110   33.7500   47.8160 O   0  0  0  0  0  0  0  0  0  0  0  0
   63.5650   34.3350   49.9930 O   0  0  0  0  0  0  0  0  0  0  0  0
   64.3760   31.8200   49.6550 N   0  0  0  0  0  0  0  0  0  0  0  0
   65.7200   32.1380   50.1560 C   0  0  0  0  0  0  0  0  0  0  0  0
   65.7113   32.1359   51.2560 H   0  0  0  0  0  0  0  0  0  0  0  0
   66.4343   31.3841   49.7936 H   0  0  0  0  0  0  0  0  0  0  0  0
   66.0207   33.1321   49.7936 H   0  0  0  0  0  0  0  0  0  0  0  0
   63.5280   31.3420   50.7540 C   0  0  0  0  0  0  0  0  0  0  0  0
   63.9925   31.6038   51.7161 H   0  0  0  0  0  0  0  0  0  0  0  0
   62.5370   31.8144   50.6847 H   0  0  0  0  0  0  0  0  0  0  0  0
   63.4191   30.2496   50.6847 H   0  0  0  0  0  0  0  0  0  0  0  0
   61.0060   33.8090   48.5700 C   0  0  0  0  0  0  0  0  0  0  0  0
   61.2183   34.7703   49.0607 H   0  0  0  0  0  0  0  0  0  0  0  0
   59.7070   33.5180   48.1420 C   0  0  0  0  0  0  0  0  0  0  0  0
   58.9019   34.2511   48.2979 H   0  0  0  0  0  0  0  0  0  0  0  0
   57.7330   32.4440   44.5720 C   0  0  0  0  0  0  0  0  0  0  0  0
   57.4220   33.9120   44.6550 C   0  0  0  0  0  0  0  0  0  0  0  0
   57.3580   34.2141   45.7108 H   0  0  0  0  0  0  0  0  0  0  0  0
   58.2188   34.4843   44.1575 H   0  0  0  0  0  0  0  0  0  0  0  0
   56.4615   34.1120   44.1575 H   0  0  0  0  0  0  0  0  0  0  0  0
   57.9590   31.7090   43.4150 C   0  0  0  0  0  0  0  0  0  0  0  0
   57.8750   32.1570   42.1600 C   0  0  0  0  0  0  0  0  0  0  0  0
   57.5884   33.2013   41.9668 H   0  0  0  0  0  0  0  0  0  0  0  0
   58.0924   31.4818   41.3193 H   0  0  0  0  0  0  0  0  0  0  0  0
   58.3040   30.4430   43.7230 N   0  0  0  0  0  0  0  0  0  0  0  0
   58.5030   29.6830   43.0340 H   0  0  0  0  0  0  0  0  0  0  0  0
  1  2  1  0
  2  3  1  0
  3  4  1  0
  4  5  1  0
  5  6  2  0
  5  7  1  0
  7  8  1  0
  8  9  2  0
  8 10  1  0
 10 11  1  0
 11 12  1  0
 11 13  2  0
 13 14  1  0
 14 15  1  0
 15 16  1  0
 15 17  1  0
 15 18  1  0
 18 19  2  0
 19 20  1  0
 19 21  1  0
 21 22  1  0
 21 23  2  0
 23 24  1  0
 24 25  2  0
 24 26  2  0
 24 27  1  0
 27 28  1  0
 28 29  1  0
 28 30  1  0
 28 31  1  0
 27 32  1  0
 32 33  1  0
 32 34  1  0
 32 35  1  0
 23 36  1  0
 36 37  1  0
 36 38  2  0
 38 39  1  0
 14 40  2  0
 40 41  1  0
 41 42  1  0
 41 43  1  0
 41 44  1  0
 40 45  1  0
 45 46  2  0
 46 47  1  0
 46 48  1  0
 45 49  1  0
 49 50  1  0
 10  3  2  0
 49 13  1  0
 38 18  1  0
M  CHG  2   4  -1   7  -1
M  END
>  <UniqueID>  (63) 
57

>  <SMILES>  (63) 
C=c1[nH]/c(=C\c2c(O)[n-]c(=O)[n-]c2=O)c(Cc2ccc(S(=O)(=O)N(C)C)cc2)c1C

>  <Energy>  (63) 
83.26449044685151

>  <Genealogy>  (63) 
C=c1[nH]c(=Cc2c(O)[n-]c(=O)[n-]c2=O)c(Cc2ccc(S(=O)(=O)N(C)C)cc2)c1C (protonated)
C=c1[nH]/c(=C\c2c(O)[n-]c(=O)[n-]c2=O)c(Cc2ccc(S(=O)(=O)N(C)C)cc2)c1C (cis-trans isomerization)
C=c1[nH]/c(=C\c2c(O)[n-]c(=O)[n-]c2=O)c(Cc2ccc(S(=O)(=O)N(C)C)cc2)c1C (3D coordinates assigned)
C=c1[nH]/c(=C\c2c(O)[n-]c(=O)[n-]c2=O)c(Cc2ccc(S(=O)(=O)N(C)C)cc2)c1C (optimized conformer: 83.26449044685151 kcal/mol)

>  <smiles>  (63) 
C=c1[nH]c(=Cc2c(O)[nH]c(=O)[nH]c2=O)c(Cc2ccc(S(=O)(=O)N(C)C)cc2)c1C

>  <score_type>  (63) 
oracle

>  <origin>  (63) 
adg

>  <m_score__min__energy>  (63) 
-13.56

>  <m_primary>  (63) 
energy

$$$$
63:0
     RDKit          3D

 60 63  0  0  0  0  0  0  0  0999 V2000
   59.5799   33.9113   43.1555 H   0  0  0  0  0  0  0  0  0  0  0  0
   58.8520   33.4960   43.8680 C   0  0  0  0  0  0  0  0  0  0  0  0
   58.0260   32.4610   43.5570 N   0  0  0  0  0  0  0  0  0  0  0  0
   57.2350   32.1290   44.6050 C   0  0  0  0  0  0  0  0  0  0  0  0
   56.3360   31.1910   44.5720 N   0  0  0  0  0  0  0  0  0  0  0  0
   56.5540   29.8100   44.9030 C   0  0  0  0  0  0  0  0  0  0  0  0
   55.5710   29.0210   44.8590 O   0  0  0  0  0  0  0  0  0  0  0  0
   57.8730   29.2990   45.3510 C   0  0  0  0  0  0  0  0  0  0  0  0
   58.3840   29.6710   46.6070 C   0  0  0  0  0  0  0  0  0  0  0  0
   57.7911   30.3207   47.2676 H   0  0  0  0  0  0  0  0  0  0  0  0
   59.6420   29.2200   47.0220 C   0  0  0  0  0  0  0  0  0  0  0  0
   60.0307   29.5092   48.0095 H   0  0  0  0  0  0  0  0  0  0  0  0
   60.4050   28.4030   46.1840 C   0  0  0  0  0  0  0  0  0  0  0  0
   61.3913   28.0448   46.5139 H   0  0  0  0  0  0  0  0  0  0  0  0
   59.9160   28.0420   44.9300 C   0  0  0  0  0  0  0  0  0  0  0  0
   60.5203   27.4042   44.2681 H   0  0  0  0  0  0  0  0  0  0  0  0
   58.6580   28.4890   44.5110 C   0  0  0  0  0  0  0  0  0  0  0  0
   58.2804   28.2049   43.5177 H   0  0  0  0  0  0  0  0  0  0  0  0
   57.5050   33.1060   45.9490 S   0  0  0  0  0  0  0  0  0  0  0  0
   58.7010   33.9850   45.1580 C   0  0  0  0  0  0  0  0  0  0  0  0
   59.6110   35.3520   45.8690 S   0  0  0  0  0  0  0  0  0  0  0  0
   60.6010   34.2660   46.8920 C   0  0  0  0  0  0  0  0  0  0  0  0
   61.7340   33.6400   46.3580 C   0  0  0  0  0  0  0  0  0  0  0  0
   62.0053   33.8003   45.3041 H   0  0  0  0  0  0  0  0  0  0  0  0
   62.5200   32.8120   47.1630 C   0  0  0  0  0  0  0  0  0  0  0  0
   63.4148   32.3283   46.7442 H   0  0  0  0  0  0  0  0  0  0  0  0
   62.1720   32.5970   48.4990 C   0  0  0  0  0  0  0  0  0  0  0  0
   62.7992   31.9507   49.1306 H   0  0  0  0  0  0  0  0  0  0  0  0
   61.0250   33.2020   49.0400 C   0  0  0  0  0  0  0  0  0  0  0  0
   60.6650   32.9740   50.4590 C   0  0  0  0  0  0  0  0  0  0  0  0
   61.5820   32.9440   51.3200 O   0  0  0  0  0  0  0  0  0  0  0  0
   59.3010   32.7790   50.8740 N   0  0  0  0  0  0  0  0  0  0  0  0
   58.9180   33.1140   52.2510 C   0  0  0  0  0  0  0  0  0  0  0  0
   59.2723   34.1281   52.4877 H   0  0  0  0  0  0  0  0  0  0  0  0
   59.3742   32.3813   52.9330 H   0  0  0  0  0  0  0  0  0  0  0  0
   57.3890   33.0610   52.4190 C   0  0  0  0  0  0  0  0  0  0  0  0
   56.9430   33.8723   51.8250 H   0  0  0  0  0  0  0  0  0  0  0  0
   57.1725   33.1699   53.4920 H   0  0  0  0  0  0  0  0  0  0  0  0
   56.7980   31.7680   51.9750 N   0  0  0  0  0  0  0  0  0  0  0  0
   55.8480   31.9960   51.5970 H   0  0  0  0  0  0  0  0  0  0  0  0
   56.6330   30.8690   53.1050 C   0  0  0  0  0  0  0  0  0  0  0  0
   57.0700   31.1810   54.2060 O   0  0  0  0  0  0  0  0  0  0  0  0
   55.9280   29.5430   52.9540 C   0  0  0  0  0  0  0  0  0  0  0  0
   56.1927   28.8941   53.8019 H   0  0  0  0  0  0  0  0  0  0  0  0
   56.2430   29.0793   52.0076 H   0  0  0  0  0  0  0  0  0  0  0  0
   54.4070   29.7410   52.9260 C   0  0  0  0  0  0  0  0  0  0  0  0
   54.1125   30.3765   53.7742 H   0  0  0  0  0  0  0  0  0  0  0  0
   53.9266   28.7538   52.9948 H   0  0  0  0  0  0  0  0  0  0  0  0
   53.9590   30.4060   51.6270 C   0  0  0  0  0  0  0  0  0  0  0  0
   53.3583   31.2976   51.8597 H   0  0  0  0  0  0  0  0  0  0  0  0
   54.8428   30.7016   51.0426 H   0  0  0  0  0  0  0  0  0  0  0  0
   53.3531   29.6980   51.0426 H   0  0  0  0  0  0  0  0  0  0  0  0
   57.5410   31.0850   50.8810 C   0  0  0  0  0  0  0  0  0  0  0  0
   56.8200   30.5583   50.2386 H   0  0  0  0  0  0  0  0  0  0  0  0
   58.2528   30.3850   51.3430 H   0  0  0  0  0  0  0  0  0  0  0  0
   58.3400   32.0670   50.0220 C   0  0  0  0  0  0  0  0  0  0  0  0
   57.6549   32.7902   49.5555 H   0  0  0  0  0  0  0  0  0  0  0  0
   58.8781   31.5182   49.2351 H   0  0  0  0  0  0  0  0  0  0  0  0
   60.2500   34.0490   48.2290 C   0  0  0  0  0  0  0  0  0  0  0  0
   59.3618   34.5445   48.6481 H   0  0  0  0  0  0  0  0  0  0  0  0
  1  2  1  0
  2  3  1  0
  3  4  1  0
  4  5  2  0
  5  6  1  0
  6  7  2  0
  6  8  1  0
  8  9  2  0
  9 10  1  0
  9 11  1  0
 11 12  1  0
 11 13  2  0
 13 14  1  0
 13 15  1  0
 15 16  1  0
 15 17  2  0
 17 18  1  0
  4 19  1  0
 19 20  1  0
 20 21  1  0
 21 22  1  0
 22 23  2  0
 23 24  1  0
 23 25  1  0
 25 26  1  0
 25 27  2  0
 27 28  1  0
 27 29  1  0
 29 30  1  0
 30 31  2  0
 30 32  1  0
 32 33  1  0
 33 34  1  0
 33 35  1  0
 33 36  1  0
 36 37  1  0
 36 38  1  0
 36 39  1  0
 39 40  1  0
 39 41  1  0
 41 42  2  0
 41 43  1  0
 43 44  1  0
 43 45  1  0
 43 46  1  0
 46 47  1  0
 46 48  1  0
 46 49  1  0
 49 50  1  0
 49 51  1  0
 49 52  1  0
 39 53  1  0
 53 54  1  0
 53 55  1  0
 53 56  1  0
 56 57  1  0
 56 58  1  0
 29 59  2  0
 59 60  1  0
 20  2  2  0
 59 22  1  0
 17  8  1  0
 56 32  1  0
M  CHG  2   3  -1  39   1
M  END
>  <UniqueID>  (64) 
58

>  <SMILES>  (64) 
CCCC(=O)[NH+]1CCN(C(=O)c2cccc(Sc3c[n-]/c(=N\C(=O)c4ccccc4)s3)c2)CC1

>  <Energy>  (64) 
102.59491422484813

>  <Genealogy>  (64) 
CCCC(=O)[NH+]1CCN(C(=O)c2cccc(Sc3c[n-]c(=NC(=O)c4ccccc4)s3)c2)CC1 (protonated)
CCCC(=O)[NH+]1CCN(C(=O)c2cccc(Sc3c[n-]/c(=N\C(=O)c4ccccc4)s3)c2)CC1 (cis-trans isomerization)
CCCC(=O)[NH+]1CCN(C(=O)c2cccc(Sc3c[n-]/c(=N\C(=O)c4ccccc4)s3)c2)CC1 (3D coordinates assigned)
CCCC(=O)[NH+]1CCN(C(=O)c2cccc(Sc3c[n-]/c(=N\C(=O)c4ccccc4)s3)c2)CC1 (nonaromatic ring conformer: 102.59491422484813 kcal/mol)

>  <smiles>  (64) 
CCCC(=O)N1CCN(C(=O)c2cccc(Sc3c[nH]c(=NC(=O)c4ccccc4)s3)c2)CC1

>  <score_type>  (64) 
oracle

>  <origin>  (64) 
adg

>  <m_score__min__energy>  (64) 
-12.029999999999999

>  <m_primary>  (64) 
energy

$$$$
64:0
     RDKit          3D

 56 59  0  0  0  0  0  0  0  0999 V2000
   59.9910   32.1730   45.9030 O   0  0  0  0  0  0  0  0  0  0  0  0
   58.9680   32.1850   46.6410 C   0  0  0  0  0  0  0  0  0  0  0  0
   57.7180   31.6910   46.1300 N   0  0  0  0  0  0  0  0  0  0  0  0
   57.4580   31.5200   44.7270 C   0  0  0  0  0  0  0  0  0  0  0  0
   58.1330   32.3300   43.8000 C   0  0  0  0  0  0  0  0  0  0  0  0
   57.9050   32.1790   42.4290 C   0  0  0  0  0  0  0  0  0  0  0  0
   57.0130   31.2080   41.9710 C   0  0  0  0  0  0  0  0  0  0  0  0
   56.3550   30.3770   42.8820 C   0  0  0  0  0  0  0  0  0  0  0  0
   56.5820   30.5190   44.2570 C   0  0  0  0  0  0  0  0  0  0  0  0
   55.9560   29.6460   45.1400 O   0  0  0  0  0  0  0  0  0  0  0  0
   59.0800   32.6650   48.0400 C   0  0  0  0  0  0  0  0  0  0  0  0
   59.7030   33.8960   48.3170 C   0  0  0  0  0  0  0  0  0  0  0  0
   59.8150   34.3520   49.6330 C   0  0  0  0  0  0  0  0  0  0  0  0
   59.2980   33.5950   50.6850 C   0  0  0  0  0  0  0  0  0  0  0  0
   58.6580   32.3770   50.4250 C   0  0  0  0  0  0  0  0  0  0  0  0
   58.0150   31.4000   51.7440 S   0  0  0  0  0  0  0  0  0  0  0  0
   57.0730   32.2220   52.5820 O   0  0  0  0  0  0  0  0  0  0  0  0
   57.2530   30.2440   51.1590 O   0  0  0  0  0  0  0  0  0  0  0  0
   59.3250   30.8030   52.7320 N   0  0  0  0  0  0  0  0  0  0  0  0
   59.8660   29.5560   52.1520 C   0  0  0  0  0  0  0  0  0  0  0  0
   61.2870   29.2800   52.6610 C   0  0  0  0  0  0  0  0  0  0  0  0
   62.2390   30.3560   52.2830 N   0  0  0  0  0  0  0  0  0  0  0  0
   63.0710   29.9600   51.1260 C   0  0  0  0  0  0  0  0  0  0  0  0
   63.1350   31.0660   50.1030 C   0  0  0  0  0  0  0  0  0  0  0  0
   64.0770   32.1010   50.2270 C   0  0  0  0  0  0  0  0  0  0  0  0
   64.1460   33.1090   49.2610 C   0  0  0  0  0  0  0  0  0  0  0  0
   63.2790   33.0900   48.1650 C   0  0  0  0  0  0  0  0  0  0  0  0
   63.3490   34.0680   47.2280 F   0  0  0  0  0  0  0  0  0  0  0  0
   62.3430   32.0600   48.0320 C   0  0  0  0  0  0  0  0  0  0  0  0
   62.2720   31.0490   48.9950 C   0  0  0  0  0  0  0  0  0  0  0  0
   61.5780   31.6660   52.0470 C   0  0  0  0  0  0  0  0  0  0  0  0
   60.3490   31.8520   52.9500 C   0  0  0  0  0  0  0  0  0  0  0  0
   58.5520   31.9140   49.1060 C   0  0  0  0  0  0  0  0  0  0  0  0
   57.0410   31.2710   46.8060 H   0  0  0  0  0  0  0  0  0  0  0  0
   58.8461   33.0886   44.1549 H   0  0  0  0  0  0  0  0  0  0  0  0
   58.4292   32.8262   41.7104 H   0  0  0  0  0  0  0  0  0  0  0  0
   56.8278   31.0967   40.8924 H   0  0  0  0  0  0  0  0  0  0  0  0
   55.6566   29.6090   42.5181 H   0  0  0  0  0  0  0  0  0  0  0  0
   60.1044   34.5032   47.4922 H   0  0  0  0  0  0  0  0  0  0  0  0
   60.3124   35.3110   49.8404 H   0  0  0  0  0  0  0  0  0  0  0  0
   59.3933   33.9555   51.7199 H   0  0  0  0  0  0  0  0  0  0  0  0
   59.2140   28.7162   52.4343 H   0  0  0  0  0  0  0  0  0  0  0  0
   59.9025   29.6670   51.0582 H   0  0  0  0  0  0  0  0  0  0  0  0
   61.2608   29.1998   53.7578 H   0  0  0  0  0  0  0  0  0  0  0  0
   61.6348   28.3445   52.1986 H   0  0  0  0  0  0  0  0  0  0  0  0
   64.0892   29.7339   51.4756 H   0  0  0  0  0  0  0  0  0  0  0  0
   62.6193   29.0738   50.6564 H   0  0  0  0  0  0  0  0  0  0  0  0
   64.7625   32.1182   51.0871 H   0  0  0  0  0  0  0  0  0  0  0  0
   64.8838   33.9184   49.3636 H   0  0  0  0  0  0  0  0  0  0  0  0
   61.6616   32.0451   47.1686 H   0  0  0  0  0  0  0  0  0  0  0  0
   61.5377   30.2374   48.8846 H   0  0  0  0  0  0  0  0  0  0  0  0
   62.2981   32.4713   52.2543 H   0  0  0  0  0  0  0  0  0  0  0  0
   61.2426   31.6977   50.9998 H   0  0  0  0  0  0  0  0  0  0  0  0
   60.6735   31.8162   54.0004 H   0  0  0  0  0  0  0  0  0  0  0  0
   59.8939   32.8223   52.7021 H   0  0  0  0  0  0  0  0  0  0  0  0
   58.0518   30.9556   48.9029 H   0  0  0  0  0  0  0  0  0  0  0  0
  1  2  2  0
  2  3  1  0
  3  4  1  0
  4  5  2  0
  5  6  1  0
  6  7  2  0
  7  8  1  0
  8  9  2  0
  9 10  1  0
  2 11  1  0
 11 12  2  0
 12 13  1  0
 13 14  2  0
 14 15  1  0
 15 16  1  0
 16 17  2  0
 16 18  2  0
 16 19  1  0
 19 20  1  0
 20 21  1  0
 21 22  1  0
 22 23  1  0
 23 24  1  0
 24 25  2  0
 25 26  1  0
 26 27  2  0
 27 28  1  0
 27 29  1  0
 29 30  2  0
 22 31  1  0
 31 32  1  0
 15 33  2  0
  9  4  1  0
 33 11  1  0
 32 19  1  0
 30 24  1  0
  3 34  1  0
  5 35  1  0
  6 36  1  0
  7 37  1  0
  8 38  1  0
 12 39  1  0
 13 40  1  0
 14 41  1  0
 20 42  1  0
 20 43  1  0
 21 44  1  0
 21 45  1  0
 23 46  1  0
 23 47  1  0
 25 48  1  0
 26 49  1  0
 29 50  1  0
 30 51  1  0
 31 52  1  0
 31 53  1  0
 32 54  1  0
 32 55  1  0
 33 56  1  0
M  CHG  1  10  -1
M  END
>  <UniqueID>  (65) 
59

>  <SMILES>  (65) 
O=C(Nc1ccccc1[O-])c1cccc(S(=O)(=O)N2CCN(Cc3ccc(F)cc3)CC2)c1

>  <Energy>  (65) 
77.70960124203972

>  <Genealogy>  (65) 
O=C(Nc1ccccc1[O-])c1cccc(S(=O)(=O)N2CCN(Cc3ccc(F)cc3)CC2)c1 (protonated)
O=C(Nc1ccccc1[O-])c1cccc(S(=O)(=O)N2CCN(Cc3ccc(F)cc3)CC2)c1 (3D coordinates assigned)
O=C(Nc1ccccc1[O-])c1cccc(S(=O)(=O)N2CCN(Cc3ccc(F)cc3)CC2)c1 (nonaromatic ring conformer: 77.70960124203972 kcal/mol)

>  <smiles>  (65) 
O=C(Nc1ccccc1O)c1cccc(S(=O)(=O)N2CCN(Cc3ccc(F)cc3)CC2)c1

>  <score_type>  (65) 
oracle

>  <origin>  (65) 
adg

>  <m_score__min__energy>  (65) 
-13.56

>  <m_primary>  (65) 
energy

$$$$
65:0
     RDKit          3D

 87 91  0  0  0  0  0  0  0  0999 V2000
   53.7470   23.4510   45.6190 C   0  0  0  0  0  0  0  0  0  0  0  0
   54.5930   23.4630   44.4750 O   0  0  0  0  0  0  0  0  0  0  0  0
   55.9550   23.1200   44.4900 C   0  0  0  0  0  0  0  0  0  0  0  0
   56.4850   22.1520   43.6100 C   0  0  0  0  0  0  0  0  0  0  0  0
   57.8290   21.7770   43.6990 C   0  0  0  0  0  0  0  0  0  0  0  0
   58.6540   22.3580   44.6610 C   0  0  0  0  0  0  0  0  0  0  0  0
   58.1450   23.3250   45.5280 C   0  0  0  0  0  0  0  0  0  0  0  0
   56.8090   23.7340   45.4290 C   0  0  0  0  0  0  0  0  0  0  0  0
   56.3280   24.7240   46.3480 N   0  0  0  0  0  0  0  0  0  0  0  0
   56.2660   26.1320   46.0870 C   0  0  0  0  0  0  0  0  0  0  0  0
   55.1490   26.7070   46.0070 O   0  0  0  0  0  0  0  0  0  0  0  0
   57.4920   26.9410   45.9260 C   0  0  0  0  0  0  0  0  0  0  0  0
   57.9690   27.4280   44.7680 C   0  0  0  0  0  0  0  0  0  0  0  0
   57.7990   28.8160   44.2920 C   0  0  0  0  0  0  0  0  0  0  0  0
   56.7810   29.1170   43.3720 C   0  0  0  0  0  0  0  0  0  0  0  0
   56.5870   30.4320   42.9430 C   0  0  0  0  0  0  0  0  0  0  0  0
   57.3900   31.4570   43.4480 C   0  0  0  0  0  0  0  0  0  0  0  0
   58.3810   31.1740   44.3920 C   0  0  0  0  0  0  0  0  0  0  0  0
   58.5870   29.8530   44.8310 C   0  0  0  0  0  0  0  0  0  0  0  0
   59.6190   29.5200   45.7730 N   0  0  0  0  0  0  0  0  0  0  0  0
   59.7560   30.0760   47.4150 S   0  0  0  0  0  0  0  0  0  0  0  0
   58.5520   29.5780   48.1660 O   0  0  0  0  0  0  0  0  0  0  0  0
   60.9920   29.5270   48.0700 O   0  0  0  0  0  0  0  0  0  0  0  0
   59.7690   31.8450   47.4810 C   0  0  0  0  0  0  0  0  0  0  0  0
   60.2200   32.5800   46.3730 C   0  0  0  0  0  0  0  0  0  0  0  0
   60.1910   33.9770   46.3860 C   0  0  0  0  0  0  0  0  0  0  0  0
   59.7070   34.6560   47.5030 C   0  0  0  0  0  0  0  0  0  0  0  0
   59.2600   33.9420   48.6130 C   0  0  0  0  0  0  0  0  0  0  0  0
   59.2810   32.5360   48.6150 C   0  0  0  0  0  0  0  0  0  0  0  0
   58.8570   31.8220   49.7890 N   0  0  0  0  0  0  0  0  0  0  0  0
   59.3850   32.0990   51.0920 C   0  0  0  0  0  0  0  0  0  0  0  0
   59.9310   33.2080   51.3340 O   0  0  0  0  0  0  0  0  0  0  0  0
   59.2790   31.0760   52.1830 C   0  0  0  0  0  0  0  0  0  0  0  0
   60.9200   30.3740   52.5750 S   0  0  0  0  0  0  0  0  0  0  0  0
   61.0040   29.2010   51.1700 C   0  0  0  0  0  0  0  0  0  0  0  0
   61.7820   27.9930   51.5700 C   0  0  0  0  0  0  0  0  0  0  0  0
   61.3480   26.8480   51.2720 O   0  0  0  0  0  0  0  0  0  0  0  0
   63.0390   28.1550   52.2400 N   0  0  0  0  0  0  0  0  0  0  0  0
   64.1020   29.0470   51.8690 C   0  0  0  0  0  0  0  0  0  0  0  0
   65.4240   28.6350   52.0790 C   0  0  0  0  0  0  0  0  0  0  0  0
   66.4890   29.4820   51.7610 C   0  0  0  0  0  0  0  0  0  0  0  0
   66.2430   30.7450   51.2230 C   0  0  0  0  0  0  0  0  0  0  0  0
   64.9270   31.1610   50.9790 C   0  0  0  0  0  0  0  0  0  0  0  0
   64.6140   32.7670   50.3170 S   0  0  0  0  0  0  0  0  0  0  0  0
   65.7360   33.1470   49.3880 O   0  0  0  0  0  0  0  0  0  0  0  0
   64.5960   33.7630   51.4430 O   0  0  0  0  0  0  0  0  0  0  0  0
   63.0920   32.8470   49.4500 N   0  0  0  0  0  0  0  0  0  0  0  0
   62.8120   31.6220   48.6670 C   0  0  0  0  0  0  0  0  0  0  0  0
   63.1050   31.7870   47.1650 C   0  0  0  0  0  0  0  0  0  0  0  0
   64.1290   32.7340   46.9650 O   0  0  0  0  0  0  0  0  0  0  0  0
   63.6450   34.0250   47.2850 C   0  0  0  0  0  0  0  0  0  0  0  0
   62.9530   34.0920   48.6690 C   0  0  0  0  0  0  0  0  0  0  0  0
   63.8600   30.3020   51.2800 C   0  0  0  0  0  0  0  0  0  0  0  0
   54.3627   23.4597   46.5305 H   0  0  0  0  0  0  0  0  0  0  0  0
   53.0994   24.3401   45.6055 H   0  0  0  0  0  0  0  0  0  0  0  0
   53.1249   22.5439   45.6055 H   0  0  0  0  0  0  0  0  0  0  0  0
   55.8373   21.6903   42.8502 H   0  0  0  0  0  0  0  0  0  0  0  0
   58.2358   21.0228   43.0093 H   0  0  0  0  0  0  0  0  0  0  0  0
   59.7083   22.0533   44.7365 H   0  0  0  0  0  0  0  0  0  0  0  0
   58.7971   23.7693   46.2944 H   0  0  0  0  0  0  0  0  0  0  0  0
   58.0664   27.1649   46.8370 H   0  0  0  0  0  0  0  0  0  0  0  0
   58.5314   26.7374   44.1225 H   0  0  0  0  0  0  0  0  0  0  0  0
   56.1343   28.3142   42.9881 H   0  0  0  0  0  0  0  0  0  0  0  0
   55.8017   30.6603   42.2073 H   0  0  0  0  0  0  0  0  0  0  0  0
   57.2420   32.4905   43.1016 H   0  0  0  0  0  0  0  0  0  0  0  0
   59.0028   31.9876   44.7937 H   0  0  0  0  0  0  0  0  0  0  0  0
   60.5997   32.0512   45.4864 H   0  0  0  0  0  0  0  0  0  0  0  0
   60.5507   34.5418   45.5133 H   0  0  0  0  0  0  0  0  0  0  0  0
   59.6779   35.7556   47.5082 H   0  0  0  0  0  0  0  0  0  0  0  0
   58.8875   34.4830   49.4954 H   0  0  0  0  0  0  0  0  0  0  0  0
   58.1580   31.0500   49.6890 H   0  0  0  0  0  0  0  0  0  0  0  0
   58.8654   31.5516   53.0845 H   0  0  0  0  0  0  0  0  0  0  0  0
   58.6200   30.2638   51.8423 H   0  0  0  0  0  0  0  0  0  0  0  0
   59.9854   28.9013   50.8824 H   0  0  0  0  0  0  0  0  0  0  0  0
   61.5001   29.6882   50.3176 H   0  0  0  0  0  0  0  0  0  0  0  0
   65.6254   27.6377   52.4972 H   0  0  0  0  0  0  0  0  0  0  0  0
   67.5237   29.1518   51.9354 H   0  0  0  0  0  0  0  0  0  0  0  0
   67.0831   31.4157   50.9898 H   0  0  0  0  0  0  0  0  0  0  0  0
   63.4369   30.8057   49.0582 H   0  0  0  0  0  0  0  0  0  0  0  0
   61.7388   31.4040   48.7704 H   0  0  0  0  0  0  0  0  0  0  0  0
   63.4205   30.8189   46.7489 H   0  0  0  0  0  0  0  0  0  0  0  0
   62.1924   32.1365   46.6599 H   0  0  0  0  0  0  0  0  0  0  0  0
   64.4925   34.7262   47.2837 H   0  0  0  0  0  0  0  0  0  0  0  0
   62.8900   34.2874   46.5293 H   0  0  0  0  0  0  0  0  0  0  0  0
   63.3997   34.9168   49.2436 H   0  0  0  0  0  0  0  0  0  0  0  0
   61.8788   34.2472   48.4900 H   0  0  0  0  0  0  0  0  0  0  0  0
   62.8286   30.6108   51.0545 H   0  0  0  0  0  0  0  0  0  0  0  0
  1  2  1  0
  2  3  1  0
  3  4  2  0
  4  5  1  0
  5  6  2  0
  6  7  1  0
  7  8  2  0
  8  9  1  0
  9 10  1  0
 10 11  2  0
 10 12  1  0
 12 13  2  3
 13 14  1  0
 14 15  2  0
 15 16  1  0
 16 17  2  0
 17 18  1  0
 18 19  2  0
 19 20  1  0
 20 21  1  0
 21 22  2  0
 21 23  2  0
 21 24  1  0
 24 25  2  0
 25 26  1  0
 26 27  2  0
 27 28  1  0
 28 29  2  0
 29 30  1  0
 30 31  1  0
 31 32  2  0
 31 33  1  0
 33 34  1  0
 34 35  1  0
 35 36  1  0
 36 37  2  0
 36 38  1  0
 38 39  1  0
 39 40  2  0
 40 41  1  0
 41 42  2  0
 42 43  1  0
 43 44  1  0
 44 45  2  0
 44 46  2  0
 44 47  1  0
 47 48  1  0
 48 49  1  0
 49 50  1  0
 50 51  1  0
 51 52  1  0
 43 53  2  0
  8  3  1  0
 19 14  1  0
 29 24  1  0
 53 39  1  0
 52 47  1  0
  1 54  1  0
  1 55  1  0
  1 56  1  0
  4 57  1  0
  5 58  1  0
  6 59  1  0
  7 60  1  0
 12 61  1  0
 13 62  1  0
 15 63  1  0
 16 64  1  0
 17 65  1  0
 18 66  1  0
 25 67  1  0
 26 68  1  0
 27 69  1  0
 28 70  1  0
 30 71  1  0
 33 72  1  0
 33 73  1  0
 35 74  1  0
 35 75  1  0
 40 76  1  0
 41 77  1  0
 42 78  1  0
 48 79  1  0
 48 80  1  0
 49 81  1  0
 49 82  1  0
 51 83  1  0
 51 84  1  0
 52 85  1  0
 52 86  1  0
 53 87  1  0
M  CHG  3   9  -1  20  -1  38  -1
M  END
>  <UniqueID>  (66) 
60

>  <SMILES>  (66) 
COc1ccccc1[N-]C(=O)C=Cc1ccccc1[N-]S(=O)(=O)c1ccccc1NC(=O)CSCC(=O)[N-]c1cccc(S(=O)(=O)N2CCOCC2)c1

>  <Energy>  (66) 
126.9619268843516

>  <Genealogy>  (66) 
COc1ccccc1[N-]C(=O)C=Cc1ccccc1[N-]S(=O)(=O)c1ccccc1NC(=O)CSCC(=O)[N-]c1cccc(S(=O)(=O)N2CCOCC2)c1 (protonated)
COc1ccccc1[N-]C(=O)C=Cc1ccccc1[N-]S(=O)(=O)c1ccccc1NC(=O)CSCC(=O)[N-]c1cccc(S(=O)(=O)N2CCOCC2)c1 (3D coordinates assigned)
COc1ccccc1[N-]C(=O)C=Cc1ccccc1[N-]S(=O)(=O)c1ccccc1NC(=O)CSCC(=O)[N-]c1cccc(S(=O)(=O)N2CCOCC2)c1 (nonaromatic ring conformer: 126.9619268843516 kcal/mol)

>  <smiles>  (66) 
COc1ccccc1NC(=O)C=Cc1ccccc1NS(=O)(=O)c1ccccc1NC(=O)CSCC(=O)Nc1cccc(S(=O)(=O)N2CCOCC2)c1

>  <score_type>  (66) 
oracle

>  <origin>  (66) 
adg

>  <m_score__min__energy>  (66) 
-15.33

>  <m_primary>  (66) 
energy

$$$$
66:0
     RDKit          3D

 61 64  0  0  0  0  0  0  0  0999 V2000
   61.9160   34.4680   49.2020 H   0  0  0  0  0  0  0  0  0  0  0  0
   62.7250   34.0160   48.7220 N   0  0  0  0  0  0  0  0  0  0  0  0
   62.6090   33.3730   47.6020 C   0  0  0  0  0  0  0  0  0  0  0  0
   61.2990   33.2770   46.9090 C   0  0  0  0  0  0  0  0  0  0  0  0
   60.6360   32.0430   46.8110 C   0  0  0  0  0  0  0  0  0  0  0  0
   61.1021   31.1391   47.2302 H   0  0  0  0  0  0  0  0  0  0  0  0
   59.3900   31.9530   46.1860 C   0  0  0  0  0  0  0  0  0  0  0  0
   58.8808   30.9803   46.1189 H   0  0  0  0  0  0  0  0  0  0  0  0
   58.7850   33.0950   45.6440 C   0  0  0  0  0  0  0  0  0  0  0  0
   57.3970   33.0250   45.0690 C   0  0  0  0  0  0  0  0  0  0  0  0
   56.7473   33.7426   45.5915 H   0  0  0  0  0  0  0  0  0  0  0  0
   57.4316   33.2730   43.9979 H   0  0  0  0  0  0  0  0  0  0  0  0
   56.8670   31.6780   45.2380 N   0  0  0  0  0  0  0  0  0  0  0  0
   56.6840   30.7670   44.1490 C   0  0  0  0  0  0  0  0  0  0  0  0
   56.8470   31.1510   42.9610 O   0  0  0  0  0  0  0  0  0  0  0  0
   56.3670   29.3290   44.4300 C   0  0  0  0  0  0  0  0  0  0  0  0
   55.9835   29.2403   45.4571 H   0  0  0  0  0  0  0  0  0  0  0  0
   55.6134   28.9903   43.7038 H   0  0  0  0  0  0  0  0  0  0  0  0
   57.6260   28.4380   44.2820 C   0  0  1  0  0  0  0  0  0  0  0  0
   57.5519   28.0879   43.2418 H   0  0  0  0  0  0  0  0  0  0  0  0
   58.9260   29.2240   44.5460 C   0  0  0  0  0  0  0  0  0  0  0  0
   59.4358   29.4448   43.5966 H   0  0  0  0  0  0  0  0  0  0  0  0
   58.7166   30.1834   45.0416 H   0  0  0  0  0  0  0  0  0  0  0  0
   59.7980   28.3370   45.4150 C   0  0  0  0  0  0  0  0  0  0  0  0
   60.4558   27.7127   44.7925 H   0  0  0  0  0  0  0  0  0  0  0  0
   60.4529   28.9229   46.0767 H   0  0  0  0  0  0  0  0  0  0  0  0
   58.8280   27.4750   46.1940 C   0  0  0  0  0  0  0  0  0  0  0  0
   59.3043   26.5292   46.4917 H   0  0  0  0  0  0  0  0  0  0  0  0
   58.4927   27.9640   47.1205 H   0  0  0  0  0  0  0  0  0  0  0  0
   57.6760   27.2150   45.2360 C   0  0  1  0  0  0  0  0  0  0  0  0
   57.8133   26.2992   44.6424 H   0  0  0  0  0  0  0  0  0  0  0  0
   56.4370   26.9990   45.9830 N   0  0  0  0  0  0  0  0  0  0  0  0
   55.5860   25.8660   45.7910 C   0  0  0  0  0  0  0  0  0  0  0  0
   54.3450   25.9570   45.9860 O   0  0  0  0  0  0  0  0  0  0  0  0
   56.1860   24.5440   45.4370 C   0  0  0  0  0  0  0  0  0  0  0  0
   55.9817   24.3207   44.3795 H   0  0  0  0  0  0  0  0  0  0  0  0
   57.2729   24.5802   45.6025 H   0  0  0  0  0  0  0  0  0  0  0  0
   55.6020   23.5000   46.2760 N   0  0  0  0  0  0  0  0  0  0  0  0
   54.4690   22.8080   46.0300 C   0  0  0  0  0  0  0  0  0  0  0  0
   53.6130   23.0620   44.9640 O   0  0  0  0  0  0  0  0  0  0  0  0
   54.3090   21.8050   46.9650 C   0  0  0  0  0  0  0  0  0  0  0  0
   55.3900   21.8760   47.8070 C   0  0  0  0  0  0  0  0  0  0  0  0
   56.1740   22.9180   47.3530 C   0  0  0  0  0  0  0  0  0  0  0  0
   57.3940   23.3020   47.8970 O   0  0  0  0  0  0  0  0  0  0  0  0
   55.6440   20.9170   48.9250 C   0  0  0  0  0  0  0  0  0  0  0  0
   56.5331   20.3153   48.6853 H   0  0  0  0  0  0  0  0  0  0  0  0
   55.8007   21.4950   49.8477 H   0  0  0  0  0  0  0  0  0  0  0  0
   54.4630   19.9890   49.1380 C   0  0  0  0  0  0  0  0  0  0  0  0
   54.4713   19.3364   50.0234 H   0  0  0  0  0  0  0  0  0  0  0  0
   53.4000   19.9160   48.3040 C   0  0  0  0  0  0  0  0  0  0  0  0
   52.5905   19.2155   48.5572 H   0  0  0  0  0  0  0  0  0  0  0  0
   53.2590   20.7430   47.0410 C   0  0  0  0  0  0  0  0  0  0  0  0
   53.3549   20.0815   46.1674 H   0  0  0  0  0  0  0  0  0  0  0  0
   52.2732   21.2308   47.0545 H   0  0  0  0  0  0  0  0  0  0  0  0
   59.4450   34.3280   45.7340 C   0  0  0  0  0  0  0  0  0  0  0  0
   58.9782   35.2302   45.3119 H   0  0  0  0  0  0  0  0  0  0  0  0
   60.6930   34.4180   46.3570 C   0  0  0  0  0  0  0  0  0  0  0  0
   61.2048   35.3899   46.4156 H   0  0  0  0  0  0  0  0  0  0  0  0
   63.7620   32.7270   47.0580 N   0  0  0  0  0  0  0  0  0  0  0  0
   64.6680   32.7410   47.5780 H   0  0  0  0  0  0  0  0  0  0  0  0
   63.7180   32.2290   46.1390 H   0  0  0  0  0  0  0  0  0  0  0  0
  1  2  1  0
  2  3  2  0
  3  4  1  0
  4  5  2  0
  5  6  1  0
  5  7  1  0
  7  8  1  0
  7  9  2  0
  9 10  1  0
 10 11  1  0
 10 12  1  0
 10 13  1  0
 13 14  1  0
 14 15  2  0
 14 16  1  0
 16 17  1  0
 16 18  1  0
 16 19  1  0
 19 20  1  6
 19 21  1  0
 21 22  1  0
 21 23  1  0
 21 24  1  0
 24 25  1  0
 24 26  1  0
 24 27  1  0
 27 28  1  0
 27 29  1  0
 27 30  1  0
 30 31  1  6
 30 32  1  0
 32 33  1  0
 33 34  2  0
 33 35  1  0
 35 36  1  0
 35 37  1  0
 35 38  1  0
 38 39  1  0
 39 40  1  0
 39 41  2  0
 41 42  1  0
 42 43  2  0
 43 44  1  0
 42 45  1  0
 45 46  1  0
 45 47  1  0
 45 48  1  0
 48 49  1  0
 48 50  2  0
 50 51  1  0
 50 52  1  0
 52 53  1  0
 52 54  1  0
  9 55  1  0
 55 56  1  0
 55 57  2  0
 57 58  1  0
  3 59  1  0
 59 60  1  0
 59 61  1  0
 57  4  1  0
 30 19  1  0
 43 38  1  0
 52 41  1  0
M  CHG  4  13  -1  32  -1  40  -1  44  -1
M  END
>  <UniqueID>  (67) 
61

>  <SMILES>  (67) 
[H]/N=C(/N)c1ccc(C[N-]C(=O)C[C@H]2CCC[C@H]2[N-]C(=O)Cn2c([O-])c3c(c2[O-])CC=CC3)cc1

>  <Energy>  (67) 
89.90624470485662

>  <Genealogy>  (67) 
N=C(N)c1ccc(C[N-]C(=O)CC2CCCC2[N-]C(=O)Cn2c([O-])c3c(c2[O-])CC=CC3)cc1 (protonated)
N=C(N)c1ccc(C[N-]C(=O)C[C@H]2CCC[C@H]2[N-]C(=O)Cn2c([O-])c3c(c2[O-])CC=CC3)cc1 (chirality)
[H]/N=C(/N)c1ccc(C[N-]C(=O)C[C@H]2CCC[C@H]2[N-]C(=O)Cn2c([O-])c3c(c2[O-])CC=CC3)cc1 (cis-trans isomerization)
[H]/N=C(/N)c1ccc(C[N-]C(=O)C[C@H]2CCC[C@H]2[N-]C(=O)Cn2c([O-])c3c(c2[O-])CC=CC3)cc1 (3D coordinates assigned)
[H]/N=C(/N)c1ccc(C[N-]C(=O)C[C@H]2CCC[C@H]2[N-]C(=O)Cn2c([O-])c3c(c2[O-])CC=CC3)cc1 (nonaromatic ring conformer: 89.90624470485662 kcal/mol)

>  <smiles>  (67) 
N=C(N)c1ccc(CNC(=O)CC2CCCC2NC(=O)Cn2c(O)c3c(c2O)CC=CC3)cc1

>  <score_type>  (67) 
oracle

>  <origin>  (67) 
adg

>  <m_score__min__energy>  (67) 
-17.329999999999998

>  <m_primary>  (67) 
energy

$$$$
67:0
     RDKit          3D

 48 50  0  0  0  0  0  0  0  0999 V2000
   61.3970   33.9370   49.5220 H   0  0  0  0  0  0  0  0  0  0  0  0
   60.9170   34.5850   48.9070 O   0  0  0  0  0  0  0  0  0  0  0  0
   59.9490   34.1500   48.0020 C   0  0  0  0  0  0  0  0  0  0  0  0
   59.8980   34.6730   46.7040 C   0  0  0  0  0  0  0  0  0  0  0  0
   60.6282   35.4330   46.3892 H   0  0  0  0  0  0  0  0  0  0  0  0
   58.9210   34.2310   45.8080 C   0  0  0  0  0  0  0  0  0  0  0  0
   58.8792   34.6519   44.7926 H   0  0  0  0  0  0  0  0  0  0  0  0
   57.9930   33.2530   46.1970 C   0  0  0  0  0  0  0  0  0  0  0  0
   56.9190   32.8010   45.2440 C   0  0  0  0  0  0  0  0  0  0  0  0
   56.7242   33.5985   44.5119 H   0  0  0  0  0  0  0  0  0  0  0  0
   56.0040   32.5813   45.8136 H   0  0  0  0  0  0  0  0  0  0  0  0
   57.3530   31.5640   44.5230 C   0  0  0  0  0  0  0  0  0  0  0  0
   58.4220   31.5790   43.8560 O   0  0  0  0  0  0  0  0  0  0  0  0
   56.5310   30.3880   44.5860 N   0  0  0  0  0  0  0  0  0  0  0  0
   56.7630   29.3100   45.2750 C   0  0  0  0  0  0  0  0  0  0  0  0
   55.9020   28.2550   45.2550 N   0  0  0  0  0  0  0  0  0  0  0  0
   56.1610   27.1400   45.9830 C   0  0  0  0  0  0  0  0  0  0  0  0
   55.3280   26.1440   45.9470 N   0  0  0  0  0  0  0  0  0  0  0  0
   55.7150   24.7370   45.8410 C   0  0  0  0  0  0  0  0  0  0  0  0
   54.8406   24.1060   46.0585 H   0  0  0  0  0  0  0  0  0  0  0  0
   56.5214   24.5398   46.5627 H   0  0  0  0  0  0  0  0  0  0  0  0
   56.2190   24.4200   44.4610 C   0  0  0  0  0  0  0  0  0  0  0  0
   55.6019   24.6740   43.5865 H   0  0  0  0  0  0  0  0  0  0  0  0
   57.4040   23.8350   44.2820 C   0  0  0  0  0  0  0  0  0  0  0  0
   57.7582   23.6098   43.2652 H   0  0  0  0  0  0  0  0  0  0  0  0
   58.0272   23.5777   45.1511 H   0  0  0  0  0  0  0  0  0  0  0  0
   57.2970   27.0800   46.7330 N   0  0  0  0  0  0  0  0  0  0  0  0
   58.1660   28.1240   46.7520 C   0  0  0  0  0  0  0  0  0  0  0  0
   59.2510   28.0790   47.4670 N   0  0  0  0  0  0  0  0  0  0  0  0
   59.4610   28.8110   48.7170 C   0  0  0  0  0  0  0  0  0  0  0  0
   58.5078   29.2579   49.0360 H   0  0  0  0  0  0  0  0  0  0  0  0
   59.8312   28.1064   49.4762 H   0  0  0  0  0  0  0  0  0  0  0  0
   60.4820   29.9040   48.5410 C   0  0  0  0  0  0  0  0  0  0  0  0
   60.9630   30.2240   47.2600 C   0  0  0  0  0  0  0  0  0  0  0  0
   60.5996   29.6677   46.3833 H   0  0  0  0  0  0  0  0  0  0  0  0
   61.9010   31.2460   47.0960 C   0  0  0  0  0  0  0  0  0  0  0  0
   62.2705   31.4957   46.0905 H   0  0  0  0  0  0  0  0  0  0  0  0
   62.3710   31.9520   48.2070 C   0  0  0  0  0  0  0  0  0  0  0  0
   63.1061   32.7595   48.0747 H   0  0  0  0  0  0  0  0  0  0  0  0
   61.9070   31.6320   49.4860 C   0  0  0  0  0  0  0  0  0  0  0  0
   62.3730   32.3340   50.5920 O   0  0  0  0  0  0  0  0  0  0  0  0
   60.9710   30.6080   49.6540 C   0  0  0  0  0  0  0  0  0  0  0  0
   60.6153   30.3519   50.6629 H   0  0  0  0  0  0  0  0  0  0  0  0
   57.8940   29.2340   46.0220 N   0  0  0  0  0  0  0  0  0  0  0  0
   58.0450   32.7370   47.5010 C   0  0  0  0  0  0  0  0  0  0  0  0
   57.3132   31.9801   47.8196 H   0  0  0  0  0  0  0  0  0  0  0  0
   59.0220   33.1800   48.3970 C   0  0  0  0  0  0  0  0  0  0  0  0
   59.0619   32.7649   49.4149 H   0  0  0  0  0  0  0  0  0  0  0  0
  1  2  1  0
  2  3  1  0
  3  4  2  0
  4  5  1  0
  4  6  1  0
  6  7  1  0
  6  8  2  0
  8  9  1  0
  9 10  1  0
  9 11  1  0
  9 12  1  0
 12 13  2  0
 12 14  1  0
 14 15  2  0
 15 16  1  0
 16 17  1  0
 17 18  2  3
 18 19  1  0
 19 20  1  0
 19 21  1  0
 19 22  1  0
 22 23  1  0
 22 24  2  0
 24 25  1  0
 24 26  1  0
 17 27  1  0
 27 28  1  0
 28 29  2  0
 29 30  1  0
 30 31  1  0
 30 32  1  0
 30 33  1  0
 33 34  2  0
 34 35  1  0
 34 36  1  0
 36 37  1  0
 36 38  2  0
 38 39  1  0
 38 40  1  0
 40 41  1  0
 40 42  2  0
 42 43  1  0
 28 44  1  0
  8 45  1  0
 45 46  1  0
 45 47  2  0
 47 48  1  0
 47  3  1  0
 44 15  1  0
 42 33  1  0
M  CHG  4  16  -1  27  -1  41  -1  44  -1
M  END
>  <UniqueID>  (68) 
62

>  <SMILES>  (68) 
C=CCN=c1[n-]/c(=N\Cc2cccc([O-])c2)[n-]/c(=N/C(=O)Cc2ccc(O)cc2)[n-]1

>  <Energy>  (68) 
45.78126799034401

>  <Genealogy>  (68) 
C=CCN=c1[n-]c(=NCc2cccc([O-])c2)[n-]c(=NC(=O)Cc2ccc(O)cc2)[n-]1 (protonated)
C=CCN=c1[n-]/c(=N\Cc2cccc([O-])c2)[n-]/c(=N/C(=O)Cc2ccc(O)cc2)[n-]1 (cis-trans isomerization)
C=CCN=c1[n-]/c(=N\Cc2cccc([O-])c2)[n-]/c(=N/C(=O)Cc2ccc(O)cc2)[n-]1 (3D coordinates assigned)
C=CCN=c1[n-]/c(=N\Cc2cccc([O-])c2)[n-]/c(=N/C(=O)Cc2ccc(O)cc2)[n-]1 (optimized conformer: 45.78126799034401 kcal/mol)

>  <smiles>  (68) 
C=CCN=c1[nH]c(=NCc2cccc(O)c2)[nH]c(=NC(=O)Cc2ccc(O)cc2)[nH]1

>  <score_type>  (68) 
oracle

>  <origin>  (68) 
adg

>  <m_score__min__energy>  (68) 
-14.49

>  <m_primary>  (68) 
energy

$$$$
68:0
     RDKit          3D

 26 27  0  0  1  0  0  0  0  0999 V2000
   60.2250   27.7670   46.1060 C   0  0  0  0  0  0  0  0  0  0  0  0
   59.0880   28.2980   45.7350 C   0  0  0  0  0  0  0  0  0  0  0  0
   58.9910   29.5190   45.1330 N   0  0  0  0  0  0  0  0  0  0  0  0
   57.7290   29.7960   44.8720 N   0  0  0  0  0  0  0  0  0  0  0  0
   56.9320   28.7920   45.2800 C   0  0  0  0  0  0  0  0  0  0  0  0
   55.6830   28.7310   45.1850 O   0  0  0  0  0  0  0  0  0  0  0  0
   57.8070   27.8540   45.8220 C   0  0  0  0  0  0  0  0  0  0  0  0
   57.4140   26.7180   46.3340 C   0  0  0  0  0  0  0  0  0  0  0  0
   57.0350   25.5340   45.5880 C   0  0  0  0  0  0  0  0  0  0  0  0
   58.0080   24.6800   45.0460 C   0  0  0  0  0  0  0  0  0  0  0  0
   57.6150   23.5250   44.3700 C   0  0  0  0  0  0  0  0  0  0  0  0
   56.2670   23.2630   44.2570 C   0  0  0  0  0  0  0  0  0  0  0  0
   55.8870   22.0920   43.5720 O   0  0  0  0  0  0  0  0  0  0  0  0
   55.2980   24.1010   44.7910 C   0  0  0  0  0  0  0  0  0  0  0  0
   55.6860   25.2610   45.4690 C   0  0  0  0  0  0  0  0  0  0  0  0
   54.7150   26.1060   46.0050 O   0  0  0  0  0  0  0  0  0  0  0  0
   60.2391   26.7779   46.5872 H   0  0  0  0  0  0  0  0  0  0  0  0
   61.1667   28.3097   45.9367 H   0  0  0  0  0  0  0  0  0  0  0  0
   59.7650   30.1720   44.8930 H   0  0  0  0  0  0  0  0  0  0  0  0
   57.3480   30.6540   44.4170 H   0  0  0  0  0  0  0  0  0  0  0  0
   57.3663   26.6541   47.4311 H   0  0  0  0  0  0  0  0  0  0  0  0
   59.0759   24.9205   45.1539 H   0  0  0  0  0  0  0  0  0  0  0  0
   58.3612   22.8416   43.9386 H   0  0  0  0  0  0  0  0  0  0  0  0
   55.0540   22.2230   42.9770 H   0  0  0  0  0  0  0  0  0  0  0  0
   54.2316   23.8543   44.6816 H   0  0  0  0  0  0  0  0  0  0  0  0
   54.7770   27.1100   45.9210 H   0  0  0  0  0  0  0  0  0  0  0  0
  1  2  2  0
  2  3  1  0
  3  4  1  0
  4  5  1  0
  5  6  2  0
  5  7  1  0
  7  8  2  0
  8  9  1  0
  9 10  2  0
 10 11  1  0
 11 12  2  0
 12 13  1  0
 12 14  1  0
 14 15  2  0
 15 16  1  0
  7  2  1  0
 15  9  1  0
  1 17  1  0
  1 18  1  0
  3 19  1  0
  4 20  1  0
  8 21  1  0
 10 22  1  0
 11 23  1  0
 13 24  1  0
 14 25  1  0
 16 26  1  0
M  END
>  <smiles>  (69) 
C=c1[nH][nH]c(=O)c1=Cc1ccc(O)cc1O

>  <score_type>  (69) 
oracle

>  <origin>  (69) 
adg

>  <m_score__min__energy>  (69) 
-7.04

>  <m_primary>  (69) 
energy

$$$$
69:0
     RDKit          3D

 54 57  0  0  0  0  0  0  0  0999 V2000
   58.9420   29.5700   46.8610 C   0  0  0  0  0  0  0  0  0  0  0  0
   58.2880   30.3640   45.9980 C   0  0  0  0  0  0  0  0  0  0  0  0
   57.4050   29.9690   44.9780 C   0  0  0  0  0  0  0  0  0  0  0  0
   56.8610   28.7690   44.6920 C   0  0  0  0  0  0  0  0  0  0  0  0
   57.2850   27.4800   45.2630 C   0  0  0  0  0  0  0  0  0  0  0  0
   58.5700   27.0660   45.3340 N   0  0  0  0  0  0  0  0  0  0  0  0
   58.4980   25.9230   46.0510 C   0  0  0  0  0  0  0  0  0  0  0  0
   59.5110   25.2340   46.3410 O   0  0  0  0  0  0  0  0  0  0  0  0
   57.2460   25.6030   46.4370 N   0  0  0  0  0  0  0  0  0  0  0  0
   56.8310   24.5060   47.3070 C   0  0  0  0  0  0  0  0  0  0  0  0
   56.4850   26.6050   45.9690 C   0  0  0  0  0  0  0  0  0  0  0  0
   55.1130   26.7160   46.1850 O   0  0  0  0  0  0  0  0  0  0  0  0
   57.1250   31.1090   44.2440 C   0  0  0  0  0  0  0  0  0  0  0  0
   57.7860   32.1530   44.8570 C   0  0  0  0  0  0  0  0  0  0  0  0
   57.7330   33.5800   44.4030 C   0  0  0  0  0  0  0  0  0  0  0  0
   58.4810   31.7060   45.9260 N   0  0  0  0  0  0  0  0  0  0  0  0
   59.3380   32.5130   46.7530 C   0  0  0  0  0  0  0  0  0  0  0  0
   58.8070   33.5840   47.4850 C   0  0  0  0  0  0  0  0  0  0  0  0
   59.6390   34.3690   48.2870 C   0  0  0  0  0  0  0  0  0  0  0  0
   61.0070   34.0870   48.3640 C   0  0  0  0  0  0  0  0  0  0  0  0
   61.5490   33.0230   47.6290 C   0  0  0  0  0  0  0  0  0  0  0  0
   63.2610   32.6250   47.7380 S   0  0  0  0  0  0  0  0  0  0  0  0
   64.0940   33.7720   47.2320 O   0  0  0  0  0  0  0  0  0  0  0  0
   63.5310   31.4170   46.8850 O   0  0  0  0  0  0  0  0  0  0  0  0
   63.6800   32.2800   49.4000 N   0  0  0  0  0  0  0  0  0  0  0  0
   62.5100   31.7330   50.1100 C   0  0  0  0  0  0  0  0  0  0  0  0
   62.6750   31.8950   51.6310 C   0  0  0  0  0  0  0  0  0  0  0  0
   62.8180   33.2430   52.0630 O   0  0  0  0  0  0  0  0  0  0  0  0
   63.2630   34.1260   51.0430 C   0  0  0  0  0  0  0  0  0  0  0  0
   64.2540   33.4720   50.0650 C   0  0  0  0  0  0  0  0  0  0  0  0
   60.7120   32.2430   46.8200 C   0  0  0  0  0  0  0  0  0  0  0  0
   59.6086   30.0106   47.6170 H   0  0  0  0  0  0  0  0  0  0  0  0
   58.8112   28.4789   46.8120 H   0  0  0  0  0  0  0  0  0  0  0  0
   56.0303   28.7516   43.9712 H   0  0  0  0  0  0  0  0  0  0  0  0
   56.9454   24.8084   48.3584 H   0  0  0  0  0  0  0  0  0  0  0  0
   55.7774   24.2594   47.1090 H   0  0  0  0  0  0  0  0  0  0  0  0
   57.4575   23.6238   47.1090 H   0  0  0  0  0  0  0  0  0  0  0  0
   54.7260   26.7050   47.1210 H   0  0  0  0  0  0  0  0  0  0  0  0
   56.4956   31.1705   43.3439 H   0  0  0  0  0  0  0  0  0  0  0  0
   57.7084   34.2432   45.2802 H   0  0  0  0  0  0  0  0  0  0  0  0
   58.6234   33.8055   43.7977 H   0  0  0  0  0  0  0  0  0  0  0  0
   56.8283   33.7389   43.7977 H   0  0  0  0  0  0  0  0  0  0  0  0
   57.7314   33.8071   47.4277 H   0  0  0  0  0  0  0  0  0  0  0  0
   59.2181   35.2095   48.8584 H   0  0  0  0  0  0  0  0  0  0  0  0
   61.6589   34.7013   49.0025 H   0  0  0  0  0  0  0  0  0  0  0  0
   61.6065   32.2699   49.7852 H   0  0  0  0  0  0  0  0  0  0  0  0
   62.4214   30.6620   49.8750 H   0  0  0  0  0  0  0  0  0  0  0  0
   61.7877   31.4681   52.1214 H   0  0  0  0  0  0  0  0  0  0  0  0
   63.6053   31.3756   51.9046 H   0  0  0  0  0  0  0  0  0  0  0  0
   62.3876   34.4724   50.4741 H   0  0  0  0  0  0  0  0  0  0  0  0
   63.7902   34.9559   51.5363 H   0  0  0  0  0  0  0  0  0  0  0  0
   64.5303   34.2081   49.2957 H   0  0  0  0  0  0  0  0  0  0  0  0
   65.1323   33.1465   50.6418 H   0  0  0  0  0  0  0  0  0  0  0  0
   61.1355   31.4140   46.2341 H   0  0  0  0  0  0  0  0  0  0  0  0
  1  2  2  0
  2  3  1  0
  3  4  2  3
  4  5  1  0
  5  6  1  0
  6  7  1  0
  7  8  2  0
  7  9  1  0
  9 10  1  0
  9 11  1  0
 11 12  1  0
  3 13  1  0
 13 14  2  0
 14 15  1  0
 14 16  1  0
 16 17  1  0
 17 18  2  0
 18 19  1  0
 19 20  2  0
 20 21  1  0
 21 22  1  0
 22 23  2  0
 22 24  2  0
 22 25  1  0
 25 26  1  0
 26 27  1  0
 27 28  1  0
 28 29  1  0
 29 30  1  0
 21 31  2  0
 16  2  1  0
 31 17  1  0
 11  5  2  0
 30 25  1  0
  1 32  1  0
  1 33  1  0
  4 34  1  0
 10 35  1  0
 10 36  1  0
 10 37  1  0
 12 38  1  0
 13 39  1  0
 15 40  1  0
 15 41  1  0
 15 42  1  0
 18 43  1  0
 19 44  1  0
 20 45  1  0
 26 46  1  0
 26 47  1  0
 27 48  1  0
 27 49  1  0
 29 50  1  0
 29 51  1  0
 30 52  1  0
 30 53  1  0
 31 54  1  0
M  CHG  1   6  -1
M  END
>  <UniqueID>  (70) 
63

>  <SMILES>  (70) 
C=c1c(=Cc2[n-]c(=O)n(C)c2O)cc(C)n1-c1cccc(S(=O)(=O)N2CCOCC2)c1

>  <Energy>  (70) 
144.9863759944534

>  <Genealogy>  (70) 
C=c1c(=Cc2[n-]c(=O)n(C)c2O)cc(C)n1-c1cccc(S(=O)(=O)N2CCOCC2)c1 (protonated)
C=c1c(=Cc2[n-]c(=O)n(C)c2O)cc(C)n1-c1cccc(S(=O)(=O)N2CCOCC2)c1 (3D coordinates assigned)
C=c1c(=Cc2[n-]c(=O)n(C)c2O)cc(C)n1-c1cccc(S(=O)(=O)N2CCOCC2)c1 (nonaromatic ring conformer: 144.9863759944534 kcal/mol)

>  <smiles>  (70) 
C=c1c(=Cc2[nH]c(=O)n(C)c2O)cc(C)n1-c1cccc(S(=O)(=O)N2CCOCC2)c1

>  <score_type>  (70) 
oracle

>  <origin>  (70) 
adg

>  <m_score__min__energy>  (70) 
-12.16

>  <m_primary>  (70) 
energy

$$$$
70:0
     RDKit          3D

 46 49  0  0  0  0  0  0  0  0999 V2000
   57.2950   22.5710   47.9630 N   0  0  0  0  0  0  0  0  0  0  0  0
   56.2080   21.7950   47.4590 C   0  0  0  0  0  0  0  0  0  0  0  0
   56.3870   21.0830   46.4340 O   0  0  0  0  0  0  0  0  0  0  0  0
   54.8930   21.7850   48.1490 C   0  0  0  0  0  0  0  0  0  0  0  0
   54.8640   21.7950   49.5550 C   0  0  0  0  0  0  0  0  0  0  0  0
   53.6500   21.8580   50.2440 C   0  0  0  0  0  0  0  0  0  0  0  0
   52.4470   21.8910   49.5420 C   0  0  0  0  0  0  0  0  0  0  0  0
   52.4540   21.8710   48.1480 C   0  0  0  0  0  0  0  0  0  0  0  0
   53.6670   21.8220   47.4390 C   0  0  0  0  0  0  0  0  0  0  0  0
   53.6520   21.8090   46.0020 N   0  0  0  0  0  0  0  0  0  0  0  0
   53.7310   22.9770   45.1680 C   0  0  0  0  0  0  0  0  0  0  0  0
   52.6740   23.4100   44.6350 O   0  0  0  0  0  0  0  0  0  0  0  0
   55.0310   23.6320   44.8710 C   0  0  0  0  0  0  0  0  0  0  0  0
   55.6200   24.4630   45.8360 C   0  0  0  0  0  0  0  0  0  0  0  0
   56.8160   25.1580   45.5760 C   0  0  0  0  0  0  0  0  0  0  0  0
   57.3610   26.1240   46.5680 C   0  0  0  0  0  0  0  0  0  0  0  0
   57.4510   25.8000   47.7840 O   0  0  0  0  0  0  0  0  0  0  0  0
   57.8620   27.4480   46.1490 C   0  0  0  0  0  0  0  0  0  0  0  0
   59.1800   27.8200   46.4550 C   0  0  0  0  0  0  0  0  0  0  0  0
   59.6310   29.1120   46.1930 C   0  0  0  0  0  0  0  0  0  0  0  0
   58.7730   30.0520   45.6130 C   0  0  0  0  0  0  0  0  0  0  0  0
   59.2140   31.3610   45.3820 C   0  0  0  0  0  0  0  0  0  0  0  0
   58.3530   32.2990   44.8070 C   0  0  0  0  0  0  0  0  0  0  0  0
   58.7980   33.5960   44.5750 O   0  0  0  0  0  0  0  0  0  0  0  0
   57.0490   31.9350   44.4590 C   0  0  0  0  0  0  0  0  0  0  0  0
   56.5960   30.6360   44.6870 C   0  0  0  0  0  0  0  0  0  0  0  0
   57.4480   29.6810   45.2690 C   0  0  0  0  0  0  0  0  0  0  0  0
   56.9980   28.3760   45.5440 C   0  0  0  0  0  0  0  0  0  0  0  0
   55.6860   28.0070   45.2450 O   0  0  0  0  0  0  0  0  0  0  0  0
   57.4510   24.9620   44.3390 C   0  0  0  0  0  0  0  0  0  0  0  0
   56.9000   24.1000   43.3870 C   0  0  0  0  0  0  0  0  0  0  0  0
   55.6900   23.4440   43.6410 C   0  0  0  0  0  0  0  0  0  0  0  0
   55.1470   22.6220   42.6580 O   0  0  0  0  0  0  0  0  0  0  0  0
   57.2940   23.6140   47.9050 H   0  0  0  0  0  0  0  0  0  0  0  0
   55.8076   21.7528   50.1187 H   0  0  0  0  0  0  0  0  0  0  0  0
   53.6441   21.8816   51.3437 H   0  0  0  0  0  0  0  0  0  0  0  0
   51.4925   21.9328   50.0871 H   0  0  0  0  0  0  0  0  0  0  0  0
   51.5017   21.8938   47.5978 H   0  0  0  0  0  0  0  0  0  0  0  0
   55.1362   24.5738   46.8177 H   0  0  0  0  0  0  0  0  0  0  0  0
   59.8632   27.0851   46.9057 H   0  0  0  0  0  0  0  0  0  0  0  0
   60.6646   29.3935   46.4430 H   0  0  0  0  0  0  0  0  0  0  0  0
   60.2397   31.6510   45.6537 H   0  0  0  0  0  0  0  0  0  0  0  0
   56.3769   32.6769   44.0031 H   0  0  0  0  0  0  0  0  0  0  0  0
   55.5684   30.3575   44.4105 H   0  0  0  0  0  0  0  0  0  0  0  0
   58.3896   25.4912   44.1176 H   0  0  0  0  0  0  0  0  0  0  0  0
   57.4206   23.9360   42.4320 H   0  0  0  0  0  0  0  0  0  0  0  0
  1  2  1  0
  2  3  2  0
  2  4  1  0
  4  5  2  0
  5  6  1  0
  6  7  2  0
  7  8  1  0
  8  9  2  0
  9 10  1  0
 10 11  1  0
 11 12  2  0
 11 13  1  0
 13 14  2  0
 14 15  1  0
 15 16  1  0
 16 17  2  0
 16 18  1  0
 18 19  2  0
 19 20  1  0
 20 21  2  0
 21 22  1  0
 22 23  2  0
 23 24  1  0
 23 25  1  0
 25 26  2  0
 26 27  1  0
 27 28  2  0
 28 29  1  0
 15 30  2  0
 30 31  1  0
 31 32  2  0
 32 33  1  0
  9  4  1  0
 32 13  1  0
 28 18  1  0
 27 21  1  0
  1 34  1  0
  5 35  1  0
  6 36  1  0
  7 37  1  0
  8 38  1  0
 14 39  1  0
 19 40  1  0
 20 41  1  0
 22 42  1  0
 25 43  1  0
 26 44  1  0
 30 45  1  0
 31 46  1  0
M  CHG  5   1  -1  10  -1  24  -1  29  -1  33  -1
M  END
>  <UniqueID>  (71) 
64

>  <SMILES>  (71) 
[NH-]C(=O)c1ccccc1[N-]C(=O)c1cc(C(=O)c2ccc3cc([O-])ccc3c2[O-])ccc1[O-]

>  <Energy>  (71) 
71.02754751126282

>  <Genealogy>  (71) 
[NH-]C(=O)c1ccccc1[N-]C(=O)c1cc(C(=O)c2ccc3cc([O-])ccc3c2[O-])ccc1[O-] (protonated)
[NH-]C(=O)c1ccccc1[N-]C(=O)c1cc(C(=O)c2ccc3cc([O-])ccc3c2[O-])ccc1[O-] (3D coordinates assigned)
[NH-]C(=O)c1ccccc1[N-]C(=O)c1cc(C(=O)c2ccc3cc([O-])ccc3c2[O-])ccc1[O-] (optimized conformer: 71.02754751126282 kcal/mol)

>  <smiles>  (71) 
NC(=O)c1ccccc1NC(=O)c1cc(C(=O)c2ccc3cc(O)ccc3c2O)ccc1O

>  <score_type>  (71) 
oracle

>  <origin>  (71) 
adg

>  <m_score__min__energy>  (71) 
-17.48

>  <m_primary>  (71) 
energy

$$$$
71:0
     RDKit          3D

 43 44  0  0  0  0  0  0  0  0999 V2000
   58.2750   33.7130   46.8170 C   0  0  0  0  0  0  0  0  0  0  0  0
   58.1660   34.1870   45.1070 S   0  0  0  0  0  0  0  0  0  0  0  0
   56.7480   34.5750   44.7930 O   0  0  0  0  0  0  0  0  0  0  0  0
   59.0740   35.3590   44.8600 O   0  0  0  0  0  0  0  0  0  0  0  0
   58.6460   32.8430   44.1180 N   0  0  0  0  0  0  0  0  0  0  0  0
   57.4620   32.1850   43.5740 C   0  0  0  0  0  0  0  0  0  0  0  0
   57.0300   31.0950   44.5060 C   0  0  0  0  0  0  0  0  0  0  0  0
   57.4020   31.1370   45.7100 O   0  0  0  0  0  0  0  0  0  0  0  0
   56.1250   30.0200   44.0480 C   0  0  0  0  0  0  0  0  0  0  0  0
   55.6230   30.0830   42.8940 O   0  0  0  0  0  0  0  0  0  0  0  0
   55.7420   28.9360   44.9050 N   0  0  0  0  0  0  0  0  0  0  0  0
   56.6190   27.9440   45.4560 C   0  0  0  0  0  0  0  0  0  0  0  0
   57.9880   28.2260   45.5360 C   0  0  0  0  0  0  0  0  0  0  0  0
   58.8790   27.2940   46.0860 C   0  0  0  0  0  0  0  0  0  0  0  0
   60.6010   27.6620   46.1790 S   0  0  0  0  0  0  0  0  0  0  0  0
   61.0290   28.3020   44.8870 O   0  0  0  0  0  0  0  0  0  0  0  0
   61.3720   26.3790   46.3310 O   0  0  0  0  0  0  0  0  0  0  0  0
   60.9920   28.7330   47.5100 N   0  0  0  0  0  0  0  0  0  0  0  0
   60.3000   28.3630   48.7570 C   0  0  0  0  0  0  0  0  0  0  0  0
   58.8500   28.8980   48.8280 C   0  0  0  0  0  0  0  0  0  0  0  0
   58.5390   29.8130   47.7960 O   0  0  0  0  0  0  0  0  0  0  0  0
   59.5540   30.7850   47.7030 C   0  0  0  0  0  0  0  0  0  0  0  0
   60.8480   30.1610   47.1560 C   0  0  0  0  0  0  0  0  0  0  0  0
   58.3910   26.0700   46.5620 C   0  0  0  0  0  0  0  0  0  0  0  0
   57.0230   25.7940   46.5160 C   0  0  0  0  0  0  0  0  0  0  0  0
   56.1320   26.7290   45.9810 C   0  0  0  0  0  0  0  0  0  0  0  0
   54.7690   26.4540   46.0000 O   0  0  0  0  0  0  0  0  0  0  0  0
   58.0739   34.5874   47.4534 H   0  0  0  0  0  0  0  0  0  0  0  0
   57.5340   32.9279   47.0278 H   0  0  0  0  0  0  0  0  0  0  0  0
   59.2846   33.3304   47.0278 H   0  0  0  0  0  0  0  0  0  0  0  0
   56.6503   32.9195   43.4661 H   0  0  0  0  0  0  0  0  0  0  0  0
   57.6984   31.7559   42.5891 H   0  0  0  0  0  0  0  0  0  0  0  0
   58.3683   29.1886   45.1635 H   0  0  0  0  0  0  0  0  0  0  0  0
   60.2723   27.2658   48.8297 H   0  0  0  0  0  0  0  0  0  0  0  0
   60.8583   28.8169   49.5891 H   0  0  0  0  0  0  0  0  0  0  0  0
   58.1594   28.0447   48.7575 H   0  0  0  0  0  0  0  0  0  0  0  0
   58.7484   29.4366   49.7817 H   0  0  0  0  0  0  0  0  0  0  0  0
   59.2254   31.5881   47.0269 H   0  0  0  0  0  0  0  0  0  0  0  0
   59.7510   31.1910   48.7062 H   0  0  0  0  0  0  0  0  0  0  0  0
   60.8457   30.2524   46.0598 H   0  0  0  0  0  0  0  0  0  0  0  0
   61.6923   30.7005   47.6099 H   0  0  0  0  0  0  0  0  0  0  0  0
   59.0875   25.3244   46.9731 H   0  0  0  0  0  0  0  0  0  0  0  0
   56.6446   24.8362   46.9026 H   0  0  0  0  0  0  0  0  0  0  0  0
  1  2  1  0
  2  3  2  0
  2  4  2  0
  2  5  1  0
  5  6  1  0
  6  7  1  0
  7  8  2  0
  7  9  1  0
  9 10  2  0
  9 11  1  0
 11 12  1  0
 12 13  2  0
 13 14  1  0
 14 15  1  0
 15 16  2  0
 15 17  2  0
 15 18  1  0
 18 19  1  0
 19 20  1  0
 20 21  1  0
 21 22  1  0
 22 23  1  0
 14 24  2  0
 24 25  1  0
 25 26  2  0
 26 27  1  0
 26 12  1  0
 23 18  1  0
  1 28  1  0
  1 29  1  0
  1 30  1  0
  6 31  1  0
  6 32  1  0
 13 33  1  0
 19 34  1  0
 19 35  1  0
 20 36  1  0
 20 37  1  0
 22 38  1  0
 22 39  1  0
 23 40  1  0
 23 41  1  0
 24 42  1  0
 25 43  1  0
M  CHG  3   5  -1  11  -1  27  -1
M  END
>  <UniqueID>  (72) 
65

>  <SMILES>  (72) 
CS(=O)(=O)[N-]CC(=O)C(=O)[N-]c1cc(S(=O)(=O)N2CCOCC2)ccc1[O-]

>  <Energy>  (72) 
51.82725053981963

>  <Genealogy>  (72) 
CS(=O)(=O)[N-]CC(=O)C(=O)[N-]c1cc(S(=O)(=O)N2CCOCC2)ccc1[O-] (protonated)
CS(=O)(=O)[N-]CC(=O)C(=O)[N-]c1cc(S(=O)(=O)N2CCOCC2)ccc1[O-] (3D coordinates assigned)
CS(=O)(=O)[N-]CC(=O)C(=O)[N-]c1cc(S(=O)(=O)N2CCOCC2)ccc1[O-] (nonaromatic ring conformer: 51.82725053981963 kcal/mol)

>  <smiles>  (72) 
CS(=O)(=O)NCC(=O)C(=O)Nc1cc(S(=O)(=O)N2CCOCC2)ccc1O

>  <score_type>  (72) 
oracle

>  <origin>  (72) 
adg

>  <m_score__min__energy>  (72) 
-14.640000000000001

>  <m_primary>  (72) 
energy

$$$$
72:0
     RDKit          3D

 46 48  0  0  0  0  0  0  0  0999 V2000
   58.1620   25.8340   48.2150 O   0  0  0  0  0  0  0  0  0  0  0  0
   58.0240   25.5320   46.9980 C   0  0  0  0  0  0  0  0  0  0  0  0
   59.1680   25.7210   46.0530 C   0  0  0  0  0  0  0  0  0  0  0  0
   59.1660   27.1280   45.5260 C   0  0  0  0  0  0  0  0  0  0  0  0
   60.3740   27.8260   45.3660 C   0  0  0  0  0  0  0  0  0  0  0  0
   60.3690   29.1380   44.8870 C   0  0  0  0  0  0  0  0  0  0  0  0
   59.1620   29.7630   44.5670 C   0  0  0  0  0  0  0  0  0  0  0  0
   57.9500   29.0800   44.7300 C   0  0  0  0  0  0  0  0  0  0  0  0
   56.4440   29.8620   44.2530 S   0  0  0  0  0  0  0  0  0  0  0  0
   55.2950   29.0850   44.8320 O   0  0  0  0  0  0  0  0  0  0  0  0
   56.3080   29.8730   42.7560 O   0  0  0  0  0  0  0  0  0  0  0  0
   56.3970   31.4890   44.8700 N   0  0  0  0  0  0  0  0  0  0  0  0
   57.4130   32.3350   44.2380 C   0  0  0  0  0  0  0  0  0  0  0  0
   58.1760   33.1350   45.2630 C   0  0  0  0  0  0  0  0  0  0  0  0
   58.9360   34.2490   44.8680 C   0  0  0  0  0  0  0  0  0  0  0  0
   59.6100   35.0150   45.8230 C   0  0  0  0  0  0  0  0  0  0  0  0
   59.5410   34.6700   47.1750 C   0  0  0  0  0  0  0  0  0  0  0  0
   58.8020   33.5530   47.5750 C   0  0  0  0  0  0  0  0  0  0  0  0
   58.1250   32.7830   46.6230 C   0  0  0  0  0  0  0  0  0  0  0  0
   57.9540   27.7680   45.2230 C   0  0  0  0  0  0  0  0  0  0  0  0
   56.7810   25.0170   46.5050 N   0  0  0  0  0  0  0  0  0  0  0  0
   56.5980   23.8050   45.7590 C   0  0  0  0  0  0  0  0  0  0  0  0
   56.4180   22.5600   46.3890 C   0  0  0  0  0  0  0  0  0  0  0  0
   56.2670   21.3990   45.6250 C   0  0  0  0  0  0  0  0  0  0  0  0
   56.3090   21.4660   44.2250 C   0  0  0  0  0  0  0  0  0  0  0  0
   56.1580   20.3130   43.4560 O   0  0  0  0  0  0  0  0  0  0  0  0
   56.5110   22.6980   43.5960 C   0  0  0  0  0  0  0  0  0  0  0  0
   56.5630   22.7710   42.2420 F   0  0  0  0  0  0  0  0  0  0  0  0
   56.6630   23.8600   44.3600 C   0  0  0  0  0  0  0  0  0  0  0  0
   60.1136   25.5305   46.5817 H   0  0  0  0  0  0  0  0  0  0  0  0
   59.0648   25.0185   45.2129 H   0  0  0  0  0  0  0  0  0  0  0  0
   61.3269   27.3381   45.6186 H   0  0  0  0  0  0  0  0  0  0  0  0
   61.3179   29.6801   44.7616 H   0  0  0  0  0  0  0  0  0  0  0  0
   59.1630   30.7948   44.1858 H   0  0  0  0  0  0  0  0  0  0  0  0
   58.1176   31.6962   43.6853 H   0  0  0  0  0  0  0  0  0  0  0  0
   56.9066   33.0358   43.5580 H   0  0  0  0  0  0  0  0  0  0  0  0
   59.0006   34.5190   43.8036 H   0  0  0  0  0  0  0  0  0  0  0  0
   60.1961   35.8915   45.5095 H   0  0  0  0  0  0  0  0  0  0  0  0
   60.0684   35.2776   47.9251 H   0  0  0  0  0  0  0  0  0  0  0  0
   58.7527   33.2791   48.6392 H   0  0  0  0  0  0  0  0  0  0  0  0
   57.5511   31.8996   46.9397 H   0  0  0  0  0  0  0  0  0  0  0  0
   57.0024   27.2371   45.3733 H   0  0  0  0  0  0  0  0  0  0  0  0
   56.3960   22.4998   47.4871 H   0  0  0  0  0  0  0  0  0  0  0  0
   56.1148   20.4303   46.1235 H   0  0  0  0  0  0  0  0  0  0  0  0
   56.8700   19.5930   43.4360 H   0  0  0  0  0  0  0  0  0  0  0  0
   56.8348   24.8241   43.8590 H   0  0  0  0  0  0  0  0  0  0  0  0
  1  2  2  0
  2  3  1  0
  3  4  1  0
  4  5  2  0
  5  6  1  0
  6  7  2  0
  7  8  1  0
  8  9  1  0
  9 10  2  0
  9 11  2  0
  9 12  1  0
 12 13  1  0
 13 14  1  0
 14 15  2  0
 15 16  1  0
 16 17  2  0
 17 18  1  0
 18 19  2  0
  8 20  2  0
  2 21  1  0
 21 22  1  0
 22 23  2  0
 23 24  1  0
 24 25  2  0
 25 26  1  0
 25 27  1  0
 27 28  1  0
 27 29  2  0
 20  4  1  0
 29 22  1  0
 19 14  1  0
  3 30  1  0
  3 31  1  0
  5 32  1  0
  6 33  1  0
  7 34  1  0
 13 35  1  0
 13 36  1  0
 15 37  1  0
 16 38  1  0
 17 39  1  0
 18 40  1  0
 19 41  1  0
 20 42  1  0
 23 43  1  0
 24 44  1  0
 26 45  1  0
 29 46  1  0
M  CHG  2  12  -1  21  -1
M  END
>  <UniqueID>  (73) 
66

>  <SMILES>  (73) 
O=C(Cc1cccc(S(=O)(=O)[N-]Cc2ccccc2)c1)[N-]c1ccc(O)c(F)c1

>  <Energy>  (73) 
45.16237888199187

>  <Genealogy>  (73) 
O=C(Cc1cccc(S(=O)(=O)[N-]Cc2ccccc2)c1)[N-]c1ccc(O)c(F)c1 (protonated)
O=C(Cc1cccc(S(=O)(=O)[N-]Cc2ccccc2)c1)[N-]c1ccc(O)c(F)c1 (3D coordinates assigned)
O=C(Cc1cccc(S(=O)(=O)[N-]Cc2ccccc2)c1)[N-]c1ccc(O)c(F)c1 (optimized conformer: 45.16237888199187 kcal/mol)

>  <smiles>  (73) 
O=C(Cc1cccc(S(=O)(=O)NCc2ccccc2)c1)Nc1ccc(O)c(F)c1

>  <score_type>  (73) 
oracle

>  <origin>  (73) 
adg

>  <m_score__min__energy>  (73) 
-13.130000000000001

>  <m_primary>  (73) 
energy

$$$$
73:0
     RDKit          3D

 58 61  0  0  0  0  0  0  0  0999 V2000
   58.0410   31.2430   50.5130 C   0  0  0  0  0  0  0  0  0  0  0  0
   57.8270   32.3560   49.6540 O   0  0  0  0  0  0  0  0  0  0  0  0
   58.7690   32.9140   48.7710 C   0  0  0  0  0  0  0  0  0  0  0  0
   58.6020   32.9240   47.3640 C   0  0  0  0  0  0  0  0  0  0  0  0
   57.5150   32.3130   46.7530 O   0  0  0  0  0  0  0  0  0  0  0  0
   59.5490   33.5510   46.5500 C   0  0  0  0  0  0  0  0  0  0  0  0
   60.6830   34.1360   47.1070 C   0  0  0  0  0  0  0  0  0  0  0  0
   60.8910   34.0830   48.4880 C   0  0  0  0  0  0  0  0  0  0  0  0
   59.9360   33.4840   49.3230 C   0  0  0  0  0  0  0  0  0  0  0  0
   60.1390   33.5610   50.8150 C   0  0  0  0  0  0  0  0  0  0  0  0
   61.6240   33.4870   51.2600 C   0  0  0  0  0  0  0  0  0  0  0  0
   62.6220   33.7500   50.1930 N   0  0  0  0  0  0  0  0  0  0  0  0
   63.4120   32.5680   49.7690 C   0  0  0  0  0  0  0  0  0  0  0  0
   62.5790   31.3220   49.5570 C   0  0  0  0  0  0  0  0  0  0  0  0
   61.9300   31.1080   48.3370 C   0  0  0  0  0  0  0  0  0  0  0  0
   61.0840   30.0100   48.1660 C   0  0  0  0  0  0  0  0  0  0  0  0
   60.8730   29.0890   49.2090 C   0  0  0  0  0  0  0  0  0  0  0  0
   59.9110   27.9240   49.0460 C   0  0  0  0  0  0  0  0  0  0  0  0
   60.3930   26.9230   48.0910 N   0  0  0  0  0  0  0  0  0  0  0  0
   59.8610   26.6840   46.7790 C   0  0  0  0  0  0  0  0  0  0  0  0
   60.4490   25.8580   46.0330 O   0  0  0  0  0  0  0  0  0  0  0  0
   58.6420   27.3590   46.2800 C   0  0  0  0  0  0  0  0  0  0  0  0
   58.7350   28.6310   45.6940 C   0  0  0  0  0  0  0  0  0  0  0  0
   57.5920   29.2700   45.2110 C   0  0  0  0  0  0  0  0  0  0  0  0
   56.3450   28.6410   45.2860 C   0  0  0  0  0  0  0  0  0  0  0  0
   55.2200   29.3040   44.8040 O   0  0  0  0  0  0  0  0  0  0  0  0
   56.2490   27.3540   45.8430 C   0  0  0  0  0  0  0  0  0  0  0  0
   55.0210   26.7070   45.9200 O   0  0  0  0  0  0  0  0  0  0  0  0
   57.3950   26.7140   46.3220 C   0  0  0  0  0  0  0  0  0  0  0  0
   61.5270   29.3050   50.4480 C   0  0  0  0  0  0  0  0  0  0  0  0
   61.3240   28.3740   51.6180 C   0  0  0  0  0  0  0  0  0  0  0  0
   62.3980   30.3990   50.5940 C   0  0  0  0  0  0  0  0  0  0  0  0
   62.1520   34.6210   49.0980 C   0  0  0  0  0  0  0  0  0  0  0  0
   57.9779   31.5712   51.5610 H   0  0  0  0  0  0  0  0  0  0  0  0
   57.2733   30.4789   50.3212 H   0  0  0  0  0  0  0  0  0  0  0  0
   59.0373   30.8180   50.3212 H   0  0  0  0  0  0  0  0  0  0  0  0
   59.3974   33.5826   45.4610 H   0  0  0  0  0  0  0  0  0  0  0  0
   61.4157   34.6402   46.4597 H   0  0  0  0  0  0  0  0  0  0  0  0
   59.7191   34.5132   51.1715 H   0  0  0  0  0  0  0  0  0  0  0  0
   59.6353   32.6842   51.2480 H   0  0  0  0  0  0  0  0  0  0  0  0
   61.7766   34.2288   52.0578 H   0  0  0  0  0  0  0  0  0  0  0  0
   61.7923   32.4492   51.5834 H   0  0  0  0  0  0  0  0  0  0  0  0
   63.9199   32.8109   48.8240 H   0  0  0  0  0  0  0  0  0  0  0  0
   64.1195   32.3466   50.5816 H   0  0  0  0  0  0  0  0  0  0  0  0
   62.0871   31.8103   47.5051 H   0  0  0  0  0  0  0  0  0  0  0  0
   60.5751   29.8629   47.2019 H   0  0  0  0  0  0  0  0  0  0  0  0
   59.7750   27.4402   50.0245 H   0  0  0  0  0  0  0  0  0  0  0  0
   58.9643   28.3265   48.6565 H   0  0  0  0  0  0  0  0  0  0  0  0
   59.7137   29.1268   45.6150 H   0  0  0  0  0  0  0  0  0  0  0  0
   57.6724   30.2740   44.7688 H   0  0  0  0  0  0  0  0  0  0  0  0
   54.3930   28.8080   44.4980 H   0  0  0  0  0  0  0  0  0  0  0  0
   57.3200   25.6973   46.7351 H   0  0  0  0  0  0  0  0  0  0  0  0
   61.4460   28.9335   52.5572 H   0  0  0  0  0  0  0  0  0  0  0  0
   60.3115   27.9463   51.5749 H   0  0  0  0  0  0  0  0  0  0  0  0
   62.0665   27.5636   51.5749 H   0  0  0  0  0  0  0  0  0  0  0  0
   62.9462   30.5319   51.5384 H   0  0  0  0  0  0  0  0  0  0  0  0
   61.9579   35.6276   49.4968 H   0  0  0  0  0  0  0  0  0  0  0  0
   62.9296   34.6583   48.3209 H   0  0  0  0  0  0  0  0  0  0  0  0
  1  2  1  0
  2  3  1  0
  3  4  2  0
  4  5  1  0
  4  6  1  0
  6  7  2  0
  7  8  1  0
  8  9  2  0
  9 10  1  0
 10 11  1  0
 11 12  1  0
 12 13  1  0
 13 14  1  0
 14 15  2  0
 15 16  1  0
 16 17  2  0
 17 18  1  0
 18 19  1  0
 19 20  1  0
 20 21  2  0
 20 22  1  0
 22 23  2  0
 23 24  1  0
 24 25  2  0
 25 26  1  0
 25 27  1  0
 27 28  1  0
 27 29  2  0
 17 30  1  0
 30 31  1  0
 30 32  2  0
 12 33  1  0
  9  3  1  0
 32 14  1  0
 33  8  1  0
 29 22  1  0
  1 34  1  0
  1 35  1  0
  1 36  1  0
  6 37  1  0
  7 38  1  0
 10 39  1  0
 10 40  1  0
 11 41  1  0
 11 42  1  0
 13 43  1  0
 13 44  1  0
 15 45  1  0
 16 46  1  0
 18 47  1  0
 18 48  1  0
 23 49  1  0
 24 50  1  0
 26 51  1  0
 29 52  1  0
 31 53  1  0
 31 54  1  0
 31 55  1  0
 32 56  1  0
 33 57  1  0
 33 58  1  0
M  CHG  3   5  -1  19  -1  28  -1
M  END
>  <UniqueID>  (74) 
67

>  <SMILES>  (74) 
COc1c([O-])ccc2c1CCN(Cc1ccc(C[N-]C(=O)c3ccc(O)c([O-])c3)c(C)c1)C2

>  <Energy>  (74) 
81.14541557167136

>  <Genealogy>  (74) 
COc1c([O-])ccc2c1CCN(Cc1ccc(C[N-]C(=O)c3ccc(O)c([O-])c3)c(C)c1)C2 (protonated)
COc1c([O-])ccc2c1CCN(Cc1ccc(C[N-]C(=O)c3ccc(O)c([O-])c3)c(C)c1)C2 (3D coordinates assigned)
COc1c([O-])ccc2c1CCN(Cc1ccc(C[N-]C(=O)c3ccc(O)c([O-])c3)c(C)c1)C2 (nonaromatic ring conformer: 81.14541557167136 kcal/mol)

>  <smiles>  (74) 
COc1c(O)ccc2c1CCN(Cc1ccc(CNC(=O)c3ccc(O)c(O)c3)c(C)c1)C2

>  <score_type>  (74) 
oracle

>  <origin>  (74) 
adg

>  <m_score__min__energy>  (74) 
-16.02

>  <m_primary>  (74) 
energy

$$$$
74:0
     RDKit          3D

 56 59  0  0  0  0  0  0  0  0999 V2000
   58.7820   35.2710   51.2700 H   0  0  0  0  0  0  0  0  0  0  0  0
   59.0030   34.2500   51.2420 N   0  0  0  0  0  0  0  0  0  0  0  0
   60.2120   33.8190   51.0700 C   0  0  0  0  0  0  0  0  0  0  0  0
   61.0420   33.7130   52.1420 N   0  0  0  0  0  0  0  0  0  0  0  0
   62.3300   33.2990   52.0240 C   0  0  0  0  0  0  0  0  0  0  0  0
   62.9643   33.2251   52.9197 H   0  0  0  0  0  0  0  0  0  0  0  0
   62.8570   32.9650   50.7680 C   0  0  0  0  0  0  0  0  0  0  0  0
   64.2650   32.5170   50.6300 C   0  0  0  0  0  0  0  0  0  0  0  0
   65.2940   33.1900   49.9850 C   0  0  0  0  0  0  0  0  0  0  0  0
   65.2245   34.1591   49.4692 H   0  0  0  0  0  0  0  0  0  0  0  0
   66.4220   32.4040   50.1180 C   0  0  0  0  0  0  0  0  0  0  0  0
   67.4180   32.6548   49.7242 H   0  0  0  0  0  0  0  0  0  0  0  0
   66.1190   31.2850   50.8020 N   0  0  0  0  0  0  0  0  0  0  0  0
   67.0610   30.2520   51.2150 C   0  0  0  0  0  0  0  0  0  0  0  0
   67.1000   30.2093   52.3135 H   0  0  0  0  0  0  0  0  0  0  0  0
   66.7333   29.2784   50.8216 H   0  0  0  0  0  0  0  0  0  0  0  0
   68.0606   30.4888   50.8216 H   0  0  0  0  0  0  0  0  0  0  0  0
   64.8150   31.3460   51.1320 C   0  0  0  0  0  0  0  0  0  0  0  0
   64.2700   30.5853   51.7101 H   0  0  0  0  0  0  0  0  0  0  0  0
   62.0160   33.0640   49.6470 C   0  0  0  0  0  0  0  0  0  0  0  0
   62.4061   32.8085   48.6507 H   0  0  0  0  0  0  0  0  0  0  0  0
   60.6840   33.4850   49.7830 C   0  0  0  0  0  0  0  0  0  0  0  0
   59.8190   33.5780   48.5790 C   0  0  0  0  0  0  0  0  0  0  0  0
   58.7250   32.7120   48.4250 C   0  0  0  0  0  0  0  0  0  0  0  0
   58.5104   31.9603   49.1989 H   0  0  0  0  0  0  0  0  0  0  0  0
   57.9070   32.7980   47.2960 C   0  0  0  0  0  0  0  0  0  0  0  0
   57.0566   32.1092   47.1845 H   0  0  0  0  0  0  0  0  0  0  0  0
   58.1620   33.7580   46.3010 C   0  0  0  0  0  0  0  0  0  0  0  0
   57.2850   33.8570   45.1100 C   0  0  0  0  0  0  0  0  0  0  0  0
   56.6740   34.9330   44.8620 O   0  0  0  0  0  0  0  0  0  0  0  0
   57.1330   32.7350   44.2320 N   0  0  0  0  0  0  0  0  0  0  0  0
   58.2000   31.7820   43.9460 C   0  0  0  0  0  0  0  0  0  0  0  0
   58.2266   31.5830   42.8645 H   0  0  0  0  0  0  0  0  0  0  0  0
   59.1570   32.2112   44.2777 H   0  0  0  0  0  0  0  0  0  0  0  0
   57.9670   30.4880   44.6820 C   0  0  0  0  0  0  0  0  0  0  0  0
   56.8130   29.7300   44.4270 C   0  0  0  0  0  0  0  0  0  0  0  0
   56.0805   30.0806   43.6851 H   0  0  0  0  0  0  0  0  0  0  0  0
   56.5910   28.5330   45.1110 C   0  0  0  0  0  0  0  0  0  0  0  0
   55.6784   27.9522   44.9113 H   0  0  0  0  0  0  0  0  0  0  0  0
   57.5190   28.0660   46.0480 C   0  0  0  0  0  0  0  0  0  0  0  0
   57.2500   26.8280   46.7210 N   0  0  0  0  0  0  0  0  0  0  0  0
   56.0810   25.6430   46.2350 S   0  0  0  0  0  0  0  0  0  0  0  0
   55.8920   24.6260   47.3250 O   0  0  0  0  0  0  0  0  0  0  0  0
   54.7700   26.3320   45.9830 O   0  0  0  0  0  0  0  0  0  0  0  0
   56.6070   24.8510   44.7290 C   0  0  0  0  0  0  0  0  0  0  0  0
   57.2005   23.9574   44.9726 H   0  0  0  0  0  0  0  0  0  0  0  0
   55.7245   24.5563   44.1421 H   0  0  0  0  0  0  0  0  0  0  0  0
   57.2209   25.5501   44.1421 H   0  0  0  0  0  0  0  0  0  0  0  0
   58.6810   28.8190   46.2980 C   0  0  0  0  0  0  0  0  0  0  0  0
   59.4187   28.4614   47.0315 H   0  0  0  0  0  0  0  0  0  0  0  0
   58.9010   30.0190   45.6180 C   0  0  0  0  0  0  0  0  0  0  0  0
   59.8131   30.6005   45.8177 H   0  0  0  0  0  0  0  0  0  0  0  0
   59.2520   34.6310   46.4620 C   0  0  0  0  0  0  0  0  0  0  0  0
   59.4624   35.3891   45.6932 H   0  0  0  0  0  0  0  0  0  0  0  0
   60.0700   34.5430   47.5910 C   0  0  0  0  0  0  0  0  0  0  0  0
   60.9171   35.2351   47.7066 H   0  0  0  0  0  0  0  0  0  0  0  0
  1  2  1  0
  2  3  2  0
  3  4  1  0
  4  5  1  0
  5  6  1  0
  5  7  2  0
  7  8  1  0
  8  9  1  0
  9 10  1  0
  9 11  2  0
 11 12  1  0
 11 13  1  0
 13 14  1  0
 14 15  1  0
 14 16  1  0
 14 17  1  0
 13 18  1  0
 18 19  1  0
  7 20  1  0
 20 21  1  0
 20 22  2  0
 22 23  1  0
 23 24  2  0
 24 25  1  0
 24 26  1  0
 26 27  1  0
 26 28  2  0
 28 29  1  0
 29 30  2  0
 29 31  1  0
 31 32  1  0
 32 33  1  0
 32 34  1  0
 32 35  1  0
 35 36  2  0
 36 37  1  0
 36 38  1  0
 38 39  1  0
 38 40  2  0
 40 41  1  0
 41 42  1  0
 42 43  2  0
 42 44  2  0
 42 45  1  0
 45 46  1  0
 45 47  1  0
 45 48  1  0
 40 49  1  0
 49 50  1  0
 49 51  2  0
 51 52  1  0
 28 53  1  0
 53 54  1  0
 53 55  2  0
 55 56  1  0
 22  3  1  0
 55 23  1  0
 18  8  2  0
 51 35  1  0
M  CHG  3   4  -1  31  -1  41  -1
M  END
>  <UniqueID>  (75) 
68

>  <SMILES>  (75) 
[H]/N=c1\[n-]cc(-c2ccn(C)c2)cc1-c1ccc(C(=O)[N-]Cc2ccc([N-]S(C)(=O)=O)cc2)cc1

>  <Energy>  (75) 
93.08006913628297

>  <Genealogy>  (75) 
Cn1ccc(-c2c[n-]c(=N)c(-c3ccc(C(=O)[N-]Cc4ccc([N-]S(C)(=O)=O)cc4)cc3)c2)c1 (protonated)
[H]/N=c1\[n-]cc(-c2ccn(C)c2)cc1-c1ccc(C(=O)[N-]Cc2ccc([N-]S(C)(=O)=O)cc2)cc1 (cis-trans isomerization)
[H]/N=c1\[n-]cc(-c2ccn(C)c2)cc1-c1ccc(C(=O)[N-]Cc2ccc([N-]S(C)(=O)=O)cc2)cc1 (3D coordinates assigned)
[H]/N=c1\[n-]cc(-c2ccn(C)c2)cc1-c1ccc(C(=O)[N-]Cc2ccc([N-]S(C)(=O)=O)cc2)cc1 (optimized conformer: 93.08006913628297 kcal/mol)

>  <smiles>  (75) 
Cn1ccc(-c2c[nH]c(=N)c(-c3ccc(C(=O)NCc4ccc(NS(C)(=O)=O)cc4)cc3)c2)c1

>  <score_type>  (75) 
oracle

>  <origin>  (75) 
adg

>  <m_score__min__energy>  (75) 
-13.25

>  <m_primary>  (75) 
energy

$$$$
75:0
     RDKit          3D

 58 61  0  0  0  0  0  0  0  0999 V2000
   60.0620   34.1540   49.6260 C   0  0  0  0  0  0  0  0  0  0  0  0
   59.5890   34.0130   48.2110 C   0  0  0  0  0  0  0  0  0  0  0  0
   60.1460   34.8090   47.1960 C   0  0  0  0  0  0  0  0  0  0  0  0
   59.6890   34.6970   45.8780 C   0  0  0  0  0  0  0  0  0  0  0  0
   58.6760   33.7770   45.5560 C   0  0  0  0  0  0  0  0  0  0  0  0
   58.1560   33.6700   44.2240 N   0  0  0  0  0  0  0  0  0  0  0  0
   57.7240   32.4670   43.5740 C   0  0  0  0  0  0  0  0  0  0  0  0
   58.0390   32.2840   42.3670 O   0  0  0  0  0  0  0  0  0  0  0  0
   56.8180   31.4740   44.2500 C   0  0  0  0  0  0  0  0  0  0  0  0
   57.4700   30.1280   44.2830 C   0  0  0  0  0  0  0  0  0  0  0  0
   58.7940   29.9280   44.1160 N   0  0  0  0  0  0  0  0  0  0  0  0
   58.9420   28.5980   44.3020 C   0  0  0  0  0  0  0  0  0  0  0  0
   60.0600   28.0220   44.2360 O   0  0  0  0  0  0  0  0  0  0  0  0
   57.7880   27.9540   44.5760 N   0  0  0  0  0  0  0  0  0  0  0  0
   57.6220   26.5360   44.9050 C   0  0  0  0  0  0  0  0  0  0  0  0
   56.9780   26.3840   46.2570 C   0  0  0  0  0  0  0  0  0  0  0  0
   55.7550   26.0810   46.3250 O   0  0  0  0  0  0  0  0  0  0  0  0
   57.6980   26.6170   47.4760 N   0  0  0  0  0  0  0  0  0  0  0  0
   58.6740   27.6400   47.7160 C   0  0  0  0  0  0  0  0  0  0  0  0
   58.3560   28.9650   47.3980 C   0  0  0  0  0  0  0  0  0  0  0  0
   59.2740   29.9910   47.6360 C   0  0  0  0  0  0  0  0  0  0  0  0
   60.5220   29.7070   48.2160 C   0  0  0  0  0  0  0  0  0  0  0  0
   61.4690   30.7660   48.4510 N   0  0  0  0  0  0  0  0  0  0  0  0
   61.8920   31.0620   49.8280 C   0  0  0  0  0  0  0  0  0  0  0  0
   63.2780   31.7500   49.8870 C   0  0  0  0  0  0  0  0  0  0  0  0
   63.8990   31.8630   48.6220 O   0  0  0  0  0  0  0  0  0  0  0  0
   63.0330   32.5360   47.7370 C   0  0  0  0  0  0  0  0  0  0  0  0
   61.8990   31.6010   47.3240 C   0  0  0  0  0  0  0  0  0  0  0  0
   60.8250   28.3840   48.5730 C   0  0  0  0  0  0  0  0  0  0  0  0
   59.9060   27.3580   48.3300 C   0  0  0  0  0  0  0  0  0  0  0  0
   56.8600   28.9280   44.5850 C   0  0  0  0  0  0  0  0  0  0  0  0
   55.5090   28.7550   44.8790 O   0  0  0  0  0  0  0  0  0  0  0  0
   58.0900   33.0160   46.5760 C   0  0  0  0  0  0  0  0  0  0  0  0
   58.5430   33.1300   47.8970 C   0  0  0  0  0  0  0  0  0  0  0  0
   59.2393   33.9088   50.3138 H   0  0  0  0  0  0  0  0  0  0  0  0
   60.9035   33.4677   49.8014 H   0  0  0  0  0  0  0  0  0  0  0  0
   60.3904   35.1891   49.8014 H   0  0  0  0  0  0  0  0  0  0  0  0
   60.9457   35.5242   47.4387 H   0  0  0  0  0  0  0  0  0  0  0  0
   60.1239   35.3310   45.0913 H   0  0  0  0  0  0  0  0  0  0  0  0
   56.6160   31.8065   45.2789 H   0  0  0  0  0  0  0  0  0  0  0  0
   55.8744   31.4050   43.6888 H   0  0  0  0  0  0  0  0  0  0  0  0
   56.9858   26.0594   44.1447 H   0  0  0  0  0  0  0  0  0  0  0  0
   58.6113   26.0556   44.9245 H   0  0  0  0  0  0  0  0  0  0  0  0
   57.3760   29.2006   46.9574 H   0  0  0  0  0  0  0  0  0  0  0  0
   59.0184   31.0268   47.3679 H   0  0  0  0  0  0  0  0  0  0  0  0
   61.1479   31.7272   50.2905 H   0  0  0  0  0  0  0  0  0  0  0  0
   61.9698   30.1061   50.3668 H   0  0  0  0  0  0  0  0  0  0  0  0
   63.1495   32.7595   50.3046 H   0  0  0  0  0  0  0  0  0  0  0  0
   63.9276   31.1222   50.5146 H   0  0  0  0  0  0  0  0  0  0  0  0
   62.6141   33.4218   48.2369 H   0  0  0  0  0  0  0  0  0  0  0  0
   63.5932   32.8493   46.8437 H   0  0  0  0  0  0  0  0  0  0  0  0
   61.0461   32.2020   46.9757 H   0  0  0  0  0  0  0  0  0  0  0  0
   62.2618   30.9442   46.5197 H   0  0  0  0  0  0  0  0  0  0  0  0
   61.7905   28.1527   49.0465 H   0  0  0  0  0  0  0  0  0  0  0  0
   60.1489   26.3254   48.6210 H   0  0  0  0  0  0  0  0  0  0  0  0
   55.1450   27.8700   45.2060 H   0  0  0  0  0  0  0  0  0  0  0  0
   57.2685   32.3242   46.3381 H   0  0  0  0  0  0  0  0  0  0  0  0
   58.0781   32.5262   48.6903 H   0  0  0  0  0  0  0  0  0  0  0  0
  1  2  1  0
  2  3  2  0
  3  4  1  0
  4  5  2  0
  5  6  1  0
  6  7  1  0
  7  8  2  0
  7  9  1  0
  9 10  1  0
 10 11  1  0
 11 12  1  0
 12 13  2  0
 12 14  1  0
 14 15  1  0
 15 16  1  0
 16 17  2  0
 16 18  1  0
 18 19  1  0
 19 20  2  0
 20 21  1  0
 21 22  2  0
 22 23  1  0
 23 24  1  0
 24 25  1  0
 25 26  1  0
 26 27  1  0
 27 28  1  0
 22 29  1  0
 29 30  2  0
 14 31  1  0
 31 32  1  0
  5 33  1  0
 33 34  2  0
 34  2  1  0
 31 10  2  0
 30 19  1  0
 28 23  1  0
  1 35  1  0
  1 36  1  0
  1 37  1  0
  3 38  1  0
  4 39  1  0
  9 40  1  0
  9 41  1  0
 15 42  1  0
 15 43  1  0
 20 44  1  0
 21 45  1  0
 24 46  1  0
 24 47  1  0
 25 48  1  0
 25 49  1  0
 27 50  1  0
 27 51  1  0
 28 52  1  0
 28 53  1  0
 29 54  1  0
 30 55  1  0
 32 56  1  0
 33 57  1  0
 34 58  1  0
M  CHG  3   6  -1  11  -1  18  -1
M  END
>  <UniqueID>  (76) 
69

>  <SMILES>  (76) 
Cc1ccc([N-]C(=O)Cc2[n-]c(=O)n(CC(=O)[N-]c3ccc(N4CCOCC4)cc3)c2O)cc1

>  <Energy>  (76) 
110.1583372307245

>  <Genealogy>  (76) 
Cc1ccc([N-]C(=O)Cc2[n-]c(=O)n(CC(=O)[N-]c3ccc(N4CCOCC4)cc3)c2O)cc1 (protonated)
Cc1ccc([N-]C(=O)Cc2[n-]c(=O)n(CC(=O)[N-]c3ccc(N4CCOCC4)cc3)c2O)cc1 (3D coordinates assigned)
Cc1ccc([N-]C(=O)Cc2[n-]c(=O)n(CC(=O)[N-]c3ccc(N4CCOCC4)cc3)c2O)cc1 (nonaromatic ring conformer: 110.1583372307245 kcal/mol)

>  <smiles>  (76) 
Cc1ccc(NC(=O)Cc2[nH]c(=O)n(CC(=O)Nc3ccc(N4CCOCC4)cc3)c2O)cc1

>  <score_type>  (76) 
oracle

>  <origin>  (76) 
adg

>  <m_score__min__energy>  (76) 
-12.949999999999999

>  <m_primary>  (76) 
energy

$$$$
76:0
     RDKit          3D

 83 86  0  0  0  0  0  0  0  0999 V2000
   59.2670   33.9320   44.4720 C   0  0  0  0  0  0  0  0  0  0  0  0
   58.2700   34.2420   45.6050 C   0  0  0  0  0  0  0  0  0  0  0  0
   56.8690   34.4830   45.0260 C   0  0  0  0  0  0  0  0  0  0  0  0
   58.2990   33.1330   46.7010 C   0  0  1  0  0  0  0  0  0  0  0  0
   58.6510   31.8340   46.1180 N   0  0  0  0  0  0  0  0  0  0  0  0
   57.7200   31.0870   45.3130 C   0  0  0  0  0  0  0  0  0  0  0  0
   56.8630   31.7030   44.6200 O   0  0  0  0  0  0  0  0  0  0  0  0
   57.6960   29.5690   45.3150 C   0  0  1  0  0  0  0  0  0  0  0  0
   56.9770   28.9340   44.1020 C   0  0  0  0  0  0  0  0  0  0  0  0
   57.9920   27.9990   43.5540 C   0  0  0  0  0  0  0  0  0  0  0  0
   57.8110   27.3240   42.5550 O   0  0  0  0  0  0  0  0  0  0  0  0
   59.2640   28.0120   44.3030 C   0  0  0  0  0  0  0  0  0  0  0  0
   59.0630   29.0250   45.3300 N   0  0  0  0  0  0  0  0  0  0  0  0
   59.7930   28.9110   46.5640 C   0  0  0  0  0  0  0  0  0  0  0  0
   60.6700   29.7810   46.8340 O   0  0  0  0  0  0  0  0  0  0  0  0
   59.5150   27.8140   47.5850 C   0  0  2  0  0  0  0  0  0  0  0  0
   60.4700   27.8690   48.8020 C   0  0  0  0  0  0  0  0  0  0  0  0
   60.4890   29.2520   49.5210 C   0  0  0  0  0  0  0  0  0  0  0  0
   59.2210   29.5110   50.3370 C   0  0  0  0  0  0  0  0  0  0  0  0
   59.4870   28.9590   51.7320 C   0  0  0  0  0  0  0  0  0  0  0  0
   61.0030   28.8600   51.8810 C   0  0  0  0  0  0  0  0  0  0  0  0
   61.6100   29.3420   50.5650 C   0  0  0  0  0  0  0  0  0  0  0  0
   59.5350   26.3890   46.9800 C   0  0  0  0  0  0  0  0  0  0  0  0
   58.2190   25.7320   47.0850 N   0  0  0  0  0  0  0  0  0  0  0  0
   58.2860   24.3060   46.7020 C   0  0  0  0  0  0  0  0  0  0  0  0
   56.9780   23.6220   47.1060 C   0  0  0  0  0  0  0  0  0  0  0  0
   55.8290   24.3460   46.5900 N   0  0  0  0  0  0  0  0  0  0  0  0
   55.8900   25.7440   46.2980 C   0  0  0  0  0  0  0  0  0  0  0  0
   54.8400   26.3720   46.0050 O   0  0  0  0  0  0  0  0  0  0  0  0
   57.2250   26.4320   46.2430 C   0  0  0  0  0  0  0  0  0  0  0  0
   59.1880   33.4840   47.8870 C   0  0  0  0  0  0  0  0  0  0  0  0
   60.1240   34.3150   47.7000 O   0  0  0  0  0  0  0  0  0  0  0  0
   59.0690   32.8590   49.2250 C   0  0  0  0  0  0  0  0  0  0  0  0
   58.1670   32.0210   49.4750 O   0  0  0  0  0  0  0  0  0  0  0  0
   59.9830   33.2380   50.2610 N   0  0  0  0  0  0  0  0  0  0  0  0
   61.2770   32.5920   50.4640 C   0  0  0  0  0  0  0  0  0  0  0  0
   62.1420   32.7520   49.2400 C   0  0  0  0  0  0  0  0  0  0  0  0
   62.7590   33.9830   48.9650 C   0  0  0  0  0  0  0  0  0  0  0  0
   63.5340   34.1380   47.8100 C   0  0  0  0  0  0  0  0  0  0  0  0
   63.7000   33.0680   46.9240 C   0  0  0  0  0  0  0  0  0  0  0  0
   63.1020   31.8380   47.1990 C   0  0  0  0  0  0  0  0  0  0  0  0
   62.3190   31.6800   48.3480 C   0  0  0  0  0  0  0  0  0  0  0  0
   60.2325   33.6318   44.9052 H   0  0  0  0  0  0  0  0  0  0  0  0
   58.8735   33.1138   43.8510 H   0  0  0  0  0  0  0  0  0  0  0  0
   59.4068   34.8291   43.8510 H   0  0  0  0  0  0  0  0  0  0  0  0
   58.5739   35.1712   46.1091 H   0  0  0  0  0  0  0  0  0  0  0  0
   56.1488   34.6069   45.8482 H   0  0  0  0  0  0  0  0  0  0  0  0
   56.8794   35.3926   44.4075 H   0  0  0  0  0  0  0  0  0  0  0  0
   56.5748   33.6223   44.4075 H   0  0  0  0  0  0  0  0  0  0  0  0
   57.2796   33.0622   47.1083 H   0  0  0  0  0  0  0  0  0  0  0  0
   59.6610   31.6060   46.0300 H   0  0  0  0  0  0  0  0  0  0  0  0
   57.1332   29.3116   46.2244 H   0  0  0  0  0  0  0  0  0  0  0  0
   56.0732   28.3929   44.4187 H   0  0  0  0  0  0  0  0  0  0  0  0
   56.6353   29.6774   43.3667 H   0  0  0  0  0  0  0  0  0  0  0  0
   59.4595   27.0294   44.7571 H   0  0  0  0  0  0  0  0  0  0  0  0
   60.1296   28.2296   43.6600 H   0  0  0  0  0  0  0  0  0  0  0  0
   58.4917   28.0220   47.9307 H   0  0  0  0  0  0  0  0  0  0  0  0
   60.1531   27.1049   49.5270 H   0  0  0  0  0  0  0  0  0  0  0  0
   61.4865   27.6902   48.4215 H   0  0  0  0  0  0  0  0  0  0  0  0
   60.6097   29.9725   48.6986 H   0  0  0  0  0  0  0  0  0  0  0  0
   59.0151   30.5904   50.3878 H   0  0  0  0  0  0  0  0  0  0  0  0
   58.3456   29.0287   49.8775 H   0  0  0  0  0  0  0  0  0  0  0  0
   59.0744   29.6372   52.4934 H   0  0  0  0  0  0  0  0  0  0  0  0
   59.0105   27.9768   51.8671 H   0  0  0  0  0  0  0  0  0  0  0  0
   61.3440   29.4967   52.7106 H   0  0  0  0  0  0  0  0  0  0  0  0
   61.3105   27.8272   52.1018 H   0  0  0  0  0  0  0  0  0  0  0  0
   61.9579   30.3809   50.6630 H   0  0  0  0  0  0  0  0  0  0  0  0
   62.4784   28.7319   50.2758 H   0  0  0  0  0  0  0  0  0  0  0  0
   59.8158   26.4565   45.9186 H   0  0  0  0  0  0  0  0  0  0  0  0
   60.2637   25.7879   47.5437 H   0  0  0  0  0  0  0  0  0  0  0  0
   58.4259   24.2221   45.6142 H   0  0  0  0  0  0  0  0  0  0  0  0
   59.1323   23.8226   47.2120 H   0  0  0  0  0  0  0  0  0  0  0  0
   56.9684   22.5984   46.7032 H   0  0  0  0  0  0  0  0  0  0  0  0
   56.9166   23.6055   48.2042 H   0  0  0  0  0  0  0  0  0  0  0  0
   57.5805   26.4440   45.2021 H   0  0  0  0  0  0  0  0  0  0  0  0
   57.1057   27.4576   46.6223 H   0  0  0  0  0  0  0  0  0  0  0  0
   61.7807   33.0527   51.3265 H   0  0  0  0  0  0  0  0  0  0  0  0
   61.1154   31.5198   50.6490 H   0  0  0  0  0  0  0  0  0  0  0  0
   62.6330   34.8273   49.6588 H   0  0  0  0  0  0  0  0  0  0  0  0
   64.0144   35.1046   47.5980 H   0  0  0  0  0  0  0  0  0  0  0  0
   64.3012   33.1964   46.0118 H   0  0  0  0  0  0  0  0  0  0  0  0
   63.2461   30.9913   46.5118 H   0  0  0  0  0  0  0  0  0  0  0  0
   61.8394   30.7118   48.5543 H   0  0  0  0  0  0  0  0  0  0  0  0
  1  2  1  0
  2  3  1  0
  2  4  1  0
  4  5  1  0
  5  6  1  0
  6  7  2  0
  6  8  1  0
  8  9  1  0
  9 10  1  0
 10 11  2  0
 10 12  1  0
 12 13  1  0
 13 14  1  0
 14 15  2  0
 14 16  1  0
 16 17  1  0
 17 18  1  0
 18 19  1  0
 19 20  1  0
 20 21  1  0
 21 22  1  0
 16 23  1  0
 23 24  1  0
 24 25  1  0
 25 26  1  0
 26 27  1  0
 27 28  1  0
 28 29  2  0
 28 30  1  0
  4 31  1  0
 31 32  2  0
 31 33  1  0
 33 34  2  0
 33 35  1  0
 35 36  1  0
 36 37  1  0
 37 38  2  0
 38 39  1  0
 39 40  2  0
 40 41  1  0
 41 42  2  0
 13  8  1  0
 22 18  1  0
 30 24  1  0
 42 37  1  0
  1 43  1  0
  1 44  1  0
  1 45  1  0
  2 46  1  0
  3 47  1  0
  3 48  1  0
  3 49  1  0
  4 50  1  1
  5 51  1  0
  8 52  1  1
  9 53  1  0
  9 54  1  0
 12 55  1  0
 12 56  1  0
 16 57  1  1
 17 58  1  0
 17 59  1  0
 18 60  1  0
 19 61  1  0
 19 62  1  0
 20 63  1  0
 20 64  1  0
 21 65  1  0
 21 66  1  0
 22 67  1  0
 22 68  1  0
 23 69  1  0
 23 70  1  0
 25 71  1  0
 25 72  1  0
 26 73  1  0
 26 74  1  0
 30 75  1  0
 30 76  1  0
 36 77  1  0
 36 78  1  0
 38 79  1  0
 39 80  1  0
 40 81  1  0
 41 82  1  0
 42 83  1  0
M  CHG  2  27  -1  35  -1
M  END
>  <UniqueID>  (77) 
70

>  <SMILES>  (77) 
CC(C)[C@@H](NC(=O)[C@H]1CC(=O)CN1C(=O)C(CC1CCCC1)CN1CC[N-]C(=O)C1)C(=O)C(=O)[N-]Cc1ccccc1

>  <Energy>  (77) 
91.68161125563388

>  <Genealogy>  (77) 
CC(C)C(NC(=O)C1CC(=O)CN1C(=O)C(CC1CCCC1)CN1CC[N-]C(=O)C1)C(=O)C(=O)[N-]Cc1ccccc1 (protonated)
CC(C)[C@@H](NC(=O)[C@H]1CC(=O)CN1C(=O)C(CC1CCCC1)CN1CC[N-]C(=O)C1)C(=O)C(=O)[N-]Cc1ccccc1 (chirality)
CC(C)[C@@H](NC(=O)[C@H]1CC(=O)CN1C(=O)C(CC1CCCC1)CN1CC[N-]C(=O)C1)C(=O)C(=O)[N-]Cc1ccccc1 (3D coordinates assigned)
CC(C)[C@@H](NC(=O)[C@H]1CC(=O)CN1C(=O)C(CC1CCCC1)CN1CC[N-]C(=O)C1)C(=O)C(=O)[N-]Cc1ccccc1 (nonaromatic ring conformer: 91.68161125563388 kcal/mol)

>  <smiles>  (77) 
CC(C)C(NC(=O)C1CC(=O)CN1C(=O)C(CC1CCCC1)CN1CCNC(=O)C1)C(=O)C(=O)NCc1ccccc1

>  <score_type>  (77) 
oracle

>  <origin>  (77) 
adg

>  <m_score__min__energy>  (77) 
-13.6

>  <m_primary>  (77) 
energy

$$$$
77:0
     RDKit          3D

 24 25  0  0  0  0  0  0  0  0999 V2000
   57.1890   30.9410   42.7180 O   0  0  0  0  0  0  0  0  0  0  0  0
   57.0280   30.6880   43.9410 C   0  0  0  0  0  0  0  0  0  0  0  0
   56.2290   31.5300   44.7060 O   0  0  0  0  0  0  0  0  0  0  0  0
   57.7350   29.5560   44.5800 C   0  0  0  0  0  0  0  0  0  0  0  0
   59.1390   29.5880   44.6250 C   0  0  0  0  0  0  0  0  0  0  0  0
   59.8580   28.5180   45.1570 C   0  0  0  0  0  0  0  0  0  0  0  0
   59.1890   27.3920   45.6340 C   0  0  0  0  0  0  0  0  0  0  0  0
   57.7930   27.3270   45.5910 C   0  0  0  0  0  0  0  0  0  0  0  0
   57.1490   26.1570   46.1150 N   0  0  0  0  0  0  0  0  0  0  0  0
   56.7940   24.9840   45.3700 C   0  0  0  0  0  0  0  0  0  0  0  0
   57.6190   24.5220   44.5390 O   0  0  0  0  0  0  0  0  0  0  0  0
   55.4700   24.3450   45.5100 C   0  0  0  0  0  0  0  0  0  0  0  0
   55.2520   23.0190   45.4320 N   0  0  0  0  0  0  0  0  0  0  0  0
   53.9220   22.9050   45.6370 C   0  0  0  0  0  0  0  0  0  0  0  0
   53.3280   21.7950   45.6340 O   0  0  0  0  0  0  0  0  0  0  0  0
   53.2800   24.0730   45.8470 N   0  0  0  0  0  0  0  0  0  0  0  0
   54.2720   24.9730   45.7670 C   0  0  0  0  0  0  0  0  0  0  0  0
   54.0850   26.3420   45.9210 O   0  0  0  0  0  0  0  0  0  0  0  0
   57.0520   28.4340   45.1200 C   0  0  0  0  0  0  0  0  0  0  0  0
   55.6610   28.4120   45.2510 O   0  0  0  0  0  0  0  0  0  0  0  0
   59.6764   30.4658   44.2367 H   0  0  0  0  0  0  0  0  0  0  0  0
   60.9562   28.5627   45.2003 H   0  0  0  0  0  0  0  0  0  0  0  0
   59.7629   26.5493   46.0468 H   0  0  0  0  0  0  0  0  0  0  0  0
   55.1320   27.5760   45.4580 H   0  0  0  0  0  0  0  0  0  0  0  0
  1  2  2  0
  2  3  1  0
  2  4  1  0
  4  5  2  0
  5  6  1  0
  6  7  2  0
  7  8  1  0
  8  9  1  0
  9 10  1  0
 10 11  2  0
 10 12  1  0
 12 13  1  0
 13 14  1  0
 14 15  2  0
 14 16  1  0
 16 17  1  0
 17 18  1  0
  8 19  2  0
 19 20  1  0
 19  4  1  0
 17 12  2  0
  5 21  1  0
  6 22  1  0
  7 23  1  0
 20 24  1  0
M  CHG  5   3  -1   9  -1  13  -1  16  -1  18  -1
M  END
>  <UniqueID>  (78) 
71

>  <SMILES>  (78) 
O=C([O-])c1cccc([N-]C(=O)c2[n-]c(=O)[n-]c2[O-])c1O

>  <Energy>  (78) 
66.30391711995802

>  <Genealogy>  (78) 
O=C([O-])c1cccc([N-]C(=O)c2[n-]c(=O)[n-]c2[O-])c1O (protonated)
O=C([O-])c1cccc([N-]C(=O)c2[n-]c(=O)[n-]c2[O-])c1O (3D coordinates assigned)
O=C([O-])c1cccc([N-]C(=O)c2[n-]c(=O)[n-]c2[O-])c1O (optimized conformer: 66.30391711995802 kcal/mol)

>  <smiles>  (78) 
O=C(O)c1cccc(NC(=O)c2[nH]c(=O)[nH]c2O)c1O

>  <score_type>  (78) 
oracle

>  <origin>  (78) 
adg

>  <m_score__min__energy>  (78) 
-16.390000000000001

>  <m_primary>  (78) 
energy

$$$$
78:0
     RDKit          3D

 50 52  0  0  0  0  0  0  0  0999 V2000
   59.2365   35.2287   47.4603 H   0  0  0  0  0  0  0  0  0  0  0  0
   58.9610   34.4700   46.7130 C   0  0  0  0  0  0  0  0  0  0  0  0
   58.6630   34.8490   45.4430 N   0  0  0  0  0  0  0  0  0  0  0  0
   58.3140   33.9470   44.4900 C   0  0  0  0  0  0  0  0  0  0  0  0
   58.0625   34.2908   43.4758 H   0  0  0  0  0  0  0  0  0  0  0  0
   58.2730   32.5790   44.7940 C   0  0  0  0  0  0  0  0  0  0  0  0
   57.7950   31.5780   43.7790 C   0  0  0  0  0  0  0  0  0  0  0  0
   58.6298   31.2988   43.1193 H   0  0  0  0  0  0  0  0  0  0  0  0
   56.9854   32.0226   43.1816 H   0  0  0  0  0  0  0  0  0  0  0  0
   57.2830   30.3570   44.4780 C   0  0  0  0  0  0  0  0  0  0  0  0
   58.2430   29.1710   45.1910 S   0  0  0  0  0  0  0  0  0  0  0  0
   56.9200   28.1940   45.5380 C   0  0  0  0  0  0  0  0  0  0  0  0
   57.0210   27.0370   46.1210 N   0  0  0  0  0  0  0  0  0  0  0  0
   55.9470   26.1120   46.3650 C   0  0  0  0  0  0  0  0  0  0  0  0
   54.7790   26.3500   45.9540 O   0  0  0  0  0  0  0  0  0  0  0  0
   56.1930   24.9060   47.0890 N   0  0  0  0  0  0  0  0  0  0  0  0
   57.3540   24.0630   46.8420 C   0  0  0  0  0  0  0  0  0  0  0  0
   57.1540   23.0474   47.2142 H   0  0  0  0  0  0  0  0  0  0  0  0
   58.2264   24.4831   47.3640 H   0  0  0  0  0  0  0  0  0  0  0  0
   57.6400   24.0070   45.3480 C   0  0  0  0  0  0  0  0  0  0  0  0
   58.7078   23.7979   45.1867 H   0  0  0  0  0  0  0  0  0  0  0  0
   57.0368   23.2099   44.8888 H   0  0  0  0  0  0  0  0  0  0  0  0
   57.3820   24.9727   44.8888 H   0  0  0  0  0  0  0  0  0  0  0  0
   55.7560   28.7350   45.1160 N   0  0  0  0  0  0  0  0  0  0  0  0
   55.9550   29.9410   44.5190 C   0  0  0  0  0  0  0  0  0  0  0  0
   55.1321   30.5399   44.1018 H   0  0  0  0  0  0  0  0  0  0  0  0
   58.5890   32.1690   46.0960 C   0  0  0  0  0  0  0  0  0  0  0  0
   58.5780   31.0989   46.3504 H   0  0  0  0  0  0  0  0  0  0  0  0
   58.9190   33.1150   47.0760 C   0  0  0  0  0  0  0  0  0  0  0  0
   59.1500   32.6830   48.4680 C   0  0  0  0  0  0  0  0  0  0  0  0
   59.2550   33.5510   49.3770 O   0  0  0  0  0  0  0  0  0  0  0  0
   59.3400   31.2940   48.7800 N   0  0  0  0  0  0  0  0  0  0  0  0
   59.1060   30.5670   48.0690 H   0  0  0  0  0  0  0  0  0  0  0  0
   60.0060   30.8500   50.0030 C   0  0  0  0  0  0  0  0  0  0  0  0
   59.8715   31.6155   50.7814 H   0  0  0  0  0  0  0  0  0  0  0  0
   59.5582   29.8941   50.3124 H   0  0  0  0  0  0  0  0  0  0  0  0
   61.5110   30.6270   49.7760 C   0  0  0  0  0  0  0  0  0  0  0  0
   62.0035   30.5042   50.7519 H   0  0  0  0  0  0  0  0  0  0  0  0
   61.6323   29.7275   49.1545 H   0  0  0  0  0  0  0  0  0  0  0  0
   62.1480   31.7850   49.0510 C   0  0  0  0  0  0  0  0  0  0  0  0
   62.5840   31.6300   47.7210 C   0  0  0  0  0  0  0  0  0  0  0  0
   62.4261   30.6734   47.2015 H   0  0  0  0  0  0  0  0  0  0  0  0
   63.2150   32.6830   47.0590 C   0  0  0  0  0  0  0  0  0  0  0  0
   63.5513   32.5545   46.0196 H   0  0  0  0  0  0  0  0  0  0  0  0
   63.4210   33.9000   47.7120 C   0  0  0  0  0  0  0  0  0  0  0  0
   63.9184   34.7289   47.1872 H   0  0  0  0  0  0  0  0  0  0  0  0
   62.9950   34.0640   49.0320 C   0  0  0  0  0  0  0  0  0  0  0  0
   63.1579   35.0233   49.5451 H   0  0  0  0  0  0  0  0  0  0  0  0
   62.3620   33.0130   49.7040 C   0  0  0  0  0  0  0  0  0  0  0  0
   61.9560   33.1940   50.9880 F   0  0  0  0  0  0  0  0  0  0  0  0
  1  2  1  0
  2  3  2  0
  3  4  1  0
  4  5  1  0
  4  6  2  0
  6  7  1  0
  7  8  1  0
  7  9  1  0
  7 10  1  0
 10 11  1  0
 11 12  1  0
 12 13  2  0
 13 14  1  0
 14 15  2  0
 14 16  1  0
 16 17  1  0
 17 18  1  0
 17 19  1  0
 17 20  1  0
 20 21  1  0
 20 22  1  0
 20 23  1  0
 12 24  1  0
 24 25  1  0
 25 26  1  0
  6 27  1  0
 27 28  1  0
 27 29  2  0
 29 30  1  0
 30 31  2  0
 30 32  1  0
 32 33  1  0
 32 34  1  0
 34 35  1  0
 34 36  1  0
 34 37  1  0
 37 38  1  0
 37 39  1  0
 37 40  1  0
 40 41  2  0
 41 42  1  0
 41 43  1  0
 43 44  1  0
 43 45  2  0
 45 46  1  0
 45 47  1  0
 47 48  1  0
 47 49  2  0
 49 50  1  0
 29  2  1  0
 49 40  1  0
 25 10  2  0
M  CHG  2  16  -1  24  -1
M  END
>  <UniqueID>  (79) 
72

>  <SMILES>  (79) 
CC[N-]C(=O)/N=c1\[n-]cc(Cc2cncc(C(=O)NCCc3ccccc3F)c2)s1

>  <Energy>  (79) 
74.12843589820368

>  <Genealogy>  (79) 
CC[N-]C(=O)N=c1[n-]cc(Cc2cncc(C(=O)NCCc3ccccc3F)c2)s1 (protonated)
CC[N-]C(=O)/N=c1\[n-]cc(Cc2cncc(C(=O)NCCc3ccccc3F)c2)s1 (cis-trans isomerization)
CC[N-]C(=O)/N=c1\[n-]cc(Cc2cncc(C(=O)NCCc3ccccc3F)c2)s1 (3D coordinates assigned)
CC[N-]C(=O)/N=c1\[n-]cc(Cc2cncc(C(=O)NCCc3ccccc3F)c2)s1 (optimized conformer: 74.12843589820368 kcal/mol)

>  <smiles>  (79) 
CCNC(=O)N=c1[nH]cc(Cc2cncc(C(=O)NCCc3ccccc3F)c2)s1

>  <score_type>  (79) 
oracle

>  <origin>  (79) 
adg

>  <m_score__min__energy>  (79) 
-11.460000000000001

>  <m_primary>  (79) 
energy

$$$$
79:0
     RDKit          3D

 33 34  0  0  0  0  0  0  0  0999 V2000
   54.9350   23.2490   46.9040 C   0  0  0  0  0  0  0  0  0  0  0  0
   56.2320   23.4890   47.0990 C   0  0  0  0  0  0  0  0  0  0  0  0
   56.9820   24.5220   46.3610 C   0  0  0  0  0  0  0  0  0  0  0  0
   57.3240   24.2820   45.1710 O   0  0  0  0  0  0  0  0  0  0  0  0
   57.3660   25.7620   46.9790 N   0  0  0  0  0  0  0  0  0  0  0  0
   57.8120   26.9040   46.2300 C   0  0  0  0  0  0  0  0  0  0  0  0
   59.1780   27.2190   46.2170 C   0  0  0  0  0  0  0  0  0  0  0  0
   59.6410   28.3250   45.5010 C   0  0  0  0  0  0  0  0  0  0  0  0
   58.7430   29.1360   44.8060 C   0  0  0  0  0  0  0  0  0  0  0  0
   57.3690   28.8570   44.8360 C   0  0  0  0  0  0  0  0  0  0  0  0
   56.2370   29.9150   43.9880 S   0  0  0  0  0  0  0  0  0  0  0  0
   56.5650   29.9940   42.5240 O   0  0  0  0  0  0  0  0  0  0  0  0
   54.8510   29.3550   44.1400 O   0  0  0  0  0  0  0  0  0  0  0  0
   56.2830   31.5120   44.6720 N   0  0  0  0  0  0  0  0  0  0  0  0
   57.3230   32.1140   45.1690 C   0  0  0  0  0  0  0  0  0  0  0  0
   57.9220   33.2320   44.5510 C   0  0  0  0  0  0  0  0  0  0  0  0
   59.0430   33.8230   45.1390 C   0  0  0  0  0  0  0  0  0  0  0  0
   59.5590   33.3080   46.3280 C   0  0  0  0  0  0  0  0  0  0  0  0
   60.9660   34.0410   47.0770 Cl  0  0  0  0  0  0  0  0  0  0  0  0
   58.9420   32.2040   46.9170 C   0  0  0  0  0  0  0  0  0  0  0  0
   57.8520   31.6400   46.3300 N   0  0  0  0  0  0  0  0  0  0  0  0
   56.9010   27.7430   45.5550 C   0  0  0  0  0  0  0  0  0  0  0  0
   55.5350   27.4870   45.6220 O   0  0  0  0  0  0  0  0  0  0  0  0
   54.4274   22.4646   47.4846 H   0  0  0  0  0  0  0  0  0  0  0  0
   54.3726   23.8354   46.1625 H   0  0  0  0  0  0  0  0  0  0  0  0
   56.7687   22.8870   47.8470 H   0  0  0  0  0  0  0  0  0  0  0  0
   57.5100   25.7750   48.0140 H   0  0  0  0  0  0  0  0  0  0  0  0
   59.8892   26.5914   46.7740 H   0  0  0  0  0  0  0  0  0  0  0  0
   60.7161   28.5574   45.4849 H   0  0  0  0  0  0  0  0  0  0  0  0
   59.1144   29.9978   44.2322 H   0  0  0  0  0  0  0  0  0  0  0  0
   57.5098   33.6349   43.6141 H   0  0  0  0  0  0  0  0  0  0  0  0
   59.5184   34.6941   44.6645 H   0  0  0  0  0  0  0  0  0  0  0  0
   59.3370   31.7895   47.8562 H   0  0  0  0  0  0  0  0  0  0  0  0
  1  2  2  0
  2  3  1  0
  3  4  2  0
  3  5  1  0
  5  6  1  0
  6  7  2  0
  7  8  1  0
  8  9  2  0
  9 10  1  0
 10 11  1  0
 11 12  2  0
 11 13  2  0
 11 14  1  0
 14 15  2  3
 15 16  1  0
 16 17  2  0
 17 18  1  0
 18 19  1  0
 18 20  2  0
 20 21  1  0
 10 22  2  0
 22 23  1  0
 22  6  1  0
 21 15  1  0
  1 24  1  0
  1 25  1  0
  2 26  1  0
  5 27  1  0
  7 28  1  0
  8 29  1  0
  9 30  1  0
 16 31  1  0
 17 32  1  0
 20 33  1  0
M  CHG  2  21  -1  23  -1
M  END
>  <UniqueID>  (80) 
73

>  <SMILES>  (80) 
C=CC(=O)Nc1cccc(S(=O)(=O)N=c2ccc(Cl)c[n-]2)c1[O-]

>  <Energy>  (80) 
44.603093561551525

>  <Genealogy>  (80) 
C=CC(=O)Nc1cccc(S(=O)(=O)N=c2ccc(Cl)c[n-]2)c1[O-] (protonated)
C=CC(=O)Nc1cccc(S(=O)(=O)N=c2ccc(Cl)c[n-]2)c1[O-] (3D coordinates assigned)
C=CC(=O)Nc1cccc(S(=O)(=O)N=c2ccc(Cl)c[n-]2)c1[O-] (optimized conformer: 44.603093561551525 kcal/mol)

>  <smiles>  (80) 
C=CC(=O)Nc1cccc(S(=O)(=O)N=c2ccc(Cl)c[nH]2)c1O

>  <score_type>  (80) 
oracle

>  <origin>  (80) 
adg

>  <m_score__min__energy>  (80) 
-13.44

>  <m_primary>  (80) 
energy

$$$$
80:0
     RDKit          3D

 27 28  0  0  0  0  0  0  0  0999 V2000
   57.3570   30.8440   42.9420 O   0  0  0  0  0  0  0  0  0  0  0  0
   56.7490   30.7600   44.0420 C   0  0  0  0  0  0  0  0  0  0  0  0
   56.6710   31.9270   44.8700 N   0  0  0  0  0  0  0  0  0  0  0  0
   57.7140   32.4420   45.7090 C   0  0  0  0  0  0  0  0  0  0  0  0
   57.9800   33.8170   45.6970 C   0  0  0  0  0  0  0  0  0  0  0  0
   59.0060   34.3470   46.4840 C   0  0  0  0  0  0  0  0  0  0  0  0
   59.7860   33.5020   47.2800 C   0  0  0  0  0  0  0  0  0  0  0  0
   61.0750   34.1670   48.2670 Cl  0  0  0  0  0  0  0  0  0  0  0  0
   59.5450   32.1240   47.2790 C   0  0  0  0  0  0  0  0  0  0  0  0
   58.5190   31.5930   46.4910 C   0  0  0  0  0  0  0  0  0  0  0  0
   56.0750   29.4950   44.4220 C   0  0  0  0  0  0  0  0  0  0  0  0
   54.8570   29.3470   44.1350 O   0  0  0  0  0  0  0  0  0  0  0  0
   56.8040   28.3910   45.0920 C   0  0  0  0  0  0  0  0  0  0  0  0
   56.1570   27.4470   45.6170 O   0  0  0  0  0  0  0  0  0  0  0  0
   58.2810   28.3630   45.1770 C   0  0  0  0  0  0  0  0  0  0  0  0
   59.0410   27.8940   46.2370 C   0  0  0  0  0  0  0  0  0  0  0  0
   60.3620   28.1080   45.8920 C   0  0  0  0  0  0  0  0  0  0  0  0
   60.3530   28.7020   44.6480 C   0  0  0  0  0  0  0  0  0  0  0  0
   59.0880   28.8610   44.2200 N   0  0  0  0  0  0  0  0  0  0  0  0
   57.3771   34.4844   45.0637 H   0  0  0  0  0  0  0  0  0  0  0  0
   59.2003   35.4297   46.4774 H   0  0  0  0  0  0  0  0  0  0  0  0
   60.1631   31.4576   47.8986 H   0  0  0  0  0  0  0  0  0  0  0  0
   58.3405   30.5076   46.4824 H   0  0  0  0  0  0  0  0  0  0  0  0
   58.6672   27.4416   47.1674 H   0  0  0  0  0  0  0  0  0  0  0  0
   61.2478   27.8540   46.4928 H   0  0  0  0  0  0  0  0  0  0  0  0
   61.2502   29.0023   44.0869 H   0  0  0  0  0  0  0  0  0  0  0  0
   58.7960   29.2910   43.3130 H   0  0  0  0  0  0  0  0  0  0  0  0
  1  2  2  0
  2  3  1  0
  3  4  1  0
  4  5  2  0
  5  6  1  0
  6  7  2  0
  7  8  1  0
  7  9  1  0
  9 10  2  0
  2 11  1  0
 11 12  2  0
 11 13  1  0
 13 14  2  0
 13 15  1  0
 15 16  2  0
 16 17  1  0
 17 18  2  0
 18 19  1  0
 10  4  1  0
 19 15  1  0
  5 20  1  0
  6 21  1  0
  9 22  1  0
 10 23  1  0
 16 24  1  0
 17 25  1  0
 18 26  1  0
 19 27  1  0
M  CHG  1   3  -1
M  END
>  <UniqueID>  (81) 
74

>  <SMILES>  (81) 
O=C([N-]c1ccc(Cl)cc1)C(=O)C(=O)c1ccc[nH]1

>  <Energy>  (81) 
60.307908408944236

>  <Genealogy>  (81) 
O=C([N-]c1ccc(Cl)cc1)C(=O)C(=O)c1ccc[nH]1 (protonated)
O=C([N-]c1ccc(Cl)cc1)C(=O)C(=O)c1ccc[nH]1 (3D coordinates assigned)
O=C([N-]c1ccc(Cl)cc1)C(=O)C(=O)c1ccc[nH]1 (optimized conformer: 60.307908408944236 kcal/mol)

>  <smiles>  (81) 
O=C(Nc1ccc(Cl)cc1)C(=O)C(=O)c1ccc[nH]1

>  <score_type>  (81) 
oracle

>  <origin>  (81) 
adg

>  <m_score__min__energy>  (81) 
-8.2899999999999991

>  <m_primary>  (81) 
energy

$$$$
81:0
     RDKit          3D

 67 71  0  0  0  0  0  0  0  0999 V2000
   57.0660   27.1630   45.9160 O   0  0  0  0  0  0  0  0  0  0  0  0
   57.3290   28.3950   45.8850 C   0  0  0  0  0  0  0  0  0  0  0  0
   56.4250   29.2770   45.2040 N   0  0  0  0  0  0  0  0  0  0  0  0
   56.8400   30.4130   44.4360 C   0  0  0  0  0  0  0  0  0  0  0  0
   56.9730   30.3260   43.0440 C   0  0  0  0  0  0  0  0  0  0  0  0
   57.3820   31.4400   42.3100 C   0  0  0  0  0  0  0  0  0  0  0  0
   57.7010   32.6330   42.9650 C   0  0  0  0  0  0  0  0  0  0  0  0
   57.6140   32.7270   44.3690 C   0  0  0  0  0  0  0  0  0  0  0  0
   58.0900   33.9560   45.0590 C   0  0  0  0  0  0  0  0  0  0  0  0
   57.9340   35.0810   44.5120 O   0  0  0  0  0  0  0  0  0  0  0  0
   58.8210   33.9060   46.3380 C   0  0  0  0  0  0  0  0  0  0  0  0
   58.2730   33.2100   47.4260 C   0  0  0  0  0  0  0  0  0  0  0  0
   58.9510   33.1690   48.6500 C   0  0  0  0  0  0  0  0  0  0  0  0
   60.1840   33.8130   48.7890 C   0  0  0  0  0  0  0  0  0  0  0  0
   60.7440   34.4940   47.7030 C   0  0  0  0  0  0  0  0  0  0  0  0
   60.0660   34.5400   46.4790 C   0  0  0  0  0  0  0  0  0  0  0  0
   57.1510   31.6100   45.0920 C   0  0  0  0  0  0  0  0  0  0  0  0
   58.5270   28.9070   46.5940 C   0  0  0  0  0  0  0  0  0  0  0  0
   59.4840   29.6760   45.9130 C   0  0  0  0  0  0  0  0  0  0  0  0
   60.6210   30.1410   46.5810 C   0  0  0  0  0  0  0  0  0  0  0  0
   60.8140   29.8450   47.9320 C   0  0  0  0  0  0  0  0  0  0  0  0
   59.8750   29.0770   48.6290 C   0  0  0  0  0  0  0  0  0  0  0  0
   60.1030   28.8200   49.9940 O   0  0  0  0  0  0  0  0  0  0  0  0
   59.2280   29.1810   51.0700 C   0  0  1  0  0  0  0  0  0  0  0  0
   59.9330   28.9270   52.4190 C   0  0  0  0  0  0  0  0  0  0  0  0
   60.3290   30.2230   53.1510 C   0  0  0  0  0  0  0  0  0  0  0  0
   60.9120   31.2380   52.2370 N   0  0  1  0  0  0  0  0  0  0  0  0
   62.2470   30.8440   51.7160 C   0  0  0  0  0  0  0  0  0  0  0  0
   62.7330   31.7530   50.6070 C   0  0  0  0  0  0  0  0  0  0  0  0
   63.0470   31.2280   49.3410 C   0  0  0  0  0  0  0  0  0  0  0  0
   63.5040   32.0690   48.3230 C   0  0  0  0  0  0  0  0  0  0  0  0
   63.6510   33.4400   48.5570 C   0  0  0  0  0  0  0  0  0  0  0  0
   64.0950   34.2530   47.5680 F   0  0  0  0  0  0  0  0  0  0  0  0
   63.3370   33.9700   49.8120 C   0  0  0  0  0  0  0  0  0  0  0  0
   62.8790   33.1330   50.8340 C   0  0  0  0  0  0  0  0  0  0  0  0
   59.9860   31.6100   51.1220 C   0  0  0  0  0  0  0  0  0  0  0  0
   58.7960   30.6490   50.9340 C   0  0  0  0  0  0  0  0  0  0  0  0
   58.7430   28.5920   47.9470 C   0  0  0  0  0  0  0  0  0  0  0  0
   56.7548   29.3787   42.5293 H   0  0  0  0  0  0  0  0  0  0  0  0
   57.4535   31.3793   41.2140 H   0  0  0  0  0  0  0  0  0  0  0  0
   58.0230   33.5067   42.3794 H   0  0  0  0  0  0  0  0  0  0  0  0
   57.3073   32.6948   47.3168 H   0  0  0  0  0  0  0  0  0  0  0  0
   58.5133   32.6297   49.5030 H   0  0  0  0  0  0  0  0  0  0  0  0
   60.7139   33.7842   49.7525 H   0  0  0  0  0  0  0  0  0  0  0  0
   61.7179   34.9938   47.8108 H   0  0  0  0  0  0  0  0  0  0  0  0
   60.5096   35.0740   45.6257 H   0  0  0  0  0  0  0  0  0  0  0  0
   57.0326   31.6791   46.1834 H   0  0  0  0  0  0  0  0  0  0  0  0
   59.3387   29.9138   44.8489 H   0  0  0  0  0  0  0  0  0  0  0  0
   61.3665   30.7424   46.0401 H   0  0  0  0  0  0  0  0  0  0  0  0
   61.7093   30.2178   48.4511 H   0  0  0  0  0  0  0  0  0  0  0  0
   58.3214   28.5594   51.0298 H   0  0  0  0  0  0  0  0  0  0  0  0
   60.8437   28.3390   52.2321 H   0  0  0  0  0  0  0  0  0  0  0  0
   59.2205   28.3922   53.0642 H   0  0  0  0  0  0  0  0  0  0  0  0
   61.0710   29.9780   53.9252 H   0  0  0  0  0  0  0  0  0  0  0  0
   59.4152   30.6525   53.5875 H   0  0  0  0  0  0  0  0  0  0  0  0
   61.0550   32.1020   52.8130 H   0  0  0  0  0  0  0  0  0  0  0  0
   62.9718   30.8790   52.5427 H   0  0  0  0  0  0  0  0  0  0  0  0
   62.1548   29.8305   51.2985 H   0  0  0  0  0  0  0  0  0  0  0  0
   62.9324   30.1506   49.1512 H   0  0  0  0  0  0  0  0  0  0  0  0
   63.7488   31.6517   47.3351 H   0  0  0  0  0  0  0  0  0  0  0  0
   63.4506   35.0486   49.9959 H   0  0  0  0  0  0  0  0  0  0  0  0
   62.6320   33.5555   51.8191 H   0  0  0  0  0  0  0  0  0  0  0  0
   60.5643   31.6284   50.1864 H   0  0  0  0  0  0  0  0  0  0  0  0
   59.5595   32.5899   51.3824 H   0  0  0  0  0  0  0  0  0  0  0  0
   58.3669   30.8036   49.9330 H   0  0  0  0  0  0  0  0  0  0  0  0
   58.0536   30.8632   51.7169 H   0  0  0  0  0  0  0  0  0  0  0  0
   58.0183   27.9585   48.4795 H   0  0  0  0  0  0  0  0  0  0  0  0
  1  2  2  0
  2  3  1  0
  3  4  1  0
  4  5  2  0
  5  6  1  0
  6  7  2  0
  7  8  1  0
  8  9  1  0
  9 10  2  0
  9 11  1  0
 11 12  2  0
 12 13  1  0
 13 14  2  0
 14 15  1  0
 15 16  2  0
  8 17  2  0
  2 18  1  0
 18 19  2  0
 19 20  1  0
 20 21  2  0
 21 22  1  0
 22 23  1  0
 23 24  1  0
 24 25  1  0
 25 26  1  0
 26 27  1  0
 27 28  1  0
 28 29  1  0
 29 30  2  0
 30 31  1  0
 31 32  2  0
 32 33  1  0
 32 34  1  0
 34 35  2  0
 27 36  1  0
 36 37  1  0
 22 38  2  0
 17  4  1  0
 38 18  1  0
 16 11  1  0
 37 24  1  0
 35 29  1  0
  5 39  1  0
  6 40  1  0
  7 41  1  0
 12 42  1  0
 13 43  1  0
 14 44  1  0
 15 45  1  0
 16 46  1  0
 17 47  1  0
 19 48  1  0
 20 49  1  0
 21 50  1  0
 24 51  1  1
 25 52  1  0
 25 53  1  0
 26 54  1  0
 26 55  1  0
 27 56  1  1
 28 57  1  0
 28 58  1  0
 30 59  1  0
 31 60  1  0
 34 61  1  0
 35 62  1  0
 36 63  1  0
 36 64  1  0
 37 65  1  0
 37 66  1  0
 38 67  1  0
M  CHG  2   3  -1  27   1
M  END
>  <UniqueID>  (82) 
75

>  <SMILES>  (82) 
O=C([N-]c1cccc(C(=O)c2ccccc2)c1)c1cccc(OC2CC[NH+](Cc3ccc(F)cc3)CC2)c1

>  <Energy>  (82) 
96.63711154657648

>  <Genealogy>  (82) 
O=C([N-]c1cccc(C(=O)c2ccccc2)c1)c1cccc(OC2CC[NH+](Cc3ccc(F)cc3)CC2)c1 (protonated)
O=C([N-]c1cccc(C(=O)c2ccccc2)c1)c1cccc(OC2CC[NH+](Cc3ccc(F)cc3)CC2)c1 (3D coordinates assigned)
O=C([N-]c1cccc(C(=O)c2ccccc2)c1)c1cccc(OC2CC[NH+](Cc3ccc(F)cc3)CC2)c1 (nonaromatic ring conformer: 96.63711154657648 kcal/mol)

>  <smiles>  (82) 
O=C(Nc1cccc(C(=O)c2ccccc2)c1)c1cccc(OC2CCN(Cc3ccc(F)cc3)CC2)c1

>  <score_type>  (82) 
oracle

>  <origin>  (82) 
adg

>  <m_score__min__energy>  (82) 
-11.279999999999999

>  <m_primary>  (82) 
energy

$$$$
82:0
     RDKit          3D

 67 71  0  0  0  0  0  0  0  0999 V2000
   58.3430   31.9700   49.7740 O   0  0  0  0  0  0  0  0  0  0  0  0
   58.8940   33.0810   50.0040 C   0  0  0  0  0  0  0  0  0  0  0  0
   59.1010   33.5140   51.3530 N   0  0  0  0  0  0  0  0  0  0  0  0
   60.2640   33.2280   52.1410 C   0  0  0  0  0  0  0  0  0  0  0  0
   60.1050   32.5390   53.3490 C   0  0  0  0  0  0  0  0  0  0  0  0
   61.2120   32.2310   54.1460 C   0  0  0  0  0  0  0  0  0  0  0  0
   62.4960   32.5780   53.7220 C   0  0  0  0  0  0  0  0  0  0  0  0
   62.6730   33.2200   52.4920 C   0  0  0  0  0  0  0  0  0  0  0  0
   61.5640   33.5360   51.6880 C   0  0  0  0  0  0  0  0  0  0  0  0
   61.7510   34.1390   50.4390 O   0  0  0  0  0  0  0  0  0  0  0  0
   62.2770   33.4760   49.3180 C   0  0  0  0  0  0  0  0  0  0  0  0
   62.0440   32.1000   49.1810 C   0  0  0  0  0  0  0  0  0  0  0  0
   62.5760   31.3990   48.0920 C   0  0  0  0  0  0  0  0  0  0  0  0
   63.3570   32.0640   47.1410 C   0  0  0  0  0  0  0  0  0  0  0  0
   63.6060   33.4320   47.2750 C   0  0  0  0  0  0  0  0  0  0  0  0
   63.0670   34.1400   48.3560 C   0  0  0  0  0  0  0  0  0  0  0  0
   59.3850   33.8910   48.9280 N   0  0  0  0  0  0  0  0  0  0  0  0
   59.1070   33.6610   47.5320 C   0  0  0  0  0  0  0  0  0  0  0  0
   58.9350   34.7640   46.6830 C   0  0  0  0  0  0  0  0  0  0  0  0
   58.6490   34.5790   45.3310 C   0  0  0  0  0  0  0  0  0  0  0  0
   58.5200   33.2900   44.8110 C   0  0  0  0  0  0  0  0  0  0  0  0
   58.6620   32.1670   45.6460 C   0  0  0  0  0  0  0  0  0  0  0  0
   58.5120   30.7960   45.0910 C   0  0  0  0  0  0  0  0  0  0  0  0
   59.5290   29.8380   45.2520 C   0  0  0  0  0  0  0  0  0  0  0  0
   59.3950   28.5580   44.7050 C   0  0  0  0  0  0  0  0  0  0  0  0
   58.2430   28.2130   43.9760 C   0  0  0  0  0  0  0  0  0  0  0  0
   58.0990   26.8580   43.3970 C   0  0  0  0  0  0  0  0  0  0  0  0
   58.3350   26.6940   42.1650 O   0  0  0  0  0  0  0  0  0  0  0  0
   57.7690   25.7150   44.2120 N   0  0  0  0  0  0  0  0  0  0  0  0
   58.3770   25.5930   45.5440 C   0  0  0  0  0  0  0  0  0  0  0  0
   57.9610   24.2910   46.2430 C   0  0  0  0  0  0  0  0  0  0  0  0
   56.4400   24.0830   46.1720 C   0  0  0  0  0  0  0  0  0  0  0  0
   55.8680   24.2330   44.7310 C   0  0  2  0  0  0  0  0  0  0  0  0
   55.1480   22.9890   44.2930 C   0  0  0  0  0  0  0  0  0  0  0  0
   55.6460   22.2550   43.4010 O   0  0  0  0  0  0  0  0  0  0  0  0
   53.9400   22.6330   44.8800 O   0  0  0  0  0  0  0  0  0  0  0  0
   56.9370   24.6190   43.6920 C   0  0  0  0  0  0  0  0  0  0  0  0
   57.2150   29.1580   43.8390 C   0  0  0  0  0  0  0  0  0  0  0  0
   57.3500   30.4380   44.3860 C   0  0  0  0  0  0  0  0  0  0  0  0
   58.9430   32.3610   47.0110 C   0  0  0  0  0  0  0  0  0  0  0  0
   59.0988   32.2367   53.6748 H   0  0  0  0  0  0  0  0  0  0  0  0
   61.0710   31.7152   55.1073 H   0  0  0  0  0  0  0  0  0  0  0  0
   63.3664   32.3471   54.3537 H   0  0  0  0  0  0  0  0  0  0  0  0
   63.6864   33.4793   52.1517 H   0  0  0  0  0  0  0  0  0  0  0  0
   61.4408   31.5692   49.9322 H   0  0  0  0  0  0  0  0  0  0  0  0
   62.3792   30.3222   47.9840 H   0  0  0  0  0  0  0  0  0  0  0  0
   63.7750   31.5098   46.2877 H   0  0  0  0  0  0  0  0  0  0  0  0
   64.2259   33.9533   46.5308 H   0  0  0  0  0  0  0  0  0  0  0  0
   63.2603   35.2183   48.4556 H   0  0  0  0  0  0  0  0  0  0  0  0
   60.0500   34.6570   49.1810 H   0  0  0  0  0  0  0  0  0  0  0  0
   59.0265   35.7830   47.0869 H   0  0  0  0  0  0  0  0  0  0  0  0
   58.5247   35.4512   44.6723 H   0  0  0  0  0  0  0  0  0  0  0  0
   58.3058   33.1515   43.7410 H   0  0  0  0  0  0  0  0  0  0  0  0
   60.4384   30.0980   45.8135 H   0  0  0  0  0  0  0  0  0  0  0  0
   60.1954   27.8167   44.8458 H   0  0  0  0  0  0  0  0  0  0  0  0
   59.4718   25.6064   45.4383 H   0  0  0  0  0  0  0  0  0  0  0  0
   58.0289   26.4370   46.1576 H   0  0  0  0  0  0  0  0  0  0  0  0
   58.4622   23.4441   45.7516 H   0  0  0  0  0  0  0  0  0  0  0  0
   58.2546   24.3548   47.3012 H   0  0  0  0  0  0  0  0  0  0  0  0
   56.2078   23.0716   46.5370 H   0  0  0  0  0  0  0  0  0  0  0  0
   55.9736   24.8627   46.7922 H   0  0  0  0  0  0  0  0  0  0  0  0
   55.1494   25.0643   44.7817 H   0  0  0  0  0  0  0  0  0  0  0  0
   57.5731   23.7465   43.4819 H   0  0  0  0  0  0  0  0  0  0  0  0
   56.4405   24.9489   42.7675 H   0  0  0  0  0  0  0  0  0  0  0  0
   56.2959   28.8901   43.2973 H   0  0  0  0  0  0  0  0  0  0  0  0
   56.5393   31.1713   44.2634 H   0  0  0  0  0  0  0  0  0  0  0  0
   59.0356   31.4909   47.6776 H   0  0  0  0  0  0  0  0  0  0  0  0
  1  2  2  0
  2  3  1  0
  3  4  1  0
  4  5  2  0
  5  6  1  0
  6  7  2  0
  7  8  1  0
  8  9  2  0
  9 10  1  0
 10 11  1  0
 11 12  2  0
 12 13  1  0
 13 14  2  0
 14 15  1  0
 15 16  2  0
  2 17  1  0
 17 18  1  0
 18 19  2  0
 19 20  1  0
 20 21  2  0
 21 22  1  0
 22 23  1  0
 23 24  2  0
 24 25  1  0
 25 26  2  0
 26 27  1  0
 27 28  2  0
 27 29  1  0
 29 30  1  0
 30 31  1  0
 31 32  1  0
 32 33  1  0
 33 34  1  0
 34 35  2  0
 34 36  1  0
 33 37  1  0
 26 38  1  0
 38 39  2  0
 22 40  2  0
  9  4  1  0
 16 11  1  0
 40 18  1  0
 39 23  1  0
 37 29  1  0
  5 41  1  0
  6 42  1  0
  7 43  1  0
  8 44  1  0
 12 45  1  0
 13 46  1  0
 14 47  1  0
 15 48  1  0
 16 49  1  0
 17 50  1  0
 19 51  1  0
 20 52  1  0
 21 53  1  0
 24 54  1  0
 25 55  1  0
 30 56  1  0
 30 57  1  0
 31 58  1  0
 31 59  1  0
 32 60  1  0
 32 61  1  0
 33 62  1  1
 37 63  1  0
 37 64  1  0
 38 65  1  0
 39 66  1  0
 40 67  1  0
M  CHG  2   3  -1  36  -1
M  END
>  <UniqueID>  (83) 
76

>  <SMILES>  (83) 
O=C([N-]c1ccccc1Oc1ccccc1)Nc1cccc(-c2ccc(C(=O)N3CCC[C@H](C(=O)[O-])C3)cc2)c1

>  <Energy>  (83) 
99.88643572650368

>  <Genealogy>  (83) 
O=C([N-]c1ccccc1Oc1ccccc1)Nc1cccc(-c2ccc(C(=O)N3CCCC(C(=O)[O-])C3)cc2)c1 (protonated)
O=C([N-]c1ccccc1Oc1ccccc1)Nc1cccc(-c2ccc(C(=O)N3CCC[C@H](C(=O)[O-])C3)cc2)c1 (chirality)
O=C([N-]c1ccccc1Oc1ccccc1)Nc1cccc(-c2ccc(C(=O)N3CCC[C@H](C(=O)[O-])C3)cc2)c1 (3D coordinates assigned)
O=C([N-]c1ccccc1Oc1ccccc1)Nc1cccc(-c2ccc(C(=O)N3CCC[C@H](C(=O)[O-])C3)cc2)c1 (nonaromatic ring conformer: 99.88643572650368 kcal/mol)

>  <smiles>  (83) 
O=C(Nc1cccc(-c2ccc(C(=O)N3CCCC(C(=O)O)C3)cc2)c1)Nc1ccccc1Oc1ccccc1

>  <score_type>  (83) 
oracle

>  <origin>  (83) 
adg

>  <m_score__min__energy>  (83) 
-15.33

>  <m_primary>  (83) 
energy

$$$$
83:0
     RDKit          3D

 53 56  0  0  0  0  0  0  0  0999 V2000
   58.1850   30.4930   47.7710 H   0  0  0  0  0  0  0  0  0  0  0  0
   58.7670   30.2080   48.5500 O   0  0  0  0  0  0  0  0  0  0  0  0
   58.6900   30.8370   49.7930 C   0  0  0  0  0  0  0  0  0  0  0  0
   58.1550   30.1420   50.8880 C   0  0  0  0  0  0  0  0  0  0  0  0
   57.7583   29.1259   50.7458 H   0  0  0  0  0  0  0  0  0  0  0  0
   58.1200   30.7300   52.1670 C   0  0  0  0  0  0  0  0  0  0  0  0
   57.5590   30.0370   53.3520 C   0  0  0  0  0  0  0  0  0  0  0  0
   58.1904   29.2967   53.8650 H   0  0  0  0  0  0  0  0  0  0  0  0
   56.3270   30.2590   53.8360 C   0  0  0  0  0  0  0  0  0  0  0  0
   56.2152   30.9139   54.7127 H   0  0  0  0  0  0  0  0  0  0  0  0
   55.1140   29.6600   53.2400 C   0  0  0  0  0  0  0  0  0  0  0  0
   55.0940   28.4130   53.0530 O   0  0  0  0  0  0  0  0  0  0  0  0
   53.9280   30.4570   52.8500 C   0  0  0  0  0  0  0  0  0  0  0  0
   53.8310   30.9470   51.5360 C   0  0  0  0  0  0  0  0  0  0  0  0
   54.6339   30.7378   50.8138 H   0  0  0  0  0  0  0  0  0  0  0  0
   52.7210   31.6980   51.1420 C   0  0  0  0  0  0  0  0  0  0  0  0
   52.6578   32.0869   50.1150 H   0  0  0  0  0  0  0  0  0  0  0  0
   51.6910   31.9560   52.0500 C   0  0  0  0  0  0  0  0  0  0  0  0
   50.5890   32.7050   51.6550 O   0  0  0  0  0  0  0  0  0  0  0  0
   51.7660   31.4550   53.3520 C   0  0  0  0  0  0  0  0  0  0  0  0
   50.9522   31.6565   54.0641 H   0  0  0  0  0  0  0  0  0  0  0  0
   52.8720   30.6980   53.7540 C   0  0  0  0  0  0  0  0  0  0  0  0
   52.9040   30.1750   55.0430 O   0  0  0  0  0  0  0  0  0  0  0  0
   58.6120   32.0330   52.3250 C   0  0  0  0  0  0  0  0  0  0  0  0
   58.5810   32.5095   53.3160 H   0  0  0  0  0  0  0  0  0  0  0  0
   59.1410   32.7330   51.2390 C   0  0  0  0  0  0  0  0  0  0  0  0
   59.5403   33.7473   51.3866 H   0  0  0  0  0  0  0  0  0  0  0  0
   59.1680   32.1550   49.9620 C   0  0  0  0  0  0  0  0  0  0  0  0
   59.7400   32.9450   48.8480 C   0  0  0  0  0  0  0  0  0  0  0  0
   60.7771   33.3016   48.9335 H   0  0  0  0  0  0  0  0  0  0  0  0
   59.0480   33.2440   47.7400 C   0  0  0  0  0  0  0  0  0  0  0  0
   58.7538   34.2904   47.5711 H   0  0  0  0  0  0  0  0  0  0  0  0
   58.6630   32.2340   46.7370 C   0  0  0  0  0  0  0  0  0  0  0  0
   57.3900   32.0490   46.3390 N   0  0  0  0  0  0  0  0  0  0  0  0
   57.3690   31.0810   45.4360 N   0  0  0  0  0  0  0  0  0  0  0  0
   58.6280   30.6310   45.2660 C   0  0  0  0  0  0  0  0  0  0  0  0
   59.0410   29.5980   44.2960 C   0  0  0  0  0  0  0  0  0  0  0  0
   59.0960   29.8914   43.2373 H   0  0  0  0  0  0  0  0  0  0  0  0
   59.3550   28.3290   44.6020 C   0  0  0  0  0  0  0  0  0  0  0  0
   60.3282   27.9513   44.2552 H   0  0  0  0  0  0  0  0  0  0  0  0
   58.5000   27.4000   45.3660 C   0  0  0  0  0  0  0  0  0  0  0  0
   59.0950   26.4820   46.2460 C   0  0  0  0  0  0  0  0  0  0  0  0
   60.1908   26.4386   46.3323 H   0  0  0  0  0  0  0  0  0  0  0  0
   58.3030   25.6230   47.0130 C   0  0  0  0  0  0  0  0  0  0  0  0
   58.7767   24.8958   47.6889 H   0  0  0  0  0  0  0  0  0  0  0  0
   56.9090   25.6870   46.9220 C   0  0  0  0  0  0  0  0  0  0  0  0
   56.2869   25.0033   47.5183 H   0  0  0  0  0  0  0  0  0  0  0  0
   56.3060   26.6200   46.0730 C   0  0  0  0  0  0  0  0  0  0  0  0
   54.9210   26.6950   45.9960 O   0  0  0  0  0  0  0  0  0  0  0  0
   57.0970   27.4810   45.3040 C   0  0  0  0  0  0  0  0  0  0  0  0
   56.6197   28.2242   44.6484 H   0  0  0  0  0  0  0  0  0  0  0  0
   59.4890   31.3500   46.0660 C   0  0  0  0  0  0  0  0  0  0  0  0
   60.5807   31.2454   46.1514 H   0  0  0  0  0  0  0  0  0  0  0  0
  1  2  1  0
  2  3  1  0
  3  4  2  0
  4  5  1  0
  4  6  1  0
  6  7  1  0
  7  8  1  0
  7  9  2  0
  9 10  1  0
  9 11  1  0
 11 12  2  0
 11 13  1  0
 13 14  2  0
 14 15  1  0
 14 16  1  0
 16 17  1  0
 16 18  2  0
 18 19  1  0
 18 20  1  0
 20 21  1  0
 20 22  2  0
 22 23  1  0
  6 24  2  0
 24 25  1  0
 24 26  1  0
 26 27  1  0
 26 28  2  0
 28 29  1  0
 29 30  1  0
 29 31  2  0
 31 32  1  0
 31 33  1  0
 33 34  1  0
 34 35  1  0
 35 36  2  0
 36 37  1  0
 37 38  1  0
 37 39  2  3
 39 40  1  0
 39 41  1  0
 41 42  2  0
 42 43  1  0
 42 44  1  0
 44 45  1  0
 44 46  2  0
 46 47  1  0
 46 48  1  0
 48 49  1  0
 48 50  2  0
 50 51  1  0
 36 52  1  0
 52 53  1  0
 28  3  1  0
 52 33  2  0
 22 13  1  0
 50 41  1  0
M  CHG  4  19  -1  23  -1  34  -1  49  -1
M  END
>  <UniqueID>  (84) 
77

>  <SMILES>  (84) 
O=C(/C=C/c1ccc(/C=C/c2cc(C=Cc3cccc([O-])c3)n[n-]2)c(O)c1)c1ccc([O-])cc1[O-]

>  <Energy>  (84) 
107.53598502184262

>  <Genealogy>  (84) 
O=C(C=Cc1ccc(C=Cc2cc(C=Cc3cccc([O-])c3)n[n-]2)c(O)c1)c1ccc([O-])cc1[O-] (protonated)
O=C(/C=C/c1ccc(/C=C/c2cc(C=Cc3cccc([O-])c3)n[n-]2)c(O)c1)c1ccc([O-])cc1[O-] (cis-trans isomerization)
O=C(/C=C/c1ccc(/C=C/c2cc(C=Cc3cccc([O-])c3)n[n-]2)c(O)c1)c1ccc([O-])cc1[O-] (3D coordinates assigned)
O=C(/C=C/c1ccc(/C=C/c2cc(C=Cc3cccc([O-])c3)n[n-]2)c(O)c1)c1ccc([O-])cc1[O-] (optimized conformer: 107.53598502184262 kcal/mol)

>  <smiles>  (84) 
O=C(C=Cc1ccc(C=Cc2cc(C=Cc3cccc(O)c3)n[nH]2)c(O)c1)c1ccc(O)cc1O

>  <score_type>  (84) 
oracle

>  <origin>  (84) 
adg

>  <m_score__min__energy>  (84) 
-21.859999999999999

>  <m_primary>  (84) 
energy

$$$$
84:0
     RDKit          3D

 55 58  0  0  0  0  0  0  0  0999 V2000
   58.1200   27.5280   45.1130 O   0  0  0  0  0  0  0  0  0  0  0  0
   58.2280   26.4370   45.7360 C   0  0  0  0  0  0  0  0  0  0  0  0
   59.4690   26.0930   46.3720 N   0  0  0  0  0  0  0  0  0  0  0  0
   60.6390   26.9680   46.3290 C   0  0  0  0  0  0  0  0  0  0  0  0
   60.2740   28.3620   46.7640 C   0  0  0  0  0  0  0  0  0  0  0  0
   59.4630   28.5590   47.8910 C   0  0  0  0  0  0  0  0  0  0  0  0
   59.1020   29.8510   48.2860 C   0  0  0  0  0  0  0  0  0  0  0  0
   59.5690   30.9650   47.5730 C   0  0  0  0  0  0  0  0  0  0  0  0
   59.2160   32.3620   48.0160 C   0  0  0  0  0  0  0  0  0  0  0  0
   57.9780   32.8100   47.3760 N   0  0  0  0  0  0  0  0  0  0  0  0
   58.2710   33.3690   45.7550 S   0  0  0  0  0  0  0  0  0  0  0  0
   57.5140   34.6480   45.5340 O   0  0  0  0  0  0  0  0  0  0  0  0
   59.7380   33.6500   45.5800 O   0  0  0  0  0  0  0  0  0  0  0  0
   57.7320   32.1800   44.5700 C   0  0  0  0  0  0  0  0  0  0  0  0
   57.7550   32.4980   43.2050 C   0  0  0  0  0  0  0  0  0  0  0  0
   57.2880   31.5780   42.2610 C   0  0  0  0  0  0  0  0  0  0  0  0
   56.7970   30.3370   42.6750 C   0  0  0  0  0  0  0  0  0  0  0  0
   56.7760   30.0130   44.0360 C   0  0  0  0  0  0  0  0  0  0  0  0
   57.2420   30.9310   44.9820 C   0  0  0  0  0  0  0  0  0  0  0  0
   60.3750   30.7690   46.4370 C   0  0  0  0  0  0  0  0  0  0  0  0
   60.7280   29.4770   46.0370 C   0  0  0  0  0  0  0  0  0  0  0  0
   57.0560   25.5370   45.8380 C   0  0  0  0  0  0  0  0  0  0  0  0
   55.7550   26.0570   45.7820 C   0  0  0  0  0  0  0  0  0  0  0  0
   55.5380   27.4240   45.6320 O   0  0  0  0  0  0  0  0  0  0  0  0
   54.6900   25.2280   45.8970 N   0  0  0  0  0  0  0  0  0  0  0  0
   54.8440   23.8920   46.0620 C   0  0  0  0  0  0  0  0  0  0  0  0
   53.8150   23.1730   46.1910 O   0  0  0  0  0  0  0  0  0  0  0  0
   56.0980   23.3390   46.1000 N   0  0  0  0  0  0  0  0  0  0  0  0
   56.2540   21.9100   46.2460 C   0  0  0  0  0  0  0  0  0  0  0  0
   56.1220   21.0620   45.1340 C   0  0  0  0  0  0  0  0  0  0  0  0
   56.2700   19.6790   45.2800 C   0  0  0  0  0  0  0  0  0  0  0  0
   56.5540   19.1340   46.5350 C   0  0  0  0  0  0  0  0  0  0  0  0
   56.6890   19.9700   47.6460 C   0  0  0  0  0  0  0  0  0  0  0  0
   56.5370   21.3540   47.5050 C   0  0  0  0  0  0  0  0  0  0  0  0
   57.2040   24.1440   45.9820 C   0  0  0  0  0  0  0  0  0  0  0  0
   58.3590   23.6340   45.9670 O   0  0  0  0  0  0  0  0  0  0  0  0
   59.5310   25.2150   46.9360 H   0  0  0  0  0  0  0  0  0  0  0  0
   61.4129   26.5702   47.0020 H   0  0  0  0  0  0  0  0  0  0  0  0
   61.0158   27.0059   45.2963 H   0  0  0  0  0  0  0  0  0  0  0  0
   59.1087   27.6920   48.4678 H   0  0  0  0  0  0  0  0  0  0  0  0
   58.4490   29.9943   49.1596 H   0  0  0  0  0  0  0  0  0  0  0  0
   59.0822   32.3717   49.1078 H   0  0  0  0  0  0  0  0  0  0  0  0
   60.0306   33.0418   47.7255 H   0  0  0  0  0  0  0  0  0  0  0  0
   58.1414   33.4738   42.8755 H   0  0  0  0  0  0  0  0  0  0  0  0
   57.3072   31.8317   41.1908 H   0  0  0  0  0  0  0  0  0  0  0  0
   56.4273   29.6154   41.9316 H   0  0  0  0  0  0  0  0  0  0  0  0
   56.3924   29.0350   44.3621 H   0  0  0  0  0  0  0  0  0  0  0  0
   57.2246   30.6738   46.0514 H   0  0  0  0  0  0  0  0  0  0  0  0
   60.7292   31.6365   45.8607 H   0  0  0  0  0  0  0  0  0  0  0  0
   61.3630   29.3319   45.1506 H   0  0  0  0  0  0  0  0  0  0  0  0
   55.9012   21.4876   44.1440 H   0  0  0  0  0  0  0  0  0  0  0  0
   56.1627   19.0196   44.4061 H   0  0  0  0  0  0  0  0  0  0  0  0
   56.6713   18.0461   46.6481 H   0  0  0  0  0  0  0  0  0  0  0  0
   56.9151   19.5399   48.6329 H   0  0  0  0  0  0  0  0  0  0  0  0
   56.6394   22.0089   48.3829 H   0  0  0  0  0  0  0  0  0  0  0  0
  1  2  2  0
  2  3  1  0
  3  4  1  0
  4  5  1  0
  5  6  2  0
  6  7  1  0
  7  8  2  0
  8  9  1  0
  9 10  1  0
 10 11  1  0
 11 12  2  0
 11 13  2  0
 11 14  1  0
 14 15  2  0
 15 16  1  0
 16 17  2  0
 17 18  1  0
 18 19  2  0
  8 20  1  0
 20 21  2  0
  2 22  1  0
 22 23  2  0
 23 24  1  0
 23 25  1  0
 25 26  1  0
 26 27  2  0
 26 28  1  0
 28 29  1  0
 29 30  2  0
 30 31  1  0
 31 32  2  0
 32 33  1  0
 33 34  2  0
 28 35  1  0
 35 36  2  0
 21  5  1  0
 35 22  1  0
 19 14  1  0
 34 29  1  0
  3 37  1  0
  4 38  1  0
  4 39  1  0
  6 40  1  0
  7 41  1  0
  9 42  1  0
  9 43  1  0
 15 44  1  0
 16 45  1  0
 17 46  1  0
 18 47  1  0
 19 48  1  0
 20 49  1  0
 21 50  1  0
 30 51  1  0
 31 52  1  0
 32 53  1  0
 33 54  1  0
 34 55  1  0
M  CHG  3  10  -1  24  -1  25  -1
M  END
>  <UniqueID>  (85) 
78

>  <SMILES>  (85) 
O=C(NCc1ccc(C[N-]S(=O)(=O)c2ccccc2)cc1)c1c([O-])[n-]c(=O)n(-c2ccccc2)c1=O

>  <Energy>  (85) 
70.24043260519987

>  <Genealogy>  (85) 
O=C(NCc1ccc(C[N-]S(=O)(=O)c2ccccc2)cc1)c1c([O-])[n-]c(=O)n(-c2ccccc2)c1=O (protonated)
O=C(NCc1ccc(C[N-]S(=O)(=O)c2ccccc2)cc1)c1c([O-])[n-]c(=O)n(-c2ccccc2)c1=O (3D coordinates assigned)
O=C(NCc1ccc(C[N-]S(=O)(=O)c2ccccc2)cc1)c1c([O-])[n-]c(=O)n(-c2ccccc2)c1=O (optimized conformer: 70.24043260519987 kcal/mol)

>  <smiles>  (85) 
O=C(NCc1ccc(CNS(=O)(=O)c2ccccc2)cc1)c1c(O)[nH]c(=O)n(-c2ccccc2)c1=O

>  <score_type>  (85) 
oracle

>  <origin>  (85) 
adg

>  <m_score__min__energy>  (85) 
-14.539999999999999

>  <m_primary>  (85) 
energy

$$$$
85:0
     RDKit          3D

 66 69  0  0  0  0  0  0  0  0999 V2000
   54.6120   31.1650   51.2830 C   0  0  0  0  0  0  0  0  0  0  0  0
   54.5010   30.1550   52.1740 C   0  0  0  0  0  0  0  0  0  0  0  0
   55.6750   29.4990   52.6110 C   0  0  0  0  0  0  0  0  0  0  0  0
   57.0240   30.0240   52.3710 C   0  0  0  0  0  0  0  0  0  0  0  0
   57.8890   29.2900   51.8230 O   0  0  0  0  0  0  0  0  0  0  0  0
   57.3620   31.3420   52.8160 N   0  0  0  0  0  0  0  0  0  0  0  0
   58.7240   31.7490   53.1390 C   0  0  0  0  0  0  0  0  0  0  0  0
   59.4420   32.1260   51.8810 C   0  0  0  0  0  0  0  0  0  0  0  0
   59.7970   31.2420   50.8680 C   0  0  0  0  0  0  0  0  0  0  0  0
   60.2080   31.8830   49.6930 C   0  0  0  0  0  0  0  0  0  0  0  0
   60.1660   33.2700   49.7820 C   0  0  0  0  0  0  0  0  0  0  0  0
   60.3490   34.2270   48.6450 C   0  0  0  0  0  0  0  0  0  0  0  0
   59.5630   33.7780   47.4800 N   0  0  0  0  0  0  0  0  0  0  0  0
   59.5260   34.7990   46.4200 C   0  0  0  0  0  0  0  0  0  0  0  0
   58.9780   34.1740   45.1290 C   0  0  0  0  0  0  0  0  0  0  0  0
   57.9710   33.1170   45.3800 N   0  0  0  0  0  0  0  0  0  0  0  0
   58.3740   31.7520   44.9760 C   0  0  0  0  0  0  0  0  0  0  0  0
   57.6050   31.2080   43.7680 C   0  0  0  0  0  0  0  0  0  0  0  0
   57.2550   33.2110   46.6700 C   0  0  0  0  0  0  0  0  0  0  0  0
   58.1900   33.4210   47.8830 C   0  0  0  0  0  0  0  0  0  0  0  0
   59.6120   33.6990   51.3110 S   0  0  0  0  0  0  0  0  0  0  0  0
   55.5890   28.2960   53.2190 N   0  0  0  0  0  0  0  0  0  0  0  0
   54.4180   27.6670   53.4660 C   0  0  0  0  0  0  0  0  0  0  0  0
   54.4930   26.3140   54.1180 C   0  0  0  0  0  0  0  0  0  0  0  0
   53.1930   28.3090   53.1570 C   0  0  0  0  0  0  0  0  0  0  0  0
   51.8800   27.6000   53.4910 C   0  0  0  0  0  0  0  0  0  0  0  0
   51.3470   28.0550   54.8480 C   0  0  0  0  0  0  0  0  0  0  0  0
   53.2280   29.6180   52.5660 C   0  0  0  0  0  0  0  0  0  0  0  0
   52.0660   30.3160   52.4090 C   0  0  0  0  0  0  0  0  0  0  0  0
   51.5140   30.7660   51.1130 C   0  0  0  0  0  0  0  0  0  0  0  0
   51.4920   30.0300   49.9860 N   0  0  0  0  0  0  0  0  0  0  0  0
   51.0130   30.8880   49.0610 C   0  0  0  0  0  0  0  0  0  0  0  0
   50.8330   30.5590   47.8590 O   0  0  0  0  0  0  0  0  0  0  0  0
   50.7470   32.1290   49.5220 N   0  0  0  0  0  0  0  0  0  0  0  0
   51.0820   32.0370   50.8180 C   0  0  0  0  0  0  0  0  0  0  0  0
   50.9910   33.0920   51.7160 O   0  0  0  0  0  0  0  0  0  0  0  0
   53.7113   31.6886   50.9301 H   0  0  0  0  0  0  0  0  0  0  0  0
   55.6031   31.4635   50.9107 H   0  0  0  0  0  0  0  0  0  0  0  0
   58.6972   32.6130   53.8192 H   0  0  0  0  0  0  0  0  0  0  0  0
   59.2506   30.9155   53.6268 H   0  0  0  0  0  0  0  0  0  0  0  0
   59.7587   30.1483   50.9787 H   0  0  0  0  0  0  0  0  0  0  0  0
   60.5315   31.3437   48.7905 H   0  0  0  0  0  0  0  0  0  0  0  0
   60.0084   35.2270   48.9514 H   0  0  0  0  0  0  0  0  0  0  0  0
   61.4137   34.2649   48.3710 H   0  0  0  0  0  0  0  0  0  0  0  0
   58.8740   35.6283   46.7318 H   0  0  0  0  0  0  0  0  0  0  0  0
   60.5423   35.1801   46.2412 H   0  0  0  0  0  0  0  0  0  0  0  0
   58.5111   34.9670   44.5263 H   0  0  0  0  0  0  0  0  0  0  0  0
   59.8241   33.7049   44.6055 H   0  0  0  0  0  0  0  0  0  0  0  0
   59.4451   31.7671   44.7261 H   0  0  0  0  0  0  0  0  0  0  0  0
   58.1465   31.0887   45.8235 H   0  0  0  0  0  0  0  0  0  0  0  0
   56.7533   30.6055   44.1166 H   0  0  0  0  0  0  0  0  0  0  0  0
   57.2361   32.0472   43.1600 H   0  0  0  0  0  0  0  0  0  0  0  0
   58.2735   30.5807   43.1600 H   0  0  0  0  0  0  0  0  0  0  0  0
   56.5561   34.0589   46.6188 H   0  0  0  0  0  0  0  0  0  0  0  0
   56.7387   32.2518   46.8230 H   0  0  0  0  0  0  0  0  0  0  0  0
   57.7831   34.2308   48.5065 H   0  0  0  0  0  0  0  0  0  0  0  0
   58.2393   32.4717   48.4365 H   0  0  0  0  0  0  0  0  0  0  0  0
   54.4864   26.4331   55.2115 H   0  0  0  0  0  0  0  0  0  0  0  0
   53.6270   25.7099   53.8097 H   0  0  0  0  0  0  0  0  0  0  0  0
   55.4205   25.8093   53.8097 H   0  0  0  0  0  0  0  0  0  0  0  0
   51.1365   27.8338   52.7148 H   0  0  0  0  0  0  0  0  0  0  0  0
   52.0650   26.5164   53.5305 H   0  0  0  0  0  0  0  0  0  0  0  0
   51.9199   27.5660   55.6497 H   0  0  0  0  0  0  0  0  0  0  0  0
   51.4517   29.1465   54.9359 H   0  0  0  0  0  0  0  0  0  0  0  0
   50.2855   27.7803   54.9359 H   0  0  0  0  0  0  0  0  0  0  0  0
   51.4958   30.5630   53.3167 H   0  0  0  0  0  0  0  0  0  0  0  0
  1  2  2  0
  2  3  1  0
  3  4  1  0
  4  5  2  0
  4  6  1  0
  6  7  1  0
  7  8  1  0
  8  9  2  0
  9 10  1  0
 10 11  2  0
 11 12  1  0
 12 13  1  0
 13 14  1  0
 14 15  1  0
 15 16  1  0
 16 17  1  0
 17 18  1  0
 16 19  1  0
 19 20  1  0
 11 21  1  0
  3 22  2  0
 22 23  1  0
 23 24  1  0
 23 25  2  0
 25 26  1  0
 26 27  1  0
 25 28  1  0
 28 29  2  3
 29 30  1  0
 30 31  1  0
 31 32  1  0
 32 33  2  0
 32 34  1  0
 34 35  1  0
 35 36  1  0
 28  2  1  0
 35 30  2  0
 21  8  1  0
 20 13  1  0
  1 37  1  0
  1 38  1  0
  7 39  1  0
  7 40  1  0
  9 41  1  0
 10 42  1  0
 12 43  1  0
 12 44  1  0
 14 45  1  0
 14 46  1  0
 15 47  1  0
 15 48  1  0
 17 49  1  0
 17 50  1  0
 18 51  1  0
 18 52  1  0
 18 53  1  0
 19 54  1  0
 19 55  1  0
 20 56  1  0
 20 57  1  0
 24 58  1  0
 24 59  1  0
 24 60  1  0
 26 61  1  0
 26 62  1  0
 27 63  1  0
 27 64  1  0
 27 65  1  0
 29 66  1  0
M  CHG  4   6  -1  31  -1  34  -1  36  -1
M  END
>  <UniqueID>  (86) 
79

>  <SMILES>  (86) 
C=c1c(C(=O)[N-]Cc2ccc(CN3CCN(CC)CC3)s2)nc(C)c(CC)c1=Cc1[n-]c(=O)[n-]c1[O-]

>  <Energy>  (86) 
166.80232328630527

>  <Genealogy>  (86) 
C=c1c(C(=O)[N-]Cc2ccc(CN3CCN(CC)CC3)s2)nc(C)c(CC)c1=Cc1[n-]c(=O)[n-]c1[O-] (protonated)
C=c1c(C(=O)[N-]Cc2ccc(CN3CCN(CC)CC3)s2)nc(C)c(CC)c1=Cc1[n-]c(=O)[n-]c1[O-] (3D coordinates assigned)
C=c1c(C(=O)[N-]Cc2ccc(CN3CCN(CC)CC3)s2)nc(C)c(CC)c1=Cc1[n-]c(=O)[n-]c1[O-] (nonaromatic ring conformer: 166.80232328630527 kcal/mol)

>  <smiles>  (86) 
C=c1c(C(=O)NCc2ccc(CN3CCN(CC)CC3)s2)nc(C)c(CC)c1=Cc1[nH]c(=O)[nH]c1O

>  <score_type>  (86) 
oracle

>  <origin>  (86) 
adg

>  <m_score__min__energy>  (86) 
-19.010000000000002

>  <m_primary>  (86) 
energy

$$$$
86:0
     RDKit          3D

 39 41  0  0  0  0  0  0  0  0999 V2000
   55.5120   29.7610   43.1090 O   0  0  0  0  0  0  0  0  0  0  0  0
   55.9630   30.0750   44.2410 C   0  0  0  0  0  0  0  0  0  0  0  0
   56.2770   31.4430   44.5090 N   0  0  0  0  0  0  0  0  0  0  0  0
   57.4360   32.1150   43.9310 C   0  0  0  0  0  0  0  0  0  0  0  0
   58.1720   32.9680   44.9450 C   0  0  0  0  0  0  0  0  0  0  0  0
   58.7050   34.2280   44.5960 C   0  0  0  0  0  0  0  0  0  0  0  0
   59.3840   35.0020   45.5400 C   0  0  0  0  0  0  0  0  0  0  0  0
   59.5330   34.5400   46.8460 C   0  0  0  0  0  0  0  0  0  0  0  0
   58.9940   33.3080   47.2170 C   0  0  0  0  0  0  0  0  0  0  0  0
   58.3050   32.5230   46.2850 C   0  0  0  0  0  0  0  0  0  0  0  0
   57.7630   31.3130   46.7240 O   0  0  0  0  0  0  0  0  0  0  0  0
   56.1120   29.0890   45.2720 N   0  0  0  0  0  0  0  0  0  0  0  0
   57.2270   28.2040   45.4560 C   0  0  0  0  0  0  0  0  0  0  0  0
   58.4800   28.6580   45.8910 C   0  0  0  0  0  0  0  0  0  0  0  0
   59.5170   27.7490   46.0900 C   0  0  0  0  0  0  0  0  0  0  0  0
   59.2940   26.3910   45.8620 C   0  0  0  0  0  0  0  0  0  0  0  0
   58.0680   25.9500   45.4460 N   0  0  0  0  0  0  0  0  0  0  0  0
   57.8380   24.5130   45.2580 C   0  0  0  0  0  0  0  0  0  0  0  0
   57.0280   23.9720   46.3920 C   0  0  0  0  0  0  0  0  0  0  0  0
   57.4100   22.9030   47.1220 N   0  0  0  0  0  0  0  0  0  0  0  0
   56.3890   22.7180   47.9760 C   0  0  0  0  0  0  0  0  0  0  0  0
   55.4190   23.6630   47.7370 C   0  0  0  0  0  0  0  0  0  0  0  0
   55.8150   24.4580   46.7280 N   0  0  0  0  0  0  0  0  0  0  0  0
   57.0390   26.8310   45.2610 C   0  0  0  0  0  0  0  0  0  0  0  0
   58.1277   31.3540   43.5405 H   0  0  0  0  0  0  0  0  0  0  0  0
   57.0756   32.7789   43.1314 H   0  0  0  0  0  0  0  0  0  0  0  0
   58.5842   34.6043   43.5694 H   0  0  0  0  0  0  0  0  0  0  0  0
   59.8018   35.9779   45.2518 H   0  0  0  0  0  0  0  0  0  0  0  0
   60.0761   35.1472   47.5851 H   0  0  0  0  0  0  0  0  0  0  0  0
   59.1114   32.9504   48.2506 H   0  0  0  0  0  0  0  0  0  0  0  0
   57.0170   30.8290   46.2410 H   0  0  0  0  0  0  0  0  0  0  0  0
   58.6442   29.7300   46.0749 H   0  0  0  0  0  0  0  0  0  0  0  0
   60.5045   28.0997   46.4245 H   0  0  0  0  0  0  0  0  0  0  0  0
   60.1098   25.6698   46.0179 H   0  0  0  0  0  0  0  0  0  0  0  0
   57.2968   24.3512   44.3141 H   0  0  0  0  0  0  0  0  0  0  0  0
   58.8070   23.9934   45.2264 H   0  0  0  0  0  0  0  0  0  0  0  0
   56.3373   21.9337   48.7455 H   0  0  0  0  0  0  0  0  0  0  0  0
   54.4694   23.7539   48.2848 H   0  0  0  0  0  0  0  0  0  0  0  0
   56.0512   26.4560   44.9551 H   0  0  0  0  0  0  0  0  0  0  0  0
  1  2  2  0
  2  3  1  0
  3  4  1  0
  4  5  1  0
  5  6  2  0
  6  7  1  0
  7  8  2  0
  8  9  1  0
  9 10  2  0
 10 11  1  0
  2 12  1  0
 12 13  1  0
 13 14  2  0
 14 15  1  0
 15 16  2  0
 16 17  1  0
 17 18  1  0
 18 19  1  0
 19 20  2  0
 20 21  1  0
 21 22  2  0
 22 23  1  0
 17 24  2  0
 10  5  1  0
 24 13  1  0
 23 19  1  0
  4 25  1  0
  4 26  1  0
  6 27  1  0
  7 28  1  0
  8 29  1  0
  9 30  1  0
 11 31  1  0
 14 32  1  0
 15 33  1  0
 16 34  1  0
 18 35  1  0
 18 36  1  0
 21 37  1  0
 22 38  1  0
 24 39  1  0
M  CHG  4   3  -1  12  -1  17   1  23  -1
M  END
>  <UniqueID>  (87) 
80

>  <SMILES>  (87) 
O=C([N-]Cc1ccccc1O)[N-]c1ccc[n+](Cc2ncc[n-]2)c1

>  <Energy>  (87) 
71.99746913121251

>  <Genealogy>  (87) 
O=C([N-]Cc1ccccc1O)[N-]c1ccc[n+](Cc2ncc[n-]2)c1 (protonated)
O=C([N-]Cc1ccccc1O)[N-]c1ccc[n+](Cc2ncc[n-]2)c1 (3D coordinates assigned)
O=C([N-]Cc1ccccc1O)[N-]c1ccc[n+](Cc2ncc[n-]2)c1 (optimized conformer: 71.99746913121251 kcal/mol)

>  <smiles>  (87) 
O=C(NCc1ccccc1O)Nc1ccc[n+](Cc2ncc[nH]2)c1

>  <score_type>  (87) 
oracle

>  <origin>  (87) 
adg

>  <m_score__min__energy>  (87) 
-10.970000000000001

>  <m_primary>  (87) 
energy

$$$$
87:0
     RDKit          3D

 58 61  0  0  0  0  0  0  0  0999 V2000
   60.6720   29.7180   48.7180 C   0  0  0  0  0  0  0  0  0  0  0  0
   60.6730   28.6760   47.7470 O   0  0  0  0  0  0  0  0  0  0  0  0
   59.6770   28.4950   46.7760 C   0  0  0  0  0  0  0  0  0  0  0  0
   59.0320   29.5750   46.1470 C   0  0  0  0  0  0  0  0  0  0  0  0
   58.0300   29.3480   45.1890 C   0  0  0  0  0  0  0  0  0  0  0  0
   57.3520   30.4940   44.5340 C   0  0  0  0  0  0  0  0  0  0  0  0
   56.9970   30.3920   43.3300 O   0  0  0  0  0  0  0  0  0  0  0  0
   57.0280   31.7010   45.2430 N   0  0  0  0  0  0  0  0  0  0  0  0
   57.8430   32.6830   45.5050 C   0  0  0  0  0  0  0  0  0  0  0  0
   58.6620   32.6100   46.6380 C   0  0  0  0  0  0  0  0  0  0  0  0
   59.5430   33.6620   46.9280 C   0  0  0  0  0  0  0  0  0  0  0  0
   60.4220   33.5960   48.1490 C   0  0  0  0  0  0  0  0  0  0  0  0
   61.7540   34.1840   47.8710 N   0  0  0  0  0  0  0  0  0  0  0  0
   62.4480   33.5160   46.7500 C   0  0  0  0  0  0  0  0  0  0  0  0
   62.9580   32.1070   47.1370 C   0  0  0  0  0  0  0  0  0  0  0  0
   62.9520   31.8780   48.5350 O   0  0  0  0  0  0  0  0  0  0  0  0
   63.5200   32.9820   49.2060 C   0  0  0  0  0  0  0  0  0  0  0  0
   62.6150   34.2240   49.0760 C   0  0  0  0  0  0  0  0  0  0  0  0
   59.5780   34.7790   46.0810 C   0  0  0  0  0  0  0  0  0  0  0  0
   58.7370   34.8230   44.9690 C   0  0  0  0  0  0  0  0  0  0  0  0
   57.8950   33.7890   44.7100 N   0  0  0  0  0  0  0  0  0  0  0  0
   57.7030   28.0280   44.8390 C   0  0  0  0  0  0  0  0  0  0  0  0
   58.3270   26.9400   45.4690 C   0  0  0  0  0  0  0  0  0  0  0  0
   57.9360   25.5490   45.1270 C   0  0  0  0  0  0  0  0  0  0  0  0
   57.4090   25.2460   43.8600 C   0  0  0  0  0  0  0  0  0  0  0  0
   57.0450   23.9360   43.5390 C   0  0  0  0  0  0  0  0  0  0  0  0
   57.2090   22.8970   44.4710 C   0  0  0  0  0  0  0  0  0  0  0  0
   56.8230   21.5190   44.0940 C   0  0  0  0  0  0  0  0  0  0  0  0
   57.3650   20.3830   44.7730 N   0  0  0  0  0  0  0  0  0  0  0  0
   56.0270   21.3360   43.1340 O   0  0  0  0  0  0  0  0  0  0  0  0
   57.7170   23.2030   45.7510 C   0  0  0  0  0  0  0  0  0  0  0  0
   57.8370   22.2200   46.7270 O   0  0  0  0  0  0  0  0  0  0  0  0
   58.0830   24.5140   46.0670 C   0  0  0  0  0  0  0  0  0  0  0  0
   59.3160   27.1870   46.4350 C   0  0  0  0  0  0  0  0  0  0  0  0
   60.6724   29.2792   49.7267 H   0  0  0  0  0  0  0  0  0  0  0  0
   61.5695   30.3406   48.5886 H   0  0  0  0  0  0  0  0  0  0  0  0
   59.7733   30.3389   48.5886 H   0  0  0  0  0  0  0  0  0  0  0  0
   59.3144   30.6058   46.4073 H   0  0  0  0  0  0  0  0  0  0  0  0
   58.6147   31.7313   47.2980 H   0  0  0  0  0  0  0  0  0  0  0  0
   59.9448   34.1548   48.9675 H   0  0  0  0  0  0  0  0  0  0  0  0
   60.5542   32.5412   48.4317 H   0  0  0  0  0  0  0  0  0  0  0  0
   61.7486   33.4206   45.9064 H   0  0  0  0  0  0  0  0  0  0  0  0
   63.3201   34.1289   46.4784 H   0  0  0  0  0  0  0  0  0  0  0  0
   62.3124   31.3570   46.6567 H   0  0  0  0  0  0  0  0  0  0  0  0
   64.0013   32.0311   46.7969 H   0  0  0  0  0  0  0  0  0  0  0  0
   63.6416   32.7338   50.2707 H   0  0  0  0  0  0  0  0  0  0  0  0
   64.4965   33.2071   48.7524 H   0  0  0  0  0  0  0  0  0  0  0  0
   61.9713   34.2844   49.9659 H   0  0  0  0  0  0  0  0  0  0  0  0
   63.2702   35.1029   48.9856 H   0  0  0  0  0  0  0  0  0  0  0  0
   60.2629   35.6136   46.2917 H   0  0  0  0  0  0  0  0  0  0  0  0
   58.7557   35.6965   44.3007 H   0  0  0  0  0  0  0  0  0  0  0  0
   56.9477   27.8442   44.0607 H   0  0  0  0  0  0  0  0  0  0  0  0
   57.2822   26.0460   43.1157 H   0  0  0  0  0  0  0  0  0  0  0  0
   56.6256   23.7154   42.5463 H   0  0  0  0  0  0  0  0  0  0  0  0
   57.0390   19.4230   44.5270 H   0  0  0  0  0  0  0  0  0  0  0  0
   58.1560   20.4810   45.4470 H   0  0  0  0  0  0  0  0  0  0  0  0
   58.4911   24.7390   47.0634 H   0  0  0  0  0  0  0  0  0  0  0  0
   59.8137   26.3403   46.9304 H   0  0  0  0  0  0  0  0  0  0  0  0
  1  2  1  0
  2  3  1  0
  3  4  2  0
  4  5  1  0
  5  6  1  0
  6  7  2  0
  6  8  1  0
  8  9  2  3
  9 10  1  0
 10 11  2  0
 11 12  1  0
 12 13  1  0
 13 14  1  0
 14 15  1  0
 15 16  1  0
 16 17  1  0
 17 18  1  0
 11 19  1  0
 19 20  2  0
 20 21  1  0
  5 22  2  0
 22 23  1  0
 23 24  1  0
 24 25  2  0
 25 26  1  0
 26 27  2  0
 27 28  1  0
 28 29  1  0
 28 30  2  0
 27 31  1  0
 31 32  1  0
 31 33  2  0
 23 34  2  0
 34  3  1  0
 21  9  1  0
 33 24  1  0
 18 13  1  0
  1 35  1  0
  1 36  1  0
  1 37  1  0
  4 38  1  0
 10 39  1  0
 12 40  1  0
 12 41  1  0
 14 42  1  0
 14 43  1  0
 15 44  1  0
 15 45  1  0
 17 46  1  0
 17 47  1  0
 18 48  1  0
 18 49  1  0
 19 50  1  0
 20 51  1  0
 22 52  1  0
 25 53  1  0
 26 54  1  0
 29 55  1  0
 29 56  1  0
 33 57  1  0
 34 58  1  0
M  CHG  2  21  -1  32  -1
M  END
>  <UniqueID>  (88) 
81

>  <SMILES>  (88) 
COc1cc(C(=O)N=c2cc(CN3CCOCC3)cc[n-]2)cc(-c2ccc(C(N)=O)c([O-])c2)c1

>  <Energy>  (88) 
89.45437100437377

>  <Genealogy>  (88) 
COc1cc(C(=O)N=c2cc(CN3CCOCC3)cc[n-]2)cc(-c2ccc(C(N)=O)c([O-])c2)c1 (protonated)
COc1cc(C(=O)N=c2cc(CN3CCOCC3)cc[n-]2)cc(-c2ccc(C(N)=O)c([O-])c2)c1 (3D coordinates assigned)
COc1cc(C(=O)N=c2cc(CN3CCOCC3)cc[n-]2)cc(-c2ccc(C(N)=O)c([O-])c2)c1 (nonaromatic ring conformer: 89.45437100437377 kcal/mol)

>  <smiles>  (88) 
COc1cc(C(=O)N=c2cc(CN3CCOCC3)cc[nH]2)cc(-c2ccc(C(N)=O)c(O)c2)c1

>  <score_type>  (88) 
oracle

>  <origin>  (88) 
adg

>  <m_score__min__energy>  (88) 
-13.18

>  <m_primary>  (88) 
energy

$$$$
88:0
     RDKit          3D

 44 46  0  0  0  0  0  0  0  0999 V2000
   55.1070   23.3220   43.4670 C   0  0  0  0  0  0  0  0  0  0  0  0
   55.8350   24.1260   44.5020 C   0  0  0  0  0  0  0  0  0  0  0  0
   57.2350   24.0990   44.5680 C   0  0  0  0  0  0  0  0  0  0  0  0
   57.9020   24.8240   45.5570 C   0  0  0  0  0  0  0  0  0  0  0  0
   57.1630   25.5620   46.4880 C   0  0  0  0  0  0  0  0  0  0  0  0
   57.7810   26.2180   47.4230 N   0  0  0  0  0  0  0  0  0  0  0  0
   58.7190   27.6520   47.1400 S   0  0  0  0  0  0  0  0  0  0  0  0
   60.1490   27.2580   46.8990 O   0  0  0  0  0  0  0  0  0  0  0  0
   58.6450   28.5350   48.3540 O   0  0  0  0  0  0  0  0  0  0  0  0
   58.0880   28.5340   45.7510 C   0  0  0  0  0  0  0  0  0  0  0  0
   57.9150   27.8830   44.5240 C   0  0  0  0  0  0  0  0  0  0  0  0
   57.3970   28.5790   43.4290 C   0  0  0  0  0  0  0  0  0  0  0  0
   57.0310   29.9210   43.5600 C   0  0  0  0  0  0  0  0  0  0  0  0
   57.1780   30.5780   44.7860 C   0  0  0  0  0  0  0  0  0  0  0  0
   56.7710   31.9510   44.8840 N   0  0  0  0  0  0  0  0  0  0  0  0
   57.5460   33.1010   44.5210 C   0  0  0  0  0  0  0  0  0  0  0  0
   58.1070   33.1770   43.3950 O   0  0  0  0  0  0  0  0  0  0  0  0
   57.7900   34.1710   45.5370 C   0  0  0  0  0  0  0  0  0  0  0  0
   58.8400   33.7190   46.5130 C   0  0  0  0  0  0  0  0  0  0  0  0
   58.4660   33.1810   47.7560 C   0  0  0  0  0  0  0  0  0  0  0  0
   59.4420   32.8050   48.6820 C   0  0  0  0  0  0  0  0  0  0  0  0
   60.7970   32.9690   48.3780 C   0  0  0  0  0  0  0  0  0  0  0  0
   61.1790   33.5140   47.1470 C   0  0  0  0  0  0  0  0  0  0  0  0
   63.0310   33.7510   46.7420 Br  0  0  0  0  0  0  0  0  0  0  0  0
   60.2030   33.8920   46.2190 C   0  0  0  0  0  0  0  0  0  0  0  0
   57.7450   29.8880   45.8730 C   0  0  0  0  0  0  0  0  0  0  0  0
   55.8000   25.5650   46.4140 N   0  0  0  0  0  0  0  0  0  0  0  0
   55.1290   24.8700   45.4580 C   0  0  0  0  0  0  0  0  0  0  0  0
   54.4484   22.5946   43.9642 H   0  0  0  0  0  0  0  0  0  0  0  0
   54.5035   23.9936   42.8387 H   0  0  0  0  0  0  0  0  0  0  0  0
   55.8350   22.7879   42.8387 H   0  0  0  0  0  0  0  0  0  0  0  0
   57.8083   23.5062   43.8401 H   0  0  0  0  0  0  0  0  0  0  0  0
   59.0010   24.8151   45.6040 H   0  0  0  0  0  0  0  0  0  0  0  0
   58.1872   26.8221   44.4218 H   0  0  0  0  0  0  0  0  0  0  0  0
   57.2770   28.0693   42.4616 H   0  0  0  0  0  0  0  0  0  0  0  0
   56.6249   30.4640   42.6939 H   0  0  0  0  0  0  0  0  0  0  0  0
   58.1328   35.0847   45.0294 H   0  0  0  0  0  0  0  0  0  0  0  0
   56.8552   34.3757   46.0794 H   0  0  0  0  0  0  0  0  0  0  0  0
   57.4010   33.0555   48.0008 H   0  0  0  0  0  0  0  0  0  0  0  0
   59.1442   32.3793   49.6516 H   0  0  0  0  0  0  0  0  0  0  0  0
   61.5637   32.6692   49.1075 H   0  0  0  0  0  0  0  0  0  0  0  0
   60.5040   34.3268   45.2544 H   0  0  0  0  0  0  0  0  0  0  0  0
   57.9201   30.4134   46.8234 H   0  0  0  0  0  0  0  0  0  0  0  0
   54.0295   24.8912   45.4342 H   0  0  0  0  0  0  0  0  0  0  0  0
  1  2  1  0
  2  3  1  0
  3  4  2  0
  4  5  1  0
  5  6  2  3
  6  7  1  0
  7  8  2  0
  7  9  2  0
  7 10  1  0
 10 11  2  0
 11 12  1  0
 12 13  2  0
 13 14  1  0
 14 15  1  0
 15 16  1  0
 16 17  2  0
 16 18  1  0
 18 19  1  0
 19 20  2  0
 20 21  1  0
 21 22  2  0
 22 23  1  0
 23 24  1  0
 23 25  2  0
 14 26  2  0
  5 27  1  0
 27 28  1  0
 28  2  2  0
 26 10  1  0
 25 19  1  0
  1 29  1  0
  1 30  1  0
  1 31  1  0
  3 32  1  0
  4 33  1  0
 11 34  1  0
 12 35  1  0
 13 36  1  0
 18 37  1  0
 18 38  1  0
 20 39  1  0
 21 40  1  0
 22 41  1  0
 25 42  1  0
 26 43  1  0
 28 44  1  0
M  CHG  2  15  -1  27  -1
M  END
>  <UniqueID>  (89) 
82

>  <SMILES>  (89) 
Cc1ccc(=NS(=O)(=O)c2cccc([N-]C(=O)Cc3cccc(Br)c3)c2)[n-]c1

>  <Energy>  (89) 
49.79399391397089

>  <Genealogy>  (89) 
Cc1ccc(=NS(=O)(=O)c2cccc([N-]C(=O)Cc3cccc(Br)c3)c2)[n-]c1 (protonated)
Cc1ccc(=NS(=O)(=O)c2cccc([N-]C(=O)Cc3cccc(Br)c3)c2)[n-]c1 (3D coordinates assigned)
Cc1ccc(=NS(=O)(=O)c2cccc([N-]C(=O)Cc3cccc(Br)c3)c2)[n-]c1 (optimized conformer: 49.79399391397089 kcal/mol)

>  <smiles>  (89) 
Cc1ccc(=NS(=O)(=O)c2cccc(NC(=O)Cc3cccc(Br)c3)c2)[nH]c1

>  <score_type>  (89) 
oracle

>  <origin>  (89) 
adg

>  <m_score__min__energy>  (89) 
-12.26

>  <m_primary>  (89) 
energy

$$$$
89:0
     RDKit          3D

 55 57  0  0  0  0  0  0  0  0999 V2000
   58.0420   25.8140   47.4610 O   0  0  0  0  0  0  0  0  0  0  0  0
   59.0390   26.2970   46.8590 C   0  0  0  0  0  0  0  0  0  0  0  0
   58.8900   26.7940   45.4540 C   0  0  0  0  0  0  0  0  0  0  0  0
   57.7260   27.7780   45.3490 C   0  0  0  0  0  0  0  0  0  0  0  0
   57.6180   28.2840   43.9760 N   0  0  0  0  0  0  0  0  0  0  0  0
   56.5340   29.6400   43.9270 S   0  0  0  0  0  0  0  0  0  0  0  0
   55.3680   29.3840   44.8410 O   0  0  0  0  0  0  0  0  0  0  0  0
   56.0280   29.8250   42.5240 O   0  0  0  0  0  0  0  0  0  0  0  0
   57.4000   31.0910   44.4240 C   0  0  0  0  0  0  0  0  0  0  0  0
   57.7560   31.2600   45.7710 C   0  0  0  0  0  0  0  0  0  0  0  0
   58.4170   32.4220   46.1820 C   0  0  0  0  0  0  0  0  0  0  0  0
   58.7260   33.4190   45.2500 C   0  0  0  0  0  0  0  0  0  0  0  0
   59.6290   35.0050   45.8150 Br  0  0  0  0  0  0  0  0  0  0  0  0
   58.3750   33.2530   43.9070 C   0  0  0  0  0  0  0  0  0  0  0  0
   57.7140   32.0920   43.4920 C   0  0  0  0  0  0  0  0  0  0  0  0
   60.2940   26.4430   47.5320 N   0  0  0  0  0  0  0  0  0  0  0  0
   60.4220   26.8790   48.9170 C   0  0  0  0  0  0  0  0  0  0  0  0
   60.4460   28.3830   48.9910 C   0  0  0  0  0  0  0  0  0  0  0  0
   60.9790   29.0230   50.1220 C   0  0  0  0  0  0  0  0  0  0  0  0
   60.9490   30.4150   50.2230 C   0  0  0  0  0  0  0  0  0  0  0  0
   60.3850   31.1870   49.1970 C   0  0  0  0  0  0  0  0  0  0  0  0
   60.2960   32.9430   49.3520 S   0  0  0  0  0  0  0  0  0  0  0  0
   58.9620   33.4200   48.8460 O   0  0  0  0  0  0  0  0  0  0  0  0
   60.4030   33.3170   50.8060 O   0  0  0  0  0  0  0  0  0  0  0  0
   61.5750   33.7340   48.4570 N   0  0  0  0  0  0  0  0  0  0  0  0
   62.6700   34.1800   49.3460 C   0  0  0  0  0  0  0  0  0  0  0  0
   63.9010   33.2590   49.2530 C   0  0  0  0  0  0  0  0  0  0  0  0
   64.4360   33.1610   47.9390 O   0  0  0  0  0  0  0  0  0  0  0  0
   63.4580   33.2750   46.9120 C   0  0  0  0  0  0  0  0  0  0  0  0
   62.0420   32.8720   47.3530 C   0  0  0  0  0  0  0  0  0  0  0  0
   59.8750   30.5500   48.0570 C   0  0  0  0  0  0  0  0  0  0  0  0
   59.9010   29.1560   47.9560 C   0  0  0  0  0  0  0  0  0  0  0  0
   59.8184   27.2993   45.1495 H   0  0  0  0  0  0  0  0  0  0  0  0
   58.6881   25.9364   44.7954 H   0  0  0  0  0  0  0  0  0  0  0  0
   56.7913   27.2670   45.6233 H   0  0  0  0  0  0  0  0  0  0  0  0
   57.9044   28.6220   46.0315 H   0  0  0  0  0  0  0  0  0  0  0  0
   57.2040   27.5310   43.3790 H   0  0  0  0  0  0  0  0  0  0  0  0
   57.5147   30.4770   46.5049 H   0  0  0  0  0  0  0  0  0  0  0  0
   58.6941   32.5523   47.2385 H   0  0  0  0  0  0  0  0  0  0  0  0
   58.6191   34.0370   43.1750 H   0  0  0  0  0  0  0  0  0  0  0  0
   57.4402   31.9637   42.4344 H   0  0  0  0  0  0  0  0  0  0  0  0
   59.5674   26.5007   49.4971 H   0  0  0  0  0  0  0  0  0  0  0  0
   61.3620   26.4852   49.3309 H   0  0  0  0  0  0  0  0  0  0  0  0
   61.4220   28.4247   50.9318 H   0  0  0  0  0  0  0  0  0  0  0  0
   61.3697   30.9086   51.1115 H   0  0  0  0  0  0  0  0  0  0  0  0
   62.9670   35.1996   49.0594 H   0  0  0  0  0  0  0  0  0  0  0  0
   62.3004   34.1492   50.3816 H   0  0  0  0  0  0  0  0  0  0  0  0
   64.6826   33.6535   49.9190 H   0  0  0  0  0  0  0  0  0  0  0  0
   63.5744   32.2504   49.5463 H   0  0  0  0  0  0  0  0  0  0  0  0
   63.4309   34.3215   46.5742 H   0  0  0  0  0  0  0  0  0  0  0  0
   63.7530   32.5804   46.1117 H   0  0  0  0  0  0  0  0  0  0  0  0
   61.3552   32.9739   46.4998 H   0  0  0  0  0  0  0  0  0  0  0  0
   62.0634   31.8293   47.7027 H   0  0  0  0  0  0  0  0  0  0  0  0
   59.4522   31.1502   47.2378 H   0  0  0  0  0  0  0  0  0  0  0  0
   59.4924   28.6637   47.0612 H   0  0  0  0  0  0  0  0  0  0  0  0
  1  2  2  0
  2  3  1  0
  3  4  1  0
  4  5  1  0
  5  6  1  0
  6  7  2  0
  6  8  2  0
  6  9  1  0
  9 10  2  0
 10 11  1  0
 11 12  2  0
 12 13  1  0
 12 14  1  0
 14 15  2  0
  2 16  1  0
 16 17  1  0
 17 18  1  0
 18 19  2  0
 19 20  1  0
 20 21  2  0
 21 22  1  0
 22 23  2  0
 22 24  2  0
 22 25  1  0
 25 26  1  0
 26 27  1  0
 27 28  1  0
 28 29  1  0
 29 30  1  0
 21 31  1  0
 31 32  2  0
 15  9  1  0
 32 18  1  0
 30 25  1  0
  3 33  1  0
  3 34  1  0
  4 35  1  0
  4 36  1  0
  5 37  1  0
 10 38  1  0
 11 39  1  0
 14 40  1  0
 15 41  1  0
 17 42  1  0
 17 43  1  0
 19 44  1  0
 20 45  1  0
 26 46  1  0
 26 47  1  0
 27 48  1  0
 27 49  1  0
 29 50  1  0
 29 51  1  0
 30 52  1  0
 30 53  1  0
 31 54  1  0
 32 55  1  0
M  CHG  1  16  -1
M  END
>  <UniqueID>  (90) 
83

>  <SMILES>  (90) 
O=C(CCNS(=O)(=O)c1ccc(Br)cc1)[N-]Cc1ccc(S(=O)(=O)N2CCOCC2)cc1

>  <Energy>  (90) 
58.255534831803296

>  <Genealogy>  (90) 
O=C(CCNS(=O)(=O)c1ccc(Br)cc1)[N-]Cc1ccc(S(=O)(=O)N2CCOCC2)cc1 (protonated)
O=C(CCNS(=O)(=O)c1ccc(Br)cc1)[N-]Cc1ccc(S(=O)(=O)N2CCOCC2)cc1 (3D coordinates assigned)
O=C(CCNS(=O)(=O)c1ccc(Br)cc1)[N-]Cc1ccc(S(=O)(=O)N2CCOCC2)cc1 (nonaromatic ring conformer: 58.255534831803296 kcal/mol)

>  <smiles>  (90) 
O=C(CCNS(=O)(=O)c1ccc(Br)cc1)NCc1ccc(S(=O)(=O)N2CCOCC2)cc1

>  <score_type>  (90) 
oracle

>  <origin>  (90) 
adg

>  <m_score__min__energy>  (90) 
-11.83

>  <m_primary>  (90) 
energy

$$$$
90:0
     RDKit          3D

 58 61  0  0  1  0  0  0  0  0999 V2000
   60.6860   26.9510   46.2160 C   0  0  0  0  0  0  0  0  0  0  0  0
   60.6170   27.8660   47.3900 C   0  0  0  0  0  0  0  0  0  0  0  0
   59.9920   27.1380   48.5570 C   0  0  0  0  0  0  0  0  0  0  0  0
   59.7340   29.3680   47.0350 S   0  0  0  0  0  0  0  0  0  0  0  0
   58.3780   29.2670   47.7060 O   0  0  0  0  0  0  0  0  0  0  0  0
   59.4880   29.4040   45.5630 O   0  0  0  0  0  0  0  0  0  0  0  0
   60.5740   30.7910   47.5830 C   0  0  0  0  0  0  0  0  0  0  0  0
   61.8810   30.6920   48.0730 C   0  0  0  0  0  0  0  0  0  0  0  0
   62.5750   31.7990   48.5210 C   0  0  0  0  0  0  0  0  0  0  0  0
   61.9810   33.0510   48.4950 C   0  0  0  0  0  0  0  0  0  0  0  0
   60.6930   33.1650   48.0150 C   0  0  0  0  0  0  0  0  0  0  0  0
   59.9710   32.0560   47.5550 C   0  0  0  0  0  0  0  0  0  0  0  0
   56.6290   30.0120   43.6970 N   0  0  0  0  0  0  0  0  0  0  0  0
   57.2300   31.0510   44.1170 C   0  0  0  0  0  0  0  0  0  0  0  0
   57.6290   31.0970   45.4060 N   0  0  0  0  0  0  0  0  0  0  0  0
   58.2700   32.1910   45.8730 C   0  0  0  0  0  0  0  0  0  0  0  0
   58.6400   32.2140   47.0970 N   0  0  0  0  0  0  0  0  0  0  0  0
   57.0360   28.6850   44.0130 C   0  0  0  0  0  0  0  0  0  0  0  0
   57.7390   27.8850   43.1340 C   0  0  0  0  0  0  0  0  0  0  0  0
   58.1390   26.6000   43.4310 C   0  0  0  0  0  0  0  0  0  0  0  0
   57.8360   26.0600   44.6660 C   0  0  0  0  0  0  0  0  0  0  0  0
   57.1370   26.8240   45.5700 C   0  0  0  0  0  0  0  0  0  0  0  0
   56.7330   28.1270   45.2620 C   0  0  0  0  0  0  0  0  0  0  0  0
   56.9480   26.0000   46.8120 C   0  0  0  0  0  0  0  0  0  0  0  0
   58.0220   24.9430   46.6500 C   0  0  0  0  0  0  0  0  0  0  0  0
   58.1330   24.7740   45.2110 N   0  0  0  0  0  0  0  0  0  0  0  0
   58.4720   23.5650   44.5070 C   0  0  0  0  0  0  0  0  0  0  0  0
   59.5060   22.8250   45.2740 C   0  0  0  0  0  0  0  0  0  0  0  0
   60.6090   23.3550   45.6140 O   0  0  0  0  0  0  0  0  0  0  0  0
   59.2860   21.5080   45.6420 O   0  0  0  0  0  0  0  0  0  0  0  0
   57.4650   32.0790   43.2970 N   0  0  0  0  0  0  0  0  0  0  0  0
   58.1050   33.1780   43.7460 C   0  0  0  0  0  0  0  0  0  0  0  0
   58.5280   33.2640   45.0540 C   0  0  0  0  0  0  0  0  0  0  0  0
   59.3510   34.6860   45.5780 Cl  0  0  0  0  0  0  0  0  0  0  0  0
   60.7644   25.9110   46.5658 H   0  0  0  0  0  0  0  0  0  0  0  0
   59.7767   27.0657   45.6078 H   0  0  0  0  0  0  0  0  0  0  0  0
   61.5679   27.2008   45.6078 H   0  0  0  0  0  0  0  0  0  0  0  0
   61.6443   28.1647   47.6458 H   0  0  0  0  0  0  0  0  0  0  0  0
   60.3621   27.5691   49.4989 H   0  0  0  0  0  0  0  0  0  0  0  0
   58.8979   27.2424   48.5109 H   0  0  0  0  0  0  0  0  0  0  0  0
   60.2609   26.0724   48.5109 H   0  0  0  0  0  0  0  0  0  0  0  0
   62.3686   29.7064   48.1022 H   0  0  0  0  0  0  0  0  0  0  0  0
   63.6017   31.6867   48.8994 H   0  0  0  0  0  0  0  0  0  0  0  0
   62.5267   33.9374   48.8506 H   0  0  0  0  0  0  0  0  0  0  0  0
   60.2182   34.1570   47.9927 H   0  0  0  0  0  0  0  0  0  0  0  0
   57.4540   30.3100   46.0520 H   0  0  0  0  0  0  0  0  0  0  0  0
   57.9930   28.2947   42.1452 H   0  0  0  0  0  0  0  0  0  0  0  0
   58.6959   26.0082   42.6896 H   0  0  0  0  0  0  0  0  0  0  0  0
   56.1746   28.7167   46.0040 H   0  0  0  0  0  0  0  0  0  0  0  0
   57.1106   26.6003   47.7193 H   0  0  0  0  0  0  0  0  0  0  0  0
   55.9334   25.5902   46.9243 H   0  0  0  0  0  0  0  0  0  0  0  0
   58.9756   25.2853   47.0784 H   0  0  0  0  0  0  0  0  0  0  0  0
   57.7754   24.0051   47.1692 H   0  0  0  0  0  0  0  0  0  0  0  0
   57.5746   22.9379   44.4001 H   0  0  0  0  0  0  0  0  0  0  0  0
   58.8618   23.8160   43.5095 H   0  0  0  0  0  0  0  0  0  0  0  0
   59.3800   20.7280   45.0120 H   0  0  0  0  0  0  0  0  0  0  0  0
   57.1560   32.0420   42.3060 H   0  0  0  0  0  0  0  0  0  0  0  0
   58.2916   34.0164   43.0588 H   0  0  0  0  0  0  0  0  0  0  0  0
  1  2  1  0
  2  3  1  0
  2  4  1  0
  4  5  2  0
  4  6  2  0
  4  7  1  0
  7  8  2  0
  8  9  1  0
  9 10  2  0
 10 11  1  0
 11 12  2  0
 12 13  1  0
 13 14  2  0
 14 15  1  0
 15 16  1  0
 16 17  2  0
 17 18  1  0
 18 19  2  0
 19 20  1  0
 20 21  2  0
 21 22  1  0
 22 23  2  0
 22 24  1  0
 24 25  1  0
 25 26  1  0
 26 27  1  0
 27 28  1  0
 28 29  2  0
 28 30  1  0
 16 31  1  0
 31 32  1  0
 32 33  2  0
 33 34  1  0
 12  7  1  0
 33 14  1  0
 23 18  1  0
 26 21  1  0
  1 35  1  0
  1 36  1  0
  1 37  1  0
  2 38  1  0
  3 39  1  0
  3 40  1  0
  3 41  1  0
  8 42  1  0
  9 43  1  0
 10 44  1  0
 11 45  1  0
 15 46  1  0
 19 47  1  0
 20 48  1  0
 23 49  1  0
 24 50  1  0
 24 51  1  0
 25 52  1  0
 25 53  1  0
 27 54  1  0
 27 55  1  0
 30 56  1  0
 31 57  1  0
 32 58  1  0
M  END
>  <smiles>  (91) 
CC(C)S(=O)(=O)c1ccccc1N=c1[nH]c(=Nc2ccc3c(c2)CCN3CC(=O)O)[nH]cc1Cl

>  <score_type>  (91) 
oracle

>  <origin>  (91) 
adg

>  <m_score__min__energy>  (91) 
-10.779999999999999

>  <m_primary>  (91) 
energy

$$$$
91:0
     RDKit          3D

 41 42  0  0  0  0  0  0  0  0999 V2000
   56.9450   30.8600   43.1030 C   0  0  0  0  0  0  0  0  0  0  0  0
   56.5330   29.6380   43.4530 C   0  0  0  0  0  0  0  0  0  0  0  0
   55.9980   29.3510   44.8280 C   0  0  0  0  0  0  0  0  0  0  0  0
   56.9100   28.4000   45.5760 C   0  0  0  0  0  0  0  0  0  0  0  0
   56.4340   27.1380   45.9960 C   0  0  0  0  0  0  0  0  0  0  0  0
   55.1440   26.7220   45.6870 O   0  0  0  0  0  0  0  0  0  0  0  0
   57.2570   26.2880   46.7420 C   0  0  0  0  0  0  0  0  0  0  0  0
   58.5470   26.6850   47.0940 C   0  0  0  0  0  0  0  0  0  0  0  0
   59.3540   25.8400   47.8440 O   0  0  0  0  0  0  0  0  0  0  0  0
   59.0260   27.9330   46.6930 C   0  0  0  0  0  0  0  0  0  0  0  0
   58.2250   28.7870   45.9270 C   0  0  0  0  0  0  0  0  0  0  0  0
   58.7400   30.0330   45.5520 O   0  0  0  0  0  0  0  0  0  0  0  0
   59.2800   30.9580   46.4950 C   0  0  1  0  0  0  0  0  0  0  0  0
   60.6910   30.9310   46.3690 O   0  0  0  0  0  0  0  0  0  0  0  0
   61.3510   31.8120   47.2690 C   0  0  2  0  0  0  0  0  0  0  0  0
   61.4230   31.2610   48.7110 C   0  0  0  0  0  0  0  0  0  0  0  0
   60.9090   29.9630   48.8070 O   0  0  0  0  0  0  0  0  0  0  0  0
   60.8730   33.2820   47.1480 C   0  0  1  0  0  0  0  0  0  0  0  0
   61.3740   33.8180   45.9470 O   0  0  0  0  0  0  0  0  0  0  0  0
   59.3330   33.3880   47.1610 C   0  0  1  0  0  0  0  0  0  0  0  0
   58.9240   34.6790   46.7890 O   0  0  0  0  0  0  0  0  0  0  0  0
   58.7280   32.3650   46.1910 C   0  0  2  0  0  0  0  0  0  0  0  0
   57.3240   32.3850   46.2640 O   0  0  0  0  0  0  0  0  0  0  0  0
   57.3320   31.0406   42.0893 H   0  0  0  0  0  0  0  0  0  0  0  0
   56.8972   31.6854   43.8286 H   0  0  0  0  0  0  0  0  0  0  0  0
   56.5867   28.8223   42.7170 H   0  0  0  0  0  0  0  0  0  0  0  0
   55.9230   30.2941   45.3892 H   0  0  0  0  0  0  0  0  0  0  0  0
   55.0076   28.8827   44.7288 H   0  0  0  0  0  0  0  0  0  0  0  0
   56.8848   25.3007   47.0529 H   0  0  0  0  0  0  0  0  0  0  0  0
   60.0400   28.2473   46.9811 H   0  0  0  0  0  0  0  0  0  0  0  0
   58.9980   30.6913   47.5242 H   0  0  0  0  0  0  0  0  0  0  0  0
   62.4021   31.8526   46.9474 H   0  0  0  0  0  0  0  0  0  0  0  0
   62.4744   31.2505   49.0342 H   0  0  0  0  0  0  0  0  0  0  0  0
   60.8135   31.9140   49.3529 H   0  0  0  0  0  0  0  0  0  0  0  0
   60.8280   29.6270   47.8760 H   0  0  0  0  0  0  0  0  0  0  0  0
   61.2496   33.8453   48.0145 H   0  0  0  0  0  0  0  0  0  0  0  0
   60.6070   34.2230   45.4640 H   0  0  0  0  0  0  0  0  0  0  0  0
   58.9811   33.1808   48.1824 H   0  0  0  0  0  0  0  0  0  0  0  0
   59.7310   35.1470   46.4490 H   0  0  0  0  0  0  0  0  0  0  0  0
   59.0148   32.6349   45.1639 H   0  0  0  0  0  0  0  0  0  0  0  0
   57.0070   31.4440   46.2760 H   0  0  0  0  0  0  0  0  0  0  0  0
  1  2  2  0
  2  3  1  0
  3  4  1  0
  4  5  2  0
  5  6  1  0
  5  7  1  0
  7  8  2  0
  8  9  1  0
  8 10  1  0
 10 11  2  0
 11 12  1  0
 12 13  1  0
 13 14  1  0
 14 15  1  0
 15 16  1  0
 16 17  1  0
 15 18  1  0
 18 19  1  0
 18 20  1  0
 20 21  1  0
 20 22  1  0
 22 23  1  0
 11  4  1  0
 22 13  1  0
  1 24  1  0
  1 25  1  0
  2 26  1  0
  3 27  1  0
  3 28  1  0
  7 29  1  0
 10 30  1  0
 13 31  1  1
 15 32  1  6
 16 33  1  0
 16 34  1  0
 17 35  1  0
 18 36  1  1
 19 37  1  0
 20 38  1  1
 21 39  1  0
 22 40  1  6
 23 41  1  0
M  CHG  2   6  -1   9  -1
M  END
>  <UniqueID>  (92) 
84

>  <SMILES>  (92) 
C=CCc1c([O-])cc([O-])cc1O[C@H]1O[C@H](CO)C(O)C(O)C1O

>  <Energy>  (92) 
52.32361052280985

>  <Genealogy>  (92) 
C=CCc1c([O-])cc([O-])cc1OC1OC(CO)C(O)C(O)C1O (protonated)
C=CCc1c([O-])cc([O-])cc1O[C@H]1O[C@H](CO)C(O)C(O)C1O (chirality)
C=CCc1c([O-])cc([O-])cc1O[C@H]1O[C@H](CO)C(O)C(O)C1O (3D coordinates assigned)
C=CCc1c([O-])cc([O-])cc1O[C@H]1O[C@H](CO)C(O)C(O)C1O (nonaromatic ring conformer: 52.32361052280985 kcal/mol)

>  <smiles>  (92) 
C=CCc1c(O)cc(O)cc1OC1OC(CO)C(O)C(O)C1O

>  <score_type>  (92) 
oracle

>  <origin>  (92) 
adg

>  <m_score__min__energy>  (92) 
-9.6199999999999992

>  <m_primary>  (92) 
energy

$$$$
92:0
     RDKit          3D

 69 73  0  0  1  0  0  0  0  0999 V2000
   60.3910   32.5080   49.9670 O   0  0  0  0  0  0  0  0  0  0  0  0
   59.9480   33.6990   49.9020 C   0  0  0  0  0  0  0  0  0  0  0  0
   60.1780   34.5770   48.7340 C   0  0  0  0  0  0  0  0  0  0  0  0
   59.4430   34.0090   47.5750 C   0  0  0  0  0  0  0  0  0  0  0  0
   58.3310   33.2110   47.6950 C   0  0  0  0  0  0  0  0  0  0  0  0
   60.2010   29.3030   46.2980 C   0  0  0  0  0  0  0  0  0  0  0  0
   59.0250   28.5690   46.4680 C   0  0  0  0  0  0  0  0  0  0  0  0
   57.5350   32.5260   44.1190 N   0  0  0  0  0  0  0  0  0  0  0  0
   57.4210   31.2730   43.9530 C   0  0  0  0  0  0  0  0  0  0  0  0
   56.6450   30.8280   42.8890 C   0  0  0  0  0  0  0  0  0  0  0  0
   56.4580   29.4850   42.6220 C   0  0  0  0  0  0  0  0  0  0  0  0
   57.0660   28.6010   43.4480 N   0  0  0  0  0  0  0  0  0  0  0  0
   57.8280   29.0390   44.4930 C   0  0  0  0  0  0  0  0  0  0  0  0
   58.3930   28.1390   45.2610 N   0  0  0  0  0  0  0  0  0  0  0  0
   58.1890   33.0330   45.2770 C   0  0  0  0  0  0  0  0  0  0  0  0
   57.7010   32.7210   46.5460 C   0  0  0  0  0  0  0  0  0  0  0  0
   60.8820   29.7620   47.4170 C   0  0  0  0  0  0  0  0  0  0  0  0
   60.3880   29.4850   48.6810 C   0  0  0  0  0  0  0  0  0  0  0  0
   59.2090   28.7470   48.8340 C   0  0  0  0  0  0  0  0  0  0  0  0
   59.3070   33.8380   45.2050 C   0  0  0  0  0  0  0  0  0  0  0  0
   58.0040   30.3510   44.7430 N   0  0  0  0  0  0  0  0  0  0  0  0
   58.5180   28.2840   47.7200 C   0  0  0  0  0  0  0  0  0  0  0  0
   59.9540   34.3400   46.3150 C   0  0  0  0  0  0  0  0  0  0  0  0
   59.1840   34.2640   50.9850 N   0  0  0  0  0  0  0  0  0  0  0  0
   58.8960   33.5140   52.1630 C   0  0  0  0  0  0  0  0  0  0  0  0
   59.2330   33.9490   53.4300 C   0  0  0  0  0  0  0  0  0  0  0  0
   58.9000   33.1330   54.4950 C   0  0  0  0  0  0  0  0  0  0  0  0
   58.2510   31.9130   54.3180 C   0  0  0  0  0  0  0  0  0  0  0  0
   57.9180   31.4820   53.0530 C   0  0  0  0  0  0  0  0  0  0  0  0
   57.1110   29.9870   52.7120 S   0  0  0  0  0  0  0  0  0  0  0  0
   57.4800   29.5380   51.3250 O   0  0  0  0  0  0  0  0  0  0  0  0
   57.5970   28.9380   53.6660 O   0  0  0  0  0  0  0  0  0  0  0  0
   55.4170   30.2220   52.8320 N   0  0  0  0  0  0  0  0  0  0  0  0
   54.7930   28.9550   53.0790 C   0  0  0  0  0  0  0  0  0  0  0  0
   53.3910   29.1930   53.5800 C   0  0  0  0  0  0  0  0  0  0  0  0
   52.8200   30.3900   52.8730 C   0  0  0  0  0  0  0  0  0  0  0  0
   53.4000   30.5850   51.5060 C   0  0  0  0  0  0  0  0  0  0  0  0
   54.8830   30.8490   51.6610 C   0  0  0  0  0  0  0  0  0  0  0  0
   58.2480   32.2980   51.9650 C   0  0  0  0  0  0  0  0  0  0  0  0
   59.8068   35.5896   48.9504 H   0  0  0  0  0  0  0  0  0  0  0  0
   61.2532   34.6373   48.5097 H   0  0  0  0  0  0  0  0  0  0  0  0
   57.9376   32.9584   48.6907 H   0  0  0  0  0  0  0  0  0  0  0  0
   60.5833   29.5150   45.2886 H   0  0  0  0  0  0  0  0  0  0  0  0
   56.1628   31.5709   42.2366 H   0  0  0  0  0  0  0  0  0  0  0  0
   55.8419   29.1487   41.7751 H   0  0  0  0  0  0  0  0  0  0  0  0
   56.9330   27.5750   43.2570 H   0  0  0  0  0  0  0  0  0  0  0  0
   56.8107   32.0825   46.6444 H   0  0  0  0  0  0  0  0  0  0  0  0
   61.8090   30.3426   47.3006 H   0  0  0  0  0  0  0  0  0  0  0  0
   60.9256   29.8472   49.5697 H   0  0  0  0  0  0  0  0  0  0  0  0
   58.8263   28.5317   49.8426 H   0  0  0  0  0  0  0  0  0  0  0  0
   59.7030   34.0928   44.2109 H   0  0  0  0  0  0  0  0  0  0  0  0
   58.5800   30.6810   45.5340 H   0  0  0  0  0  0  0  0  0  0  0  0
   57.5898   27.7047   47.8334 H   0  0  0  0  0  0  0  0  0  0  0  0
   60.8429   34.9799   46.2130 H   0  0  0  0  0  0  0  0  0  0  0  0
   58.8250   35.2370   50.9270 H   0  0  0  0  0  0  0  0  0  0  0  0
   59.7472   34.9089   53.5857 H   0  0  0  0  0  0  0  0  0  0  0  0
   59.1556   33.4572   55.5146 H   0  0  0  0  0  0  0  0  0  0  0  0
   58.0037   31.2919   55.1915 H   0  0  0  0  0  0  0  0  0  0  0  0
   54.7585   28.3720   52.1468 H   0  0  0  0  0  0  0  0  0  0  0  0
   55.3685   28.3954   53.8310 H   0  0  0  0  0  0  0  0  0  0  0  0
   52.7693   28.3096   53.3722 H   0  0  0  0  0  0  0  0  0  0  0  0
   53.4077   29.3729   54.6651 H   0  0  0  0  0  0  0  0  0  0  0  0
   51.7322   30.2568   52.7780 H   0  0  0  0  0  0  0  0  0  0  0  0
   53.0704   31.2793   53.4701 H   0  0  0  0  0  0  0  0  0  0  0  0
   53.2431   29.6797   50.9012 H   0  0  0  0  0  0  0  0  0  0  0  0
   52.9117   31.4312   51.0005 H   0  0  0  0  0  0  0  0  0  0  0  0
   55.4082   30.4578   50.7772 H   0  0  0  0  0  0  0  0  0  0  0  0
   55.0276   31.9350   51.7596 H   0  0  0  0  0  0  0  0  0  0  0  0
   57.9931   31.9757   50.9446 H   0  0  0  0  0  0  0  0  0  0  0  0
  1  2  2  0
  2  3  1  0
  3  4  1  0
  4  5  2  0
  5  6  1  0
  6  7  2  0
  7  8  1  0
  8  9  2  0
  9 10  1  0
 10 11  2  0
 11 12  1  0
 12 13  1  0
 13 14  2  0
 14 15  1  0
 15 16  2  0
 16 17  1  0
 17 18  2  0
 18 19  1  0
 19 20  2  0
 13 21  1  0
  7 22  1  0
 22 23  2  0
  2 24  1  0
 24 25  1  0
 25 26  2  0
 26 27  1  0
 27 28  2  0
 28 29  1  0
 29 30  1  0
 30 31  2  0
 30 32  2  0
 30 33  1  0
 33 34  1  0
 34 35  1  0
 35 36  1  0
 36 37  1  0
 37 38  1  0
 29 39  2  0
 23  4  1  0
 39 25  1  0
 21  9  1  0
 38 33  1  0
 20 15  1  0
  3 40  1  0
  3 41  1  0
  5 42  1  0
  6 43  1  0
 10 44  1  0
 11 45  1  0
 12 46  1  0
 16 47  1  0
 17 48  1  0
 18 49  1  0
 19 50  1  0
 20 51  1  0
 21 52  1  0
 22 53  1  0
 23 54  1  0
 24 55  1  0
 26 56  1  0
 27 57  1  0
 28 58  1  0
 34 59  1  0
 34 60  1  0
 35 61  1  0
 35 62  1  0
 36 63  1  0
 36 64  1  0
 37 65  1  0
 37 66  1  0
 38 67  1  0
 38 68  1  0
 39 69  1  0
M  END
>  <smiles>  (93) 
O=C(Cc1ccc(N=c2cc[nH]c(=Nc3ccccc3)[nH]2)cc1)Nc1cccc(S(=O)(=O)N2CCCCC2)c1

>  <score_type>  (93) 
oracle

>  <origin>  (93) 
adg

>  <m_score__min__energy>  (93) 
-12.26

>  <m_primary>  (93) 
energy

$$$$
