0:0
     RDKit          3D

 43 45  0  0  0  0  0  0  0  0999 V2000
   61.7440   31.3980   47.1330 C   0  0  0  0  0  0  0  0  0  0  0  0
   60.3290   31.5360   47.0490 O   0  0  0  0  0  0  0  0  0  0  0  0
   59.6610   32.5650   46.3620 C   0  0  0  0  0  0  0  0  0  0  0  0
   60.2130   33.8600   46.2770 C   0  0  0  0  0  0  0  0  0  0  0  0
   59.5420   34.8740   45.5950 C   0  0  0  0  0  0  0  0  0  0  0  0
   58.3140   34.6150   44.9890 C   0  0  0  0  0  0  0  0  0  0  0  0
   57.7520   33.3410   45.0620 C   0  0  0  0  0  0  0  0  0  0  0  0
   58.4120   32.2990   45.7450 C   0  0  0  0  0  0  0  0  0  0  0  0
   57.7750   30.9540   45.8060 C   0  0  0  0  0  0  0  0  0  0  0  0
   57.0160   30.5640   44.8790 O   0  0  0  0  0  0  0  0  0  0  0  0
   57.9850   30.1160   46.9520 N   0  0  0  0  0  0  0  0  0  0  0  0
   58.8510   28.9740   47.0370 C   0  0  0  0  0  0  0  0  0  0  0  0
   59.1010   28.1690   45.9080 C   0  0  0  0  0  0  0  0  0  0  0  0
   59.9860   27.0930   45.9870 C   0  0  0  0  0  0  0  0  0  0  0  0
   60.6400   26.8120   47.1850 C   0  0  0  0  0  0  0  0  0  0  0  0
   60.4240   27.6150   48.3060 C   0  0  0  0  0  0  0  0  0  0  0  0
   59.5390   28.7070   48.2440 C   0  0  0  0  0  0  0  0  0  0  0  0
   59.3190   29.5420   49.4480 C   0  0  0  0  0  0  0  0  0  0  0  0
   59.5550   29.0570   50.5890 O   0  0  0  0  0  0  0  0  0  0  0  0
   58.8670   30.9030   49.3260 N   0  0  0  0  0  0  0  0  0  0  0  0
   58.5360   31.7320   50.4540 C   0  0  0  0  0  0  0  0  0  0  0  0
   57.4700   31.3900   51.3060 C   0  0  0  0  0  0  0  0  0  0  0  0
   57.1350   32.2120   52.3850 C   0  0  0  0  0  0  0  0  0  0  0  0
   57.8500   33.3890   52.6160 C   0  0  0  0  0  0  0  0  0  0  0  0
   58.8990   33.7470   51.7680 C   0  0  0  0  0  0  0  0  0  0  0  0
   59.2410   32.9300   50.6840 C   0  0  0  0  0  0  0  0  0  0  0  0
   60.5860   33.4100   49.6570 Cl  0  0  0  0  0  0  0  0  0  0  0  0
   62.0474   31.3684   48.1899 H   0  0  0  0  0  0  0  0  0  0  0  0
   62.0516   30.4656   46.6370 H   0  0  0  0  0  0  0  0  0  0  0  0
   62.2259   32.2534   46.6370 H   0  0  0  0  0  0  0  0  0  0  0  0
   61.1817   34.0719   46.7531 H   0  0  0  0  0  0  0  0  0  0  0  0
   59.9825   35.8802   45.5351 H   0  0  0  0  0  0  0  0  0  0  0  0
   57.7870   35.4174   44.4519 H   0  0  0  0  0  0  0  0  0  0  0  0
   56.7821   33.1466   44.5809 H   0  0  0  0  0  0  0  0  0  0  0  0
   58.5946   28.3904   44.9569 H   0  0  0  0  0  0  0  0  0  0  0  0
   60.1677   26.4655   45.1020 H   0  0  0  0  0  0  0  0  0  0  0  0
   61.3277   25.9558   47.2473 H   0  0  0  0  0  0  0  0  0  0  0  0
   60.9502   27.3922   49.2460 H   0  0  0  0  0  0  0  0  0  0  0  0
   58.7860   31.3240   48.3740 H   0  0  0  0  0  0  0  0  0  0  0  0
   56.8966   30.4696   51.1215 H   0  0  0  0  0  0  0  0  0  0  0  0
   56.3073   31.9317   53.0531 H   0  0  0  0  0  0  0  0  0  0  0  0
   57.5863   34.0344   53.4669 H   0  0  0  0  0  0  0  0  0  0  0  0
   59.4596   34.6753   51.9523 H   0  0  0  0  0  0  0  0  0  0  0  0
  1  2  1  0
  2  3  1  0
  3  4  2  0
  4  5  1  0
  5  6  2  0
  6  7  1  0
  7  8  2  0
  8  9  1  0
  9 10  2  0
  9 11  1  0
 11 12  1  0
 12 13  2  0
 13 14  1  0
 14 15  2  0
 15 16  1  0
 16 17  2  0
 17 18  1  0
 18 19  2  0
 18 20  1  0
 20 21  1  0
 21 22  2  0
 22 23  1  0
 23 24  2  0
 24 25  1  0
 25 26  2  0
 26 27  1  0
  8  3  1  0
 17 12  1  0
 26 21  1  0
  1 28  1  0
  1 29  1  0
  1 30  1  0
  4 31  1  0
  5 32  1  0
  6 33  1  0
  7 34  1  0
 13 35  1  0
 14 36  1  0
 15 37  1  0
 16 38  1  0
 20 39  1  0
 22 40  1  0
 23 41  1  0
 24 42  1  0
 25 43  1  0
M  CHG  1  11  -1
M  END
>  <UniqueID>  (1) 
1

>  <SMILES>  (1) 
COc1ccccc1C(=O)[N-]c1ccccc1C(=O)Nc1ccccc1Cl

>  <Energy>  (1) 
60.67783798411327

>  <Genealogy>  (1) 
COc1ccccc1C(=O)[N-]c1ccccc1C(=O)Nc1ccccc1Cl (protonated)
COc1ccccc1C(=O)[N-]c1ccccc1C(=O)Nc1ccccc1Cl (3D coordinates assigned)
COc1ccccc1C(=O)[N-]c1ccccc1C(=O)Nc1ccccc1Cl (optimized conformer: 60.67783798411327 kcal/mol)

>  <smiles>  (1) 
COc1ccccc1C(=O)Nc1ccccc1C(=O)Nc1ccccc1Cl

>  <score_type>  (1) 
oracle

>  <origin>  (1) 
adg

>  <m_score__min__energy>  (1) 
-9.0899999999999999

>  <m_primary>  (1) 
energy

$$$$
1:0
     RDKit          3D

 44 47  0  0  0  0  0  0  0  0999 V2000
   64.3051   33.1946   46.5159 H   0  0  0  0  0  0  0  0  0  0  0  0
   63.5550   33.0100   47.2990 C   0  0  0  0  0  0  0  0  0  0  0  0
   62.9240   31.7670   47.3820 C   0  0  0  0  0  0  0  0  0  0  0  0
   63.1733   30.9754   46.6601 H   0  0  0  0  0  0  0  0  0  0  0  0
   61.9760   31.5270   48.3810 C   0  0  0  0  0  0  0  0  0  0  0  0
   61.4753   30.5491   48.4370 H   0  0  0  0  0  0  0  0  0  0  0  0
   61.6600   32.5280   49.3130 C   0  0  0  0  0  0  0  0  0  0  0  0
   60.6970   32.2530   50.3460 N   0  0  0  0  0  0  0  0  0  0  0  0
   61.0060   32.3120   51.3410 H   0  0  0  0  0  0  0  0  0  0  0  0
   59.3720   31.7600   50.0890 C   0  0  0  0  0  0  0  0  0  0  0  0
   58.9350   30.6000   50.8140 N   0  0  0  0  0  0  0  0  0  0  0  0
   57.7570   30.4390   51.3390 C   0  0  0  0  0  0  0  0  0  0  0  0
   56.7380   31.3280   51.1820 N   0  0  0  0  0  0  0  0  0  0  0  0
   55.7390   30.7390   51.8520 C   0  0  0  0  0  0  0  0  0  0  0  0
   54.4390   31.2060   52.0300 C   0  0  0  0  0  0  0  0  0  0  0  0
   54.1161   32.1674   51.6039 H   0  0  0  0  0  0  0  0  0  0  0  0
   53.5530   30.4050   52.7740 C   0  0  0  0  0  0  0  0  0  0  0  0
   52.5183   30.7407   52.9373 H   0  0  0  0  0  0  0  0  0  0  0  0
   53.9850   29.1710   53.3130 C   0  0  0  0  0  0  0  0  0  0  0  0
   53.2846   28.5525   53.8934 H   0  0  0  0  0  0  0  0  0  0  0  0
   55.3060   28.7300   53.1110 C   0  0  0  0  0  0  0  0  0  0  0  0
   55.6558   27.7718   53.5228 H   0  0  0  0  0  0  0  0  0  0  0  0
   56.1550   29.5500   52.3710 C   0  0  0  0  0  0  0  0  0  0  0  0
   57.4410   29.3290   52.0550 N   0  0  0  0  0  0  0  0  0  0  0  0
   58.5470   32.3940   49.2910 N   0  0  0  0  0  0  0  0  0  0  0  0
   57.5450   32.4920   49.5650 H   0  0  0  0  0  0  0  0  0  0  0  0
   58.9280   33.0240   48.0540 C   0  0  0  0  0  0  0  0  0  0  0  0
   59.2580   34.3910   48.0260 C   0  0  0  0  0  0  0  0  0  0  0  0
   59.2322   34.9777   48.9561 H   0  0  0  0  0  0  0  0  0  0  0  0
   59.6180   35.0090   46.8270 C   0  0  0  0  0  0  0  0  0  0  0  0
   59.8930   36.0740   46.8182 H   0  0  0  0  0  0  0  0  0  0  0  0
   59.6290   34.2760   45.6400 C   0  0  0  0  0  0  0  0  0  0  0  0
   59.9188   34.7628   44.6971 H   0  0  0  0  0  0  0  0  0  0  0  0
   59.2730   32.9260   45.6460 C   0  0  0  0  0  0  0  0  0  0  0  0
   59.2670   32.3580   44.7040 H   0  0  0  0  0  0  0  0  0  0  0  0
   58.9220   32.2880   46.8490 C   0  0  0  0  0  0  0  0  0  0  0  0
   58.5190   30.8380   46.8290 C   0  0  0  0  0  0  0  0  0  0  0  0
   58.4171   30.4715   47.8611 H   0  0  0  0  0  0  0  0  0  0  0  0
   57.5573   30.7319   46.3056 H   0  0  0  0  0  0  0  0  0  0  0  0
   59.2880   30.2509   46.3056 H   0  0  0  0  0  0  0  0  0  0  0  0
   62.2860   33.7840   49.2100 C   0  0  0  0  0  0  0  0  0  0  0  0
   62.0283   34.5842   49.9194 H   0  0  0  0  0  0  0  0  0  0  0  0
   63.2340   34.0190   48.2100 C   0  0  0  0  0  0  0  0  0  0  0  0
   63.7277   34.9995   48.1404 H   0  0  0  0  0  0  0  0  0  0  0  0
  1  2  1  0
  2  3  2  0
  3  4  1  0
  3  5  1  0
  5  6  1  0
  5  7  2  0
  7  8  1  0
  8  9  1  0
  8 10  1  0
 10 11  1  0
 11 12  2  3
 12 13  1  0
 13 14  1  0
 14 15  2  0
 15 16  1  0
 15 17  1  0
 17 18  1  0
 17 19  2  0
 19 20  1  0
 19 21  1  0
 21 22  1  0
 21 23  2  0
 23 24  1  0
 10 25  2  0
 25 26  1  0
 25 27  1  0
 27 28  2  0
 28 29  1  0
 28 30  1  0
 30 31  1  0
 30 32  2  0
 32 33  1  0
 32 34  1  0
 34 35  1  0
 34 36  2  0
 36 37  1  0
 37 38  1  0
 37 39  1  0
 37 40  1  0
  7 41  1  0
 41 42  1  0
 41 43  2  0
 43 44  1  0
 43  2  1  0
 24 12  1  0
 36 27  1  0
 23 14  1  0
M  CHG  3  13  -1  24  -1  25   1
M  END
>  <UniqueID>  (2) 
2

>  <SMILES>  (2) 
Cc1ccccc1/[NH+]=C(/N=c1[n-]c2ccccc2[n-]1)Nc1ccccc1

>  <Energy>  (2) 
99.68998918886713

>  <Genealogy>  (2) 
Cc1ccccc1[NH+]=C(N=c1[n-]c2ccccc2[n-]1)Nc1ccccc1 (protonated)
Cc1ccccc1/[NH+]=C(/N=c1[n-]c2ccccc2[n-]1)Nc1ccccc1 (cis-trans isomerization)
Cc1ccccc1/[NH+]=C(/N=c1[n-]c2ccccc2[n-]1)Nc1ccccc1 (3D coordinates assigned)
Cc1ccccc1/[NH+]=C(/N=c1[n-]c2ccccc2[n-]1)Nc1ccccc1 (optimized conformer: 99.68998918886713 kcal/mol)

>  <smiles>  (2) 
Cc1ccccc1N=C(N=c1[nH]c2ccccc2[nH]1)Nc1ccccc1

>  <score_type>  (2) 
oracle

>  <origin>  (2) 
adg

>  <m_score__min__energy>  (2) 
-7.75

>  <m_primary>  (2) 
energy

$$$$
2:0
     RDKit          3D

 38 40  0  0  0  0  0  0  0  0999 V2000
   57.5470   33.3570   47.2970 N   0  0  0  0  0  0  0  0  0  0  0  0
   58.5530   33.5400   45.9030 S   0  0  0  0  0  0  0  0  0  0  0  0
   59.9560   33.1180   46.2370 O   0  0  0  0  0  0  0  0  0  0  0  0
   58.5700   34.9830   45.4840 O   0  0  0  0  0  0  0  0  0  0  0  0
   57.9290   32.5430   44.5900 C   0  0  0  0  0  0  0  0  0  0  0  0
   58.3290   32.7850   43.2710 C   0  0  0  0  0  0  0  0  0  0  0  0
   57.8240   32.0030   42.2310 C   0  0  0  0  0  0  0  0  0  0  0  0
   56.9130   30.9790   42.5000 C   0  0  0  0  0  0  0  0  0  0  0  0
   56.4940   30.7260   43.8190 C   0  0  0  0  0  0  0  0  0  0  0  0
   55.5210   29.6460   44.1070 C   0  0  0  0  0  0  0  0  0  0  0  0
   54.5220   29.4780   43.3560 O   0  0  0  0  0  0  0  0  0  0  0  0
   55.7090   28.7920   45.2420 N   0  0  0  0  0  0  0  0  0  0  0  0
   56.8100   27.8430   45.3650 C   0  0  0  0  0  0  0  0  0  0  0  0
   58.0770   28.5620   45.7220 C   0  0  0  0  0  0  0  0  0  0  0  0
   59.2290   28.4020   44.9530 C   0  0  0  0  0  0  0  0  0  0  0  0
   60.3960   29.0640   45.3360 C   0  0  0  0  0  0  0  0  0  0  0  0
   61.4350   28.9170   44.6340 O   0  0  0  0  0  0  0  0  0  0  0  0
   60.4070   29.8570   46.4580 N   0  0  0  0  0  0  0  0  0  0  0  0
   61.5490   30.5120   46.8440 C   0  0  0  0  0  0  0  0  0  0  0  0
   61.5590   31.3170   47.9870 C   0  0  0  0  0  0  0  0  0  0  0  0
   63.0260   32.1490   48.4700 Cl  0  0  0  0  0  0  0  0  0  0  0  0
   60.3970   31.4520   48.7420 C   0  0  0  0  0  0  0  0  0  0  0  0
   59.2380   30.7880   48.3500 C   0  0  0  0  0  0  0  0  0  0  0  0
   59.2530   29.9900   47.2020 C   0  0  0  0  0  0  0  0  0  0  0  0
   58.1180   29.3450   46.8290 N   0  0  0  0  0  0  0  0  0  0  0  0
   57.0090   31.5210   44.8610 C   0  0  0  0  0  0  0  0  0  0  0  0
   57.2980   32.3450   47.3630 H   0  0  0  0  0  0  0  0  0  0  0  0
   56.6600   33.8740   47.1030 H   0  0  0  0  0  0  0  0  0  0  0  0
   59.0428   33.5931   43.0534 H   0  0  0  0  0  0  0  0  0  0  0  0
   58.1445   32.1938   41.1962 H   0  0  0  0  0  0  0  0  0  0  0  0
   56.5205   30.3663   41.6751 H   0  0  0  0  0  0  0  0  0  0  0  0
   56.5731   27.1119   46.1520 H   0  0  0  0  0  0  0  0  0  0  0  0
   56.9488   27.3280   44.4030 H   0  0  0  0  0  0  0  0  0  0  0  0
   59.2180   27.7633   44.0575 H   0  0  0  0  0  0  0  0  0  0  0  0
   62.4668   30.4026   46.2477 H   0  0  0  0  0  0  0  0  0  0  0  0
   60.3948   32.0808   49.6446 H   0  0  0  0  0  0  0  0  0  0  0  0
   58.3154   30.8906   48.9402 H   0  0  0  0  0  0  0  0  0  0  0  0
   56.6864   31.3383   45.8966 H   0  0  0  0  0  0  0  0  0  0  0  0
  1  2  1  0
  2  3  2  0
  2  4  2  0
  2  5  1  0
  5  6  2  0
  6  7  1  0
  7  8  2  0
  8  9  1  0
  9 10  1  0
 10 11  2  0
 10 12  1  0
 12 13  1  0
 13 14  1  0
 14 15  2  0
 15 16  1  0
 16 17  2  0
 16 18  1  0
 18 19  1  0
 19 20  2  0
 20 21  1  0
 20 22  1  0
 22 23  2  0
 23 24  1  0
 24 25  2  0
  9 26  2  0
 26  5  1  0
 25 14  1  0
 24 18  1  0
  1 27  1  0
  1 28  1  0
  6 29  1  0
  7 30  1  0
  8 31  1  0
 13 32  1  0
 13 33  1  0
 15 34  1  0
 19 35  1  0
 22 36  1  0
 23 37  1  0
 26 38  1  0
M  CHG  1  12  -1
M  END
>  <UniqueID>  (3) 
3

>  <SMILES>  (3) 
NS(=O)(=O)c1cccc(C(=O)[N-]Cc2cc(=O)n3cc(Cl)ccc3n2)c1

>  <Energy>  (3) 
42.69089920291862

>  <Genealogy>  (3) 
NS(=O)(=O)c1cccc(C(=O)[N-]Cc2cc(=O)n3cc(Cl)ccc3n2)c1 (protonated)
NS(=O)(=O)c1cccc(C(=O)[N-]Cc2cc(=O)n3cc(Cl)ccc3n2)c1 (3D coordinates assigned)
NS(=O)(=O)c1cccc(C(=O)[N-]Cc2cc(=O)n3cc(Cl)ccc3n2)c1 (optimized conformer: 42.69089920291862 kcal/mol)

>  <smiles>  (3) 
NS(=O)(=O)c1cccc(C(=O)NCc2cc(=O)n3cc(Cl)ccc3n2)c1

>  <score_type>  (3) 
oracle

>  <origin>  (3) 
adg

>  <m_score__min__energy>  (3) 
-10.890000000000001

>  <m_primary>  (3) 
energy

$$$$
3:0
     RDKit          3D

 32 33  0  0  0  0  0  0  0  0999 V2000
   56.8820   24.7900   44.7760 C   0  0  0  0  0  0  0  0  0  0  0  0
   56.1590   25.3080   46.3190 S   0  0  0  0  0  0  0  0  0  0  0  0
   55.1060   26.3470   46.0560 O   0  0  0  0  0  0  0  0  0  0  0  0
   55.5100   24.1240   46.9770 O   0  0  0  0  0  0  0  0  0  0  0  0
   57.3890   25.9300   47.3740 N   0  0  0  0  0  0  0  0  0  0  0  0
   58.6060   26.5580   46.9510 C   0  0  0  0  0  0  0  0  0  0  0  0
   59.7020   26.0410   47.2940 O   0  0  0  0  0  0  0  0  0  0  0  0
   58.6230   27.7630   46.1080 C   0  0  0  0  0  0  0  0  0  0  0  0
   57.5240   28.5210   45.7250 C   0  0  0  0  0  0  0  0  0  0  0  0
   57.8560   29.5830   44.8760 C   0  0  0  0  0  0  0  0  0  0  0  0
   56.6630   30.7080   44.2520 S   0  0  0  0  0  0  0  0  0  0  0  0
   55.3100   30.0520   44.2680 O   0  0  0  0  0  0  0  0  0  0  0  0
   57.0320   31.0980   42.8480 O   0  0  0  0  0  0  0  0  0  0  0  0
   56.6500   32.1210   45.2560 N   0  0  0  0  0  0  0  0  0  0  0  0
   57.8050   32.8840   45.6280 C   0  0  0  0  0  0  0  0  0  0  0  0
   58.0950   34.0530   44.9140 C   0  0  0  0  0  0  0  0  0  0  0  0
   59.2110   34.8270   45.2440 C   0  0  0  0  0  0  0  0  0  0  0  0
   60.0480   34.4350   46.2920 C   0  0  0  0  0  0  0  0  0  0  0  0
   59.7690   33.2700   47.0120 C   0  0  0  0  0  0  0  0  0  0  0  0
   60.5810   32.8900   48.0280 F   0  0  0  0  0  0  0  0  0  0  0  0
   58.6520   32.4930   46.6830 C   0  0  0  0  0  0  0  0  0  0  0  0
   59.2060   29.6530   44.5590 C   0  0  0  0  0  0  0  0  0  0  0  0
   59.9870   28.3890   45.3460 S   0  0  0  0  0  0  0  0  0  0  0  0
   57.7612   24.1601   44.9763 H   0  0  0  0  0  0  0  0  0  0  0  0
   56.1426   24.2149   44.1994 H   0  0  0  0  0  0  0  0  0  0  0  0
   57.1887   25.6751   44.1994 H   0  0  0  0  0  0  0  0  0  0  0  0
   56.4966   28.3082   46.0555 H   0  0  0  0  0  0  0  0  0  0  0  0
   57.4397   34.3645   44.0873 H   0  0  0  0  0  0  0  0  0  0  0  0
   59.4304   35.7448   44.6787 H   0  0  0  0  0  0  0  0  0  0  0  0
   60.9270   35.0437   46.5505 H   0  0  0  0  0  0  0  0  0  0  0  0
   58.4355   31.5753   47.2496 H   0  0  0  0  0  0  0  0  0  0  0  0
   59.6804   30.4024   43.9084 H   0  0  0  0  0  0  0  0  0  0  0  0
  1  2  1  0
  2  3  2  0
  2  4  2  0
  2  5  1  0
  5  6  1  0
  6  7  2  0
  6  8  1  0
  8  9  2  0
  9 10  1  0
 10 11  1  0
 11 12  2  0
 11 13  2  0
 11 14  1  0
 14 15  1  0
 15 16  2  0
 16 17  1  0
 17 18  2  0
 18 19  1  0
 19 20  1  0
 19 21  2  0
 10 22  2  0
 22 23  1  0
 23  8  1  0
 21 15  1  0
  1 24  1  0
  1 25  1  0
  1 26  1  0
  9 27  1  0
 16 28  1  0
 17 29  1  0
 18 30  1  0
 21 31  1  0
 22 32  1  0
M  CHG  2   5  -1  14  -1
M  END
>  <UniqueID>  (4) 
4

>  <SMILES>  (4) 
CS(=O)(=O)[N-]C(=O)c1cc(S(=O)(=O)[N-]c2cccc(F)c2)cs1

>  <Energy>  (4) 
64.2665245036777

>  <Genealogy>  (4) 
CS(=O)(=O)[N-]C(=O)c1cc(S(=O)(=O)[N-]c2cccc(F)c2)cs1 (protonated)
CS(=O)(=O)[N-]C(=O)c1cc(S(=O)(=O)[N-]c2cccc(F)c2)cs1 (3D coordinates assigned)
CS(=O)(=O)[N-]C(=O)c1cc(S(=O)(=O)[N-]c2cccc(F)c2)cs1 (optimized conformer: 64.2665245036777 kcal/mol)

>  <smiles>  (4) 
CS(=O)(=O)NC(=O)c1cc(S(=O)(=O)Nc2cccc(F)c2)cs1

>  <score_type>  (4) 
oracle

>  <origin>  (4) 
adg

>  <m_score__min__energy>  (4) 
-11.49

>  <m_primary>  (4) 
energy

$$$$
4:0
     RDKit          3D

 59 62  0  0  1  0  0  0  0  0999 V2000
   57.4980   28.8030   43.6720 C   0  0  0  0  0  0  0  0  0  0  0  0
   56.8590   30.1530   43.7700 C   0  0  0  0  0  0  0  0  0  0  0  0
   56.9880   30.8580   42.4370 C   0  0  0  0  0  0  0  0  0  0  0  0
   55.3740   29.9970   44.0250 C   0  0  0  0  0  0  0  0  0  0  0  0
   55.1500   29.2880   45.2150 O   0  0  0  0  0  0  0  0  0  0  0  0
   57.4970   31.0280   44.7940 C   0  0  0  0  0  0  0  0  0  0  0  0
   57.4030   30.7840   46.0400 O   0  0  0  0  0  0  0  0  0  0  0  0
   58.2250   32.1590   44.3500 N   0  0  0  0  0  0  0  0  0  0  0  0
   58.8780   33.0710   45.2270 C   0  0  0  0  0  0  0  0  0  0  0  0
   58.8320   34.4120   44.8510 C   0  0  0  0  0  0  0  0  0  0  0  0
   59.4480   35.3570   45.6580 C   0  0  0  0  0  0  0  0  0  0  0  0
   60.1000   34.9950   46.8220 C   0  0  0  0  0  0  0  0  0  0  0  0
   60.1290   33.6410   47.1720 C   0  0  0  0  0  0  0  0  0  0  0  0
   60.8370   33.3110   48.3990 C   0  0  0  0  0  0  0  0  0  0  0  0
   60.0830   33.0810   49.4900 N   0  0  0  0  0  0  0  0  0  0  0  0
   60.5890   32.7640   50.6990 C   0  0  0  0  0  0  0  0  0  0  0  0
   59.6910   32.5450   51.8250 C   0  0  0  0  0  0  0  0  0  0  0  0
   60.1660   32.7430   53.1130 C   0  0  0  0  0  0  0  0  0  0  0  0
   59.3090   32.5260   54.1700 C   0  0  0  0  0  0  0  0  0  0  0  0
   58.0160   32.1250   54.0370 C   0  0  0  0  0  0  0  0  0  0  0  0
   57.5310   31.9230   52.7500 C   0  0  0  0  0  0  0  0  0  0  0  0
   58.3890   32.1410   51.7010 C   0  0  0  0  0  0  0  0  0  0  0  0
   61.9280   32.6810   50.7840 N   0  0  0  0  0  0  0  0  0  0  0  0
   62.7380   32.9040   49.7100 C   0  0  0  0  0  0  0  0  0  0  0  0
   63.9690   32.8060   49.8690 N   0  0  0  0  0  0  0  0  0  0  0  0
   64.6440   31.9570   50.7610 C   0  0  0  0  0  0  0  0  0  0  0  0
   63.9460   30.9860   51.2350 O   0  0  0  0  0  0  0  0  0  0  0  0
   66.0420   32.1310   51.1430 C   0  0  0  0  0  0  0  0  0  0  0  0
   66.8800   31.5250   51.9870 C   0  0  0  0  0  0  0  0  0  0  0  0
   68.1480   31.9790   52.0830 C   0  0  0  0  0  0  0  0  0  0  0  0
   68.5150   33.0250   51.3250 C   0  0  0  0  0  0  0  0  0  0  0  0
   67.0340   33.4760   50.3680 S   0  0  0  0  0  0  0  0  0  0  0  0
   62.2160   33.2250   48.4860 C   0  0  0  0  0  0  0  0  0  0  0  0
   62.9630   33.4620   47.3040 C   0  0  0  0  0  0  0  0  0  0  0  0
   63.5550   33.6570   46.3300 N   0  0  0  0  0  0  0  0  0  0  0  0
   59.5220   32.6800   46.3830 C   0  0  0  0  0  0  0  0  0  0  0  0
   57.6836   28.4109   44.6829 H   0  0  0  0  0  0  0  0  0  0  0  0
   56.8282   28.1187   43.1306 H   0  0  0  0  0  0  0  0  0  0  0  0
   58.4518   28.8872   43.1306 H   0  0  0  0  0  0  0  0  0  0  0  0
   57.1837   31.9273   42.6052 H   0  0  0  0  0  0  0  0  0  0  0  0
   57.8205   30.4179   41.8685 H   0  0  0  0  0  0  0  0  0  0  0  0
   56.0536   30.7412   41.8685 H   0  0  0  0  0  0  0  0  0  0  0  0
   54.9142   30.9931   44.1054 H   0  0  0  0  0  0  0  0  0  0  0  0
   54.9270   29.4385   43.1894 H   0  0  0  0  0  0  0  0  0  0  0  0
   55.5640   29.7230   45.9940 H   0  0  0  0  0  0  0  0  0  0  0  0
   58.2880   32.3410   43.3180 H   0  0  0  0  0  0  0  0  0  0  0  0
   58.3153   34.7163   43.9288 H   0  0  0  0  0  0  0  0  0  0  0  0
   59.4171   36.4170   45.3656 H   0  0  0  0  0  0  0  0  0  0  0  0
   60.5836   35.7522   47.4566 H   0  0  0  0  0  0  0  0  0  0  0  0
   61.2031   33.0659   53.2867 H   0  0  0  0  0  0  0  0  0  0  0  0
   59.6955   32.6875   55.1871 H   0  0  0  0  0  0  0  0  0  0  0  0
   57.3762   31.9660   54.9176 H   0  0  0  0  0  0  0  0  0  0  0  0
   56.4939   31.5992   52.5779 H   0  0  0  0  0  0  0  0  0  0  0  0
   58.0012   31.9789   50.6845 H   0  0  0  0  0  0  0  0  0  0  0  0
   62.3750   32.4380   51.6970 H   0  0  0  0  0  0  0  0  0  0  0  0
   66.5436   30.6711   52.5934 H   0  0  0  0  0  0  0  0  0  0  0  0
   68.8651   31.5022   52.7675 H   0  0  0  0  0  0  0  0  0  0  0  0
   69.5028   33.5077   51.2899 H   0  0  0  0  0  0  0  0  0  0  0  0
   59.5524   31.6194   46.6732 H   0  0  0  0  0  0  0  0  0  0  0  0
  1  2  1  0
  2  3  1  0
  2  4  1  0
  4  5  1  0
  2  6  1  0
  6  7  2  0
  6  8  1  0
  8  9  1  0
  9 10  2  0
 10 11  1  0
 11 12  2  0
 12 13  1  0
 13 14  1  0
 14 15  1  0
 15 16  2  0
 16 17  1  0
 17 18  2  0
 18 19  1  0
 19 20  2  0
 20 21  1  0
 21 22  2  0
 16 23  1  0
 23 24  1  0
 24 25  2  0
 25 26  1  0
 26 27  2  0
 26 28  1  0
 28 29  2  0
 29 30  1  0
 30 31  2  0
 31 32  1  0
 24 33  1  0
 33 34  1  0
 34 35  3  0
 13 36  2  0
 36  9  1  0
 33 14  2  0
 22 17  1  0
 32 28  1  0
  1 37  1  0
  1 38  1  0
  1 39  1  0
  3 40  1  0
  3 41  1  0
  3 42  1  0
  4 43  1  0
  4 44  1  0
  5 45  1  0
  8 46  1  0
 10 47  1  0
 11 48  1  0
 12 49  1  0
 18 50  1  0
 19 51  1  0
 20 52  1  0
 21 53  1  0
 22 54  1  0
 23 55  1  0
 29 56  1  0
 30 57  1  0
 31 58  1  0
 36 59  1  0
M  END
>  <smiles>  (5) 
CC(C)(CO)C(=O)Nc1cccc(-c2nc(-c3ccccc3)[nH]c(=NC(=O)c3cccs3)c2C#N)c1

>  <score_type>  (5) 
oracle

>  <origin>  (5) 
adg

>  <m_score__min__energy>  (5) 
-10.07

>  <m_primary>  (5) 
energy

$$$$
5:0
     RDKit          3D

 51 55  0  0  0  0  0  0  0  0999 V2000
   60.9760   33.1020   50.1860 C   0  0  0  0  0  0  0  0  0  0  0  0
   60.9540   33.4700   48.6700 C   0  0  0  0  0  0  0  0  0  0  0  0
   60.4320   34.9400   48.6280 C   0  0  0  0  0  0  0  0  0  0  0  0
   62.3960   33.4190   48.0920 C   0  0  0  0  0  0  0  0  0  0  0  0
   62.9240   31.9910   47.8610 C   0  0  0  0  0  0  0  0  0  0  0  0
   61.9470   31.0690   47.0950 C   0  0  0  0  0  0  0  0  0  0  0  0
   60.5090   31.0090   47.7090 C   0  0  2  0  0  0  0  0  0  0  0  0
   60.5810   30.2740   49.0850 C   0  0  0  0  0  0  0  0  0  0  0  0
   59.4810   30.1290   46.8330 C   0  0  2  0  0  0  0  0  0  0  0  0
   60.1620   29.0000   46.0060 C   0  0  0  0  0  0  0  0  0  0  0  0
   59.1450   27.9640   45.4820 C   0  0  1  0  0  0  0  0  0  0  0  0
   59.0040   26.8800   46.4180 O   0  0  0  0  0  0  0  0  0  0  0  0
   57.8160   26.1550   46.4450 C   0  0  0  0  0  0  0  0  0  0  0  0
   57.4700   24.7040   47.1740 S   0  0  0  0  0  0  0  0  0  0  0  0
   55.8520   24.5930   46.7740 N   0  0  0  0  0  0  0  0  0  0  0  0
   55.5780   25.7230   46.0630 C   0  0  0  0  0  0  0  0  0  0  0  0
   54.4200   25.9600   45.6280 O   0  0  0  0  0  0  0  0  0  0  0  0
   56.6600   26.6020   45.8620 C   0  0  0  0  0  0  0  0  0  0  0  0
   56.6450   27.9360   45.2480 C   0  0  0  0  0  0  0  0  0  0  0  0
   57.8030   28.6210   45.1540 C   0  0  0  0  0  0  0  0  0  0  0  0
   57.8260   30.0760   44.8030 C   0  0  0  0  0  0  0  0  0  0  0  0
   58.3950   30.9020   45.9900 C   0  0  2  0  0  0  0  0  0  0  0  0
   58.8810   32.2390   45.5310 C   0  0  0  0  0  0  0  0  0  0  0  0
   58.5060   32.7290   44.4300 O   0  0  0  0  0  0  0  0  0  0  0  0
   59.7510   33.0080   46.4060 C   0  0  0  0  0  0  0  0  0  0  0  0
   60.3500   33.9990   45.9110 O   0  0  0  0  0  0  0  0  0  0  0  0
   60.0050   32.5060   47.8310 C   0  0  2  0  0  0  0  0  0  0  0  0
   60.9210   34.0214   50.7873 H   0  0  0  0  0  0  0  0  0  0  0  0
   60.1147   32.4589   50.4198 H   0  0  0  0  0  0  0  0  0  0  0  0
   61.9078   32.5662   50.4198 H   0  0  0  0  0  0  0  0  0  0  0  0
   60.3000   35.3117   49.6548 H   0  0  0  0  0  0  0  0  0  0  0  0
   61.1604   35.5728   48.0998 H   0  0  0  0  0  0  0  0  0  0  0  0
   59.4676   34.9717   48.0998 H   0  0  0  0  0  0  0  0  0  0  0  0
   62.4025   33.9509   47.1292 H   0  0  0  0  0  0  0  0  0  0  0  0
   63.0560   33.8875   48.8369 H   0  0  0  0  0  0  0  0  0  0  0  0
   63.8585   32.0580   47.2846 H   0  0  0  0  0  0  0  0  0  0  0  0
   63.0671   31.5427   48.8553 H   0  0  0  0  0  0  0  0  0  0  0  0
   61.8658   31.4352   46.0609 H   0  0  0  0  0  0  0  0  0  0  0  0
   62.3596   30.0511   47.1548 H   0  0  0  0  0  0  0  0  0  0  0  0
   60.5088   31.0109   49.8985 H   0  0  0  0  0  0  0  0  0  0  0  0
   59.7486   29.5591   49.1629 H   0  0  0  0  0  0  0  0  0  0  0  0
   61.5363   29.7343   49.1629 H   0  0  0  0  0  0  0  0  0  0  0  0
   58.8905   29.6547   47.6307 H   0  0  0  0  0  0  0  0  0  0  0  0
   60.6797   29.4531   45.1477 H   0  0  0  0  0  0  0  0  0  0  0  0
   60.8664   28.4754   46.6683 H   0  0  0  0  0  0  0  0  0  0  0  0
   59.5287   27.5425   44.5412 H   0  0  0  0  0  0  0  0  0  0  0  0
   55.7063   28.3687   44.8716 H   0  0  0  0  0  0  0  0  0  0  0  0
   58.4607   30.2268   43.9173 H   0  0  0  0  0  0  0  0  0  0  0  0
   56.8004   30.4114   44.5895 H   0  0  0  0  0  0  0  0  0  0  0  0
   57.5574   31.0665   46.6838 H   0  0  0  0  0  0  0  0  0  0  0  0
   59.0792   32.5204   48.4248 H   0  0  0  0  0  0  0  0  0  0  0  0
  1  2  1  0
  2  3  1  0
  2  4  1  0
  4  5  1  0
  5  6  1  0
  6  7  1  0
  7  8  1  1
  7  9  1  0
  9 10  1  0
 10 11  1  0
 11 12  1  0
 12 13  1  0
 13 14  1  0
 14 15  1  0
 15 16  1  0
 16 17  2  0
 16 18  1  0
 18 19  1  0
 19 20  2  0
 20 21  1  0
 21 22  1  0
 22 23  1  0
 23 24  2  0
 23 25  1  0
 25 26  2  0
 25 27  1  0
 27  2  1  0
 27  7  1  0
 22  9  1  0
 20 11  1  0
 18 13  2  0
  1 28  1  0
  1 29  1  0
  1 30  1  0
  3 31  1  0
  3 32  1  0
  3 33  1  0
  4 34  1  0
  4 35  1  0
  5 36  1  0
  5 37  1  0
  6 38  1  0
  6 39  1  0
  8 40  1  0
  8 41  1  0
  8 42  1  0
  9 43  1  1
 10 44  1  0
 10 45  1  0
 11 46  1  6
 19 47  1  0
 21 48  1  0
 21 49  1  0
 22 50  1  1
 27 51  1  1
M  CHG  1  15  -1
M  END
>  <UniqueID>  (6) 
5

>  <SMILES>  (6) 
CC1(C)CCC[C@@]2(C)C1C(=O)C(=O)C1CC3=Cc4c(s[n-]c4=O)OC3C[C@H]12

>  <Energy>  (6) 
134.02890111477038

>  <Genealogy>  (6) 
CC1(C)CCCC2(C)C3CC4Oc5s[n-]c(=O)c5C=C4CC3C(=O)C(=O)C12 (protonated)
CC1(C)CCC[C@@]2(C)C1C(=O)C(=O)C1CC3=Cc4c(s[n-]c4=O)OC3C[C@H]12 (chirality)
CC1(C)CCC[C@@]2(C)C1C(=O)C(=O)C1CC3=Cc4c(s[n-]c4=O)OC3C[C@H]12 (3D coordinates assigned)
CC1(C)CCC[C@@]2(C)C1C(=O)C(=O)C1CC3=Cc4c(s[n-]c4=O)OC3C[C@H]12 (nonaromatic ring conformer: 134.02890111477038 kcal/mol)

>  <smiles>  (6) 
CC1(C)CCCC2(C)C3CC4Oc5s[nH]c(=O)c5C=C4CC3C(=O)C(=O)C12

>  <score_type>  (6) 
oracle

>  <origin>  (6) 
adg

>  <m_score__min__energy>  (6) 
-11.18

>  <m_primary>  (6) 
energy

$$$$
6:0
     RDKit          3D

 44 46  0  0  0  0  0  0  0  0999 V2000
   62.9780   33.8760   48.7110 C   0  0  0  0  0  0  0  0  0  0  0  0
   62.3790   33.4390   47.0920 S   0  0  0  0  0  0  0  0  0  0  0  0
   62.2610   31.9430   47.0140 O   0  0  0  0  0  0  0  0  0  0  0  0
   63.3340   33.9100   46.0320 O   0  0  0  0  0  0  0  0  0  0  0  0
   60.8130   34.1360   46.8360 N   0  0  0  0  0  0  0  0  0  0  0  0
   59.6840   33.4390   46.2910 C   0  0  0  0  0  0  0  0  0  0  0  0
   59.0640   33.8640   45.1040 C   0  0  0  0  0  0  0  0  0  0  0  0
   57.9650   33.1730   44.5950 C   0  0  0  0  0  0  0  0  0  0  0  0
   57.4670   32.0460   45.2650 C   0  0  0  0  0  0  0  0  0  0  0  0
   56.2730   31.3860   44.8240 N   0  0  0  0  0  0  0  0  0  0  0  0
   56.2100   30.0400   44.3300 C   0  0  0  0  0  0  0  0  0  0  0  0
   56.3460   29.8360   43.0960 O   0  0  0  0  0  0  0  0  0  0  0  0
   55.9890   28.9200   45.2010 N   0  0  0  0  0  0  0  0  0  0  0  0
   56.9860   27.9750   45.6170 C   0  0  0  0  0  0  0  0  0  0  0  0
   58.3500   28.3150   45.6560 C   0  0  0  0  0  0  0  0  0  0  0  0
   59.2920   27.3910   46.1170 C   0  0  0  0  0  0  0  0  0  0  0  0
   58.8830   26.1180   46.5260 C   0  0  0  0  0  0  0  0  0  0  0  0
   57.5320   25.7640   46.4580 C   0  0  0  0  0  0  0  0  0  0  0  0
   56.5880   26.6860   45.9960 C   0  0  0  0  0  0  0  0  0  0  0  0
   58.1230   31.5790   46.4070 C   0  0  0  0  0  0  0  0  0  0  0  0
   59.2010   32.2880   46.9470 C   0  0  0  0  0  0  0  0  0  0  0  0
   59.7720   31.8330   48.1440 O   0  0  0  0  0  0  0  0  0  0  0  0
   59.3290   32.1980   49.4240 C   0  0  0  0  0  0  0  0  0  0  0  0
   59.7380   33.4290   49.9520 C   0  0  0  0  0  0  0  0  0  0  0  0
   59.3180   33.8270   51.2250 C   0  0  0  0  0  0  0  0  0  0  0  0
   58.4940   32.9940   51.9830 C   0  0  0  0  0  0  0  0  0  0  0  0
   58.0920   31.7560   51.4730 C   0  0  0  0  0  0  0  0  0  0  0  0
   58.5110   31.3550   50.2010 C   0  0  0  0  0  0  0  0  0  0  0  0
   62.3396   33.4103   49.4762 H   0  0  0  0  0  0  0  0  0  0  0  0
   64.0116   33.5183   48.8285 H   0  0  0  0  0  0  0  0  0  0  0  0
   62.9529   34.9694   48.8285 H   0  0  0  0  0  0  0  0  0  0  0  0
   59.4480   34.7474   44.5728 H   0  0  0  0  0  0  0  0  0  0  0  0
   57.4869   33.5131   43.6646 H   0  0  0  0  0  0  0  0  0  0  0  0
   58.6766   29.3111   45.3227 H   0  0  0  0  0  0  0  0  0  0  0  0
   60.3564   27.6656   46.1581 H   0  0  0  0  0  0  0  0  0  0  0  0
   59.6232   25.3958   46.9008 H   0  0  0  0  0  0  0  0  0  0  0  0
   57.2114   24.7586   46.7685 H   0  0  0  0  0  0  0  0  0  0  0  0
   55.5284   26.3983   45.9297 H   0  0  0  0  0  0  0  0  0  0  0  0
   57.7890   30.6464   46.8851 H   0  0  0  0  0  0  0  0  0  0  0  0
   60.3934   34.0865   49.3619 H   0  0  0  0  0  0  0  0  0  0  0  0
   59.6377   34.7986   51.6297 H   0  0  0  0  0  0  0  0  0  0  0  0
   58.1607   33.3116   52.9820 H   0  0  0  0  0  0  0  0  0  0  0  0
   57.4461   31.0976   52.0724 H   0  0  0  0  0  0  0  0  0  0  0  0
   58.2004   30.3768   49.8053 H   0  0  0  0  0  0  0  0  0  0  0  0
  1  2  1  0
  2  3  2  0
  2  4  2  0
  2  5  1  0
  5  6  1  0
  6  7  2  0
  7  8  1  0
  8  9  2  0
  9 10  1  0
 10 11  1  0
 11 12  2  0
 11 13  1  0
 13 14  1  0
 14 15  2  0
 15 16  1  0
 16 17  2  0
 17 18  1  0
 18 19  2  0
  9 20  1  0
 20 21  2  0
 21 22  1  0
 22 23  1  0
 23 24  2  0
 24 25  1  0
 25 26  2  0
 26 27  1  0
 27 28  2  0
 21  6  1  0
 28 23  1  0
 19 14  1  0
  1 29  1  0
  1 30  1  0
  1 31  1  0
  7 32  1  0
  8 33  1  0
 15 34  1  0
 16 35  1  0
 17 36  1  0
 18 37  1  0
 19 38  1  0
 20 39  1  0
 24 40  1  0
 25 41  1  0
 26 42  1  0
 27 43  1  0
 28 44  1  0
M  CHG  3   5  -1  10  -1  13  -1
M  END
>  <UniqueID>  (7) 
6

>  <SMILES>  (7) 
CS(=O)(=O)[N-]c1ccc([N-]C(=O)[N-]c2ccccc2)cc1Oc1ccccc1

>  <Energy>  (7) 
58.24765938283569

>  <Genealogy>  (7) 
CS(=O)(=O)[N-]c1ccc([N-]C(=O)[N-]c2ccccc2)cc1Oc1ccccc1 (protonated)
CS(=O)(=O)[N-]c1ccc([N-]C(=O)[N-]c2ccccc2)cc1Oc1ccccc1 (3D coordinates assigned)
CS(=O)(=O)[N-]c1ccc([N-]C(=O)[N-]c2ccccc2)cc1Oc1ccccc1 (optimized conformer: 58.24765938283569 kcal/mol)

>  <smiles>  (7) 
CS(=O)(=O)Nc1ccc(NC(=O)Nc2ccccc2)cc1Oc1ccccc1

>  <score_type>  (7) 
oracle

>  <origin>  (7) 
adg

>  <m_score__min__energy>  (7) 
-12.35

>  <m_primary>  (7) 
energy

$$$$
7:0
     RDKit          3D

 44 46  0  0  0  0  0  0  0  0999 V2000
   57.2768   29.4631   42.5632 H   0  0  0  0  0  0  0  0  0  0  0  0
   57.3590   29.3680   43.6560 C   0  0  0  0  0  0  0  0  0  0  0  0
   56.3460   30.0680   44.4720 C   0  0  0  0  0  0  0  0  0  0  0  0
   55.5140   29.3820   45.1250 O   0  0  0  0  0  0  0  0  0  0  0  0
   56.3620   31.4950   44.6080 N   0  0  0  0  0  0  0  0  0  0  0  0
   57.4000   32.2540   45.2400 C   0  0  0  0  0  0  0  0  0  0  0  0
   57.5470   33.5980   44.8730 C   0  0  0  0  0  0  0  0  0  0  0  0
   56.8570   34.0421   44.1404 H   0  0  0  0  0  0  0  0  0  0  0  0
   58.5630   34.3790   45.4300 C   0  0  0  0  0  0  0  0  0  0  0  0
   58.6768   35.4303   45.1268 H   0  0  0  0  0  0  0  0  0  0  0  0
   59.4330   33.8270   46.3700 C   0  0  0  0  0  0  0  0  0  0  0  0
   60.2431   34.4380   46.7948 H   0  0  0  0  0  0  0  0  0  0  0  0
   59.2760   32.4990   46.7720 C   0  0  0  0  0  0  0  0  0  0  0  0
   59.9606   32.0711   47.5191 H   0  0  0  0  0  0  0  0  0  0  0  0
   58.2520   31.7050   46.2310 C   0  0  0  0  0  0  0  0  0  0  0  0
   58.0550   30.3820   46.7450 N   0  0  0  0  0  0  0  0  0  0  0  0
   58.6570   30.0220   47.5190 H   0  0  0  0  0  0  0  0  0  0  0  0
   57.2610   29.7840   46.4380 H   0  0  0  0  0  0  0  0  0  0  0  0
   58.3710   28.6260   44.1320 C   0  0  0  0  0  0  0  0  0  0  0  0
   59.3732   28.8097   43.7175 H   0  0  0  0  0  0  0  0  0  0  0  0
   58.2440   27.5830   45.1680 C   0  0  0  0  0  0  0  0  0  0  0  0
   59.3660   27.2110   45.9190 C   0  0  0  0  0  0  0  0  0  0  0  0
   60.3349   27.6984   45.7356 H   0  0  0  0  0  0  0  0  0  0  0  0
   59.2580   26.2220   46.9010 C   0  0  0  0  0  0  0  0  0  0  0  0
   60.1468   25.9163   47.4724 H   0  0  0  0  0  0  0  0  0  0  0  0
   58.0230   25.6210   47.1580 C   0  0  0  0  0  0  0  0  0  0  0  0
   57.9482   24.8275   47.9161 H   0  0  0  0  0  0  0  0  0  0  0  0
   56.8800   26.0230   46.4560 C   0  0  0  0  0  0  0  0  0  0  0  0
   55.6280   25.3840   46.7460 N   0  0  0  0  0  0  0  0  0  0  0  0
   54.9490   24.4300   45.9170 C   0  0  0  0  0  0  0  0  0  0  0  0
   53.6910   24.4740   45.8560 O   0  0  0  0  0  0  0  0  0  0  0  0
   55.6880   23.4690   45.0640 C   0  0  0  0  0  0  0  0  0  0  0  0
   55.6410   23.6170   43.6660 C   0  0  0  0  0  0  0  0  0  0  0  0
   55.0581   24.4388   43.2247 H   0  0  0  0  0  0  0  0  0  0  0  0
   56.3270   22.7310   42.8330 C   0  0  0  0  0  0  0  0  0  0  0  0
   56.2856   22.8594   41.7413 H   0  0  0  0  0  0  0  0  0  0  0  0
   57.0650   21.6830   43.3840 C   0  0  0  0  0  0  0  0  0  0  0  0
   57.6052   20.9858   42.7267 H   0  0  0  0  0  0  0  0  0  0  0  0
   57.1180   21.5190   44.7690 C   0  0  0  0  0  0  0  0  0  0  0  0
   57.7005   20.6909   45.1989 H   0  0  0  0  0  0  0  0  0  0  0  0
   56.4350   22.4010   45.6150 C   0  0  0  0  0  0  0  0  0  0  0  0
   56.6140   22.1330   47.5070 Br  0  0  0  0  0  0  0  0  0  0  0  0
   56.9970   27.0010   45.4540 C   0  0  0  0  0  0  0  0  0  0  0  0
   56.1062   27.3134   44.8893 H   0  0  0  0  0  0  0  0  0  0  0  0
  1  2  1  0
  2  3  1  0
  3  4  2  0
  3  5  1  0
  5  6  1  0
  6  7  2  0
  7  8  1  0
  7  9  1  0
  9 10  1  0
  9 11  2  0
 11 12  1  0
 11 13  1  0
 13 14  1  0
 13 15  2  0
 15 16  1  0
 16 17  1  0
 16 18  1  0
  2 19  2  0
 19 20  1  0
 19 21  1  0
 21 22  2  0
 22 23  1  0
 22 24  1  0
 24 25  1  0
 24 26  2  0
 26 27  1  0
 26 28  1  0
 28 29  1  0
 29 30  1  0
 30 31  2  0
 30 32  1  0
 32 33  2  0
 33 34  1  0
 33 35  1  0
 35 36  1  0
 35 37  2  0
 37 38  1  0
 37 39  1  0
 39 40  1  0
 39 41  2  0
 41 42  1  0
 28 43  2  0
 43 44  1  0
 15  6  1  0
 43 21  1  0
 41 32  1  0
M  CHG  2   5  -1  29  -1
M  END
>  <UniqueID>  (8) 
7

>  <SMILES>  (8) 
Nc1ccccc1[N-]C(=O)/C=C\c1cccc([N-]C(=O)c2ccccc2Br)c1

>  <Energy>  (8) 
67.39578893926704

>  <Genealogy>  (8) 
Nc1ccccc1[N-]C(=O)C=Cc1cccc([N-]C(=O)c2ccccc2Br)c1 (protonated)
Nc1ccccc1[N-]C(=O)/C=C\c1cccc([N-]C(=O)c2ccccc2Br)c1 (cis-trans isomerization)
Nc1ccccc1[N-]C(=O)/C=C\c1cccc([N-]C(=O)c2ccccc2Br)c1 (3D coordinates assigned)
Nc1ccccc1[N-]C(=O)/C=C\c1cccc([N-]C(=O)c2ccccc2Br)c1 (optimized conformer: 67.39578893926704 kcal/mol)

>  <smiles>  (8) 
Nc1ccccc1NC(=O)C=Cc1cccc(NC(=O)c2ccccc2Br)c1

>  <score_type>  (8) 
oracle

>  <origin>  (8) 
adg

>  <m_score__min__energy>  (8) 
-12.66

>  <m_primary>  (8) 
energy

$$$$
8:0
     RDKit          3D

 53 56  0  0  0  0  0  0  0  0999 V2000
   63.3320   31.5840   49.6890 C   0  0  0  0  0  0  0  0  0  0  0  0
   62.2150   30.9810   50.3370 O   0  0  0  0  0  0  0  0  0  0  0  0
   61.2460   30.1750   49.7180 C   0  0  0  0  0  0  0  0  0  0  0  0
   61.1520   28.8100   50.0740 C   0  0  0  0  0  0  0  0  0  0  0  0
   60.2030   27.9810   49.4910 C   0  0  0  0  0  0  0  0  0  0  0  0
   59.3290   28.4870   48.5420 C   0  0  0  0  0  0  0  0  0  0  0  0
   59.3990   29.8280   48.1650 C   0  0  0  0  0  0  0  0  0  0  0  0
   60.3510   30.7200   48.7350 C   0  0  0  0  0  0  0  0  0  0  0  0
   60.3840   32.1300   48.3000 N   0  0  0  0  0  0  0  0  0  0  0  0
   59.5370   33.1060   49.0300 C   0  0  0  0  0  0  0  0  0  0  0  0
   59.6120   34.5620   48.5400 C   0  0  0  0  0  0  0  0  0  0  0  0
   59.8730   34.6900   47.1020 N   0  0  0  0  0  0  0  0  0  0  0  0
   58.7600   34.2510   46.2700 C   0  0  0  0  0  0  0  0  0  0  0  0
   57.6270   34.1790   46.7280 O   0  0  0  0  0  0  0  0  0  0  0  0
   58.9810   33.8730   44.8210 C   0  0  0  0  0  0  0  0  0  0  0  0
   57.7330   33.2410   44.1890 C   0  0  0  0  0  0  0  0  0  0  0  0
   57.6330   31.7780   44.4950 C   0  0  0  0  0  0  0  0  0  0  0  0
   56.4130   31.1770   44.5670 N   0  0  0  0  0  0  0  0  0  0  0  0
   56.2950   29.8450   44.8060 C   0  0  0  0  0  0  0  0  0  0  0  0
   55.1470   29.3310   44.8730 O   0  0  0  0  0  0  0  0  0  0  0  0
   57.4500   29.0610   44.9750 C   0  0  0  0  0  0  0  0  0  0  0  0
   57.3960   27.6790   45.2270 C   0  0  0  0  0  0  0  0  0  0  0  0
   58.5800   26.9540   45.4010 C   0  0  0  0  0  0  0  0  0  0  0  0
   59.8190   27.5980   45.3200 C   0  0  0  0  0  0  0  0  0  0  0  0
   59.8820   28.9700   45.0600 C   0  0  0  0  0  0  0  0  0  0  0  0
   58.7040   29.7060   44.8930 C   0  0  0  0  0  0  0  0  0  0  0  0
   58.7640   31.0410   44.6520 N   0  0  0  0  0  0  0  0  0  0  0  0
   61.1360   34.0230   46.7660 C   0  0  0  0  0  0  0  0  0  0  0  0
   61.1400   32.5230   47.0910 C   0  0  0  0  0  0  0  0  0  0  0  0
   64.0343   31.9631   50.4460 H   0  0  0  0  0  0  0  0  0  0  0  0
   63.8386   30.8368   49.0604 H   0  0  0  0  0  0  0  0  0  0  0  0
   62.9853   32.4175   49.0604 H   0  0  0  0  0  0  0  0  0  0  0  0
   61.8420   28.3980   50.8251 H   0  0  0  0  0  0  0  0  0  0  0  0
   60.1448   26.9219   49.7826 H   0  0  0  0  0  0  0  0  0  0  0  0
   58.5767   27.8280   48.0840 H   0  0  0  0  0  0  0  0  0  0  0  0
   58.6989   30.2071   47.4059 H   0  0  0  0  0  0  0  0  0  0  0  0
   58.4915   32.7752   48.9437 H   0  0  0  0  0  0  0  0  0  0  0  0
   59.9209   33.1196   50.0608 H   0  0  0  0  0  0  0  0  0  0  0  0
   58.6534   35.0530   48.7636 H   0  0  0  0  0  0  0  0  0  0  0  0
   60.4579   35.0327   49.0623 H   0  0  0  0  0  0  0  0  0  0  0  0
   60.0260   35.7120   46.9260 H   0  0  0  0  0  0  0  0  0  0  0  0
   59.2445   34.7787   44.2550 H   0  0  0  0  0  0  0  0  0  0  0  0
   59.7904   33.1289   44.7861 H   0  0  0  0  0  0  0  0  0  0  0  0
   56.8395   33.7485   44.5816 H   0  0  0  0  0  0  0  0  0  0  0  0
   57.8070   33.3572   43.0977 H   0  0  0  0  0  0  0  0  0  0  0  0
   56.4237   27.1680   45.2873 H   0  0  0  0  0  0  0  0  0  0  0  0
   58.5363   25.8735   45.6023 H   0  0  0  0  0  0  0  0  0  0  0  0
   60.7462   27.0233   45.4613 H   0  0  0  0  0  0  0  0  0  0  0  0
   60.8584   29.4713   44.9867 H   0  0  0  0  0  0  0  0  0  0  0  0
   61.3194   34.1465   45.6884 H   0  0  0  0  0  0  0  0  0  0  0  0
   61.9218   34.4894   47.3783 H   0  0  0  0  0  0  0  0  0  0  0  0
   60.7067   31.9893   46.2323 H   0  0  0  0  0  0  0  0  0  0  0  0
   62.1891   32.2613   47.2933 H   0  0  0  0  0  0  0  0  0  0  0  0
  1  2  1  0
  2  3  1  0
  3  4  2  0
  4  5  1  0
  5  6  2  0
  6  7  1  0
  7  8  2  0
  8  9  1  0
  9 10  1  0
 10 11  1  0
 11 12  1  0
 12 13  1  0
 13 14  2  0
 13 15  1  0
 15 16  1  0
 16 17  1  0
 17 18  2  0
 18 19  1  0
 19 20  2  0
 19 21  1  0
 21 22  2  0
 22 23  1  0
 23 24  2  0
 24 25  1  0
 25 26  2  0
 26 27  1  0
 12 28  1  0
 28 29  1  0
  8  3  1  0
 29  9  1  0
 27 17  1  0
 26 21  1  0
  1 30  1  0
  1 31  1  0
  1 32  1  0
  4 33  1  0
  5 34  1  0
  6 35  1  0
  7 36  1  0
 10 37  1  0
 10 38  1  0
 11 39  1  0
 11 40  1  0
 12 41  1  0
 15 42  1  0
 15 43  1  0
 16 44  1  0
 16 45  1  0
 22 46  1  0
 23 47  1  0
 24 48  1  0
 25 49  1  0
 28 50  1  0
 28 51  1  0
 29 52  1  0
 29 53  1  0
M  CHG  2  12   1  27  -1
M  END
>  <UniqueID>  (9) 
8

>  <SMILES>  (9) 
COc1ccccc1N1CC[NH+](C(=O)CCc2nc(=O)c3ccccc3[n-]2)CC1

>  <Energy>  (9) 
71.88657572817122

>  <Genealogy>  (9) 
COc1ccccc1N1CC[NH+](C(=O)CCc2nc(=O)c3ccccc3[n-]2)CC1 (protonated)
COc1ccccc1N1CC[NH+](C(=O)CCc2nc(=O)c3ccccc3[n-]2)CC1 (3D coordinates assigned)
COc1ccccc1N1CC[NH+](C(=O)CCc2nc(=O)c3ccccc3[n-]2)CC1 (nonaromatic ring conformer: 71.88657572817122 kcal/mol)

>  <smiles>  (9) 
COc1ccccc1N1CCN(C(=O)CCc2nc(=O)c3ccccc3[nH]2)CC1

>  <score_type>  (9) 
oracle

>  <origin>  (9) 
adg

>  <m_score__min__energy>  (9) 
-8.1400000000000006

>  <m_primary>  (9) 
energy

$$$$
9:0
     RDKit          3D

 46 48  0  0  0  0  0  0  0  0999 V2000
   56.9720   33.3240   46.6120 O   0  0  0  0  0  0  0  0  0  0  0  0
   58.0550   32.6970   46.4600 C   0  0  0  0  0  0  0  0  0  0  0  0
   58.0980   31.5730   45.5020 C   0  0  0  0  0  0  0  0  0  0  0  0
   57.9130   31.6310   44.1320 C   0  0  0  0  0  0  0  0  0  0  0  0
   58.0710   30.4060   43.6010 N   0  0  0  0  0  0  0  0  0  0  0  0
   58.3680   29.5660   44.6130 C   0  0  0  0  0  0  0  0  0  0  0  0
   58.6080   28.1210   44.4290 C   0  0  0  0  0  0  0  0  0  0  0  0
   59.5230   27.7490   43.6440 O   0  0  0  0  0  0  0  0  0  0  0  0
   57.8240   27.1410   45.1290 N   0  0  0  0  0  0  0  0  0  0  0  0
   57.9110   25.7060   44.8230 C   0  0  1  0  0  0  0  0  0  0  0  0
   58.6960   24.9560   45.9260 C   0  0  0  0  0  0  0  0  0  0  0  0
   58.5130   23.4220   45.8860 C   0  0  0  0  0  0  0  0  0  0  0  0
   57.9220   22.9300   44.5620 C   0  0  0  0  0  0  0  0  0  0  0  0
   56.5540   23.5760   44.2850 C   0  0  0  0  0  0  0  0  0  0  0  0
   56.5000   25.0990   44.6040 C   0  0  1  0  0  0  0  0  0  0  0  0
   55.5830   25.3970   45.7670 C   0  0  0  0  0  0  0  0  0  0  0  0
   55.2290   24.4850   46.5600 O   0  0  0  0  0  0  0  0  0  0  0  0
   55.1570   26.7000   45.9920 O   0  0  0  0  0  0  0  0  0  0  0  0
   58.3980   30.2590   45.8120 C   0  0  0  0  0  0  0  0  0  0  0  0
   59.2360   33.1020   47.2580 C   0  0  0  0  0  0  0  0  0  0  0  0
   59.0990   33.5090   48.5930 C   0  0  0  0  0  0  0  0  0  0  0  0
   60.2200   33.8740   49.3380 C   0  0  0  0  0  0  0  0  0  0  0  0
   61.4990   33.8220   48.7730 C   0  0  0  0  0  0  0  0  0  0  0  0
   62.8490   34.3730   49.7600 Cl  0  0  0  0  0  0  0  0  0  0  0  0
   61.6610   33.3830   47.4380 C   0  0  0  0  0  0  0  0  0  0  0  0
   62.9580   33.2940   46.8170 N   0  0  0  0  0  0  0  0  0  0  0  0
   63.4130   34.2420   46.1440 O   0  0  0  0  0  0  0  0  0  0  0  0
   63.7770   32.2220   47.0830 O   0  0  0  0  0  0  0  0  0  0  0  0
   60.5210   33.0300   46.6940 C   0  0  0  0  0  0  0  0  0  0  0  0
   57.6730   32.5415   43.5634 H   0  0  0  0  0  0  0  0  0  0  0  0
   57.9880   30.1620   42.5880 H   0  0  0  0  0  0  0  0  0  0  0  0
   57.2000   27.4560   45.9040 H   0  0  0  0  0  0  0  0  0  0  0  0
   58.4678   25.5847   43.8821 H   0  0  0  0  0  0  0  0  0  0  0  0
   59.7659   25.1812   45.8048 H   0  0  0  0  0  0  0  0  0  0  0  0
   58.3008   25.3014   46.8927 H   0  0  0  0  0  0  0  0  0  0  0  0
   59.4945   22.9469   46.0310 H   0  0  0  0  0  0  0  0  0  0  0  0
   57.8070   23.1514   46.6850 H   0  0  0  0  0  0  0  0  0  0  0  0
   58.6116   23.1872   43.7445 H   0  0  0  0  0  0  0  0  0  0  0  0
   57.7841   21.8406   44.6274 H   0  0  0  0  0  0  0  0  0  0  0  0
   56.3140   23.4362   43.2206 H   0  0  0  0  0  0  0  0  0  0  0  0
   55.8281   23.0844   44.9494 H   0  0  0  0  0  0  0  0  0  0  0  0
   56.0758   25.5894   43.7154 H   0  0  0  0  0  0  0  0  0  0  0  0
   58.6162   29.8476   46.8086 H   0  0  0  0  0  0  0  0  0  0  0  0
   58.1014   33.5405   49.0553 H   0  0  0  0  0  0  0  0  0  0  0  0
   60.0976   34.2059   50.3796 H   0  0  0  0  0  0  0  0  0  0  0  0
   60.6371   32.6920   45.6537 H   0  0  0  0  0  0  0  0  0  0  0  0
  1  2  2  0
  2  3  1  0
  3  4  2  0
  4  5  1  0
  5  6  1  0
  6  7  1  0
  7  8  2  0
  7  9  1  0
  9 10  1  0
 10 11  1  0
 11 12  1  0
 12 13  1  0
 13 14  1  0
 14 15  1  0
 15 16  1  0
 16 17  2  0
 16 18  1  0
  6 19  2  0
  2 20  1  0
 20 21  2  0
 21 22  1  0
 22 23  2  0
 23 24  1  0
 23 25  1  0
 25 26  1  0
 26 27  2  0
 26 28  1  0
 25 29  2  0
 19  3  1  0
 29 20  1  0
 15 10  1  0
  4 30  1  0
  5 31  1  0
  9 32  1  0
 10 33  1  6
 11 34  1  0
 11 35  1  0
 12 36  1  0
 12 37  1  0
 13 38  1  0
 13 39  1  0
 14 40  1  0
 14 41  1  0
 15 42  1  6
 19 43  1  0
 21 44  1  0
 22 45  1  0
 29 46  1  0
M  CHG  3  18  -1  26   1  28  -1
M  END
>  <UniqueID>  (10) 
9

>  <SMILES>  (10) 
O=C(c1c[nH]c(C(=O)N[C@H]2CCCC[C@H]2C(=O)[O-])c1)c1ccc(Cl)c([N+](=O)[O-])c1

>  <Energy>  (10) 
85.27245535535685

>  <Genealogy>  (10) 
O=C(c1c[nH]c(C(=O)NC2CCCCC2C(=O)[O-])c1)c1ccc(Cl)c([N+](=O)[O-])c1 (protonated)
O=C(c1c[nH]c(C(=O)N[C@H]2CCCC[C@H]2C(=O)[O-])c1)c1ccc(Cl)c([N+](=O)[O-])c1 (chirality)
O=C(c1c[nH]c(C(=O)N[C@H]2CCCC[C@H]2C(=O)[O-])c1)c1ccc(Cl)c([N+](=O)[O-])c1 (3D coordinates assigned)
O=C(c1c[nH]c(C(=O)N[C@H]2CCCC[C@H]2C(=O)[O-])c1)c1ccc(Cl)c([N+](=O)[O-])c1 (nonaromatic ring conformer: 85.27245535535685 kcal/mol)

>  <smiles>  (10) 
O=C(c1c[nH]c(C(=O)NC2CCCCC2C(=O)O)c1)c1ccc(Cl)c([N+](=O)[O-])c1

>  <score_type>  (10) 
oracle

>  <origin>  (10) 
adg

>  <m_score__min__energy>  (10) 
-12.76

>  <m_primary>  (10) 
energy

$$$$
10:0
     RDKit          3D

 35 37  0  0  0  0  0  0  0  0999 V2000
   53.7310   23.7550   44.4820 C   0  0  0  0  0  0  0  0  0  0  0  0
   55.1090   24.0420   44.9140 N   0  0  0  0  0  0  0  0  0  0  0  0
   55.3790   25.1850   45.6320 C   0  0  0  0  0  0  0  0  0  0  0  0
   54.4660   25.9940   45.9540 O   0  0  0  0  0  0  0  0  0  0  0  0
   56.6910   25.4370   45.9900 C   0  0  0  0  0  0  0  0  0  0  0  0
   57.2110   26.4710   46.6640 N   0  0  0  0  0  0  0  0  0  0  0  0
   58.5410   26.2060   46.6850 C   0  0  0  0  0  0  0  0  0  0  0  0
   59.5140   27.0830   47.3700 C   0  0  0  0  0  0  0  0  0  0  0  0
   60.1060   28.1560   46.8260 C   0  0  0  0  0  0  0  0  0  0  0  0
   59.4130   29.4110   46.4660 C   0  0  0  0  0  0  0  0  0  0  0  0
   59.4920   30.5270   47.3170 C   0  0  0  0  0  0  0  0  0  0  0  0
   58.8510   31.7220   46.9790 C   0  0  0  0  0  0  0  0  0  0  0  0
   58.1410   31.8200   45.7790 C   0  0  0  0  0  0  0  0  0  0  0  0
   57.3340   33.3190   45.3580 Cl  0  0  0  0  0  0  0  0  0  0  0  0
   58.0810   30.7250   44.9120 C   0  0  0  0  0  0  0  0  0  0  0  0
   58.7200   29.5240   45.2440 C   0  0  0  0  0  0  0  0  0  0  0  0
   58.6050   28.1680   44.1260 Cl  0  0  0  0  0  0  0  0  0  0  0  0
   58.8700   25.0400   46.0660 N   0  0  0  0  0  0  0  0  0  0  0  0
   57.6780   24.5890   45.6330 C   0  0  0  0  0  0  0  0  0  0  0  0
   57.4410   23.4590   44.9150 N   0  0  0  0  0  0  0  0  0  0  0  0
   58.5500   22.5940   44.4890 C   0  0  0  0  0  0  0  0  0  0  0  0
   56.1420   23.2000   44.5310 C   0  0  0  0  0  0  0  0  0  0  0  0
   55.8950   22.1890   43.8130 O   0  0  0  0  0  0  0  0  0  0  0  0
   53.0899   23.6215   45.3659 H   0  0  0  0  0  0  0  0  0  0  0  0
   53.3537   24.5938   43.8787 H   0  0  0  0  0  0  0  0  0  0  0  0
   53.7199   22.8353   43.8787 H   0  0  0  0  0  0  0  0  0  0  0  0
   56.7100   27.2920   47.0730 H   0  0  0  0  0  0  0  0  0  0  0  0
   59.7733   26.8353   48.4099 H   0  0  0  0  0  0  0  0  0  0  0  0
   61.1874   28.0981   46.6333 H   0  0  0  0  0  0  0  0  0  0  0  0
   60.0622   30.4593   48.2553 H   0  0  0  0  0  0  0  0  0  0  0  0
   58.9053   32.5859   47.6577 H   0  0  0  0  0  0  0  0  0  0  0  0
   57.5290   30.8072   43.9641 H   0  0  0  0  0  0  0  0  0  0  0  0
   59.0638   22.1933   45.3753 H   0  0  0  0  0  0  0  0  0  0  0  0
   58.1558   21.7624   43.8864 H   0  0  0  0  0  0  0  0  0  0  0  0
   59.2606   23.1788   43.8864 H   0  0  0  0  0  0  0  0  0  0  0  0
  1  2  1  0
  2  3  1  0
  3  4  2  0
  3  5  1  0
  5  6  1  0
  6  7  1  0
  7  8  1  0
  8  9  2  3
  9 10  1  0
 10 11  2  0
 11 12  1  0
 12 13  2  0
 13 14  1  0
 13 15  1  0
 15 16  2  0
 16 17  1  0
  7 18  2  0
 18 19  1  0
 19 20  1  0
 20 21  1  0
 20 22  1  0
 22 23  2  0
 22  2  1  0
 19  5  2  0
 16 10  1  0
  1 24  1  0
  1 25  1  0
  1 26  1  0
  6 27  1  0
  8 28  1  0
  9 29  1  0
 11 30  1  0
 12 31  1  0
 15 32  1  0
 21 33  1  0
 21 34  1  0
 21 35  1  0
M  END
>  <UniqueID>  (11) 
10

>  <SMILES>  (11) 
Cn1c(=O)c2[nH]c(C=Cc3ccc(Cl)cc3Cl)nc2n(C)c1=O

>  <Energy>  (11) 
88.62201339989969

>  <Genealogy>  (11) 
Cn1c(=O)c2[nH]c(C=Cc3ccc(Cl)cc3Cl)nc2n(C)c1=O (3D coordinates assigned)
Cn1c(=O)c2[nH]c(C=Cc3ccc(Cl)cc3Cl)nc2n(C)c1=O (optimized conformer: 88.62201339989969 kcal/mol)

>  <smiles>  (11) 
Cn1c(=O)c2[nH]c(C=Cc3ccc(Cl)cc3Cl)nc2n(C)c1=O

>  <score_type>  (11) 
oracle

>  <origin>  (11) 
adg

>  <m_score__min__energy>  (11) 
-7.6699999999999999

>  <m_primary>  (11) 
energy

$$$$
11:0
     RDKit          3D

 53 57  0  0  0  0  0  0  0  0999 V2000
   65.5311   32.2612   49.5233 H   0  0  0  0  0  0  0  0  0  0  0  0
   64.4940   32.4070   49.1870 C   0  0  0  0  0  0  0  0  0  0  0  0
   64.2300   33.1650   48.0430 C   0  0  0  0  0  0  0  0  0  0  0  0
   65.0598   33.6183   47.4809 H   0  0  0  0  0  0  0  0  0  0  0  0
   62.9130   33.3480   47.6120 C   0  0  0  0  0  0  0  0  0  0  0  0
   62.7098   33.9472   46.7122 H   0  0  0  0  0  0  0  0  0  0  0  0
   61.8470   32.7700   48.3230 C   0  0  0  0  0  0  0  0  0  0  0  0
   60.4190   32.9600   47.8590 C   0  0  0  0  0  0  0  0  0  0  0  0
   60.3798   33.8242   47.1796 H   0  0  0  0  0  0  0  0  0  0  0  0
   59.7942   33.1208   48.7500 H   0  0  0  0  0  0  0  0  0  0  0  0
   59.8950   31.7680   47.1460 N   0  0  1  0  0  0  0  0  0  0  0  0
   59.4610   32.0950   46.2480 H   0  0  0  0  0  0  0  0  0  0  0  0
   61.0250   30.8750   46.7640 C   0  0  0  0  0  0  0  0  0  0  0  0
   61.4580   31.2359   45.8194 H   0  0  0  0  0  0  0  0  0  0  0  0
   61.7643   30.8988   47.5782 H   0  0  0  0  0  0  0  0  0  0  0  0
   60.5770   29.4220   46.5780 C   0  0  0  0  0  0  0  0  0  0  0  0
   59.7592   29.3834   45.8434 H   0  0  0  0  0  0  0  0  0  0  0  0
   61.4270   28.8233   46.2188 H   0  0  0  0  0  0  0  0  0  0  0  0
   60.0850   28.8510   47.9210 C   0  0  2  0  0  0  0  0  0  0  0  0
   60.9681   28.5482   48.5028 H   0  0  0  0  0  0  0  0  0  0  0  0
   59.2510   27.6640   47.6910 N   0  0  0  0  0  0  0  0  0  0  0  0
   59.3410   26.4340   48.2660 C   0  0  0  0  0  0  0  0  0  0  0  0
   60.1469   26.1490   48.9582 H   0  0  0  0  0  0  0  0  0  0  0  0
   58.3360   25.5900   47.9010 N   0  0  0  0  0  0  0  0  0  0  0  0
   57.5950   26.3530   47.0750 C   0  0  0  0  0  0  0  0  0  0  0  0
   56.4190   26.0470   46.4080 C   0  0  0  0  0  0  0  0  0  0  0  0
   55.8920   24.9070   46.4950 O   0  0  0  0  0  0  0  0  0  0  0  0
   55.8410   27.0260   45.6500 N   0  0  0  0  0  0  0  0  0  0  0  0
   56.3950   28.2790   45.5530 C   0  0  0  0  0  0  0  0  0  0  0  0
   55.8130   29.1710   44.8050 N   0  0  0  0  0  0  0  0  0  0  0  0
   56.4570   30.1980   44.0310 C   0  0  0  0  0  0  0  0  0  0  0  0
   57.2980   31.1070   44.6890 C   0  0  0  0  0  0  0  0  0  0  0  0
   57.4344   31.0358   45.7782 H   0  0  0  0  0  0  0  0  0  0  0  0
   57.9640   32.1030   43.9690 C   0  0  0  0  0  0  0  0  0  0  0  0
   58.6076   32.8238   44.4946 H   0  0  0  0  0  0  0  0  0  0  0  0
   57.8130   32.1840   42.5820 C   0  0  0  0  0  0  0  0  0  0  0  0
   58.4640   33.1480   41.8840 F   0  0  0  0  0  0  0  0  0  0  0  0
   57.0040   31.2630   41.9120 C   0  0  0  0  0  0  0  0  0  0  0  0
   56.8925   31.3224   40.8193 H   0  0  0  0  0  0  0  0  0  0  0  0
   56.3360   30.2660   42.6290 C   0  0  0  0  0  0  0  0  0  0  0  0
   55.7135   29.5318   42.0965 H   0  0  0  0  0  0  0  0  0  0  0  0
   57.5630   28.5610   46.2110 N   0  0  0  0  0  0  0  0  0  0  0  0
   58.1330   27.5850   46.9570 C   0  0  0  0  0  0  0  0  0  0  0  0
   59.3500   29.9120   48.7760 C   0  0  0  0  0  0  0  0  0  0  0  0
   58.5005   29.4318   49.2837 H   0  0  0  0  0  0  0  0  0  0  0  0
   60.0697   30.3202   49.5008 H   0  0  0  0  0  0  0  0  0  0  0  0
   58.8230   31.0790   47.9240 C   0  0  0  0  0  0  0  0  0  0  0  0
   58.0753   30.6875   47.2186 H   0  0  0  0  0  0  0  0  0  0  0  0
   58.3913   31.8193   48.6136 H   0  0  0  0  0  0  0  0  0  0  0  0
   62.1210   32.0150   49.4760 C   0  0  0  0  0  0  0  0  0  0  0  0
   61.2941   31.5643   50.0444 H   0  0  0  0  0  0  0  0  0  0  0  0
   63.4390   31.8340   49.9040 C   0  0  0  0  0  0  0  0  0  0  0  0
   63.6468   31.2399   50.8062 H   0  0  0  0  0  0  0  0  0  0  0  0
  1  2  1  0
  2  3  2  0
  3  4  1  0
  3  5  1  0
  5  6  1  0
  5  7  2  0
  7  8  1  0
  8  9  1  0
  8 10  1  0
  8 11  1  0
 11 12  1  1
 11 13  1  0
 13 14  1  0
 13 15  1  0
 13 16  1  0
 16 17  1  0
 16 18  1  0
 16 19  1  0
 19 20  1  6
 19 21  1  0
 21 22  1  0
 22 23  1  0
 22 24  2  0
 24 25  1  0
 25 26  1  0
 26 27  2  0
 26 28  1  0
 28 29  1  0
 29 30  2  0
 30 31  1  0
 31 32  2  0
 32 33  1  0
 32 34  1  0
 34 35  1  0
 34 36  2  0
 36 37  1  0
 36 38  1  0
 38 39  1  0
 38 40  2  0
 40 41  1  0
 29 42  1  0
 42 43  1  0
 19 44  1  0
 44 45  1  0
 44 46  1  0
 44 47  1  0
 47 48  1  0
 47 49  1  0
  7 50  1  0
 50 51  1  0
 50 52  2  0
 52 53  1  0
 52  2  1  0
 47 11  1  0
 43 21  1  0
 43 25  2  0
 40 31  1  0
M  CHG  3  11   1  28  -1  42  -1
M  END
>  <UniqueID>  (12) 
11

>  <SMILES>  (12) 
O=c1[n-]/c(=N/c2ccc(F)cc2)[n-]c2c1ncn2C1CC[NH+](Cc2ccccc2)CC1

>  <Energy>  (12) 
115.26630878752736

>  <Genealogy>  (12) 
O=c1[n-]c(=Nc2ccc(F)cc2)[n-]c2c1ncn2C1CC[NH+](Cc2ccccc2)CC1 (protonated)
O=c1[n-]/c(=N/c2ccc(F)cc2)[n-]c2c1ncn2C1CC[NH+](Cc2ccccc2)CC1 (cis-trans isomerization)
O=c1[n-]/c(=N/c2ccc(F)cc2)[n-]c2c1ncn2C1CC[NH+](Cc2ccccc2)CC1 (3D coordinates assigned)
O=c1[n-]/c(=N/c2ccc(F)cc2)[n-]c2c1ncn2C1CC[NH+](Cc2ccccc2)CC1 (nonaromatic ring conformer: 115.26630878752736 kcal/mol)

>  <smiles>  (12) 
O=c1[nH]c(=Nc2ccc(F)cc2)[nH]c2c1ncn2C1CCN(Cc2ccccc2)CC1

>  <score_type>  (12) 
oracle

>  <origin>  (12) 
adg

>  <m_score__min__energy>  (12) 
-10.539999999999999

>  <m_primary>  (12) 
energy

$$$$
12:0
     RDKit          3D

 55 58  0  0  0  0  0  0  0  0999 V2000
   62.3000   33.8360   50.9820 C   0  0  0  0  0  0  0  0  0  0  0  0
   60.8800   33.9240   51.0370 O   0  0  0  0  0  0  0  0  0  0  0  0
   60.0200   33.5250   50.0010 C   0  0  0  0  0  0  0  0  0  0  0  0
   59.8160   34.4040   48.9330 C   0  0  0  0  0  0  0  0  0  0  0  0
   58.9690   34.0530   47.8780 C   0  0  0  0  0  0  0  0  0  0  0  0
   58.3250   32.8100   47.8660 C   0  0  0  0  0  0  0  0  0  0  0  0
   57.4420   32.5030   46.7780 N   0  0  0  0  0  0  0  0  0  0  0  0
   57.8150   32.2510   45.4180 C   0  0  0  0  0  0  0  0  0  0  0  0
   58.6240   33.0080   44.8170 O   0  0  0  0  0  0  0  0  0  0  0  0
   57.2200   31.0830   44.6980 C   0  0  0  0  0  0  0  0  0  0  0  0
   57.6620   29.8030   45.3520 C   0  0  0  0  0  0  0  0  0  0  0  0
   56.8690   28.6930   45.5440 C   0  0  0  0  0  0  0  0  0  0  0  0
   55.5230   28.5880   45.2160 O   0  0  0  0  0  0  0  0  0  0  0  0
   57.6050   27.6990   46.0800 N   0  0  0  0  0  0  0  0  0  0  0  0
   57.1360   26.3880   46.4430 C   0  0  0  0  0  0  0  0  0  0  0  0
   57.7260   25.6880   47.5090 C   0  0  0  0  0  0  0  0  0  0  0  0
   57.2690   24.4120   47.8510 C   0  0  0  0  0  0  0  0  0  0  0  0
   56.2280   23.8230   47.1300 C   0  0  0  0  0  0  0  0  0  0  0  0
   55.6430   24.5090   46.0620 C   0  0  0  0  0  0  0  0  0  0  0  0
   56.0960   25.7860   45.7160 C   0  0  0  0  0  0  0  0  0  0  0  0
   58.8520   28.2180   46.2010 C   0  0  0  0  0  0  0  0  0  0  0  0
   60.1160   27.4180   46.8860 S   0  0  0  0  0  0  0  0  0  0  0  0
   58.9190   29.5000   45.7580 N   0  0  0  0  0  0  0  0  0  0  0  0
   60.0910   30.3880   45.7910 C   0  0  0  0  0  0  0  0  0  0  0  0
   60.7010   30.4590   47.1970 C   0  0  0  0  0  0  0  0  0  0  0  0
   61.6740   31.5990   47.3300 C   0  0  0  0  0  0  0  0  0  0  0  0
   61.4810   32.7870   46.6090 C   0  0  0  0  0  0  0  0  0  0  0  0
   62.4240   33.8140   46.7080 C   0  0  0  0  0  0  0  0  0  0  0  0
   63.5180   33.6600   47.4990 N   0  0  0  0  0  0  0  0  0  0  0  0
   63.7320   32.5200   48.2080 C   0  0  0  0  0  0  0  0  0  0  0  0
   62.8160   31.4670   48.1350 C   0  0  0  0  0  0  0  0  0  0  0  0
   58.5090   31.9320   48.9510 C   0  0  0  0  0  0  0  0  0  0  0  0
   59.3570   32.2830   50.0050 C   0  0  0  0  0  0  0  0  0  0  0  0
   62.7057   33.8109   52.0042 H   0  0  0  0  0  0  0  0  0  0  0  0
   62.5901   32.9181   50.4497 H   0  0  0  0  0  0  0  0  0  0  0  0
   62.7013   34.7110   50.4497 H   0  0  0  0  0  0  0  0  0  0  0  0
   60.3257   35.3787   48.9230 H   0  0  0  0  0  0  0  0  0  0  0  0
   58.8071   34.7592   47.0503 H   0  0  0  0  0  0  0  0  0  0  0  0
   56.1228   31.1518   44.7344 H   0  0  0  0  0  0  0  0  0  0  0  0
   57.5572   31.0914   43.6510 H   0  0  0  0  0  0  0  0  0  0  0  0
   58.5500   26.1455   48.0761 H   0  0  0  0  0  0  0  0  0  0  0  0
   57.7304   23.8705   48.6900 H   0  0  0  0  0  0  0  0  0  0  0  0
   55.8687   22.8197   47.4025 H   0  0  0  0  0  0  0  0  0  0  0  0
   54.8249   24.0437   45.4927 H   0  0  0  0  0  0  0  0  0  0  0  0
   55.6363   26.3207   44.8717 H   0  0  0  0  0  0  0  0  0  0  0  0
   60.8489   30.0063   45.0911 H   0  0  0  0  0  0  0  0  0  0  0  0
   59.7672   31.3990   45.5030 H   0  0  0  0  0  0  0  0  0  0  0  0
   59.8915   30.5952   47.9293 H   0  0  0  0  0  0  0  0  0  0  0  0
   61.2473   29.5218   47.3791 H   0  0  0  0  0  0  0  0  0  0  0  0
   60.5938   32.9094   45.9703 H   0  0  0  0  0  0  0  0  0  0  0  0
   62.2803   34.7480   46.1449 H   0  0  0  0  0  0  0  0  0  0  0  0
   64.6274   32.4262   48.8400 H   0  0  0  0  0  0  0  0  0  0  0  0
   62.9888   30.5417   48.7042 H   0  0  0  0  0  0  0  0  0  0  0  0
   57.9833   30.9659   48.9693 H   0  0  0  0  0  0  0  0  0  0  0  0
   59.5072   31.5853   50.8420 H   0  0  0  0  0  0  0  0  0  0  0  0
  1  2  1  0
  2  3  1  0
  3  4  2  0
  4  5  1  0
  5  6  2  0
  6  7  1  0
  7  8  1  0
  8  9  2  0
  8 10  1  0
 10 11  1  0
 11 12  2  0
 12 13  1  0
 12 14  1  0
 14 15  1  0
 15 16  2  0
 16 17  1  0
 17 18  2  0
 18 19  1  0
 19 20  2  0
 14 21  1  0
 21 22  2  0
 21 23  1  0
 23 24  1  0
 24 25  1  0
 25 26  1  0
 26 27  2  0
 27 28  1  0
 28 29  2  0
 29 30  1  0
 30 31  2  0
  6 32  1  0
 32 33  2  0
 33  3  1  0
 23 11  1  0
 31 26  1  0
 20 15  1  0
  1 34  1  0
  1 35  1  0
  1 36  1  0
  4 37  1  0
  5 38  1  0
 10 39  1  0
 10 40  1  0
 16 41  1  0
 17 42  1  0
 18 43  1  0
 19 44  1  0
 20 45  1  0
 24 46  1  0
 24 47  1  0
 25 48  1  0
 25 49  1  0
 27 50  1  0
 28 51  1  0
 30 52  1  0
 31 53  1  0
 32 54  1  0
 33 55  1  0
M  CHG  2   7  -1  13  -1
M  END
>  <UniqueID>  (13) 
12

>  <SMILES>  (13) 
COc1ccc([N-]C(=O)Cc2c([O-])n(-c3ccccc3)c(=S)n2CCc2ccncc2)cc1

>  <Energy>  (13) 
96.9282214284379

>  <Genealogy>  (13) 
COc1ccc([N-]C(=O)Cc2c([O-])n(-c3ccccc3)c(=S)n2CCc2ccncc2)cc1 (protonated)
COc1ccc([N-]C(=O)Cc2c([O-])n(-c3ccccc3)c(=S)n2CCc2ccncc2)cc1 (3D coordinates assigned)
COc1ccc([N-]C(=O)Cc2c([O-])n(-c3ccccc3)c(=S)n2CCc2ccncc2)cc1 (optimized conformer: 96.9282214284379 kcal/mol)

>  <smiles>  (13) 
COc1ccc(NC(=O)Cc2c(O)n(-c3ccccc3)c(=S)n2CCc2ccncc2)cc1

>  <score_type>  (13) 
oracle

>  <origin>  (13) 
adg

>  <m_score__min__energy>  (13) 
-11.99

>  <m_primary>  (13) 
energy

$$$$
13:0
     RDKit          3D

 47 50  0  0  0  0  0  0  0  0999 V2000
   58.7650   29.7060   43.5380 H   0  0  0  0  0  0  0  0  0  0  0  0
   59.5780   29.6560   44.1400 O   0  0  0  0  0  0  0  0  0  0  0  0
   59.4870   29.3380   45.4970 C   0  0  0  0  0  0  0  0  0  0  0  0
   60.5910   29.5640   46.3230 C   0  0  0  0  0  0  0  0  0  0  0  0
   61.5151   29.9857   45.9008 H   0  0  0  0  0  0  0  0  0  0  0  0
   60.5240   29.2560   47.6820 C   0  0  0  0  0  0  0  0  0  0  0  0
   61.3920   29.4292   48.3351 H   0  0  0  0  0  0  0  0  0  0  0  0
   59.3440   28.7260   48.2030 C   0  0  0  0  0  0  0  0  0  0  0  0
   59.2763   28.4826   49.2736 H   0  0  0  0  0  0  0  0  0  0  0  0
   58.2770   28.5100   47.3880 N   0  0  0  0  0  0  0  0  0  0  0  0
   58.3110   28.7990   46.0550 C   0  0  0  0  0  0  0  0  0  0  0  0
   57.2780   28.5730   45.2920 N   0  0  0  0  0  0  0  0  0  0  0  0
   56.3820   29.5430   44.7270 C   0  0  0  0  0  0  0  0  0  0  0  0
   55.1420   29.3390   44.8110 O   0  0  0  0  0  0  0  0  0  0  0  0
   56.8770   30.6940   44.0270 N   0  0  0  0  0  0  0  0  0  0  0  0
   57.5860   31.8010   44.6000 C   0  0  0  0  0  0  0  0  0  0  0  0
   57.6980   31.9750   45.9910 C   0  0  0  0  0  0  0  0  0  0  0  0
   57.2111   31.2631   46.6737 H   0  0  0  0  0  0  0  0  0  0  0  0
   58.4270   33.0510   46.5090 C   0  0  0  0  0  0  0  0  0  0  0  0
   58.5044   33.1876   47.5977 H   0  0  0  0  0  0  0  0  0  0  0  0
   59.0580   33.9540   45.6460 C   0  0  0  0  0  0  0  0  0  0  0  0
   59.9940   35.3310   46.3130 S   0  0  0  0  0  0  0  0  0  0  0  0
   61.0880   34.2580   47.2470 C   0  0  0  0  0  0  0  0  0  0  0  0
   62.2980   33.8050   46.6860 C   0  0  0  0  0  0  0  0  0  0  0  0
   62.5708   34.1024   45.6627 H   0  0  0  0  0  0  0  0  0  0  0  0
   63.1630   32.9720   47.4280 C   0  0  0  0  0  0  0  0  0  0  0  0
   64.1058   32.6267   46.9786 H   0  0  0  0  0  0  0  0  0  0  0  0
   62.8300   32.5800   48.7360 C   0  0  0  0  0  0  0  0  0  0  0  0
   63.4986   31.9330   49.3228 H   0  0  0  0  0  0  0  0  0  0  0  0
   61.6250   33.0380   49.2650 C   0  0  0  0  0  0  0  0  0  0  0  0
   60.7800   33.8470   48.5470 C   0  0  0  0  0  0  0  0  0  0  0  0
   59.6870   34.1130   49.3470 C   0  0  0  0  0  0  0  0  0  0  0  0
   58.8085   34.7263   49.0977 H   0  0  0  0  0  0  0  0  0  0  0  0
   59.9380   33.4360   50.5390 C   0  0  0  0  0  0  0  0  0  0  0  0
   59.0550   33.4270   51.7120 C   0  0  0  0  0  0  0  0  0  0  0  0
   58.8310   34.4990   52.3390 O   0  0  0  0  0  0  0  0  0  0  0  0
   58.4720   32.2270   52.1280 O   0  0  0  0  0  0  0  0  0  0  0  0
   58.0970   31.2000   51.2190 C   0  0  0  0  0  0  0  0  0  0  0  0
   57.7729   30.3124   51.7821 H   0  0  0  0  0  0  0  0  0  0  0  0
   57.2703   31.5546   50.5859 H   0  0  0  0  0  0  0  0  0  0  0  0
   58.9577   30.9385   50.5859 H   0  0  0  0  0  0  0  0  0  0  0  0
   61.1230   32.7810   50.4850 N   0  0  0  0  0  0  0  0  0  0  0  0
   61.5580   32.1950   51.2340 H   0  0  0  0  0  0  0  0  0  0  0  0
   58.9570   33.7780   44.2610 C   0  0  0  0  0  0  0  0  0  0  0  0
   59.4458   34.4899   43.5796 H   0  0  0  0  0  0  0  0  0  0  0  0
   58.2360   32.6990   43.7430 C   0  0  0  0  0  0  0  0  0  0  0  0
   58.1782   32.5534   42.6542 H   0  0  0  0  0  0  0  0  0  0  0  0
  1  2  1  0
  2  3  1  0
  3  4  2  0
  4  5  1  0
  4  6  1  0
  6  7  1  0
  6  8  2  0
  8  9  1  0
  8 10  1  0
 10 11  1  0
 11 12  2  0
 12 13  1  0
 13 14  2  0
 13 15  1  0
 15 16  1  0
 16 17  2  0
 17 18  1  0
 17 19  1  0
 19 20  1  0
 19 21  2  0
 21 22  1  0
 22 23  1  0
 23 24  2  0
 24 25  1  0
 24 26  1  0
 26 27  1  0
 26 28  2  0
 28 29  1  0
 28 30  1  0
 30 31  2  0
 31 32  1  0
 32 33  1  0
 32 34  2  0
 34 35  1  0
 35 36  2  0
 35 37  1  0
 37 38  1  0
 38 39  1  0
 38 40  1  0
 38 41  1  0
 34 42  1  0
 42 43  1  0
 21 44  1  0
 44 45  1  0
 44 46  2  0
 46 47  1  0
 11  3  1  0
 46 16  1  0
 31 23  1  0
 42 30  1  0
M  CHG  2  10  -1  15  -1
M  END
>  <UniqueID>  (14) 
13

>  <SMILES>  (14) 
COC(=O)c1cc2c(Sc3ccc([N-]C(=O)/N=c4\[n-]cccc4O)cc3)cccc2[nH]1

>  <Energy>  (14) 
83.41929288496064

>  <Genealogy>  (14) 
COC(=O)c1cc2c(Sc3ccc([N-]C(=O)N=c4[n-]cccc4O)cc3)cccc2[nH]1 (protonated)
COC(=O)c1cc2c(Sc3ccc([N-]C(=O)/N=c4\[n-]cccc4O)cc3)cccc2[nH]1 (cis-trans isomerization)
COC(=O)c1cc2c(Sc3ccc([N-]C(=O)/N=c4\[n-]cccc4O)cc3)cccc2[nH]1 (3D coordinates assigned)
COC(=O)c1cc2c(Sc3ccc([N-]C(=O)/N=c4\[n-]cccc4O)cc3)cccc2[nH]1 (optimized conformer: 83.41929288496064 kcal/mol)

>  <smiles>  (14) 
COC(=O)c1cc2c(Sc3ccc(NC(=O)N=c4[nH]cccc4O)cc3)cccc2[nH]1

>  <score_type>  (14) 
oracle

>  <origin>  (14) 
adg

>  <m_score__min__energy>  (14) 
-12.82

>  <m_primary>  (14) 
energy

$$$$
14:0
     RDKit          3D

 58 62  0  0  0  0  0  0  0  0999 V2000
   58.1730   33.8560   52.6040 C   0  0  0  0  0  0  0  0  0  0  0  0
   58.9170   33.2920   51.4360 C   0  0  0  0  0  0  0  0  0  0  0  0
   59.5190   34.0380   50.4300 C   0  0  0  0  0  0  0  0  0  0  0  0
   60.0800   33.2210   49.5080 N   0  0  0  0  0  0  0  0  0  0  0  0
   60.7010   33.6540   48.2560 C   0  0  0  0  0  0  0  0  0  0  0  0
   59.6520   33.8190   47.1900 C   0  0  0  0  0  0  0  0  0  0  0  0
   59.9440   34.5480   46.0250 C   0  0  0  0  0  0  0  0  0  0  0  0
   58.9620   34.7390   45.0470 C   0  0  0  0  0  0  0  0  0  0  0  0
   57.6830   34.2080   45.2280 C   0  0  0  0  0  0  0  0  0  0  0  0
   57.3820   33.4880   46.3860 C   0  0  0  0  0  0  0  0  0  0  0  0
   58.3590   33.2970   47.3680 C   0  0  0  0  0  0  0  0  0  0  0  0
   59.8240   31.9590   49.9150 C   0  0  0  0  0  0  0  0  0  0  0  0
   60.1820   30.7690   49.2810 C   0  0  0  0  0  0  0  0  0  0  0  0
   59.7800   29.5590   49.8830 C   0  0  0  0  0  0  0  0  0  0  0  0
   60.1040   28.2630   49.2540 C   0  0  0  0  0  0  0  0  0  0  0  0
   61.0570   27.5710   49.7070 O   0  0  0  0  0  0  0  0  0  0  0  0
   59.3640   27.8010   48.1120 N   0  0  0  0  0  0  0  0  0  0  0  0
   59.8630   26.7390   47.2380 C   0  0  0  0  0  0  0  0  0  0  0  0
   59.7890   27.1660   45.7670 C   0  0  0  0  0  0  0  0  0  0  0  0
   58.4180   27.6560   45.3980 C   0  0  0  0  0  0  0  0  0  0  0  0
   57.2120   27.0080   45.6490 C   0  0  0  0  0  0  0  0  0  0  0  0
   56.1700   27.7960   45.2970 N   0  0  0  0  0  0  0  0  0  0  0  0
   56.7080   28.9390   44.8370 C   0  0  0  0  0  0  0  0  0  0  0  0
   56.0300   30.0730   44.3900 C   0  0  0  0  0  0  0  0  0  0  0  0
   56.7970   31.1800   43.9830 C   0  0  0  0  0  0  0  0  0  0  0  0
   58.2070   31.1320   44.0360 C   0  0  0  0  0  0  0  0  0  0  0  0
   58.8650   29.9760   44.4950 C   0  0  0  0  0  0  0  0  0  0  0  0
   58.0790   28.8930   44.8850 C   0  0  0  0  0  0  0  0  0  0  0  0
   59.0620   29.5880   51.0480 N   0  0  0  0  0  0  0  0  0  0  0  0
   58.7150   30.7490   51.6790 C   0  0  0  0  0  0  0  0  0  0  0  0
   57.9310   30.6800   52.9520 C   0  0  0  0  0  0  0  0  0  0  0  0
   59.1140   31.9590   51.0920 C   0  0  0  0  0  0  0  0  0  0  0  0
   58.6361   33.5049   53.5379 H   0  0  0  0  0  0  0  0  0  0  0  0
   58.2103   34.9547   52.5666 H   0  0  0  0  0  0  0  0  0  0  0  0
   57.1252   33.5233   52.5666 H   0  0  0  0  0  0  0  0  0  0  0  0
   59.5371   35.1371   50.3887 H   0  0  0  0  0  0  0  0  0  0  0  0
   61.2116   34.6151   48.4162 H   0  0  0  0  0  0  0  0  0  0  0  0
   61.4276   32.8943   47.9323 H   0  0  0  0  0  0  0  0  0  0  0  0
   60.9494   34.9705   45.8812 H   0  0  0  0  0  0  0  0  0  0  0  0
   59.1973   35.3076   44.1352 H   0  0  0  0  0  0  0  0  0  0  0  0
   56.9121   34.3571   44.4577 H   0  0  0  0  0  0  0  0  0  0  0  0
   56.3741   33.0702   46.5260 H   0  0  0  0  0  0  0  0  0  0  0  0
   58.1150   32.7366   48.2825 H   0  0  0  0  0  0  0  0  0  0  0  0
   60.7580   30.7745   48.3439 H   0  0  0  0  0  0  0  0  0  0  0  0
   58.5430   28.3520   47.7760 H   0  0  0  0  0  0  0  0  0  0  0  0
   60.9091   26.5196   47.4978 H   0  0  0  0  0  0  0  0  0  0  0  0
   59.2386   25.8443   47.3777 H   0  0  0  0  0  0  0  0  0  0  0  0
   60.5148   27.9742   45.5937 H   0  0  0  0  0  0  0  0  0  0  0  0
   60.0184   26.2890   45.1439 H   0  0  0  0  0  0  0  0  0  0  0  0
   57.1191   25.9976   46.0737 H   0  0  0  0  0  0  0  0  0  0  0  0
   55.1550   27.5690   45.3910 H   0  0  0  0  0  0  0  0  0  0  0  0
   54.9309   30.1009   44.3568 H   0  0  0  0  0  0  0  0  0  0  0  0
   56.2946   32.0892   43.6210 H   0  0  0  0  0  0  0  0  0  0  0  0
   58.7955   32.0046   43.7162 H   0  0  0  0  0  0  0  0  0  0  0  0
   59.9629   29.9286   44.5444 H   0  0  0  0  0  0  0  0  0  0  0  0
   58.6176   30.7404   53.8092 H   0  0  0  0  0  0  0  0  0  0  0  0
   57.2208   31.5191   52.9912 H   0  0  0  0  0  0  0  0  0  0  0  0
   57.3783   29.7297   52.9912 H   0  0  0  0  0  0  0  0  0  0  0  0
  1  2  1  0
  2  3  2  0
  3  4  1  0
  4  5  1  0
  5  6  1  0
  6  7  2  0
  7  8  1  0
  8  9  2  0
  9 10  1  0
 10 11  2  0
  4 12  1  0
 12 13  2  0
 13 14  1  0
 14 15  1  0
 15 16  2  0
 15 17  1  0
 17 18  1  0
 18 19  1  0
 19 20  1  0
 20 21  2  0
 21 22  1  0
 22 23  1  0
 23 24  2  0
 24 25  1  0
 25 26  2  0
 26 27  1  0
 27 28  2  0
 14 29  2  0
 29 30  1  0
 30 31  1  0
 30 32  2  0
 32  2  1  0
 11  6  1  0
 32 12  1  0
 28 20  1  0
 28 23  1  0
  1 33  1  0
  1 34  1  0
  1 35  1  0
  3 36  1  0
  5 37  1  0
  5 38  1  0
  7 39  1  0
  8 40  1  0
  9 41  1  0
 10 42  1  0
 11 43  1  0
 13 44  1  0
 17 45  1  0
 18 46  1  0
 18 47  1  0
 19 48  1  0
 19 49  1  0
 21 50  1  0
 22 51  1  0
 24 52  1  0
 25 53  1  0
 26 54  1  0
 27 55  1  0
 31 56  1  0
 31 57  1  0
 31 58  1  0
M  END
>  <UniqueID>  (15) 
14

>  <SMILES>  (15) 
Cc1cn(Cc2ccccc2)c2cc(C(=O)NCCc3c[nH]c4ccccc34)nc(C)c12

>  <Energy>  (15) 
121.93911356003497

>  <Genealogy>  (15) 
Cc1cn(Cc2ccccc2)c2cc(C(=O)NCCc3c[nH]c4ccccc34)nc(C)c12 (3D coordinates assigned)
Cc1cn(Cc2ccccc2)c2cc(C(=O)NCCc3c[nH]c4ccccc34)nc(C)c12 (optimized conformer: 121.93911356003497 kcal/mol)

>  <smiles>  (15) 
Cc1cn(Cc2ccccc2)c2cc(C(=O)NCCc3c[nH]c4ccccc34)nc(C)c12

>  <score_type>  (15) 
oracle

>  <origin>  (15) 
adg

>  <m_score__min__energy>  (15) 
-9.7100000000000009

>  <m_primary>  (15) 
energy

$$$$
15:0
     RDKit          3D

 48 50  0  0  0  0  0  0  0  0999 V2000
   55.2050   26.3640   45.9890 N   0  0  0  0  0  0  0  0  0  0  0  0
   56.8520   25.9340   45.6990 S   0  0  0  0  0  0  0  0  0  0  0  0
   57.0410   25.6260   44.2390 O   0  0  0  0  0  0  0  0  0  0  0  0
   57.1970   24.7080   46.4990 O   0  0  0  0  0  0  0  0  0  0  0  0
   57.9040   27.2640   46.1720 C   0  0  0  0  0  0  0  0  0  0  0  0
   58.7850   27.8310   45.2440 C   0  0  0  0  0  0  0  0  0  0  0  0
   59.6130   28.8940   45.6190 C   0  0  0  0  0  0  0  0  0  0  0  0
   59.5800   29.3950   46.9290 C   0  0  0  0  0  0  0  0  0  0  0  0
   60.4360   30.4960   47.2800 N   0  0  0  0  0  0  0  0  0  0  0  0
   61.2810   30.5190   48.4440 C   0  0  0  0  0  0  0  0  0  0  0  0
   61.1320   29.6650   49.3600 O   0  0  0  0  0  0  0  0  0  0  0  0
   62.3430   31.5400   48.5790 C   0  0  0  0  0  0  0  0  0  0  0  0
   63.3170   31.3810   49.5800 C   0  0  0  0  0  0  0  0  0  0  0  0
   64.3260   32.3300   49.7440 C   0  0  0  0  0  0  0  0  0  0  0  0
   64.3850   33.4390   48.9010 C   0  0  0  0  0  0  0  0  0  0  0  0
   63.4380   33.6030   47.8880 C   0  0  0  0  0  0  0  0  0  0  0  0
   62.4130   32.6520   47.7100 C   0  0  0  0  0  0  0  0  0  0  0  0
   61.4730   32.7650   46.6300 N   0  0  0  0  0  0  0  0  0  0  0  0
   59.9350   33.5590   46.7000 S   0  0  0  0  0  0  0  0  0  0  0  0
   58.9330   32.6080   47.2900 O   0  0  0  0  0  0  0  0  0  0  0  0
   60.0520   34.7710   47.5820 O   0  0  0  0  0  0  0  0  0  0  0  0
   59.4380   34.0030   45.0670 C   0  0  0  0  0  0  0  0  0  0  0  0
   58.2010   33.8350   44.5790 C   0  0  0  0  0  0  0  0  0  0  0  0
   57.6680   32.5590   44.0620 C   0  0  0  0  0  0  0  0  0  0  0  0
   57.5520   32.3260   42.6800 C   0  0  0  0  0  0  0  0  0  0  0  0
   57.0360   31.1140   42.2120 C   0  0  0  0  0  0  0  0  0  0  0  0
   56.6050   30.1380   43.1200 C   0  0  0  0  0  0  0  0  0  0  0  0
   56.6910   30.3750   44.4950 C   0  0  0  0  0  0  0  0  0  0  0  0
   57.2110   31.5860   44.9650 C   0  0  0  0  0  0  0  0  0  0  0  0
   58.6710   28.8450   47.8480 C   0  0  0  0  0  0  0  0  0  0  0  0
   57.8410   27.7840   47.4710 C   0  0  0  0  0  0  0  0  0  0  0  0
   55.1650   27.4090   46.0160 H   0  0  0  0  0  0  0  0  0  0  0  0
   58.8263   27.4395   44.2169 H   0  0  0  0  0  0  0  0  0  0  0  0
   60.2955   29.3407   44.8810 H   0  0  0  0  0  0  0  0  0  0  0  0
   60.5420   31.2640   46.5780 H   0  0  0  0  0  0  0  0  0  0  0  0
   63.2832   30.5011   50.2393 H   0  0  0  0  0  0  0  0  0  0  0  0
   65.0757   32.2034   50.5390 H   0  0  0  0  0  0  0  0  0  0  0  0
   65.1802   34.1872   49.0344 H   0  0  0  0  0  0  0  0  0  0  0  0
   63.4922   34.4792   47.2252 H   0  0  0  0  0  0  0  0  0  0  0  0
   60.1946   34.4480   44.4040 H   0  0  0  0  0  0  0  0  0  0  0  0
   57.5353   34.7105   44.5625 H   0  0  0  0  0  0  0  0  0  0  0  0
   57.8683   33.0998   41.9651 H   0  0  0  0  0  0  0  0  0  0  0  0
   56.9683   30.9265   41.1302 H   0  0  0  0  0  0  0  0  0  0  0  0
   56.1987   29.1848   42.7508 H   0  0  0  0  0  0  0  0  0  0  0  0
   56.3499   29.6095   45.2075 H   0  0  0  0  0  0  0  0  0  0  0  0
   57.2620   31.7766   46.0472 H   0  0  0  0  0  0  0  0  0  0  0  0
   58.6116   29.2505   48.8688 H   0  0  0  0  0  0  0  0  0  0  0  0
   57.1354   27.3560   48.1983 H   0  0  0  0  0  0  0  0  0  0  0  0
  1  2  1  0
  2  3  2  0
  2  4  2  0
  2  5  1  0
  5  6  2  0
  6  7  1  0
  7  8  2  0
  8  9  1  0
  9 10  1  0
 10 11  2  0
 10 12  1  0
 12 13  2  0
 13 14  1  0
 14 15  2  0
 15 16  1  0
 16 17  2  0
 17 18  1  0
 18 19  1  0
 19 20  2  0
 19 21  2  0
 19 22  1  0
 22 23  2  3
 23 24  1  0
 24 25  2  0
 25 26  1  0
 26 27  2  0
 27 28  1  0
 28 29  2  0
  8 30  1  0
 30 31  2  0
 31  5  1  0
 17 12  1  0
 29 24  1  0
  1 32  1  0
  6 33  1  0
  7 34  1  0
  9 35  1  0
 13 36  1  0
 14 37  1  0
 15 38  1  0
 16 39  1  0
 22 40  1  0
 23 41  1  0
 25 42  1  0
 26 43  1  0
 27 44  1  0
 28 45  1  0
 29 46  1  0
 30 47  1  0
 31 48  1  0
M  CHG  2   1  -1  18  -1
M  END
>  <UniqueID>  (16) 
15

>  <SMILES>  (16) 
[NH-]S(=O)(=O)c1ccc(NC(=O)c2ccccc2[N-]S(=O)(=O)C=Cc2ccccc2)cc1

>  <Energy>  (16) 
69.77240205576435

>  <Genealogy>  (16) 
[NH-]S(=O)(=O)c1ccc(NC(=O)c2ccccc2[N-]S(=O)(=O)C=Cc2ccccc2)cc1 (protonated)
[NH-]S(=O)(=O)c1ccc(NC(=O)c2ccccc2[N-]S(=O)(=O)C=Cc2ccccc2)cc1 (3D coordinates assigned)
[NH-]S(=O)(=O)c1ccc(NC(=O)c2ccccc2[N-]S(=O)(=O)C=Cc2ccccc2)cc1 (optimized conformer: 69.77240205576435 kcal/mol)

>  <smiles>  (16) 
NS(=O)(=O)c1ccc(NC(=O)c2ccccc2NS(=O)(=O)C=Cc2ccccc2)cc1

>  <score_type>  (16) 
oracle

>  <origin>  (16) 
adg

>  <m_score__min__energy>  (16) 
-13.210000000000001

>  <m_primary>  (16) 
energy

$$$$
16:0
     RDKit          3D

 40 41  0  0  0  0  0  0  0  0999 V2000
   57.6550   21.4410   43.3320 C   0  0  0  0  0  0  0  0  0  0  0  0
   56.2900   22.1170   43.4040 C   0  0  0  0  0  0  0  0  0  0  0  0
   56.4030   23.4780   44.0380 C   0  0  0  0  0  0  0  0  0  0  0  0
   55.5140   23.8630   45.0540 C   0  0  0  0  0  0  0  0  0  0  0  0
   55.6390   25.1150   45.6630 C   0  0  0  0  0  0  0  0  0  0  0  0
   56.6620   25.9950   45.2720 C   0  0  0  0  0  0  0  0  0  0  0  0
   56.7880   27.3520   45.9080 C   0  0  0  0  0  0  0  0  0  0  0  0
   55.9070   28.3070   45.2440 N   0  0  0  0  0  0  0  0  0  0  0  0
   56.3470   29.5760   44.7470 C   0  0  0  0  0  0  0  0  0  0  0  0
   55.5250   30.3860   44.2420 O   0  0  0  0  0  0  0  0  0  0  0  0
   57.7870   29.9580   44.8730 C   0  0  0  0  0  0  0  0  0  0  0  0
   58.2000   30.3450   46.6090 S   0  0  0  0  0  0  0  0  0  0  0  0
   58.7910   32.0110   46.2670 C   0  0  0  0  0  0  0  0  0  0  0  0
   60.1010   32.3440   46.6400 C   0  0  0  0  0  0  0  0  0  0  0  0
   60.6060   33.6210   46.3850 C   0  0  0  0  0  0  0  0  0  0  0  0
   59.8040   34.5780   45.7650 C   0  0  0  0  0  0  0  0  0  0  0  0
   58.4920   34.2630   45.3990 C   0  0  0  0  0  0  0  0  0  0  0  0
   57.9730   32.9830   45.6470 C   0  0  0  0  0  0  0  0  0  0  0  0
   56.6240   32.6890   45.2620 N   0  0  0  0  0  0  0  0  0  0  0  0
   57.5540   25.6060   44.2630 C   0  0  0  0  0  0  0  0  0  0  0  0
   57.4310   24.3540   43.6540 C   0  0  0  0  0  0  0  0  0  0  0  0
   58.0271   21.2567   44.3506 H   0  0  0  0  0  0  0  0  0  0  0  0
   57.5627   20.4845   42.7967 H   0  0  0  0  0  0  0  0  0  0  0  0
   58.3599   22.0942   42.7967 H   0  0  0  0  0  0  0  0  0  0  0  0
   55.8864   22.2250   42.3864 H   0  0  0  0  0  0  0  0  0  0  0  0
   55.6197   21.4961   44.0165 H   0  0  0  0  0  0  0  0  0  0  0  0
   54.7156   23.1765   45.3722 H   0  0  0  0  0  0  0  0  0  0  0  0
   54.9329   25.4127   46.4522 H   0  0  0  0  0  0  0  0  0  0  0  0
   56.5118   27.2817   46.9704 H   0  0  0  0  0  0  0  0  0  0  0  0
   57.8278   27.6973   45.8106 H   0  0  0  0  0  0  0  0  0  0  0  0
   58.4141   29.1219   44.5300 H   0  0  0  0  0  0  0  0  0  0  0  0
   57.9723   30.8504   44.2571 H   0  0  0  0  0  0  0  0  0  0  0  0
   60.7350   31.5947   47.1366 H   0  0  0  0  0  0  0  0  0  0  0  0
   61.6374   33.8718   46.6736 H   0  0  0  0  0  0  0  0  0  0  0  0
   60.2041   35.5826   45.5634 H   0  0  0  0  0  0  0  0  0  0  0  0
   57.8625   35.0233   44.9135 H   0  0  0  0  0  0  0  0  0  0  0  0
   55.9610   33.4320   44.9530 H   0  0  0  0  0  0  0  0  0  0  0  0
   56.2700   31.7060   45.2810 H   0  0  0  0  0  0  0  0  0  0  0  0
   58.3557   26.2904   43.9486 H   0  0  0  0  0  0  0  0  0  0  0  0
   58.1425   24.0537   42.8707 H   0  0  0  0  0  0  0  0  0  0  0  0
  1  2  1  0
  2  3  1  0
  3  4  2  0
  4  5  1  0
  5  6  2  0
  6  7  1  0
  7  8  1  0
  8  9  1  0
  9 10  2  0
  9 11  1  0
 11 12  1  0
 12 13  1  0
 13 14  2  0
 14 15  1  0
 15 16  2  0
 16 17  1  0
 17 18  2  0
 18 19  1  0
  6 20  1  0
 20 21  2  0
 21  3  1  0
 18 13  1  0
  1 22  1  0
  1 23  1  0
  1 24  1  0
  2 25  1  0
  2 26  1  0
  4 27  1  0
  5 28  1  0
  7 29  1  0
  7 30  1  0
 11 31  1  0
 11 32  1  0
 14 33  1  0
 15 34  1  0
 16 35  1  0
 17 36  1  0
 19 37  1  0
 19 38  1  0
 20 39  1  0
 21 40  1  0
M  CHG  1   8  -1
M  END
>  <UniqueID>  (17) 
16

>  <SMILES>  (17) 
CCc1ccc(C[N-]C(=O)CSc2ccccc2N)cc1

>  <Energy>  (17) 
29.005814568749933

>  <Genealogy>  (17) 
CCc1ccc(C[N-]C(=O)CSc2ccccc2N)cc1 (protonated)
CCc1ccc(C[N-]C(=O)CSc2ccccc2N)cc1 (3D coordinates assigned)
CCc1ccc(C[N-]C(=O)CSc2ccccc2N)cc1 (optimized conformer: 29.005814568749933 kcal/mol)

>  <smiles>  (17) 
CCc1ccc(CNC(=O)CSc2ccccc2N)cc1

>  <score_type>  (17) 
oracle

>  <origin>  (17) 
adg

>  <m_score__min__energy>  (17) 
-9.4299999999999997

>  <m_primary>  (17) 
energy

$$$$
17:0
     RDKit          3D

 55 58  0  0  0  0  0  0  0  0999 V2000
   58.5110   31.4790   49.8620 C   0  0  0  0  0  0  0  0  0  0  0  0
   59.3180   32.2700   48.8410 C   0  0  0  0  0  0  0  0  0  0  0  0
   58.5420   32.4540   47.6200 N   0  0  0  0  0  0  0  0  0  0  0  0
   58.3420   33.7450   47.0250 C   0  0  0  0  0  0  0  0  0  0  0  0
   58.9820   34.7450   47.4450 O   0  0  0  0  0  0  0  0  0  0  0  0
   57.3410   33.9240   45.9250 C   0  0  0  0  0  0  0  0  0  0  0  0
   57.5160   32.8430   44.9100 C   0  0  0  0  0  0  0  0  0  0  0  0
   57.9670   33.0850   43.6150 C   0  0  0  0  0  0  0  0  0  0  0  0
   57.9140   31.6310   42.7700 S   0  0  0  0  0  0  0  0  0  0  0  0
   57.3180   30.7660   44.0900 C   0  0  0  0  0  0  0  0  0  0  0  0
   56.9850   29.3750   44.1000 N   0  0  0  0  0  0  0  0  0  0  0  0
   56.1780   28.8150   44.9470 C   0  0  0  0  0  0  0  0  0  0  0  0
   56.6150   27.6620   45.7530 C   0  0  0  0  0  0  0  0  0  0  0  0
   57.8650   27.3720   46.2990 C   0  0  0  0  0  0  0  0  0  0  0  0
   59.0540   28.2430   46.3490 C   0  0  0  0  0  0  0  0  0  0  0  0
   59.8010   28.5080   45.1870 C   0  0  0  0  0  0  0  0  0  0  0  0
   60.9210   29.3430   45.2450 C   0  0  0  0  0  0  0  0  0  0  0  0
   61.2880   29.9370   46.4560 C   0  0  0  0  0  0  0  0  0  0  0  0
   60.5320   29.7040   47.6110 C   0  0  0  0  0  0  0  0  0  0  0  0
   59.4130   28.8670   47.5570 C   0  0  0  0  0  0  0  0  0  0  0  0
   57.8410   26.1360   46.8410 N   0  0  0  0  0  0  0  0  0  0  0  0
   56.6240   25.6360   46.6790 N   0  0  0  0  0  0  0  0  0  0  0  0
   56.2400   24.3230   47.1260 C   0  0  0  0  0  0  0  0  0  0  0  0
   57.0130   23.6180   48.0670 C   0  0  0  0  0  0  0  0  0  0  0  0
   56.6270   22.3370   48.4760 C   0  0  0  0  0  0  0  0  0  0  0  0
   55.4730   21.7470   47.9560 C   0  0  0  0  0  0  0  0  0  0  0  0
   54.6920   22.4360   47.0210 C   0  0  0  0  0  0  0  0  0  0  0  0
   53.2380   21.6950   46.3610 S   0  0  0  0  0  0  0  0  0  0  0  0
   53.6240   20.1380   45.7230 N   0  0  0  0  0  0  0  0  0  0  0  0
   52.2010   21.5470   47.4360 O   0  0  0  0  0  0  0  0  0  0  0  0
   52.6800   22.5620   45.2690 O   0  0  0  0  0  0  0  0  0  0  0  0
   55.0830   23.7150   46.5990 C   0  0  0  0  0  0  0  0  0  0  0  0
   55.8650   26.5370   46.0210 C   0  0  0  0  0  0  0  0  0  0  0  0
   54.5500   26.3260   45.6150 O   0  0  0  0  0  0  0  0  0  0  0  0
   57.1500   31.5580   45.1660 N   0  0  0  0  0  0  0  0  0  0  0  0
   58.8132   31.7752   50.8773 H   0  0  0  0  0  0  0  0  0  0  0  0
   57.4397   31.6866   49.7231 H   0  0  0  0  0  0  0  0  0  0  0  0
   58.6971   30.4038   49.7231 H   0  0  0  0  0  0  0  0  0  0  0  0
   59.5721   33.2540   49.2620 H   0  0  0  0  0  0  0  0  0  0  0  0
   60.2374   31.7154   48.6022 H   0  0  0  0  0  0  0  0  0  0  0  0
   58.1270   31.6090   47.1640 H   0  0  0  0  0  0  0  0  0  0  0  0
   56.3246   33.8734   46.3427 H   0  0  0  0  0  0  0  0  0  0  0  0
   57.4935   34.9030   45.4471 H   0  0  0  0  0  0  0  0  0  0  0  0
   58.2990   34.0546   43.2154 H   0  0  0  0  0  0  0  0  0  0  0  0
   55.1563   29.2052   45.0647 H   0  0  0  0  0  0  0  0  0  0  0  0
   59.5030   28.0567   44.2291 H   0  0  0  0  0  0  0  0  0  0  0  0
   61.5133   29.5325   44.3377 H   0  0  0  0  0  0  0  0  0  0  0  0
   62.1728   30.5890   46.5015 H   0  0  0  0  0  0  0  0  0  0  0  0
   60.8181   30.1792   48.5609 H   0  0  0  0  0  0  0  0  0  0  0  0
   58.8118   28.6962   48.4622 H   0  0  0  0  0  0  0  0  0  0  0  0
   57.9232   24.0753   48.4821 H   0  0  0  0  0  0  0  0  0  0  0  0
   57.2361   21.7912   49.2116 H   0  0  0  0  0  0  0  0  0  0  0  0
   55.1773   20.7389   48.2819 H   0  0  0  0  0  0  0  0  0  0  0  0
   54.2440   20.2950   44.8990 H   0  0  0  0  0  0  0  0  0  0  0  0
   54.4806   24.2489   45.8492 H   0  0  0  0  0  0  0  0  0  0  0  0
  1  2  1  0
  2  3  1  0
  3  4  1  0
  4  5  2  0
  4  6  1  0
  6  7  1  0
  7  8  2  0
  8  9  1  0
  9 10  1  0
 10 11  1  0
 11 12  2  3
 12 13  1  0
 13 14  1  0
 14 15  1  0
 15 16  2  0
 16 17  1  0
 17 18  2  0
 18 19  1  0
 19 20  2  0
 14 21  2  0
 21 22  1  0
 22 23  1  0
 23 24  2  0
 24 25  1  0
 25 26  2  0
 26 27  1  0
 27 28  1  0
 28 29  1  0
 28 30  2  0
 28 31  2  0
 27 32  2  0
 22 33  1  0
 33 34  1  0
 10 35  2  0
 35  7  1  0
 33 13  2  0
 20 15  1  0
 32 23  1  0
  1 36  1  0
  1 37  1  0
  1 38  1  0
  2 39  1  0
  2 40  1  0
  3 41  1  0
  6 42  1  0
  6 43  1  0
  8 44  1  0
 12 45  1  0
 16 46  1  0
 17 47  1  0
 18 48  1  0
 19 49  1  0
 20 50  1  0
 24 51  1  0
 25 52  1  0
 26 53  1  0
 29 54  1  0
 32 55  1  0
M  CHG  2  29  -1  34  -1
M  END
>  <UniqueID>  (18) 
17

>  <SMILES>  (18) 
CCNC(=O)Cc1csc(N=Cc2c(-c3ccccc3)nn(-c3cccc(S([NH-])(=O)=O)c3)c2[O-])n1

>  <Energy>  (18) 
121.91261740344734

>  <Genealogy>  (18) 
CCNC(=O)Cc1csc(N=Cc2c(-c3ccccc3)nn(-c3cccc(S([NH-])(=O)=O)c3)c2[O-])n1 (protonated)
CCNC(=O)Cc1csc(N=Cc2c(-c3ccccc3)nn(-c3cccc(S([NH-])(=O)=O)c3)c2[O-])n1 (3D coordinates assigned)
CCNC(=O)Cc1csc(N=Cc2c(-c3ccccc3)nn(-c3cccc(S([NH-])(=O)=O)c3)c2[O-])n1 (optimized conformer: 121.91261740344734 kcal/mol)

>  <smiles>  (18) 
CCNC(=O)Cc1csc(N=Cc2c(-c3ccccc3)nn(-c3cccc(S(N)(=O)=O)c3)c2O)n1

>  <score_type>  (18) 
oracle

>  <origin>  (18) 
adg

>  <m_score__min__energy>  (18) 
-14.07

>  <m_primary>  (18) 
energy

$$$$
18:0
     RDKit          3D

 44 46  0  0  0  0  0  0  0  0999 V2000
   55.1640   29.3290   44.8610 O   0  0  0  0  0  0  0  0  0  0  0  0
   55.9930   30.0390   44.2330 C   0  0  0  0  0  0  0  0  0  0  0  0
   56.7320   29.4360   43.0700 C   0  0  0  0  0  0  0  0  0  0  0  0
   57.3990   28.2400   43.4710 O   0  0  0  0  0  0  0  0  0  0  0  0
   58.2780   28.1330   44.5610 C   0  0  0  0  0  0  0  0  0  0  0  0
   57.7880   27.5880   45.7560 C   0  0  0  0  0  0  0  0  0  0  0  0
   58.6210   27.4590   46.8720 C   0  0  0  0  0  0  0  0  0  0  0  0
   59.9540   27.8720   46.8020 C   0  0  0  0  0  0  0  0  0  0  0  0
   60.4550   28.4150   45.6160 C   0  0  0  0  0  0  0  0  0  0  0  0
   59.6250   28.5460   44.4980 C   0  0  0  0  0  0  0  0  0  0  0  0
   56.2480   31.3740   44.6920 N   0  0  0  0  0  0  0  0  0  0  0  0
   57.4670   31.8520   45.2720 C   0  0  0  0  0  0  0  0  0  0  0  0
   58.1620   31.0310   46.1660 C   0  0  0  0  0  0  0  0  0  0  0  0
   59.3570   31.4680   46.7440 C   0  0  0  0  0  0  0  0  0  0  0  0
   59.8600   32.7410   46.4450 C   0  0  0  0  0  0  0  0  0  0  0  0
   61.3980   33.2790   47.1110 S   0  0  0  0  0  0  0  0  0  0  0  0
   61.1830   34.3050   48.1890 O   0  0  0  0  0  0  0  0  0  0  0  0
   62.2150   33.8900   46.0100 O   0  0  0  0  0  0  0  0  0  0  0  0
   62.2530   31.9240   47.7800 N   0  0  0  0  0  0  0  0  0  0  0  0
   63.2580   32.0430   48.8030 C   0  0  0  0  0  0  0  0  0  0  0  0
   63.1890   31.2100   49.9310 C   0  0  0  0  0  0  0  0  0  0  0  0
   64.1440   31.3120   50.9480 C   0  0  0  0  0  0  0  0  0  0  0  0
   65.1790   32.2430   50.8460 C   0  0  0  0  0  0  0  0  0  0  0  0
   65.2650   33.0690   49.7230 C   0  0  0  0  0  0  0  0  0  0  0  0
   64.3150   32.9690   48.7020 C   0  0  0  0  0  0  0  0  0  0  0  0
   59.1420   33.5840   45.5860 C   0  0  0  0  0  0  0  0  0  0  0  0
   57.9470   33.1460   45.0080 C   0  0  0  0  0  0  0  0  0  0  0  0
   56.0163   29.2006   42.2685 H   0  0  0  0  0  0  0  0  0  0  0  0
   57.4795   30.1578   42.7091 H   0  0  0  0  0  0  0  0  0  0  0  0
   56.7400   27.2592   45.8164 H   0  0  0  0  0  0  0  0  0  0  0  0
   58.2264   27.0320   47.8058 H   0  0  0  0  0  0  0  0  0  0  0  0
   60.6086   27.7697   47.6801 H   0  0  0  0  0  0  0  0  0  0  0  0
   61.5044   28.7401   45.5616 H   0  0  0  0  0  0  0  0  0  0  0  0
   60.0243   28.9727   43.5661 H   0  0  0  0  0  0  0  0  0  0  0  0
   57.7657   30.0357   46.4156 H   0  0  0  0  0  0  0  0  0  0  0  0
   59.9042   30.8106   47.4357 H   0  0  0  0  0  0  0  0  0  0  0  0
   61.9270   30.9730   47.4970 H   0  0  0  0  0  0  0  0  0  0  0  0
   62.3780   30.4717   50.0157 H   0  0  0  0  0  0  0  0  0  0  0  0
   64.0792   30.6574   51.8297 H   0  0  0  0  0  0  0  0  0  0  0  0
   65.9260   32.3261   51.6491 H   0  0  0  0  0  0  0  0  0  0  0  0
   66.0826   33.8004   49.6416 H   0  0  0  0  0  0  0  0  0  0  0  0
   64.3932   33.6162   47.8160 H   0  0  0  0  0  0  0  0  0  0  0  0
   59.5199   34.5933   45.3660 H   0  0  0  0  0  0  0  0  0  0  0  0
   57.3807   33.8162   44.3446 H   0  0  0  0  0  0  0  0  0  0  0  0
  1  2  2  0
  2  3  1  0
  3  4  1  0
  4  5  1  0
  5  6  2  0
  6  7  1  0
  7  8  2  0
  8  9  1  0
  9 10  2  0
  2 11  1  0
 11 12  1  0
 12 13  2  0
 13 14  1  0
 14 15  2  0
 15 16  1  0
 16 17  2  0
 16 18  2  0
 16 19  1  0
 19 20  1  0
 20 21  2  0
 21 22  1  0
 22 23  2  0
 23 24  1  0
 24 25  2  0
 15 26  1  0
 26 27  2  0
 10  5  1  0
 27 12  1  0
 25 20  1  0
  3 28  1  0
  3 29  1  0
  6 30  1  0
  7 31  1  0
  8 32  1  0
  9 33  1  0
 10 34  1  0
 13 35  1  0
 14 36  1  0
 19 37  1  0
 21 38  1  0
 22 39  1  0
 23 40  1  0
 24 41  1  0
 25 42  1  0
 26 43  1  0
 27 44  1  0
M  CHG  1  11  -1
M  END
>  <UniqueID>  (19) 
18

>  <SMILES>  (19) 
O=C(COc1ccccc1)[N-]c1ccc(S(=O)(=O)Nc2ccccc2)cc1

>  <Energy>  (19) 
52.948835073529736

>  <Genealogy>  (19) 
O=C(COc1ccccc1)[N-]c1ccc(S(=O)(=O)Nc2ccccc2)cc1 (protonated)
O=C(COc1ccccc1)[N-]c1ccc(S(=O)(=O)Nc2ccccc2)cc1 (3D coordinates assigned)
O=C(COc1ccccc1)[N-]c1ccc(S(=O)(=O)Nc2ccccc2)cc1 (optimized conformer: 52.948835073529736 kcal/mol)

>  <smiles>  (19) 
O=C(COc1ccccc1)Nc1ccc(S(=O)(=O)Nc2ccccc2)cc1

>  <score_type>  (19) 
oracle

>  <origin>  (19) 
adg

>  <m_score__min__energy>  (19) 
-9.7799999999999994

>  <m_primary>  (19) 
energy

$$$$
19:0
     RDKit          3D

 34 35  0  0  0  0  0  0  0  0999 V2000
   58.1560   34.6010   44.8620 C   0  0  0  0  0  0  0  0  0  0  0  0
   58.0720   33.1690   45.3050 C   0  0  0  0  0  0  0  0  0  0  0  0
   57.2910   32.3220   44.5860 N   0  0  0  0  0  0  0  0  0  0  0  0
   57.1390   31.0240   44.9420 C   0  0  0  0  0  0  0  0  0  0  0  0
   56.0690   29.9570   43.9850 S   0  0  0  0  0  0  0  0  0  0  0  0
   57.3860   28.7710   43.5300 C   0  0  0  0  0  0  0  0  0  0  0  0
   57.9020   28.0370   44.7460 C   0  0  0  0  0  0  0  0  0  0  0  0
   59.2960   27.9220   44.9010 C   0  0  0  0  0  0  0  0  0  0  0  0
   59.8390   27.2380   45.9900 C   0  0  0  0  0  0  0  0  0  0  0  0
   59.0000   26.6540   46.9370 C   0  0  0  0  0  0  0  0  0  0  0  0
   57.6160   26.7500   46.7970 C   0  0  0  0  0  0  0  0  0  0  0  0
   57.0520   27.4300   45.7090 C   0  0  0  0  0  0  0  0  0  0  0  0
   55.6570   27.4670   45.6280 O   0  0  0  0  0  0  0  0  0  0  0  0
   57.7760   30.5410   46.0360 N   0  0  0  0  0  0  0  0  0  0  0  0
   58.5780   31.3320   46.7970 C   0  0  0  0  0  0  0  0  0  0  0  0
   59.2320   30.7250   48.0030 C   0  0  0  0  0  0  0  0  0  0  0  0
   58.7760   32.6850   46.4330 C   0  0  0  0  0  0  0  0  0  0  0  0
   59.6380   33.6030   47.2700 C   0  0  0  0  0  0  0  0  0  0  0  0
   58.1944   35.2562   45.7447 H   0  0  0  0  0  0  0  0  0  0  0  0
   59.0642   34.7454   44.2583 H   0  0  0  0  0  0  0  0  0  0  0  0
   57.2709   34.8506   44.2583 H   0  0  0  0  0  0  0  0  0  0  0  0
   56.9799   28.0403   42.8150 H   0  0  0  0  0  0  0  0  0  0  0  0
   58.2195   29.3305   43.0803 H   0  0  0  0  0  0  0  0  0  0  0  0
   59.9653   28.3763   44.1556 H   0  0  0  0  0  0  0  0  0  0  0  0
   60.9306   27.1599   46.1007 H   0  0  0  0  0  0  0  0  0  0  0  0
   59.4297   26.1170   47.7954 H   0  0  0  0  0  0  0  0  0  0  0  0
   56.9597   26.2870   47.5486 H   0  0  0  0  0  0  0  0  0  0  0  0
   55.1410   28.0000   44.9430 H   0  0  0  0  0  0  0  0  0  0  0  0
   58.7808   31.1438   48.9146 H   0  0  0  0  0  0  0  0  0  0  0  0
   59.0864   29.6348   47.9893 H   0  0  0  0  0  0  0  0  0  0  0  0
   60.3084   30.9514   47.9893 H   0  0  0  0  0  0  0  0  0  0  0  0
   59.4541   33.4071   48.3367 H   0  0  0  0  0  0  0  0  0  0  0  0
   60.6983   33.4201   47.0411 H   0  0  0  0  0  0  0  0  0  0  0  0
   59.3888   34.6497   47.0411 H   0  0  0  0  0  0  0  0  0  0  0  0
  1  2  1  0
  2  3  2  0
  3  4  1  0
  4  5  1  0
  5  6  1  0
  6  7  1  0
  7  8  2  0
  8  9  1  0
  9 10  2  0
 10 11  1  0
 11 12  2  0
 12 13  1  0
  4 14  2  0
 14 15  1  0
 15 16  1  0
 15 17  2  0
 17 18  1  0
 17  2  1  0
 12  7  1  0
  1 19  1  0
  1 20  1  0
  1 21  1  0
  6 22  1  0
  6 23  1  0
  8 24  1  0
  9 25  1  0
 10 26  1  0
 11 27  1  0
 13 28  1  0
 16 29  1  0
 16 30  1  0
 16 31  1  0
 18 32  1  0
 18 33  1  0
 18 34  1  0
M  END
>  <UniqueID>  (20) 
19

>  <SMILES>  (20) 
Cc1nc(SCc2ccccc2O)nc(C)c1C

>  <Energy>  (20) 
32.4619397997091

>  <Genealogy>  (20) 
Cc1nc(SCc2ccccc2O)nc(C)c1C (3D coordinates assigned)
Cc1nc(SCc2ccccc2O)nc(C)c1C (optimized conformer: 32.4619397997091 kcal/mol)

>  <smiles>  (20) 
Cc1nc(SCc2ccccc2O)nc(C)c1C

>  <score_type>  (20) 
oracle

>  <origin>  (20) 
adg

>  <m_score__min__energy>  (20) 
-8.0299999999999994

>  <m_primary>  (20) 
energy

$$$$
20:0
     RDKit          3D

 48 50  0  0  0  0  0  0  0  0999 V2000
   57.0370   22.6010   43.7800 C   0  0  0  0  0  0  0  0  0  0  0  0
   55.9620   23.4280   44.4230 C   0  0  0  0  0  0  0  0  0  0  0  0
   54.6770   22.9900   44.3570 N   0  0  0  0  0  0  0  0  0  0  0  0
   53.6630   23.6790   44.9410 C   0  0  0  0  0  0  0  0  0  0  0  0
   52.4850   23.2490   44.8630 O   0  0  0  0  0  0  0  0  0  0  0  0
   53.9220   24.8260   45.6160 N   0  0  0  0  0  0  0  0  0  0  0  0
   55.1860   25.3160   45.7050 C   0  0  0  0  0  0  0  0  0  0  0  0
   55.3950   26.3840   46.3410 O   0  0  0  0  0  0  0  0  0  0  0  0
   56.2440   24.6450   45.0800 C   0  0  0  0  0  0  0  0  0  0  0  0
   57.5740   25.1760   45.1630 N   0  0  0  0  0  0  0  0  0  0  0  0
   57.9030   26.5160   45.5570 C   0  0  0  0  0  0  0  0  0  0  0  0
   58.1160   26.7550   46.7750 O   0  0  0  0  0  0  0  0  0  0  0  0
   57.9550   27.6530   44.5650 C   0  0  0  0  0  0  0  0  0  0  0  0
   58.2120   28.9570   45.2200 N   0  0  1  0  0  0  0  0  0  0  0  0
   59.6600   29.2860   45.2540 C   0  0  0  0  0  0  0  0  0  0  0  0
   60.1800   29.7060   46.6160 C   0  0  0  0  0  0  0  0  0  0  0  0
   61.0110   30.8330   46.7460 C   0  0  0  0  0  0  0  0  0  0  0  0
   61.4970   31.2150   47.9990 C   0  0  0  0  0  0  0  0  0  0  0  0
   61.1430   30.4900   49.1400 C   0  0  0  0  0  0  0  0  0  0  0  0
   61.7550   30.9690   50.7120 Cl  0  0  0  0  0  0  0  0  0  0  0  0
   60.2880   29.3890   49.0290 C   0  0  0  0  0  0  0  0  0  0  0  0
   59.8000   29.0050   47.7760 C   0  0  0  0  0  0  0  0  0  0  0  0
   57.2550   30.2340   44.4870 S   0  0  0  0  0  0  0  0  0  0  0  0
   55.8160   30.0860   44.8940 O   0  0  0  0  0  0  0  0  0  0  0  0
   57.3420   30.1380   42.9880 O   0  0  0  0  0  0  0  0  0  0  0  0
   57.7910   31.8280   45.0200 C   0  0  0  0  0  0  0  0  0  0  0  0
   57.8100   32.1370   46.3890 C   0  0  0  0  0  0  0  0  0  0  0  0
   58.2210   33.4030   46.8170 C   0  0  0  0  0  0  0  0  0  0  0  0
   58.6030   34.3690   45.8830 C   0  0  0  0  0  0  0  0  0  0  0  0
   58.5690   34.0720   44.5170 C   0  0  0  0  0  0  0  0  0  0  0  0
   58.1580   32.8080   44.0850 C   0  0  0  0  0  0  0  0  0  0  0  0
   57.6517   22.1281   44.5600 H   0  0  0  0  0  0  0  0  0  0  0  0
   56.5759   21.8226   43.1544 H   0  0  0  0  0  0  0  0  0  0  0  0
   57.6712   23.2463   43.1544 H   0  0  0  0  0  0  0  0  0  0  0  0
   58.7598   27.4553   43.8417 H   0  0  0  0  0  0  0  0  0  0  0  0
   56.9754   27.7123   44.0682 H   0  0  0  0  0  0  0  0  0  0  0  0
   57.9040   28.8850   46.2180 H   0  0  0  0  0  0  0  0  0  0  0  0
   60.2216   28.3969   44.9315 H   0  0  0  0  0  0  0  0  0  0  0  0
   59.7994   30.1495   44.5870 H   0  0  0  0  0  0  0  0  0  0  0  0
   61.2804   31.4182   45.8544 H   0  0  0  0  0  0  0  0  0  0  0  0
   62.1598   32.0884   48.0875 H   0  0  0  0  0  0  0  0  0  0  0  0
   59.9991   28.8246   49.9279 H   0  0  0  0  0  0  0  0  0  0  0  0
   59.1141   28.1488   47.6963 H   0  0  0  0  0  0  0  0  0  0  0  0
   57.5010   31.3817   47.1266 H   0  0  0  0  0  0  0  0  0  0  0  0
   58.2436   33.6388   47.8912 H   0  0  0  0  0  0  0  0  0  0  0  0
   58.9304   35.3629   46.2220 H   0  0  0  0  0  0  0  0  0  0  0  0
   58.8661   34.8341   43.7816 H   0  0  0  0  0  0  0  0  0  0  0  0
   58.1221   32.5807   43.0093 H   0  0  0  0  0  0  0  0  0  0  0  0
  1  2  1  0
  2  3  1  0
  3  4  1  0
  4  5  2  0
  4  6  1  0
  6  7  1  0
  7  8  2  0
  7  9  1  0
  9 10  1  0
 10 11  1  0
 11 12  2  0
 11 13  1  0
 13 14  1  0
 14 15  1  0
 15 16  1  0
 16 17  2  0
 17 18  1  0
 18 19  2  0
 19 20  1  0
 19 21  1  0
 21 22  2  0
 14 23  1  0
 23 24  2  0
 23 25  2  0
 23 26  1  0
 26 27  2  0
 27 28  1  0
 28 29  2  0
 29 30  1  0
 30 31  2  0
  9  2  2  0
 22 16  1  0
 31 26  1  0
  1 32  1  0
  1 33  1  0
  1 34  1  0
 13 35  1  0
 13 36  1  0
 14 37  1  1
 15 38  1  0
 15 39  1  0
 17 40  1  0
 18 41  1  0
 21 42  1  0
 22 43  1  0
 27 44  1  0
 28 45  1  0
 29 46  1  0
 30 47  1  0
 31 48  1  0
M  CHG  4   3  -1   6  -1  10  -1  14   1
M  END
>  <UniqueID>  (21) 
20

>  <SMILES>  (21) 
Cc1[n-]c(=O)[n-]c(=O)c1[N-]C(=O)C[N@@H+](Cc1ccc(Cl)cc1)S(=O)(=O)c1ccccc1

>  <Energy>  (21) 
59.49010223274224

>  <Genealogy>  (21) 
Cc1[n-]c(=O)[n-]c(=O)c1[N-]C(=O)C[NH+](Cc1ccc(Cl)cc1)S(=O)(=O)c1ccccc1 (protonated)
Cc1[n-]c(=O)[n-]c(=O)c1[N-]C(=O)C[N@@H+](Cc1ccc(Cl)cc1)S(=O)(=O)c1ccccc1 (chirality)
Cc1[n-]c(=O)[n-]c(=O)c1[N-]C(=O)C[N@@H+](Cc1ccc(Cl)cc1)S(=O)(=O)c1ccccc1 (3D coordinates assigned)
Cc1[n-]c(=O)[n-]c(=O)c1[N-]C(=O)C[N@@H+](Cc1ccc(Cl)cc1)S(=O)(=O)c1ccccc1 (optimized conformer: 59.49010223274224 kcal/mol)

>  <smiles>  (21) 
Cc1[nH]c(=O)[nH]c(=O)c1NC(=O)CN(Cc1ccc(Cl)cc1)S(=O)(=O)c1ccccc1

>  <score_type>  (21) 
oracle

>  <origin>  (21) 
adg

>  <m_score__min__energy>  (21) 
-12.75

>  <m_primary>  (21) 
energy

$$$$
21:0
     RDKit          3D

 60 63  0  0  0  0  0  0  0  0999 V2000
   58.4250   22.8020   45.7160 C   0  0  0  0  0  0  0  0  0  0  0  0
   58.5900   24.2870   45.6840 C   0  0  0  0  0  0  0  0  0  0  0  0
   59.7340   24.9160   46.0100 N   0  0  0  0  0  0  0  0  0  0  0  0
   59.5490   26.2140   45.8240 N   0  0  0  0  0  0  0  0  0  0  0  0
   60.6270   27.1920   45.9700 C   0  0  0  0  0  0  0  0  0  0  0  0
   60.1540   28.3530   46.7980 C   0  0  0  0  0  0  0  0  0  0  0  0
   60.7630   29.6110   46.6730 C   0  0  0  0  0  0  0  0  0  0  0  0
   60.3980   30.6550   47.5230 C   0  0  0  0  0  0  0  0  0  0  0  0
   59.4220   30.4560   48.5090 C   0  0  0  0  0  0  0  0  0  0  0  0
   59.1020   31.4980   49.4350 N   0  0  0  0  0  0  0  0  0  0  0  0
   59.1100   32.8850   49.0730 C   0  0  0  0  0  0  0  0  0  0  0  0
   59.2800   33.7580   49.9650 O   0  0  0  0  0  0  0  0  0  0  0  0
   59.0380   33.2930   47.6550 C   0  0  0  0  0  0  0  0  0  0  0  0
   57.7690   33.3570   47.0560 C   0  0  0  0  0  0  0  0  0  0  0  0
   57.6260   33.8130   45.7460 C   0  0  0  0  0  0  0  0  0  0  0  0
   58.7450   34.2210   45.0220 C   0  0  0  0  0  0  0  0  0  0  0  0
   60.0120   34.1780   45.6090 C   0  0  0  0  0  0  0  0  0  0  0  0
   60.1770   33.7130   46.9250 C   0  0  0  0  0  0  0  0  0  0  0  0
   61.5290   33.7450   47.5220 C   0  0  0  0  0  0  0  0  0  0  0  0
   62.4950   34.2140   46.8630 O   0  0  0  0  0  0  0  0  0  0  0  0
   61.7420   33.1960   48.8330 N   0  0  0  0  0  0  0  0  0  0  0  0
   63.0020   33.2260   49.5200 C   0  0  0  0  0  0  0  0  0  0  0  0
   64.0940   32.4520   49.0870 C   0  0  0  0  0  0  0  0  0  0  0  0
   65.3180   32.5260   49.7580 C   0  0  0  0  0  0  0  0  0  0  0  0
   65.4680   33.3790   50.8550 C   0  0  0  0  0  0  0  0  0  0  0  0
   64.3930   34.1640   51.2800 C   0  0  0  0  0  0  0  0  0  0  0  0
   63.1680   34.0940   50.6120 C   0  0  0  0  0  0  0  0  0  0  0  0
   58.7740   29.2200   48.6020 C   0  0  0  0  0  0  0  0  0  0  0  0
   59.1490   28.1670   47.7610 C   0  0  0  0  0  0  0  0  0  0  0  0
   58.2920   26.4360   45.3710 C   0  0  0  0  0  0  0  0  0  0  0  0
   57.7600   27.7540   44.8890 C   0  0  0  0  0  0  0  0  0  0  0  0
   57.6450   25.2120   45.2670 C   0  0  0  0  0  0  0  0  0  0  0  0
   56.2820   24.9360   44.6980 C   0  0  0  0  0  0  0  0  0  0  0  0
   55.2190   25.1630   45.7230 C   0  0  0  0  0  0  0  0  0  0  0  0
   54.7630   26.3210   45.9210 O   0  0  0  0  0  0  0  0  0  0  0  0
   54.6980   24.0870   46.4290 O   0  0  0  0  0  0  0  0  0  0  0  0
   58.3870   22.4597   46.7607 H   0  0  0  0  0  0  0  0  0  0  0  0
   57.4906   22.5258   45.2054 H   0  0  0  0  0  0  0  0  0  0  0  0
   59.2759   22.3274   45.2054 H   0  0  0  0  0  0  0  0  0  0  0  0
   61.4864   26.7166   46.4654 H   0  0  0  0  0  0  0  0  0  0  0  0
   60.9255   27.5539   44.9750 H   0  0  0  0  0  0  0  0  0  0  0  0
   61.5307   29.7744   45.9023 H   0  0  0  0  0  0  0  0  0  0  0  0
   60.8784   31.6391   47.4190 H   0  0  0  0  0  0  0  0  0  0  0  0
   56.8808   33.0449   47.6250 H   0  0  0  0  0  0  0  0  0  0  0  0
   56.6287   33.8508   45.2834 H   0  0  0  0  0  0  0  0  0  0  0  0
   58.6304   34.5771   43.9876 H   0  0  0  0  0  0  0  0  0  0  0  0
   60.8894   34.5115   45.0354 H   0  0  0  0  0  0  0  0  0  0  0  0
   60.9880   32.5910   49.2310 H   0  0  0  0  0  0  0  0  0  0  0  0
   63.9843   31.7867   48.2179 H   0  0  0  0  0  0  0  0  0  0  0  0
   66.1658   31.9110   49.4217 H   0  0  0  0  0  0  0  0  0  0  0  0
   66.4314   33.4323   51.3833 H   0  0  0  0  0  0  0  0  0  0  0  0
   64.5114   34.8378   52.1414 H   0  0  0  0  0  0  0  0  0  0  0  0
   62.3282   34.7225   50.9432 H   0  0  0  0  0  0  0  0  0  0  0  0
   57.9686   29.0758   49.3373 H   0  0  0  0  0  0  0  0  0  0  0  0
   58.6544   27.1889   47.8544 H   0  0  0  0  0  0  0  0  0  0  0  0
   57.5054   28.3849   45.7534 H   0  0  0  0  0  0  0  0  0  0  0  0
   58.5252   28.2578   44.2802 H   0  0  0  0  0  0  0  0  0  0  0  0
   56.8595   27.5854   44.2802 H   0  0  0  0  0  0  0  0  0  0  0  0
   56.1065   25.6056   43.8431 H   0  0  0  0  0  0  0  0  0  0  0  0
   56.2418   23.8844   44.3778 H   0  0  0  0  0  0  0  0  0  0  0  0
  1  2  1  0
  2  3  2  0
  3  4  1  0
  4  5  1  0
  5  6  1  0
  6  7  2  0
  7  8  1  0
  8  9  2  0
  9 10  1  0
 10 11  1  0
 11 12  2  0
 11 13  1  0
 13 14  2  0
 14 15  1  0
 15 16  2  0
 16 17  1  0
 17 18  2  0
 18 19  1  0
 19 20  2  0
 19 21  1  0
 21 22  1  0
 22 23  2  0
 23 24  1  0
 24 25  2  0
 25 26  1  0
 26 27  2  0
  9 28  1  0
 28 29  2  0
  4 30  1  0
 30 31  1  0
 30 32  2  0
 32 33  1  0
 33 34  1  0
 34 35  2  0
 34 36  1  0
 32  2  1  0
 29  6  1  0
 18 13  1  0
 27 22  1  0
  1 37  1  0
  1 38  1  0
  1 39  1  0
  5 40  1  0
  5 41  1  0
  7 42  1  0
  8 43  1  0
 14 44  1  0
 15 45  1  0
 16 46  1  0
 17 47  1  0
 21 48  1  0
 23 49  1  0
 24 50  1  0
 25 51  1  0
 26 52  1  0
 27 53  1  0
 28 54  1  0
 29 55  1  0
 31 56  1  0
 31 57  1  0
 31 58  1  0
 33 59  1  0
 33 60  1  0
M  CHG  2  10  -1  36  -1
M  END
>  <UniqueID>  (22) 
21

>  <SMILES>  (22) 
Cc1nn(Cc2ccc([N-]C(=O)c3ccccc3C(=O)Nc3ccccc3)cc2)c(C)c1CC(=O)[O-]

>  <Energy>  (22) 
107.67281104129955

>  <Genealogy>  (22) 
Cc1nn(Cc2ccc([N-]C(=O)c3ccccc3C(=O)Nc3ccccc3)cc2)c(C)c1CC(=O)[O-] (protonated)
Cc1nn(Cc2ccc([N-]C(=O)c3ccccc3C(=O)Nc3ccccc3)cc2)c(C)c1CC(=O)[O-] (3D coordinates assigned)
Cc1nn(Cc2ccc([N-]C(=O)c3ccccc3C(=O)Nc3ccccc3)cc2)c(C)c1CC(=O)[O-] (optimized conformer: 107.67281104129955 kcal/mol)

>  <smiles>  (22) 
Cc1nn(Cc2ccc(NC(=O)c3ccccc3C(=O)Nc3ccccc3)cc2)c(C)c1CC(=O)O

>  <score_type>  (22) 
oracle

>  <origin>  (22) 
adg

>  <m_score__min__energy>  (22) 
-13.84

>  <m_primary>  (22) 
energy

$$$$
22:0
     RDKit          3D

 51 54  0  0  0  0  0  0  0  0999 V2000
   59.0300   28.6800   45.7700 C   0  0  0  0  0  0  0  0  0  0  0  0
   58.3840   29.9620   45.3750 C   0  0  0  0  0  0  0  0  0  0  0  0
   58.9870   31.1650   45.4990 N   0  0  0  0  0  0  0  0  0  0  0  0
   58.2280   32.1660   44.9750 C   0  0  0  0  0  0  0  0  0  0  0  0
   58.7180   33.5850   44.9120 C   0  0  0  0  0  0  0  0  0  0  0  0
   59.5070   33.9170   46.1180 N   0  0  0  0  0  0  0  0  0  0  0  0
   60.8990   33.4180   45.9990 C   0  0  0  0  0  0  0  0  0  0  0  0
   61.8680   34.1670   46.9170 C   0  0  0  0  0  0  0  0  0  0  0  0
   61.8000   33.7290   48.3720 C   0  0  0  0  0  0  0  0  0  0  0  0
   62.9690   33.3230   48.9480 N   0  0  0  0  0  0  0  0  0  0  0  0
   63.0410   32.9710   50.2570 C   0  0  0  0  0  0  0  0  0  0  0  0
   64.2850   32.5210   50.8260 N   0  0  0  0  0  0  0  0  0  0  0  0
   64.3050   31.4440   51.8180 C   0  0  0  0  0  0  0  0  0  0  0  0
   65.4150   30.4220   51.4820 C   0  0  0  0  0  0  0  0  0  0  0  0
   66.2830   30.8480   50.4410 O   0  0  0  0  0  0  0  0  0  0  0  0
   66.7140   32.1730   50.6770 C   0  0  0  0  0  0  0  0  0  0  0  0
   65.5560   33.1460   50.4350 C   0  0  0  0  0  0  0  0  0  0  0  0
   61.9270   33.0020   51.0180 N   0  0  0  0  0  0  0  0  0  0  0  0
   60.7240   33.3970   50.5280 C   0  0  0  0  0  0  0  0  0  0  0  0
   59.5550   33.3960   51.4890 C   0  0  0  0  0  0  0  0  0  0  0  0
   58.6770   32.3720   51.1800 F   0  0  0  0  0  0  0  0  0  0  0  0
   58.8960   34.6080   51.4310 F   0  0  0  0  0  0  0  0  0  0  0  0
   59.9970   33.2060   52.7840 F   0  0  0  0  0  0  0  0  0  0  0  0
   60.6220   33.8290   49.1760 C   0  0  0  0  0  0  0  0  0  0  0  0
   59.2680   34.2570   48.6090 C   0  0  0  0  0  0  0  0  0  0  0  0
   58.8270   33.4780   47.3600 C   0  0  0  0  0  0  0  0  0  0  0  0
   57.0330   31.7550   44.3870 C   0  0  0  0  0  0  0  0  0  0  0  0
   56.9300   30.0840   44.5400 S   0  0  0  0  0  0  0  0  0  0  0  0
   59.0653   28.6100   46.8672 H   0  0  0  0  0  0  0  0  0  0  0  0
   58.4489   27.8373   45.3673 H   0  0  0  0  0  0  0  0  0  0  0  0
   60.0531   28.6456   45.3673 H   0  0  0  0  0  0  0  0  0  0  0  0
   59.3503   33.7099   44.0206 H   0  0  0  0  0  0  0  0  0  0  0  0
   57.8496   34.2582   44.8598 H   0  0  0  0  0  0  0  0  0  0  0  0
   60.9154   32.3505   46.2638 H   0  0  0  0  0  0  0  0  0  0  0  0
   61.2261   33.5811   44.9615 H   0  0  0  0  0  0  0  0  0  0  0  0
   62.8918   33.9983   46.5518 H   0  0  0  0  0  0  0  0  0  0  0  0
   61.5796   35.2282   46.8887 H   0  0  0  0  0  0  0  0  0  0  0  0
   63.8470   33.3120   48.3790 H   0  0  0  0  0  0  0  0  0  0  0  0
   64.4954   31.8717   52.8134 H   0  0  0  0  0  0  0  0  0  0  0  0
   63.3322   30.9306   51.8068 H   0  0  0  0  0  0  0  0  0  0  0  0
   66.0156   30.2504   52.3874 H   0  0  0  0  0  0  0  0  0  0  0  0
   64.9158   29.5064   51.1319 H   0  0  0  0  0  0  0  0  0  0  0  0
   67.0572   32.2655   51.7180 H   0  0  0  0  0  0  0  0  0  0  0  0
   67.5400   32.4138   49.9917 H   0  0  0  0  0  0  0  0  0  0  0  0
   65.7137   34.0559   51.0327 H   0  0  0  0  0  0  0  0  0  0  0  0
   65.5181   33.4038   49.3663 H   0  0  0  0  0  0  0  0  0  0  0  0
   58.5071   34.1134   49.3903 H   0  0  0  0  0  0  0  0  0  0  0  0
   59.3747   35.3078   48.3017 H   0  0  0  0  0  0  0  0  0  0  0  0
   59.0468   32.4120   47.5190 H   0  0  0  0  0  0  0  0  0  0  0  0
   57.7519   33.6668   47.2240 H   0  0  0  0  0  0  0  0  0  0  0  0
   56.2890   32.4083   43.9077 H   0  0  0  0  0  0  0  0  0  0  0  0
  1  2  1  0
  2  3  2  0
  3  4  1  0
  4  5  1  0
  5  6  1  0
  6  7  1  0
  7  8  1  0
  8  9  1  0
  9 10  2  0
 10 11  1  0
 11 12  1  0
 12 13  1  0
 13 14  1  0
 14 15  1  0
 15 16  1  0
 16 17  1  0
 11 18  2  0
 18 19  1  0
 19 20  1  0
 20 21  1  0
 20 22  1  0
 20 23  1  0
 19 24  2  0
 24 25  1  0
 25 26  1  0
  4 27  2  0
 27 28  1  0
 28  2  1  0
 26  6  1  0
 24  9  1  0
 17 12  1  0
  1 29  1  0
  1 30  1  0
  1 31  1  0
  5 32  1  0
  5 33  1  0
  7 34  1  0
  7 35  1  0
  8 36  1  0
  8 37  1  0
 10 38  1  0
 13 39  1  0
 13 40  1  0
 14 41  1  0
 14 42  1  0
 16 43  1  0
 16 44  1  0
 17 45  1  0
 17 46  1  0
 25 47  1  0
 25 48  1  0
 26 49  1  0
 26 50  1  0
 27 51  1  0
M  CHG  1  10   1
M  END
>  <UniqueID>  (23) 
22

>  <SMILES>  (23) 
Cc1nc(CN2CCc3[nH+]c(N4CCOCC4)nc(C(F)(F)F)c3CC2)cs1

>  <Energy>  (23) 
107.13251413366454

>  <Genealogy>  (23) 
Cc1nc(CN2CCc3[nH+]c(N4CCOCC4)nc(C(F)(F)F)c3CC2)cs1 (protonated)
Cc1nc(CN2CCc3[nH+]c(N4CCOCC4)nc(C(F)(F)F)c3CC2)cs1 (3D coordinates assigned)
Cc1nc(CN2CCc3[nH+]c(N4CCOCC4)nc(C(F)(F)F)c3CC2)cs1 (nonaromatic ring conformer: 107.13251413366454 kcal/mol)

>  <smiles>  (23) 
Cc1nc(CN2CCc3nc(N4CCOCC4)nc(C(F)(F)F)c3CC2)cs1

>  <score_type>  (23) 
oracle

>  <origin>  (23) 
adg

>  <m_score__min__energy>  (23) 
-4.6900000000000004

>  <m_primary>  (23) 
energy

$$$$
23:0
     RDKit          3D

 40 42  0  0  0  0  0  0  0  0999 V2000
   58.0030   25.4960   47.7860 N   0  0  0  0  0  0  0  0  0  0  0  0
   57.3680   25.6870   46.8370 C   0  0  0  0  0  0  0  0  0  0  0  0
   56.5540   25.9320   45.6240 C   0  0  0  0  0  0  0  0  0  0  0  0
   56.1620   27.3550   45.5980 N   0  0  0  0  0  0  0  0  0  0  0  0
   57.0710   28.4440   45.3680 C   0  0  0  0  0  0  0  0  0  0  0  0
   58.3000   28.2310   45.1850 O   0  0  0  0  0  0  0  0  0  0  0  0
   56.5680   29.7830   45.3500 N   0  0  0  0  0  0  0  0  0  0  0  0
   57.0650   30.8100   44.4800 C   0  0  0  0  0  0  0  0  0  0  0  0
   56.9050   30.6410   43.1000 C   0  0  0  0  0  0  0  0  0  0  0  0
   57.4060   31.5850   42.2040 C   0  0  0  0  0  0  0  0  0  0  0  0
   58.0660   32.7200   42.6750 C   0  0  0  0  0  0  0  0  0  0  0  0
   58.2080   32.9330   44.0540 C   0  0  0  0  0  0  0  0  0  0  0  0
   58.8440   34.0920   44.5250 C   0  0  0  0  0  0  0  0  0  0  0  0
   58.9560   34.3240   45.8970 C   0  0  0  0  0  0  0  0  0  0  0  0
   58.4240   33.4100   46.8080 C   0  0  0  0  0  0  0  0  0  0  0  0
   57.7900   32.2510   46.3560 C   0  0  0  0  0  0  0  0  0  0  0  0
   57.6930   31.9810   44.9750 C   0  0  0  0  0  0  0  0  0  0  0  0
   55.2750   25.0330   45.6780 C   0  0  0  0  0  0  0  0  0  0  0  0
   55.4220   23.6600   44.9870 C   0  0  0  0  0  0  0  0  0  0  0  0
   56.8620   23.1480   45.0150 C   0  0  0  0  0  0  0  0  0  0  0  0
   57.8220   24.1130   44.2950 C   0  0  0  0  0  0  0  0  0  0  0  0
   57.3780   25.5920   44.3570 C   0  0  0  0  0  0  0  0  0  0  0  0
   55.1690   27.6200   45.7880 H   0  0  0  0  0  0  0  0  0  0  0  0
   56.3784   29.7540   42.7179 H   0  0  0  0  0  0  0  0  0  0  0  0
   57.2802   31.4339   41.1217 H   0  0  0  0  0  0  0  0  0  0  0  0
   58.4765   33.4506   41.9624 H   0  0  0  0  0  0  0  0  0  0  0  0
   59.2557   34.8201   43.8106 H   0  0  0  0  0  0  0  0  0  0  0  0
   59.4645   35.2290   46.2609 H   0  0  0  0  0  0  0  0  0  0  0  0
   58.5047   33.6038   47.8878 H   0  0  0  0  0  0  0  0  0  0  0  0
   57.3631   31.5435   47.0821 H   0  0  0  0  0  0  0  0  0  0  0  0
   55.0224   24.8596   46.7345 H   0  0  0  0  0  0  0  0  0  0  0  0
   54.4909   25.5749   45.1289 H   0  0  0  0  0  0  0  0  0  0  0  0
   54.7780   22.9332   45.5036 H   0  0  0  0  0  0  0  0  0  0  0  0
   55.1278   23.7799   43.9339 H   0  0  0  0  0  0  0  0  0  0  0  0
   57.1823   23.0411   46.0619 H   0  0  0  0  0  0  0  0  0  0  0  0
   56.8927   22.1800   44.4934 H   0  0  0  0  0  0  0  0  0  0  0  0
   58.8144   24.0284   44.7620 H   0  0  0  0  0  0  0  0  0  0  0  0
   57.8318   23.8244   43.2336 H   0  0  0  0  0  0  0  0  0  0  0  0
   58.2761   26.2270   44.3439 H   0  0  0  0  0  0  0  0  0  0  0  0
   56.7289   25.7739   43.4878 H   0  0  0  0  0  0  0  0  0  0  0  0
  1  2  3  0
  2  3  1  0
  3  4  1  0
  4  5  1  0
  5  6  2  0
  5  7  1  0
  7  8  1  0
  8  9  2  0
  9 10  1  0
 10 11  2  0
 11 12  1  0
 12 13  2  0
 13 14  1  0
 14 15  2  0
 15 16  1  0
 16 17  2  0
  3 18  1  0
 18 19  1  0
 19 20  1  0
 20 21  1  0
 21 22  1  0
 22  3  1  0
 17  8  1  0
 17 12  1  0
  4 23  1  0
  9 24  1  0
 10 25  1  0
 11 26  1  0
 13 27  1  0
 14 28  1  0
 15 29  1  0
 16 30  1  0
 18 31  1  0
 18 32  1  0
 19 33  1  0
 19 34  1  0
 20 35  1  0
 20 36  1  0
 21 37  1  0
 21 38  1  0
 22 39  1  0
 22 40  1  0
M  CHG  1   7  -1
M  END
>  <UniqueID>  (24) 
23

>  <SMILES>  (24) 
N#CC1(NC(=O)[N-]c2cccc3ccccc23)CCCCC1

>  <Energy>  (24) 
56.240642321105234

>  <Genealogy>  (24) 
N#CC1(NC(=O)[N-]c2cccc3ccccc23)CCCCC1 (protonated)
N#CC1(NC(=O)[N-]c2cccc3ccccc23)CCCCC1 (3D coordinates assigned)
N#CC1(NC(=O)[N-]c2cccc3ccccc23)CCCCC1 (nonaromatic ring conformer: 56.240642321105234 kcal/mol)

>  <smiles>  (24) 
N#CC1(NC(=O)Nc2cccc3ccccc23)CCCCC1

>  <score_type>  (24) 
oracle

>  <origin>  (24) 
adg

>  <m_score__min__energy>  (24) 
-9.8399999999999999

>  <m_primary>  (24) 
energy

$$$$
24:0
     RDKit          3D

 43 45  0  0  0  0  0  0  0  0999 V2000
   55.9140   29.4930   44.8630 O   0  0  0  0  0  0  0  0  0  0  0  0
   57.0430   29.8940   45.2550 C   0  0  0  0  0  0  0  0  0  0  0  0
   57.5400   31.1640   44.8190 N   0  0  0  0  0  0  0  0  0  0  0  0
   56.9650   32.4390   45.2310 C   0  0  0  0  0  0  0  0  0  0  0  0
   58.0160   33.2980   45.8780 C   0  0  0  0  0  0  0  0  0  0  0  0
   58.3090   33.1400   47.2440 C   0  0  0  0  0  0  0  0  0  0  0  0
   59.2650   33.9560   47.8580 C   0  0  0  0  0  0  0  0  0  0  0  0
   59.9290   34.9370   47.1160 C   0  0  0  0  0  0  0  0  0  0  0  0
   59.6380   35.1040   45.7590 C   0  0  0  0  0  0  0  0  0  0  0  0
   58.6850   34.2900   45.1410 C   0  0  0  0  0  0  0  0  0  0  0  0
   57.8730   29.0390   46.1320 C   0  0  0  0  0  0  0  0  0  0  0  0
   58.7860   29.6570   47.0070 C   0  0  0  0  0  0  0  0  0  0  0  0
   59.6360   28.8920   47.8050 C   0  0  0  0  0  0  0  0  0  0  0  0
   59.5860   27.5020   47.7470 C   0  0  0  0  0  0  0  0  0  0  0  0
   58.6760   26.8690   46.9010 C   0  0  0  0  0  0  0  0  0  0  0  0
   57.8050   27.6210   46.0890 C   0  0  0  0  0  0  0  0  0  0  0  0
   56.8040   26.9550   45.2990 N   0  0  0  0  0  0  0  0  0  0  0  0
   55.9850   25.5170   45.8210 S   0  0  0  0  0  0  0  0  0  0  0  0
   56.2870   25.2780   47.2730 O   0  0  0  0  0  0  0  0  0  0  0  0
   54.5030   25.7120   45.6580 O   0  0  0  0  0  0  0  0  0  0  0  0
   56.5280   24.1340   44.8790 C   0  0  0  0  0  0  0  0  0  0  0  0
   55.8270   23.7440   43.7290 C   0  0  0  0  0  0  0  0  0  0  0  0
   56.2640   22.6480   42.9790 C   0  0  0  0  0  0  0  0  0  0  0  0
   57.4000   21.9360   43.3740 C   0  0  0  0  0  0  0  0  0  0  0  0
   58.1000   22.3190   44.5230 C   0  0  0  0  0  0  0  0  0  0  0  0
   57.6650   23.4150   45.2750 C   0  0  0  0  0  0  0  0  0  0  0  0
   56.5637   32.9587   44.3484 H   0  0  0  0  0  0  0  0  0  0  0  0
   56.1587   32.2517   45.9555 H   0  0  0  0  0  0  0  0  0  0  0  0
   57.7847   32.3722   47.8319 H   0  0  0  0  0  0  0  0  0  0  0  0
   59.4945   33.8255   48.9259 H   0  0  0  0  0  0  0  0  0  0  0  0
   60.6807   35.5778   47.6001 H   0  0  0  0  0  0  0  0  0  0  0  0
   60.1601   35.8775   45.1766 H   0  0  0  0  0  0  0  0  0  0  0  0
   58.4576   34.4263   44.0734 H   0  0  0  0  0  0  0  0  0  0  0  0
   58.8295   30.7548   47.0619 H   0  0  0  0  0  0  0  0  0  0  0  0
   60.3475   29.3879   48.4817 H   0  0  0  0  0  0  0  0  0  0  0  0
   60.2657   26.9018   48.3698 H   0  0  0  0  0  0  0  0  0  0  0  0
   58.6380   25.7702   46.8675 H   0  0  0  0  0  0  0  0  0  0  0  0
   56.5410   27.3360   44.3630 H   0  0  0  0  0  0  0  0  0  0  0  0
   54.9317   24.3013   43.4163 H   0  0  0  0  0  0  0  0  0  0  0  0
   55.7128   22.3455   42.0764 H   0  0  0  0  0  0  0  0  0  0  0  0
   57.7434   21.0750   42.7817 H   0  0  0  0  0  0  0  0  0  0  0  0
   58.9931   21.7578   44.8352 H   0  0  0  0  0  0  0  0  0  0  0  0
   58.2159   23.7137   46.1790 H   0  0  0  0  0  0  0  0  0  0  0  0
  1  2  2  0
  2  3  1  0
  3  4  1  0
  4  5  1  0
  5  6  2  0
  6  7  1  0
  7  8  2  0
  8  9  1  0
  9 10  2  0
  2 11  1  0
 11 12  2  0
 12 13  1  0
 13 14  2  0
 14 15  1  0
 15 16  2  0
 16 17  1  0
 17 18  1  0
 18 19  2  0
 18 20  2  0
 18 21  1  0
 21 22  2  0
 22 23  1  0
 23 24  2  0
 24 25  1  0
 25 26  2  0
 10  5  1  0
 16 11  1  0
 26 21  1  0
  4 27  1  0
  4 28  1  0
  6 29  1  0
  7 30  1  0
  8 31  1  0
  9 32  1  0
 10 33  1  0
 12 34  1  0
 13 35  1  0
 14 36  1  0
 15 37  1  0
 17 38  1  0
 22 39  1  0
 23 40  1  0
 24 41  1  0
 25 42  1  0
 26 43  1  0
M  CHG  1   3  -1
M  END
>  <UniqueID>  (25) 
24

>  <SMILES>  (25) 
O=C([N-]Cc1ccccc1)c1ccccc1NS(=O)(=O)c1ccccc1

>  <Energy>  (25) 
51.81034763045552

>  <Genealogy>  (25) 
O=C([N-]Cc1ccccc1)c1ccccc1NS(=O)(=O)c1ccccc1 (protonated)
O=C([N-]Cc1ccccc1)c1ccccc1NS(=O)(=O)c1ccccc1 (3D coordinates assigned)
O=C([N-]Cc1ccccc1)c1ccccc1NS(=O)(=O)c1ccccc1 (optimized conformer: 51.81034763045552 kcal/mol)

>  <smiles>  (25) 
O=C(NCc1ccccc1)c1ccccc1NS(=O)(=O)c1ccccc1

>  <score_type>  (25) 
oracle

>  <origin>  (25) 
adg

>  <m_score__min__energy>  (25) 
-11.800000000000001

>  <m_primary>  (25) 
energy

$$$$
25:0
     RDKit          3D

 66 69  0  0  0  0  0  0  0  0999 V2000
   55.7160   19.6610   45.2330 C   0  0  0  0  0  0  0  0  0  0  0  0
   56.3270   21.0320   45.2720 C   0  0  0  0  0  0  0  0  0  0  0  0
   57.6990   21.1910   45.0430 C   0  0  0  0  0  0  0  0  0  0  0  0
   58.3000   22.4610   45.1020 C   0  0  0  0  0  0  0  0  0  0  0  0
   59.7860   22.5760   44.8760 C   0  0  0  0  0  0  0  0  0  0  0  0
   57.5000   23.5940   45.3890 C   0  0  0  0  0  0  0  0  0  0  0  0
   58.0260   24.8980   45.4410 C   0  0  0  0  0  0  0  0  0  0  0  0
   57.2080   25.9850   45.7860 C   0  0  0  0  0  0  0  0  0  0  0  0
   57.8040   27.3720   45.8480 C   0  0  0  0  0  0  0  0  0  0  0  0
   58.7380   27.6290   44.7190 N   0  0  0  0  0  0  0  0  0  0  0  0
   59.8720   28.4960   45.1510 C   0  0  0  0  0  0  0  0  0  0  0  0
   59.6000   29.1790   46.5040 C   0  0  0  0  0  0  0  0  0  0  0  0
   60.7180   30.1380   46.9550 C   0  0  0  0  0  0  0  0  0  0  0  0
   60.6680   30.4400   48.4030 N   0  0  0  0  0  0  0  0  0  0  0  0
   59.2890   30.2760   48.8970 C   0  0  0  0  0  0  0  0  0  0  0  0
   61.1060   31.8190   48.6850 C   0  0  0  0  0  0  0  0  0  0  0  0
   58.0140   28.2830   43.6000 C   0  0  0  0  0  0  0  0  0  0  0  0
   57.0020   29.2900   44.0830 C   0  0  0  0  0  0  0  0  0  0  0  0
   55.7780   28.9610   44.5420 N   0  0  0  0  0  0  0  0  0  0  0  0
   55.2080   30.1140   44.8680 N   0  0  0  0  0  0  0  0  0  0  0  0
   56.0390   31.1160   44.6240 N   0  0  0  0  0  0  0  0  0  0  0  0
   57.1580   30.6280   44.1130 N   0  0  0  0  0  0  0  0  0  0  0  0
   58.3680   31.4080   43.8650 C   0  0  0  0  0  0  0  0  0  0  0  0
   58.5120   32.5080   44.8810 C   0  0  0  0  0  0  0  0  0  0  0  0
   58.2500   32.2560   46.2380 C   0  0  0  0  0  0  0  0  0  0  0  0
   58.3820   33.2780   47.1820 C   0  0  0  0  0  0  0  0  0  0  0  0
   58.7950   34.5520   46.7830 C   0  0  0  0  0  0  0  0  0  0  0  0
   59.0790   34.8070   45.4380 C   0  0  0  0  0  0  0  0  0  0  0  0
   58.9380   33.7890   44.4880 C   0  0  0  0  0  0  0  0  0  0  0  0
   55.8460   25.7500   46.0480 C   0  0  0  0  0  0  0  0  0  0  0  0
   55.0740   26.6980   46.3520 O   0  0  0  0  0  0  0  0  0  0  0  0
   55.3460   24.4900   45.9700 N   0  0  0  0  0  0  0  0  0  0  0  0
   56.1210   23.4200   45.6500 C   0  0  0  0  0  0  0  0  0  0  0  0
   55.5460   22.1490   45.5920 C   0  0  0  0  0  0  0  0  0  0  0  0
   55.5558   19.3016   46.2602 H   0  0  0  0  0  0  0  0  0  0  0  0
   54.7519   19.7041   44.7051 H   0  0  0  0  0  0  0  0  0  0  0  0
   56.3926   18.9729   44.7051 H   0  0  0  0  0  0  0  0  0  0  0  0
   58.3159   20.3096   44.8136 H   0  0  0  0  0  0  0  0  0  0  0  0
   60.3025   22.6160   45.8464 H   0  0  0  0  0  0  0  0  0  0  0  0
   60.1392   21.7025   44.3083 H   0  0  0  0  0  0  0  0  0  0  0  0
   60.0006   23.4934   44.3083 H   0  0  0  0  0  0  0  0  0  0  0  0
   59.0879   25.0670   45.2092 H   0  0  0  0  0  0  0  0  0  0  0  0
   56.9895   28.1104   45.8100 H   0  0  0  0  0  0  0  0  0  0  0  0
   58.3736   27.4551   46.7854 H   0  0  0  0  0  0  0  0  0  0  0  0
   60.7765   27.8767   45.2424 H   0  0  0  0  0  0  0  0  0  0  0  0
   60.0011   29.2844   44.3949 H   0  0  0  0  0  0  0  0  0  0  0  0
   58.6648   29.7521   46.4209 H   0  0  0  0  0  0  0  0  0  0  0  0
   59.5405   28.3807   47.2584 H   0  0  0  0  0  0  0  0  0  0  0  0
   61.6899   29.6765   46.7260 H   0  0  0  0  0  0  0  0  0  0  0  0
   60.5777   31.0860   46.4149 H   0  0  0  0  0  0  0  0  0  0  0  0
   59.2911   30.2763   49.9970 H   0  0  0  0  0  0  0  0  0  0  0  0
   58.6673   31.1065   48.5313 H   0  0  0  0  0  0  0  0  0  0  0  0
   58.8794   29.3228   48.5313 H   0  0  0  0  0  0  0  0  0  0  0  0
   61.1549   31.9729   49.7731 H   0  0  0  0  0  0  0  0  0  0  0  0
   62.1010   31.9847   48.2462 H   0  0  0  0  0  0  0  0  0  0  0  0
   60.3890   32.5284   48.2462 H   0  0  0  0  0  0  0  0  0  0  0  0
   58.7450   28.7964   42.9581 H   0  0  0  0  0  0  0  0  0  0  0  0
   57.4726   27.5010   43.0474 H   0  0  0  0  0  0  0  0  0  0  0  0
   59.2434   30.7446   43.9252 H   0  0  0  0  0  0  0  0  0  0  0  0
   58.2977   31.8593   42.8643 H   0  0  0  0  0  0  0  0  0  0  0  0
   57.9398   31.2505   46.5587 H   0  0  0  0  0  0  0  0  0  0  0  0
   58.1604   33.0792   48.2410 H   0  0  0  0  0  0  0  0  0  0  0  0
   58.8967   35.3550   47.5279 H   0  0  0  0  0  0  0  0  0  0  0  0
   59.4132   35.8076   45.1265 H   0  0  0  0  0  0  0  0  0  0  0  0
   59.1612   33.9918   43.4302 H   0  0  0  0  0  0  0  0  0  0  0  0
   54.4728   22.0245   45.7990 H   0  0  0  0  0  0  0  0  0  0  0  0
  1  2  1  0
  2  3  2  0
  3  4  1  0
  4  5  1  0
  4  6  2  0
  6  7  1  0
  7  8  2  0
  8  9  1  0
  9 10  1  0
 10 11  1  0
 11 12  1  0
 12 13  1  0
 13 14  1  0
 14 15  1  0
 14 16  1  0
 10 17  1  0
 17 18  1  0
 18 19  2  0
 19 20  1  0
 20 21  2  0
 21 22  1  0
 22 23  1  0
 23 24  1  0
 24 25  2  0
 25 26  1  0
 26 27  2  0
 27 28  1  0
 28 29  2  0
  8 30  1  0
 30 31  2  0
 30 32  1  0
 32 33  1  0
 33 34  2  0
 34  2  1  0
 33  6  1  0
 22 18  1  0
 29 24  1  0
  1 35  1  0
  1 36  1  0
  1 37  1  0
  3 38  1  0
  5 39  1  0
  5 40  1  0
  5 41  1  0
  7 42  1  0
  9 43  1  0
  9 44  1  0
 11 45  1  0
 11 46  1  0
 12 47  1  0
 12 48  1  0
 13 49  1  0
 13 50  1  0
 15 51  1  0
 15 52  1  0
 15 53  1  0
 16 54  1  0
 16 55  1  0
 16 56  1  0
 17 57  1  0
 17 58  1  0
 23 59  1  0
 23 60  1  0
 25 61  1  0
 26 62  1  0
 27 63  1  0
 28 64  1  0
 29 65  1  0
 34 66  1  0
M  CHG  1  32  -1
M  END
>  <UniqueID>  (26) 
25

>  <SMILES>  (26) 
Cc1cc(C)c2cc(CN(CCCN(C)C)Cc3nnnn3Cc3ccccc3)c(=O)[n-]c2c1

>  <Energy>  (26) 
111.8053000574047

>  <Genealogy>  (26) 
Cc1cc(C)c2cc(CN(CCCN(C)C)Cc3nnnn3Cc3ccccc3)c(=O)[n-]c2c1 (protonated)
Cc1cc(C)c2cc(CN(CCCN(C)C)Cc3nnnn3Cc3ccccc3)c(=O)[n-]c2c1 (3D coordinates assigned)
Cc1cc(C)c2cc(CN(CCCN(C)C)Cc3nnnn3Cc3ccccc3)c(=O)[n-]c2c1 (optimized conformer: 111.8053000574047 kcal/mol)

>  <smiles>  (26) 
Cc1cc(C)c2cc(CN(CCCN(C)C)Cc3nnnn3Cc3ccccc3)c(=O)[nH]c2c1

>  <score_type>  (26) 
oracle

>  <origin>  (26) 
adg

>  <m_score__min__energy>  (26) 
-12.050000000000001

>  <m_primary>  (26) 
energy

$$$$
26:0
     RDKit          3D

 45 46  0  0  0  0  0  0  0  0999 V2000
   56.4530   23.2710   48.2650 C   0  0  0  0  0  0  0  0  0  0  0  0
   57.3920   23.4750   47.2140 O   0  0  0  0  0  0  0  0  0  0  0  0
   57.1150   23.2860   45.8500 C   0  0  0  0  0  0  0  0  0  0  0  0
   57.4560   22.0930   45.1810 C   0  0  0  0  0  0  0  0  0  0  0  0
   57.2020   21.9520   43.8150 C   0  0  0  0  0  0  0  0  0  0  0  0
   56.6130   22.9950   43.0990 C   0  0  0  0  0  0  0  0  0  0  0  0
   56.2660   24.1800   43.7510 C   0  0  0  0  0  0  0  0  0  0  0  0
   56.4940   24.3250   45.1280 C   0  0  0  0  0  0  0  0  0  0  0  0
   56.1030   25.5820   45.7930 C   0  0  0  0  0  0  0  0  0  0  0  0
   54.8820   25.8140   45.9940 O   0  0  0  0  0  0  0  0  0  0  0  0
   57.0730   26.5400   46.2360 N   0  0  0  0  0  0  0  0  0  0  0  0
   57.9120   27.3560   45.3610 C   0  0  0  0  0  0  0  0  0  0  0  0
   57.7060   28.8420   45.6540 C   0  0  0  0  0  0  0  0  0  0  0  0
   56.5240   29.5540   44.5240 S   0  0  0  0  0  0  0  0  0  0  0  0
   55.1560   29.0040   44.8200 O   0  0  0  0  0  0  0  0  0  0  0  0
   56.9150   29.1880   43.1200 O   0  0  0  0  0  0  0  0  0  0  0  0
   56.5170   31.2830   44.7190 N   0  0  0  0  0  0  0  0  0  0  0  0
   57.7170   31.8880   44.1370 C   0  0  0  0  0  0  0  0  0  0  0  0
   57.7710   33.3930   44.4250 C   0  0  0  0  0  0  0  0  0  0  0  0
   58.4190   33.6800   45.7540 C   0  0  0  0  0  0  0  0  0  0  0  0
   59.3500   34.7250   45.8800 C   0  0  0  0  0  0  0  0  0  0  0  0
   59.9750   34.9670   47.1060 C   0  0  0  0  0  0  0  0  0  0  0  0
   59.6820   34.1650   48.2130 C   0  0  0  0  0  0  0  0  0  0  0  0
   58.7650   33.1160   48.0930 C   0  0  0  0  0  0  0  0  0  0  0  0
   58.1390   32.8700   46.8670 C   0  0  0  0  0  0  0  0  0  0  0  0
   56.9592   23.3810   49.2354 H   0  0  0  0  0  0  0  0  0  0  0  0
   55.6466   24.0149   48.1857 H   0  0  0  0  0  0  0  0  0  0  0  0
   56.0279   22.2596   48.1857 H   0  0  0  0  0  0  0  0  0  0  0  0
   57.9248   21.2684   45.7380 H   0  0  0  0  0  0  0  0  0  0  0  0
   57.4670   21.0158   43.3018 H   0  0  0  0  0  0  0  0  0  0  0  0
   56.4222   22.8837   42.0214 H   0  0  0  0  0  0  0  0  0  0  0  0
   55.8114   25.0044   43.1821 H   0  0  0  0  0  0  0  0  0  0  0  0
   58.9680   27.0973   45.5279 H   0  0  0  0  0  0  0  0  0  0  0  0
   57.6334   27.1579   44.3155 H   0  0  0  0  0  0  0  0  0  0  0  0
   57.3359   28.9585   46.6833 H   0  0  0  0  0  0  0  0  0  0  0  0
   58.6677   29.3617   45.5311 H   0  0  0  0  0  0  0  0  0  0  0  0
   58.6073   31.4074   44.5687 H   0  0  0  0  0  0  0  0  0  0  0  0
   57.6890   31.7414   43.0472 H   0  0  0  0  0  0  0  0  0  0  0  0
   58.3499   33.8879   43.6313 H   0  0  0  0  0  0  0  0  0  0  0  0
   56.7398   33.7748   44.4553 H   0  0  0  0  0  0  0  0  0  0  0  0
   59.5876   35.3549   45.0101 H   0  0  0  0  0  0  0  0  0  0  0  0
   60.6988   35.7899   47.2003 H   0  0  0  0  0  0  0  0  0  0  0  0
   60.1727   34.3591   49.1782 H   0  0  0  0  0  0  0  0  0  0  0  0
   58.5360   32.4839   48.9636 H   0  0  0  0  0  0  0  0  0  0  0  0
   57.4245   32.0389   46.7738 H   0  0  0  0  0  0  0  0  0  0  0  0
  1  2  1  0
  2  3  1  0
  3  4  2  0
  4  5  1  0
  5  6  2  0
  6  7  1  0
  7  8  2  0
  8  9  1  0
  9 10  2  0
  9 11  1  0
 11 12  1  0
 12 13  1  0
 13 14  1  0
 14 15  2  0
 14 16  2  0
 14 17  1  0
 17 18  1  0
 18 19  1  0
 19 20  1  0
 20 21  2  0
 21 22  1  0
 22 23  2  0
 23 24  1  0
 24 25  2  0
  8  3  1  0
 25 20  1  0
  1 26  1  0
  1 27  1  0
  1 28  1  0
  4 29  1  0
  5 30  1  0
  6 31  1  0
  7 32  1  0
 12 33  1  0
 12 34  1  0
 13 35  1  0
 13 36  1  0
 18 37  1  0
 18 38  1  0
 19 39  1  0
 19 40  1  0
 21 41  1  0
 22 42  1  0
 23 43  1  0
 24 44  1  0
 25 45  1  0
M  CHG  2  11  -1  17  -1
M  END
>  <UniqueID>  (27) 
26

>  <SMILES>  (27) 
COc1ccccc1C(=O)[N-]CCS(=O)(=O)[N-]CCc1ccccc1

>  <Energy>  (27) 
39.608811380432954

>  <Genealogy>  (27) 
COc1ccccc1C(=O)[N-]CCS(=O)(=O)[N-]CCc1ccccc1 (protonated)
COc1ccccc1C(=O)[N-]CCS(=O)(=O)[N-]CCc1ccccc1 (3D coordinates assigned)
COc1ccccc1C(=O)[N-]CCS(=O)(=O)[N-]CCc1ccccc1 (optimized conformer: 39.608811380432954 kcal/mol)

>  <smiles>  (27) 
COc1ccccc1C(=O)NCCS(=O)(=O)NCCc1ccccc1

>  <score_type>  (27) 
oracle

>  <origin>  (27) 
adg

>  <m_score__min__energy>  (27) 
-11.69

>  <m_primary>  (27) 
energy

$$$$
27:0
     RDKit          3D

 50 52  0  0  0  0  0  0  0  0999 V2000
   58.0630   33.9990   44.9580 C   0  0  0  0  0  0  0  0  0  0  0  0
   57.6940   32.8550   45.8940 C   0  0  0  0  0  0  0  0  0  0  0  0
   57.7330   31.2820   45.0490 S   0  0  0  0  0  0  0  0  0  0  0  0
   58.3290   31.4860   43.6830 O   0  0  0  0  0  0  0  0  0  0  0  0
   56.3330   30.7680   44.8700 O   0  0  0  0  0  0  0  0  0  0  0  0
   58.7560   30.1420   45.9490 C   0  0  0  0  0  0  0  0  0  0  0  0
   59.2180   30.5540   47.2090 C   0  0  0  0  0  0  0  0  0  0  0  0
   60.0100   29.7090   48.0030 C   0  0  0  0  0  0  0  0  0  0  0  0
   60.4840   30.1180   49.2980 N   0  0  0  0  0  0  0  0  0  0  0  0
   60.6340   29.2320   50.4220 C   0  0  0  0  0  0  0  0  0  0  0  0
   60.2920   28.0220   50.3420 O   0  0  0  0  0  0  0  0  0  0  0  0
   61.2910   29.7230   51.6760 C   0  0  0  0  0  0  0  0  0  0  0  0
   63.0210   29.1420   51.7780 S   0  0  0  0  0  0  0  0  0  0  0  0
   63.7100   30.5340   50.8870 C   0  0  0  0  0  0  0  0  0  0  0  0
   62.9860   31.1480   49.9170 N   0  0  0  0  0  0  0  0  0  0  0  0
   63.4930   32.1950   49.2120 C   0  0  0  0  0  0  0  0  0  0  0  0
   62.6560   32.8200   48.1700 C   0  0  0  0  0  0  0  0  0  0  0  0
   63.0870   33.4470   47.0120 C   0  0  0  0  0  0  0  0  0  0  0  0
   61.9420   33.8620   46.3660 C   0  0  0  0  0  0  0  0  0  0  0  0
   60.8870   33.4680   47.1620 C   0  0  0  0  0  0  0  0  0  0  0  0
   61.3430   32.8520   48.2270 O   0  0  0  0  0  0  0  0  0  0  0  0
   64.7890   32.6490   49.4970 C   0  0  0  0  0  0  0  0  0  0  0  0
   65.5310   31.9960   50.4910 C   0  0  0  0  0  0  0  0  0  0  0  0
   66.9080   32.4660   50.8600 C   0  0  0  0  0  0  0  0  0  0  0  0
   67.5050   33.0900   49.7790 F   0  0  0  0  0  0  0  0  0  0  0  0
   66.8450   33.3660   51.9100 F   0  0  0  0  0  0  0  0  0  0  0  0
   67.6760   31.3820   51.2370 F   0  0  0  0  0  0  0  0  0  0  0  0
   64.9660   30.9630   51.1720 N   0  0  0  0  0  0  0  0  0  0  0  0
   60.3830   28.4590   47.5040 C   0  0  0  0  0  0  0  0  0  0  0  0
   59.9260   28.0290   46.2590 C   0  0  0  0  0  0  0  0  0  0  0  0
   59.0940   28.8460   45.4760 C   0  0  0  0  0  0  0  0  0  0  0  0
   58.6240   28.3230   44.1450 C   0  0  0  0  0  0  0  0  0  0  0  0
   58.3474   34.8807   45.5510 H   0  0  0  0  0  0  0  0  0  0  0  0
   58.9088   33.6954   44.3236 H   0  0  0  0  0  0  0  0  0  0  0  0
   57.1992   34.2468   44.3236 H   0  0  0  0  0  0  0  0  0  0  0  0
   58.4100   32.8306   46.7287 H   0  0  0  0  0  0  0  0  0  0  0  0
   56.6712   33.0250   46.2614 H   0  0  0  0  0  0  0  0  0  0  0  0
   58.9552   31.5555   47.5805 H   0  0  0  0  0  0  0  0  0  0  0  0
   60.9080   31.0700   49.3750 H   0  0  0  0  0  0  0  0  0  0  0  0
   61.2798   30.8229   51.6813 H   0  0  0  0  0  0  0  0  0  0  0  0
   60.7367   29.3284   52.5403 H   0  0  0  0  0  0  0  0  0  0  0  0
   64.1259   33.5849   46.6779 H   0  0  0  0  0  0  0  0  0  0  0  0
   61.8820   34.3994   45.4081 H   0  0  0  0  0  0  0  0  0  0  0  0
   59.8244   33.6435   46.9380 H   0  0  0  0  0  0  0  0  0  0  0  0
   65.2158   33.5026   48.9501 H   0  0  0  0  0  0  0  0  0  0  0  0
   61.0423   27.8088   48.0978 H   0  0  0  0  0  0  0  0  0  0  0  0
   60.2208   27.0373   45.8852 H   0  0  0  0  0  0  0  0  0  0  0  0
   57.8966   27.5136   44.3052 H   0  0  0  0  0  0  0  0  0  0  0  0
   58.1480   29.1370   43.5786 H   0  0  0  0  0  0  0  0  0  0  0  0
   59.4840   27.9363   43.5786 H   0  0  0  0  0  0  0  0  0  0  0  0
  1  2  1  0
  2  3  1  0
  3  4  2  0
  3  5  2  0
  3  6  1  0
  6  7  2  0
  7  8  1  0
  8  9  1  0
  9 10  1  0
 10 11  2  0
 10 12  1  0
 12 13  1  0
 13 14  1  0
 14 15  2  0
 15 16  1  0
 16 17  1  0
 17 18  2  0
 18 19  1  0
 19 20  2  0
 20 21  1  0
 16 22  2  0
 22 23  1  0
 23 24  1  0
 24 25  1  0
 24 26  1  0
 24 27  1  0
 23 28  2  0
  8 29  2  0
 29 30  1  0
 30 31  2  0
 31 32  1  0
 31  6  1  0
 28 14  1  0
 21 17  1  0
  1 33  1  0
  1 34  1  0
  1 35  1  0
  2 36  1  0
  2 37  1  0
  7 38  1  0
  9 39  1  0
 12 40  1  0
 12 41  1  0
 18 42  1  0
 19 43  1  0
 20 44  1  0
 22 45  1  0
 29 46  1  0
 30 47  1  0
 32 48  1  0
 32 49  1  0
 32 50  1  0
M  END
>  <UniqueID>  (28) 
27

>  <SMILES>  (28) 
CCS(=O)(=O)c1cc(NC(=O)CSc2nc(-c3ccco3)cc(C(F)(F)F)n2)ccc1C

>  <Energy>  (28) 
71.35282290418067

>  <Genealogy>  (28) 
CCS(=O)(=O)c1cc(NC(=O)CSc2nc(-c3ccco3)cc(C(F)(F)F)n2)ccc1C (3D coordinates assigned)
CCS(=O)(=O)c1cc(NC(=O)CSc2nc(-c3ccco3)cc(C(F)(F)F)n2)ccc1C (optimized conformer: 71.35282290418067 kcal/mol)

>  <smiles>  (28) 
CCS(=O)(=O)c1cc(NC(=O)CSc2nc(-c3ccco3)cc(C(F)(F)F)n2)ccc1C

>  <score_type>  (28) 
oracle

>  <origin>  (28) 
adg

>  <m_score__min__energy>  (28) 
-8.4399999999999995

>  <m_primary>  (28) 
energy

$$$$
28:0
     RDKit          3D

 28 29  0  0  0  0  0  0  0  0999 V2000
   55.1540   26.6970   46.0050 N   0  0  0  0  0  0  0  0  0  0  0  0
   55.8330   25.4640   46.2420 C   0  0  0  0  0  0  0  0  0  0  0  0
   55.1610   24.4390   46.5320 O   0  0  0  0  0  0  0  0  0  0  0  0
   57.3070   25.4070   46.1800 C   0  0  0  0  0  0  0  0  0  0  0  0
   58.0060   24.1870   46.1670 C   0  0  0  0  0  0  0  0  0  0  0  0
   59.3780   24.3210   45.9950 C   0  0  0  0  0  0  0  0  0  0  0  0
   59.7410   25.9560   45.8590 S   0  0  0  0  0  0  0  0  0  0  0  0
   58.1640   26.5070   46.0360 C   0  0  0  0  0  0  0  0  0  0  0  0
   57.8150   27.8970   46.0450 N   0  0  0  0  0  0  0  0  0  0  0  0
   58.7630   28.9400   45.7660 C   0  0  0  0  0  0  0  0  0  0  0  0
   59.9670   28.6480   45.5270 O   0  0  0  0  0  0  0  0  0  0  0  0
   58.3230   30.3520   45.6390 C   0  0  0  0  0  0  0  0  0  0  0  0
   59.0710   31.3330   46.3150 C   0  0  0  0  0  0  0  0  0  0  0  0
   58.7790   32.6890   46.1590 C   0  0  0  0  0  0  0  0  0  0  0  0
   57.7370   33.0860   45.3260 C   0  0  0  0  0  0  0  0  0  0  0  0
   56.9680   32.1300   44.6620 C   0  0  0  0  0  0  0  0  0  0  0  0
   57.2290   30.7570   44.8210 C   0  0  0  0  0  0  0  0  0  0  0  0
   56.3030   29.7980   44.1750 C   0  0  0  0  0  0  0  0  0  0  0  0
   56.4920   29.4140   42.9930 O   0  0  0  0  0  0  0  0  0  0  0  0
   55.2390   29.2640   44.8940 O   0  0  0  0  0  0  0  0  0  0  0  0
   55.1490   27.1320   45.0550 H   0  0  0  0  0  0  0  0  0  0  0  0
   57.5100   23.2120   46.2829 H   0  0  0  0  0  0  0  0  0  0  0  0
   60.1043   23.4959   45.9546 H   0  0  0  0  0  0  0  0  0  0  0  0
   56.8000   28.1280   45.9600 H   0  0  0  0  0  0  0  0  0  0  0  0
   59.8964   31.0276   46.9749 H   0  0  0  0  0  0  0  0  0  0  0  0
   59.3727   33.4443   46.6947 H   0  0  0  0  0  0  0  0  0  0  0  0
   57.5194   34.1558   45.1910 H   0  0  0  0  0  0  0  0  0  0  0  0
   56.1469   32.4541   44.0056 H   0  0  0  0  0  0  0  0  0  0  0  0
  1  2  1  0
  2  3  2  0
  2  4  1  0
  4  5  1  0
  5  6  2  0
  6  7  1  0
  7  8  1  0
  8  9  1  0
  9 10  1  0
 10 11  2  0
 10 12  1  0
 12 13  2  0
 13 14  1  0
 14 15  2  0
 15 16  1  0
 16 17  2  0
 17 18  1  0
 18 19  2  0
 18 20  1  0
  8  4  2  0
 17 12  1  0
  1 21  1  0
  5 22  1  0
  6 23  1  0
  9 24  1  0
 13 25  1  0
 14 26  1  0
 15 27  1  0
 16 28  1  0
M  CHG  2   1  -1  20  -1
M  END
>  <UniqueID>  (29) 
28

>  <SMILES>  (29) 
[NH-]C(=O)c1ccsc1NC(=O)c1ccccc1C(=O)[O-]

>  <Energy>  (29) 
70.16265895301507

>  <Genealogy>  (29) 
[NH-]C(=O)c1ccsc1NC(=O)c1ccccc1C(=O)[O-] (protonated)
[NH-]C(=O)c1ccsc1NC(=O)c1ccccc1C(=O)[O-] (3D coordinates assigned)
[NH-]C(=O)c1ccsc1NC(=O)c1ccccc1C(=O)[O-] (optimized conformer: 70.16265895301507 kcal/mol)

>  <smiles>  (29) 
NC(=O)c1ccsc1NC(=O)c1ccccc1C(=O)O

>  <score_type>  (29) 
oracle

>  <origin>  (29) 
adg

>  <m_score__min__energy>  (29) 
-12.68

>  <m_primary>  (29) 
energy

$$$$
29:0
     RDKit          3D

 60 63  0  0  0  0  0  0  0  0999 V2000
   59.6510   34.4160   49.4730 O   0  0  0  0  0  0  0  0  0  0  0  0
   59.7430   33.2010   49.7960 C   0  0  0  0  0  0  0  0  0  0  0  0
   61.1080   32.5550   49.8430 C   0  0  0  0  0  0  0  0  0  0  0  0
   62.1460   33.2570   48.9480 C   0  0  0  0  0  0  0  0  0  0  0  0
   62.0390   32.7720   47.2260 S   0  0  0  0  0  0  0  0  0  0  0  0
   62.3380   31.3030   47.1150 O   0  0  0  0  0  0  0  0  0  0  0  0
   63.0730   33.5290   46.4390 O   0  0  0  0  0  0  0  0  0  0  0  0
   60.4300   33.0700   46.5710 C   0  0  0  0  0  0  0  0  0  0  0  0
   60.0130   34.3840   46.3290 C   0  0  0  0  0  0  0  0  0  0  0  0
   58.7610   34.6300   45.7630 C   0  0  0  0  0  0  0  0  0  0  0  0
   57.9160   33.5660   45.4350 C   0  0  0  0  0  0  0  0  0  0  0  0
   58.3100   32.2410   45.6890 C   0  0  0  0  0  0  0  0  0  0  0  0
   57.4260   31.1070   45.3300 C   0  0  0  0  0  0  0  0  0  0  0  0
   56.5250   31.2640   44.4620 O   0  0  0  0  0  0  0  0  0  0  0  0
   57.5540   29.8510   46.0140 N   0  0  0  0  0  0  0  0  0  0  0  0
   57.6220   28.5540   45.4060 C   0  0  0  0  0  0  0  0  0  0  0  0
   58.1320   28.4490   44.1040 C   0  0  0  0  0  0  0  0  0  0  0  0
   58.2130   27.2030   43.4750 C   0  0  0  0  0  0  0  0  0  0  0  0
   57.7740   26.0530   44.1390 C   0  0  0  0  0  0  0  0  0  0  0  0
   57.2380   26.1510   45.4270 C   0  0  0  0  0  0  0  0  0  0  0  0
   56.6640   24.7100   46.2500 Cl  0  0  0  0  0  0  0  0  0  0  0  0
   57.1540   27.3970   46.0580 C   0  0  0  0  0  0  0  0  0  0  0  0
   59.5660   32.0050   46.2790 C   0  0  0  0  0  0  0  0  0  0  0  0
   58.5310   32.4380   49.8950 N   0  0  0  0  0  0  0  0  0  0  0  0
   58.0150   31.7250   51.0300 C   0  0  0  0  0  0  0  0  0  0  0  0
   57.1260   32.3340   51.9300 C   0  0  0  0  0  0  0  0  0  0  0  0
   56.6090   31.6140   53.0100 C   0  0  0  0  0  0  0  0  0  0  0  0
   56.9610   30.2770   53.1920 C   0  0  0  0  0  0  0  0  0  0  0  0
   57.8210   29.6520   52.2870 C   0  0  0  0  0  0  0  0  0  0  0  0
   58.3380   30.3640   51.1920 C   0  0  0  0  0  0  0  0  0  0  0  0
   59.2020   29.7050   50.2510 N   0  0  0  0  0  0  0  0  0  0  0  0
   60.5540   29.3170   50.6570 C   0  0  0  0  0  0  0  0  0  0  0  0
   61.0150   28.1230   49.8170 C   0  0  0  0  0  0  0  0  0  0  0  0
   60.8710   28.3940   48.4340 O   0  0  0  0  0  0  0  0  0  0  0  0
   59.5000   28.5490   48.1150 C   0  0  0  0  0  0  0  0  0  0  0  0
   58.9130   29.7770   48.8160 C   0  0  0  0  0  0  0  0  0  0  0  0
   61.4697   32.5786   50.8816 H   0  0  0  0  0  0  0  0  0  0  0  0
   60.9951   31.5277   49.4663 H   0  0  0  0  0  0  0  0  0  0  0  0
   61.9876   34.3434   49.0154 H   0  0  0  0  0  0  0  0  0  0  0  0
   63.1419   32.9607   49.3092 H   0  0  0  0  0  0  0  0  0  0  0  0
   60.6738   35.2252   46.5856 H   0  0  0  0  0  0  0  0  0  0  0  0
   58.4383   35.6646   45.5745 H   0  0  0  0  0  0  0  0  0  0  0  0
   56.9370   33.7668   44.9754 H   0  0  0  0  0  0  0  0  0  0  0  0
   58.4702   29.3520   43.5746 H   0  0  0  0  0  0  0  0  0  0  0  0
   58.6224   27.1271   42.4569 H   0  0  0  0  0  0  0  0  0  0  0  0
   57.8503   25.0715   43.6482 H   0  0  0  0  0  0  0  0  0  0  0  0
   56.7211   27.4730   47.0664 H   0  0  0  0  0  0  0  0  0  0  0  0
   59.8727   30.9749   46.5133 H   0  0  0  0  0  0  0  0  0  0  0  0
   56.8347   33.3846   51.7839 H   0  0  0  0  0  0  0  0  0  0  0  0
   55.9232   32.1026   53.7178 H   0  0  0  0  0  0  0  0  0  0  0  0
   56.5611   29.7147   54.0487 H   0  0  0  0  0  0  0  0  0  0  0  0
   58.0951   28.5966   52.4322 H   0  0  0  0  0  0  0  0  0  0  0  0
   61.2406   30.1621   50.5011 H   0  0  0  0  0  0  0  0  0  0  0  0
   60.5520   29.0383   51.7211 H   0  0  0  0  0  0  0  0  0  0  0  0
   62.0730   27.9157   50.0354 H   0  0  0  0  0  0  0  0  0  0  0  0
   60.3931   27.2522   50.0718 H   0  0  0  0  0  0  0  0  0  0  0  0
   59.3946   28.6705   47.0268 H   0  0  0  0  0  0  0  0  0  0  0  0
   58.9561   27.6556   48.4556 H   0  0  0  0  0  0  0  0  0  0  0  0
   59.3632   30.6888   48.3966 H   0  0  0  0  0  0  0  0  0  0  0  0
   57.8241   29.8015   48.6620 H   0  0  0  0  0  0  0  0  0  0  0  0
  1  2  2  0
  2  3  1  0
  3  4  1  0
  4  5  1  0
  5  6  2  0
  5  7  2  0
  5  8  1  0
  8  9  2  0
  9 10  1  0
 10 11  2  0
 11 12  1  0
 12 13  1  0
 13 14  2  0
 13 15  1  0
 15 16  1  0
 16 17  2  0
 17 18  1  0
 18 19  2  0
 19 20  1  0
 20 21  1  0
 20 22  2  0
 12 23  2  0
  2 24  1  0
 24 25  1  0
 25 26  2  0
 26 27  1  0
 27 28  2  0
 28 29  1  0
 29 30  2  0
 30 31  1  0
 31 32  1  0
 32 33  1  0
 33 34  1  0
 34 35  1  0
 35 36  1  0
 23  8  1  0
 30 25  1  0
 36 31  1  0
 22 16  1  0
  3 37  1  0
  3 38  1  0
  4 39  1  0
  4 40  1  0
  9 41  1  0
 10 42  1  0
 11 43  1  0
 17 44  1  0
 18 45  1  0
 19 46  1  0
 22 47  1  0
 23 48  1  0
 26 49  1  0
 27 50  1  0
 28 51  1  0
 29 52  1  0
 32 53  1  0
 32 54  1  0
 33 55  1  0
 33 56  1  0
 35 57  1  0
 35 58  1  0
 36 59  1  0
 36 60  1  0
M  CHG  2  15  -1  24  -1
M  END
>  <UniqueID>  (30) 
29

>  <SMILES>  (30) 
O=C(CCS(=O)(=O)c1cccc(C(=O)[N-]c2cccc(Cl)c2)c1)[N-]c1ccccc1N1CCOCC1

>  <Energy>  (30) 
74.05531425430696

>  <Genealogy>  (30) 
O=C(CCS(=O)(=O)c1cccc(C(=O)[N-]c2cccc(Cl)c2)c1)[N-]c1ccccc1N1CCOCC1 (protonated)
O=C(CCS(=O)(=O)c1cccc(C(=O)[N-]c2cccc(Cl)c2)c1)[N-]c1ccccc1N1CCOCC1 (3D coordinates assigned)
O=C(CCS(=O)(=O)c1cccc(C(=O)[N-]c2cccc(Cl)c2)c1)[N-]c1ccccc1N1CCOCC1 (nonaromatic ring conformer: 74.05531425430696 kcal/mol)

>  <smiles>  (30) 
O=C(CCS(=O)(=O)c1cccc(C(=O)Nc2cccc(Cl)c2)c1)Nc1ccccc1N1CCOCC1

>  <score_type>  (30) 
oracle

>  <origin>  (30) 
adg

>  <m_score__min__energy>  (30) 
-12.41

>  <m_primary>  (30) 
energy

$$$$
30:0
     RDKit          3D

 46 48  0  0  0  0  0  0  0  0999 V2000
   55.2240   30.0800   44.8460 O   0  0  0  0  0  0  0  0  0  0  0  0
   56.0990   29.1920   44.6490 C   0  0  0  0  0  0  0  0  0  0  0  0
   57.2680   29.4900   43.7700 C   0  0  0  0  0  0  0  0  0  0  0  0
   57.3050   30.8880   43.4890 O   0  0  0  0  0  0  0  0  0  0  0  0
   57.7540   31.8660   44.3880 C   0  0  0  0  0  0  0  0  0  0  0  0
   58.1580   33.1480   43.9700 C   0  0  0  0  0  0  0  0  0  0  0  0
   58.6090   34.0850   44.9070 C   0  0  0  0  0  0  0  0  0  0  0  0
   58.6560   33.7530   46.2650 C   0  0  0  0  0  0  0  0  0  0  0  0
   59.2470   34.9490   47.4620 S   0  0  0  0  0  0  0  0  0  0  0  0
   60.8130   34.1030   47.6730 C   0  0  0  0  0  0  0  0  0  0  0  0
   61.2290   33.7050   48.9510 C   0  0  0  0  0  0  0  0  0  0  0  0
   62.4460   33.0370   49.1130 C   0  0  0  0  0  0  0  0  0  0  0  0
   63.2510   32.7680   48.0020 C   0  0  0  0  0  0  0  0  0  0  0  0
   62.8410   33.1680   46.7270 C   0  0  0  0  0  0  0  0  0  0  0  0
   61.6220   33.8340   46.5620 C   0  0  0  0  0  0  0  0  0  0  0  0
   58.2460   32.4830   46.6860 C   0  0  0  0  0  0  0  0  0  0  0  0
   57.7990   31.5450   45.7510 C   0  0  0  0  0  0  0  0  0  0  0  0
   55.9730   27.8990   45.2490 N   0  0  0  0  0  0  0  0  0  0  0  0
   56.9350   27.3520   46.2020 C   0  0  0  0  0  0  0  0  0  0  0  0
   58.3640   27.4170   45.6480 C   0  0  0  0  0  0  0  0  0  0  0  0
   59.1960   28.4400   46.3800 C   0  0  0  0  0  0  0  0  0  0  0  0
   58.9170   28.7530   47.7210 C   0  0  0  0  0  0  0  0  0  0  0  0
   59.6780   29.7170   48.3940 C   0  0  0  0  0  0  0  0  0  0  0  0
   60.7140   30.3810   47.7290 C   0  0  0  0  0  0  0  0  0  0  0  0
   60.9890   30.0850   46.3910 C   0  0  0  0  0  0  0  0  0  0  0  0
   60.2320   29.1200   45.7160 C   0  0  0  0  0  0  0  0  0  0  0  0
   58.1961   29.1936   44.2806 H   0  0  0  0  0  0  0  0  0  0  0  0
   57.1729   28.9284   42.8290 H   0  0  0  0  0  0  0  0  0  0  0  0
   58.1192   33.4144   42.9034 H   0  0  0  0  0  0  0  0  0  0  0  0
   58.9270   35.0842   44.5748 H   0  0  0  0  0  0  0  0  0  0  0  0
   60.5978   33.9183   49.8263 H   0  0  0  0  0  0  0  0  0  0  0  0
   62.7708   32.7225   50.1158 H   0  0  0  0  0  0  0  0  0  0  0  0
   64.2079   32.2411   48.1314 H   0  0  0  0  0  0  0  0  0  0  0  0
   63.4766   32.9592   45.8538 H   0  0  0  0  0  0  0  0  0  0  0  0
   61.2985   34.1468   45.5583 H   0  0  0  0  0  0  0  0  0  0  0  0
   58.2755   32.2225   47.7543 H   0  0  0  0  0  0  0  0  0  0  0  0
   57.4802   30.5475   46.0878 H   0  0  0  0  0  0  0  0  0  0  0  0
   56.8853   27.9325   47.1350 H   0  0  0  0  0  0  0  0  0  0  0  0
   56.6810   26.2978   46.3867 H   0  0  0  0  0  0  0  0  0  0  0  0
   58.8349   26.4290   45.7577 H   0  0  0  0  0  0  0  0  0  0  0  0
   58.3101   27.7105   44.5892 H   0  0  0  0  0  0  0  0  0  0  0  0
   58.0975   28.2388   48.2444 H   0  0  0  0  0  0  0  0  0  0  0  0
   59.4608   29.9522   49.4464 H   0  0  0  0  0  0  0  0  0  0  0  0
   61.3125   31.1364   48.2592 H   0  0  0  0  0  0  0  0  0  0  0  0
   61.8012   30.6109   45.8677 H   0  0  0  0  0  0  0  0  0  0  0  0
   60.4487   28.8929   44.6617 H   0  0  0  0  0  0  0  0  0  0  0  0
  1  2  2  0
  2  3  1  0
  3  4  1  0
  4  5  1  0
  5  6  2  0
  6  7  1  0
  7  8  2  0
  8  9  1  0
  9 10  1  0
 10 11  2  0
 11 12  1  0
 12 13  2  0
 13 14  1  0
 14 15  2  0
  8 16  1  0
 16 17  2  0
  2 18  1  0
 18 19  1  0
 19 20  1  0
 20 21  1  0
 21 22  2  0
 22 23  1  0
 23 24  2  0
 24 25  1  0
 25 26  2  0
 17  5  1  0
 26 21  1  0
 15 10  1  0
  3 27  1  0
  3 28  1  0
  6 29  1  0
  7 30  1  0
 11 31  1  0
 12 32  1  0
 13 33  1  0
 14 34  1  0
 15 35  1  0
 16 36  1  0
 17 37  1  0
 19 38  1  0
 19 39  1  0
 20 40  1  0
 20 41  1  0
 22 42  1  0
 23 43  1  0
 24 44  1  0
 25 45  1  0
 26 46  1  0
M  CHG  1  18  -1
M  END
>  <UniqueID>  (31) 
30

>  <SMILES>  (31) 
O=C(COc1ccc(Sc2ccccc2)cc1)[N-]CCc1ccccc1

>  <Energy>  (31) 
37.67624497075943

>  <Genealogy>  (31) 
O=C(COc1ccc(Sc2ccccc2)cc1)[N-]CCc1ccccc1 (protonated)
O=C(COc1ccc(Sc2ccccc2)cc1)[N-]CCc1ccccc1 (3D coordinates assigned)
O=C(COc1ccc(Sc2ccccc2)cc1)[N-]CCc1ccccc1 (optimized conformer: 37.67624497075943 kcal/mol)

>  <smiles>  (31) 
O=C(COc1ccc(Sc2ccccc2)cc1)NCCc1ccccc1

>  <score_type>  (31) 
oracle

>  <origin>  (31) 
adg

>  <m_score__min__energy>  (31) 
-10.81

>  <m_primary>  (31) 
energy

$$$$
31:0
     RDKit          3D

 53 56  0  0  0  0  0  0  0  0999 V2000
   55.1980   26.7180   46.0270 N   0  0  0  0  0  0  0  0  0  0  0  0
   56.7140   25.9090   46.2260 S   0  0  0  0  0  0  0  0  0  0  0  0
   56.7150   25.1450   47.5170 O   0  0  0  0  0  0  0  0  0  0  0  0
   56.9190   24.9430   45.0910 O   0  0  0  0  0  0  0  0  0  0  0  0
   58.0120   27.0980   46.2350 C   0  0  0  0  0  0  0  0  0  0  0  0
   58.5560   27.5600   45.0310 C   0  0  0  0  0  0  0  0  0  0  0  0
   59.5990   28.4910   45.0420 C   0  0  0  0  0  0  0  0  0  0  0  0
   60.1040   28.9650   46.2550 C   0  0  0  0  0  0  0  0  0  0  0  0
   59.5650   28.5080   47.4700 C   0  0  0  0  0  0  0  0  0  0  0  0
   60.0950   28.9510   48.7290 N   0  0  0  0  0  0  0  0  0  0  0  0
   59.3560   29.7650   49.6520 C   0  0  0  0  0  0  0  0  0  0  0  0
   58.0910   29.7210   49.6710 O   0  0  0  0  0  0  0  0  0  0  0  0
   60.0850   30.6740   50.5980 C   0  0  0  0  0  0  0  0  0  0  0  0
   61.2970   31.2200   49.9460 N   0  0  0  0  0  0  0  0  0  0  0  0
   62.5980   30.6730   50.2990 C   0  0  0  0  0  0  0  0  0  0  0  0
   62.6830   29.6590   51.0590 O   0  0  0  0  0  0  0  0  0  0  0  0
   63.8600   31.2840   49.7490 C   0  0  0  0  0  0  0  0  0  0  0  0
   63.7240   33.0890   49.8890 S   0  0  0  0  0  0  0  0  0  0  0  0
   62.3040   33.1650   48.7820 C   0  0  0  0  0  0  0  0  0  0  0  0
   62.2980   34.1020   47.7410 C   0  0  0  0  0  0  0  0  0  0  0  0
   61.1880   34.2110   46.8990 C   0  0  0  0  0  0  0  0  0  0  0  0
   60.0750   33.3730   47.0860 C   0  0  0  0  0  0  0  0  0  0  0  0
   58.6710   33.5130   46.0280 S   0  0  0  0  0  0  0  0  0  0  0  0
   58.4890   34.9500   45.6540 O   0  0  0  0  0  0  0  0  0  0  0  0
   57.4330   33.0390   46.7350 O   0  0  0  0  0  0  0  0  0  0  0  0
   58.8730   32.5750   44.5830 N   0  0  0  0  0  0  0  0  0  0  0  0
   57.9200   31.6240   44.0890 C   0  0  0  0  0  0  0  0  0  0  0  0
   57.3130   30.7430   45.0030 C   0  0  0  0  0  0  0  0  0  0  0  0
   56.3970   29.7870   44.5540 C   0  0  0  0  0  0  0  0  0  0  0  0
   56.0590   29.7240   43.1910 C   0  0  0  0  0  0  0  0  0  0  0  0
   56.6440   30.6110   42.2740 C   0  0  0  0  0  0  0  0  0  0  0  0
   57.5860   31.5570   42.7120 C   0  0  0  0  0  0  0  0  0  0  0  0
   60.0920   32.4090   48.1060 C   0  0  0  0  0  0  0  0  0  0  0  0
   61.2100   32.2880   48.9640 C   0  0  0  0  0  0  0  0  0  0  0  0
   58.5290   27.5610   47.4510 C   0  0  0  0  0  0  0  0  0  0  0  0
   55.1840   27.1400   45.0660 H   0  0  0  0  0  0  0  0  0  0  0  0
   58.1618   27.1895   44.0732 H   0  0  0  0  0  0  0  0  0  0  0  0
   60.0230   28.8511   44.0930 H   0  0  0  0  0  0  0  0  0  0  0  0
   60.9249   29.6972   46.2594 H   0  0  0  0  0  0  0  0  0  0  0  0
   61.0540   28.6420   49.0030 H   0  0  0  0  0  0  0  0  0  0  0  0
   59.4232   31.5032   50.8885 H   0  0  0  0  0  0  0  0  0  0  0  0
   60.3821   30.1025   51.4897 H   0  0  0  0  0  0  0  0  0  0  0  0
   64.7272   30.9300   50.3258 H   0  0  0  0  0  0  0  0  0  0  0  0
   63.9955   30.9936   48.6967 H   0  0  0  0  0  0  0  0  0  0  0  0
   63.1700   34.7543   47.5857 H   0  0  0  0  0  0  0  0  0  0  0  0
   61.1852   34.9542   46.0881 H   0  0  0  0  0  0  0  0  0  0  0  0
   57.5597   30.8066   46.0731 H   0  0  0  0  0  0  0  0  0  0  0  0
   55.9410   29.0844   45.2670 H   0  0  0  0  0  0  0  0  0  0  0  0
   55.3324   28.9758   42.8414 H   0  0  0  0  0  0  0  0  0  0  0  0
   56.3646   30.5655   41.2110 H   0  0  0  0  0  0  0  0  0  0  0  0
   58.0608   32.2404   41.9926 H   0  0  0  0  0  0  0  0  0  0  0  0
   59.2279   31.7415   48.2394 H   0  0  0  0  0  0  0  0  0  0  0  0
   58.1203   27.1798   48.3985 H   0  0  0  0  0  0  0  0  0  0  0  0
  1  2  1  0
  2  3  2  0
  2  4  2  0
  2  5  1  0
  5  6  2  0
  6  7  1  0
  7  8  2  0
  8  9  1  0
  9 10  1  0
 10 11  1  0
 11 12  2  0
 11 13  1  0
 13 14  1  0
 14 15  1  0
 15 16  2  0
 15 17  1  0
 17 18  1  0
 18 19  1  0
 19 20  2  0
 20 21  1  0
 21 22  2  0
 22 23  1  0
 23 24  2  0
 23 25  2  0
 23 26  1  0
 26 27  1  0
 27 28  2  0
 28 29  1  0
 29 30  2  0
 30 31  1  0
 31 32  2  0
 22 33  1  0
 33 34  2  0
  9 35  2  0
 35  5  1  0
 34 14  1  0
 34 19  1  0
 32 27  1  0
  1 36  1  0
  6 37  1  0
  7 38  1  0
  8 39  1  0
 10 40  1  0
 13 41  1  0
 13 42  1  0
 17 43  1  0
 17 44  1  0
 20 45  1  0
 21 46  1  0
 28 47  1  0
 29 48  1  0
 30 49  1  0
 31 50  1  0
 32 51  1  0
 33 52  1  0
 35 53  1  0
M  CHG  2   1  -1  26  -1
M  END
>  <UniqueID>  (32) 
31

>  <SMILES>  (32) 
[NH-]S(=O)(=O)c1cccc(NC(=O)CN2C(=O)CSc3ccc(S(=O)(=O)[N-]c4ccccc4)cc32)c1

>  <Energy>  (32) 
71.08025972702964

>  <Genealogy>  (32) 
[NH-]S(=O)(=O)c1cccc(NC(=O)CN2C(=O)CSc3ccc(S(=O)(=O)[N-]c4ccccc4)cc32)c1 (protonated)
[NH-]S(=O)(=O)c1cccc(NC(=O)CN2C(=O)CSc3ccc(S(=O)(=O)[N-]c4ccccc4)cc32)c1 (3D coordinates assigned)
[NH-]S(=O)(=O)c1cccc(NC(=O)CN2C(=O)CSc3ccc(S(=O)(=O)[N-]c4ccccc4)cc32)c1 (nonaromatic ring conformer: 71.08025972702964 kcal/mol)

>  <smiles>  (32) 
NS(=O)(=O)c1cccc(NC(=O)CN2C(=O)CSc3ccc(S(=O)(=O)Nc4ccccc4)cc32)c1

>  <score_type>  (32) 
oracle

>  <origin>  (32) 
adg

>  <m_score__min__energy>  (32) 
-14.210000000000001

>  <m_primary>  (32) 
energy

$$$$
32:0
     RDKit          3D

 58 60  0  0  0  0  0  0  0  0999 V2000
   60.6250   28.9530   45.1990 C   0  0  0  0  0  0  0  0  0  0  0  0
   59.9160   29.9230   46.1410 C   0  0  0  0  0  0  0  0  0  0  0  0
   58.6480   29.3280   46.7820 C   0  0  0  0  0  0  0  0  0  0  0  0
   57.9160   28.2570   45.9420 C   0  0  0  0  0  0  0  0  0  0  0  0
   56.6450   28.7440   45.2120 C   0  0  0  0  0  0  0  0  0  0  0  0
   56.9170   29.6810   44.0200 C   0  0  0  0  0  0  0  0  0  0  0  0
   56.5050   31.1380   44.2440 C   0  0  0  0  0  0  0  0  0  0  0  0
   57.4210   31.7970   45.1660 N   0  0  0  0  0  0  0  0  0  0  0  0
   57.3590   33.1920   45.4620 C   0  0  0  0  0  0  0  0  0  0  0  0
   57.0560   34.0230   44.5630 O   0  0  0  0  0  0  0  0  0  0  0  0
   57.6220   33.6320   46.7950 N   0  0  0  0  0  0  0  0  0  0  0  0
   58.8210   33.3570   47.5290 C   0  0  0  0  0  0  0  0  0  0  0  0
   60.0570   33.8320   47.0480 C   0  0  0  0  0  0  0  0  0  0  0  0
   61.2390   33.6550   47.7980 C   0  0  0  0  0  0  0  0  0  0  0  0
   61.1980   33.0330   49.0560 C   0  0  0  0  0  0  0  0  0  0  0  0
   59.9630   32.5910   49.5240 C   0  0  0  0  0  0  0  0  0  0  0  0
   59.6150   32.0810   50.7570 C   0  0  0  0  0  0  0  0  0  0  0  0
   58.2330   31.9460   50.7040 C   0  0  0  0  0  0  0  0  0  0  0  0
   57.2020   31.5420   52.0690 S   0  0  0  0  0  0  0  0  0  0  0  0
   57.9620   30.7040   53.0560 O   0  0  0  0  0  0  0  0  0  0  0  0
   56.7530   32.8080   52.7410 O   0  0  0  0  0  0  0  0  0  0  0  0
   55.8070   30.6810   51.5080 N   0  0  0  0  0  0  0  0  0  0  0  0
   54.5580   30.8050   52.1890 C   0  0  0  0  0  0  0  0  0  0  0  0
   53.5280   31.5580   51.6110 C   0  0  0  0  0  0  0  0  0  0  0  0
   52.2500   31.5910   52.1970 C   0  0  0  0  0  0  0  0  0  0  0  0
   51.1490   32.3340   51.5470 C   0  0  0  0  0  0  0  0  0  0  0  0
   51.0220   32.3200   50.2930 O   0  0  0  0  0  0  0  0  0  0  0  0
   50.2420   33.0610   52.3100 O   0  0  0  0  0  0  0  0  0  0  0  0
   52.0320   30.8870   53.3930 C   0  0  0  0  0  0  0  0  0  0  0  0
   53.0650   30.1540   53.9840 C   0  0  0  0  0  0  0  0  0  0  0  0
   54.3280   30.1050   53.3810 C   0  0  0  0  0  0  0  0  0  0  0  0
   55.3540   29.3570   53.9570 O   0  0  0  0  0  0  0  0  0  0  0  0
   57.7480   32.3280   49.5030 N   0  0  0  0  0  0  0  0  0  0  0  0
   58.8130   32.7310   48.7860 C   0  0  0  0  0  0  0  0  0  0  0  0
   61.1729   28.2034   45.7889 H   0  0  0  0  0  0  0  0  0  0  0  0
   59.8814   28.4483   44.5647 H   0  0  0  0  0  0  0  0  0  0  0  0
   61.3316   29.5083   44.5647 H   0  0  0  0  0  0  0  0  0  0  0  0
   60.6141   30.2047   46.9431 H   0  0  0  0  0  0  0  0  0  0  0  0
   59.6033   30.7910   45.5420 H   0  0  0  0  0  0  0  0  0  0  0  0
   58.9359   28.8690   47.7393 H   0  0  0  0  0  0  0  0  0  0  0  0
   57.9415   30.1647   46.8853 H   0  0  0  0  0  0  0  0  0  0  0  0
   58.6193   27.8803   45.1847 H   0  0  0  0  0  0  0  0  0  0  0  0
   57.5813   27.4887   46.6546 H   0  0  0  0  0  0  0  0  0  0  0  0
   56.1024   27.8624   44.8401 H   0  0  0  0  0  0  0  0  0  0  0  0
   56.0655   29.3260   45.9437 H   0  0  0  0  0  0  0  0  0  0  0  0
   57.9958   29.6591   43.8063 H   0  0  0  0  0  0  0  0  0  0  0  0
   56.3028   29.3094   43.1866 H   0  0  0  0  0  0  0  0  0  0  0  0
   56.5183   31.6690   43.2808 H   0  0  0  0  0  0  0  0  0  0  0  0
   55.4938   31.1568   44.6767 H   0  0  0  0  0  0  0  0  0  0  0  0
   60.1011   34.3467   46.0768 H   0  0  0  0  0  0  0  0  0  0  0  0
   62.1997   34.0070   47.3941 H   0  0  0  0  0  0  0  0  0  0  0  0
   62.1122   32.8990   49.6530 H   0  0  0  0  0  0  0  0  0  0  0  0
   60.2828   31.8356   51.5959 H   0  0  0  0  0  0  0  0  0  0  0  0
   53.7205   32.1286   50.6905 H   0  0  0  0  0  0  0  0  0  0  0  0
   51.0403   30.9128   53.8682 H   0  0  0  0  0  0  0  0  0  0  0  0
   52.8854   29.6141   54.9254 H   0  0  0  0  0  0  0  0  0  0  0  0
   56.3090   29.4230   53.6260 H   0  0  0  0  0  0  0  0  0  0  0  0
   56.7430   32.3700   49.2320 H   0  0  0  0  0  0  0  0  0  0  0  0
  1  2  1  0
  2  3  1  0
  3  4  1  0
  4  5  1  0
  5  6  1  0
  6  7  1  0
  7  8  1  0
  8  9  1  0
  9 10  2  0
  9 11  1  0
 11 12  1  0
 12 13  2  0
 13 14  1  0
 14 15  2  0
 15 16  1  0
 16 17  1  0
 17 18  2  0
 18 19  1  0
 19 20  2  0
 19 21  2  0
 19 22  1  0
 22 23  1  0
 23 24  2  0
 24 25  1  0
 25 26  1  0
 26 27  2  0
 26 28  1  0
 25 29  2  0
 29 30  1  0
 30 31  2  0
 31 32  1  0
 18 33  1  0
 33 34  1  0
 34 12  1  0
 34 16  2  0
 31 23  1  0
  1 35  1  0
  1 36  1  0
  1 37  1  0
  2 38  1  0
  2 39  1  0
  3 40  1  0
  3 41  1  0
  4 42  1  0
  4 43  1  0
  5 44  1  0
  5 45  1  0
  6 46  1  0
  6 47  1  0
  7 48  1  0
  7 49  1  0
 13 50  1  0
 14 51  1  0
 15 52  1  0
 17 53  1  0
 24 54  1  0
 29 55  1  0
 30 56  1  0
 32 57  1  0
 33 58  1  0
M  CHG  4   8  -1  11  -1  22  -1  28  -1
M  END
>  <UniqueID>  (33) 
32

>  <SMILES>  (33) 
CCCCCCC[N-]C(=O)[N-]c1cccc2cc(S(=O)(=O)[N-]c3cc(C(=O)[O-])ccc3O)[nH]c12

>  <Energy>  (33) 
95.30982534183

>  <Genealogy>  (33) 
CCCCCCC[N-]C(=O)[N-]c1cccc2cc(S(=O)(=O)[N-]c3cc(C(=O)[O-])ccc3O)[nH]c12 (protonated)
CCCCCCC[N-]C(=O)[N-]c1cccc2cc(S(=O)(=O)[N-]c3cc(C(=O)[O-])ccc3O)[nH]c12 (3D coordinates assigned)
CCCCCCC[N-]C(=O)[N-]c1cccc2cc(S(=O)(=O)[N-]c3cc(C(=O)[O-])ccc3O)[nH]c12 (optimized conformer: 95.30982534183 kcal/mol)

>  <smiles>  (33) 
CCCCCCCNC(=O)Nc1cccc2cc(S(=O)(=O)Nc3cc(C(=O)O)ccc3O)[nH]c12

>  <score_type>  (33) 
oracle

>  <origin>  (33) 
adg

>  <m_score__min__energy>  (33) 
-15.34

>  <m_primary>  (33) 
energy

$$$$
33:0
     RDKit          3D

 29 31  0  0  0  0  0  0  0  0999 V2000
   54.3140   26.1080   45.9530 O   0  0  0  0  0  0  0  0  0  0  0  0
   55.4390   25.3180   45.7160 C   0  0  0  0  0  0  0  0  0  0  0  0
   55.3010   23.9230   45.6630 C   0  0  0  0  0  0  0  0  0  0  0  0
   56.4070   23.1100   45.4150 C   0  0  0  0  0  0  0  0  0  0  0  0
   57.6630   23.6840   45.2190 C   0  0  0  0  0  0  0  0  0  0  0  0
   59.1790   22.5690   44.8860 Br  0  0  0  0  0  0  0  0  0  0  0  0
   57.8160   25.0720   45.2710 C   0  0  0  0  0  0  0  0  0  0  0  0
   56.7080   25.9090   45.5190 C   0  0  0  0  0  0  0  0  0  0  0  0
   56.8880   27.3850   45.5770 C   0  0  0  0  0  0  0  0  0  0  0  0
   58.0240   28.0670   45.9770 C   0  0  0  0  0  0  0  0  0  0  0  0
   57.6850   29.4020   45.8550 C   0  0  0  0  0  0  0  0  0  0  0  0
   58.5430   30.5760   46.1520 C   0  0  0  0  0  0  0  0  0  0  0  0
   58.0980   31.8710   45.8250 C   0  0  0  0  0  0  0  0  0  0  0  0
   58.8940   32.9870   46.0980 C   0  0  0  0  0  0  0  0  0  0  0  0
   60.1440   32.8250   46.7000 C   0  0  0  0  0  0  0  0  0  0  0  0
   61.1430   34.2260   47.0420 Cl  0  0  0  0  0  0  0  0  0  0  0  0
   60.5990   31.5450   47.0290 C   0  0  0  0  0  0  0  0  0  0  0  0
   59.8050   30.4260   46.7590 C   0  0  0  0  0  0  0  0  0  0  0  0
   56.4170   29.4980   45.4080 N   0  0  0  0  0  0  0  0  0  0  0  0
   55.9350   28.2770   45.2390 N   0  0  0  0  0  0  0  0  0  0  0  0
   54.3940   27.0740   46.2450 H   0  0  0  0  0  0  0  0  0  0  0  0
   54.3123   23.4664   45.8183 H   0  0  0  0  0  0  0  0  0  0  0  0
   56.2887   22.0171   45.3740 H   0  0  0  0  0  0  0  0  0  0  0  0
   58.8104   25.5163   45.1170 H   0  0  0  0  0  0  0  0  0  0  0  0
   58.9807   27.6427   46.3156 H   0  0  0  0  0  0  0  0  0  0  0  0
   57.1149   32.0058   45.3503 H   0  0  0  0  0  0  0  0  0  0  0  0
   58.5357   33.9941   45.8385 H   0  0  0  0  0  0  0  0  0  0  0  0
   61.5841   31.4176   47.5015 H   0  0  0  0  0  0  0  0  0  0  0  0
   60.1686   29.4218   47.0225 H   0  0  0  0  0  0  0  0  0  0  0  0
  1  2  1  0
  2  3  2  0
  3  4  1  0
  4  5  2  0
  5  6  1  0
  5  7  1  0
  7  8  2  0
  8  9  1  0
  9 10  1  0
 10 11  2  0
 11 12  1  0
 12 13  2  0
 13 14  1  0
 14 15  2  0
 15 16  1  0
 15 17  1  0
 17 18  2  0
 11 19  1  0
 19 20  1  0
  8  2  1  0
 20  9  2  0
 18 12  1  0
  1 21  1  0
  3 22  1  0
  4 23  1  0
  7 24  1  0
 10 25  1  0
 13 26  1  0
 14 27  1  0
 17 28  1  0
 18 29  1  0
M  CHG  1  19  -1
M  END
>  <UniqueID>  (34) 
33

>  <SMILES>  (34) 
Oc1ccc(Br)cc1-c1cc(-c2ccc(Cl)cc2)[n-]n1

>  <Energy>  (34) 
65.3563636178869

>  <Genealogy>  (34) 
Oc1ccc(Br)cc1-c1cc(-c2ccc(Cl)cc2)[n-]n1 (protonated)
Oc1ccc(Br)cc1-c1cc(-c2ccc(Cl)cc2)[n-]n1 (3D coordinates assigned)
Oc1ccc(Br)cc1-c1cc(-c2ccc(Cl)cc2)[n-]n1 (optimized conformer: 65.3563636178869 kcal/mol)

>  <smiles>  (34) 
Oc1ccc(Br)cc1-c1cc(-c2ccc(Cl)cc2)[nH]n1

>  <score_type>  (34) 
oracle

>  <origin>  (34) 
adg

>  <m_score__min__energy>  (34) 
-10.34

>  <m_primary>  (34) 
energy

$$$$
34:0
     RDKit          3D

 66 70  0  0  0  0  0  0  0  0999 V2000
   55.3950   26.6470   45.9910 O   0  0  0  0  0  0  0  0  0  0  0  0
   56.3590   27.4230   45.7390 C   0  0  0  0  0  0  0  0  0  0  0  0
   56.1290   28.6280   44.9990 N   0  0  0  0  0  0  0  0  0  0  0  0
   56.9090   29.0360   43.8340 C   0  0  0  0  0  0  0  0  0  0  0  0
   57.6980   30.3250   44.1330 C   0  0  1  0  0  0  0  0  0  0  0  0
   57.0810   31.5170   43.3840 C   0  0  0  0  0  0  0  0  0  0  0  0
   57.9450   32.7750   43.5470 C   0  0  0  0  0  0  0  0  0  0  0  0
   58.4250   32.9920   44.9660 C   0  0  0  0  0  0  0  0  0  0  0  0
   58.3800   31.9620   45.9290 C   0  0  0  0  0  0  0  0  0  0  0  0
   58.8950   32.1560   47.1410 O   0  0  0  0  0  0  0  0  0  0  0  0
   59.4960   33.2850   47.5090 C   0  0  0  0  0  0  0  0  0  0  0  0
   60.0750   33.3740   48.8680 C   0  0  0  0  0  0  0  0  0  0  0  0
   59.5510   32.5810   49.9020 C   0  0  0  0  0  0  0  0  0  0  0  0
   60.1240   32.6090   51.1770 C   0  0  0  0  0  0  0  0  0  0  0  0
   61.2520   33.3940   51.4290 C   0  0  0  0  0  0  0  0  0  0  0  0
   61.8440   33.3360   52.6980 O   0  0  0  0  0  0  0  0  0  0  0  0
   63.0320   32.5990   52.9960 C   0  0  0  0  0  0  0  0  0  0  0  0
   63.0920   31.3170   52.1600 C   0  0  0  0  0  0  0  0  0  0  0  0
   63.9800   31.4920   50.9930 N   0  0  0  0  0  0  0  0  0  0  0  0
   63.2670   31.4500   49.7110 C   0  0  0  0  0  0  0  0  0  0  0  0
   64.0810   32.2800   48.7240 C   0  0  0  0  0  0  0  0  0  0  0  0
   65.0510   33.0830   49.5760 C   0  0  0  0  0  0  0  0  0  0  0  0
   64.6500   32.7930   51.0110 C   0  0  0  0  0  0  0  0  0  0  0  0
   61.7640   34.2110   50.4080 C   0  0  0  0  0  0  0  0  0  0  0  0
   61.1840   34.1970   49.1360 C   0  0  0  0  0  0  0  0  0  0  0  0
   59.5760   34.3540   46.6030 C   0  0  0  0  0  0  0  0  0  0  0  0
   59.0420   34.2010   45.3240 C   0  0  0  0  0  0  0  0  0  0  0  0
   59.1260   35.1510   44.4980 O   0  0  0  0  0  0  0  0  0  0  0  0
   57.7300   30.6370   45.6410 C   0  0  0  0  0  0  0  0  0  0  0  0
   57.7240   27.0880   46.2080 C   0  0  0  0  0  0  0  0  0  0  0  0
   58.4110   25.9810   45.6760 C   0  0  0  0  0  0  0  0  0  0  0  0
   59.7030   25.6720   46.1150 C   0  0  0  0  0  0  0  0  0  0  0  0
   60.3180   26.4580   47.0930 C   0  0  0  0  0  0  0  0  0  0  0  0
   59.6440   27.5550   47.6320 C   0  0  0  0  0  0  0  0  0  0  0  0
   58.3550   27.8720   47.1930 C   0  0  0  0  0  0  0  0  0  0  0  0
   57.6140   28.2333   43.5720 H   0  0  0  0  0  0  0  0  0  0  0  0
   56.2216   29.2275   42.9968 H   0  0  0  0  0  0  0  0  0  0  0  0
   58.7299   30.1616   43.7889 H   0  0  0  0  0  0  0  0  0  0  0  0
   57.0039   31.2694   42.3150 H   0  0  0  0  0  0  0  0  0  0  0  0
   56.0851   31.7185   43.8053 H   0  0  0  0  0  0  0  0  0  0  0  0
   58.8235   32.6825   42.8916 H   0  0  0  0  0  0  0  0  0  0  0  0
   57.3175   33.6380   43.2798 H   0  0  0  0  0  0  0  0  0  0  0  0
   58.6835   31.9332   49.7073 H   0  0  0  0  0  0  0  0  0  0  0  0
   59.6838   32.0090   51.9871 H   0  0  0  0  0  0  0  0  0  0  0  0
   63.9104   33.2209   52.7686 H   0  0  0  0  0  0  0  0  0  0  0  0
   63.0247   32.3284   54.0622 H   0  0  0  0  0  0  0  0  0  0  0  0
   63.4753   30.4968   52.7848 H   0  0  0  0  0  0  0  0  0  0  0  0
   62.0791   31.0835   51.8000 H   0  0  0  0  0  0  0  0  0  0  0  0
   63.1871   30.4118   49.3565 H   0  0  0  0  0  0  0  0  0  0  0  0
   62.2473   31.8495   49.8143 H   0  0  0  0  0  0  0  0  0  0  0  0
   64.6289   31.6252   48.0305 H   0  0  0  0  0  0  0  0  0  0  0  0
   63.4404   32.9303   48.1102 H   0  0  0  0  0  0  0  0  0  0  0  0
   66.0861   32.7598   49.3914 H   0  0  0  0  0  0  0  0  0  0  0  0
   65.0098   34.1578   49.3456 H   0  0  0  0  0  0  0  0  0  0  0  0
   65.5407   32.7543   51.6554 H   0  0  0  0  0  0  0  0  0  0  0  0
   63.9903   33.5780   51.4092 H   0  0  0  0  0  0  0  0  0  0  0  0
   62.6252   34.8649   50.6100 H   0  0  0  0  0  0  0  0  0  0  0  0
   61.5974   34.8335   48.3398 H   0  0  0  0  0  0  0  0  0  0  0  0
   60.0536   35.3000   46.8980 H   0  0  0  0  0  0  0  0  0  0  0  0
   58.2945   29.8454   46.1554 H   0  0  0  0  0  0  0  0  0  0  0  0
   56.6913   30.6831   46.0003 H   0  0  0  0  0  0  0  0  0  0  0  0
   57.9293   25.3549   44.9105 H   0  0  0  0  0  0  0  0  0  0  0  0
   60.2356   24.8087   45.6895 H   0  0  0  0  0  0  0  0  0  0  0  0
   61.3332   26.2123   47.4381 H   0  0  0  0  0  0  0  0  0  0  0  0
   60.1280   28.1714   48.4038 H   0  0  0  0  0  0  0  0  0  0  0  0
   57.8303   28.7395   47.6198 H   0  0  0  0  0  0  0  0  0  0  0  0
  1  2  2  0
  2  3  1  0
  3  4  1  0
  4  5  1  0
  5  6  1  0
  6  7  1  0
  7  8  1  0
  8  9  2  0
  9 10  1  0
 10 11  1  0
 11 12  1  0
 12 13  2  0
 13 14  1  0
 14 15  2  0
 15 16  1  0
 16 17  1  0
 17 18  1  0
 18 19  1  0
 19 20  1  0
 20 21  1  0
 21 22  1  0
 22 23  1  0
 15 24  1  0
 24 25  2  0
 11 26  2  0
 26 27  1  0
 27 28  2  0
  9 29  1  0
  2 30  1  0
 30 31  2  0
 31 32  1  0
 32 33  2  0
 33 34  1  0
 34 35  2  0
 29  5  1  0
 35 30  1  0
 27  8  1  0
 25 12  1  0
 23 19  1  0
  4 36  1  0
  4 37  1  0
  5 38  1  6
  6 39  1  0
  6 40  1  0
  7 41  1  0
  7 42  1  0
 13 43  1  0
 14 44  1  0
 17 45  1  0
 17 46  1  0
 18 47  1  0
 18 48  1  0
 20 49  1  0
 20 50  1  0
 21 51  1  0
 21 52  1  0
 22 53  1  0
 22 54  1  0
 23 55  1  0
 23 56  1  0
 24 57  1  0
 25 58  1  0
 26 59  1  0
 29 60  1  0
 29 61  1  0
 31 62  1  0
 32 63  1  0
 33 64  1  0
 34 65  1  0
 35 66  1  0
M  CHG  1   3  -1
M  END
>  <UniqueID>  (35) 
34

>  <SMILES>  (35) 
O=C([N-]C[C@H]1CCc2c(oc(-c3ccc(OCCN4CCCC4)cc3)cc2=O)C1)c1ccccc1

>  <Energy>  (35) 
77.66182546184314

>  <Genealogy>  (35) 
O=C([N-]CC1CCc2c(oc(-c3ccc(OCCN4CCCC4)cc3)cc2=O)C1)c1ccccc1 (protonated)
O=C([N-]C[C@H]1CCc2c(oc(-c3ccc(OCCN4CCCC4)cc3)cc2=O)C1)c1ccccc1 (chirality)
O=C([N-]C[C@H]1CCc2c(oc(-c3ccc(OCCN4CCCC4)cc3)cc2=O)C1)c1ccccc1 (3D coordinates assigned)
O=C([N-]C[C@H]1CCc2c(oc(-c3ccc(OCCN4CCCC4)cc3)cc2=O)C1)c1ccccc1 (nonaromatic ring conformer: 77.66182546184314 kcal/mol)

>  <smiles>  (35) 
O=C(NCC1CCc2c(oc(-c3ccc(OCCN4CCCC4)cc3)cc2=O)C1)c1ccccc1

>  <score_type>  (35) 
oracle

>  <origin>  (35) 
adg

>  <m_score__min__energy>  (35) 
-11.69

>  <m_primary>  (35) 
energy

$$$$
35:0
     RDKit          3D

 49 52  0  0  0  0  0  0  0  0999 V2000
   57.8370   29.9383   49.1139 H   0  0  0  0  0  0  0  0  0  0  0  0
   58.8920   30.2250   48.9920 C   0  0  0  0  0  0  0  0  0  0  0  0
   59.6160   30.1130   47.8780 C   0  0  0  0  0  0  0  0  0  0  0  0
   59.1200   29.5760   46.5930 C   0  0  0  0  0  0  0  0  0  0  0  0
   58.2700   30.3800   45.8150 C   0  0  0  0  0  0  0  0  0  0  0  0
   57.9785   31.3757   46.1807 H   0  0  0  0  0  0  0  0  0  0  0  0
   57.7890   29.9280   44.5780 C   0  0  0  0  0  0  0  0  0  0  0  0
   56.9250   30.8180   43.7330 C   0  0  0  0  0  0  0  0  0  0  0  0
   56.3072   31.4544   44.3837 H   0  0  0  0  0  0  0  0  0  0  0  0
   57.5617   31.4516   43.0980 H   0  0  0  0  0  0  0  0  0  0  0  0
   56.2728   30.2004   43.0980 H   0  0  0  0  0  0  0  0  0  0  0  0
   58.1850   28.6720   44.1020 C   0  0  0  0  0  0  0  0  0  0  0  0
   57.8425   28.3274   43.1151 H   0  0  0  0  0  0  0  0  0  0  0  0
   59.0120   27.8560   44.8740 C   0  0  0  0  0  0  0  0  0  0  0  0
   59.3109   26.8685   44.4927 H   0  0  0  0  0  0  0  0  0  0  0  0
   59.4670   28.2810   46.1320 C   0  0  0  0  0  0  0  0  0  0  0  0
   60.3250   27.3430   46.9430 C   0  0  0  0  0  0  0  0  0  0  0  0
   60.1572   27.5265   48.0145 H   0  0  0  0  0  0  0  0  0  0  0  0
   60.0592   26.3029   46.7031 H   0  0  0  0  0  0  0  0  0  0  0  0
   61.3846   27.5153   46.7031 H   0  0  0  0  0  0  0  0  0  0  0  0
   60.9540   30.6390   48.1530 C   0  0  0  0  0  0  0  0  0  0  0  0
   61.8970   30.7170   47.3200 O   0  0  0  0  0  0  0  0  0  0  0  0
   61.0470   31.0940   49.4970 N   0  0  0  0  0  0  0  0  0  0  0  0
   62.2730   31.2790   50.2670 C   0  0  0  0  0  0  0  0  0  0  0  0
   62.3580   30.4747   51.0125 H   0  0  0  0  0  0  0  0  0  0  0  0
   63.1332   31.2507   49.5819 H   0  0  0  0  0  0  0  0  0  0  0  0
   62.2520   32.6320   50.9840 C   0  0  0  0  0  0  0  0  0  0  0  0
   61.5147   32.5970   51.7995 H   0  0  0  0  0  0  0  0  0  0  0  0
   63.2559   32.8350   51.3853 H   0  0  0  0  0  0  0  0  0  0  0  0
   61.8910   33.7040   50.0560 N   0  0  0  0  0  0  0  0  0  0  0  0
   62.0820   33.7400   48.7620 C   0  0  0  0  0  0  0  0  0  0  0  0
   63.3730   33.6950   48.1980 C   0  0  0  0  0  0  0  0  0  0  0  0
   64.2561   33.6291   48.8505 H   0  0  0  0  0  0  0  0  0  0  0  0
   63.5310   33.7340   46.8130 C   0  0  0  0  0  0  0  0  0  0  0  0
   64.5410   33.7004   46.3786 H   0  0  0  0  0  0  0  0  0  0  0  0
   62.4500   33.8130   45.9960 N   0  0  0  0  0  0  0  0  0  0  0  0
   62.6110   33.8410   44.9640 H   0  0  0  0  0  0  0  0  0  0  0  0
   61.1810   33.8550   46.4940 C   0  0  0  0  0  0  0  0  0  0  0  0
   60.0840   33.9350   45.6220 C   0  0  0  0  0  0  0  0  0  0  0  0
   60.2514   33.9632   44.5352 H   0  0  0  0  0  0  0  0  0  0  0  0
   58.7820   33.9790   46.1240 C   0  0  0  0  0  0  0  0  0  0  0  0
   57.4190   34.0790   45.0250 Cl  0  0  0  0  0  0  0  0  0  0  0  0
   58.5640   33.9430   47.5040 C   0  0  0  0  0  0  0  0  0  0  0  0
   57.5373   33.9770   47.8972 H   0  0  0  0  0  0  0  0  0  0  0  0
   59.6440   33.8640   48.3860 C   0  0  0  0  0  0  0  0  0  0  0  0
   59.4624   33.8375   49.4706 H   0  0  0  0  0  0  0  0  0  0  0  0
   60.9660   33.8180   47.8960 C   0  0  0  0  0  0  0  0  0  0  0  0
   59.7560   30.7980   50.0210 C   0  0  0  0  0  0  0  0  0  0  0  0
   59.4250   30.9830   51.2220 O   0  0  0  0  0  0  0  0  0  0  0  0
  1  2  1  0
  2  3  2  0
  3  4  1  0
  4  5  2  0
  5  6  1  0
  5  7  1  0
  7  8  1  0
  8  9  1  0
  8 10  1  0
  8 11  1  0
  7 12  2  0
 12 13  1  0
 12 14  1  0
 14 15  1  0
 14 16  2  0
 16 17  1  0
 17 18  1  0
 17 19  1  0
 17 20  1  0
  3 21  1  0
 21 22  2  0
 21 23  1  0
 23 24  1  0
 24 25  1  0
 24 26  1  0
 24 27  1  0
 27 28  1  0
 27 29  1  0
 27 30  1  0
 30 31  2  0
 31 32  1  0
 32 33  1  0
 32 34  2  0
 34 35  1  0
 34 36  1  0
 36 37  1  0
 36 38  1  0
 38 39  2  0
 39 40  1  0
 39 41  1  0
 41 42  1  0
 41 43  2  0
 43 44  1  0
 43 45  1  0
 45 46  1  0
 45 47  2  0
 23 48  1  0
 48 49  2  0
 48  2  1  0
 16  4  1  0
 47 31  1  0
 47 38  1  0
M  END
>  <UniqueID>  (36) 
35

>  <SMILES>  (36) 
Cc1ccc(C)c(C2=CC(=O)N(CC/N=c3\cc[nH]c4cc(Cl)ccc34)C2=O)c1

>  <Energy>  (36) 
88.94570761338666

>  <Genealogy>  (36) 
Cc1ccc(C)c(C2=CC(=O)N(CC/N=c3\cc[nH]c4cc(Cl)ccc34)C2=O)c1 (cis-trans isomerization)
Cc1ccc(C)c(C2=CC(=O)N(CC/N=c3\cc[nH]c4cc(Cl)ccc34)C2=O)c1 (3D coordinates assigned)
Cc1ccc(C)c(C2=CC(=O)N(CC/N=c3\cc[nH]c4cc(Cl)ccc34)C2=O)c1 (nonaromatic ring conformer: 88.94570761338666 kcal/mol)

>  <smiles>  (36) 
Cc1ccc(C)c(C2=CC(=O)N(CCN=c3cc[nH]c4cc(Cl)ccc34)C2=O)c1

>  <score_type>  (36) 
oracle

>  <origin>  (36) 
adg

>  <m_score__min__energy>  (36) 
-9.4900000000000002

>  <m_primary>  (36) 
energy

$$$$
36:0
     RDKit          3D

 40 41  0  0  0  0  0  0  0  0999 V2000
   66.0450   32.5440   50.1650 C   0  0  0  0  0  0  0  0  0  0  0  0
   64.6560   32.4320   49.6090 C   0  0  0  0  0  0  0  0  0  0  0  0
   63.6880   31.6710   50.2760 C   0  0  0  0  0  0  0  0  0  0  0  0
   62.3880   31.5910   49.7740 C   0  0  0  0  0  0  0  0  0  0  0  0
   62.0230   32.2910   48.6100 C   0  0  0  0  0  0  0  0  0  0  0  0
   60.6870   32.1700   48.0830 N   0  0  0  0  0  0  0  0  0  0  0  0
   60.3800   31.4790   46.8630 C   0  0  0  0  0  0  0  0  0  0  0  0
   61.1730   30.6050   46.4180 O   0  0  0  0  0  0  0  0  0  0  0  0
   59.0970   31.6990   46.1660 C   0  0  0  0  0  0  0  0  0  0  0  0
   58.5240   30.6430   45.5270 N   0  0  0  0  0  0  0  0  0  0  0  0
   57.3480   30.7690   44.8600 C   0  0  0  0  0  0  0  0  0  0  0  0
   56.6180   29.3430   44.0560 S   0  0  0  0  0  0  0  0  0  0  0  0
   58.0090   28.1690   44.3150 C   0  0  0  0  0  0  0  0  0  0  0  0
   58.1390   27.1730   43.1600 C   0  0  0  0  0  0  0  0  0  0  0  0
   57.9090   27.4530   45.6640 C   0  0  0  0  0  0  0  0  0  0  0  0
   56.7080   31.9650   44.8340 N   0  0  0  0  0  0  0  0  0  0  0  0
   57.2420   33.0550   45.4420 C   0  0  0  0  0  0  0  0  0  0  0  0
   58.4620   32.9560   46.1170 C   0  0  0  0  0  0  0  0  0  0  0  0
   59.1740   34.4230   46.7840 Cl  0  0  0  0  0  0  0  0  0  0  0  0
   62.9930   33.0730   47.9430 C   0  0  0  0  0  0  0  0  0  0  0  0
   62.6490   33.8400   46.6940 C   0  0  0  0  0  0  0  0  0  0  0  0
   64.3020   33.1370   48.4520 C   0  0  0  0  0  0  0  0  0  0  0  0
   66.0014   32.5405   51.2641 H   0  0  0  0  0  0  0  0  0  0  0  0
   66.6482   31.6916   49.8193 H   0  0  0  0  0  0  0  0  0  0  0  0
   66.5038   33.4821   49.8193 H   0  0  0  0  0  0  0  0  0  0  0  0
   63.9531   31.1343   51.1989 H   0  0  0  0  0  0  0  0  0  0  0  0
   61.6409   30.9738   50.2944 H   0  0  0  0  0  0  0  0  0  0  0  0
   59.8890   32.5420   48.6430 H   0  0  0  0  0  0  0  0  0  0  0  0
   58.9306   28.7692   44.3326 H   0  0  0  0  0  0  0  0  0  0  0  0
   58.2714   26.1584   43.5639 H   0  0  0  0  0  0  0  0  0  0  0  0
   57.2289   27.2062   42.5430 H   0  0  0  0  0  0  0  0  0  0  0  0
   59.0101   27.4386   42.5430 H   0  0  0  0  0  0  0  0  0  0  0  0
   58.0115   28.1868   46.4771 H   0  0  0  0  0  0  0  0  0  0  0  0
   56.9323   26.9530   45.7422 H   0  0  0  0  0  0  0  0  0  0  0  0
   58.7113   26.7046   45.7422 H   0  0  0  0  0  0  0  0  0  0  0  0
   56.7132   34.0188   45.4034 H   0  0  0  0  0  0  0  0  0  0  0  0
   62.2131   34.8118   46.9689 H   0  0  0  0  0  0  0  0  0  0  0  0
   63.5608   34.0018   46.1003 H   0  0  0  0  0  0  0  0  0  0  0  0
   61.9218   33.2667   46.1003 H   0  0  0  0  0  0  0  0  0  0  0  0
   65.0569   33.7480   47.9354 H   0  0  0  0  0  0  0  0  0  0  0  0
  1  2  1  0
  2  3  2  0
  3  4  1  0
  4  5  2  0
  5  6  1  0
  6  7  1  0
  7  8  2  0
  7  9  1  0
  9 10  2  0
 10 11  1  0
 11 12  1  0
 12 13  1  0
 13 14  1  0
 13 15  1  0
 11 16  2  0
 16 17  1  0
 17 18  2  0
 18 19  1  0
  5 20  1  0
 20 21  1  0
 20 22  2  0
 22  2  1  0
 18  9  1  0
  1 23  1  0
  1 24  1  0
  1 25  1  0
  3 26  1  0
  4 27  1  0
  6 28  1  0
 13 29  1  0
 14 30  1  0
 14 31  1  0
 14 32  1  0
 15 33  1  0
 15 34  1  0
 15 35  1  0
 17 36  1  0
 21 37  1  0
 21 38  1  0
 21 39  1  0
 22 40  1  0
M  END
>  <UniqueID>  (37) 
36

>  <SMILES>  (37) 
Cc1ccc(NC(=O)c2nc(SC(C)C)ncc2Cl)c(C)c1

>  <Energy>  (37) 
42.247682351298586

>  <Genealogy>  (37) 
Cc1ccc(NC(=O)c2nc(SC(C)C)ncc2Cl)c(C)c1 (3D coordinates assigned)
Cc1ccc(NC(=O)c2nc(SC(C)C)ncc2Cl)c(C)c1 (optimized conformer: 42.247682351298586 kcal/mol)

>  <smiles>  (37) 
Cc1ccc(NC(=O)c2nc(SC(C)C)ncc2Cl)c(C)c1

>  <score_type>  (37) 
oracle

>  <origin>  (37) 
adg

>  <m_score__min__energy>  (37) 
-7.5999999999999996

>  <m_primary>  (37) 
energy

$$$$
37:0
     RDKit          3D

 45 48  0  0  1  0  0  0  0  0999 V2000
   57.1840   28.1290   44.2600 O   0  0  0  0  0  0  0  0  0  0  0  0
   57.3950   28.1060   45.4740 C   0  0  0  0  0  0  0  0  0  0  0  0
   57.2270   26.8520   46.1470 N   0  0  0  0  0  0  0  0  0  0  0  0
   56.8270   25.7210   45.3510 C   0  0  0  0  0  0  0  0  0  0  0  0
   55.6540   25.0330   45.6000 C   0  0  0  0  0  0  0  0  0  0  0  0
   55.3210   23.9420   44.7900 C   0  0  0  0  0  0  0  0  0  0  0  0
   56.1870   23.6000   43.7720 C   0  0  0  0  0  0  0  0  0  0  0  0
   55.8970   22.5350   42.9540 O   0  0  0  0  0  0  0  0  0  0  0  0
   57.3550   24.2960   43.5340 C   0  0  0  0  0  0  0  0  0  0  0  0
   57.6840   25.3720   44.3330 C   0  0  0  0  0  0  0  0  0  0  0  0
   57.7830   29.2410   46.2060 N   0  0  0  0  0  0  0  0  0  0  0  0
   57.9920   30.5400   45.7030 C   0  0  0  0  0  0  0  0  0  0  0  0
   57.6880   30.9640   44.4340 C   0  0  0  0  0  0  0  0  0  0  0  0
   57.9200   32.2690   43.9960 C   0  0  0  0  0  0  0  0  0  0  0  0
   58.4730   33.1760   44.8550 C   0  0  0  0  0  0  0  0  0  0  0  0
   58.7300   34.4680   44.5050 N   0  0  0  0  0  0  0  0  0  0  0  0
   59.2750   35.3470   45.3650 C   0  0  0  0  0  0  0  0  0  0  0  0
   59.5720   34.9210   46.6150 N   0  0  0  0  0  0  0  0  0  0  0  0
   59.3380   33.6700   46.9980 C   0  0  0  0  0  0  0  0  0  0  0  0
   59.6440   33.3160   48.2120 N   0  0  0  0  0  0  0  0  0  0  0  0
   61.0390   33.1610   48.5400 C   0  0  0  0  0  0  0  0  0  0  0  0
   61.9780   32.8160   47.6090 C   0  0  0  0  0  0  0  0  0  0  0  0
   63.2950   32.6940   48.0350 C   0  0  0  0  0  0  0  0  0  0  0  0
   63.6270   32.9200   49.3670 C   0  0  0  0  0  0  0  0  0  0  0  0
   65.4340   32.7550   49.9640 Br  0  0  0  0  0  0  0  0  0  0  0  0
   62.6640   33.2690   50.2980 C   0  0  0  0  0  0  0  0  0  0  0  0
   61.3520   33.3910   49.8780 C   0  0  0  0  0  0  0  0  0  0  0  0
   58.7810   32.7720   46.1210 C   0  0  0  0  0  0  0  0  0  0  0  0
   58.5530   31.4920   46.5460 C   0  0  0  0  0  0  0  0  0  0  0  0
   57.3810   26.7340   47.1730 H   0  0  0  0  0  0  0  0  0  0  0  0
   54.9919   25.3391   46.4233 H   0  0  0  0  0  0  0  0  0  0  0  0
   54.3950   23.3731   44.9600 H   0  0  0  0  0  0  0  0  0  0  0  0
   56.1510   22.5880   41.9650 H   0  0  0  0  0  0  0  0  0  0  0  0
   58.0203   23.9945   42.7115 H   0  0  0  0  0  0  0  0  0  0  0  0
   58.6111   25.9381   44.1597 H   0  0  0  0  0  0  0  0  0  0  0  0
   57.9340   29.0880   47.2480 H   0  0  0  0  0  0  0  0  0  0  0  0
   57.2422   30.2445   43.7314 H   0  0  0  0  0  0  0  0  0  0  0  0
   57.6600   32.5643   42.9688 H   0  0  0  0  0  0  0  0  0  0  0  0
   59.4742   36.3851   45.0604 H   0  0  0  0  0  0  0  0  0  0  0  0
   59.9950   35.6430   47.2480 H   0  0  0  0  0  0  0  0  0  0  0  0
   61.7009   32.6410   46.5590 H   0  0  0  0  0  0  0  0  0  0  0  0
   64.0793   32.4172   47.3151 H   0  0  0  0  0  0  0  0  0  0  0  0
   62.9363   33.4455   51.3490 H   0  0  0  0  0  0  0  0  0  0  0  0
   60.5633   33.6669   50.5934 H   0  0  0  0  0  0  0  0  0  0  0  0
   58.8190   31.2105   47.5756 H   0  0  0  0  0  0  0  0  0  0  0  0
  1  2  2  0
  2  3  1  0
  3  4  1  0
  4  5  2  0
  5  6  1  0
  6  7  2  0
  7  8  1  0
  7  9  1  0
  9 10  2  0
  2 11  1  0
 11 12  1  0
 12 13  2  0
 13 14  1  0
 14 15  2  0
 15 16  1  0
 16 17  2  0
 17 18  1  0
 18 19  1  0
 19 20  2  0
 20 21  1  0
 21 22  2  0
 22 23  1  0
 23 24  2  0
 24 25  1  0
 24 26  1  0
 26 27  2  0
 19 28  1  0
 28 29  2  0
 10  4  1  0
 29 12  1  0
 28 15  1  0
 27 21  1  0
  3 30  1  0
  5 31  1  0
  6 32  1  0
  8 33  1  0
  9 34  1  0
 10 35  1  0
 11 36  1  0
 13 37  1  0
 14 38  1  0
 17 39  1  0
 18 40  1  0
 22 41  1  0
 23 42  1  0
 26 43  1  0
 27 44  1  0
 29 45  1  0
M  END
>  <smiles>  (38) 
O=C(Nc1ccc(O)cc1)Nc1ccc2nc[nH]c(=Nc3ccc(Br)cc3)c2c1

>  <score_type>  (38) 
oracle

>  <origin>  (38) 
adg

>  <m_score__min__energy>  (38) 
-9.1099999999999994

>  <m_primary>  (38) 
energy

$$$$
38:0
     RDKit          3D

 50 53  0  0  0  0  0  0  0  0999 V2000
   62.9800   34.4470   50.5740 C   0  0  0  0  0  0  0  0  0  0  0  0
   64.2210   33.6640   50.5810 N   0  0  0  0  0  0  0  0  0  0  0  0
   65.4060   34.2010   51.2620 C   0  0  0  0  0  0  0  0  0  0  0  0
   64.3330   32.3900   49.9010 C   0  0  0  0  0  0  0  0  0  0  0  0
   65.4680   31.8480   49.7960 O   0  0  0  0  0  0  0  0  0  0  0  0
   63.1760   31.6800   49.3050 C   0  0  0  0  0  0  0  0  0  0  0  0
   62.2570   30.9250   50.0140 C   0  0  0  0  0  0  0  0  0  0  0  0
   61.3620   30.4500   49.1360 N   0  0  0  0  0  0  0  0  0  0  0  0
   61.7510   30.8960   47.9330 C   0  0  0  0  0  0  0  0  0  0  0  0
   62.8550   31.6670   47.9900 N   0  0  0  0  0  0  0  0  0  0  0  0
   61.0200   30.5580   46.6710 C   0  0  0  0  0  0  0  0  0  0  0  0
   59.9000   29.6330   46.9330 N   0  0  0  0  0  0  0  0  0  0  0  0
   59.3720   28.8520   45.8380 C   0  0  0  0  0  0  0  0  0  0  0  0
   59.8390   27.7030   45.6120 O   0  0  0  0  0  0  0  0  0  0  0  0
   58.2740   29.3450   44.9750 C   0  0  0  0  0  0  0  0  0  0  0  0
   57.9540   28.6310   43.8100 C   0  0  0  0  0  0  0  0  0  0  0  0
   56.8790   29.0280   43.0150 C   0  0  0  0  0  0  0  0  0  0  0  0
   56.1310   30.1420   43.3860 C   0  0  0  0  0  0  0  0  0  0  0  0
   56.4670   30.8470   44.4980 N   0  0  0  0  0  0  0  0  0  0  0  0
   57.5210   30.5020   45.2860 C   0  0  0  0  0  0  0  0  0  0  0  0
   57.8120   31.3090   46.3930 O   0  0  0  0  0  0  0  0  0  0  0  0
   58.4190   32.5720   46.3350 C   0  0  0  0  0  0  0  0  0  0  0  0
   58.5060   33.3090   45.1370 C   0  0  0  0  0  0  0  0  0  0  0  0
   59.1230   34.5640   45.1270 C   0  0  0  0  0  0  0  0  0  0  0  0
   59.6420   35.0990   46.3110 C   0  0  0  0  0  0  0  0  0  0  0  0
   59.5380   34.3830   47.5070 C   0  0  0  0  0  0  0  0  0  0  0  0
   58.9250   33.1250   47.5170 C   0  0  0  0  0  0  0  0  0  0  0  0
   59.2350   29.6360   48.2510 C   0  0  0  0  0  0  0  0  0  0  0  0
   60.2670   29.5220   49.3780 C   0  0  0  0  0  0  0  0  0  0  0  0
   62.6657   34.6453   51.6093 H   0  0  0  0  0  0  0  0  0  0  0  0
   63.1512   35.4009   50.0537 H   0  0  0  0  0  0  0  0  0  0  0  0
   62.1927   33.8817   50.0537 H   0  0  0  0  0  0  0  0  0  0  0  0
   65.2638   34.1366   52.3509 H   0  0  0  0  0  0  0  0  0  0  0  0
   66.2916   33.6163   50.9726 H   0  0  0  0  0  0  0  0  0  0  0  0
   65.5502   35.2524   50.9726 H   0  0  0  0  0  0  0  0  0  0  0  0
   62.2606   30.7473   51.0996 H   0  0  0  0  0  0  0  0  0  0  0  0
   60.6244   31.4834   46.2269 H   0  0  0  0  0  0  0  0  0  0  0  0
   61.7233   30.0665   45.9826 H   0  0  0  0  0  0  0  0  0  0  0  0
   58.5535   27.7546   43.5227 H   0  0  0  0  0  0  0  0  0  0  0  0
   56.6247   28.4665   42.1039 H   0  0  0  0  0  0  0  0  0  0  0  0
   55.2677   30.4516   42.7787 H   0  0  0  0  0  0  0  0  0  0  0  0
   58.0875   32.8961   44.2073 H   0  0  0  0  0  0  0  0  0  0  0  0
   59.2003   35.1309   44.1875 H   0  0  0  0  0  0  0  0  0  0  0  0
   60.1322   36.0837   46.3007 H   0  0  0  0  0  0  0  0  0  0  0  0
   59.9377   34.8080   48.4395 H   0  0  0  0  0  0  0  0  0  0  0  0
   58.8402   32.5666   48.4609 H   0  0  0  0  0  0  0  0  0  0  0  0
   58.6727   30.5739   48.3697 H   0  0  0  0  0  0  0  0  0  0  0  0
   58.5543   28.7737   48.3059 H   0  0  0  0  0  0  0  0  0  0  0  0
   59.7881   29.7640   50.3382 H   0  0  0  0  0  0  0  0  0  0  0  0
   60.6600   28.4951   49.4097 H   0  0  0  0  0  0  0  0  0  0  0  0
  1  2  1  0
  2  3  1  0
  2  4  1  0
  4  5  2  0
  4  6  1  0
  6  7  2  0
  7  8  1  0
  8  9  1  0
  9 10  2  0
  9 11  1  0
 11 12  1  0
 12 13  1  0
 13 14  2  0
 13 15  1  0
 15 16  2  0
 16 17  1  0
 17 18  2  0
 18 19  1  0
 19 20  2  0
 20 21  1  0
 21 22  1  0
 22 23  2  0
 23 24  1  0
 24 25  2  0
 25 26  1  0
 26 27  2  0
 12 28  1  0
 28 29  1  0
 10  6  1  0
 20 15  1  0
 27 22  1  0
 29  8  1  0
  1 30  1  0
  1 31  1  0
  1 32  1  0
  3 33  1  0
  3 34  1  0
  3 35  1  0
  7 36  1  0
 11 37  1  0
 11 38  1  0
 16 39  1  0
 17 40  1  0
 18 41  1  0
 23 42  1  0
 24 43  1  0
 25 44  1  0
 26 45  1  0
 27 46  1  0
 28 47  1  0
 28 48  1  0
 29 49  1  0
 29 50  1  0
M  END
>  <UniqueID>  (39) 
37

>  <SMILES>  (39) 
CN(C)C(=O)c1cn2c(n1)CN(C(=O)c1cccnc1Oc1ccccc1)CC2

>  <Energy>  (39) 
97.17658415402173

>  <Genealogy>  (39) 
CN(C)C(=O)c1cn2c(n1)CN(C(=O)c1cccnc1Oc1ccccc1)CC2 (3D coordinates assigned)
CN(C)C(=O)c1cn2c(n1)CN(C(=O)c1cccnc1Oc1ccccc1)CC2 (nonaromatic ring conformer: 97.17658415402173 kcal/mol)

>  <smiles>  (39) 
CN(C)C(=O)c1cn2c(n1)CN(C(=O)c1cccnc1Oc1ccccc1)CC2

>  <score_type>  (39) 
oracle

>  <origin>  (39) 
adg

>  <m_score__min__energy>  (39) 
-7.9699999999999998

>  <m_primary>  (39) 
energy

$$$$
39:0
     RDKit          3D

 39 40  0  0  0  0  0  0  0  0999 V2000
   62.2350   33.8070   46.3620 C   0  0  0  0  0  0  0  0  0  0  0  0
   62.5050   33.3220   47.7640 C   0  0  0  0  0  0  0  0  0  0  0  0
   63.7710   32.7890   48.0620 C   0  0  0  0  0  0  0  0  0  0  0  0
   64.0800   32.3720   49.3580 C   0  0  0  0  0  0  0  0  0  0  0  0
   63.1290   32.4790   50.3720 C   0  0  0  0  0  0  0  0  0  0  0  0
   61.8590   32.9880   50.0900 C   0  0  0  0  0  0  0  0  0  0  0  0
   61.5240   33.3900   48.7870 C   0  0  0  0  0  0  0  0  0  0  0  0
   60.1560   33.8900   48.5340 C   0  0  0  0  0  0  0  0  0  0  0  0
   59.6100   34.6510   49.3790 O   0  0  0  0  0  0  0  0  0  0  0  0
   59.4340   33.4830   47.3620 N   0  0  0  0  0  0  0  0  0  0  0  0
   58.2240   34.1640   46.9130 C   0  0  0  0  0  0  0  0  0  0  0  0
   57.8500   33.6830   45.5490 C   0  0  0  0  0  0  0  0  0  0  0  0
   56.9800   34.3080   44.8840 O   0  0  0  0  0  0  0  0  0  0  0  0
   58.4810   32.5130   45.0150 N   0  0  0  0  0  0  0  0  0  0  0  0
   58.1010   31.1510   45.2600 C   0  0  0  0  0  0  0  0  0  0  0  0
   58.7740   30.3450   46.1960 C   0  0  0  0  0  0  0  0  0  0  0  0
   58.3910   29.0130   46.3820 C   0  0  0  0  0  0  0  0  0  0  0  0
   57.3410   28.4680   45.6330 C   0  0  0  0  0  0  0  0  0  0  0  0
   56.8740   26.7860   45.8580 S   0  0  0  0  0  0  0  0  0  0  0  0
   55.1570   26.6820   46.0280 N   0  0  0  0  0  0  0  0  0  0  0  0
   57.3120   25.9730   44.6720 O   0  0  0  0  0  0  0  0  0  0  0  0
   57.5310   26.2340   47.0910 O   0  0  0  0  0  0  0  0  0  0  0  0
   56.6900   29.2610   44.6780 C   0  0  0  0  0  0  0  0  0  0  0  0
   57.0730   30.5920   44.4900 C   0  0  0  0  0  0  0  0  0  0  0  0
   61.7003   34.7674   46.4029 H   0  0  0  0  0  0  0  0  0  0  0  0
   63.1886   33.9405   45.8302 H   0  0  0  0  0  0  0  0  0  0  0  0
   61.6191   33.0668   45.8302 H   0  0  0  0  0  0  0  0  0  0  0  0
   64.5255   32.6996   47.2665 H   0  0  0  0  0  0  0  0  0  0  0  0
   65.0750   31.9585   49.5795 H   0  0  0  0  0  0  0  0  0  0  0  0
   63.3791   32.1622   51.3953 H   0  0  0  0  0  0  0  0  0  0  0  0
   61.1150   33.0746   50.8956 H   0  0  0  0  0  0  0  0  0  0  0  0
   59.7840   32.6710   46.8060 H   0  0  0  0  0  0  0  0  0  0  0  0
   57.4032   33.9503   47.6135 H   0  0  0  0  0  0  0  0  0  0  0  0
   58.4085   35.2479   46.8783 H   0  0  0  0  0  0  0  0  0  0  0  0
   59.6043   30.7638   46.7836 H   0  0  0  0  0  0  0  0  0  0  0  0
   58.9172   28.3903   47.1204 H   0  0  0  0  0  0  0  0  0  0  0  0
   54.7540   26.7170   45.0640 H   0  0  0  0  0  0  0  0  0  0  0  0
   55.8751   28.8345   44.0746 H   0  0  0  0  0  0  0  0  0  0  0  0
   56.5635   31.2049   43.7319 H   0  0  0  0  0  0  0  0  0  0  0  0
  1  2  1  0
  2  3  2  0
  3  4  1  0
  4  5  2  0
  5  6  1  0
  6  7  2  0
  7  8  1  0
  8  9  2  0
  8 10  1  0
 10 11  1  0
 11 12  1  0
 12 13  2  0
 12 14  1  0
 14 15  1  0
 15 16  2  0
 16 17  1  0
 17 18  2  0
 18 19  1  0
 19 20  1  0
 19 21  2  0
 19 22  2  0
 18 23  1  0
 23 24  2  0
  7  2  1  0
 24 15  1  0
  1 25  1  0
  1 26  1  0
  1 27  1  0
  3 28  1  0
  4 29  1  0
  5 30  1  0
  6 31  1  0
 10 32  1  0
 11 33  1  0
 11 34  1  0
 16 35  1  0
 17 36  1  0
 20 37  1  0
 23 38  1  0
 24 39  1  0
M  CHG  2  14  -1  20  -1
M  END
>  <UniqueID>  (40) 
38

>  <SMILES>  (40) 
Cc1ccccc1C(=O)NCC(=O)[N-]c1ccc(S([NH-])(=O)=O)cc1

>  <Energy>  (40) 
44.105809214228366

>  <Genealogy>  (40) 
Cc1ccccc1C(=O)NCC(=O)[N-]c1ccc(S([NH-])(=O)=O)cc1 (protonated)
Cc1ccccc1C(=O)NCC(=O)[N-]c1ccc(S([NH-])(=O)=O)cc1 (3D coordinates assigned)
Cc1ccccc1C(=O)NCC(=O)[N-]c1ccc(S([NH-])(=O)=O)cc1 (optimized conformer: 44.105809214228366 kcal/mol)

>  <smiles>  (40) 
Cc1ccccc1C(=O)NCC(=O)Nc1ccc(S(N)(=O)=O)cc1

>  <score_type>  (40) 
oracle

>  <origin>  (40) 
adg

>  <m_score__min__energy>  (40) 
-11.75

>  <m_primary>  (40) 
energy

$$$$
40:0
     RDKit          3D

 61 64  0  0  0  0  0  0  0  0999 V2000
   61.3830   29.8920   51.1900 O   0  0  0  0  0  0  0  0  0  0  0  0
   60.4800   30.5640   50.6160 C   0  0  0  0  0  0  0  0  0  0  0  0
   60.2820   30.3500   49.1530 C   0  0  0  0  0  0  0  0  0  0  0  0
   61.0100   31.0620   48.1800 C   0  0  0  0  0  0  0  0  0  0  0  0
   60.8140   30.8070   46.8190 C   0  0  0  0  0  0  0  0  0  0  0  0
   59.8980   29.8300   46.4020 C   0  0  0  0  0  0  0  0  0  0  0  0
   59.7110   29.5580   44.9340 C   0  0  0  0  0  0  0  0  0  0  0  0
   58.2930   29.2700   44.6520 N   0  0  0  0  0  0  0  0  0  0  0  0
   58.0570   28.1270   43.7440 C   0  0  0  0  0  0  0  0  0  0  0  0
   57.7650   26.8150   44.4430 C   0  0  0  0  0  0  0  0  0  0  0  0
   57.3930   26.7790   45.7990 C   0  0  0  0  0  0  0  0  0  0  0  0
   57.1010   25.5600   46.4210 C   0  0  0  0  0  0  0  0  0  0  0  0
   57.1480   24.3710   45.6890 C   0  0  0  0  0  0  0  0  0  0  0  0
   57.4690   24.4010   44.3300 C   0  0  0  0  0  0  0  0  0  0  0  0
   57.7710   25.6160   43.7070 C   0  0  0  0  0  0  0  0  0  0  0  0
   57.3330   30.6950   44.2850 S   0  0  0  0  0  0  0  0  0  0  0  0
   55.9150   30.4640   44.7280 O   0  0  0  0  0  0  0  0  0  0  0  0
   57.3190   30.8920   42.7930 O   0  0  0  0  0  0  0  0  0  0  0  0
   57.9200   32.1800   45.0550 C   0  0  0  0  0  0  0  0  0  0  0  0
   57.7710   32.3740   46.4360 C   0  0  0  0  0  0  0  0  0  0  0  0
   58.2460   33.5400   47.0430 C   0  0  0  0  0  0  0  0  0  0  0  0
   58.8470   34.5360   46.2710 C   0  0  0  0  0  0  0  0  0  0  0  0
   58.9530   34.3750   44.8880 C   0  0  0  0  0  0  0  0  0  0  0  0
   58.4800   33.2080   44.2780 C   0  0  0  0  0  0  0  0  0  0  0  0
   59.1710   29.1170   47.3680 C   0  0  0  0  0  0  0  0  0  0  0  0
   59.3710   29.3660   48.7280 C   0  0  0  0  0  0  0  0  0  0  0  0
   59.6960   31.4910   51.4130 N   0  0  0  0  0  0  0  0  0  0  0  0
   60.2050   32.8780   51.2710 C   0  0  0  0  0  0  0  0  0  0  0  0
   59.1630   33.9480   51.6670 C   0  0  0  0  0  0  0  0  0  0  0  0
   58.1990   33.4160   52.7300 C   0  0  0  0  0  0  0  0  0  0  0  0
   57.4440   32.1700   52.2320 C   0  0  0  0  0  0  0  0  0  0  0  0
   58.2400   31.3770   51.1740 C   0  0  0  0  0  0  0  0  0  0  0  0
   61.7384   31.8246   48.4930 H   0  0  0  0  0  0  0  0  0  0  0  0
   61.3827   31.3771   46.0696 H   0  0  0  0  0  0  0  0  0  0  0  0
   60.0254   30.4401   44.3570 H   0  0  0  0  0  0  0  0  0  0  0  0
   60.3204   28.6884   44.6471 H   0  0  0  0  0  0  0  0  0  0  0  0
   57.1987   28.3714   43.1009 H   0  0  0  0  0  0  0  0  0  0  0  0
   58.9902   27.9788   43.1809 H   0  0  0  0  0  0  0  0  0  0  0  0
   57.3312   27.7147   46.3740 H   0  0  0  0  0  0  0  0  0  0  0  0
   56.8341   25.5379   47.4879 H   0  0  0  0  0  0  0  0  0  0  0  0
   56.9324   23.4119   46.1826 H   0  0  0  0  0  0  0  0  0  0  0  0
   57.4843   23.4672   43.7487 H   0  0  0  0  0  0  0  0  0  0  0  0
   58.0148   25.6344   42.6345 H   0  0  0  0  0  0  0  0  0  0  0  0
   57.2769   31.6032   47.0457 H   0  0  0  0  0  0  0  0  0  0  0  0
   58.1462   33.6731   48.1303 H   0  0  0  0  0  0  0  0  0  0  0  0
   59.2363   35.4458   46.7513 H   0  0  0  0  0  0  0  0  0  0  0  0
   59.4094   35.1675   44.2767 H   0  0  0  0  0  0  0  0  0  0  0  0
   58.5468   33.0949   43.1859 H   0  0  0  0  0  0  0  0  0  0  0  0
   58.4399   28.3581   47.0525 H   0  0  0  0  0  0  0  0  0  0  0  0
   58.8096   28.7859   49.4752 H   0  0  0  0  0  0  0  0  0  0  0  0
   59.8490   31.2090   52.4130 H   0  0  0  0  0  0  0  0  0  0  0  0
   61.0890   32.9945   51.9152 H   0  0  0  0  0  0  0  0  0  0  0  0
   60.4470   33.0321   50.2091 H   0  0  0  0  0  0  0  0  0  0  0  0
   59.6873   34.8286   52.0667 H   0  0  0  0  0  0  0  0  0  0  0  0
   58.5815   34.2154   50.7724 H   0  0  0  0  0  0  0  0  0  0  0  0
   58.7712   33.1510   53.6313 H   0  0  0  0  0  0  0  0  0  0  0  0
   57.4615   34.2014   52.9521 H   0  0  0  0  0  0  0  0  0  0  0  0
   57.2461   31.5115   53.0906 H   0  0  0  0  0  0  0  0  0  0  0  0
   56.5114   32.5123   51.7597 H   0  0  0  0  0  0  0  0  0  0  0  0
   57.9488   30.3174   51.2239 H   0  0  0  0  0  0  0  0  0  0  0  0
   58.0136   31.7916   50.1806 H   0  0  0  0  0  0  0  0  0  0  0  0
  1  2  2  0
  2  3  1  0
  3  4  2  0
  4  5  1  0
  5  6  2  0
  6  7  1  0
  7  8  1  0
  8  9  1  0
  9 10  1  0
 10 11  2  0
 11 12  1  0
 12 13  2  0
 13 14  1  0
 14 15  2  0
  8 16  1  0
 16 17  2  0
 16 18  2  0
 16 19  1  0
 19 20  2  0
 20 21  1  0
 21 22  2  0
 22 23  1  0
 23 24  2  0
  6 25  1  0
 25 26  2  0
  2 27  1  0
 27 28  1  0
 28 29  1  0
 29 30  1  0
 30 31  1  0
 31 32  1  0
 26  3  1  0
 32 27  1  0
 15 10  1  0
 24 19  1  0
  4 33  1  0
  5 34  1  0
  7 35  1  0
  7 36  1  0
  9 37  1  0
  9 38  1  0
 11 39  1  0
 12 40  1  0
 13 41  1  0
 14 42  1  0
 15 43  1  0
 20 44  1  0
 21 45  1  0
 22 46  1  0
 23 47  1  0
 24 48  1  0
 25 49  1  0
 26 50  1  0
 27 51  1  0
 28 52  1  0
 28 53  1  0
 29 54  1  0
 29 55  1  0
 30 56  1  0
 30 57  1  0
 31 58  1  0
 31 59  1  0
 32 60  1  0
 32 61  1  0
M  CHG  1  27   1
M  END
>  <UniqueID>  (41) 
39

>  <SMILES>  (41) 
O=C(c1ccc(CN(Cc2ccccc2)S(=O)(=O)c2ccccc2)cc1)[NH+]1CCCCC1

>  <Energy>  (41) 
81.72049335319835

>  <Genealogy>  (41) 
O=C(c1ccc(CN(Cc2ccccc2)S(=O)(=O)c2ccccc2)cc1)[NH+]1CCCCC1 (protonated)
O=C(c1ccc(CN(Cc2ccccc2)S(=O)(=O)c2ccccc2)cc1)[NH+]1CCCCC1 (3D coordinates assigned)
O=C(c1ccc(CN(Cc2ccccc2)S(=O)(=O)c2ccccc2)cc1)[NH+]1CCCCC1 (nonaromatic ring conformer: 81.72049335319835 kcal/mol)

>  <smiles>  (41) 
O=C(c1ccc(CN(Cc2ccccc2)S(=O)(=O)c2ccccc2)cc1)N1CCCCC1

>  <score_type>  (41) 
oracle

>  <origin>  (41) 
adg

>  <m_score__min__energy>  (41) 
-8.7699999999999996

>  <m_primary>  (41) 
energy

$$$$
41:0
     RDKit          3D

 26 27  0  0  0  0  0  0  0  0999 V2000
   54.6920   29.4160   43.6320 O   0  0  0  0  0  0  0  0  0  0  0  0
   55.7880   29.6000   44.2240 C   0  0  0  0  0  0  0  0  0  0  0  0
   56.1700   28.6830   45.2590 N   0  0  0  0  0  0  0  0  0  0  0  0
   57.4910   28.1750   45.4950 C   0  0  0  0  0  0  0  0  0  0  0  0
   57.6520   27.0810   46.3550 C   0  0  0  0  0  0  0  0  0  0  0  0
   58.9240   26.5540   46.5970 C   0  0  0  0  0  0  0  0  0  0  0  0
   60.0430   27.1080   45.9700 C   0  0  0  0  0  0  0  0  0  0  0  0
   59.8940   28.1850   45.0900 C   0  0  0  0  0  0  0  0  0  0  0  0
   61.0160   28.7190   44.4610 O   0  0  0  0  0  0  0  0  0  0  0  0
   58.6180   28.7130   44.8460 C   0  0  0  0  0  0  0  0  0  0  0  0
   56.6160   30.7790   43.8730 C   0  0  0  0  0  0  0  0  0  0  0  0
   56.9930   31.0230   42.5400 C   0  0  0  0  0  0  0  0  0  0  0  0
   57.7750   32.1370   42.2200 C   0  0  0  0  0  0  0  0  0  0  0  0
   58.1950   33.0100   43.2250 C   0  0  0  0  0  0  0  0  0  0  0  0
   57.8400   32.7690   44.5560 C   0  0  0  0  0  0  0  0  0  0  0  0
   58.4210   33.9610   45.9300 Br  0  0  0  0  0  0  0  0  0  0  0  0
   57.0580   31.6550   44.8800 C   0  0  0  0  0  0  0  0  0  0  0  0
   56.7729   26.6343   46.8425 H   0  0  0  0  0  0  0  0  0  0  0  0
   59.0441   25.7018   47.2821 H   0  0  0  0  0  0  0  0  0  0  0  0
   61.0434   26.6962   46.1689 H   0  0  0  0  0  0  0  0  0  0  0  0
   61.5240   28.2000   43.7540 H   0  0  0  0  0  0  0  0  0  0  0  0
   58.4974   29.5514   44.1442 H   0  0  0  0  0  0  0  0  0  0  0  0
   56.6710   30.3339   41.7453 H   0  0  0  0  0  0  0  0  0  0  0  0
   58.0598   32.3258   41.1744 H   0  0  0  0  0  0  0  0  0  0  0  0
   58.8059   33.8885   42.9697 H   0  0  0  0  0  0  0  0  0  0  0  0
   56.7874   31.4634   45.9288 H   0  0  0  0  0  0  0  0  0  0  0  0
  1  2  2  0
  2  3  1  0
  3  4  1  0
  4  5  2  0
  5  6  1  0
  6  7  2  0
  7  8  1  0
  8  9  1  0
  8 10  2  0
  2 11  1  0
 11 12  2  0
 12 13  1  0
 13 14  2  0
 14 15  1  0
 15 16  1  0
 15 17  2  0
 10  4  1  0
 17 11  1  0
  5 18  1  0
  6 19  1  0
  7 20  1  0
  9 21  1  0
 10 22  1  0
 12 23  1  0
 13 24  1  0
 14 25  1  0
 17 26  1  0
M  CHG  1   3  -1
M  END
>  <UniqueID>  (42) 
40

>  <SMILES>  (42) 
O=C([N-]c1cccc(O)c1)c1cccc(Br)c1

>  <Energy>  (42) 
33.089459281967315

>  <Genealogy>  (42) 
O=C([N-]c1cccc(O)c1)c1cccc(Br)c1 (protonated)
O=C([N-]c1cccc(O)c1)c1cccc(Br)c1 (3D coordinates assigned)
O=C([N-]c1cccc(O)c1)c1cccc(Br)c1 (optimized conformer: 33.089459281967315 kcal/mol)

>  <smiles>  (42) 
O=C(Nc1cccc(O)c1)c1cccc(Br)c1

>  <score_type>  (42) 
oracle

>  <origin>  (42) 
adg

>  <m_score__min__energy>  (42) 
-9.4700000000000006

>  <m_primary>  (42) 
energy

$$$$
42:0
     RDKit          3D

 41 43  0  0  0  0  0  0  0  0999 V2000
   57.8340   34.5572   43.7692 H   0  0  0  0  0  0  0  0  0  0  0  0
   58.1350   34.3620   44.8090 C   0  0  0  0  0  0  0  0  0  0  0  0
   57.3740   33.5050   45.6080 C   0  0  0  0  0  0  0  0  0  0  0  0
   56.4681   33.0333   45.1995 H   0  0  0  0  0  0  0  0  0  0  0  0
   57.7620   33.2460   46.9260 C   0  0  0  0  0  0  0  0  0  0  0  0
   57.1538   32.5782   47.5537 H   0  0  0  0  0  0  0  0  0  0  0  0
   58.9230   33.8330   47.4530 C   0  0  0  0  0  0  0  0  0  0  0  0
   59.3080   33.5460   48.8090 N   0  0  0  0  0  0  0  0  0  0  0  0
   59.4420   34.3590   49.4500 H   0  0  0  0  0  0  0  0  0  0  0  0
   59.3070   32.2180   49.3640 C   0  0  0  0  0  0  0  0  0  0  0  0
   59.4930   31.1470   48.5460 N   0  0  0  0  0  0  0  0  0  0  0  0
   59.4630   29.8600   48.9900 C   0  0  0  0  0  0  0  0  0  0  0  0
   59.6880   28.8660   48.1810 N   0  0  0  0  0  0  0  0  0  0  0  0
   59.0500   28.6330   46.9130 C   0  0  0  0  0  0  0  0  0  0  0  0
   59.6340   29.0380   45.6970 C   0  0  0  0  0  0  0  0  0  0  0  0
   60.6085   29.5482   45.6999 H   0  0  0  0  0  0  0  0  0  0  0  0
   58.9800   28.7940   44.4880 C   0  0  0  0  0  0  0  0  0  0  0  0
   59.4483   29.0973   43.5400 H   0  0  0  0  0  0  0  0  0  0  0  0
   57.7330   28.1660   44.4790 C   0  0  0  0  0  0  0  0  0  0  0  0
   57.2277   27.9682   43.5222 H   0  0  0  0  0  0  0  0  0  0  0  0
   57.1210   27.7860   45.6810 C   0  0  0  0  0  0  0  0  0  0  0  0
   55.8340   27.1560   45.6220 N   0  0  0  0  0  0  0  0  0  0  0  0
   55.5260   25.4570   45.7890 S   0  0  0  0  0  0  0  0  0  0  0  0
   54.0540   25.2150   45.6200 O   0  0  0  0  0  0  0  0  0  0  0  0
   55.9390   24.9910   47.1570 O   0  0  0  0  0  0  0  0  0  0  0  0
   56.4020   24.5500   44.5320 C   0  0  0  0  0  0  0  0  0  0  0  0
   57.0911   23.8366   45.0076 H   0  0  0  0  0  0  0  0  0  0  0  0
   55.6820   24.0026   43.9059 H   0  0  0  0  0  0  0  0  0  0  0  0
   56.9741   25.2505   43.9059 H   0  0  0  0  0  0  0  0  0  0  0  0
   57.7830   28.0350   46.8980 C   0  0  0  0  0  0  0  0  0  0  0  0
   57.3008   27.7573   47.8469 H   0  0  0  0  0  0  0  0  0  0  0  0
   59.2390   29.6110   50.3460 C   0  0  0  0  0  0  0  0  0  0  0  0
   59.2195   28.5785   50.7250 H   0  0  0  0  0  0  0  0  0  0  0  0
   59.0400   30.6850   51.2160 C   0  0  0  0  0  0  0  0  0  0  0  0
   58.8587   30.4973   52.2846 H   0  0  0  0  0  0  0  0  0  0  0  0
   59.0700   31.9970   50.7360 C   0  0  0  0  0  0  0  0  0  0  0  0
   58.8140   33.4340   51.9780 Br  0  0  0  0  0  0  0  0  0  0  0  0
   59.6680   34.7170   46.6510 C   0  0  0  0  0  0  0  0  0  0  0  0
   60.5604   35.2105   47.0634 H   0  0  0  0  0  0  0  0  0  0  0  0
   59.2790   34.9710   45.3320 C   0  0  0  0  0  0  0  0  0  0  0  0
   59.8744   35.6512   44.7052 H   0  0  0  0  0  0  0  0  0  0  0  0
  1  2  1  0
  2  3  2  0
  3  4  1  0
  3  5  1  0
  5  6  1  0
  5  7  2  0
  7  8  1  0
  8  9  1  0
  8 10  1  0
 10 11  1  0
 11 12  1  0
 12 13  2  0
 13 14  1  0
 14 15  2  0
 15 16  1  0
 15 17  1  0
 17 18  1  0
 17 19  2  0
 19 20  1  0
 19 21  1  0
 21 22  1  0
 22 23  1  0
 23 24  2  0
 23 25  2  0
 23 26  1  0
 26 27  1  0
 26 28  1  0
 26 29  1  0
 21 30  2  0
 30 31  1  0
 12 32  1  0
 32 33  1  0
 32 34  2  0
 34 35  1  0
 34 36  1  0
 36 37  1  0
  7 38  1  0
 38 39  1  0
 38 40  2  0
 40 41  1  0
 40  2  1  0
 36 10  2  0
 30 14  1  0
M  CHG  2  11  -1  22  -1
M  END
>  <UniqueID>  (43) 
41

>  <SMILES>  (43) 
CS(=O)(=O)[N-]c1cccc(/N=c2/ccc(Br)c(Nc3ccccc3)[n-]2)c1

>  <Energy>  (43) 
52.830471362128606

>  <Genealogy>  (43) 
CS(=O)(=O)[N-]c1cccc(N=c2ccc(Br)c(Nc3ccccc3)[n-]2)c1 (protonated)
CS(=O)(=O)[N-]c1cccc(/N=c2/ccc(Br)c(Nc3ccccc3)[n-]2)c1 (cis-trans isomerization)
CS(=O)(=O)[N-]c1cccc(/N=c2/ccc(Br)c(Nc3ccccc3)[n-]2)c1 (3D coordinates assigned)
CS(=O)(=O)[N-]c1cccc(/N=c2/ccc(Br)c(Nc3ccccc3)[n-]2)c1 (optimized conformer: 52.830471362128606 kcal/mol)

>  <smiles>  (43) 
CS(=O)(=O)Nc1cccc(N=c2ccc(Br)c(Nc3ccccc3)[nH]2)c1

>  <score_type>  (43) 
oracle

>  <origin>  (43) 
adg

>  <m_score__min__energy>  (43) 
-11.970000000000001

>  <m_primary>  (43) 
energy

$$$$
43:0
     RDKit          3D

 50 52  0  0  0  0  0  0  0  0999 V2000
   57.8020   28.1150   53.9270 C   0  0  0  0  0  0  0  0  0  0  0  0
   56.3440   28.2920   53.5030 C   0  0  0  0  0  0  0  0  0  0  0  0
   55.9960   29.7150   53.3380 N   0  0  0  0  0  0  0  0  0  0  0  0
   54.9450   30.2890   54.1990 C   0  0  0  0  0  0  0  0  0  0  0  0
   53.5710   29.6490   53.9380 C   0  0  0  0  0  0  0  0  0  0  0  0
   52.7970   30.3570   52.8550 C   0  0  0  0  0  0  0  0  0  0  0  0
   51.8470   31.3400   53.1870 C   0  0  0  0  0  0  0  0  0  0  0  0
   51.1310   31.9970   52.1820 C   0  0  0  0  0  0  0  0  0  0  0  0
   51.3650   31.6900   50.8390 C   0  0  0  0  0  0  0  0  0  0  0  0
   50.6490   32.3410   49.8410 O   0  0  0  0  0  0  0  0  0  0  0  0
   52.3210   30.7290   50.4990 C   0  0  0  0  0  0  0  0  0  0  0  0
   53.0410   30.0710   51.5010 C   0  0  0  0  0  0  0  0  0  0  0  0
   56.8510   30.5730   52.5410 C   0  0  0  0  0  0  0  0  0  0  0  0
   57.1200   31.9020   52.9070 C   0  0  0  0  0  0  0  0  0  0  0  0
   57.9530   32.6720   52.0920 C   0  0  0  0  0  0  0  0  0  0  0  0
   58.2620   34.0910   52.4500 C   0  0  0  0  0  0  0  0  0  0  0  0
   58.4870   32.1280   50.9680 N   0  0  0  0  0  0  0  0  0  0  0  0
   58.2280   30.8400   50.6140 C   0  0  0  0  0  0  0  0  0  0  0  0
   58.8020   30.2830   49.4120 N   0  0  0  0  0  0  0  0  0  0  0  0
   59.5700   29.0310   49.4840 C   0  0  0  0  0  0  0  0  0  0  0  0
   59.5920   28.3360   48.1190 C   0  0  0  0  0  0  0  0  0  0  0  0
   59.9970   29.2350   47.1050 O   0  0  0  0  0  0  0  0  0  0  0  0
   59.0210   30.2470   46.9570 C   0  0  0  0  0  0  0  0  0  0  0  0
   58.9470   31.1190   48.2140 C   0  0  0  0  0  0  0  0  0  0  0  0
   57.4180   30.0840   51.4030 N   0  0  0  0  0  0  0  0  0  0  0  0
   57.8662   28.1072   55.0251 H   0  0  0  0  0  0  0  0  0  0  0  0
   58.1863   27.1636   53.5305 H   0  0  0  0  0  0  0  0  0  0  0  0
   58.4027   28.9468   53.5305 H   0  0  0  0  0  0  0  0  0  0  0  0
   56.1847   27.7723   52.5467 H   0  0  0  0  0  0  0  0  0  0  0  0
   55.7028   27.8700   54.2909 H   0  0  0  0  0  0  0  0  0  0  0  0
   55.2191   30.1241   55.2515 H   0  0  0  0  0  0  0  0  0  0  0  0
   54.8681   31.3623   53.9706 H   0  0  0  0  0  0  0  0  0  0  0  0
   53.7218   28.6021   53.6360 H   0  0  0  0  0  0  0  0  0  0  0  0
   52.9872   29.7236   54.8673 H   0  0  0  0  0  0  0  0  0  0  0  0
   51.6667   31.5928   54.2423 H   0  0  0  0  0  0  0  0  0  0  0  0
   50.3820   32.7571   52.4489 H   0  0  0  0  0  0  0  0  0  0  0  0
   52.5074   30.4898   49.4416 H   0  0  0  0  0  0  0  0  0  0  0  0
   53.8024   29.3256   51.2279 H   0  0  0  0  0  0  0  0  0  0  0  0
   56.6817   32.3296   53.8208 H   0  0  0  0  0  0  0  0  0  0  0  0
   58.2849   34.1963   53.5447 H   0  0  0  0  0  0  0  0  0  0  0  0
   59.2417   34.3690   52.0343 H   0  0  0  0  0  0  0  0  0  0  0  0
   57.4866   34.7512   52.0343 H   0  0  0  0  0  0  0  0  0  0  0  0
   60.6016   29.2563   49.7922 H   0  0  0  0  0  0  0  0  0  0  0  0
   59.0931   28.3626   50.2160 H   0  0  0  0  0  0  0  0  0  0  0  0
   60.2964   27.4919   48.1552 H   0  0  0  0  0  0  0  0  0  0  0  0
   58.5777   27.9781   47.8888 H   0  0  0  0  0  0  0  0  0  0  0  0
   59.2836   30.8781   46.0952 H   0  0  0  0  0  0  0  0  0  0  0  0
   58.0415   29.7719   46.7992 H   0  0  0  0  0  0  0  0  0  0  0  0
   59.8688   31.7135   48.2969 H   0  0  0  0  0  0  0  0  0  0  0  0
   58.0733   31.7828   48.1355 H   0  0  0  0  0  0  0  0  0  0  0  0
  1  2  1  0
  2  3  1  0
  3  4  1  0
  4  5  1  0
  5  6  1  0
  6  7  2  0
  7  8  1  0
  8  9  2  0
  9 10  1  0
  9 11  1  0
 11 12  2  0
  3 13  1  0
 13 14  2  0
 14 15  1  0
 15 16  1  0
 15 17  2  0
 17 18  1  0
 18 19  1  0
 19 20  1  0
 20 21  1  0
 21 22  1  0
 22 23  1  0
 23 24  1  0
 18 25  2  0
 12  6  1  0
 25 13  1  0
 24 19  1  0
  1 26  1  0
  1 27  1  0
  1 28  1  0
  2 29  1  0
  2 30  1  0
  4 31  1  0
  4 32  1  0
  5 33  1  0
  5 34  1  0
  7 35  1  0
  8 36  1  0
 11 37  1  0
 12 38  1  0
 14 39  1  0
 16 40  1  0
 16 41  1  0
 16 42  1  0
 20 43  1  0
 20 44  1  0
 21 45  1  0
 21 46  1  0
 23 47  1  0
 23 48  1  0
 24 49  1  0
 24 50  1  0
M  CHG  1  10  -1
M  END
>  <UniqueID>  (44) 
42

>  <SMILES>  (44) 
CCN(CCc1ccc([O-])cc1)c1cc(C)nc(N2CCOCC2)n1

>  <Energy>  (44) 
48.23531761983142

>  <Genealogy>  (44) 
CCN(CCc1ccc([O-])cc1)c1cc(C)nc(N2CCOCC2)n1 (protonated)
CCN(CCc1ccc([O-])cc1)c1cc(C)nc(N2CCOCC2)n1 (3D coordinates assigned)
CCN(CCc1ccc([O-])cc1)c1cc(C)nc(N2CCOCC2)n1 (nonaromatic ring conformer: 48.23531761983142 kcal/mol)

>  <smiles>  (44) 
CCN(CCc1ccc(O)cc1)c1cc(C)nc(N2CCOCC2)n1

>  <score_type>  (44) 
oracle

>  <origin>  (44) 
adg

>  <m_score__min__energy>  (44) 
-10.41

>  <m_primary>  (44) 
energy

$$$$
44:0
     RDKit          3D

 30 31  0  0  1  0  0  0  0  0999 V2000
   60.2500   27.5560   45.6940 C   0  0  0  0  0  0  0  0  0  0  0  0
   58.8010   27.8690   45.5620 C   0  0  0  0  0  0  0  0  0  0  0  0
   57.9120   26.8670   45.8690 C   0  0  0  0  0  0  0  0  0  0  0  0
   56.5540   27.1390   45.7520 C   0  0  0  0  0  0  0  0  0  0  0  0
   57.7460   31.3630   42.8470 N   0  0  0  0  0  0  0  0  0  0  0  0
   56.1640   28.3580   45.3480 N   0  0  0  0  0  0  0  0  0  0  0  0
   57.0880   29.3020   45.0600 C   0  0  0  0  0  0  0  0  0  0  0  0
   56.6700   30.4400   44.6810 N   0  0  0  0  0  0  0  0  0  0  0  0
   57.4780   31.4690   44.1200 C   0  0  0  0  0  0  0  0  0  0  0  0
   55.7190   26.2050   46.0390 N   0  0  0  0  0  0  0  0  0  0  0  0
   57.9770   32.5760   44.9270 C   0  0  0  0  0  0  0  0  0  0  0  0
   57.8060   32.4610   46.3050 C   0  0  0  0  0  0  0  0  0  0  0  0
   58.2730   33.5020   47.0860 C   0  0  0  0  0  0  0  0  0  0  0  0
   58.8830   34.6200   46.5850 C   0  0  0  0  0  0  0  0  0  0  0  0
   59.0450   34.7180   45.2150 C   0  0  0  0  0  0  0  0  0  0  0  0
   58.5890   33.6900   44.3850 C   0  0  0  0  0  0  0  0  0  0  0  0
   58.4070   29.1020   45.1530 N   0  0  0  0  0  0  0  0  0  0  0  0
   60.5171   27.4983   46.7595 H   0  0  0  0  0  0  0  0  0  0  0  0
   60.4623   26.5913   45.2100 H   0  0  0  0  0  0  0  0  0  0  0  0
   60.8416   28.3471   45.2100 H   0  0  0  0  0  0  0  0  0  0  0  0
   58.2649   25.8784   46.1978 H   0  0  0  0  0  0  0  0  0  0  0  0
   58.1120   30.4660   42.4290 H   0  0  0  0  0  0  0  0  0  0  0  0
   55.1420   28.5700   45.2570 H   0  0  0  0  0  0  0  0  0  0  0  0
   55.1000   26.3520   46.8870 H   0  0  0  0  0  0  0  0  0  0  0  0
   57.3208   31.5807   46.7519 H   0  0  0  0  0  0  0  0  0  0  0  0
   58.1466   33.4271   48.1761 H   0  0  0  0  0  0  0  0  0  0  0  0
   59.2350   35.4191   47.2540 H   0  0  0  0  0  0  0  0  0  0  0  0
   59.5317   35.6031   44.7795 H   0  0  0  0  0  0  0  0  0  0  0  0
   58.7179   33.7682   43.2954 H   0  0  0  0  0  0  0  0  0  0  0  0
   59.0810   29.8600   44.9200 H   0  0  0  0  0  0  0  0  0  0  0  0
  1  2  1  0
  2  3  2  0
  3  4  1  0
  4  5  2  3
  4  6  1  0
  6  7  1  0
  7  8  2  0
  8  9  1  0
  9 10  2  0
  9 11  1  0
 11 12  2  0
 12 13  1  0
 13 14  2  0
 14 15  1  0
 15 16  2  0
  7 17  1  0
 17  2  1  0
 16 11  1  0
  1 18  1  0
  1 19  1  0
  1 20  1  0
  3 21  1  0
  5 22  1  0
  6 23  1  0
 10 24  1  0
 12 25  1  0
 13 26  1  0
 14 27  1  0
 15 28  1  0
 16 29  1  0
 17 30  1  0
M  END
>  <smiles>  (45) 
Cc1cc(=N)[nH]c(=NC(=N)c2ccccc2)[nH]1

>  <score_type>  (45) 
oracle

>  <origin>  (45) 
adg

>  <m_score__min__energy>  (45) 
-7.4800000000000004

>  <m_primary>  (45) 
energy

$$$$
45:0
     RDKit          3D

 29 30  0  0  1  0  0  0  0  0999 V2000
   58.1440   27.2630   43.6560 C   0  0  0  0  0  0  0  0  0  0  0  0
   57.9660   28.0920   44.6920 C   0  0  0  0  0  0  0  0  0  0  0  0
   56.6660   28.0680   45.4430 C   0  0  0  0  0  0  0  0  0  0  0  0
   55.8790   29.1630   44.8740 N   0  0  0  0  0  0  0  0  0  0  0  0
   56.4640   30.1320   44.2370 C   0  0  0  0  0  0  0  0  0  0  0  0
   56.3690   30.2080   42.8630 C   0  0  0  0  0  0  0  0  0  0  0  0
   57.0220   31.2720   42.2770 C   0  0  0  0  0  0  0  0  0  0  0  0
   57.6960   32.1510   43.0730 N   0  0  0  0  0  0  0  0  0  0  0  0
   57.7740   32.0610   44.3960 C   0  0  0  0  0  0  0  0  0  0  0  0
   58.4610   32.9630   45.2950 C   0  0  0  0  0  0  0  0  0  0  0  0
   58.6310   34.2990   44.8990 C   0  0  0  0  0  0  0  0  0  0  0  0
   59.2710   35.2320   45.6710 C   0  0  0  0  0  0  0  0  0  0  0  0
   59.7870   34.8960   46.8970 C   0  0  0  0  0  0  0  0  0  0  0  0
   59.6410   33.6070   47.3150 C   0  0  0  0  0  0  0  0  0  0  0  0
   58.9850   32.6510   46.5230 C   0  0  0  0  0  0  0  0  0  0  0  0
   58.9030   31.0520   47.2160 Cl  0  0  0  0  0  0  0  0  0  0  0  0
   57.1350   31.0170   44.9680 N   0  0  0  0  0  0  0  0  0  0  0  0
   59.0930   27.2735   43.0999 H   0  0  0  0  0  0  0  0  0  0  0  0
   57.3412   26.5713   43.3608 H   0  0  0  0  0  0  0  0  0  0  0  0
   58.7660   28.7854   44.9908 H   0  0  0  0  0  0  0  0  0  0  0  0
   56.1526   27.1062   45.2965 H   0  0  0  0  0  0  0  0  0  0  0  0
   56.8130   28.1849   46.5269 H   0  0  0  0  0  0  0  0  0  0  0  0
   55.8087   29.4679   42.2729 H   0  0  0  0  0  0  0  0  0  0  0  0
   56.9997   31.4095   41.1859 H   0  0  0  0  0  0  0  0  0  0  0  0
   58.1610   32.9130   42.5680 H   0  0  0  0  0  0  0  0  0  0  0  0
   58.2315   34.6113   43.9229 H   0  0  0  0  0  0  0  0  0  0  0  0
   59.3725   36.2638   45.3034 H   0  0  0  0  0  0  0  0  0  0  0  0
   60.3011   35.6416   47.5214 H   0  0  0  0  0  0  0  0  0  0  0  0
   60.0457   33.3093   48.2936 H   0  0  0  0  0  0  0  0  0  0  0  0
  1  2  2  0
  2  3  1  0
  3  4  1  0
  4  5  2  0
  5  6  1  0
  6  7  2  0
  7  8  1  0
  8  9  1  0
  9 10  1  0
 10 11  2  0
 11 12  1  0
 12 13  2  0
 13 14  1  0
 14 15  2  0
 15 16  1  0
  9 17  2  0
 17  5  1  0
 15 10  1  0
  1 18  1  0
  1 19  1  0
  2 20  1  0
  3 21  1  0
  3 22  1  0
  6 23  1  0
  7 24  1  0
  8 25  1  0
 11 26  1  0
 12 27  1  0
 13 28  1  0
 14 29  1  0
M  END
>  <smiles>  (46) 
C=CCN=c1cc[nH]c(-c2ccccc2Cl)n1

>  <score_type>  (46) 
oracle

>  <origin>  (46) 
adg

>  <m_score__min__energy>  (46) 
-6.7800000000000002

>  <m_primary>  (46) 
energy

$$$$
46:0
     RDKit          3D

 60 63  0  0  0  0  0  0  0  0999 V2000
   56.6820   21.5050   43.3480 C   0  0  0  0  0  0  0  0  0  0  0  0
   57.1000   22.6300   44.2410 C   0  0  0  0  0  0  0  0  0  0  0  0
   58.3980   23.0560   44.4470 C   0  0  0  0  0  0  0  0  0  0  0  0
   58.2680   24.0790   45.3700 C   0  0  0  0  0  0  0  0  0  0  0  0
   59.4060   24.8220   45.9970 C   0  0  0  0  0  0  0  0  0  0  0  0
   56.9650   24.2070   45.7050 N   0  0  0  0  0  0  0  0  0  0  0  0
   56.3770   25.1380   46.6720 C   0  0  0  0  0  0  0  0  0  0  0  0
   55.5370   26.1880   45.9950 C   0  0  0  0  0  0  0  0  0  0  0  0
   54.3450   25.9100   45.6920 O   0  0  0  0  0  0  0  0  0  0  0  0
   56.0580   27.4770   45.6360 N   0  0  0  0  0  0  0  0  0  0  0  0
   57.4160   27.9140   45.7640 C   0  0  0  0  0  0  0  0  0  0  0  0
   57.9720   28.6930   44.7430 C   0  0  0  0  0  0  0  0  0  0  0  0
   59.2790   29.1750   44.8570 C   0  0  0  0  0  0  0  0  0  0  0  0
   60.0340   28.8930   46.0000 C   0  0  0  0  0  0  0  0  0  0  0  0
   59.4950   28.1000   47.0220 C   0  0  0  0  0  0  0  0  0  0  0  0
   60.2850   27.8130   48.1820 N   0  0  0  0  0  0  0  0  0  0  0  0
   60.4990   28.7480   49.2490 C   0  0  0  0  0  0  0  0  0  0  0  0
   61.4390   28.5530   50.0740 O   0  0  0  0  0  0  0  0  0  0  0  0
   59.6720   29.9720   49.3480 C   0  0  0  0  0  0  0  0  0  0  0  0
   59.6540   30.9000   48.2960 C   0  0  0  0  0  0  0  0  0  0  0  0
   58.8810   32.0740   48.3830 C   0  0  0  0  0  0  0  0  0  0  0  0
   58.8410   33.0130   47.2890 N   0  0  0  0  0  0  0  0  0  0  0  0
   57.9980   32.7490   46.1170 C   0  0  0  0  0  0  0  0  0  0  0  0
   58.5790   33.4680   44.8910 C   0  0  0  0  0  0  0  0  0  0  0  0
   58.8020   34.8440   45.1670 O   0  0  0  0  0  0  0  0  0  0  0  0
   59.7960   34.9760   46.1640 C   0  0  0  0  0  0  0  0  0  0  0  0
   59.3040   34.3930   47.4930 C   0  0  0  0  0  0  0  0  0  0  0  0
   58.1440   32.3230   49.5530 C   0  0  0  0  0  0  0  0  0  0  0  0
   58.1300   31.3890   50.6060 C   0  0  0  0  0  0  0  0  0  0  0  0
   57.3630   31.6630   51.8780 C   0  0  0  0  0  0  0  0  0  0  0  0
   57.9800   31.0820   52.9730 F   0  0  0  0  0  0  0  0  0  0  0  0
   56.0830   31.1490   51.7610 F   0  0  0  0  0  0  0  0  0  0  0  0
   57.2830   33.0270   52.0990 F   0  0  0  0  0  0  0  0  0  0  0  0
   58.9030   30.2230   50.4980 C   0  0  0  0  0  0  0  0  0  0  0  0
   58.1760   27.6290   46.9110 C   0  0  0  0  0  0  0  0  0  0  0  0
   56.2470   23.3390   45.0090 N   0  0  0  0  0  0  0  0  0  0  0  0
   56.3639   20.6489   43.9612 H   0  0  0  0  0  0  0  0  0  0  0  0
   55.8454   21.8322   42.7131 H   0  0  0  0  0  0  0  0  0  0  0  0
   57.5293   21.2066   42.7131 H   0  0  0  0  0  0  0  0  0  0  0  0
   59.3195   22.6718   43.9853 H   0  0  0  0  0  0  0  0  0  0  0  0
   59.3210   24.7665   47.0923 H   0  0  0  0  0  0  0  0  0  0  0  0
   60.3577   24.3707   45.6798 H   0  0  0  0  0  0  0  0  0  0  0  0
   59.3757   25.8748   45.6798 H   0  0  0  0  0  0  0  0  0  0  0  0
   55.7445   24.5724   47.3720 H   0  0  0  0  0  0  0  0  0  0  0  0
   57.1969   25.6445   47.2022 H   0  0  0  0  0  0  0  0  0  0  0  0
   57.3780   28.9269   43.8472 H   0  0  0  0  0  0  0  0  0  0  0  0
   59.7146   29.7773   44.0462 H   0  0  0  0  0  0  0  0  0  0  0  0
   61.0534   29.2947   46.0970 H   0  0  0  0  0  0  0  0  0  0  0  0
   60.2509   30.7083   47.3922 H   0  0  0  0  0  0  0  0  0  0  0  0
   57.9665   31.6663   45.9254 H   0  0  0  0  0  0  0  0  0  0  0  0
   56.9801   33.1193   46.3088 H   0  0  0  0  0  0  0  0  0  0  0  0
   59.5342   32.9966   44.6165 H   0  0  0  0  0  0  0  0  0  0  0  0
   57.8586   33.3884   44.0635 H   0  0  0  0  0  0  0  0  0  0  0  0
   60.7014   34.4383   45.8459 H   0  0  0  0  0  0  0  0  0  0  0  0
   60.0189   36.0439   46.3049 H   0  0  0  0  0  0  0  0  0  0  0  0
   60.1281   34.3980   48.2216 H   0  0  0  0  0  0  0  0  0  0  0  0
   58.4713   35.0037   47.8720 H   0  0  0  0  0  0  0  0  0  0  0  0
   57.5719   33.2578   49.6471 H   0  0  0  0  0  0  0  0  0  0  0  0
   58.9074   29.4960   51.3235 H   0  0  0  0  0  0  0  0  0  0  0  0
   57.7364   27.0346   47.7255 H   0  0  0  0  0  0  0  0  0  0  0  0
  1  2  1  0
  2  3  1  0
  3  4  2  0
  4  5  1  0
  4  6  1  0
  6  7  1  0
  7  8  1  0
  8  9  2  0
  8 10  1  0
 10 11  1  0
 11 12  2  0
 12 13  1  0
 13 14  2  0
 14 15  1  0
 15 16  1  0
 16 17  1  0
 17 18  2  0
 17 19  1  0
 19 20  2  0
 20 21  1  0
 21 22  1  0
 22 23  1  0
 23 24  1  0
 24 25  1  0
 25 26  1  0
 26 27  1  0
 21 28  2  0
 28 29  1  0
 29 30  1  0
 30 31  1  0
 30 32  1  0
 30 33  1  0
 29 34  2  0
 15 35  2  0
  6 36  1  0
 36  2  2  0
 35 11  1  0
 34 19  1  0
 27 22  1  0
  1 37  1  0
  1 38  1  0
  1 39  1  0
  3 40  1  0
  5 41  1  0
  5 42  1  0
  5 43  1  0
  7 44  1  0
  7 45  1  0
 12 46  1  0
 13 47  1  0
 14 48  1  0
 20 49  1  0
 23 50  1  0
 23 51  1  0
 24 52  1  0
 24 53  1  0
 26 54  1  0
 26 55  1  0
 27 56  1  0
 27 57  1  0
 28 58  1  0
 34 59  1  0
 35 60  1  0
M  CHG  2  10  -1  16  -1
M  END
>  <UniqueID>  (47) 
43

>  <SMILES>  (47) 
Cc1cc(C)n(CC(=O)[N-]c2cccc([N-]C(=O)c3cc(N4CCOCC4)cc(C(F)(F)F)c3)c2)n1

>  <Energy>  (47) 
103.79176887094692

>  <Genealogy>  (47) 
Cc1cc(C)n(CC(=O)[N-]c2cccc([N-]C(=O)c3cc(N4CCOCC4)cc(C(F)(F)F)c3)c2)n1 (protonated)
Cc1cc(C)n(CC(=O)[N-]c2cccc([N-]C(=O)c3cc(N4CCOCC4)cc(C(F)(F)F)c3)c2)n1 (3D coordinates assigned)
Cc1cc(C)n(CC(=O)[N-]c2cccc([N-]C(=O)c3cc(N4CCOCC4)cc(C(F)(F)F)c3)c2)n1 (nonaromatic ring conformer: 103.79176887094692 kcal/mol)

>  <smiles>  (47) 
Cc1cc(C)n(CC(=O)Nc2cccc(NC(=O)c3cc(N4CCOCC4)cc(C(F)(F)F)c3)c2)n1

>  <score_type>  (47) 
oracle

>  <origin>  (47) 
adg

>  <m_score__min__energy>  (47) 
-12.220000000000001

>  <m_primary>  (47) 
energy

$$$$
47:0
     RDKit          3D

 38 40  0  0  0  0  0  0  0  0999 V2000
   55.7190   24.2650   44.7880 C   0  0  0  0  0  0  0  0  0  0  0  0
   54.8000   25.0750   45.6520 C   0  0  0  0  0  0  0  0  0  0  0  0
   53.6880   24.5880   45.9830 O   0  0  0  0  0  0  0  0  0  0  0  0
   55.1310   26.4030   46.0780 N   0  0  0  0  0  0  0  0  0  0  0  0
   56.4430   26.9800   46.0850 C   0  0  0  0  0  0  0  0  0  0  0  0
   57.4800   26.2910   46.7250 C   0  0  0  0  0  0  0  0  0  0  0  0
   58.7700   26.8260   46.7560 C   0  0  0  0  0  0  0  0  0  0  0  0
   59.0440   28.0390   46.1220 C   0  0  0  0  0  0  0  0  0  0  0  0
   58.0240   28.7230   45.4400 C   0  0  0  0  0  0  0  0  0  0  0  0
   56.7200   28.1930   45.4240 C   0  0  0  0  0  0  0  0  0  0  0  0
   55.7140   28.8640   44.7220 O   0  0  0  0  0  0  0  0  0  0  0  0
   55.8220   30.2530   44.4180 C   0  0  0  0  0  0  0  0  0  0  0  0
   57.2080   30.5730   43.8220 C   0  0  1  0  0  0  0  0  0  0  0  0
   57.4010   32.0890   43.5660 C   0  0  0  0  0  0  0  0  0  0  0  0
   57.9130   32.8620   44.7620 C   0  0  0  0  0  0  0  0  0  0  0  0
   59.0560   33.6730   44.6570 C   0  0  0  0  0  0  0  0  0  0  0  0
   59.5280   34.3760   45.7690 C   0  0  0  0  0  0  0  0  0  0  0  0
   58.8610   34.2830   46.9930 C   0  0  0  0  0  0  0  0  0  0  0  0
   57.7170   33.4890   47.1050 C   0  0  0  0  0  0  0  0  0  0  0  0
   57.2400   32.7850   45.9950 C   0  0  0  0  0  0  0  0  0  0  0  0
   58.3030   29.9550   44.6670 C   0  0  0  0  0  0  0  0  0  0  0  0
   59.4790   30.4060   44.6070 O   0  0  0  0  0  0  0  0  0  0  0  0
   56.3922   23.6716   45.4242 H   0  0  0  0  0  0  0  0  0  0  0  0
   55.1257   23.5907   44.1529 H   0  0  0  0  0  0  0  0  0  0  0  0
   56.3134   24.9383   44.1529 H   0  0  0  0  0  0  0  0  0  0  0  0
   57.2779   25.3227   47.2063 H   0  0  0  0  0  0  0  0  0  0  0  0
   59.5731   26.2892   47.2822 H   0  0  0  0  0  0  0  0  0  0  0  0
   60.0598   28.4598   46.1565 H   0  0  0  0  0  0  0  0  0  0  0  0
   55.0439   30.5250   43.6896 H   0  0  0  0  0  0  0  0  0  0  0  0
   55.6936   30.8297   45.3459 H   0  0  0  0  0  0  0  0  0  0  0  0
   57.2736   30.1093   42.8267 H   0  0  0  0  0  0  0  0  0  0  0  0
   58.1209   32.2106   42.7433 H   0  0  0  0  0  0  0  0  0  0  0  0
   56.4076   32.4975   43.3285 H   0  0  0  0  0  0  0  0  0  0  0  0
   59.5820   33.7549   43.6944 H   0  0  0  0  0  0  0  0  0  0  0  0
   60.4268   35.0040   45.6802 H   0  0  0  0  0  0  0  0  0  0  0  0
   59.2362   34.8344   47.8677 H   0  0  0  0  0  0  0  0  0  0  0  0
   57.1905   33.4175   48.0682 H   0  0  0  0  0  0  0  0  0  0  0  0
   56.3340   32.1679   46.0863 H   0  0  0  0  0  0  0  0  0  0  0  0
  1  2  1  0
  2  3  2  0
  2  4  1  0
  4  5  1  0
  5  6  2  0
  6  7  1  0
  7  8  2  0
  8  9  1  0
  9 10  2  0
 10 11  1  0
 11 12  1  0
 12 13  1  0
 13 14  1  0
 14 15  1  0
 15 16  2  0
 16 17  1  0
 17 18  2  0
 18 19  1  0
 19 20  2  0
 13 21  1  0
 21 22  2  0
 10  5  1  0
 20 15  1  0
 21  9  1  0
  1 23  1  0
  1 24  1  0
  1 25  1  0
  6 26  1  0
  7 27  1  0
  8 28  1  0
 12 29  1  0
 12 30  1  0
 13 31  1  6
 14 32  1  0
 14 33  1  0
 16 34  1  0
 17 35  1  0
 18 36  1  0
 19 37  1  0
 20 38  1  0
M  CHG  1   4  -1
M  END
>  <UniqueID>  (48) 
44

>  <SMILES>  (48) 
CC(=O)[N-]c1cccc2c1OC[C@@H](Cc1ccccc1)C2=O

>  <Energy>  (48) 
46.835114568266285

>  <Genealogy>  (48) 
CC(=O)[N-]c1cccc2c1OCC(Cc1ccccc1)C2=O (protonated)
CC(=O)[N-]c1cccc2c1OC[C@@H](Cc1ccccc1)C2=O (chirality)
CC(=O)[N-]c1cccc2c1OC[C@@H](Cc1ccccc1)C2=O (3D coordinates assigned)
CC(=O)[N-]c1cccc2c1OC[C@@H](Cc1ccccc1)C2=O (nonaromatic ring conformer: 46.835114568266285 kcal/mol)

>  <smiles>  (48) 
CC(=O)Nc1cccc2c1OCC(Cc1ccccc1)C2=O

>  <score_type>  (48) 
oracle

>  <origin>  (48) 
adg

>  <m_score__min__energy>  (48) 
-10.960000000000001

>  <m_primary>  (48) 
energy

$$$$
48:0
     RDKit          3D

 27 28  0  0  1  0  0  0  0  0999 V2000
   57.4580   28.5140   44.6380 C   0  0  0  0  0  0  0  0  0  0  0  0
   57.6230   29.5040   43.6000 N   0  0  0  0  0  0  0  0  0  0  0  0
   57.5890   30.8900   43.9160 C   0  0  0  0  0  0  0  0  0  0  0  0
   57.7780   32.0020   42.7330 S   0  0  0  0  0  0  0  0  0  0  0  0
   57.3900   31.3070   45.2630 N   0  0  0  0  0  0  0  0  0  0  0  0
   58.1560   32.2800   45.6570 C   0  0  0  0  0  0  0  0  0  0  0  0
   59.4590   32.0360   46.1100 C   0  0  0  0  0  0  0  0  0  0  0  0
   60.2460   33.0980   46.5220 C   0  0  0  0  0  0  0  0  0  0  0  0
   61.5810   32.9290   46.9950 N   0  0  0  0  0  0  0  0  0  0  0  0
   62.5560   33.8380   46.7350 C   0  0  0  0  0  0  0  0  0  0  0  0
   63.7480   33.4110   47.3200 C   0  0  0  0  0  0  0  0  0  0  0  0
   63.4370   32.2030   47.9420 C   0  0  0  0  0  0  0  0  0  0  0  0
   62.0940   31.9250   47.7290 C   0  0  0  0  0  0  0  0  0  0  0  0
   59.7690   34.3530   46.4880 N   0  0  0  0  0  0  0  0  0  0  0  0
   58.5190   34.5970   46.0550 C   0  0  0  0  0  0  0  0  0  0  0  0
   57.7440   33.5520   45.6500 N   0  0  0  0  0  0  0  0  0  0  0  0
   57.5387   28.9980   45.6225 H   0  0  0  0  0  0  0  0  0  0  0  0
   56.4689   28.0425   44.5412 H   0  0  0  0  0  0  0  0  0  0  0  0
   58.2407   27.7472   44.5412 H   0  0  0  0  0  0  0  0  0  0  0  0
   57.7690   29.1980   42.6140 H   0  0  0  0  0  0  0  0  0  0  0  0
   59.8534   31.0095   46.1381 H   0  0  0  0  0  0  0  0  0  0  0  0
   62.4262   34.7638   46.1553 H   0  0  0  0  0  0  0  0  0  0  0  0
   64.7237   33.9184   47.2957 H   0  0  0  0  0  0  0  0  0  0  0  0
   64.1398   31.5740   48.5081 H   0  0  0  0  0  0  0  0  0  0  0  0
   61.5477   31.0430   48.0944 H   0  0  0  0  0  0  0  0  0  0  0  0
   60.3360   35.1890   46.7920 H   0  0  0  0  0  0  0  0  0  0  0  0
   58.1283   35.6249   46.0283 H   0  0  0  0  0  0  0  0  0  0  0  0
  1  2  1  0
  2  3  1  0
  3  4  2  0
  3  5  1  0
  5  6  2  0
  6  7  1  0
  7  8  2  0
  8  9  1  0
  9 10  1  0
 10 11  2  0
 11 12  1  0
 12 13  2  0
  8 14  1  0
 14 15  1  0
 15 16  2  0
 16  6  1  0
 13  9  1  0
  1 17  1  0
  1 18  1  0
  1 19  1  0
  2 20  1  0
  7 21  1  0
 10 22  1  0
 11 23  1  0
 12 24  1  0
 13 25  1  0
 14 26  1  0
 15 27  1  0
M  END
>  <smiles>  (49) 
CNC(=S)N=c1cc(-n2cccc2)[nH]cn1

>  <score_type>  (49) 
oracle

>  <origin>  (49) 
adg

>  <m_score__min__energy>  (49) 
-5.7699999999999996

>  <m_primary>  (49) 
energy

$$$$
49:0
     RDKit          3D

 54 56  0  0  0  0  0  0  0  0999 V2000
   57.4415   31.4678   41.1502 H   0  0  0  0  0  0  0  0  0  0  0  0
   57.3880   31.5710   42.2440 C   0  0  0  0  0  0  0  0  0  0  0  0
   57.9210   32.7020   42.8650 C   0  0  0  0  0  0  0  0  0  0  0  0
   58.4020   33.4853   42.2608 H   0  0  0  0  0  0  0  0  0  0  0  0
   57.8440   32.8400   44.2540 C   0  0  0  0  0  0  0  0  0  0  0  0
   58.4890   34.2750   45.0300 Cl  0  0  0  0  0  0  0  0  0  0  0  0
   57.2440   31.8370   45.0250 C   0  0  0  0  0  0  0  0  0  0  0  0
   57.1765   31.9513   46.1170 H   0  0  0  0  0  0  0  0  0  0  0  0
   56.7270   30.6830   44.4070 C   0  0  0  0  0  0  0  0  0  0  0  0
   56.0820   29.6410   45.1560 N   0  0  0  0  0  0  0  0  0  0  0  0
   56.6500   28.3790   45.5250 C   0  0  0  0  0  0  0  0  0  0  0  0
   55.9190   27.3550   45.6210 O   0  0  0  0  0  0  0  0  0  0  0  0
   58.0490   28.3170   45.8350 N   0  0  0  0  0  0  0  0  0  0  0  0
   58.6920   29.1250   46.6250 C   0  0  0  0  0  0  0  0  0  0  0  0
   58.5290   29.1890   47.9600 N   0  0  0  0  0  0  0  0  0  0  0  0
   59.3530   30.1240   48.4110 N   0  0  0  0  0  0  0  0  0  0  0  0
   59.5000   30.4170   49.8370 C   0  0  0  0  0  0  0  0  0  0  0  0
   59.5987   31.5036   49.9765 H   0  0  0  0  0  0  0  0  0  0  0  0
   58.6125   30.0489   50.3726 H   0  0  0  0  0  0  0  0  0  0  0  0
   60.7470   29.7190   50.3950 C   0  0  0  0  0  0  0  0  0  0  0  0
   61.6167   30.0127   49.7888 H   0  0  0  0  0  0  0  0  0  0  0  0
   60.8623   30.0288   51.4442 H   0  0  0  0  0  0  0  0  0  0  0  0
   60.6240   28.1870   50.3710 C   0  0  0  0  0  0  0  0  0  0  0  0
   61.5735   27.7496   50.7131 H   0  0  0  0  0  0  0  0  0  0  0  0
   59.7925   27.9036   51.0330 H   0  0  0  0  0  0  0  0  0  0  0  0
   60.3260   27.6790   49.0300 N   0  0  0  0  0  0  0  0  0  0  0  0
   59.3080   27.4450   48.9750 H   0  0  0  0  0  0  0  0  0  0  0  0
   60.8750   26.8110   48.8390 H   0  0  0  0  0  0  0  0  0  0  0  0
   60.5430   28.4060   48.3090 H   0  0  0  0  0  0  0  0  0  0  0  0
   60.0400   30.6580   47.3700 C   0  0  0  0  0  0  0  0  0  0  0  0
   61.0740   31.7140   47.4480 C   0  0  0  0  0  0  0  0  0  0  0  0
   60.9550   32.8960   46.7000 C   0  0  0  0  0  0  0  0  0  0  0  0
   60.0722   33.0535   46.0630 H   0  0  0  0  0  0  0  0  0  0  0  0
   61.9510   33.8730   46.7600 C   0  0  0  0  0  0  0  0  0  0  0  0
   61.8462   34.7995   46.1764 H   0  0  0  0  0  0  0  0  0  0  0  0
   63.0800   33.6770   47.5590 C   0  0  0  0  0  0  0  0  0  0  0  0
   63.8631   34.4484   47.6007 H   0  0  0  0  0  0  0  0  0  0  0  0
   63.2180   32.4980   48.3090 C   0  0  0  0  0  0  0  0  0  0  0  0
   64.4550   32.2650   49.1350 C   0  0  0  0  0  0  0  0  0  0  0  0
   65.3423   32.3522   48.4908 H   0  0  0  0  0  0  0  0  0  0  0  0
   64.4043   31.2585   49.5760 H   0  0  0  0  0  0  0  0  0  0  0  0
   64.5480   33.2970   50.2640 C   0  0  0  0  0  0  0  0  0  0  0  0
   63.9351   32.9576   51.1120 H   0  0  0  0  0  0  0  0  0  0  0  0
   64.1832   34.2629   49.8846 H   0  0  0  0  0  0  0  0  0  0  0  0
   65.9900   33.4740   50.7310 C   0  0  0  0  0  0  0  0  0  0  0  0
   66.0215   33.4779   51.8305 H   0  0  0  0  0  0  0  0  0  0  0  0
   66.6034   32.6444   50.3495 H   0  0  0  0  0  0  0  0  0  0  0  0
   66.3846   34.4273   50.3495 H   0  0  0  0  0  0  0  0  0  0  0  0
   62.2190   31.5120   48.2350 C   0  0  0  0  0  0  0  0  0  0  0  0
   62.3352   30.5744   48.7983 H   0  0  0  0  0  0  0  0  0  0  0  0
   59.6450   30.0280   46.2050 C   0  0  0  0  0  0  0  0  0  0  0  0
   60.0067   30.2057   45.1815 H   0  0  0  0  0  0  0  0  0  0  0  0
   56.7860   30.5690   43.0120 C   0  0  0  0  0  0  0  0  0  0  0  0
   56.3560   29.6856   42.5174 H   0  0  0  0  0  0  0  0  0  0  0  0
  1  2  1  0
  2  3  2  0
  3  4  1  0
  3  5  1  0
  5  6  1  0
  5  7  2  0
  7  8  1  0
  7  9  1  0
  9 10  1  0
 10 11  1  0
 11 12  2  0
 11 13  1  0
 13 14  2  0
 14 15  1  0
 15 16  1  0
 16 17  1  0
 17 18  1  0
 17 19  1  0
 17 20  1  0
 20 21  1  0
 20 22  1  0
 20 23  1  0
 23 24  1  0
 23 25  1  0
 23 26  1  0
 26 27  1  0
 26 28  1  0
 26 29  1  0
 16 30  1  0
 30 31  1  0
 31 32  2  0
 32 33  1  0
 32 34  1  0
 34 35  1  0
 34 36  2  0
 36 37  1  0
 36 38  1  0
 38 39  1  0
 39 40  1  0
 39 41  1  0
 39 42  1  0
 42 43  1  0
 42 44  1  0
 42 45  1  0
 45 46  1  0
 45 47  1  0
 45 48  1  0
 38 49  2  0
 49 50  1  0
 30 51  2  0
 51 52  1  0
  9 53  2  0
 53 54  1  0
 53  2  1  0
 51 14  1  0
 49 31  1  0
M  CHG  3  10  -1  15  -1  26   1
M  END
>  <UniqueID>  (50) 
45

>  <SMILES>  (50) 
CCCc1cccc(-c2c/c(=N/C(=O)[N-]c3cccc(Cl)c3)[n-]n2CCC[NH3+])c1

>  <Energy>  (50) 
86.20665493386986

>  <Genealogy>  (50) 
CCCc1cccc(-c2cc(=NC(=O)[N-]c3cccc(Cl)c3)[n-]n2CCC[NH3+])c1 (protonated)
CCCc1cccc(-c2c/c(=N/C(=O)[N-]c3cccc(Cl)c3)[n-]n2CCC[NH3+])c1 (cis-trans isomerization)
CCCc1cccc(-c2c/c(=N/C(=O)[N-]c3cccc(Cl)c3)[n-]n2CCC[NH3+])c1 (3D coordinates assigned)
CCCc1cccc(-c2c/c(=N/C(=O)[N-]c3cccc(Cl)c3)[n-]n2CCC[NH3+])c1 (optimized conformer: 86.20665493386986 kcal/mol)

>  <smiles>  (50) 
CCCc1cccc(-c2cc(=NC(=O)Nc3cccc(Cl)c3)[nH]n2CCCN)c1

>  <score_type>  (50) 
oracle

>  <origin>  (50) 
adg

>  <m_score__min__energy>  (50) 
-9.6899999999999995

>  <m_primary>  (50) 
energy

$$$$
50:0
     RDKit          3D

 45 47  0  0  0  0  0  0  0  0999 V2000
   59.2700   34.8290   45.4460 C   0  0  0  0  0  0  0  0  0  0  0  0
   58.7260   33.4370   45.3150 C   0  0  0  0  0  0  0  0  0  0  0  0
   57.9170   33.1060   44.2190 C   0  0  0  0  0  0  0  0  0  0  0  0
   57.3860   31.8190   44.0980 C   0  0  0  0  0  0  0  0  0  0  0  0
   57.6510   30.8510   45.0770 C   0  0  0  0  0  0  0  0  0  0  0  0
   56.9020   29.2610   44.9600 S   0  0  0  0  0  0  0  0  0  0  0  0
   55.4160   29.4010   44.7880 O   0  0  0  0  0  0  0  0  0  0  0  0
   57.4580   28.5260   43.7730 O   0  0  0  0  0  0  0  0  0  0  0  0
   57.2410   28.3570   46.3960 N   0  0  0  0  0  0  0  0  0  0  0  0
   58.0000   27.1490   46.3230 C   0  0  0  0  0  0  0  0  0  0  0  0
   59.3970   27.2310   46.2540 C   0  0  0  0  0  0  0  0  0  0  0  0
   60.1640   26.0750   46.0930 C   0  0  0  0  0  0  0  0  0  0  0  0
   59.5390   24.8310   45.9910 C   0  0  0  0  0  0  0  0  0  0  0  0
   58.1470   24.7380   46.0560 C   0  0  0  0  0  0  0  0  0  0  0  0
   57.3610   25.8910   46.2330 C   0  0  0  0  0  0  0  0  0  0  0  0
   55.8870   25.7620   46.2920 C   0  0  0  0  0  0  0  0  0  0  0  0
   55.1480   26.7250   45.9470 O   0  0  0  0  0  0  0  0  0  0  0  0
   55.2990   24.5340   46.7310 N   0  0  0  0  0  0  0  0  0  0  0  0
   54.5070   23.6760   45.8590 C   0  0  0  0  0  0  0  0  0  0  0  0
   55.4140   22.9500   44.9070 C   0  0  0  0  0  0  0  0  0  0  0  0
   55.7020   23.4890   43.6400 C   0  0  0  0  0  0  0  0  0  0  0  0
   56.5510   22.8100   42.7610 C   0  0  0  0  0  0  0  0  0  0  0  0
   57.1120   21.5860   43.1350 C   0  0  0  0  0  0  0  0  0  0  0  0
   56.8210   21.0370   44.3870 C   0  0  0  0  0  0  0  0  0  0  0  0
   55.9720   21.7130   45.2680 C   0  0  0  0  0  0  0  0  0  0  0  0
   58.4520   31.1830   46.1770 C   0  0  0  0  0  0  0  0  0  0  0  0
   58.9910   32.4670   46.2950 C   0  0  0  0  0  0  0  0  0  0  0  0
   59.3700   35.0849   46.5111 H   0  0  0  0  0  0  0  0  0  0  0  0
   60.2560   34.8845   44.9615 H   0  0  0  0  0  0  0  0  0  0  0  0
   58.5829   35.5383   44.9615 H   0  0  0  0  0  0  0  0  0  0  0  0
   57.6992   33.8627   43.4509 H   0  0  0  0  0  0  0  0  0  0  0  0
   56.7579   31.5645   43.2316 H   0  0  0  0  0  0  0  0  0  0  0  0
   59.8921   28.2106   46.3270 H   0  0  0  0  0  0  0  0  0  0  0  0
   61.2608   26.1448   46.0466 H   0  0  0  0  0  0  0  0  0  0  0  0
   60.1442   23.9220   45.8591 H   0  0  0  0  0  0  0  0  0  0  0  0
   57.6613   23.7550   45.9680 H   0  0  0  0  0  0  0  0  0  0  0  0
   53.9549   22.9450   46.4680 H   0  0  0  0  0  0  0  0  0  0  0  0
   53.7962   24.2918   45.2884 H   0  0  0  0  0  0  0  0  0  0  0  0
   55.2572   24.4491   43.3395 H   0  0  0  0  0  0  0  0  0  0  0  0
   56.7776   23.2396   41.7741 H   0  0  0  0  0  0  0  0  0  0  0  0
   57.7827   21.0545   42.4439 H   0  0  0  0  0  0  0  0  0  0  0  0
   57.2606   20.0719   44.6794 H   0  0  0  0  0  0  0  0  0  0  0  0
   55.7398   21.2736   46.2493 H   0  0  0  0  0  0  0  0  0  0  0  0
   58.6578   30.4296   46.9516 H   0  0  0  0  0  0  0  0  0  0  0  0
   59.6247   32.7185   47.1582 H   0  0  0  0  0  0  0  0  0  0  0  0
  1  2  1  0
  2  3  2  0
  3  4  1  0
  4  5  2  0
  5  6  1  0
  6  7  2  0
  6  8  2  0
  6  9  1  0
  9 10  1  0
 10 11  2  0
 11 12  1  0
 12 13  2  0
 13 14  1  0
 14 15  2  0
 15 16  1  0
 16 17  2  0
 16 18  1  0
 18 19  1  0
 19 20  1  0
 20 21  2  0
 21 22  1  0
 22 23  2  0
 23 24  1  0
 24 25  2  0
  5 26  1  0
 26 27  2  0
 27  2  1  0
 15 10  1  0
 25 20  1  0
  1 28  1  0
  1 29  1  0
  1 30  1  0
  3 31  1  0
  4 32  1  0
 11 33  1  0
 12 34  1  0
 13 35  1  0
 14 36  1  0
 19 37  1  0
 19 38  1  0
 21 39  1  0
 22 40  1  0
 23 41  1  0
 24 42  1  0
 25 43  1  0
 26 44  1  0
 27 45  1  0
M  CHG  2   9  -1  18  -1
M  END
>  <UniqueID>  (51) 
46

>  <SMILES>  (51) 
Cc1ccc(S(=O)(=O)[N-]c2ccccc2C(=O)[N-]Cc2ccccc2)cc1

>  <Energy>  (51) 
52.06723959775535

>  <Genealogy>  (51) 
Cc1ccc(S(=O)(=O)[N-]c2ccccc2C(=O)[N-]Cc2ccccc2)cc1 (protonated)
Cc1ccc(S(=O)(=O)[N-]c2ccccc2C(=O)[N-]Cc2ccccc2)cc1 (3D coordinates assigned)
Cc1ccc(S(=O)(=O)[N-]c2ccccc2C(=O)[N-]Cc2ccccc2)cc1 (optimized conformer: 52.06723959775535 kcal/mol)

>  <smiles>  (51) 
Cc1ccc(S(=O)(=O)Nc2ccccc2C(=O)NCc2ccccc2)cc1

>  <score_type>  (51) 
oracle

>  <origin>  (51) 
adg

>  <m_score__min__energy>  (51) 
-12.99

>  <m_primary>  (51) 
energy

$$$$
51:0
     RDKit          3D

 46 49  0  0  0  0  0  0  0  0999 V2000
   57.0290   33.7110   46.3670 O   0  0  0  0  0  0  0  0  0  0  0  0
   57.7490   32.7400   46.0210 C   0  0  0  0  0  0  0  0  0  0  0  0
   57.1740   31.6680   45.2620 N   0  0  0  0  0  0  0  0  0  0  0  0
   57.9640   30.9170   44.2900 C   0  0  0  0  0  0  0  0  0  0  0  0
   58.4000   29.5920   44.8640 C   0  0  0  0  0  0  0  0  0  0  0  0
   59.7670   29.2610   44.9170 C   0  0  0  0  0  0  0  0  0  0  0  0
   60.1720   28.0270   45.4340 C   0  0  0  0  0  0  0  0  0  0  0  0
   59.2180   27.1140   45.8960 C   0  0  0  0  0  0  0  0  0  0  0  0
   57.8580   27.4280   45.8270 C   0  0  0  0  0  0  0  0  0  0  0  0
   57.4460   28.6560   45.3040 C   0  0  0  0  0  0  0  0  0  0  0  0
   56.1170   28.9360   45.2360 F   0  0  0  0  0  0  0  0  0  0  0  0
   59.1710   32.7230   46.3930 C   0  0  0  0  0  0  0  0  0  0  0  0
   60.0880   33.6900   45.9930 C   0  0  0  0  0  0  0  0  0  0  0  0
   61.2940   33.2800   46.5160 C   0  0  0  0  0  0  0  0  0  0  0  0
   62.5580   33.8540   46.4110 C   0  0  0  0  0  0  0  0  0  0  0  0
   63.6270   33.2070   47.0560 C   0  0  0  0  0  0  0  0  0  0  0  0
   63.4090   32.0170   47.7830 C   0  0  0  0  0  0  0  0  0  0  0  0
   62.1200   31.4590   47.8700 C   0  0  0  0  0  0  0  0  0  0  0  0
   61.0700   32.1240   47.2260 C   0  0  0  0  0  0  0  0  0  0  0  0
   59.7680   31.7700   47.1630 N   0  0  0  0  0  0  0  0  0  0  0  0
   59.1010   30.6600   47.8590 C   0  0  0  0  0  0  0  0  0  0  0  0
   58.8500   31.0210   49.3000 C   0  0  0  0  0  0  0  0  0  0  0  0
   58.5480   30.0210   50.2430 C   0  0  0  0  0  0  0  0  0  0  0  0
   58.2540   30.3650   51.5630 C   0  0  0  0  0  0  0  0  0  0  0  0
   58.2580   31.7050   51.9540 C   0  0  0  0  0  0  0  0  0  0  0  0
   57.9750   32.0360   53.2420 F   0  0  0  0  0  0  0  0  0  0  0  0
   58.5640   32.7080   51.0260 C   0  0  0  0  0  0  0  0  0  0  0  0
   58.8560   32.3670   49.7030 C   0  0  0  0  0  0  0  0  0  0  0  0
   56.1310   31.6000   45.2340 H   0  0  0  0  0  0  0  0  0  0  0  0
   57.3552   30.7381   43.3915 H   0  0  0  0  0  0  0  0  0  0  0  0
   58.8594   31.5028   44.0351 H   0  0  0  0  0  0  0  0  0  0  0  0
   60.5188   29.9754   44.5505 H   0  0  0  0  0  0  0  0  0  0  0  0
   61.2415   27.7737   45.4776 H   0  0  0  0  0  0  0  0  0  0  0  0
   59.5386   26.1483   46.3139 H   0  0  0  0  0  0  0  0  0  0  0  0
   57.1097   26.7059   46.1856 H   0  0  0  0  0  0  0  0  0  0  0  0
   59.8918   34.5883   45.3892 H   0  0  0  0  0  0  0  0  0  0  0  0
   62.7152   34.7825   45.8425 H   0  0  0  0  0  0  0  0  0  0  0  0
   64.6400   33.6312   46.9935 H   0  0  0  0  0  0  0  0  0  0  0  0
   64.2531   31.5219   48.2854 H   0  0  0  0  0  0  0  0  0  0  0  0
   61.9428   30.5276   48.4277 H   0  0  0  0  0  0  0  0  0  0  0  0
   58.1411   30.4471   47.3658 H   0  0  0  0  0  0  0  0  0  0  0  0
   59.7497   29.7725   47.8205 H   0  0  0  0  0  0  0  0  0  0  0  0
   58.5437   28.9640   49.9383 H   0  0  0  0  0  0  0  0  0  0  0  0
   58.0189   29.5794   52.2962 H   0  0  0  0  0  0  0  0  0  0  0  0
   58.5745   33.7627   51.3382 H   0  0  0  0  0  0  0  0  0  0  0  0
   59.0917   33.1559   48.9735 H   0  0  0  0  0  0  0  0  0  0  0  0
  1  2  2  0
  2  3  1  0
  3  4  1  0
  4  5  1  0
  5  6  2  0
  6  7  1  0
  7  8  2  0
  8  9  1  0
  9 10  2  0
 10 11  1  0
  2 12  1  0
 12 13  2  0
 13 14  1  0
 14 15  2  0
 15 16  1  0
 16 17  2  0
 17 18  1  0
 18 19  2  0
 19 20  1  0
 20 21  1  0
 21 22  1  0
 22 23  2  0
 23 24  1  0
 24 25  2  0
 25 26  1  0
 25 27  1  0
 27 28  2  0
 10  5  1  0
 20 12  1  0
 28 22  1  0
 19 14  1  0
  3 29  1  0
  4 30  1  0
  4 31  1  0
  6 32  1  0
  7 33  1  0
  8 34  1  0
  9 35  1  0
 13 36  1  0
 15 37  1  0
 16 38  1  0
 17 39  1  0
 18 40  1  0
 21 41  1  0
 21 42  1  0
 23 43  1  0
 24 44  1  0
 27 45  1  0
 28 46  1  0
M  END
>  <UniqueID>  (52) 
47

>  <SMILES>  (52) 
O=C(NCc1ccccc1F)c1cc2ccccc2n1Cc1ccc(F)cc1

>  <Energy>  (52) 
87.81705659082299

>  <Genealogy>  (52) 
O=C(NCc1ccccc1F)c1cc2ccccc2n1Cc1ccc(F)cc1 (3D coordinates assigned)
O=C(NCc1ccccc1F)c1cc2ccccc2n1Cc1ccc(F)cc1 (optimized conformer: 87.81705659082299 kcal/mol)

>  <smiles>  (52) 
O=C(NCc1ccccc1F)c1cc2ccccc2n1Cc1ccc(F)cc1

>  <score_type>  (52) 
oracle

>  <origin>  (52) 
adg

>  <m_score__min__energy>  (52) 
-8.0099999999999998

>  <m_primary>  (52) 
energy

$$$$
52:0
     RDKit          3D

 40 42  0  0  0  0  0  0  0  0999 V2000
   65.1594   33.5892   48.2308 H   0  0  0  0  0  0  0  0  0  0  0  0
   64.1440   33.2190   48.0260 C   0  0  0  0  0  0  0  0  0  0  0  0
   63.3830   33.8010   47.0130 C   0  0  0  0  0  0  0  0  0  0  0  0
   63.8013   34.6280   46.4205 H   0  0  0  0  0  0  0  0  0  0  0  0
   62.0920   33.3390   46.7470 C   0  0  0  0  0  0  0  0  0  0  0  0
   61.5019   33.8017   45.9422 H   0  0  0  0  0  0  0  0  0  0  0  0
   61.5390   32.2840   47.5020 C   0  0  0  0  0  0  0  0  0  0  0  0
   60.2340   31.7880   47.2500 C   0  0  0  0  0  0  0  0  0  0  0  0
   59.3940   32.3830   46.2450 N   0  0  0  0  0  0  0  0  0  0  0  0
   59.6940   32.3260   45.2470 H   0  0  0  0  0  0  0  0  0  0  0  0
   58.1280   32.9950   46.5390 C   0  0  0  0  0  0  0  0  0  0  0  0
   57.6910   33.0320   47.7210 O   0  0  0  0  0  0  0  0  0  0  0  0
   57.2900   33.5600   45.4310 C   0  0  0  0  0  0  0  0  0  0  0  0
   57.4323   34.6501   45.3929 H   0  0  0  0  0  0  0  0  0  0  0  0
   56.2363   33.3146   45.6296 H   0  0  0  0  0  0  0  0  0  0  0  0
   57.7600   32.8400   43.8190 S   0  0  0  0  0  0  0  0  0  0  0  0
   57.2550   31.1720   44.2340 C   0  0  0  0  0  0  0  0  0  0  0  0
   55.9860   30.8360   44.5520 N   0  0  0  0  0  0  0  0  0  0  0  0
   55.8380   29.5370   44.8090 N   0  0  0  0  0  0  0  0  0  0  0  0
   56.9930   28.8450   44.6950 C   0  0  0  0  0  0  0  0  0  0  0  0
   57.1080   27.5660   44.9010 N   0  0  0  0  0  0  0  0  0  0  0  0
   56.4860   26.8210   45.9610 C   0  0  0  0  0  0  0  0  0  0  0  0
   55.2320   26.7100   46.0300 O   0  0  0  0  0  0  0  0  0  0  0  0
   57.3410   26.1660   47.0050 C   0  0  1  0  0  0  0  0  0  0  0  0
   56.7359   26.0255   47.9128 H   0  0  0  0  0  0  0  0  0  0  0  0
   57.9520   24.4390   46.3650 Br  0  0  0  0  0  0  0  0  0  0  0  0
   58.5380   27.0460   47.3610 C   0  0  0  0  0  0  0  0  0  0  0  0
   58.6306   27.1141   48.4550 H   0  0  0  0  0  0  0  0  0  0  0  0
   59.4546   26.6051   46.9422 H   0  0  0  0  0  0  0  0  0  0  0  0
   58.3907   28.0524   46.9422 H   0  0  0  0  0  0  0  0  0  0  0  0
   58.2800   29.8350   44.2560 S   0  0  0  0  0  0  0  0  0  0  0  0
   59.7370   30.7330   48.0340 C   0  0  0  0  0  0  0  0  0  0  0  0
   58.7195   30.3552   47.8549 H   0  0  0  0  0  0  0  0  0  0  0  0
   60.5190   30.1590   49.0370 C   0  0  0  0  0  0  0  0  0  0  0  0
   60.1177   29.3279   49.6356 H   0  0  0  0  0  0  0  0  0  0  0  0
   61.8050   30.6330   49.2840 C   0  0  0  0  0  0  0  0  0  0  0  0
   62.4156   30.1743   50.0756 H   0  0  0  0  0  0  0  0  0  0  0  0
   62.3240   31.6930   48.5270 C   0  0  0  0  0  0  0  0  0  0  0  0
   63.6210   32.1680   48.7810 C   0  0  0  0  0  0  0  0  0  0  0  0
   64.2265   31.7104   49.5773 H   0  0  0  0  0  0  0  0  0  0  0  0
  1  2  1  0
  2  3  2  0
  3  4  1  0
  3  5  1  0
  5  6  1  0
  5  7  2  0
  7  8  1  0
  8  9  1  0
  9 10  1  0
  9 11  1  0
 11 12  2  0
 11 13  1  0
 13 14  1  0
 13 15  1  0
 13 16  1  0
 16 17  1  0
 17 18  2  0
 18 19  1  0
 19 20  1  0
 20 21  2  0
 21 22  1  0
 22 23  2  0
 22 24  1  0
 24 25  1  1
 24 26  1  0
 24 27  1  0
 27 28  1  0
 27 29  1  0
 27 30  1  0
 20 31  1  0
  8 32  2  0
 32 33  1  0
 32 34  1  0
 34 35  1  0
 34 36  2  0
 36 37  1  0
 36 38  1  0
 38 39  2  0
 39 40  1  0
 39  2  1  0
 38  7  1  0
 31 17  1  0
M  CHG  1  19  -1
M  END
>  <UniqueID>  (53) 
48

>  <SMILES>  (53) 
C[C@H](Br)C(=O)/N=c1\[n-]nc(SCC(=O)Nc2cccc3ccccc23)s1

>  <Energy>  (53) 
75.83100883016606

>  <Genealogy>  (53) 
CC(Br)C(=O)N=c1[n-]nc(SCC(=O)Nc2cccc3ccccc23)s1 (protonated)
C[C@H](Br)C(=O)N=c1[n-]nc(SCC(=O)Nc2cccc3ccccc23)s1 (chirality)
C[C@H](Br)C(=O)/N=c1\[n-]nc(SCC(=O)Nc2cccc3ccccc23)s1 (cis-trans isomerization)
C[C@H](Br)C(=O)/N=c1\[n-]nc(SCC(=O)Nc2cccc3ccccc23)s1 (3D coordinates assigned)
C[C@H](Br)C(=O)/N=c1\[n-]nc(SCC(=O)Nc2cccc3ccccc23)s1 (optimized conformer: 75.83100883016606 kcal/mol)

>  <smiles>  (53) 
CC(Br)C(=O)N=c1[nH]nc(SCC(=O)Nc2cccc3ccccc23)s1

>  <score_type>  (53) 
oracle

>  <origin>  (53) 
adg

>  <m_score__min__energy>  (53) 
-11.65

>  <m_primary>  (53) 
energy

$$$$
53:0
     RDKit          3D

 54 57  0  0  0  0  0  0  0  0999 V2000
   60.8010   28.4950   44.8990 C   0  0  0  0  0  0  0  0  0  0  0  0
   60.4180   28.5420   46.3080 N   0  0  0  0  0  0  0  0  0  0  0  0
   60.4090   29.6490   47.0760 C   0  0  0  0  0  0  0  0  0  0  0  0
   59.9760   29.3160   48.3470 C   0  0  0  0  0  0  0  0  0  0  0  0
   59.7540   30.2020   49.4560 N   0  0  0  0  0  0  0  0  0  0  0  0
   59.3540   31.5770   49.3260 C   0  0  0  0  0  0  0  0  0  0  0  0
   59.4420   32.1610   48.2110 O   0  0  0  0  0  0  0  0  0  0  0  0
   58.8690   32.3260   50.5060 C   0  0  0  0  0  0  0  0  0  0  0  0
   59.4150   33.5720   50.8560 C   0  0  0  0  0  0  0  0  0  0  0  0
   58.9390   34.2310   51.9450 N   0  0  0  0  0  0  0  0  0  0  0  0
   57.9410   33.7080   52.7050 C   0  0  0  0  0  0  0  0  0  0  0  0
   57.3930   32.4720   52.3620 C   0  0  0  0  0  0  0  0  0  0  0  0
   57.8680   31.8120   51.2720 N   0  0  0  0  0  0  0  0  0  0  0  0
   59.7010   27.9640   48.3540 C   0  0  0  0  0  0  0  0  0  0  0  0
   59.9880   27.5120   47.0770 C   0  0  0  0  0  0  0  0  0  0  0  0
   59.8220   26.1180   46.6070 C   0  0  0  0  0  0  0  0  0  0  0  0
   60.7800   25.5440   46.0250 O   0  0  0  0  0  0  0  0  0  0  0  0
   58.6080   25.3810   46.8170 N   0  0  0  0  0  0  0  0  0  0  0  0
   57.8960   24.6110   45.8350 C   0  0  0  0  0  0  0  0  0  0  0  0
   58.4890   23.4250   45.3710 C   0  0  0  0  0  0  0  0  0  0  0  0
   59.7530   23.0550   45.8160 O   0  0  0  0  0  0  0  0  0  0  0  0
   57.8080   22.5970   44.4750 C   0  0  0  0  0  0  0  0  0  0  0  0
   56.5330   22.9430   44.0320 C   0  0  0  0  0  0  0  0  0  0  0  0
   55.9420   24.1330   44.4600 C   0  0  0  0  0  0  0  0  0  0  0  0
   56.6190   24.9940   45.3410 C   0  0  0  0  0  0  0  0  0  0  0  0
   55.9920   26.2890   45.6820 C   0  0  0  0  0  0  0  0  0  0  0  0
   54.7750   26.3390   46.0070 O   0  0  0  0  0  0  0  0  0  0  0  0
   56.7790   27.4860   45.6580 N   0  0  0  0  0  0  0  0  0  0  0  0
   57.4500   27.9920   44.4670 C   0  0  0  0  0  0  0  0  0  0  0  0
   57.4950   29.4950   44.4870 C   0  0  0  0  0  0  0  0  0  0  0  0
   57.7330   30.1880   45.6860 C   0  0  0  0  0  0  0  0  0  0  0  0
   57.7940   31.5850   45.6910 C   0  0  0  0  0  0  0  0  0  0  0  0
   57.6190   32.2980   44.5020 C   0  0  0  0  0  0  0  0  0  0  0  0
   57.3850   31.6150   43.3050 C   0  0  0  0  0  0  0  0  0  0  0  0
   57.3250   30.2190   43.2950 C   0  0  0  0  0  0  0  0  0  0  0  0
   61.8899   28.3614   44.8193 H   0  0  0  0  0  0  0  0  0  0  0  0
   60.2913   27.6527   44.4084 H   0  0  0  0  0  0  0  0  0  0  0  0
   60.5101   29.4356   44.4084 H   0  0  0  0  0  0  0  0  0  0  0  0
   60.6996   30.6570   46.7451 H   0  0  0  0  0  0  0  0  0  0  0  0
   59.9320   29.8210   50.4120 H   0  0  0  0  0  0  0  0  0  0  0  0
   60.2228   34.0115   50.2524 H   0  0  0  0  0  0  0  0  0  0  0  0
   57.5684   34.2550   53.5836 H   0  0  0  0  0  0  0  0  0  0  0  0
   56.5847   32.0355   52.9671 H   0  0  0  0  0  0  0  0  0  0  0  0
   59.3299   27.3675   49.2004 H   0  0  0  0  0  0  0  0  0  0  0  0
   58.2797   21.6695   44.1183 H   0  0  0  0  0  0  0  0  0  0  0  0
   55.9913   22.2773   43.3439 H   0  0  0  0  0  0  0  0  0  0  0  0
   54.9359   24.3998   44.1041 H   0  0  0  0  0  0  0  0  0  0  0  0
   58.4771   27.5994   44.4357 H   0  0  0  0  0  0  0  0  0  0  0  0
   56.8918   27.6644   43.5776 H   0  0  0  0  0  0  0  0  0  0  0  0
   57.8718   29.6298   46.6236 H   0  0  0  0  0  0  0  0  0  0  0  0
   57.9800   32.1234   46.6321 H   0  0  0  0  0  0  0  0  0  0  0  0
   57.6654   33.3970   44.5080 H   0  0  0  0  0  0  0  0  0  0  0  0
   57.2479   32.1773   42.3696 H   0  0  0  0  0  0  0  0  0  0  0  0
   57.1440   29.6850   42.3505 H   0  0  0  0  0  0  0  0  0  0  0  0
  1  2  1  0
  2  3  1  0
  3  4  2  0
  4  5  1  0
  5  6  1  0
  6  7  2  0
  6  8  1  0
  8  9  2  0
  9 10  1  0
 10 11  2  0
 11 12  1  0
 12 13  2  0
  4 14  1  0
 14 15  2  0
 15 16  1  0
 16 17  2  0
 16 18  1  0
 18 19  1  0
 19 20  2  0
 20 21  1  0
 20 22  1  0
 22 23  2  0
 23 24  1  0
 24 25  2  0
 25 26  1  0
 26 27  2  0
 26 28  1  0
 28 29  1  0
 29 30  1  0
 30 31  2  0
 31 32  1  0
 32 33  2  0
 33 34  1  0
 34 35  2  0
 15  2  1  0
 25 19  1  0
 35 30  1  0
 13  8  1  0
  1 36  1  0
  1 37  1  0
  1 38  1  0
  3 39  1  0
  5 40  1  0
  9 41  1  0
 11 42  1  0
 12 43  1  0
 14 44  1  0
 22 45  1  0
 23 46  1  0
 24 47  1  0
 29 48  1  0
 29 49  1  0
 31 50  1  0
 32 51  1  0
 33 52  1  0
 34 53  1  0
 35 54  1  0
M  CHG  3  18  -1  21  -1  28  -1
M  END
>  <UniqueID>  (54) 
49

>  <SMILES>  (54) 
Cn1cc(NC(=O)c2cnccn2)cc1C(=O)[N-]c1c([O-])cccc1C(=O)[N-]Cc1ccccc1

>  <Energy>  (54) 
97.19757799292962

>  <Genealogy>  (54) 
Cn1cc(NC(=O)c2cnccn2)cc1C(=O)[N-]c1c([O-])cccc1C(=O)[N-]Cc1ccccc1 (protonated)
Cn1cc(NC(=O)c2cnccn2)cc1C(=O)[N-]c1c([O-])cccc1C(=O)[N-]Cc1ccccc1 (3D coordinates assigned)
Cn1cc(NC(=O)c2cnccn2)cc1C(=O)[N-]c1c([O-])cccc1C(=O)[N-]Cc1ccccc1 (optimized conformer: 97.19757799292962 kcal/mol)

>  <smiles>  (54) 
Cn1cc(NC(=O)c2cnccn2)cc1C(=O)Nc1c(O)cccc1C(=O)NCc1ccccc1

>  <score_type>  (54) 
oracle

>  <origin>  (54) 
adg

>  <m_score__min__energy>  (54) 
-14.41

>  <m_primary>  (54) 
energy

$$$$
54:0
     RDKit          3D

 42 44  0  0  0  0  0  0  0  0999 V2000
   57.5100   32.4520   40.8170 C   0  0  0  0  0  0  0  0  0  0  0  0
   56.9250   31.3400   41.4880 O   0  0  0  0  0  0  0  0  0  0  0  0
   57.1450   31.0240   42.8360 C   0  0  0  0  0  0  0  0  0  0  0  0
   58.0690   31.7220   43.6340 C   0  0  0  0  0  0  0  0  0  0  0  0
   58.2640   31.3570   44.9670 C   0  0  0  0  0  0  0  0  0  0  0  0
   57.5450   30.2870   45.5280 C   0  0  0  0  0  0  0  0  0  0  0  0
   57.7850   29.8670   46.8800 N   0  0  0  0  0  0  0  0  0  0  0  0
   58.9710   30.1040   47.6500 C   0  0  0  0  0  0  0  0  0  0  0  0
   59.3170   29.2450   48.5040 O   0  0  0  0  0  0  0  0  0  0  0  0
   59.8250   31.2950   47.4300 C   0  0  0  0  0  0  0  0  0  0  0  0
   61.2210   31.1680   47.3050 C   0  0  0  0  0  0  0  0  0  0  0  0
   62.0180   32.2990   47.1000 C   0  0  0  0  0  0  0  0  0  0  0  0
   61.4330   33.5650   47.0290 C   0  0  0  0  0  0  0  0  0  0  0  0
   60.0490   33.7050   47.1680 C   0  0  0  0  0  0  0  0  0  0  0  0
   59.3170   35.2970   47.0840 Cl  0  0  0  0  0  0  0  0  0  0  0  0
   59.2480   32.5760   47.3720 C   0  0  0  0  0  0  0  0  0  0  0  0
   56.5720   29.6270   44.7470 C   0  0  0  0  0  0  0  0  0  0  0  0
   55.7760   28.5530   45.2720 N   0  0  0  0  0  0  0  0  0  0  0  0
   56.2560   27.2590   45.6620 C   0  0  0  0  0  0  0  0  0  0  0  0
   55.4420   26.3000   45.6950 O   0  0  0  0  0  0  0  0  0  0  0  0
   57.6600   27.0440   46.0910 C   0  0  0  0  0  0  0  0  0  0  0  0
   57.9330   26.7850   47.4470 C   0  0  0  0  0  0  0  0  0  0  0  0
   59.2450   26.5800   47.8800 C   0  0  0  0  0  0  0  0  0  0  0  0
   60.2990   26.6260   46.9670 C   0  0  0  0  0  0  0  0  0  0  0  0
   60.0430   26.8780   45.6170 C   0  0  0  0  0  0  0  0  0  0  0  0
   58.7320   27.0840   45.1710 C   0  0  0  0  0  0  0  0  0  0  0  0
   58.4890   27.4570   43.4670 Cl  0  0  0  0  0  0  0  0  0  0  0  0
   56.4090   29.9780   43.4020 C   0  0  0  0  0  0  0  0  0  0  0  0
   57.8880   33.1706   41.5591 H   0  0  0  0  0  0  0  0  0  0  0  0
   58.3417   32.1039   40.1869 H   0  0  0  0  0  0  0  0  0  0  0  0
   56.7520   32.9402   40.1869 H   0  0  0  0  0  0  0  0  0  0  0  0
   58.6403   32.5589   43.2060 H   0  0  0  0  0  0  0  0  0  0  0  0
   58.9865   31.9113   45.5840 H   0  0  0  0  0  0  0  0  0  0  0  0
   61.6878   30.1740   47.3689 H   0  0  0  0  0  0  0  0  0  0  0  0
   63.1076   32.1910   46.9945 H   0  0  0  0  0  0  0  0  0  0  0  0
   62.0615   34.4525   46.8636 H   0  0  0  0  0  0  0  0  0  0  0  0
   58.1602   32.6913   47.4877 H   0  0  0  0  0  0  0  0  0  0  0  0
   57.1065   26.7437   48.1717 H   0  0  0  0  0  0  0  0  0  0  0  0
   59.4477   26.3819   48.9429 H   0  0  0  0  0  0  0  0  0  0  0  0
   61.3315   26.4639   47.3101 H   0  0  0  0  0  0  0  0  0  0  0  0
   60.8765   26.9148   44.9001 H   0  0  0  0  0  0  0  0  0  0  0  0
   55.6911   29.4227   42.7805 H   0  0  0  0  0  0  0  0  0  0  0  0
  1  2  1  0
  2  3  1  0
  3  4  2  0
  4  5  1  0
  5  6  2  0
  6  7  1  0
  7  8  1  0
  8  9  2  0
  8 10  1  0
 10 11  2  0
 11 12  1  0
 12 13  2  0
 13 14  1  0
 14 15  1  0
 14 16  2  0
  6 17  1  0
 17 18  1  0
 18 19  1  0
 19 20  2  0
 19 21  1  0
 21 22  2  0
 22 23  1  0
 23 24  2  0
 24 25  1  0
 25 26  2  0
 26 27  1  0
 17 28  2  0
 28  3  1  0
 16 10  1  0
 26 21  1  0
  1 29  1  0
  1 30  1  0
  1 31  1  0
  4 32  1  0
  5 33  1  0
 11 34  1  0
 12 35  1  0
 13 36  1  0
 16 37  1  0
 22 38  1  0
 23 39  1  0
 24 40  1  0
 25 41  1  0
 28 42  1  0
M  CHG  2   7  -1  18  -1
M  END
>  <UniqueID>  (55) 
50

>  <SMILES>  (55) 
COc1ccc([N-]C(=O)c2cccc(Cl)c2)c([N-]C(=O)c2ccccc2Cl)c1

>  <Energy>  (55) 
61.234662084519044

>  <Genealogy>  (55) 
COc1ccc([N-]C(=O)c2cccc(Cl)c2)c([N-]C(=O)c2ccccc2Cl)c1 (protonated)
COc1ccc([N-]C(=O)c2cccc(Cl)c2)c([N-]C(=O)c2ccccc2Cl)c1 (3D coordinates assigned)
COc1ccc([N-]C(=O)c2cccc(Cl)c2)c([N-]C(=O)c2ccccc2Cl)c1 (optimized conformer: 61.234662084519044 kcal/mol)

>  <smiles>  (55) 
COc1ccc(NC(=O)c2cccc(Cl)c2)c(NC(=O)c2ccccc2Cl)c1

>  <score_type>  (55) 
oracle

>  <origin>  (55) 
adg

>  <m_score__min__energy>  (55) 
-13.31

>  <m_primary>  (55) 
energy

$$$$
55:0
     RDKit          3D

 29 30  0  0  0  0  0  0  0  0999 V2000
   55.8210   30.4430   44.4920 O   0  0  0  0  0  0  0  0  0  0  0  0
   56.9990   30.6680   44.1020 C   0  0  0  0  0  0  0  0  0  0  0  0
   57.4100   32.0740   43.7870 C   0  0  0  0  0  0  0  0  0  0  0  0
   58.0540   32.7070   44.9900 C   0  0  0  0  0  0  0  0  0  0  0  0
   58.1560   31.9960   46.1980 C   0  0  0  0  0  0  0  0  0  0  0  0
   58.7850   32.5750   47.3040 C   0  0  0  0  0  0  0  0  0  0  0  0
   59.3230   33.8620   47.2110 C   0  0  0  0  0  0  0  0  0  0  0  0
   60.1130   34.5860   48.6000 Cl  0  0  0  0  0  0  0  0  0  0  0  0
   59.2350   34.5710   46.0080 C   0  0  0  0  0  0  0  0  0  0  0  0
   58.6070   33.9940   44.8990 C   0  0  0  0  0  0  0  0  0  0  0  0
   57.9130   29.5840   43.8720 N   0  0  0  0  0  0  0  0  0  0  0  0
   57.6730   28.2260   44.2780 C   0  0  0  0  0  0  0  0  0  0  0  0
   57.9690   27.1800   43.3890 C   0  0  0  0  0  0  0  0  0  0  0  0
   57.7630   25.8500   43.7680 C   0  0  0  0  0  0  0  0  0  0  0  0
   57.2770   25.5530   45.0440 C   0  0  0  0  0  0  0  0  0  0  0  0
   57.0010   26.5850   45.9440 C   0  0  0  0  0  0  0  0  0  0  0  0
   57.2030   27.9170   45.5680 C   0  0  0  0  0  0  0  0  0  0  0  0
   58.1272   32.0651   42.9530 H   0  0  0  0  0  0  0  0  0  0  0  0
   56.5187   32.6554   43.5085 H   0  0  0  0  0  0  0  0  0  0  0  0
   57.7396   30.9807   46.2734 H   0  0  0  0  0  0  0  0  0  0  0  0
   58.8568   32.0169   48.2492 H   0  0  0  0  0  0  0  0  0  0  0  0
   59.6599   35.5829   45.9341 H   0  0  0  0  0  0  0  0  0  0  0  0
   58.5463   34.5508   43.9523 H   0  0  0  0  0  0  0  0  0  0  0  0
   58.7640   29.7800   43.2970 H   0  0  0  0  0  0  0  0  0  0  0  0
   58.3653   27.4083   42.3886 H   0  0  0  0  0  0  0  0  0  0  0  0
   57.9837   25.0367   43.0610 H   0  0  0  0  0  0  0  0  0  0  0  0
   57.1118   24.5065   45.3397 H   0  0  0  0  0  0  0  0  0  0  0  0
   56.6241   26.3497   46.9503 H   0  0  0  0  0  0  0  0  0  0  0  0
   56.9937   28.7260   46.2833 H   0  0  0  0  0  0  0  0  0  0  0  0
  1  2  2  0
  2  3  1  0
  3  4  1  0
  4  5  2  0
  5  6  1  0
  6  7  2  0
  7  8  1  0
  7  9  1  0
  9 10  2  0
  2 11  1  0
 11 12  1  0
 12 13  2  0
 13 14  1  0
 14 15  2  0
 15 16  1  0
 16 17  2  0
 10  4  1  0
 17 12  1  0
  3 18  1  0
  3 19  1  0
  5 20  1  0
  6 21  1  0
  9 22  1  0
 10 23  1  0
 11 24  1  0
 13 25  1  0
 14 26  1  0
 15 27  1  0
 16 28  1  0
 17 29  1  0
M  END
>  <UniqueID>  (56) 
51

>  <SMILES>  (56) 
O=C(Cc1ccc(Cl)cc1)Nc1ccccc1

>  <Energy>  (56) 
30.637580152590026

>  <Genealogy>  (56) 
O=C(Cc1ccc(Cl)cc1)Nc1ccccc1 (3D coordinates assigned)
O=C(Cc1ccc(Cl)cc1)Nc1ccccc1 (optimized conformer: 30.637580152590026 kcal/mol)

>  <smiles>  (56) 
O=C(Cc1ccc(Cl)cc1)Nc1ccccc1

>  <score_type>  (56) 
oracle

>  <origin>  (56) 
adg

>  <m_score__min__energy>  (56) 
-7.29

>  <m_primary>  (56) 
energy

$$$$
56:0
     RDKit          3D

 57 57  0  0  0  0  0  0  0  0999 V2000
   60.7350   33.1760   50.4750 C   0  0  0  0  0  0  0  0  0  0  0  0
   62.2220   33.0200   50.8270 C   0  0  0  0  0  0  0  0  0  0  0  0
   63.0160   34.2560   50.3860 C   0  0  0  0  0  0  0  0  0  0  0  0
   62.8220   31.7050   50.2790 C   0  0  0  0  0  0  0  0  0  0  0  0
   62.1120   31.1670   49.0610 C   0  0  0  0  0  0  0  0  0  0  0  0
   61.1060   29.8160   49.0870 S   0  0  0  0  0  0  0  0  0  0  0  0
   60.6650   29.9710   47.4720 C   0  0  0  0  0  0  0  0  0  0  0  0
   59.7370   29.0800   46.7630 C   0  0  0  0  0  0  0  0  0  0  0  0
   59.8910   27.8320   46.8470 O   0  0  0  0  0  0  0  0  0  0  0  0
   58.6620   29.6260   45.9820 N   0  0  0  0  0  0  0  0  0  0  0  0
   57.6390   28.7770   45.3600 C   0  0  1  0  0  0  0  0  0  0  0  0
   57.2660   27.6140   46.3040 C   0  0  0  0  0  0  0  0  0  0  0  0
   56.9000   26.3250   45.5540 C   0  0  0  0  0  0  0  0  0  0  0  0
   55.6750   25.7040   46.1460 C   0  0  0  0  0  0  0  0  0  0  0  0
   55.7490   24.6020   46.7540 O   0  0  0  0  0  0  0  0  0  0  0  0
   54.4410   26.3240   45.9960 O   0  0  0  0  0  0  0  0  0  0  0  0
   56.4370   29.5970   44.9550 C   0  0  0  0  0  0  0  0  0  0  0  0
   56.5750   30.8010   44.6080 O   0  0  0  0  0  0  0  0  0  0  0  0
   55.1800   29.0080   44.8680 O   0  0  0  0  0  0  0  0  0  0  0  0
   61.2660   31.0360   46.9010 N   0  0  0  0  0  0  0  0  0  0  0  0
   62.0700   31.7120   47.7670 C   0  0  0  0  0  0  0  0  0  0  0  0
   62.8370   32.8940   47.3240 C   0  0  0  0  0  0  0  0  0  0  0  0
   64.0450   32.7660   46.9970 O   0  0  0  0  0  0  0  0  0  0  0  0
   62.2420   34.1950   47.2400 N   0  0  0  0  0  0  0  0  0  0  0  0
   61.1250   34.5470   46.3700 C   0  0  0  0  0  0  0  0  0  0  0  0
   59.8290   34.5490   47.1840 C   0  0  0  0  0  0  0  0  0  0  0  0
   59.2800   33.1310   47.4070 C   0  0  0  0  0  0  0  0  0  0  0  0
   58.3030   32.7430   46.3660 N   0  0  0  0  0  0  0  0  0  0  0  0
   57.0460   33.4850   46.5600 C   0  0  0  0  0  0  0  0  0  0  0  0
   58.8250   33.0190   45.0160 C   0  0  0  0  0  0  0  0  0  0  0  0
   60.1437   33.2380   51.4005 H   0  0  0  0  0  0  0  0  0  0  0  0
   60.5919   34.0941   49.8862 H   0  0  0  0  0  0  0  0  0  0  0  0
   60.4045   32.3076   49.8862 H   0  0  0  0  0  0  0  0  0  0  0  0
   62.3003   32.9487   51.9219 H   0  0  0  0  0  0  0  0  0  0  0  0
   63.3670   34.8023   51.2739 H   0  0  0  0  0  0  0  0  0  0  0  0
   63.8809   33.9406   49.7839 H   0  0  0  0  0  0  0  0  0  0  0  0
   62.3696   34.9115   49.7839 H   0  0  0  0  0  0  0  0  0  0  0  0
   63.8735   31.8889   50.0133 H   0  0  0  0  0  0  0  0  0  0  0  0
   62.7110   30.9501   51.0714 H   0  0  0  0  0  0  0  0  0  0  0  0
   58.5360   30.6630   45.9590 H   0  0  0  0  0  0  0  0  0  0  0  0
   58.0477   28.3354   44.4392 H   0  0  0  0  0  0  0  0  0  0  0  0
   58.1243   27.4061   46.9599 H   0  0  0  0  0  0  0  0  0  0  0  0
   56.3786   27.9255   46.8745 H   0  0  0  0  0  0  0  0  0  0  0  0
   56.7105   26.5627   44.4969 H   0  0  0  0  0  0  0  0  0  0  0  0
   57.7355   25.6146   45.6392 H   0  0  0  0  0  0  0  0  0  0  0  0
   61.2925   35.5472   45.9439 H   0  0  0  0  0  0  0  0  0  0  0  0
   61.0469   33.8115   45.5558 H   0  0  0  0  0  0  0  0  0  0  0  0
   60.0265   35.0102   48.1629 H   0  0  0  0  0  0  0  0  0  0  0  0
   59.0761   35.1169   46.6178 H   0  0  0  0  0  0  0  0  0  0  0  0
   60.1184   32.4191   47.3897 H   0  0  0  0  0  0  0  0  0  0  0  0
   58.7642   33.1161   48.3784 H   0  0  0  0  0  0  0  0  0  0  0  0
   56.8507   33.6003   47.6364 H   0  0  0  0  0  0  0  0  0  0  0  0
   57.1307   34.4779   46.0943 H   0  0  0  0  0  0  0  0  0  0  0  0
   56.2176   32.9311   46.0943 H   0  0  0  0  0  0  0  0  0  0  0  0
   59.7949   33.5318   45.0957 H   0  0  0  0  0  0  0  0  0  0  0  0
   58.9547   32.0716   44.4723 H   0  0  0  0  0  0  0  0  0  0  0  0
   58.1151   33.6596   44.4723 H   0  0  0  0  0  0  0  0  0  0  0  0
  1  2  1  0
  2  3  1  0
  2  4  1  0
  4  5  1  0
  5  6  1  0
  6  7  1  0
  7  8  1  0
  8  9  2  0
  8 10  1  0
 10 11  1  0
 11 12  1  0
 12 13  1  0
 13 14  1  0
 14 15  2  0
 14 16  1  0
 11 17  1  0
 17 18  2  0
 17 19  1  0
  7 20  2  0
 20 21  1  0
 21 22  1  0
 22 23  2  0
 22 24  1  0
 24 25  1  0
 25 26  1  0
 26 27  1  0
 27 28  1  0
 28 29  1  0
 28 30  1  0
 21  5  2  0
  1 31  1  0
  1 32  1  0
  1 33  1  0
  2 34  1  0
  3 35  1  0
  3 36  1  0
  3 37  1  0
  4 38  1  0
  4 39  1  0
 10 40  1  0
 11 41  1  6
 12 42  1  0
 12 43  1  0
 13 44  1  0
 13 45  1  0
 25 46  1  0
 25 47  1  0
 26 48  1  0
 26 49  1  0
 27 50  1  0
 27 51  1  0
 29 52  1  0
 29 53  1  0
 29 54  1  0
 30 55  1  0
 30 56  1  0
 30 57  1  0
M  CHG  3  16  -1  19  -1  24  -1
M  END
>  <UniqueID>  (57) 
52

>  <SMILES>  (57) 
CC(C)Cc1sc(C(=O)N[C@@H](CCC(=O)[O-])C(=O)[O-])nc1C(=O)[N-]CCCN(C)C

>  <Energy>  (57) 
68.2441547425906

>  <Genealogy>  (57) 
CC(C)Cc1sc(C(=O)NC(CCC(=O)[O-])C(=O)[O-])nc1C(=O)[N-]CCCN(C)C (protonated)
CC(C)Cc1sc(C(=O)N[C@@H](CCC(=O)[O-])C(=O)[O-])nc1C(=O)[N-]CCCN(C)C (chirality)
CC(C)Cc1sc(C(=O)N[C@@H](CCC(=O)[O-])C(=O)[O-])nc1C(=O)[N-]CCCN(C)C (3D coordinates assigned)
CC(C)Cc1sc(C(=O)N[C@@H](CCC(=O)[O-])C(=O)[O-])nc1C(=O)[N-]CCCN(C)C (optimized conformer: 68.2441547425906 kcal/mol)

>  <smiles>  (57) 
CC(C)Cc1sc(C(=O)NC(CCC(=O)O)C(=O)O)nc1C(=O)NCCCN(C)C

>  <score_type>  (57) 
oracle

>  <origin>  (57) 
adg

>  <m_score__min__energy>  (57) 
-13.449999999999999

>  <m_primary>  (57) 
energy

$$$$
57:0
     RDKit          3D

 43 45  0  0  0  0  0  0  0  0999 V2000
   59.7060   35.4220   46.7110 N   0  0  0  0  0  0  0  0  0  0  0  0
   59.0710   34.3190   46.0510 C   0  0  0  0  0  0  0  0  0  0  0  0
   58.0670   34.5780   45.1070 C   0  0  0  0  0  0  0  0  0  0  0  0
   57.3950   33.5300   44.4760 C   0  0  0  0  0  0  0  0  0  0  0  0
   57.7170   32.1960   44.7730 C   0  0  0  0  0  0  0  0  0  0  0  0
   57.0080   31.0840   44.0970 C   0  0  0  0  0  0  0  0  0  0  0  0
   57.0580   30.9730   42.8410 O   0  0  0  0  0  0  0  0  0  0  0  0
   56.2600   30.1330   44.8640 N   0  0  0  0  0  0  0  0  0  0  0  0
   56.6870   28.7570   45.0870 C   0  0  0  0  0  0  0  0  0  0  0  0
   58.1230   28.7220   45.5320 C   0  0  0  0  0  0  0  0  0  0  0  0
   58.4370   28.7910   46.8970 C   0  0  0  0  0  0  0  0  0  0  0  0
   59.7760   28.7790   47.2970 C   0  0  0  0  0  0  0  0  0  0  0  0
   60.7650   28.7070   46.3670 N   0  0  0  0  0  0  0  0  0  0  0  0
   60.4890   28.6450   45.0370 C   0  0  0  0  0  0  0  0  0  0  0  0
   59.1640   28.6530   44.5940 C   0  0  0  0  0  0  0  0  0  0  0  0
   58.7290   31.9340   45.7130 C   0  0  0  0  0  0  0  0  0  0  0  0
   59.4070   32.9830   46.3590 C   0  0  0  0  0  0  0  0  0  0  0  0
   60.4780   32.6840   47.2720 N   0  0  0  0  0  0  0  0  0  0  0  0
   61.7630   33.3250   47.2000 C   0  0  0  0  0  0  0  0  0  0  0  0
   62.1050   33.9150   46.1370 O   0  0  0  0  0  0  0  0  0  0  0  0
   62.7080   33.2730   48.3400 C   0  0  0  0  0  0  0  0  0  0  0  0
   62.5510   34.1220   49.4530 C   0  0  0  0  0  0  0  0  0  0  0  0
   63.4540   34.0660   50.5190 C   0  0  0  0  0  0  0  0  0  0  0  0
   64.5240   33.1700   50.4860 C   0  0  0  0  0  0  0  0  0  0  0  0
   64.6970   32.3310   49.3840 C   0  0  0  0  0  0  0  0  0  0  0  0
   63.7980   32.3830   48.3140 C   0  0  0  0  0  0  0  0  0  0  0  0
   60.7480   35.4940   46.7380 H   0  0  0  0  0  0  0  0  0  0  0  0
   59.1610   36.2110   47.1220 H   0  0  0  0  0  0  0  0  0  0  0  0
   57.8063   35.6180   44.8612 H   0  0  0  0  0  0  0  0  0  0  0  0
   56.6073   33.7508   43.7406 H   0  0  0  0  0  0  0  0  0  0  0  0
   56.0551   28.3023   45.8641 H   0  0  0  0  0  0  0  0  0  0  0  0
   56.5900   28.1952   44.1462 H   0  0  0  0  0  0  0  0  0  0  0  0
   57.6352   28.8541   47.6474 H   0  0  0  0  0  0  0  0  0  0  0  0
   60.0301   28.8279   48.3661 H   0  0  0  0  0  0  0  0  0  0  0  0
   61.3109   28.5884   44.3081 H   0  0  0  0  0  0  0  0  0  0  0  0
   58.9388   28.6056   43.5183 H   0  0  0  0  0  0  0  0  0  0  0  0
   58.9945   30.8924   45.9468 H   0  0  0  0  0  0  0  0  0  0  0  0
   60.3310   31.9340   47.9820 H   0  0  0  0  0  0  0  0  0  0  0  0
   61.7127   34.8335   49.4837 H   0  0  0  0  0  0  0  0  0  0  0  0
   63.3209   34.7298   51.3860 H   0  0  0  0  0  0  0  0  0  0  0  0
   65.2304   33.1252   51.3280 H   0  0  0  0  0  0  0  0  0  0  0  0
   65.5422   31.6275   49.3571 H   0  0  0  0  0  0  0  0  0  0  0  0
   63.9438   31.7235   47.4458 H   0  0  0  0  0  0  0  0  0  0  0  0
  1  2  1  0
  2  3  2  0
  3  4  1  0
  4  5  2  0
  5  6  1  0
  6  7  2  0
  6  8  1  0
  8  9  1  0
  9 10  1  0
 10 11  2  0
 11 12  1  0
 12 13  2  0
 13 14  1  0
 14 15  2  0
  5 16  1  0
 16 17  2  0
 17 18  1  0
 18 19  1  0
 19 20  2  0
 19 21  1  0
 21 22  2  0
 22 23  1  0
 23 24  2  0
 24 25  1  0
 25 26  2  0
 17  2  1  0
 26 21  1  0
 15 10  1  0
  1 27  1  0
  1 28  1  0
  3 29  1  0
  4 30  1  0
  9 31  1  0
  9 32  1  0
 11 33  1  0
 12 34  1  0
 14 35  1  0
 15 36  1  0
 16 37  1  0
 18 38  1  0
 22 39  1  0
 23 40  1  0
 24 41  1  0
 25 42  1  0
 26 43  1  0
M  CHG  1   8  -1
M  END
>  <UniqueID>  (58) 
53

>  <SMILES>  (58) 
Nc1ccc(C(=O)[N-]Cc2ccncc2)cc1NC(=O)c1ccccc1

>  <Energy>  (58) 
51.88477172958286

>  <Genealogy>  (58) 
Nc1ccc(C(=O)[N-]Cc2ccncc2)cc1NC(=O)c1ccccc1 (protonated)
Nc1ccc(C(=O)[N-]Cc2ccncc2)cc1NC(=O)c1ccccc1 (3D coordinates assigned)
Nc1ccc(C(=O)[N-]Cc2ccncc2)cc1NC(=O)c1ccccc1 (optimized conformer: 51.88477172958286 kcal/mol)

>  <smiles>  (58) 
Nc1ccc(C(=O)NCc2ccncc2)cc1NC(=O)c1ccccc1

>  <score_type>  (58) 
oracle

>  <origin>  (58) 
adg

>  <m_score__min__energy>  (58) 
-9.6199999999999992

>  <m_primary>  (58) 
energy

$$$$
58:0
     RDKit          3D

 47 51  0  0  0  0  0  0  0  0999 V2000
   56.3180   29.4430   42.9350 C   0  0  0  0  0  0  0  0  0  0  0  0
   57.0510   30.1600   44.0120 C   0  0  0  0  0  0  0  0  0  0  0  0
   56.6440   31.3620   44.4710 N   0  0  0  0  0  0  0  0  0  0  0  0
   57.4760   31.7670   45.4140 C   0  0  0  0  0  0  0  0  0  0  0  0
   57.4800   32.9270   46.1720 C   0  0  0  0  0  0  0  0  0  0  0  0
   58.5140   33.0500   47.0850 C   0  0  0  0  0  0  0  0  0  0  0  0
   59.4540   32.0980   47.2230 N   0  0  0  0  0  0  0  0  0  0  0  0
   60.5340   32.2640   48.2010 C   0  0  0  0  0  0  0  0  0  0  0  0
   61.7880   32.7070   47.5330 C   0  0  0  0  0  0  0  0  0  0  0  0
   62.9750   31.9830   47.5150 C   0  0  0  0  0  0  0  0  0  0  0  0
   63.8970   32.6880   46.8200 N   0  0  0  0  0  0  0  0  0  0  0  0
   63.3020   33.8410   46.4050 C   0  0  0  0  0  0  0  0  0  0  0  0
   62.0220   33.8430   46.8430 N   0  0  0  0  0  0  0  0  0  0  0  0
   59.4190   30.9850   46.4710 C   0  0  0  0  0  0  0  0  0  0  0  0
   60.3170   30.1250   46.6320 O   0  0  0  0  0  0  0  0  0  0  0  0
   58.4300   30.7820   45.5440 C   0  0  0  0  0  0  0  0  0  0  0  0
   58.1770   29.7680   44.6720 N   0  0  0  0  0  0  0  0  0  0  0  0
   58.8720   28.5440   44.4620 C   0  0  0  0  0  0  0  0  0  0  0  0
   58.1200   27.3090   44.7640 C   0  0  0  0  0  0  0  0  0  0  0  0
   57.6110   27.1090   46.0530 C   0  0  0  0  0  0  0  0  0  0  0  0
   56.8990   25.9720   46.3850 C   0  0  0  0  0  0  0  0  0  0  0  0
   56.6500   24.9760   45.4660 C   0  0  0  0  0  0  0  0  0  0  0  0
   55.9620   23.8580   45.7510 N   0  0  0  0  0  0  0  0  0  0  0  0
   55.7420   22.8990   44.8060 C   0  0  0  0  0  0  0  0  0  0  0  0
   55.0940   21.8620   45.1000 O   0  0  0  0  0  0  0  0  0  0  0  0
   56.2390   23.0870   43.5250 C   0  0  0  0  0  0  0  0  0  0  0  0
   56.0600   22.2230   42.6140 O   0  0  0  0  0  0  0  0  0  0  0  0
   56.9290   24.2080   43.2410 N   0  0  0  0  0  0  0  0  0  0  0  0
   57.1420   25.1590   44.1950 C   0  0  0  0  0  0  0  0  0  0  0  0
   57.8600   26.3040   43.8620 C   0  0  0  0  0  0  0  0  0  0  0  0
   55.6003   28.7410   43.3846 H   0  0  0  0  0  0  0  0  0  0  0  0
   55.7777   30.1709   42.3119 H   0  0  0  0  0  0  0  0  0  0  0  0
   57.0338   28.8868   42.3119 H   0  0  0  0  0  0  0  0  0  0  0  0
   56.7089   33.7028   46.0556 H   0  0  0  0  0  0  0  0  0  0  0  0
   58.5680   33.9506   47.7143 H   0  0  0  0  0  0  0  0  0  0  0  0
   60.2352   33.0183   48.9438 H   0  0  0  0  0  0  0  0  0  0  0  0
   60.7181   31.2964   48.6908 H   0  0  0  0  0  0  0  0  0  0  0  0
   63.1370   31.0024   47.9864 H   0  0  0  0  0  0  0  0  0  0  0  0
   64.8790   32.3830   46.6470 H   0  0  0  0  0  0  0  0  0  0  0  0
   63.7810   34.6356   45.8140 H   0  0  0  0  0  0  0  0  0  0  0  0
   59.1714   28.5049   43.4043 H   0  0  0  0  0  0  0  0  0  0  0  0
   59.7140   28.5574   45.1697 H   0  0  0  0  0  0  0  0  0  0  0  0
   57.7824   27.8771   46.8216 H   0  0  0  0  0  0  0  0  0  0  0  0
   56.5205   25.8590   47.4116 H   0  0  0  0  0  0  0  0  0  0  0  0
   55.5870   23.7260   46.7290 H   0  0  0  0  0  0  0  0  0  0  0  0
   57.2970   24.3280   42.2630 H   0  0  0  0  0  0  0  0  0  0  0  0
   58.2355   26.4095   42.8335 H   0  0  0  0  0  0  0  0  0  0  0  0
  1  2  1  0
  2  3  2  0
  3  4  1  0
  4  5  1  0
  5  6  2  0
  6  7  1  0
  7  8  1  0
  8  9  1  0
  9 10  2  0
 10 11  1  0
 11 12  1  0
 12 13  2  0
  7 14  1  0
 14 15  2  0
 14 16  1  0
 16 17  1  0
 17 18  1  0
 18 19  1  0
 19 20  2  0
 20 21  1  0
 21 22  2  0
 22 23  1  0
 23 24  1  0
 24 25  2  0
 24 26  1  0
 26 27  2  0
 26 28  1  0
 28 29  1  0
 29 30  2  0
 17  2  1  0
 30 19  1  0
 16  4  2  0
 29 22  1  0
 13  9  1  0
  1 31  1  0
  1 32  1  0
  1 33  1  0
  5 34  1  0
  6 35  1  0
  8 36  1  0
  8 37  1  0
 10 38  1  0
 11 39  1  0
 12 40  1  0
 18 41  1  0
 18 42  1  0
 20 43  1  0
 21 44  1  0
 23 45  1  0
 28 46  1  0
 30 47  1  0
M  END
>  <smiles>  (59) 
Cc1nc2ccn(Cc3c[nH]cn3)c(=O)c2n1Cc1ccc2[nH]c(=O)c(=O)[nH]c2c1

>  <score_type>  (59) 
oracle

>  <origin>  (59) 
adg

>  <m_score__min__energy>  (59) 
-9.1600000000000001

>  <m_primary>  (59) 
energy

$$$$
59:0
     RDKit          3D

 49 51  0  0  0  0  0  0  0  0999 V2000
   60.7890   26.7510   46.9840 C   0  0  0  0  0  0  0  0  0  0  0  0
   59.7080   27.4900   46.2520 C   0  0  0  0  0  0  0  0  0  0  0  0
   60.0450   28.4070   45.2430 C   0  0  0  0  0  0  0  0  0  0  0  0
   59.0450   29.1270   44.5840 C   0  0  0  0  0  0  0  0  0  0  0  0
   57.7000   28.9470   44.9310 C   0  0  0  0  0  0  0  0  0  0  0  0
   56.4520   29.8540   44.0800 S   0  0  0  0  0  0  0  0  0  0  0  0
   55.1070   29.3110   44.4750 O   0  0  0  0  0  0  0  0  0  0  0  0
   56.6110   29.7160   42.5920 O   0  0  0  0  0  0  0  0  0  0  0  0
   56.5450   31.5280   44.5120 N   0  0  0  0  0  0  0  0  0  0  0  0
   57.7730   32.1610   44.8710 C   0  0  0  0  0  0  0  0  0  0  0  0
   58.3030   32.9990   44.0920 O   0  0  0  0  0  0  0  0  0  0  0  0
   58.3390   31.8990   46.1610 N   0  0  0  0  0  0  0  0  0  0  0  0
   58.8540   32.7570   47.0020 C   0  0  0  0  0  0  0  0  0  0  0  0
   59.0930   34.0610   46.6470 N   0  0  0  0  0  0  0  0  0  0  0  0
   59.6240   34.9560   47.5240 C   0  0  0  0  0  0  0  0  0  0  0  0
   59.9400   34.5650   48.8220 C   0  0  0  0  0  0  0  0  0  0  0  0
   59.7290   33.2450   49.2080 C   0  0  0  0  0  0  0  0  0  0  0  0
   59.2010   32.3190   48.2990 C   0  0  0  0  0  0  0  0  0  0  0  0
   58.9890   30.8870   48.7340 C   0  0  0  0  0  0  0  0  0  0  0  0
   60.2190   30.2580   49.0380 O   0  0  0  0  0  0  0  0  0  0  0  0
   61.1010   30.3000   47.9310 C   0  0  0  0  0  0  0  0  0  0  0  0
   62.1510   31.3610   48.1290 C   0  0  0  0  0  0  0  0  0  0  0  0
   62.4070   32.2970   47.1130 C   0  0  0  0  0  0  0  0  0  0  0  0
   63.3790   33.2870   47.2950 C   0  0  0  0  0  0  0  0  0  0  0  0
   64.0950   33.3510   48.4940 C   0  0  0  0  0  0  0  0  0  0  0  0
   63.8360   32.4340   49.5150 C   0  0  0  0  0  0  0  0  0  0  0  0
   62.8660   31.4410   49.3350 C   0  0  0  0  0  0  0  0  0  0  0  0
   57.3620   28.0400   45.9440 C   0  0  0  0  0  0  0  0  0  0  0  0
   58.3600   27.3190   46.6050 C   0  0  0  0  0  0  0  0  0  0  0  0
   60.6355   26.8560   48.0682 H   0  0  0  0  0  0  0  0  0  0  0  0
   60.7552   25.6861   46.7103 H   0  0  0  0  0  0  0  0  0  0  0  0
   61.7690   27.1690   46.7103 H   0  0  0  0  0  0  0  0  0  0  0  0
   61.0998   28.5590   44.9705 H   0  0  0  0  0  0  0  0  0  0  0  0
   59.3152   29.8381   43.7894 H   0  0  0  0  0  0  0  0  0  0  0  0
   58.9200   34.4040   45.6780 H   0  0  0  0  0  0  0  0  0  0  0  0
   59.8043   35.9933   47.2056 H   0  0  0  0  0  0  0  0  0  0  0  0
   60.3527   35.2929   49.5360 H   0  0  0  0  0  0  0  0  0  0  0  0
   59.9778   32.9272   50.2313 H   0  0  0  0  0  0  0  0  0  0  0  0
   58.3488   30.8746   49.6284 H   0  0  0  0  0  0  0  0  0  0  0  0
   58.5118   30.3388   47.9083 H   0  0  0  0  0  0  0  0  0  0  0  0
   61.5919   29.3216   47.8227 H   0  0  0  0  0  0  0  0  0  0  0  0
   60.5228   30.5383   47.0261 H   0  0  0  0  0  0  0  0  0  0  0  0
   61.8411   32.2514   46.1708 H   0  0  0  0  0  0  0  0  0  0  0  0
   63.5797   34.0147   46.4949 H   0  0  0  0  0  0  0  0  0  0  0  0
   64.8639   34.1252   48.6335 H   0  0  0  0  0  0  0  0  0  0  0  0
   64.3944   32.4921   50.4609 H   0  0  0  0  0  0  0  0  0  0  0  0
   62.6631   30.7207   50.1412 H   0  0  0  0  0  0  0  0  0  0  0  0
   56.3071   27.8949   46.2200 H   0  0  0  0  0  0  0  0  0  0  0  0
   58.0883   26.6147   47.4051 H   0  0  0  0  0  0  0  0  0  0  0  0
  1  2  1  0
  2  3  2  0
  3  4  1  0
  4  5  2  0
  5  6  1  0
  6  7  2  0
  6  8  2  0
  6  9  1  0
  9 10  1  0
 10 11  2  0
 10 12  1  0
 12 13  2  3
 13 14  1  0
 14 15  1  0
 15 16  2  0
 16 17  1  0
 17 18  2  0
 18 19  1  0
 19 20  1  0
 20 21  1  0
 21 22  1  0
 22 23  2  0
 23 24  1  0
 24 25  2  0
 25 26  1  0
 26 27  2  0
  5 28  1  0
 28 29  2  0
 29  2  1  0
 18 13  1  0
 27 22  1  0
  1 30  1  0
  1 31  1  0
  1 32  1  0
  3 33  1  0
  4 34  1  0
 14 35  1  0
 15 36  1  0
 16 37  1  0
 17 38  1  0
 19 39  1  0
 19 40  1  0
 21 41  1  0
 21 42  1  0
 23 43  1  0
 24 44  1  0
 25 45  1  0
 26 46  1  0
 27 47  1  0
 28 48  1  0
 29 49  1  0
M  CHG  1   9  -1
M  END
>  <UniqueID>  (60) 
54

>  <SMILES>  (60) 
Cc1ccc(S(=O)(=O)[N-]C(=O)N=c2[nH]cccc2COCc2ccccc2)cc1

>  <Energy>  (60) 
63.3507974095969

>  <Genealogy>  (60) 
Cc1ccc(S(=O)(=O)[N-]C(=O)N=c2[nH]cccc2COCc2ccccc2)cc1 (protonated)
Cc1ccc(S(=O)(=O)[N-]C(=O)N=c2[nH]cccc2COCc2ccccc2)cc1 (3D coordinates assigned)
Cc1ccc(S(=O)(=O)[N-]C(=O)N=c2[nH]cccc2COCc2ccccc2)cc1 (optimized conformer: 63.3507974095969 kcal/mol)

>  <smiles>  (60) 
Cc1ccc(S(=O)(=O)NC(=O)N=c2[nH]cccc2COCc2ccccc2)cc1

>  <score_type>  (60) 
oracle

>  <origin>  (60) 
adg

>  <m_score__min__energy>  (60) 
-10.35

>  <m_primary>  (60) 
energy

$$$$
60:0
     RDKit          3D

 41 42  0  0  0  0  0  0  0  0999 V2000
   59.4750   34.2310   48.2960 C   0  0  0  0  0  0  0  0  0  0  0  0
   59.0480   32.8470   48.0570 N   0  0  0  0  0  0  0  0  0  0  0  0
   59.4980   31.7780   48.9600 C   0  0  0  0  0  0  0  0  0  0  0  0
   60.0620   30.6440   48.1660 C   0  0  0  0  0  0  0  0  0  0  0  0
   61.1010   30.8240   47.4750 O   0  0  0  0  0  0  0  0  0  0  0  0
   59.4280   29.3590   48.2160 N   0  0  0  0  0  0  0  0  0  0  0  0
   59.1520   28.5040   47.0970 C   0  0  0  0  0  0  0  0  0  0  0  0
   59.8590   28.6130   45.8860 C   0  0  0  0  0  0  0  0  0  0  0  0
   59.5430   27.7790   44.8110 C   0  0  0  0  0  0  0  0  0  0  0  0
   58.5160   26.8380   44.9300 C   0  0  0  0  0  0  0  0  0  0  0  0
   57.7940   26.7330   46.1240 C   0  0  0  0  0  0  0  0  0  0  0  0
   56.4960   25.5510   46.2600 S   0  0  0  0  0  0  0  0  0  0  0  0
   54.9750   26.3290   45.9910 N   0  0  0  0  0  0  0  0  0  0  0  0
   56.5140   24.9430   47.6350 O   0  0  0  0  0  0  0  0  0  0  0  0
   56.6720   24.4660   45.2350 O   0  0  0  0  0  0  0  0  0  0  0  0
   58.1070   27.5780   47.2000 C   0  0  0  0  0  0  0  0  0  0  0  0
   58.1730   32.5340   46.9510 C   0  0  0  0  0  0  0  0  0  0  0  0
   57.1460   33.2400   46.7510 O   0  0  0  0  0  0  0  0  0  0  0  0
   58.4370   31.4080   46.0930 N   0  0  0  0  0  0  0  0  0  0  0  0
   57.8170   31.2240   44.8080 C   0  0  0  0  0  0  0  0  0  0  0  0
   58.0810   32.0940   43.7340 C   0  0  0  0  0  0  0  0  0  0  0  0
   57.4810   31.8790   42.4890 C   0  0  0  0  0  0  0  0  0  0  0  0
   56.6250   30.7910   42.3010 C   0  0  0  0  0  0  0  0  0  0  0  0
   56.3760   29.9080   43.3550 C   0  0  0  0  0  0  0  0  0  0  0  0
   56.9740   30.1190   44.6020 C   0  0  0  0  0  0  0  0  0  0  0  0
   59.5319   34.4153   49.3790 H   0  0  0  0  0  0  0  0  0  0  0  0
   60.4648   34.3926   47.8441 H   0  0  0  0  0  0  0  0  0  0  0  0
   58.7483   34.9222   47.8441 H   0  0  0  0  0  0  0  0  0  0  0  0
   60.2729   32.1721   49.6339 H   0  0  0  0  0  0  0  0  0  0  0  0
   58.6416   31.4170   49.5484 H   0  0  0  0  0  0  0  0  0  0  0  0
   60.6629   29.3570   45.7852 H   0  0  0  0  0  0  0  0  0  0  0  0
   60.1037   27.8628   43.8683 H   0  0  0  0  0  0  0  0  0  0  0  0
   58.2750   26.1787   44.0831 H   0  0  0  0  0  0  0  0  0  0  0  0
   55.1450   27.3580   46.0500 H   0  0  0  0  0  0  0  0  0  0  0  0
   57.5264   27.5122   48.1320 H   0  0  0  0  0  0  0  0  0  0  0  0
   59.0160   30.6230   46.4640 H   0  0  0  0  0  0  0  0  0  0  0  0
   58.7619   32.9465   43.8741 H   0  0  0  0  0  0  0  0  0  0  0  0
   57.6836   32.5682   41.6559 H   0  0  0  0  0  0  0  0  0  0  0  0
   56.1471   30.6295   41.3235 H   0  0  0  0  0  0  0  0  0  0  0  0
   55.7092   29.0463   43.2041 H   0  0  0  0  0  0  0  0  0  0  0  0
   56.7831   29.4157   45.4260 H   0  0  0  0  0  0  0  0  0  0  0  0
  1  2  1  0
  2  3  1  0
  3  4  1  0
  4  5  2  0
  4  6  1  0
  6  7  1  0
  7  8  2  0
  8  9  1  0
  9 10  2  0
 10 11  1  0
 11 12  1  0
 12 13  1  0
 12 14  2  0
 12 15  2  0
 11 16  2  0
  2 17  1  0
 17 18  2  0
 17 19  1  0
 19 20  1  0
 20 21  2  0
 21 22  1  0
 22 23  2  0
 23 24  1  0
 24 25  2  0
 16  7  1  0
 25 20  1  0
  1 26  1  0
  1 27  1  0
  1 28  1  0
  3 29  1  0
  3 30  1  0
  8 31  1  0
  9 32  1  0
 10 33  1  0
 13 34  1  0
 16 35  1  0
 19 36  1  0
 21 37  1  0
 22 38  1  0
 23 39  1  0
 24 40  1  0
 25 41  1  0
M  CHG  2   6  -1  13  -1
M  END
>  <UniqueID>  (61) 
55

>  <SMILES>  (61) 
CN(CC(=O)[N-]c1cccc(S([NH-])(=O)=O)c1)C(=O)Nc1ccccc1

>  <Energy>  (61) 
45.11888316136621

>  <Genealogy>  (61) 
CN(CC(=O)[N-]c1cccc(S([NH-])(=O)=O)c1)C(=O)Nc1ccccc1 (protonated)
CN(CC(=O)[N-]c1cccc(S([NH-])(=O)=O)c1)C(=O)Nc1ccccc1 (3D coordinates assigned)
CN(CC(=O)[N-]c1cccc(S([NH-])(=O)=O)c1)C(=O)Nc1ccccc1 (optimized conformer: 45.11888316136621 kcal/mol)

>  <smiles>  (61) 
CN(CC(=O)Nc1cccc(S(N)(=O)=O)c1)C(=O)Nc1ccccc1

>  <score_type>  (61) 
oracle

>  <origin>  (61) 
adg

>  <m_score__min__energy>  (61) 
-12.5

>  <m_primary>  (61) 
energy

$$$$
61:0
     RDKit          3D

 48 49  0  0  0  0  0  0  0  0999 V2000
   61.0920   33.6350   49.6260 C   0  0  0  0  0  0  0  0  0  0  0  0
   59.7800   33.8220   49.1030 O   0  0  0  0  0  0  0  0  0  0  0  0
   59.4770   34.0600   47.7530 C   0  0  0  0  0  0  0  0  0  0  0  0
   59.9250   35.2320   47.1110 C   0  0  0  0  0  0  0  0  0  0  0  0
   59.6220   35.4710   45.7720 C   0  0  0  0  0  0  0  0  0  0  0  0
   58.8750   34.5470   45.0490 C   0  0  0  0  0  0  0  0  0  0  0  0
   58.4280   33.3650   45.6540 C   0  0  0  0  0  0  0  0  0  0  0  0
   57.5920   32.3980   44.8480 C   0  0  0  0  0  0  0  0  0  0  0  0
   58.4710   31.3130   44.2230 C   0  0  0  0  0  0  0  0  0  0  0  0
   59.1800   30.5760   45.2750 N   0  0  0  0  0  0  0  0  0  0  0  0
   59.6350   29.2710   44.7730 C   0  0  0  0  0  0  0  0  0  0  0  0
   58.8700   28.1330   45.4260 C   0  0  0  0  0  0  0  0  0  0  0  0
   59.5780   27.1600   46.1510 C   0  0  0  0  0  0  0  0  0  0  0  0
   58.9290   26.1390   46.7570 N   0  0  0  0  0  0  0  0  0  0  0  0
   57.5810   26.0000   46.6940 C   0  0  0  0  0  0  0  0  0  0  0  0
   56.9290   24.8640   47.4210 C   0  0  0  0  0  0  0  0  0  0  0  0
   56.8140   26.9190   45.9600 C   0  0  0  0  0  0  0  0  0  0  0  0
   55.4230   26.7660   45.9540 O   0  0  0  0  0  0  0  0  0  0  0  0
   57.4670   27.9670   45.2610 C   0  0  0  0  0  0  0  0  0  0  0  0
   56.6770   28.8950   44.3570 C   0  0  0  0  0  0  0  0  0  0  0  0
   55.3480   28.9820   44.7880 O   0  0  0  0  0  0  0  0  0  0  0  0
   58.7100   33.1160   47.0170 C   0  0  0  0  0  0  0  0  0  0  0  0
   58.2030   31.9260   47.5760 O   0  0  0  0  0  0  0  0  0  0  0  0
   58.9030   31.0100   48.4110 C   0  0  0  0  0  0  0  0  0  0  0  0
   61.0528   33.6406   50.7253 H   0  0  0  0  0  0  0  0  0  0  0  0
   61.4914   32.6709   49.2783 H   0  0  0  0  0  0  0  0  0  0  0  0
   61.7448   34.4492   49.2783 H   0  0  0  0  0  0  0  0  0  0  0  0
   60.5205   35.9663   47.6732 H   0  0  0  0  0  0  0  0  0  0  0  0
   59.9744   36.3926   45.2857 H   0  0  0  0  0  0  0  0  0  0  0  0
   58.6334   34.7457   43.9944 H   0  0  0  0  0  0  0  0  0  0  0  0
   56.8497   31.9254   45.5081 H   0  0  0  0  0  0  0  0  0  0  0  0
   57.0886   32.9525   44.0424 H   0  0  0  0  0  0  0  0  0  0  0  0
   57.8396   30.6163   43.6520 H   0  0  0  0  0  0  0  0  0  0  0  0
   59.2057   31.7839   43.5533 H   0  0  0  0  0  0  0  0  0  0  0  0
   58.5040   30.3980   46.0550 H   0  0  0  0  0  0  0  0  0  0  0  0
   59.4781   29.2308   43.6850 H   0  0  0  0  0  0  0  0  0  0  0  0
   60.7018   29.1575   45.0160 H   0  0  0  0  0  0  0  0  0  0  0  0
   60.6732   27.2290   46.2269 H   0  0  0  0  0  0  0  0  0  0  0  0
   57.0200   25.0225   48.5057 H   0  0  0  0  0  0  0  0  0  0  0  0
   55.8652   24.8148   47.1456 H   0  0  0  0  0  0  0  0  0  0  0  0
   57.4231   23.9206   47.1456 H   0  0  0  0  0  0  0  0  0  0  0  0
   54.7740   27.4720   46.2700 H   0  0  0  0  0  0  0  0  0  0  0  0
   57.1316   29.8964   44.3795 H   0  0  0  0  0  0  0  0  0  0  0  0
   56.6942   28.4948   43.3325 H   0  0  0  0  0  0  0  0  0  0  0  0
   55.0050   28.0530   44.8430 H   0  0  0  0  0  0  0  0  0  0  0  0
   58.7139   31.2574   49.4660 H   0  0  0  0  0  0  0  0  0  0  0  0
   58.5544   29.9870   48.2061 H   0  0  0  0  0  0  0  0  0  0  0  0
   59.9816   31.0777   48.2061 H   0  0  0  0  0  0  0  0  0  0  0  0
  1  2  1  0
  2  3  1  0
  3  4  2  0
  4  5  1  0
  5  6  2  0
  6  7  1  0
  7  8  1  0
  8  9  1  0
  9 10  1  0
 10 11  1  0
 11 12  1  0
 12 13  2  0
 13 14  1  0
 14 15  2  0
 15 16  1  0
 15 17  1  0
 17 18  1  0
 17 19  2  0
 19 20  1  0
 20 21  1  0
  7 22  2  0
 22 23  1  0
 23 24  1  0
 22  3  1  0
 19 12  1  0
  1 25  1  0
  1 26  1  0
  1 27  1  0
  4 28  1  0
  5 29  1  0
  6 30  1  0
  8 31  1  0
  8 32  1  0
  9 33  1  0
  9 34  1  0
 10 35  1  0
 11 36  1  0
 11 37  1  0
 13 38  1  0
 16 39  1  0
 16 40  1  0
 16 41  1  0
 18 42  1  0
 20 43  1  0
 20 44  1  0
 21 45  1  0
 24 46  1  0
 24 47  1  0
 24 48  1  0
M  END
>  <UniqueID>  (62) 
56

>  <SMILES>  (62) 
COc1cccc(CCNCc2cnc(C)c(O)c2CO)c1OC

>  <Energy>  (62) 
51.95083462080975

>  <Genealogy>  (62) 
COc1cccc(CCNCc2cnc(C)c(O)c2CO)c1OC (3D coordinates assigned)
COc1cccc(CCNCc2cnc(C)c(O)c2CO)c1OC (optimized conformer: 51.95083462080975 kcal/mol)

>  <smiles>  (62) 
COc1cccc(CCNCc2cnc(C)c(O)c2CO)c1OC

>  <score_type>  (62) 
oracle

>  <origin>  (62) 
adg

>  <m_score__min__energy>  (62) 
-7.9299999999999997

>  <m_primary>  (62) 
energy

$$$$
62:0
     RDKit          3D

 19 19  0  0  0  0  0  0  0  0999 V2000
   57.7670   27.8430   43.3750 C   0  0  0  0  0  0  0  0  0  0  0  0
   58.2470   29.1590   43.7790 N   0  0  0  0  0  0  0  0  0  0  0  0
   57.4180   30.0680   44.5180 C   0  0  0  0  0  0  0  0  0  0  0  0
   56.2690   29.7040   44.8910 O   0  0  0  0  0  0  0  0  0  0  0  0
   57.8940   31.4370   44.8310 C   0  0  0  0  0  0  0  0  0  0  0  0
   58.1650   31.7800   46.1690 C   0  0  0  0  0  0  0  0  0  0  0  0
   58.6320   33.0570   46.4970 C   0  0  0  0  0  0  0  0  0  0  0  0
   58.9720   33.4650   48.1690 Cl  0  0  0  0  0  0  0  0  0  0  0  0
   58.8330   34.0060   45.4930 C   0  0  0  0  0  0  0  0  0  0  0  0
   58.5670   33.6820   44.1630 C   0  0  0  0  0  0  0  0  0  0  0  0
   58.1000   32.4070   43.8210 C   0  0  0  0  0  0  0  0  0  0  0  0
   57.7310   32.0930   42.1270 Cl  0  0  0  0  0  0  0  0  0  0  0  0
   57.5478   27.2420   44.2699 H   0  0  0  0  0  0  0  0  0  0  0  0
   56.8517   27.9548   42.7752 H   0  0  0  0  0  0  0  0  0  0  0  0
   58.5393   27.3393   42.7752 H   0  0  0  0  0  0  0  0  0  0  0  0
   59.2300   29.4230   43.5460 H   0  0  0  0  0  0  0  0  0  0  0  0
   58.0080   31.0365   46.9644 H   0  0  0  0  0  0  0  0  0  0  0  0
   59.2014   35.0098   45.7512 H   0  0  0  0  0  0  0  0  0  0  0  0
   58.7253   34.4342   43.3761 H   0  0  0  0  0  0  0  0  0  0  0  0
  1  2  1  0
  2  3  1  0
  3  4  2  0
  3  5  1  0
  5  6  2  0
  6  7  1  0
  7  8  1  0
  7  9  2  0
  9 10  1  0
 10 11  2  0
 11 12  1  0
 11  5  1  0
  1 13  1  0
  1 14  1  0
  1 15  1  0
  2 16  1  0
  6 17  1  0
  9 18  1  0
 10 19  1  0
M  END
>  <UniqueID>  (63) 
57

>  <SMILES>  (63) 
CNC(=O)c1cc(Cl)ccc1Cl

>  <Energy>  (63) 
19.595050784302252

>  <Genealogy>  (63) 
CNC(=O)c1cc(Cl)ccc1Cl (3D coordinates assigned)
CNC(=O)c1cc(Cl)ccc1Cl (optimized conformer: 19.595050784302252 kcal/mol)

>  <smiles>  (63) 
CNC(=O)c1cc(Cl)ccc1Cl

>  <score_type>  (63) 
oracle

>  <origin>  (63) 
adg

>  <m_score__min__energy>  (63) 
-5.75

>  <m_primary>  (63) 
energy

$$$$
63:0
     RDKit          3D

 53 56  0  0  0  0  0  0  0  0999 V2000
   58.1450   30.1340   47.4040 C   0  0  0  0  0  0  0  0  0  0  0  0
   58.6440   28.9350   46.6340 C   0  0  0  0  0  0  0  0  0  0  0  0
   57.7660   28.1450   45.8400 C   0  0  0  0  0  0  0  0  0  0  0  0
   56.4060   28.5260   45.5610 N   0  0  0  0  0  0  0  0  0  0  0  0
   55.9540   29.4630   44.5680 C   0  0  0  0  0  0  0  0  0  0  0  0
   54.8030   29.3060   44.0790 O   0  0  0  0  0  0  0  0  0  0  0  0
   56.7900   30.5960   44.0990 C   0  0  0  0  0  0  0  0  0  0  0  0
   56.9610   30.8100   42.7230 C   0  0  0  0  0  0  0  0  0  0  0  0
   57.6700   31.9260   42.2800 C   0  0  0  0  0  0  0  0  0  0  0  0
   58.1930   32.7990   43.1780 N   0  0  0  0  0  0  0  0  0  0  0  0
   58.0820   32.6180   44.5240 C   0  0  0  0  0  0  0  0  0  0  0  0
   58.6120   33.6240   45.4200 N   0  0  0  0  0  0  0  0  0  0  0  0
   58.3270   33.4960   46.8630 C   0  0  0  0  0  0  0  0  0  0  0  0
   59.2570   34.3470   47.7710 C   0  0  0  0  0  0  0  0  0  0  0  0
   60.3140   34.9850   47.0740 O   0  0  0  0  0  0  0  0  0  0  0  0
   59.7870   35.7150   45.9970 C   0  0  0  0  0  0  0  0  0  0  0  0
   59.4130   34.7390   44.8910 C   0  0  0  0  0  0  0  0  0  0  0  0
   57.3970   31.4830   45.0040 C   0  0  0  0  0  0  0  0  0  0  0  0
   58.2210   26.9320   45.3080 C   0  0  0  0  0  0  0  0  0  0  0  0
   59.5430   26.5270   45.4900 C   0  0  0  0  0  0  0  0  0  0  0  0
   60.4340   27.3390   46.1910 C   0  0  0  0  0  0  0  0  0  0  0  0
   60.0050   28.5510   46.7420 C   0  0  0  0  0  0  0  0  0  0  0  0
   60.9680   29.3900   47.3960 N   0  0  0  0  0  0  0  0  0  0  0  0
   61.1550   30.7580   47.0040 C   0  0  0  0  0  0  0  0  0  0  0  0
   60.4820   31.2310   46.0480 O   0  0  0  0  0  0  0  0  0  0  0  0
   62.1490   31.6110   47.6900 C   0  0  0  0  0  0  0  0  0  0  0  0
   62.5810   32.8240   47.1170 C   0  0  0  0  0  0  0  0  0  0  0  0
   63.5200   33.6070   47.7950 C   0  0  0  0  0  0  0  0  0  0  0  0
   64.0240   33.1780   49.0250 C   0  0  0  0  0  0  0  0  0  0  0  0
   63.5790   31.9670   49.5630 C   0  0  0  0  0  0  0  0  0  0  0  0
   62.6630   31.2190   48.8920 N   0  0  0  0  0  0  0  0  0  0  0  0
   58.2270   29.9369   48.4831 H   0  0  0  0  0  0  0  0  0  0  0  0
   58.7514   31.0144   47.1450 H   0  0  0  0  0  0  0  0  0  0  0  0
   57.0930   30.3242   47.1450 H   0  0  0  0  0  0  0  0  0  0  0  0
   56.5376   30.1005   41.9968 H   0  0  0  0  0  0  0  0  0  0  0  0
   57.8055   32.0989   41.2022 H   0  0  0  0  0  0  0  0  0  0  0  0
   57.2883   33.8122   47.0394 H   0  0  0  0  0  0  0  0  0  0  0  0
   58.5013   32.4429   47.1286 H   0  0  0  0  0  0  0  0  0  0  0  0
   58.6484   35.1212   48.2611 H   0  0  0  0  0  0  0  0  0  0  0  0
   59.7205   33.6557   48.4902 H   0  0  0  0  0  0  0  0  0  0  0  0
   58.8929   36.2660   46.3240 H   0  0  0  0  0  0  0  0  0  0  0  0
   60.5322   36.4354   45.6287 H   0  0  0  0  0  0  0  0  0  0  0  0
   58.8287   35.2700   44.1251 H   0  0  0  0  0  0  0  0  0  0  0  0
   60.3375   34.3310   44.4564 H   0  0  0  0  0  0  0  0  0  0  0  0
   57.3378   31.2921   46.0857 H   0  0  0  0  0  0  0  0  0  0  0  0
   57.5287   26.2923   44.7409 H   0  0  0  0  0  0  0  0  0  0  0  0
   59.8837   25.5649   45.0797 H   0  0  0  0  0  0  0  0  0  0  0  0
   61.4811   27.0243   46.3115 H   0  0  0  0  0  0  0  0  0  0  0  0
   61.7070   28.9280   47.9710 H   0  0  0  0  0  0  0  0  0  0  0  0
   62.1830   33.1516   46.1453 H   0  0  0  0  0  0  0  0  0  0  0  0
   63.8610   34.5585   47.3609 H   0  0  0  0  0  0  0  0  0  0  0  0
   64.7638   33.7871   49.5650 H   0  0  0  0  0  0  0  0  0  0  0  0
   63.9703   31.6188   50.5303 H   0  0  0  0  0  0  0  0  0  0  0  0
  1  2  1  0
  2  3  2  0
  3  4  1  0
  4  5  1  0
  5  6  2  0
  5  7  1  0
  7  8  2  0
  8  9  1  0
  9 10  2  0
 10 11  1  0
 11 12  1  0
 12 13  1  0
 13 14  1  0
 14 15  1  0
 15 16  1  0
 16 17  1  0
 11 18  2  0
  3 19  1  0
 19 20  2  0
 20 21  1  0
 21 22  2  0
 22 23  1  0
 23 24  1  0
 24 25  2  0
 24 26  1  0
 26 27  2  0
 27 28  1  0
 28 29  2  0
 29 30  1  0
 30 31  2  0
 22  2  1  0
 31 26  1  0
 18  7  1  0
 17 12  1  0
  1 32  1  0
  1 33  1  0
  1 34  1  0
  8 35  1  0
  9 36  1  0
 13 37  1  0
 13 38  1  0
 14 39  1  0
 14 40  1  0
 16 41  1  0
 16 42  1  0
 17 43  1  0
 17 44  1  0
 18 45  1  0
 19 46  1  0
 20 47  1  0
 21 48  1  0
 23 49  1  0
 27 50  1  0
 28 51  1  0
 29 52  1  0
 30 53  1  0
M  CHG  1   4  -1
M  END
>  <UniqueID>  (64) 
58

>  <SMILES>  (64) 
Cc1c([N-]C(=O)c2ccnc(N3CCOCC3)c2)cccc1NC(=O)c1ccccn1

>  <Energy>  (64) 
79.80363296365265

>  <Genealogy>  (64) 
Cc1c([N-]C(=O)c2ccnc(N3CCOCC3)c2)cccc1NC(=O)c1ccccn1 (protonated)
Cc1c([N-]C(=O)c2ccnc(N3CCOCC3)c2)cccc1NC(=O)c1ccccn1 (3D coordinates assigned)
Cc1c([N-]C(=O)c2ccnc(N3CCOCC3)c2)cccc1NC(=O)c1ccccn1 (nonaromatic ring conformer: 79.80363296365265 kcal/mol)

>  <smiles>  (64) 
Cc1c(NC(=O)c2ccnc(N3CCOCC3)c2)cccc1NC(=O)c1ccccn1

>  <score_type>  (64) 
oracle

>  <origin>  (64) 
adg

>  <m_score__min__energy>  (64) 
-10.289999999999999

>  <m_primary>  (64) 
energy

$$$$
64:0
     RDKit          3D

 45 48  0  0  0  0  0  0  0  0999 V2000
   62.7522   31.0729   46.4108 H   0  0  0  0  0  0  0  0  0  0  0  0
   61.9180   31.1850   47.1190 C   0  0  0  0  0  0  0  0  0  0  0  0
   62.0220   32.0810   48.1830 C   0  0  0  0  0  0  0  0  0  0  0  0
   62.9466   32.6598   48.3245 H   0  0  0  0  0  0  0  0  0  0  0  0
   60.9550   32.2450   49.0690 C   0  0  0  0  0  0  0  0  0  0  0  0
   61.0388   32.9620   49.8990 H   0  0  0  0  0  0  0  0  0  0  0  0
   59.7710   31.4970   48.9060 C   0  0  0  0  0  0  0  0  0  0  0  0
   58.6550   31.6930   49.7340 O   0  0  0  0  0  0  0  0  0  0  0  0
   58.2820   30.8360   50.8090 C   0  0  0  0  0  0  0  0  0  0  0  0
   58.4983   31.3330   51.7662 H   0  0  0  0  0  0  0  0  0  0  0  0
   57.2063   30.6150   50.7455 H   0  0  0  0  0  0  0  0  0  0  0  0
   58.8534   29.8982   50.7455 H   0  0  0  0  0  0  0  0  0  0  0  0
   59.6980   30.5430   47.8650 C   0  0  0  0  0  0  0  0  0  0  0  0
   58.5280   29.7310   47.6570 N   0  0  0  0  0  0  0  0  0  0  0  0
   58.0560   29.2140   46.5510 C   0  0  0  0  0  0  0  0  0  0  0  0
   57.7810   27.8950   46.5900 N   0  0  0  0  0  0  0  0  0  0  0  0
   57.5320   26.9880   45.6190 C   0  0  0  0  0  0  0  0  0  0  0  0
   57.0670   25.7370   46.0590 C   0  0  0  0  0  0  0  0  0  0  0  0
   56.8067   25.6015   47.1191 H   0  0  0  0  0  0  0  0  0  0  0  0
   56.9290   24.6660   45.1810 C   0  0  0  0  0  0  0  0  0  0  0  0
   56.5379   23.7036   45.5427 H   0  0  0  0  0  0  0  0  0  0  0  0
   57.2860   24.8150   43.8480 C   0  0  0  0  0  0  0  0  0  0  0  0
   57.1893   23.9673   43.1537 H   0  0  0  0  0  0  0  0  0  0  0  0
   57.7670   26.0400   43.3910 C   0  0  0  0  0  0  0  0  0  0  0  0
   58.0658   26.1404   42.3371 H   0  0  0  0  0  0  0  0  0  0  0  0
   57.8800   27.1570   44.2500 C   0  0  0  0  0  0  0  0  0  0  0  0
   58.3430   28.3200   43.7020 N   0  0  0  0  0  0  0  0  0  0  0  0
   58.6860   28.2700   42.7130 H   0  0  0  0  0  0  0  0  0  0  0  0
   58.1550   29.5920   44.1320 C   0  0  0  0  0  0  0  0  0  0  0  0
   58.3169   30.3890   43.3913 H   0  0  0  0  0  0  0  0  0  0  0  0
   57.7800   29.9980   45.4070 C   0  0  0  0  0  0  0  0  0  0  0  0
   57.2570   31.1960   45.4860 N   0  0  0  0  0  0  0  0  0  0  0  0
   57.9090   32.4700   45.6270 C   0  0  0  0  0  0  0  0  0  0  0  0
   58.5930   33.0750   44.5570 C   0  0  0  0  0  0  0  0  0  0  0  0
   58.6235   32.5793   43.5755 H   0  0  0  0  0  0  0  0  0  0  0  0
   59.2340   34.3040   44.7370 C   0  0  0  0  0  0  0  0  0  0  0  0
   59.7522   34.7825   43.8929 H   0  0  0  0  0  0  0  0  0  0  0  0
   59.2170   34.9260   45.9900 C   0  0  0  0  0  0  0  0  0  0  0  0
   59.8360   36.1200   46.1630 F   0  0  0  0  0  0  0  0  0  0  0  0
   58.5710   34.3110   47.0660 C   0  0  0  0  0  0  0  0  0  0  0  0
   58.5662   34.7956   48.0535 H   0  0  0  0  0  0  0  0  0  0  0  0
   57.9310   33.0810   46.8890 C   0  0  0  0  0  0  0  0  0  0  0  0
   57.4424   32.5901   47.7436 H   0  0  0  0  0  0  0  0  0  0  0  0
   60.7560   30.4310   46.9530 C   0  0  0  0  0  0  0  0  0  0  0  0
   60.6696   29.7429   46.0992 H   0  0  0  0  0  0  0  0  0  0  0  0
  1  2  1  0
  2  3  2  0
  3  4  1  0
  3  5  1  0
  5  6  1  0
  5  7  2  0
  7  8  1  0
  8  9  1  0
  9 10  1  0
  9 11  1  0
  9 12  1  0
  7 13  1  0
 13 14  1  0
 14 15  2  0
 15 16  1  0
 16 17  1  0
 17 18  2  0
 18 19  1  0
 18 20  1  0
 20 21  1  0
 20 22  2  0
 22 23  1  0
 22 24  1  0
 24 25  1  0
 24 26  2  0
 26 27  1  0
 27 28  1  0
 27 29  2  0
 29 30  1  0
 29 31  1  0
 31 32  2  0
 32 33  1  0
 33 34  2  0
 34 35  1  0
 34 36  1  0
 36 37  1  0
 36 38  2  0
 38 39  1  0
 38 40  1  0
 40 41  1  0
 40 42  2  0
 42 43  1  0
 13 44  2  0
 44 45  1  0
 44  2  1  0
 31 15  1  0
 42 33  1  0
 26 17  1  0
M  CHG  2  16  -1  27   1
M  END
>  <UniqueID>  (65) 
59

>  <SMILES>  (65) 
COc1ccccc1/N=c1/[n-]c2ccccc2[nH+]c/c1=N/c1ccc(F)cc1

>  <Energy>  (65) 
108.97013871909061

>  <Genealogy>  (65) 
COc1ccccc1N=c1[n-]c2ccccc2[nH+]cc1=Nc1ccc(F)cc1 (protonated)
COc1ccccc1/N=c1/[n-]c2ccccc2[nH+]c/c1=N/c1ccc(F)cc1 (cis-trans isomerization)
COc1ccccc1/N=c1/[n-]c2ccccc2[nH+]c/c1=N/c1ccc(F)cc1 (3D coordinates assigned)
COc1ccccc1/N=c1/[n-]c2ccccc2[nH+]c/c1=N/c1ccc(F)cc1 (optimized conformer: 108.97013871909061 kcal/mol)

>  <smiles>  (65) 
COc1ccccc1N=c1[nH]c2ccccc2ncc1=Nc1ccc(F)cc1

>  <score_type>  (65) 
oracle

>  <origin>  (65) 
adg

>  <m_score__min__energy>  (65) 
-7.4299999999999997

>  <m_primary>  (65) 
energy

$$$$
65:0
     RDKit          3D

 42 44  0  0  0  0  0  0  0  0999 V2000
   57.0200   26.8230   46.4140 C   0  0  0  0  0  0  0  0  0  0  0  0
   58.0720   26.5390   47.3800 N   0  0  0  0  0  0  0  0  0  0  0  0
   59.4370   26.9400   47.2130 C   0  0  0  0  0  0  0  0  0  0  0  0
   60.2670   26.1170   46.7460 O   0  0  0  0  0  0  0  0  0  0  0  0
   59.8820   28.3060   47.5370 C   0  0  0  0  0  0  0  0  0  0  0  0
   59.8330   28.7540   48.8610 C   0  0  0  0  0  0  0  0  0  0  0  0
   60.2970   29.9910   49.1810 N   0  0  0  0  0  0  0  0  0  0  0  0
   60.8050   30.8100   48.2230 C   0  0  0  0  0  0  0  0  0  0  0  0
   61.4940   32.4070   48.6600 S   0  0  0  0  0  0  0  0  0  0  0  0
   61.4390   33.0660   46.9540 C   0  0  0  0  0  0  0  0  0  0  0  0
   60.0450   33.4950   46.5800 C   0  0  0  0  0  0  0  0  0  0  0  0
   59.8050   34.1520   45.3600 C   0  0  0  0  0  0  0  0  0  0  0  0
   58.5010   34.4890   44.9860 C   0  0  0  0  0  0  0  0  0  0  0  0
   57.4290   34.1770   45.8250 C   0  0  0  0  0  0  0  0  0  0  0  0
   57.6600   33.5280   47.0410 C   0  0  0  0  0  0  0  0  0  0  0  0
   58.9620   33.1860   47.4190 C   0  0  0  0  0  0  0  0  0  0  0  0
   60.8330   30.4070   46.9280 N   0  0  0  0  0  0  0  0  0  0  0  0
   60.3820   29.1820   46.5580 C   0  0  0  0  0  0  0  0  0  0  0  0
   60.4380   28.7360   44.8180 S   0  0  0  0  0  0  0  0  0  0  0  0
   58.8170   29.4390   44.4860 C   0  0  0  0  0  0  0  0  0  0  0  0
   58.5260   30.7290   44.9480 C   0  0  0  0  0  0  0  0  0  0  0  0
   57.2760   31.3010   44.6970 C   0  0  0  0  0  0  0  0  0  0  0  0
   56.3090   30.5860   43.9870 C   0  0  0  0  0  0  0  0  0  0  0  0
   56.5890   29.2940   43.5310 C   0  0  0  0  0  0  0  0  0  0  0  0
   57.8380   28.7140   43.7800 C   0  0  0  0  0  0  0  0  0  0  0  0
   58.1440   27.0810   43.1970 Cl  0  0  0  0  0  0  0  0  0  0  0  0
   56.0909   27.0738   46.9468 H   0  0  0  0  0  0  0  0  0  0  0  0
   57.3213   27.6720   45.7827 H   0  0  0  0  0  0  0  0  0  0  0  0
   56.8531   25.9378   45.7827 H   0  0  0  0  0  0  0  0  0  0  0  0
   59.4180   28.1038   49.6452 H   0  0  0  0  0  0  0  0  0  0  0  0
   60.2780   30.3030   50.1780 H   0  0  0  0  0  0  0  0  0  0  0  0
   62.1124   33.9328   46.8824 H   0  0  0  0  0  0  0  0  0  0  0  0
   61.7555   32.2706   46.2633 H   0  0  0  0  0  0  0  0  0  0  0  0
   60.6468   34.4017   44.6974 H   0  0  0  0  0  0  0  0  0  0  0  0
   58.3189   35.0007   44.0294 H   0  0  0  0  0  0  0  0  0  0  0  0
   56.4033   34.4420   45.5289 H   0  0  0  0  0  0  0  0  0  0  0  0
   56.8152   33.2856   47.7025 H   0  0  0  0  0  0  0  0  0  0  0  0
   59.1385   32.6735   48.3762 H   0  0  0  0  0  0  0  0  0  0  0  0
   59.2842   31.2937   45.5104 H   0  0  0  0  0  0  0  0  0  0  0  0
   57.0534   32.3156   45.0590 H   0  0  0  0  0  0  0  0  0  0  0  0
   55.3270   31.0392   43.7864 H   0  0  0  0  0  0  0  0  0  0  0  0
   55.8247   28.7316   42.9746 H   0  0  0  0  0  0  0  0  0  0  0  0
  1  2  1  0
  2  3  1  0
  3  4  2  0
  3  5  1  0
  5  6  2  0
  6  7  1  0
  7  8  2  0
  8  9  1  0
  9 10  1  0
 10 11  1  0
 11 12  2  0
 12 13  1  0
 13 14  2  0
 14 15  1  0
 15 16  2  0
  8 17  1  0
 17 18  2  0
 18 19  1  0
 19 20  1  0
 20 21  2  0
 21 22  1  0
 22 23  2  0
 23 24  1  0
 24 25  2  0
 25 26  1  0
 18  5  1  0
 25 20  1  0
 16 11  1  0
  1 27  1  0
  1 28  1  0
  1 29  1  0
  6 30  1  0
  7 31  1  0
 10 32  1  0
 10 33  1  0
 12 34  1  0
 13 35  1  0
 14 36  1  0
 15 37  1  0
 16 38  1  0
 21 39  1  0
 22 40  1  0
 23 41  1  0
 24 42  1  0
M  CHG  2   2  -1   7   1
M  END
>  <UniqueID>  (66) 
60

>  <SMILES>  (66) 
C[N-]C(=O)c1c[nH+]c(SCc2ccccc2)nc1Sc1ccccc1Cl

>  <Energy>  (66) 
39.448459771595225

>  <Genealogy>  (66) 
C[N-]C(=O)c1c[nH+]c(SCc2ccccc2)nc1Sc1ccccc1Cl (protonated)
C[N-]C(=O)c1c[nH+]c(SCc2ccccc2)nc1Sc1ccccc1Cl (3D coordinates assigned)
C[N-]C(=O)c1c[nH+]c(SCc2ccccc2)nc1Sc1ccccc1Cl (optimized conformer: 39.448459771595225 kcal/mol)

>  <smiles>  (66) 
CNC(=O)c1cnc(SCc2ccccc2)nc1Sc1ccccc1Cl

>  <score_type>  (66) 
oracle

>  <origin>  (66) 
adg

>  <m_score__min__energy>  (66) 
-8.8100000000000005

>  <m_primary>  (66) 
energy

$$$$
66:0
     RDKit          3D

 54 56  0  0  0  0  0  0  0  0999 V2000
   63.8570   32.3190   48.2740 C   0  0  0  0  0  0  0  0  0  0  0  0
   62.7810   31.7610   47.5250 O   0  0  0  0  0  0  0  0  0  0  0  0
   61.6420   32.4780   47.1170 C   0  0  0  0  0  0  0  0  0  0  0  0
   61.6570   33.8730   46.9150 C   0  0  0  0  0  0  0  0  0  0  0  0
   60.5040   34.5370   46.4900 C   0  0  0  0  0  0  0  0  0  0  0  0
   59.3090   33.8250   46.2700 C   0  0  0  0  0  0  0  0  0  0  0  0
   58.1560   34.4580   45.7770 O   0  0  0  0  0  0  0  0  0  0  0  0
   57.4590   34.0650   44.6000 C   0  0  0  0  0  0  0  0  0  0  0  0
   59.2790   32.4370   46.5230 C   0  0  0  0  0  0  0  0  0  0  0  0
   58.0720   31.6730   46.3940 N   0  0  0  0  0  0  0  0  0  0  0  0
   57.6520   30.7950   44.9580 S   0  0  0  0  0  0  0  0  0  0  0  0
   56.2730   31.1840   44.5010 O   0  0  0  0  0  0  0  0  0  0  0  0
   58.6330   31.1280   43.8690 O   0  0  0  0  0  0  0  0  0  0  0  0
   57.7450   29.0680   45.2890 C   0  0  0  0  0  0  0  0  0  0  0  0
   58.9640   28.5110   45.6950 C   0  0  0  0  0  0  0  0  0  0  0  0
   59.0410   27.1600   46.0390 C   0  0  0  0  0  0  0  0  0  0  0  0
   57.8940   26.3480   45.9910 C   0  0  0  0  0  0  0  0  0  0  0  0
   57.9640   24.9290   46.4090 C   0  0  0  0  0  0  0  0  0  0  0  0
   58.1290   24.6480   47.6270 O   0  0  0  0  0  0  0  0  0  0  0  0
   57.8630   23.8670   45.4450 N   0  0  0  0  0  0  0  0  0  0  0  0
   56.6540   23.7740   44.6110 C   0  0  0  0  0  0  0  0  0  0  0  0
   55.8600   22.4810   44.8680 C   0  0  0  0  0  0  0  0  0  0  0  0
   56.6360   21.2270   44.4390 C   0  0  0  0  0  0  0  0  0  0  0  0
   57.8060   21.5080   43.4750 C   0  0  0  0  0  0  0  0  0  0  0  0
   59.0460   22.1800   44.0940 C   0  0  0  0  0  0  0  0  0  0  0  0
   58.8180   22.7500   45.5020 C   0  0  0  0  0  0  0  0  0  0  0  0
   56.6720   26.9110   45.5840 C   0  0  0  0  0  0  0  0  0  0  0  0
   56.6000   28.2600   45.2250 C   0  0  0  0  0  0  0  0  0  0  0  0
   60.4510   31.7730   46.9110 C   0  0  0  0  0  0  0  0  0  0  0  0
   63.6499   32.2116   49.3490 H   0  0  0  0  0  0  0  0  0  0  0  0
   64.7894   31.7908   48.0256 H   0  0  0  0  0  0  0  0  0  0  0  0
   63.9624   33.3854   48.0256 H   0  0  0  0  0  0  0  0  0  0  0  0
   62.5816   34.4417   47.0930 H   0  0  0  0  0  0  0  0  0  0  0  0
   60.5295   35.6244   46.3259 H   0  0  0  0  0  0  0  0  0  0  0  0
   56.5323   33.5425   44.8798 H   0  0  0  0  0  0  0  0  0  0  0  0
   57.2118   34.9567   44.0052 H   0  0  0  0  0  0  0  0  0  0  0  0
   58.0941   33.3920   44.0052 H   0  0  0  0  0  0  0  0  0  0  0  0
   59.8648   29.1406   45.7431 H   0  0  0  0  0  0  0  0  0  0  0  0
   60.0041   26.7285   46.3492 H   0  0  0  0  0  0  0  0  0  0  0  0
   56.0064   24.6355   44.8310 H   0  0  0  0  0  0  0  0  0  0  0  0
   56.9733   23.7670   43.5584 H   0  0  0  0  0  0  0  0  0  0  0  0
   55.6383   22.4095   45.9430 H   0  0  0  0  0  0  0  0  0  0  0  0
   54.9376   22.5275   44.2705 H   0  0  0  0  0  0  0  0  0  0  0  0
   57.0405   20.7458   45.3417 H   0  0  0  0  0  0  0  0  0  0  0  0
   55.9259   20.5855   43.8965 H   0  0  0  0  0  0  0  0  0  0  0  0
   58.1242   20.5476   43.0434 H   0  0  0  0  0  0  0  0  0  0  0  0
   57.4167   22.2263   42.7385 H   0  0  0  0  0  0  0  0  0  0  0  0
   59.8509   21.4324   44.1509 H   0  0  0  0  0  0  0  0  0  0  0  0
   59.2997   23.0319   43.4460 H   0  0  0  0  0  0  0  0  0  0  0  0
   58.4161   21.9603   46.1538 H   0  0  0  0  0  0  0  0  0  0  0  0
   59.7754   23.1142   45.9030 H   0  0  0  0  0  0  0  0  0  0  0  0
   55.7672   26.2864   45.5478 H   0  0  0  0  0  0  0  0  0  0  0  0
   55.6435   28.6889   44.8916 H   0  0  0  0  0  0  0  0  0  0  0  0
   60.4342   30.6827   47.0555 H   0  0  0  0  0  0  0  0  0  0  0  0
  1  2  1  0
  2  3  1  0
  3  4  2  0
  4  5  1  0
  5  6  2  0
  6  7  1  0
  7  8  1  0
  6  9  1  0
  9 10  1  0
 10 11  1  0
 11 12  2  0
 11 13  2  0
 11 14  1  0
 14 15  2  0
 15 16  1  0
 16 17  2  0
 17 18  1  0
 18 19  2  0
 18 20  1  0
 20 21  1  0
 21 22  1  0
 22 23  1  0
 23 24  1  0
 24 25  1  0
 25 26  1  0
 17 27  1  0
 27 28  2  0
  9 29  2  0
 29  3  1  0
 28 14  1  0
 26 20  1  0
  1 30  1  0
  1 31  1  0
  1 32  1  0
  4 33  1  0
  5 34  1  0
  8 35  1  0
  8 36  1  0
  8 37  1  0
 15 38  1  0
 16 39  1  0
 21 40  1  0
 21 41  1  0
 22 42  1  0
 22 43  1  0
 23 44  1  0
 23 45  1  0
 24 46  1  0
 24 47  1  0
 25 48  1  0
 25 49  1  0
 26 50  1  0
 26 51  1  0
 27 52  1  0
 28 53  1  0
 29 54  1  0
M  CHG  1  10  -1
M  END
>  <UniqueID>  (67) 
61

>  <SMILES>  (67) 
COc1ccc(OC)c([N-]S(=O)(=O)c2ccc(C(=O)N3CCCCCC3)cc2)c1

>  <Energy>  (67) 
67.589674051135

>  <Genealogy>  (67) 
COc1ccc(OC)c([N-]S(=O)(=O)c2ccc(C(=O)N3CCCCCC3)cc2)c1 (protonated)
COc1ccc(OC)c([N-]S(=O)(=O)c2ccc(C(=O)N3CCCCCC3)cc2)c1 (3D coordinates assigned)
COc1ccc(OC)c([N-]S(=O)(=O)c2ccc(C(=O)N3CCCCCC3)cc2)c1 (nonaromatic ring conformer: 67.589674051135 kcal/mol)

>  <smiles>  (67) 
COc1ccc(OC)c(NS(=O)(=O)c2ccc(C(=O)N3CCCCCC3)cc2)c1

>  <score_type>  (67) 
oracle

>  <origin>  (67) 
adg

>  <m_score__min__energy>  (67) 
-9.4199999999999999

>  <m_primary>  (67) 
energy

$$$$
67:0
     RDKit          3D

 44 46  0  0  0  0  0  0  0  0999 V2000
   56.9490   26.7390   45.6420 C   0  0  0  0  0  0  0  0  0  0  0  0
   56.1930   27.9370   45.4910 O   0  0  0  0  0  0  0  0  0  0  0  0
   56.7400   29.1840   45.1510 C   0  0  0  0  0  0  0  0  0  0  0  0
   56.2930   29.9180   44.0370 C   0  0  0  0  0  0  0  0  0  0  0  0
   56.8530   31.1610   43.7380 C   0  0  0  0  0  0  0  0  0  0  0  0
   57.8690   31.6950   44.5430 C   0  0  0  0  0  0  0  0  0  0  0  0
   58.4500   33.0500   44.2240 C   0  0  0  0  0  0  0  0  0  0  0  0
   57.7840   34.1300   45.0380 C   0  0  0  0  0  0  0  0  0  0  0  0
   56.6960   34.6120   44.6220 O   0  0  0  0  0  0  0  0  0  0  0  0
   58.2780   34.5660   46.3160 N   0  0  0  0  0  0  0  0  0  0  0  0
   59.4290   34.2910   46.8540 C   0  0  0  0  0  0  0  0  0  0  0  0
   60.5770   34.1190   46.1540 N   0  0  0  0  0  0  0  0  0  0  0  0
   61.6120   33.8450   46.9860 C   0  0  0  0  0  0  0  0  0  0  0  0
   62.9170   33.5970   46.5630 C   0  0  0  0  0  0  0  0  0  0  0  0
   63.8960   33.3090   47.5280 C   0  0  0  0  0  0  0  0  0  0  0  0
   63.5660   33.2790   48.9020 C   0  0  0  0  0  0  0  0  0  0  0  0
   64.8030   32.8860   50.0900 S   0  0  0  0  0  0  0  0  0  0  0  0
   64.3880   31.3500   50.8830 C   0  0  0  0  0  0  0  0  0  0  0  0
   64.8890   33.9750   51.1220 O   0  0  0  0  0  0  0  0  0  0  0  0
   66.1360   32.7600   49.4070 O   0  0  0  0  0  0  0  0  0  0  0  0
   62.2420   33.5320   49.3120 C   0  0  0  0  0  0  0  0  0  0  0  0
   61.2920   33.8120   48.3340 C   0  0  0  0  0  0  0  0  0  0  0  0
   59.6560   34.1380   48.5240 S   0  0  0  0  0  0  0  0  0  0  0  0
   58.3340   30.9530   45.6400 C   0  0  0  0  0  0  0  0  0  0  0  0
   57.7640   29.7050   45.9580 C   0  0  0  0  0  0  0  0  0  0  0  0
   58.1850   28.9560   47.0690 O   0  0  0  0  0  0  0  0  0  0  0  0
   59.3560   29.2310   47.8320 C   0  0  0  0  0  0  0  0  0  0  0  0
   57.0849   26.5236   46.7121 H   0  0  0  0  0  0  0  0  0  0  0  0
   56.4134   25.9049   45.1652 H   0  0  0  0  0  0  0  0  0  0  0  0
   57.9325   26.8635   45.1652 H   0  0  0  0  0  0  0  0  0  0  0  0
   55.4968   29.5095   43.3974 H   0  0  0  0  0  0  0  0  0  0  0  0
   56.4947   31.7256   42.8646 H   0  0  0  0  0  0  0  0  0  0  0  0
   59.5265   33.0418   44.4499 H   0  0  0  0  0  0  0  0  0  0  0  0
   58.2810   33.2610   43.1577 H   0  0  0  0  0  0  0  0  0  0  0  0
   63.1750   33.6263   45.4941 H   0  0  0  0  0  0  0  0  0  0  0  0
   64.9295   33.1048   47.2114 H   0  0  0  0  0  0  0  0  0  0  0  0
   64.4231   31.4798   51.9748 H   0  0  0  0  0  0  0  0  0  0  0  0
   63.3750   31.0442   50.5825 H   0  0  0  0  0  0  0  0  0  0  0  0
   65.1091   30.5756   50.5825 H   0  0  0  0  0  0  0  0  0  0  0  0
   61.9664   33.5089   50.3767 H   0  0  0  0  0  0  0  0  0  0  0  0
   59.1525   31.3506   46.2580 H   0  0  0  0  0  0  0  0  0  0  0  0
   59.1166   29.1748   48.9042 H   0  0  0  0  0  0  0  0  0  0  0  0
   60.1332   28.4909   47.5905 H   0  0  0  0  0  0  0  0  0  0  0  0
   59.7225   30.2396   47.5905 H   0  0  0  0  0  0  0  0  0  0  0  0
  1  2  1  0
  2  3  1  0
  3  4  2  0
  4  5  1  0
  5  6  2  0
  6  7  1  0
  7  8  1  0
  8  9  2  0
  8 10  1  0
 10 11  2  3
 11 12  1  0
 12 13  1  0
 13 14  2  0
 14 15  1  0
 15 16  2  0
 16 17  1  0
 17 18  1  0
 17 19  2  0
 17 20  2  0
 16 21  1  0
 21 22  2  0
 22 23  1  0
  6 24  1  0
 24 25  2  0
 25 26  1  0
 26 27  1  0
 25  3  1  0
 23 11  1  0
 22 13  1  0
  1 28  1  0
  1 29  1  0
  1 30  1  0
  4 31  1  0
  5 32  1  0
  7 33  1  0
  7 34  1  0
 14 35  1  0
 15 36  1  0
 18 37  1  0
 18 38  1  0
 18 39  1  0
 21 40  1  0
 24 41  1  0
 27 42  1  0
 27 43  1  0
 27 44  1  0
M  CHG  1  12  -1
M  END
>  <UniqueID>  (68) 
62

>  <SMILES>  (68) 
COc1ccc(CC(=O)N=c2[n-]c3ccc(S(C)(=O)=O)cc3s2)cc1OC

>  <Energy>  (68) 
78.54491857393525

>  <Genealogy>  (68) 
COc1ccc(CC(=O)N=c2[n-]c3ccc(S(C)(=O)=O)cc3s2)cc1OC (protonated)
COc1ccc(CC(=O)N=c2[n-]c3ccc(S(C)(=O)=O)cc3s2)cc1OC (3D coordinates assigned)
COc1ccc(CC(=O)N=c2[n-]c3ccc(S(C)(=O)=O)cc3s2)cc1OC (optimized conformer: 78.54491857393525 kcal/mol)

>  <smiles>  (68) 
COc1ccc(CC(=O)N=c2[nH]c3ccc(S(C)(=O)=O)cc3s2)cc1OC

>  <score_type>  (68) 
oracle

>  <origin>  (68) 
adg

>  <m_score__min__energy>  (68) 
-9.8499999999999996

>  <m_primary>  (68) 
energy

$$$$
68:0
     RDKit          3D

 55 59  0  0  0  0  0  0  0  0999 V2000
   55.9318   32.0438   43.7448 H   0  0  0  0  0  0  0  0  0  0  0  0
   56.6210   31.6130   44.4860 C   0  0  0  0  0  0  0  0  0  0  0  0
   56.6140   30.2750   44.7230 N   0  0  0  0  0  0  0  0  0  0  0  0
   57.4530   29.7120   45.6370 C   0  0  0  0  0  0  0  0  0  0  0  0
   57.4350   28.4340   45.8800 N   0  0  0  0  0  0  0  0  0  0  0  0
   57.5020   27.3550   44.9320 C   0  0  0  0  0  0  0  0  0  0  0  0
   57.3580   26.0680   45.2980 N   0  0  0  0  0  0  0  0  0  0  0  0
   57.5230   25.3330   44.2110 N   0  0  0  0  0  0  0  0  0  0  0  0
   57.3790   23.8820   44.1820 C   0  0  0  0  0  0  0  0  0  0  0  0
   57.9037   23.4460   45.0449 H   0  0  0  0  0  0  0  0  0  0  0  0
   57.8122   23.4935   43.2485 H   0  0  0  0  0  0  0  0  0  0  0  0
   55.9300   23.5130   44.2440 C   0  0  0  0  0  0  0  0  0  0  0  0
   55.5260   22.4700   43.6620 O   0  0  0  0  0  0  0  0  0  0  0  0
   55.0020   24.3630   44.9290 N   0  0  0  0  0  0  0  0  0  0  0  0
   55.3520   25.2300   45.3980 H   0  0  0  0  0  0  0  0  0  0  0  0
   53.5780   24.0570   44.9870 C   0  0  0  0  0  0  0  0  0  0  0  0
   53.2601   23.9887   46.0379 H   0  0  0  0  0  0  0  0  0  0  0  0
   53.0109   24.8538   44.4835 H   0  0  0  0  0  0  0  0  0  0  0  0
   53.3883   23.0976   44.4835 H   0  0  0  0  0  0  0  0  0  0  0  0
   57.7690   26.1240   43.1490 C   0  0  0  0  0  0  0  0  0  0  0  0
   57.9361   25.7814   42.1172 H   0  0  0  0  0  0  0  0  0  0  0  0
   57.7760   27.4370   43.5740 C   0  0  0  0  0  0  0  0  0  0  0  0
   57.9572   28.3410   42.9741 H   0  0  0  0  0  0  0  0  0  0  0  0
   58.3050   30.5030   46.3400 N   0  0  0  0  0  0  0  0  0  0  0  0
   58.3410   31.8440   46.1420 C   0  0  0  0  0  0  0  0  0  0  0  0
   57.5040   32.4420   45.1840 C   0  0  0  0  0  0  0  0  0  0  0  0
   57.4560   33.9550   45.0180 C   0  0  0  0  0  0  0  0  0  0  0  0
   57.1983   34.1828   43.9732 H   0  0  0  0  0  0  0  0  0  0  0  0
   56.7038   34.3348   45.7251 H   0  0  0  0  0  0  0  0  0  0  0  0
   58.7960   34.6560   45.3570 C   0  0  0  0  0  0  0  0  0  0  0  0
   59.4739   34.5734   44.4946 H   0  0  0  0  0  0  0  0  0  0  0  0
   58.5919   35.7125   45.5855 H   0  0  0  0  0  0  0  0  0  0  0  0
   59.4430   34.0240   46.5520 C   0  0  0  0  0  0  0  0  0  0  0  0
   60.3720   34.5830   47.3490 N   0  0  0  0  0  0  0  0  0  0  0  0
   60.7650   33.6460   48.2040 N   0  0  0  0  0  0  0  0  0  0  0  0
   61.7710   33.8780   49.2340 C   0  0  0  0  0  0  0  0  0  0  0  0
   61.3102   33.7717   50.2272 H   0  0  0  0  0  0  0  0  0  0  0  0
   62.5826   33.1435   49.1259 H   0  0  0  0  0  0  0  0  0  0  0  0
   62.1790   34.8938   49.1259 H   0  0  0  0  0  0  0  0  0  0  0  0
   60.1180   32.4810   47.9460 C   0  0  0  0  0  0  0  0  0  0  0  0
   60.2790   31.1980   48.7220 C   0  0  0  0  0  0  0  0  0  0  0  0
   60.0945   30.3475   48.0493 H   0  0  0  0  0  0  0  0  0  0  0  0
   61.3022   31.1632   49.1243 H   0  0  0  0  0  0  0  0  0  0  0  0
   59.3130   31.1280   49.8770 C   0  0  0  0  0  0  0  0  0  0  0  0
   59.0260   29.8970   50.4950 C   0  0  0  0  0  0  0  0  0  0  0  0
   59.5165   28.9788   50.1396 H   0  0  0  0  0  0  0  0  0  0  0  0
   58.1210   29.8350   51.5580 C   0  0  0  0  0  0  0  0  0  0  0  0
   57.9089   28.8707   52.0429 H   0  0  0  0  0  0  0  0  0  0  0  0
   57.4850   30.9960   52.0060 C   0  0  0  0  0  0  0  0  0  0  0  0
   56.7766   30.9461   52.8461 H   0  0  0  0  0  0  0  0  0  0  0  0
   57.7490   32.2190   51.3870 C   0  0  0  0  0  0  0  0  0  0  0  0
   57.2452   33.1316   51.7382 H   0  0  0  0  0  0  0  0  0  0  0  0
   58.6520   32.2870   50.3220 C   0  0  0  0  0  0  0  0  0  0  0  0
   58.8465   33.2513   49.8298 H   0  0  0  0  0  0  0  0  0  0  0  0
   59.2680   32.7070   46.8800 C   0  0  0  0  0  0  0  0  0  0  0  0
  1  2  1  0
  2  3  1  0
  3  4  1  0
  4  5  2  0
  5  6  1  0
  6  7  2  0
  7  8  1  0
  8  9  1  0
  9 10  1  0
  9 11  1  0
  9 12  1  0
 12 13  2  0
 12 14  1  0
 14 15  1  0
 14 16  1  0
 16 17  1  0
 16 18  1  0
 16 19  1  0
  8 20  1  0
 20 21  1  0
 20 22  2  0
 22 23  1  0
  4 24  1  0
 24 25  2  0
 25 26  1  0
 26 27  1  0
 27 28  1  0
 27 29  1  0
 27 30  1  0
 30 31  1  0
 30 32  1  0
 30 33  1  0
 33 34  2  0
 34 35  1  0
 35 36  1  0
 36 37  1  0
 36 38  1  0
 36 39  1  0
 35 40  1  0
 40 41  1  0
 41 42  1  0
 41 43  1  0
 41 44  1  0
 44 45  2  0
 45 46  1  0
 45 47  1  0
 47 48  1  0
 47 49  2  0
 49 50  1  0
 49 51  1  0
 51 52  1  0
 51 53  2  0
 53 54  1  0
 40 55  2  0
 26  2  2  0
 55 33  1  0
 22  6  1  0
 55 25  1  0
 53 44  1  0
M  CHG  1   3  -1
M  END
>  <UniqueID>  (69) 
63

>  <SMILES>  (69) 
CNC(=O)Cn1ccc(/N=c2/nc3c(c[n-]2)CCc2nn(C)c(Cc4ccccc4)c2-3)n1

>  <Energy>  (69) 
124.07368140752541

>  <Genealogy>  (69) 
CNC(=O)Cn1ccc(N=c2nc3c(c[n-]2)CCc2nn(C)c(Cc4ccccc4)c2-3)n1 (protonated)
CNC(=O)Cn1ccc(/N=c2/nc3c(c[n-]2)CCc2nn(C)c(Cc4ccccc4)c2-3)n1 (cis-trans isomerization)
CNC(=O)Cn1ccc(/N=c2/nc3c(c[n-]2)CCc2nn(C)c(Cc4ccccc4)c2-3)n1 (3D coordinates assigned)
CNC(=O)Cn1ccc(/N=c2/nc3c(c[n-]2)CCc2nn(C)c(Cc4ccccc4)c2-3)n1 (nonaromatic ring conformer: 124.07368140752541 kcal/mol)

>  <smiles>  (69) 
CNC(=O)Cn1ccc(N=c2nc3c(c[nH]2)CCc2nn(C)c(Cc4ccccc4)c2-3)n1

>  <score_type>  (69) 
oracle

>  <origin>  (69) 
adg

>  <m_score__min__energy>  (69) 
-10.529999999999999

>  <m_primary>  (69) 
energy

$$$$
69:0
     RDKit          3D

 47 50  0  0  0  0  0  0  0  0999 V2000
   58.3440   33.8110   47.0250 C   0  0  0  0  0  0  0  0  0  0  0  0
   59.1600   33.3230   48.0840 O   0  0  0  0  0  0  0  0  0  0  0  0
   60.5150   32.9780   47.9520 C   0  0  0  0  0  0  0  0  0  0  0  0
   61.5460   33.9110   48.1840 C   0  0  0  0  0  0  0  0  0  0  0  0
   62.8820   33.5450   48.0100 C   0  0  0  0  0  0  0  0  0  0  0  0
   63.2080   32.2510   47.6030 C   0  0  0  0  0  0  0  0  0  0  0  0
   62.1980   31.3160   47.3740 C   0  0  0  0  0  0  0  0  0  0  0  0
   60.8490   31.6660   47.5540 C   0  0  0  0  0  0  0  0  0  0  0  0
   59.8240   30.6850   47.3260 N   0  0  0  0  0  0  0  0  0  0  0  0
   59.5220   29.6220   48.1040 C   0  0  0  0  0  0  0  0  0  0  0  0
   60.1790   29.3100   49.2880 O   0  0  0  0  0  0  0  0  0  0  0  0
   58.5020   28.8720   47.5510 C   0  0  0  0  0  0  0  0  0  0  0  0
   58.1770   29.5080   46.3680 C   0  0  0  0  0  0  0  0  0  0  0  0
   56.9370   28.9830   45.1880 S   0  0  0  0  0  0  0  0  0  0  0  0
   57.1270   27.2620   45.6360 C   0  0  0  0  0  0  0  0  0  0  0  0
   58.3170   26.5680   45.7300 C   0  0  0  0  0  0  0  0  0  0  0  0
   57.9700   25.2910   46.1260 C   0  0  0  0  0  0  0  0  0  0  0  0
   58.8750   24.2530   46.3180 O   0  0  0  0  0  0  0  0  0  0  0  0
   56.6320   25.1720   46.2800 N   0  0  0  0  0  0  0  0  0  0  0  0
   55.9040   23.9980   46.6870 C   0  0  0  0  0  0  0  0  0  0  0  0
   54.8420   23.5120   45.9070 C   0  0  0  0  0  0  0  0  0  0  0  0
   54.1360   22.3730   46.3040 C   0  0  0  0  0  0  0  0  0  0  0  0
   54.4780   21.7080   47.4880 C   0  0  0  0  0  0  0  0  0  0  0  0
   53.5960   20.2640   47.9760 S   0  0  0  0  0  0  0  0  0  0  0  0
   52.8670   19.5360   46.5900 N   0  0  0  0  0  0  0  0  0  0  0  0
   52.5270   20.6340   48.9670 O   0  0  0  0  0  0  0  0  0  0  0  0
   54.5350   19.2850   48.6230 O   0  0  0  0  0  0  0  0  0  0  0  0
   55.5400   22.1850   48.2670 C   0  0  0  0  0  0  0  0  0  0  0  0
   56.2470   23.3240   47.8710 C   0  0  0  0  0  0  0  0  0  0  0  0
   56.1200   26.3830   45.9790 C   0  0  0  0  0  0  0  0  0  0  0  0
   54.7690   26.7030   46.0400 O   0  0  0  0  0  0  0  0  0  0  0  0
   59.0040   30.6060   46.2600 C   0  0  0  0  0  0  0  0  0  0  0  0
   58.9960   31.5140   45.2080 O   0  0  0  0  0  0  0  0  0  0  0  0
   57.4715   34.3328   47.4450 H   0  0  0  0  0  0  0  0  0  0  0  0
   58.9259   34.5095   46.4057 H   0  0  0  0  0  0  0  0  0  0  0  0
   58.0039   32.9679   46.4057 H   0  0  0  0  0  0  0  0  0  0  0  0
   61.2964   34.9334   48.5040 H   0  0  0  0  0  0  0  0  0  0  0  0
   63.6801   34.2792   48.1944 H   0  0  0  0  0  0  0  0  0  0  0  0
   64.2616   31.9678   47.4626 H   0  0  0  0  0  0  0  0  0  0  0  0
   62.4595   30.2978   47.0503 H   0  0  0  0  0  0  0  0  0  0  0  0
   58.0451   27.9610   47.9649 H   0  0  0  0  0  0  0  0  0  0  0  0
   59.3287   26.9515   45.5313 H   0  0  0  0  0  0  0  0  0  0  0  0
   54.5641   24.0310   44.9778 H   0  0  0  0  0  0  0  0  0  0  0  0
   53.3086   21.9975   45.6841 H   0  0  0  0  0  0  0  0  0  0  0  0
   53.1970   20.0730   45.7560 H   0  0  0  0  0  0  0  0  0  0  0  0
   55.8185   21.6615   49.1935 H   0  0  0  0  0  0  0  0  0  0  0  0
   57.0771   23.6949   48.4902 H   0  0  0  0  0  0  0  0  0  0  0  0
  1  2  1  0
  2  3  1  0
  3  4  2  0
  4  5  1  0
  5  6  2  0
  6  7  1  0
  7  8  2  0
  8  9  1  0
  9 10  1  0
 10 11  1  0
 10 12  2  0
 12 13  1  0
 13 14  1  0
 14 15  1  0
 15 16  1  0
 16 17  2  0
 17 18  1  0
 17 19  1  0
 19 20  1  0
 20 21  2  0
 21 22  1  0
 22 23  2  0
 23 24  1  0
 24 25  1  0
 24 26  2  0
 24 27  2  0
 23 28  1  0
 28 29  2  0
 19 30  1  0
 30 31  1  0
 13 32  2  0
 32 33  1  0
  8  3  1  0
 32  9  1  0
 30 15  2  0
 29 20  1  0
  1 34  1  0
  1 35  1  0
  1 36  1  0
  4 37  1  0
  5 38  1  0
  6 39  1  0
  7 40  1  0
 12 41  1  0
 16 42  1  0
 21 43  1  0
 22 44  1  0
 25 45  1  0
 28 46  1  0
 29 47  1  0
M  CHG  5  11  -1  18  -1  25  -1  31  -1  33  -1
M  END
>  <UniqueID>  (70) 
64

>  <SMILES>  (70) 
COc1ccccc1-n1c([O-])cc(Sc2cc([O-])n(-c3ccc(S([NH-])(=O)=O)cc3)c2[O-])c1[O-]

>  <Energy>  (70) 
115.6945567386898

>  <Genealogy>  (70) 
COc1ccccc1-n1c([O-])cc(Sc2cc([O-])n(-c3ccc(S([NH-])(=O)=O)cc3)c2[O-])c1[O-] (protonated)
COc1ccccc1-n1c([O-])cc(Sc2cc([O-])n(-c3ccc(S([NH-])(=O)=O)cc3)c2[O-])c1[O-] (3D coordinates assigned)
COc1ccccc1-n1c([O-])cc(Sc2cc([O-])n(-c3ccc(S([NH-])(=O)=O)cc3)c2[O-])c1[O-] (optimized conformer: 115.6945567386898 kcal/mol)

>  <smiles>  (70) 
COc1ccccc1-n1c(O)cc(Sc2cc(O)n(-c3ccc(S(N)(=O)=O)cc3)c2O)c1O

>  <score_type>  (70) 
oracle

>  <origin>  (70) 
adg

>  <m_score__min__energy>  (70) 
-16

>  <m_primary>  (70) 
energy

$$$$
70:0
     RDKit          3D

 42 43  0  0  0  0  0  0  0  0999 V2000
   54.1620   25.2320   45.6250 C   0  0  0  0  0  0  0  0  0  0  0  0
   55.1000   26.2590   45.9330 O   0  0  0  0  0  0  0  0  0  0  0  0
   56.4930   26.0860   45.9550 C   0  0  0  0  0  0  0  0  0  0  0  0
   57.0840   24.8770   46.3690 C   0  0  0  0  0  0  0  0  0  0  0  0
   58.4720   24.7420   46.3850 C   0  0  0  0  0  0  0  0  0  0  0  0
   59.2860   25.7960   45.9760 C   0  0  0  0  0  0  0  0  0  0  0  0
   58.7170   27.0100   45.5480 C   0  0  0  0  0  0  0  0  0  0  0  0
   59.5100   28.0720   45.0820 O   0  0  0  0  0  0  0  0  0  0  0  0
   60.7700   28.4460   45.6300 C   0  0  0  0  0  0  0  0  0  0  0  0
   57.3140   27.1600   45.5640 C   0  0  0  0  0  0  0  0  0  0  0  0
   56.7040   28.3900   45.1360 N   0  0  0  0  0  0  0  0  0  0  0  0
   57.1730   29.6780   45.5510 C   0  0  0  0  0  0  0  0  0  0  0  0
   58.0080   29.7790   46.4910 O   0  0  0  0  0  0  0  0  0  0  0  0
   56.6710   30.8480   44.9010 N   0  0  0  0  0  0  0  0  0  0  0  0
   57.5700   32.3240   44.7580 S   0  0  0  0  0  0  0  0  0  0  0  0
   56.6460   33.5050   44.8760 O   0  0  0  0  0  0  0  0  0  0  0  0
   58.2160   32.3540   43.4010 O   0  0  0  0  0  0  0  0  0  0  0  0
   58.8060   32.3920   45.9930 N   0  0  0  0  0  0  0  0  0  0  0  0
   59.8380   33.4070   45.6600 C   0  0  0  0  0  0  0  0  0  0  0  0
   59.7040   34.6730   46.5240 C   0  0  0  0  0  0  0  0  0  0  0  0
   59.8070   34.4080   47.9160 O   0  0  0  0  0  0  0  0  0  0  0  0
   59.2200   33.1730   48.3110 C   0  0  0  0  0  0  0  0  0  0  0  0
   58.1870   32.6170   47.3150 C   0  0  0  0  0  0  0  0  0  0  0  0
   53.7694   24.8021   46.5583 H   0  0  0  0  0  0  0  0  0  0  0  0
   53.3330   25.6561   45.0394 H   0  0  0  0  0  0  0  0  0  0  0  0
   54.6593   24.4447   45.0394 H   0  0  0  0  0  0  0  0  0  0  0  0
   56.4483   24.0353   46.6812 H   0  0  0  0  0  0  0  0  0  0  0  0
   58.9263   23.7986   46.7222 H   0  0  0  0  0  0  0  0  0  0  0  0
   60.3797   25.6787   45.9876 H   0  0  0  0  0  0  0  0  0  0  0  0
   60.7118   28.4287   46.7283 H   0  0  0  0  0  0  0  0  0  0  0  0
   61.5413   27.7381   45.2925 H   0  0  0  0  0  0  0  0  0  0  0  0
   61.0302   29.4601   45.2925 H   0  0  0  0  0  0  0  0  0  0  0  0
   55.8240   28.3460   44.5750 H   0  0  0  0  0  0  0  0  0  0  0  0
   59.2660   31.4510   46.0050 H   0  0  0  0  0  0  0  0  0  0  0  0
   60.8332   32.9685   45.8251 H   0  0  0  0  0  0  0  0  0  0  0  0
   59.7000   33.6983   44.6083 H   0  0  0  0  0  0  0  0  0  0  0  0
   60.5009   35.3765   46.2411 H   0  0  0  0  0  0  0  0  0  0  0  0
   58.7032   35.0916   46.3417 H   0  0  0  0  0  0  0  0  0  0  0  0
   60.0234   32.4303   48.4250 H   0  0  0  0  0  0  0  0  0  0  0  0
   58.6807   33.3660   49.2501 H   0  0  0  0  0  0  0  0  0  0  0  0
   57.7940   31.6632   47.6969 H   0  0  0  0  0  0  0  0  0  0  0  0
   57.3726   33.3481   47.2047 H   0  0  0  0  0  0  0  0  0  0  0  0
  1  2  1  0
  2  3  1  0
  3  4  2  0
  4  5  1  0
  5  6  2  0
  6  7  1  0
  7  8  1  0
  8  9  1  0
  7 10  2  0
 10 11  1  0
 11 12  1  0
 12 13  2  0
 12 14  1  0
 14 15  1  0
 15 16  2  0
 15 17  2  0
 15 18  1  0
 18 19  1  0
 19 20  1  0
 20 21  1  0
 21 22  1  0
 22 23  1  0
 10  3  1  0
 23 18  1  0
  1 24  1  0
  1 25  1  0
  1 26  1  0
  4 27  1  0
  5 28  1  0
  6 29  1  0
  9 30  1  0
  9 31  1  0
  9 32  1  0
 11 33  1  0
 18 34  1  0
 19 35  1  0
 19 36  1  0
 20 37  1  0
 20 38  1  0
 22 39  1  0
 22 40  1  0
 23 41  1  0
 23 42  1  0
M  CHG  2  14  -1  18   1
M  END
>  <UniqueID>  (71) 
65

>  <SMILES>  (71) 
COc1cccc(OC)c1NC(=O)[N-]S(=O)(=O)[NH+]1CCOCC1

>  <Energy>  (71) 
56.47467916997232

>  <Genealogy>  (71) 
COc1cccc(OC)c1NC(=O)[N-]S(=O)(=O)[NH+]1CCOCC1 (protonated)
COc1cccc(OC)c1NC(=O)[N-]S(=O)(=O)[NH+]1CCOCC1 (3D coordinates assigned)
COc1cccc(OC)c1NC(=O)[N-]S(=O)(=O)[NH+]1CCOCC1 (nonaromatic ring conformer: 56.47467916997232 kcal/mol)

>  <smiles>  (71) 
COc1cccc(OC)c1NC(=O)NS(=O)(=O)N1CCOCC1

>  <score_type>  (71) 
oracle

>  <origin>  (71) 
adg

>  <m_score__min__energy>  (71) 
-7.5599999999999996

>  <m_primary>  (71) 
energy

$$$$
71:0
     RDKit          3D

 55 58  0  0  0  0  0  0  0  0999 V2000
   57.7570   32.3420   49.3700 O   0  0  0  0  0  0  0  0  0  0  0  0
   58.7820   32.7810   48.7800 C   0  0  0  0  0  0  0  0  0  0  0  0
   58.7460   32.9770   47.3130 C   0  0  0  0  0  0  0  0  0  0  0  0
   59.3490   34.1010   46.7260 C   0  0  0  0  0  0  0  0  0  0  0  0
   59.3180   34.2770   45.3400 C   0  0  0  0  0  0  0  0  0  0  0  0
   58.6930   33.3290   44.5260 C   0  0  0  0  0  0  0  0  0  0  0  0
   58.1040   32.1930   45.0960 C   0  0  0  0  0  0  0  0  0  0  0  0
   57.2990   30.9940   44.0850 S   0  0  0  0  0  0  0  0  0  0  0  0
   55.9500   30.6580   44.6580 O   0  0  0  0  0  0  0  0  0  0  0  0
   57.1060   31.5760   42.7120 O   0  0  0  0  0  0  0  0  0  0  0  0
   58.2800   29.5510   43.9880 N   0  0  0  0  0  0  0  0  0  0  0  0
   59.4570   29.6420   44.8880 C   0  0  0  0  0  0  0  0  0  0  0  0
   59.2690   28.8070   46.1670 C   0  0  0  0  0  0  0  0  0  0  0  0
   59.0480   27.4280   45.9090 O   0  0  0  0  0  0  0  0  0  0  0  0
   58.3150   27.1770   44.7160 C   0  0  0  0  0  0  0  0  0  0  0  0
   57.4450   28.3590   44.2540 C   0  0  0  0  0  0  0  0  0  0  0  0
   58.1340   32.0190   46.4860 C   0  0  0  0  0  0  0  0  0  0  0  0
   59.9690   33.0610   49.5440 N   0  0  0  0  0  0  0  0  0  0  0  0
   60.6760   34.3400   49.3800 C   0  0  0  0  0  0  0  0  0  0  0  0
   62.1950   34.1170   49.4170 C   0  0  0  0  0  0  0  0  0  0  0  0
   62.5760   33.1510   50.4590 N   0  0  0  0  0  0  0  0  0  0  0  0
   63.9220   32.6420   50.4980 C   0  0  0  0  0  0  0  0  0  0  0  0
   64.9950   33.4220   50.0290 C   0  0  0  0  0  0  0  0  0  0  0  0
   66.2990   32.9200   50.0560 C   0  0  0  0  0  0  0  0  0  0  0  0
   66.5450   31.6340   50.5440 C   0  0  0  0  0  0  0  0  0  0  0  0
   65.4870   30.8470   51.0050 C   0  0  0  0  0  0  0  0  0  0  0  0
   64.1810   31.3460   50.9810 C   0  0  0  0  0  0  0  0  0  0  0  0
   61.5630   32.6650   51.4060 C   0  0  0  0  0  0  0  0  0  0  0  0
   60.3440   32.1480   50.6360 C   0  0  0  0  0  0  0  0  0  0  0  0
   59.8488   34.8474   47.3609 H   0  0  0  0  0  0  0  0  0  0  0  0
   59.7868   35.1640   44.8889 H   0  0  0  0  0  0  0  0  0  0  0  0
   58.6634   33.4748   43.4361 H   0  0  0  0  0  0  0  0  0  0  0  0
   58.6290   29.4880   43.0020 H   0  0  0  0  0  0  0  0  0  0  0  0
   60.3441   29.2749   44.3511 H   0  0  0  0  0  0  0  0  0  0  0  0
   59.5789   30.6945   45.1835 H   0  0  0  0  0  0  0  0  0  0  0  0
   60.1735   28.9062   46.7851 H   0  0  0  0  0  0  0  0  0  0  0  0
   58.3740   29.1907   46.6786 H   0  0  0  0  0  0  0  0  0  0  0  0
   59.0300   26.9401   43.9144 H   0  0  0  0  0  0  0  0  0  0  0  0
   57.6300   26.3442   44.9334 H   0  0  0  0  0  0  0  0  0  0  0  0
   56.9135   28.0777   43.3329 H   0  0  0  0  0  0  0  0  0  0  0  0
   56.7264   28.6015   45.0507 H   0  0  0  0  0  0  0  0  0  0  0  0
   57.6749   31.1253   46.9338 H   0  0  0  0  0  0  0  0  0  0  0  0
   60.3982   34.7871   48.4141 H   0  0  0  0  0  0  0  0  0  0  0  0
   60.3928   35.0137   50.2021 H   0  0  0  0  0  0  0  0  0  0  0  0
   62.5235   33.7352   48.4391 H   0  0  0  0  0  0  0  0  0  0  0  0
   62.6781   35.0783   49.6463 H   0  0  0  0  0  0  0  0  0  0  0  0
   64.8064   34.4330   49.6387 H   0  0  0  0  0  0  0  0  0  0  0  0
   67.1331   33.5382   49.6925 H   0  0  0  0  0  0  0  0  0  0  0  0
   67.5723   31.2412   50.5651 H   0  0  0  0  0  0  0  0  0  0  0  0
   65.6814   29.8340   51.3872 H   0  0  0  0  0  0  0  0  0  0  0  0
   63.3507   30.7214   51.3420 H   0  0  0  0  0  0  0  0  0  0  0  0
   61.9877   31.8491   52.0092 H   0  0  0  0  0  0  0  0  0  0  0  0
   61.2549   33.4896   52.0656 H   0  0  0  0  0  0  0  0  0  0  0  0
   60.5814   31.1614   50.2114 H   0  0  0  0  0  0  0  0  0  0  0  0
   59.4975   32.0799   51.3351 H   0  0  0  0  0  0  0  0  0  0  0  0
  1  2  2  0
  2  3  1  0
  3  4  2  0
  4  5  1  0
  5  6  2  0
  6  7  1  0
  7  8  1  0
  8  9  2  0
  8 10  2  0
  8 11  1  0
 11 12  1  0
 12 13  1  0
 13 14  1  0
 14 15  1  0
 15 16  1  0
  7 17  2  0
  2 18  1  0
 18 19  1  0
 19 20  1  0
 20 21  1  0
 21 22  1  0
 22 23  2  0
 23 24  1  0
 24 25  2  0
 25 26  1  0
 26 27  2  0
 21 28  1  0
 28 29  1  0
 17  3  1  0
 29 18  1  0
 16 11  1  0
 27 22  1  0
  4 30  1  0
  5 31  1  0
  6 32  1  0
 11 33  1  0
 12 34  1  0
 12 35  1  0
 13 36  1  0
 13 37  1  0
 15 38  1  0
 15 39  1  0
 16 40  1  0
 16 41  1  0
 17 42  1  0
 19 43  1  0
 19 44  1  0
 20 45  1  0
 20 46  1  0
 23 47  1  0
 24 48  1  0
 25 49  1  0
 26 50  1  0
 27 51  1  0
 28 52  1  0
 28 53  1  0
 29 54  1  0
 29 55  1  0
M  CHG  1  11   1
M  END
>  <UniqueID>  (72) 
66

>  <SMILES>  (72) 
O=C(c1cccc(S(=O)(=O)[NH+]2CCOCC2)c1)N1CCN(c2ccccc2)CC1

>  <Energy>  (72) 
78.77318520507062

>  <Genealogy>  (72) 
O=C(c1cccc(S(=O)(=O)[NH+]2CCOCC2)c1)N1CCN(c2ccccc2)CC1 (protonated)
O=C(c1cccc(S(=O)(=O)[NH+]2CCOCC2)c1)N1CCN(c2ccccc2)CC1 (3D coordinates assigned)
O=C(c1cccc(S(=O)(=O)[NH+]2CCOCC2)c1)N1CCN(c2ccccc2)CC1 (nonaromatic ring conformer: 78.77318520507062 kcal/mol)

>  <smiles>  (72) 
O=C(c1cccc(S(=O)(=O)N2CCOCC2)c1)N1CCN(c2ccccc2)CC1

>  <score_type>  (72) 
oracle

>  <origin>  (72) 
adg

>  <m_score__min__energy>  (72) 
-7.7400000000000002

>  <m_primary>  (72) 
energy

$$$$
72:0
     RDKit          3D

 42 44  0  0  0  0  0  0  0  0999 V2000
   62.9690   33.8190   46.4610 C   0  0  0  0  0  0  0  0  0  0  0  0
   61.5460   33.8870   46.9300 C   0  0  0  0  0  0  0  0  0  0  0  0
   60.4960   33.9350   46.0020 C   0  0  0  0  0  0  0  0  0  0  0  0
   59.1620   33.9360   46.4370 C   0  0  0  0  0  0  0  0  0  0  0  0
   58.0420   33.9370   45.4400 C   0  0  0  0  0  0  0  0  0  0  0  0
   58.8820   33.8430   47.8090 C   0  0  0  0  0  0  0  0  0  0  0  0
   59.9240   33.7900   48.7460 C   0  0  0  0  0  0  0  0  0  0  0  0
   59.6240   33.6070   50.2100 C   0  0  0  0  0  0  0  0  0  0  0  0
   59.1340   32.2100   50.4420 C   0  0  0  0  0  0  0  0  0  0  0  0
   57.9830   31.9740   51.2050 C   0  0  0  0  0  0  0  0  0  0  0  0
   57.4840   30.6720   51.2700 C   0  0  0  0  0  0  0  0  0  0  0  0
   56.4520   30.4220   51.9460 O   0  0  0  0  0  0  0  0  0  0  0  0
   58.1040   29.6750   50.5900 N   0  0  0  0  0  0  0  0  0  0  0  0
   59.2210   29.9210   49.8550 C   0  0  0  0  0  0  0  0  0  0  0  0
   59.9490   28.6080   48.8770 S   0  0  0  0  0  0  0  0  0  0  0  0
   60.3930   29.6810   47.4600 C   0  0  0  0  0  0  0  0  0  0  0  0
   59.2710   29.7940   46.4770 C   0  0  0  0  0  0  0  0  0  0  0  0
   59.2510   30.6000   45.3560 C   0  0  0  0  0  0  0  0  0  0  0  0
   58.0490   30.3380   44.7310 C   0  0  0  0  0  0  0  0  0  0  0  0
   57.4180   29.3870   45.5130 C   0  0  0  0  0  0  0  0  0  0  0  0
   56.1110   28.7780   45.2510 C   0  0  0  0  0  0  0  0  0  0  0  0
   55.1950   29.4440   44.7000 O   0  0  0  0  0  0  0  0  0  0  0  0
   55.8800   27.4570   45.6110 O   0  0  0  0  0  0  0  0  0  0  0  0
   58.1690   29.0840   46.5460 O   0  0  0  0  0  0  0  0  0  0  0  0
   59.7240   31.1790   49.7830 N   0  0  0  0  0  0  0  0  0  0  0  0
   61.2550   33.8060   48.2990 C   0  0  0  0  0  0  0  0  0  0  0  0
   63.6408   33.7869   47.3314 H   0  0  0  0  0  0  0  0  0  0  0  0
   63.1120   32.9130   45.8538 H   0  0  0  0  0  0  0  0  0  0  0  0
   63.1978   34.7072   45.8538 H   0  0  0  0  0  0  0  0  0  0  0  0
   60.7196   33.9721   44.9256 H   0  0  0  0  0  0  0  0  0  0  0  0
   57.0786   33.9379   45.9708 H   0  0  0  0  0  0  0  0  0  0  0  0
   58.1137   34.8351   44.8089 H   0  0  0  0  0  0  0  0  0  0  0  0
   58.1121   33.0388   44.8089 H   0  0  0  0  0  0  0  0  0  0  0  0
   57.8373   33.8114   48.1520 H   0  0  0  0  0  0  0  0  0  0  0  0
   60.5383   33.7784   50.7971 H   0  0  0  0  0  0  0  0  0  0  0  0
   58.8519   34.3258   50.5216 H   0  0  0  0  0  0  0  0  0  0  0  0
   57.4842   32.7954   51.7403 H   0  0  0  0  0  0  0  0  0  0  0  0
   60.6391   30.6848   47.8366 H   0  0  0  0  0  0  0  0  0  0  0  0
   61.2545   29.2300   46.9458 H   0  0  0  0  0  0  0  0  0  0  0  0
   60.0306   31.3040   45.0294 H   0  0  0  0  0  0  0  0  0  0  0  0
   57.6707   30.7915   43.8030 H   0  0  0  0  0  0  0  0  0  0  0  0
   62.0762   33.7545   49.0291 H   0  0  0  0  0  0  0  0  0  0  0  0
  1  2  1  0
  2  3  2  0
  3  4  1  0
  4  5  1  0
  4  6  2  0
  6  7  1  0
  7  8  1  0
  8  9  1  0
  9 10  2  0
 10 11  1  0
 11 12  2  0
 11 13  1  0
 13 14  2  0
 14 15  1  0
 15 16  1  0
 16 17  1  0
 17 18  2  0
 18 19  1  0
 19 20  2  0
 20 21  1  0
 21 22  2  0
 21 23  1  0
 20 24  1  0
 14 25  1  0
  7 26  2  0
 26  2  1  0
 25  9  1  0
 24 17  1  0
  1 27  1  0
  1 28  1  0
  1 29  1  0
  3 30  1  0
  5 31  1  0
  5 32  1  0
  5 33  1  0
  6 34  1  0
  8 35  1  0
  8 36  1  0
 10 37  1  0
 16 38  1  0
 16 39  1  0
 18 40  1  0
 19 41  1  0
 26 42  1  0
M  CHG  2  23  -1  25  -1
M  END
>  <UniqueID>  (73) 
67

>  <SMILES>  (73) 
Cc1cc(C)cc(Cc2cc(=O)nc(SCc3ccc(C(=O)[O-])o3)[n-]2)c1

>  <Energy>  (73) 
59.66932056294456

>  <Genealogy>  (73) 
Cc1cc(C)cc(Cc2cc(=O)nc(SCc3ccc(C(=O)[O-])o3)[n-]2)c1 (protonated)
Cc1cc(C)cc(Cc2cc(=O)nc(SCc3ccc(C(=O)[O-])o3)[n-]2)c1 (3D coordinates assigned)
Cc1cc(C)cc(Cc2cc(=O)nc(SCc3ccc(C(=O)[O-])o3)[n-]2)c1 (optimized conformer: 59.66932056294456 kcal/mol)

>  <smiles>  (73) 
Cc1cc(C)cc(Cc2cc(=O)nc(SCc3ccc(C(=O)O)o3)[nH]2)c1

>  <score_type>  (73) 
oracle

>  <origin>  (73) 
adg

>  <m_score__min__energy>  (73) 
-13.390000000000001

>  <m_primary>  (73) 
energy

$$$$
73:0
     RDKit          3D

 46 47  0  0  0  0  0  0  0  0999 V2000
   59.4780   29.1230   48.2600 C   0  0  0  0  0  0  0  0  0  0  0  0
   59.3420   30.2670   47.2610 C   0  0  0  0  0  0  0  0  0  0  0  0
   60.6020   30.3890   46.3920 C   0  0  0  0  0  0  0  0  0  0  0  0
   60.6450   29.2980   45.3100 C   0  0  0  0  0  0  0  0  0  0  0  0
   59.3580   29.1600   44.6020 N   0  0  0  0  0  0  0  0  0  0  0  0
   58.5660   28.0670   45.1240 C   0  0  0  0  0  0  0  0  0  0  0  0
   59.2050   26.8440   45.4060 C   0  0  0  0  0  0  0  0  0  0  0  0
   58.4780   25.7420   45.8610 C   0  0  0  0  0  0  0  0  0  0  0  0
   57.1000   25.8400   46.0360 C   0  0  0  0  0  0  0  0  0  0  0  0
   56.4440   27.0400   45.7620 C   0  0  0  0  0  0  0  0  0  0  0  0
   57.1560   28.1600   45.3050 C   0  0  0  0  0  0  0  0  0  0  0  0
   56.3870   29.3820   45.0060 C   0  0  0  0  0  0  0  0  0  0  0  0
   55.1390   29.3270   44.8360 O   0  0  0  0  0  0  0  0  0  0  0  0
   57.0770   30.6300   44.8820 N   0  0  0  0  0  0  0  0  0  0  0  0
   57.2820   31.3250   43.6170 C   0  0  0  0  0  0  0  0  0  0  0  0
   58.0400   32.6400   43.8370 C   0  0  0  0  0  0  0  0  0  0  0  0
   57.3520   33.5380   44.8720 C   0  0  0  0  0  0  0  0  0  0  0  0
   58.2470   33.8560   45.9840 N   0  0  0  0  0  0  0  0  0  0  0  0
   59.3750   34.5830   45.9260 C   0  0  0  0  0  0  0  0  0  0  0  0
   59.9400   34.5830   47.1810 C   0  0  0  0  0  0  0  0  0  0  0  0
   59.1770   33.8540   48.0240 N   0  0  0  0  0  0  0  0  0  0  0  0
   58.1510   33.4250   47.2580 C   0  0  0  0  0  0  0  0  0  0  0  0
   59.4305   29.5226   49.2837 H   0  0  0  0  0  0  0  0  0  0  0  0
   58.6589   28.4045   48.1084 H   0  0  0  0  0  0  0  0  0  0  0  0
   60.4427   28.6166   48.1084 H   0  0  0  0  0  0  0  0  0  0  0  0
   58.4742   30.0772   46.6123 H   0  0  0  0  0  0  0  0  0  0  0  0
   59.2074   31.2058   47.8183 H   0  0  0  0  0  0  0  0  0  0  0  0
   60.6072   31.3757   45.9057 H   0  0  0  0  0  0  0  0  0  0  0  0
   61.4825   30.2686   47.0402 H   0  0  0  0  0  0  0  0  0  0  0  0
   61.4251   29.5558   44.5786 H   0  0  0  0  0  0  0  0  0  0  0  0
   60.8602   28.3403   45.8064 H   0  0  0  0  0  0  0  0  0  0  0  0
   58.8230   30.0510   44.7310 H   0  0  0  0  0  0  0  0  0  0  0  0
   59.5180   29.0790   43.5760 H   0  0  0  0  0  0  0  0  0  0  0  0
   60.2924   26.7556   45.2658 H   0  0  0  0  0  0  0  0  0  0  0  0
   58.9942   24.7959   46.0813 H   0  0  0  0  0  0  0  0  0  0  0  0
   56.5281   24.9699   46.3908 H   0  0  0  0  0  0  0  0  0  0  0  0
   55.3557   27.1095   45.9058 H   0  0  0  0  0  0  0  0  0  0  0  0
   57.8646   30.6812   42.9416 H   0  0  0  0  0  0  0  0  0  0  0  0
   56.3005   31.5524   43.1756 H   0  0  0  0  0  0  0  0  0  0  0  0
   59.0564   32.4087   44.1883 H   0  0  0  0  0  0  0  0  0  0  0  0
   58.0613   33.1821   42.8801 H   0  0  0  0  0  0  0  0  0  0  0  0
   57.0419   34.4737   44.3838 H   0  0  0  0  0  0  0  0  0  0  0  0
   56.4812   32.9986   45.2729 H   0  0  0  0  0  0  0  0  0  0  0  0
   59.7756   35.0881   45.0347 H   0  0  0  0  0  0  0  0  0  0  0  0
   60.8719   35.0987   47.4559 H   0  0  0  0  0  0  0  0  0  0  0  0
   57.3299   32.7952   47.6311 H   0  0  0  0  0  0  0  0  0  0  0  0
  1  2  1  0
  2  3  1  0
  3  4  1  0
  4  5  1  0
  5  6  1  0
  6  7  2  0
  7  8  1  0
  8  9  2  0
  9 10  1  0
 10 11  2  0
 11 12  1  0
 12 13  2  0
 12 14  1  0
 14 15  1  0
 15 16  1  0
 16 17  1  0
 17 18  1  0
 18 19  1  0
 19 20  2  0
 20 21  1  0
 21 22  2  0
 11  6  1  0
 22 18  1  0
  1 23  1  0
  1 24  1  0
  1 25  1  0
  2 26  1  0
  2 27  1  0
  3 28  1  0
  3 29  1  0
  4 30  1  0
  4 31  1  0
  5 32  1  0
  5 33  1  0
  7 34  1  0
  8 35  1  0
  9 36  1  0
 10 37  1  0
 15 38  1  0
 15 39  1  0
 16 40  1  0
 16 41  1  0
 17 42  1  0
 17 43  1  0
 19 44  1  0
 20 45  1  0
 22 46  1  0
M  CHG  2   5   1  14  -1
M  END
>  <UniqueID>  (74) 
68

>  <SMILES>  (74) 
CCCC[NH2+]c1ccccc1C(=O)[N-]CCCn1ccnc1

>  <Energy>  (74) 
69.53885405061739

>  <Genealogy>  (74) 
CCCC[NH2+]c1ccccc1C(=O)[N-]CCCn1ccnc1 (protonated)
CCCC[NH2+]c1ccccc1C(=O)[N-]CCCn1ccnc1 (3D coordinates assigned)
CCCC[NH2+]c1ccccc1C(=O)[N-]CCCn1ccnc1 (optimized conformer: 69.53885405061739 kcal/mol)

>  <smiles>  (74) 
CCCCNc1ccccc1C(=O)NCCCn1ccnc1

>  <score_type>  (74) 
oracle

>  <origin>  (74) 
adg

>  <m_score__min__energy>  (74) 
-7.5

>  <m_primary>  (74) 
energy

$$$$
74:0
     RDKit          3D

 38 40  0  0  0  0  0  0  0  0999 V2000
   58.0480   25.3640   46.4930 C   0  0  0  0  0  0  0  0  0  0  0  0
   57.8580   26.7970   46.0780 C   0  0  0  0  0  0  0  0  0  0  0  0
   56.6020   27.2360   45.6320 C   0  0  0  0  0  0  0  0  0  0  0  0
   56.4070   28.5650   45.2450 C   0  0  0  0  0  0  0  0  0  0  0  0
   55.1370   28.9720   44.8480 O   0  0  0  0  0  0  0  0  0  0  0  0
   57.4800   29.4770   45.2810 C   0  0  0  0  0  0  0  0  0  0  0  0
   57.3120   30.8860   44.8550 C   0  0  0  0  0  0  0  0  0  0  0  0
   56.1520   31.3670   44.7630 O   0  0  0  0  0  0  0  0  0  0  0  0
   58.4300   31.7160   44.5090 N   0  0  0  0  0  0  0  0  0  0  0  0
   58.8670   32.8880   45.2150 C   0  0  0  0  0  0  0  0  0  0  0  0
   58.8130   34.1650   44.6300 C   0  0  0  0  0  0  0  0  0  0  0  0
   59.2570   35.2800   45.3410 C   0  0  0  0  0  0  0  0  0  0  0  0
   59.7730   35.1330   46.6310 C   0  0  0  0  0  0  0  0  0  0  0  0
   59.8590   33.8600   47.2230 C   0  0  0  0  0  0  0  0  0  0  0  0
   60.4150   33.7020   48.5870 C   0  0  0  0  0  0  0  0  0  0  0  0
   59.7160   34.0010   49.5940 O   0  0  0  0  0  0  0  0  0  0  0  0
   61.7470   33.2120   48.7700 N   0  0  0  0  0  0  0  0  0  0  0  0
   62.5480   32.6960   47.6680 C   0  0  0  0  0  0  0  0  0  0  0  0
   63.0890   33.7910   46.7690 C   0  0  0  0  0  0  0  0  0  0  0  0
   64.0120   33.0830   47.7500 C   0  0  0  0  0  0  0  0  0  0  0  0
   59.4080   32.7410   46.4980 C   0  0  0  0  0  0  0  0  0  0  0  0
   58.7290   29.0440   45.7510 C   0  0  0  0  0  0  0  0  0  0  0  0
   58.9240   27.7150   46.1430 C   0  0  0  0  0  0  0  0  0  0  0  0
   60.5200   27.2310   46.7060 Cl  0  0  0  0  0  0  0  0  0  0  0  0
   58.0567   25.2983   47.5910 H   0  0  0  0  0  0  0  0  0  0  0  0
   57.2228   24.7547   46.0958 H   0  0  0  0  0  0  0  0  0  0  0  0
   59.0035   24.9908   46.0958 H   0  0  0  0  0  0  0  0  0  0  0  0
   55.7622   26.5270   45.5865 H   0  0  0  0  0  0  0  0  0  0  0  0
   58.4199   34.2853   43.6097 H   0  0  0  0  0  0  0  0  0  0  0  0
   59.2006   36.2791   44.8841 H   0  0  0  0  0  0  0  0  0  0  0  0
   60.1142   36.0185   47.1873 H   0  0  0  0  0  0  0  0  0  0  0  0
   62.0015   31.7539   47.5139 H   0  0  0  0  0  0  0  0  0  0  0  0
   63.1944   33.6140   45.6885 H   0  0  0  0  0  0  0  0  0  0  0  0
   62.8203   34.8391   46.5706 H   0  0  0  0  0  0  0  0  0  0  0  0
   64.7850   32.3939   47.3790 H   0  0  0  0  0  0  0  0  0  0  0  0
   64.6877   33.4067   48.5554 H   0  0  0  0  0  0  0  0  0  0  0  0
   59.4815   31.7386   46.9449 H   0  0  0  0  0  0  0  0  0  0  0  0
   59.5642   29.7572   45.8120 H   0  0  0  0  0  0  0  0  0  0  0  0
  1  2  1  0
  2  3  2  0
  3  4  1  0
  4  5  1  0
  4  6  2  0
  6  7  1  0
  7  8  2  0
  7  9  1  0
  9 10  1  0
 10 11  2  0
 11 12  1  0
 12 13  2  0
 13 14  1  0
 14 15  1  0
 15 16  2  0
 15 17  1  0
 17 18  1  0
 18 19  1  0
 19 20  1  0
 14 21  2  0
  6 22  1  0
 22 23  2  0
 23 24  1  0
 23  2  1  0
 21 10  1  0
 20 18  1  0
  1 25  1  0
  1 26  1  0
  1 27  1  0
  3 28  1  0
 11 29  1  0
 12 30  1  0
 13 31  1  0
 18 32  1  0
 19 33  1  0
 19 34  1  0
 20 35  1  0
 20 36  1  0
 21 37  1  0
 22 38  1  0
M  CHG  3   5  -1   9  -1  17  -1
M  END
>  <UniqueID>  (75) 
69

>  <SMILES>  (75) 
Cc1cc([O-])c(C(=O)[N-]c2cccc(C(=O)[N-]C3CC3)c2)cc1Cl

>  <Energy>  (75) 
311.94448034012606

>  <Genealogy>  (75) 
Cc1cc([O-])c(C(=O)[N-]c2cccc(C(=O)[N-]C3CC3)c2)cc1Cl (protonated)
Cc1cc([O-])c(C(=O)[N-]c2cccc(C(=O)[N-]C3CC3)c2)cc1Cl (3D coordinates assigned)
Cc1cc([O-])c(C(=O)[N-]c2cccc(C(=O)[N-]C3CC3)c2)cc1Cl (nonaromatic ring conformer: 311.94448034012606 kcal/mol)

>  <smiles>  (75) 
Cc1cc(O)c(C(=O)Nc2cccc(C(=O)NC3CC3)c2)cc1Cl

>  <score_type>  (75) 
oracle

>  <origin>  (75) 
adg

>  <m_score__min__energy>  (75) 
-14.5

>  <m_primary>  (75) 
energy

$$$$
75:0
     RDKit          3D

 41 43  0  0  0  0  0  0  0  0999 V2000
   57.9974   35.1513   45.0129 H   0  0  0  0  0  0  0  0  0  0  0  0
   58.2460   34.1170   45.2930 C   0  0  0  0  0  0  0  0  0  0  0  0
   59.4260   33.8480   45.9810 C   0  0  0  0  0  0  0  0  0  0  0  0
   60.1132   34.6686   46.2348 H   0  0  0  0  0  0  0  0  0  0  0  0
   59.7380   32.5390   46.3490 C   0  0  0  0  0  0  0  0  0  0  0  0
   60.6746   32.3347   46.8885 H   0  0  0  0  0  0  0  0  0  0  0  0
   58.8680   31.4760   46.0380 C   0  0  0  0  0  0  0  0  0  0  0  0
   59.2260   30.1010   46.4870 C   0  0  0  0  0  0  0  0  0  0  0  0
   59.4830   29.8930   47.7030 O   0  0  0  0  0  0  0  0  0  0  0  0
   59.3620   29.0110   45.5670 N   0  0  0  0  0  0  0  0  0  0  0  0
   59.0690   27.7600   45.7840 C   0  0  0  0  0  0  0  0  0  0  0  0
   60.0190   26.8310   46.0330 N   0  0  0  0  0  0  0  0  0  0  0  0
   59.4180   25.6560   46.1710 N   0  0  0  0  0  0  0  0  0  0  0  0
   59.9110   24.7590   46.3760 H   0  0  0  0  0  0  0  0  0  0  0  0
   58.0930   25.8300   46.0230 C   0  0  0  0  0  0  0  0  0  0  0  0
   57.0910   24.8720   46.1350 C   0  0  0  0  0  0  0  0  0  0  0  0
   57.3273   23.8135   46.3187 H   0  0  0  0  0  0  0  0  0  0  0  0
   55.7500   25.3190   46.0020 C   0  0  0  0  0  0  0  0  0  0  0  0
   54.7270   24.5140   46.0910 N   0  0  0  0  0  0  0  0  0  0  0  0
   54.3520   23.4510   45.2040 C   0  0  0  0  0  0  0  0  0  0  0  0
   53.1410   23.3260   44.8810 O   0  0  0  0  0  0  0  0  0  0  0  0
   55.3440   22.6070   44.6060 N   0  0  0  0  0  0  0  0  0  0  0  0
   56.0990   22.9650   43.4110 C   0  0  0  0  0  0  0  0  0  0  0  0
   56.6956   23.8661   43.6161 H   0  0  0  0  0  0  0  0  0  0  0  0
   55.3940   23.1563   42.5886 H   0  0  0  0  0  0  0  0  0  0  0  0
   57.0300   21.8280   43.0080 C   0  0  0  0  0  0  0  0  0  0  0  0
   57.4278   21.3422   43.9112 H   0  0  0  0  0  0  0  0  0  0  0  0
   56.4722   21.0915   42.4109 H   0  0  0  0  0  0  0  0  0  0  0  0
   57.8620   22.2295   42.4109 H   0  0  0  0  0  0  0  0  0  0  0  0
   55.5050   26.6550   45.8240 N   0  0  0  0  0  0  0  0  0  0  0  0
   56.4980   27.5860   45.7200 C   0  0  0  0  0  0  0  0  0  0  0  0
   56.2624   28.6519   45.5848 H   0  0  0  0  0  0  0  0  0  0  0  0
   57.8190   27.1470   45.7900 C   0  0  0  0  0  0  0  0  0  0  0  0
   57.6800   31.7460   45.3120 C   0  0  0  0  0  0  0  0  0  0  0  0
   56.8390   30.6800   44.9460 O   0  0  0  0  0  0  0  0  0  0  0  0
   56.6410   30.1930   43.6210 C   0  0  0  0  0  0  0  0  0  0  0  0
   55.3420   29.7420   43.4680 F   0  0  0  0  0  0  0  0  0  0  0  0
   56.9080   31.1900   42.7000 F   0  0  0  0  0  0  0  0  0  0  0  0
   57.5070   29.1400   43.4000 F   0  0  0  0  0  0  0  0  0  0  0  0
   57.3780   33.0770   44.9580 C   0  0  0  0  0  0  0  0  0  0  0  0
   56.4488   33.2978   44.4123 H   0  0  0  0  0  0  0  0  0  0  0  0
  1  2  1  0
  2  3  2  0
  3  4  1  0
  3  5  1  0
  5  6  1  0
  5  7  2  0
  7  8  1  0
  8  9  2  0
  8 10  1  0
 10 11  2  3
 11 12  1  0
 12 13  1  0
 13 14  1  0
 13 15  1  0
 15 16  2  0
 16 17  1  0
 16 18  1  0
 18 19  2  0
 19 20  1  0
 20 21  2  0
 20 22  1  0
 22 23  1  0
 23 24  1  0
 23 25  1  0
 23 26  1  0
 26 27  1  0
 26 28  1  0
 26 29  1  0
 18 30  1  0
 30 31  1  0
 31 32  1  0
 31 33  2  0
  7 34  1  0
 34 35  1  0
 35 36  1  0
 36 37  1  0
 36 38  1  0
 36 39  1  0
 34 40  2  0
 40 41  1  0
 40  2  1  0
 33 11  1  0
 33 15  1  0
M  CHG  3  12  -1  22  -1  30  -1
M  END
>  <UniqueID>  (76) 
70

>  <SMILES>  (76) 
CC[N-]C(=O)/N=c1\cc2[nH][n-]c(=NC(=O)c3ccccc3OC(F)(F)F)c2c[n-]1

>  <Energy>  (76) 
100.62568361496167

>  <Genealogy>  (76) 
CC[N-]C(=O)N=c1cc2[nH][n-]c(=NC(=O)c3ccccc3OC(F)(F)F)c2c[n-]1 (protonated)
CC[N-]C(=O)/N=c1\cc2[nH][n-]c(=NC(=O)c3ccccc3OC(F)(F)F)c2c[n-]1 (cis-trans isomerization)
CC[N-]C(=O)/N=c1\cc2[nH][n-]c(=NC(=O)c3ccccc3OC(F)(F)F)c2c[n-]1 (3D coordinates assigned)
CC[N-]C(=O)/N=c1\cc2[nH][n-]c(=NC(=O)c3ccccc3OC(F)(F)F)c2c[n-]1 (optimized conformer: 100.62568361496167 kcal/mol)

>  <smiles>  (76) 
CCNC(=O)N=c1cc2[nH][nH]c(=NC(=O)c3ccccc3OC(F)(F)F)c2c[nH]1

>  <score_type>  (76) 
oracle

>  <origin>  (76) 
adg

>  <m_score__min__energy>  (76) 
-11.49

>  <m_primary>  (76) 
energy

$$$$
76:0
     RDKit          3D

 50 52  0  0  0  0  0  0  0  0999 V2000
   55.1450   26.6010   45.8770 N   0  0  0  0  0  0  0  0  0  0  0  0
   56.1830   25.2390   46.1060 S   0  0  0  0  0  0  0  0  0  0  0  0
   55.6640   24.4040   47.2420 O   0  0  0  0  0  0  0  0  0  0  0  0
   56.1970   24.4000   44.8570 O   0  0  0  0  0  0  0  0  0  0  0  0
   57.8140   25.7940   46.4600 C   0  0  0  0  0  0  0  0  0  0  0  0
   58.9040   25.3340   45.7090 C   0  0  0  0  0  0  0  0  0  0  0  0
   60.1950   25.7760   46.0050 C   0  0  0  0  0  0  0  0  0  0  0  0
   60.4020   26.6930   47.0400 C   0  0  0  0  0  0  0  0  0  0  0  0
   59.3190   27.1890   47.7760 C   0  0  0  0  0  0  0  0  0  0  0  0
   59.5720   28.1510   48.8130 N   0  0  0  0  0  0  0  0  0  0  0  0
   59.7530   29.5660   48.6600 C   0  0  0  0  0  0  0  0  0  0  0  0
   60.5090   30.1690   49.4660 O   0  0  0  0  0  0  0  0  0  0  0  0
   59.0930   30.3360   47.5840 C   0  0  0  0  0  0  0  0  0  0  0  0
   58.3180   29.6480   46.6370 C   0  0  0  0  0  0  0  0  0  0  0  0
   57.7420   30.3280   45.5590 C   0  0  0  0  0  0  0  0  0  0  0  0
   56.8280   29.4420   44.3430 S   0  0  0  0  0  0  0  0  0  0  0  0
   55.1730   29.3410   44.8300 N   0  0  0  0  0  0  0  0  0  0  0  0
   57.3910   28.0580   44.1860 O   0  0  0  0  0  0  0  0  0  0  0  0
   56.9190   30.1520   43.0210 O   0  0  0  0  0  0  0  0  0  0  0  0
   57.9360   31.7060   45.4280 C   0  0  0  0  0  0  0  0  0  0  0  0
   58.6790   32.4060   46.3790 C   0  0  0  0  0  0  0  0  0  0  0  0
   59.2590   31.7340   47.4740 C   0  0  0  0  0  0  0  0  0  0  0  0
   59.9790   32.4150   48.4730 O   0  0  0  0  0  0  0  0  0  0  0  0
   59.4110   33.1830   49.5380 C   0  0  0  0  0  0  0  0  0  0  0  0
   60.4970   33.4850   50.6040 C   0  0  0  0  0  0  0  0  0  0  0  0
   59.9260   33.5160   52.0240 C   0  0  0  0  0  0  0  0  0  0  0  0
   59.2940   32.1660   52.4070 C   0  0  0  0  0  0  0  0  0  0  0  0
   58.6120   31.4460   51.2240 C   0  0  0  0  0  0  0  0  0  0  0  0
   58.1990   32.4200   50.1170 C   0  0  0  0  0  0  0  0  0  0  0  0
   58.0270   26.6980   47.5090 C   0  0  0  0  0  0  0  0  0  0  0  0
   55.6420   27.2580   45.2330 H   0  0  0  0  0  0  0  0  0  0  0  0
   58.7423   24.6235   44.8849 H   0  0  0  0  0  0  0  0  0  0  0  0
   61.0504   25.4022   45.4231 H   0  0  0  0  0  0  0  0  0  0  0  0
   61.4227   27.0271   47.2777 H   0  0  0  0  0  0  0  0  0  0  0  0
   58.1623   28.5643   46.7437 H   0  0  0  0  0  0  0  0  0  0  0  0
   55.1360   28.6930   45.6490 H   0  0  0  0  0  0  0  0  0  0  0  0
   57.5008   32.2411   44.5711 H   0  0  0  0  0  0  0  0  0  0  0  0
   58.8135   33.4926   46.2733 H   0  0  0  0  0  0  0  0  0  0  0  0
   59.0482   34.1538   49.1694 H   0  0  0  0  0  0  0  0  0  0  0  0
   61.2709   32.7051   50.5511 H   0  0  0  0  0  0  0  0  0  0  0  0
   60.9131   34.4799   50.3873 H   0  0  0  0  0  0  0  0  0  0  0  0
   60.7375   33.7442   52.7307 H   0  0  0  0  0  0  0  0  0  0  0  0
   59.1431   34.2876   52.0646 H   0  0  0  0  0  0  0  0  0  0  0  0
   60.0845   31.5118   52.8034 H   0  0  0  0  0  0  0  0  0  0  0  0
   58.5120   32.3753   53.1518 H   0  0  0  0  0  0  0  0  0  0  0  0
   59.3136   30.7097   50.8049 H   0  0  0  0  0  0  0  0  0  0  0  0
   57.7016   30.9591   51.6035 H   0  0  0  0  0  0  0  0  0  0  0  0
   57.7157   31.8536   49.3073 H   0  0  0  0  0  0  0  0  0  0  0  0
   57.5088   33.1575   50.5525 H   0  0  0  0  0  0  0  0  0  0  0  0
   57.1790   27.0262   48.1280 H   0  0  0  0  0  0  0  0  0  0  0  0
  1  2  1  0
  2  3  2  0
  2  4  2  0
  2  5  1  0
  5  6  2  0
  6  7  1  0
  7  8  2  0
  8  9  1  0
  9 10  1  0
 10 11  1  0
 11 12  2  0
 11 13  1  0
 13 14  2  0
 14 15  1  0
 15 16  1  0
 16 17  1  0
 16 18  2  0
 16 19  2  0
 15 20  2  0
 20 21  1  0
 21 22  2  0
 22 23  1  0
 23 24  1  0
 24 25  1  0
 25 26  1  0
 26 27  1  0
 27 28  1  0
 28 29  1  0
  9 30  2  0
 30  5  1  0
 22 13  1  0
 29 24  1  0
  1 31  1  0
  6 32  1  0
  7 33  1  0
  8 34  1  0
 14 35  1  0
 17 36  1  0
 20 37  1  0
 21 38  1  0
 24 39  1  0
 25 40  1  0
 25 41  1  0
 26 42  1  0
 26 43  1  0
 27 44  1  0
 27 45  1  0
 28 46  1  0
 28 47  1  0
 29 48  1  0
 29 49  1  0
 30 50  1  0
M  CHG  3   1  -1  10  -1  17  -1
M  END
>  <UniqueID>  (77) 
71

>  <SMILES>  (77) 
[NH-]S(=O)(=O)c1cccc([N-]C(=O)c2cc(S([NH-])(=O)=O)ccc2OC2CCCCC2)c1

>  <Energy>  (77) 
56.46470580428523

>  <Genealogy>  (77) 
[NH-]S(=O)(=O)c1cccc([N-]C(=O)c2cc(S([NH-])(=O)=O)ccc2OC2CCCCC2)c1 (protonated)
[NH-]S(=O)(=O)c1cccc([N-]C(=O)c2cc(S([NH-])(=O)=O)ccc2OC2CCCCC2)c1 (3D coordinates assigned)
[NH-]S(=O)(=O)c1cccc([N-]C(=O)c2cc(S([NH-])(=O)=O)ccc2OC2CCCCC2)c1 (nonaromatic ring conformer: 56.46470580428523 kcal/mol)

>  <smiles>  (77) 
NS(=O)(=O)c1cccc(NC(=O)c2cc(S(N)(=O)=O)ccc2OC2CCCCC2)c1

>  <score_type>  (77) 
oracle

>  <origin>  (77) 
adg

>  <m_score__min__energy>  (77) 
-16.32

>  <m_primary>  (77) 
energy

$$$$
77:0
     RDKit          3D

 41 43  0  0  0  0  0  0  0  0999 V2000
   58.7900   29.5080   45.4180 H   0  0  0  0  0  0  0  0  0  0  0  0
   59.3480   30.3370   45.2450 O   0  0  0  0  0  0  0  0  0  0  0  0
   58.8200   31.6190   45.3950 C   0  0  0  0  0  0  0  0  0  0  0  0
   59.2620   32.4410   46.4430 C   0  0  0  0  0  0  0  0  0  0  0  0
   60.0331   32.0756   47.1371 H   0  0  0  0  0  0  0  0  0  0  0  0
   58.7280   33.7200   46.6090 C   0  0  0  0  0  0  0  0  0  0  0  0
   59.0807   34.3603   47.4309 H   0  0  0  0  0  0  0  0  0  0  0  0
   57.7470   34.1870   45.7330 C   0  0  0  0  0  0  0  0  0  0  0  0
   57.3249   35.1938   45.8678 H   0  0  0  0  0  0  0  0  0  0  0  0
   57.3000   33.3780   44.6850 C   0  0  0  0  0  0  0  0  0  0  0  0
   56.5211   33.7484   44.0022 H   0  0  0  0  0  0  0  0  0  0  0  0
   57.8400   32.0930   44.4980 C   0  0  0  0  0  0  0  0  0  0  0  0
   57.3220   31.2210   43.3860 C   0  0  0  0  0  0  0  0  0  0  0  0
   58.1693   30.7363   42.8789 H   0  0  0  0  0  0  0  0  0  0  0  0
   56.7640   31.8431   42.6707 H   0  0  0  0  0  0  0  0  0  0  0  0
   56.4100   30.1720   43.9380 C   0  0  0  0  0  0  0  0  0  0  0  0
   55.4860   29.7120   43.2160 O   0  0  0  0  0  0  0  0  0  0  0  0
   56.6410   29.6710   45.2660 N   0  0  0  0  0  0  0  0  0  0  0  0
   56.8860   28.4400   45.6060 C   0  0  0  0  0  0  0  0  0  0  0  0
   55.9000   27.4980   45.6220 N   0  0  0  0  0  0  0  0  0  0  0  0
   56.1580   26.2100   45.9810 C   0  0  0  0  0  0  0  0  0  0  0  0
   55.1400   25.2510   46.0040 O   0  0  0  0  0  0  0  0  0  0  0  0
   55.3540   23.8830   46.3470 C   0  0  0  0  0  0  0  0  0  0  0  0
   56.0459   23.8303   47.2005 H   0  0  0  0  0  0  0  0  0  0  0  0
   54.3852   23.4317   46.6072 H   0  0  0  0  0  0  0  0  0  0  0  0
   55.9420   23.1210   45.1890 C   0  0  0  0  0  0  0  0  0  0  0  0
   56.7100   21.9650   45.4140 C   0  0  0  0  0  0  0  0  0  0  0  0
   56.8889   21.6180   46.4424 H   0  0  0  0  0  0  0  0  0  0  0  0
   57.2470   21.2550   44.3370 C   0  0  0  0  0  0  0  0  0  0  0  0
   57.8570   20.3581   44.5197 H   0  0  0  0  0  0  0  0  0  0  0  0
   57.0100   21.6830   43.0280 C   0  0  0  0  0  0  0  0  0  0  0  0
   57.4359   21.1249   42.1812 H   0  0  0  0  0  0  0  0  0  0  0  0
   56.2320   22.8200   42.7950 C   0  0  0  0  0  0  0  0  0  0  0  0
   56.0426   23.1537   41.7641 H   0  0  0  0  0  0  0  0  0  0  0  0
   55.6940   23.5340   43.8690 C   0  0  0  0  0  0  0  0  0  0  0  0
   55.0740   24.4228   43.6804 H   0  0  0  0  0  0  0  0  0  0  0  0
   57.4550   25.8420   46.3370 C   0  0  0  0  0  0  0  0  0  0  0  0
   57.6856   24.8066   46.6280 H   0  0  0  0  0  0  0  0  0  0  0  0
   58.4540   26.8160   46.3160 C   0  0  0  0  0  0  0  0  0  0  0  0
   59.6360   26.5170   46.6330 O   0  0  0  0  0  0  0  0  0  0  0  0
   58.1520   28.0890   45.9530 N   0  0  0  0  0  0  0  0  0  0  0  0
  1  2  1  0
  2  3  1  0
  3  4  2  0
  4  5  1  0
  4  6  1  0
  6  7  1  0
  6  8  2  0
  8  9  1  0
  8 10  1  0
 10 11  1  0
 10 12  2  0
 12 13  1  0
 13 14  1  0
 13 15  1  0
 13 16  1  0
 16 17  2  0
 16 18  1  0
 18 19  2  0
 19 20  1  0
 20 21  1  0
 21 22  1  0
 22 23  1  0
 23 24  1  0
 23 25  1  0
 23 26  1  0
 26 27  2  0
 27 28  1  0
 27 29  1  0
 29 30  1  0
 29 31  2  0
 31 32  1  0
 31 33  1  0
 33 34  1  0
 33 35  2  0
 35 36  1  0
 21 37  2  0
 37 38  1  0
 37 39  1  0
 39 40  2  0
 39 41  1  0
 12  3  1  0
 41 19  1  0
 35 26  1  0
M  CHG  2  20  -1  41  -1
M  END
>  <UniqueID>  (78) 
72

>  <SMILES>  (78) 
O=C(Cc1ccccc1O)/N=c1\[n-]c(OCc2ccccc2)cc(=O)[n-]1

>  <Energy>  (78) 
42.77411538890008

>  <Genealogy>  (78) 
O=C(Cc1ccccc1O)N=c1[n-]c(OCc2ccccc2)cc(=O)[n-]1 (protonated)
O=C(Cc1ccccc1O)/N=c1\[n-]c(OCc2ccccc2)cc(=O)[n-]1 (cis-trans isomerization)
O=C(Cc1ccccc1O)/N=c1\[n-]c(OCc2ccccc2)cc(=O)[n-]1 (3D coordinates assigned)
O=C(Cc1ccccc1O)/N=c1\[n-]c(OCc2ccccc2)cc(=O)[n-]1 (optimized conformer: 42.77411538890008 kcal/mol)

>  <smiles>  (78) 
O=C(Cc1ccccc1O)N=c1[nH]c(OCc2ccccc2)cc(=O)[nH]1

>  <score_type>  (78) 
oracle

>  <origin>  (78) 
adg

>  <m_score__min__energy>  (78) 
-13.029999999999999

>  <m_primary>  (78) 
energy

$$$$
78:0
     RDKit          3D

 36 38  0  0  0  0  0  0  0  0999 V2000
   60.7786   35.0871   48.1122 H   0  0  0  0  0  0  0  0  0  0  0  0
   60.0020   34.6040   47.5010 C   0  0  0  0  0  0  0  0  0  0  0  0
   59.2730   33.5300   48.0190 C   0  0  0  0  0  0  0  0  0  0  0  0
   59.4773   33.1673   49.0372 H   0  0  0  0  0  0  0  0  0  0  0  0
   58.2840   32.9160   47.2440 C   0  0  0  0  0  0  0  0  0  0  0  0
   57.7116   32.0713   47.6548 H   0  0  0  0  0  0  0  0  0  0  0  0
   58.0190   33.3740   45.9430 C   0  0  0  0  0  0  0  0  0  0  0  0
   56.9270   32.7380   45.1260 C   0  0  0  0  0  0  0  0  0  0  0  0
   56.2628   33.5251   44.7396 H   0  0  0  0  0  0  0  0  0  0  0  0
   56.3691   32.0426   45.7703 H   0  0  0  0  0  0  0  0  0  0  0  0
   57.6190   31.7970   43.7190 S   0  0  0  0  0  0  0  0  0  0  0  0
   57.2750   30.1870   44.4270 C   0  0  0  0  0  0  0  0  0  0  0  0
   56.0310   29.7470   44.7140 N   0  0  0  0  0  0  0  0  0  0  0  0
   56.0270   28.5260   45.2460 N   0  0  0  0  0  0  0  0  0  0  0  0
   55.1450   28.0440   45.5300 H   0  0  0  0  0  0  0  0  0  0  0  0
   57.2590   27.9910   45.3860 C   0  0  0  0  0  0  0  0  0  0  0  0
   57.4590   26.8150   45.8990 N   0  0  0  0  0  0  0  0  0  0  0  0
   56.2190   25.6150   46.0900 S   0  0  0  0  0  0  0  0  0  0  0  0
   54.8850   26.2300   45.7710 O   0  0  0  0  0  0  0  0  0  0  0  0
   56.2110   25.1420   47.5170 O   0  0  0  0  0  0  0  0  0  0  0  0
   56.5050   24.2710   44.9900 C   0  0  0  0  0  0  0  0  0  0  0  0
   57.5940   23.4090   45.1860 C   0  0  0  0  0  0  0  0  0  0  0  0
   58.2710   23.5651   46.0388 H   0  0  0  0  0  0  0  0  0  0  0  0
   57.8210   22.3510   44.2990 C   0  0  0  0  0  0  0  0  0  0  0  0
   58.6779   21.6787   44.4529 H   0  0  0  0  0  0  0  0  0  0  0  0
   56.9590   22.1480   43.2170 C   0  0  0  0  0  0  0  0  0  0  0  0
   57.1379   21.3157   42.5203 H   0  0  0  0  0  0  0  0  0  0  0  0
   55.8700   23.0020   43.0200 C   0  0  0  0  0  0  0  0  0  0  0  0
   55.1921   22.8412   42.1688 H   0  0  0  0  0  0  0  0  0  0  0  0
   55.6420   24.0610   43.9050 C   0  0  0  0  0  0  0  0  0  0  0  0
   54.7834   24.7308   43.7494 H   0  0  0  0  0  0  0  0  0  0  0  0
   58.4520   29.0470   44.8230 S   0  0  0  0  0  0  0  0  0  0  0  0
   58.7590   34.4530   45.4280 C   0  0  0  0  0  0  0  0  0  0  0  0
   58.5615   34.8171   44.4090 H   0  0  0  0  0  0  0  0  0  0  0  0
   59.7450   35.0640   46.2080 C   0  0  0  0  0  0  0  0  0  0  0  0
   60.3199   35.9094   45.8021 H   0  0  0  0  0  0  0  0  0  0  0  0
  1  2  1  0
  2  3  2  0
  3  4  1  0
  3  5  1  0
  5  6  1  0
  5  7  2  0
  7  8  1  0
  8  9  1  0
  8 10  1  0
  8 11  1  0
 11 12  1  0
 12 13  2  0
 13 14  1  0
 14 15  1  0
 14 16  1  0
 16 17  2  0
 17 18  1  0
 18 19  2  0
 18 20  2  0
 18 21  1  0
 21 22  2  0
 22 23  1  0
 22 24  1  0
 24 25  1  0
 24 26  2  0
 26 27  1  0
 26 28  1  0
 28 29  1  0
 28 30  2  0
 30 31  1  0
 16 32  1  0
  7 33  1  0
 33 34  1  0
 33 35  2  0
 35 36  1  0
 35  2  1  0
 32 12  1  0
 30 21  1  0
M  END
>  <UniqueID>  (79) 
73

>  <SMILES>  (79) 
O=S(=O)(/N=c1/[nH]nc(SCc2ccccc2)s1)c1ccccc1

>  <Energy>  (79) 
70.63792539988874

>  <Genealogy>  (79) 
O=S(=O)(/N=c1/[nH]nc(SCc2ccccc2)s1)c1ccccc1 (cis-trans isomerization)
O=S(=O)(/N=c1/[nH]nc(SCc2ccccc2)s1)c1ccccc1 (3D coordinates assigned)
O=S(=O)(/N=c1/[nH]nc(SCc2ccccc2)s1)c1ccccc1 (optimized conformer: 70.63792539988874 kcal/mol)

>  <smiles>  (79) 
O=S(=O)(N=c1[nH]nc(SCc2ccccc2)s1)c1ccccc1

>  <score_type>  (79) 
oracle

>  <origin>  (79) 
adg

>  <m_score__min__energy>  (79) 
-10.039999999999999

>  <m_primary>  (79) 
energy

$$$$
79:0
     RDKit          3D

 71 75  0  0  0  0  0  0  0  0999 V2000
   56.2650   27.8030   44.8420 H   0  0  0  0  0  0  0  0  0  0  0  0
   56.3070   28.8100   45.1170 N   0  0  0  0  0  0  0  0  0  0  0  0
   57.2510   29.3290   45.8410 C   0  0  0  0  0  0  0  0  0  0  0  0
   57.5640   30.6370   45.6520 N   0  0  0  0  0  0  0  0  0  0  0  0
   58.5380   31.2710   46.3570 C   0  0  0  0  0  0  0  0  0  0  0  0
   58.7960   32.7150   46.1230 C   0  0  0  0  0  0  0  0  0  0  0  0
   58.8720   33.1730   44.7930 C   0  0  0  0  0  0  0  0  0  0  0  0
   58.6889   32.4714   43.9658 H   0  0  0  0  0  0  0  0  0  0  0  0
   59.1760   34.5030   44.5120 C   0  0  0  0  0  0  0  0  0  0  0  0
   59.2171   34.8491   43.4687 H   0  0  0  0  0  0  0  0  0  0  0  0
   59.4280   35.3950   45.5520 C   0  0  0  0  0  0  0  0  0  0  0  0
   59.6838   36.4410   45.3273 H   0  0  0  0  0  0  0  0  0  0  0  0
   59.3570   34.9660   46.8770 C   0  0  0  0  0  0  0  0  0  0  0  0
   59.5739   35.6757   47.6889 H   0  0  0  0  0  0  0  0  0  0  0  0
   59.0100   33.6310   47.1920 C   0  0  0  0  0  0  0  0  0  0  0  0
   58.9150   33.1680   48.6410 C   0  0  0  0  0  0  0  0  0  0  0  0
   58.1003   33.7272   49.1243 H   0  0  0  0  0  0  0  0  0  0  0  0
   58.7411   32.0825   48.6039 H   0  0  0  0  0  0  0  0  0  0  0  0
   60.1920   33.3680   49.4780 C   0  0  0  0  0  0  0  0  0  0  0  0
   60.2199   34.4024   49.8511 H   0  0  0  0  0  0  0  0  0  0  0  0
   60.1773   32.6575   50.3176 H   0  0  0  0  0  0  0  0  0  0  0  0
   61.4230   33.1090   48.6490 C   0  0  0  0  0  0  0  0  0  0  0  0
   62.1660   34.1850   48.1350 C   0  0  0  0  0  0  0  0  0  0  0  0
   61.8496   35.2179   48.3423 H   0  0  0  0  0  0  0  0  0  0  0  0
   63.3060   33.9480   47.3610 C   0  0  0  0  0  0  0  0  0  0  0  0
   63.8842   34.7943   46.9616 H   0  0  0  0  0  0  0  0  0  0  0  0
   63.7120   32.6380   47.0940 C   0  0  0  0  0  0  0  0  0  0  0  0
   64.6134   32.4539   46.4910 H   0  0  0  0  0  0  0  0  0  0  0  0
   62.9730   31.5610   47.5930 C   0  0  0  0  0  0  0  0  0  0  0  0
   63.2928   30.5302   47.3803 H   0  0  0  0  0  0  0  0  0  0  0  0
   61.8280   31.7920   48.3620 C   0  0  0  0  0  0  0  0  0  0  0  0
   61.2426   30.9424   48.7434 H   0  0  0  0  0  0  0  0  0  0  0  0
   59.2460   30.5650   47.3350 C   0  0  0  0  0  0  0  0  0  0  0  0
   60.0386   31.0677   47.9087 H   0  0  0  0  0  0  0  0  0  0  0  0
   58.9480   29.2180   47.5860 C   0  0  0  0  0  0  0  0  0  0  0  0
   59.6800   28.5200   48.6730 C   0  0  0  0  0  0  0  0  0  0  0  0
   60.0180   27.1630   48.5410 C   0  0  0  0  0  0  0  0  0  0  0  0
   59.7085   26.6066   47.6440 H   0  0  0  0  0  0  0  0  0  0  0  0
   60.7450   26.5170   49.5430 C   0  0  0  0  0  0  0  0  0  0  0  0
   61.0005   25.4525   49.4356 H   0  0  0  0  0  0  0  0  0  0  0  0
   61.1490   27.2190   50.6820 C   0  0  0  0  0  0  0  0  0  0  0  0
   61.7208   26.7040   51.4680 H   0  0  0  0  0  0  0  0  0  0  0  0
   60.8290   28.5770   50.8280 C   0  0  0  0  0  0  0  0  0  0  0  0
   61.2730   29.3350   52.0600 C   0  0  0  0  0  0  0  0  0  0  0  0
   61.8629   28.6598   52.6972 H   0  0  0  0  0  0  0  0  0  0  0  0
   61.8696   30.1973   51.7276 H   0  0  0  0  0  0  0  0  0  0  0  0
   60.1260   29.8530   52.8470 N   0  0  1  0  0  0  0  0  0  0  0  0
   60.4100   29.8770   53.8540 H   0  0  0  0  0  0  0  0  0  0  0  0
   59.7710   31.2510   52.4560 C   0  0  0  0  0  0  0  0  0  0  0  0
   59.4475   31.7961   53.3550 H   0  0  0  0  0  0  0  0  0  0  0  0
   60.6644   31.7055   52.0030 H   0  0  0  0  0  0  0  0  0  0  0  0
   58.6430   31.3090   51.4140 C   0  0  0  0  0  0  0  0  0  0  0  0
   58.4351   32.3614   51.1709 H   0  0  0  0  0  0  0  0  0  0  0  0
   58.9706   30.7574   50.5205 H   0  0  0  0  0  0  0  0  0  0  0  0
   57.3530   30.6530   51.9400 C   0  0  0  0  0  0  0  0  0  0  0  0
   56.7084   31.4353   52.3672 H   0  0  0  0  0  0  0  0  0  0  0  0
   56.8670   30.1458   51.0935 H   0  0  0  0  0  0  0  0  0  0  0  0
   57.6300   29.5900   53.0280 C   0  0  1  0  0  0  0  0  0  0  0  0
   57.6838   30.0908   54.0059 H   0  0  0  0  0  0  0  0  0  0  0  0
   56.4910   28.5680   53.1030 C   0  0  0  0  0  0  0  0  0  0  0  0
   56.2562   28.3573   54.1568 H   0  0  0  0  0  0  0  0  0  0  0  0
   55.5997   28.9750   52.6030 H   0  0  0  0  0  0  0  0  0  0  0  0
   56.7993   27.6380   52.6030 H   0  0  0  0  0  0  0  0  0  0  0  0
   58.9820   28.9010   52.7540 C   0  0  0  0  0  0  0  0  0  0  0  0
   59.1273   28.0987   53.4924 H   0  0  0  0  0  0  0  0  0  0  0  0
   58.9568   28.5009   51.7296 H   0  0  0  0  0  0  0  0  0  0  0  0
   60.0930   29.2230   49.8180 C   0  0  0  0  0  0  0  0  0  0  0  0
   59.8384   30.2878   49.9253 H   0  0  0  0  0  0  0  0  0  0  0  0
   57.9440   28.5780   46.8200 C   0  0  0  0  0  0  0  0  0  0  0  0
   57.6650   27.1700   47.0110 C   0  0  0  0  0  0  0  0  0  0  0  0
   57.4430   26.0450   47.1640 N   0  0  0  0  0  0  0  0  0  0  0  0
  1  2  1  0
  2  3  2  0
  3  4  1  0
  4  5  1  0
  5  6  1  0
  6  7  2  0
  7  8  1  0
  7  9  1  0
  9 10  1  0
  9 11  2  0
 11 12  1  0
 11 13  1  0
 13 14  1  0
 13 15  2  0
 15 16  1  0
 16 17  1  0
 16 18  1  0
 16 19  1  0
 19 20  1  0
 19 21  1  0
 19 22  1  0
 22 23  2  0
 23 24  1  0
 23 25  1  0
 25 26  1  0
 25 27  2  0
 27 28  1  0
 27 29  1  0
 29 30  1  0
 29 31  2  0
 31 32  1  0
  5 33  2  0
 33 34  1  0
 33 35  1  0
 35 36  1  0
 36 37  2  0
 37 38  1  0
 37 39  1  0
 39 40  1  0
 39 41  2  0
 41 42  1  0
 41 43  1  0
 43 44  1  0
 44 45  1  0
 44 46  1  0
 44 47  1  0
 47 48  1  1
 47 49  1  0
 49 50  1  0
 49 51  1  0
 49 52  1  0
 52 53  1  0
 52 54  1  0
 52 55  1  0
 55 56  1  0
 55 57  1  0
 55 58  1  0
 58 59  1  1
 58 60  1  0
 60 61  1  0
 60 62  1  0
 60 63  1  0
 58 64  1  0
 64 65  1  0
 64 66  1  0
 43 67  2  0
 67 68  1  0
 35 69  2  0
 69 70  1  0
 70 71  3  0
 69  3  1  0
 15  6  1  0
 31 22  1  0
 67 36  1  0
 64 47  1  0
M  CHG  2   4  -1  47   1
M  END
>  <UniqueID>  (80) 
74

>  <SMILES>  (80) 
[H]/N=c1/[n-]c(-c2ccccc2CCc2ccccc2)cc(-c2cccc(C[N@H+]3CCC[C@@H](C)C3)c2)c1C#N

>  <Energy>  (80) 
100.579761144301

>  <Genealogy>  (80) 
CC1CCC[NH+](Cc2cccc(-c3cc(-c4ccccc4CCc4ccccc4)[n-]c(=N)c3C#N)c2)C1 (protonated)
C[C@@H]1CCC[N@H+](Cc2cccc(-c3cc(-c4ccccc4CCc4ccccc4)[n-]c(=N)c3C#N)c2)C1 (chirality)
[H]/N=c1/[n-]c(-c2ccccc2CCc2ccccc2)cc(-c2cccc(C[N@H+]3CCC[C@@H](C)C3)c2)c1C#N (cis-trans isomerization)
[H]/N=c1/[n-]c(-c2ccccc2CCc2ccccc2)cc(-c2cccc(C[N@H+]3CCC[C@@H](C)C3)c2)c1C#N (3D coordinates assigned)
[H]/N=c1/[n-]c(-c2ccccc2CCc2ccccc2)cc(-c2cccc(C[N@H+]3CCC[C@@H](C)C3)c2)c1C#N (nonaromatic ring conformer: 100.579761144301 kcal/mol)

>  <smiles>  (80) 
CC1CCCN(Cc2cccc(-c3cc(-c4ccccc4CCc4ccccc4)[nH]c(=N)c3C#N)c2)C1

>  <score_type>  (80) 
oracle

>  <origin>  (80) 
adg

>  <m_score__min__energy>  (80) 
-9.9900000000000002

>  <m_primary>  (80) 
energy

$$$$
80:0
     RDKit          3D

 35 38  0  0  0  0  0  0  0  0999 V2000
   57.7570   30.5350   51.2410 H   0  0  0  0  0  0  0  0  0  0  0  0
   57.3530   30.2200   52.1500 N   0  0  0  0  0  0  0  0  0  0  0  0
   56.0950   29.9640   52.3220 C   0  0  0  0  0  0  0  0  0  0  0  0
   55.1600   30.8370   51.8510 N   0  0  0  0  0  0  0  0  0  0  0  0
   53.8160   30.6300   52.0080 C   0  0  0  0  0  0  0  0  0  0  0  0
   52.9110   31.5780   51.5180 C   0  0  0  0  0  0  0  0  0  0  0  0
   53.2817   32.4665   50.9858 H   0  0  0  0  0  0  0  0  0  0  0  0
   51.5370   31.3990   51.7030 C   0  0  0  0  0  0  0  0  0  0  0  0
   50.6420   32.3430   51.2130 O   0  0  0  0  0  0  0  0  0  0  0  0
   51.0610   30.2760   52.3860 C   0  0  0  0  0  0  0  0  0  0  0  0
   49.9790   30.1448   52.5348 H   0  0  0  0  0  0  0  0  0  0  0  0
   51.9510   29.3190   52.8810 C   0  0  0  0  0  0  0  0  0  0  0  0
   51.5688   28.4454   53.4295 H   0  0  0  0  0  0  0  0  0  0  0  0
   53.3350   29.4710   52.6790 C   0  0  0  0  0  0  0  0  0  0  0  0
   54.3040   28.5560   53.1330 C   0  0  0  0  0  0  0  0  0  0  0  0
   54.2530   27.3220   53.7810 C   0  0  0  0  0  0  0  0  0  0  0  0
   53.0650   26.5030   54.0770 C   0  0  0  0  0  0  0  0  0  0  0  0
   52.5990   25.5720   53.1380 C   0  0  0  0  0  0  0  0  0  0  0  0
   53.1317   25.4396   52.1847 H   0  0  0  0  0  0  0  0  0  0  0  0
   51.4570   24.8110   53.4120 C   0  0  0  0  0  0  0  0  0  0  0  0
   51.0975   24.0753   52.6775 H   0  0  0  0  0  0  0  0  0  0  0  0
   50.7730   24.9850   54.6180 C   0  0  0  0  0  0  0  0  0  0  0  0
   49.8761   24.3853   54.8324 H   0  0  0  0  0  0  0  0  0  0  0  0
   51.2270   25.9200   55.5520 C   0  0  0  0  0  0  0  0  0  0  0  0
   50.6873   26.0558   56.5008 H   0  0  0  0  0  0  0  0  0  0  0  0
   52.3670   26.6830   55.2810 C   0  0  0  0  0  0  0  0  0  0  0  0
   52.7173   27.4257   56.0129 H   0  0  0  0  0  0  0  0  0  0  0  0
   55.5270   26.9080   53.9910 N   0  0  0  0  0  0  0  0  0  0  0  0
   55.9420   25.6550   54.6170 C   0  0  0  0  0  0  0  0  0  0  0  0
   55.9064   25.7624   55.7112 H   0  0  0  0  0  0  0  0  0  0  0  0
   55.2634   24.8472   54.3056 H   0  0  0  0  0  0  0  0  0  0  0  0
   56.9686   25.4120   54.3056 H   0  0  0  0  0  0  0  0  0  0  0  0
   56.3720   27.8090   53.5080 N   0  0  0  0  0  0  0  0  0  0  0  0
   57.4130   27.7210   53.5320 H   0  0  0  0  0  0  0  0  0  0  0  0
   55.6470   28.8100   52.9760 C   0  0  0  0  0  0  0  0  0  0  0  0
  1  2  1  0
  2  3  2  0
  3  4  1  0
  4  5  1  0
  5  6  2  0
  6  7  1  0
  6  8  1  0
  8  9  1  0
  8 10  2  0
 10 11  1  0
 10 12  1  0
 12 13  1  0
 12 14  2  0
 14 15  1  0
 15 16  2  0
 16 17  1  0
 17 18  2  0
 18 19  1  0
 18 20  1  0
 20 21  1  0
 20 22  2  0
 22 23  1  0
 22 24  1  0
 24 25  1  0
 24 26  2  0
 26 27  1  0
 16 28  1  0
 28 29  1  0
 29 30  1  0
 29 31  1  0
 29 32  1  0
 28 33  1  0
 33 34  1  0
 33 35  2  0
 35  3  1  0
 14  5  1  0
 35 15  1  0
 26 17  1  0
M  CHG  3   4  -1   9  -1  33   1
M  END
>  <UniqueID>  (81) 
75

>  <SMILES>  (81) 
[H]/N=c1/[n-]c2cc([O-])ccc2c2c(-c3ccccc3)n(C)[nH+]c12

>  <Energy>  (81) 
91.98629424262805

>  <Genealogy>  (81) 
Cn1[nH+]c2c(=N)[n-]c3cc([O-])ccc3c2c1-c1ccccc1 (protonated)
[H]/N=c1/[n-]c2cc([O-])ccc2c2c(-c3ccccc3)n(C)[nH+]c12 (cis-trans isomerization)
[H]/N=c1/[n-]c2cc([O-])ccc2c2c(-c3ccccc3)n(C)[nH+]c12 (3D coordinates assigned)
[H]/N=c1/[n-]c2cc([O-])ccc2c2c(-c3ccccc3)n(C)[nH+]c12 (optimized conformer: 91.98629424262805 kcal/mol)

>  <smiles>  (81) 
Cn1nc2c(=N)[nH]c3cc(O)ccc3c2c1-c1ccccc1

>  <score_type>  (81) 
oracle

>  <origin>  (81) 
adg

>  <m_score__min__energy>  (81) 
-9.6300000000000008

>  <m_primary>  (81) 
energy

$$$$
81:0
     RDKit          3D

 35 37  0  0  0  0  0  0  0  0999 V2000
   57.0210   24.4990   43.3700 C   0  0  0  0  0  0  0  0  0  0  0  0
   56.4100   24.1860   44.7340 C   0  0  0  0  0  0  0  0  0  0  0  0
   56.2110   25.4340   45.5560 C   0  0  0  0  0  0  0  0  0  0  0  0
   55.1560   25.5610   46.2370 O   0  0  0  0  0  0  0  0  0  0  0  0
   57.2290   26.5100   45.5990 C   0  0  0  0  0  0  0  0  0  0  0  0
   58.5810   26.1590   45.7540 C   0  0  0  0  0  0  0  0  0  0  0  0
   59.5680   27.1420   45.8050 C   0  0  0  0  0  0  0  0  0  0  0  0
   59.2230   28.4900   45.6980 C   0  0  0  0  0  0  0  0  0  0  0  0
   57.8810   28.8680   45.5380 C   0  0  0  0  0  0  0  0  0  0  0  0
   57.5350   30.2970   45.3850 C   0  0  0  0  0  0  0  0  0  0  0  0
   56.6560   30.7090   44.5230 N   0  0  0  0  0  0  0  0  0  0  0  0
   56.5700   32.0820   44.5690 O   0  0  0  0  0  0  0  0  0  0  0  0
   57.4500   32.5670   45.5150 C   0  0  0  0  0  0  0  0  0  0  0  0
   57.6830   33.7890   45.7020 O   0  0  0  0  0  0  0  0  0  0  0  0
   58.1150   31.4280   46.1350 C   0  0  0  0  0  0  0  0  0  0  0  0
   58.9930   31.3740   47.1490 C   0  0  0  0  0  0  0  0  0  0  0  0
   60.2910   32.0690   47.1780 C   0  0  0  0  0  0  0  0  0  0  0  0
   60.4920   33.3720   46.7400 C   0  0  0  0  0  0  0  0  0  0  0  0
   61.8410   33.7520   46.7230 C   0  0  0  0  0  0  0  0  0  0  0  0
   62.7100   32.7420   47.1130 C   0  0  0  0  0  0  0  0  0  0  0  0
   61.7980   31.3760   47.4730 S   0  0  0  0  0  0  0  0  0  0  0  0
   56.8840   27.8740   45.4670 C   0  0  0  0  0  0  0  0  0  0  0  0
   55.5590   28.2450   45.2520 O   0  0  0  0  0  0  0  0  0  0  0  0
   57.9922   24.9965   43.5087 H   0  0  0  0  0  0  0  0  0  0  0  0
   57.1650   23.5636   42.8094 H   0  0  0  0  0  0  0  0  0  0  0  0
   56.3460   25.1623   42.8094 H   0  0  0  0  0  0  0  0  0  0  0  0
   55.4353   23.6985   44.5845 H   0  0  0  0  0  0  0  0  0  0  0  0
   57.1024   23.5253   45.2762 H   0  0  0  0  0  0  0  0  0  0  0  0
   58.8629   25.0989   45.8358 H   0  0  0  0  0  0  0  0  0  0  0  0
   60.6223   26.8542   45.9300 H   0  0  0  0  0  0  0  0  0  0  0  0
   60.0071   29.2603   45.7393 H   0  0  0  0  0  0  0  0  0  0  0  0
   58.7226   30.7648   48.0241 H   0  0  0  0  0  0  0  0  0  0  0  0
   59.6726   34.0401   46.4363 H   0  0  0  0  0  0  0  0  0  0  0  0
   62.1794   34.7563   46.4283 H   0  0  0  0  0  0  0  0  0  0  0  0
   63.8053   32.8216   47.1756 H   0  0  0  0  0  0  0  0  0  0  0  0
  1  2  1  0
  2  3  1  0
  3  4  2  0
  3  5  1  0
  5  6  2  0
  6  7  1  0
  7  8  2  0
  8  9  1  0
  9 10  1  0
 10 11  2  0
 11 12  1  0
 12 13  1  0
 13 14  2  0
 13 15  1  0
 15 16  2  3
 16 17  1  0
 17 18  2  0
 18 19  1  0
 19 20  2  0
 20 21  1  0
  9 22  2  0
 22 23  1  0
 22  5  1  0
 15 10  1  0
 21 17  1  0
  1 24  1  0
  1 25  1  0
  1 26  1  0
  2 27  1  0
  2 28  1  0
  6 29  1  0
  7 30  1  0
  8 31  1  0
 16 32  1  0
 18 33  1  0
 19 34  1  0
 20 35  1  0
M  CHG  1  23  -1
M  END
>  <UniqueID>  (82) 
76

>  <SMILES>  (82) 
CCC(=O)c1cccc(C2=NOC(=O)C2=Cc2cccs2)c1[O-]

>  <Energy>  (82) 
107.67778190288352

>  <Genealogy>  (82) 
CCC(=O)c1cccc(C2=NOC(=O)C2=Cc2cccs2)c1[O-] (protonated)
CCC(=O)c1cccc(C2=NOC(=O)C2=Cc2cccs2)c1[O-] (3D coordinates assigned)
CCC(=O)c1cccc(C2=NOC(=O)C2=Cc2cccs2)c1[O-] (nonaromatic ring conformer: 107.67778190288352 kcal/mol)

>  <smiles>  (82) 
CCC(=O)c1cccc(C2=NOC(=O)C2=Cc2cccs2)c1O

>  <score_type>  (82) 
oracle

>  <origin>  (82) 
adg

>  <m_score__min__energy>  (82) 
-12.65

>  <m_primary>  (82) 
energy

$$$$
82:0
     RDKit          3D

 56 59  0  0  0  0  0  0  0  0999 V2000
   55.8400   22.8730   47.3270 C   0  0  0  0  0  0  0  0  0  0  0  0
   56.1160   23.0410   45.8560 C   0  0  0  0  0  0  0  0  0  0  0  0
   56.3820   21.8980   45.0800 C   0  0  0  0  0  0  0  0  0  0  0  0
   56.6180   22.0100   43.7080 C   0  0  0  0  0  0  0  0  0  0  0  0
   56.6000   23.2610   43.0950 C   0  0  0  0  0  0  0  0  0  0  0  0
   56.3540   24.4080   43.8510 C   0  0  0  0  0  0  0  0  0  0  0  0
   56.1130   24.3170   45.2350 C   0  0  0  0  0  0  0  0  0  0  0  0
   55.8710   25.5640   46.0000 C   0  0  0  0  0  0  0  0  0  0  0  0
   54.7540   26.1390   45.9170 O   0  0  0  0  0  0  0  0  0  0  0  0
   56.8500   26.0950   46.9050 N   0  0  0  0  0  0  0  0  0  0  0  0
   57.5990   27.3050   46.7220 C   0  0  0  0  0  0  0  0  0  0  0  0
   57.4960   28.0650   45.5440 C   0  0  0  0  0  0  0  0  0  0  0  0
   58.2400   29.2390   45.3980 C   0  0  0  0  0  0  0  0  0  0  0  0
   59.0910   29.6700   46.4260 C   0  0  0  0  0  0  0  0  0  0  0  0
   59.8730   30.9060   46.2560 C   0  0  0  0  0  0  0  0  0  0  0  0
   61.1270   30.8480   46.3720 O   0  0  0  0  0  0  0  0  0  0  0  0
   59.2330   32.1780   46.0200 N   0  0  0  0  0  0  0  0  0  0  0  0
   57.8790   32.3240   45.5070 C   0  0  0  0  0  0  0  0  0  0  0  0
   57.5720   33.8160   45.5200 C   0  0  0  0  0  0  0  0  0  0  0  0
   58.8820   34.5340   45.8510 C   0  0  0  0  0  0  0  0  0  0  0  0
   59.8840   33.4570   46.2720 C   0  0  1  0  0  0  0  0  0  0  0  0
   60.2920   33.6030   47.7210 C   0  0  0  0  0  0  0  0  0  0  0  0
   59.4240   33.6050   48.8000 C   0  0  0  0  0  0  0  0  0  0  0  0
   60.1500   33.7180   49.9290 N   0  0  0  0  0  0  0  0  0  0  0  0
   59.6180   33.8390   51.2800 C   0  0  0  0  0  0  0  0  0  0  0  0
   61.4340   33.8000   49.6220 N   0  0  0  0  0  0  0  0  0  0  0  0
   61.5600   33.7190   48.2830 C   0  0  0  0  0  0  0  0  0  0  0  0
   62.8740   33.7760   47.5690 C   0  0  0  0  0  0  0  0  0  0  0  0
   59.1560   28.9380   47.6200 C   0  0  0  0  0  0  0  0  0  0  0  0
   58.4110   27.7640   47.7660 C   0  0  0  0  0  0  0  0  0  0  0  0
   56.6381   23.3588   47.9076 H   0  0  0  0  0  0  0  0  0  0  0  0
   54.8732   23.3360   47.5739 H   0  0  0  0  0  0  0  0  0  0  0  0
   55.8072   21.8016   47.5739 H   0  0  0  0  0  0  0  0  0  0  0  0
   56.4043   20.9075   45.5580 H   0  0  0  0  0  0  0  0  0  0  0  0
   56.8185   21.1087   43.1102 H   0  0  0  0  0  0  0  0  0  0  0  0
   56.7800   23.3448   42.0131 H   0  0  0  0  0  0  0  0  0  0  0  0
   56.3484   25.3927   43.3607 H   0  0  0  0  0  0  0  0  0  0  0  0
   56.8280   27.7348   44.7349 H   0  0  0  0  0  0  0  0  0  0  0  0
   58.1577   29.8277   44.4725 H   0  0  0  0  0  0  0  0  0  0  0  0
   57.8166   31.9318   44.4812 H   0  0  0  0  0  0  0  0  0  0  0  0
   57.1580   31.7634   46.1201 H   0  0  0  0  0  0  0  0  0  0  0  0
   57.2038   34.1355   44.5339 H   0  0  0  0  0  0  0  0  0  0  0  0
   56.7941   34.0525   46.2610 H   0  0  0  0  0  0  0  0  0  0  0  0
   59.2533   35.0711   44.9657 H   0  0  0  0  0  0  0  0  0  0  0  0
   58.7353   35.2713   46.6540 H   0  0  0  0  0  0  0  0  0  0  0  0
   60.8189   33.5439   45.6989 H   0  0  0  0  0  0  0  0  0  0  0  0
   58.3281   33.5275   48.7446 H   0  0  0  0  0  0  0  0  0  0  0  0
   60.4218   33.6562   52.0083 H   0  0  0  0  0  0  0  0  0  0  0  0
   59.2145   34.8519   51.4258 H   0  0  0  0  0  0  0  0  0  0  0  0
   58.8161   33.1003   51.4258 H   0  0  0  0  0  0  0  0  0  0  0  0
   62.2080   33.9180   50.3140 H   0  0  0  0  0  0  0  0  0  0  0  0
   63.6903   33.8114   48.3055 H   0  0  0  0  0  0  0  0  0  0  0  0
   62.9877   32.8819   46.9383 H   0  0  0  0  0  0  0  0  0  0  0  0
   62.9099   34.6765   46.9383 H   0  0  0  0  0  0  0  0  0  0  0  0
   59.7949   29.2883   48.4441 H   0  0  0  0  0  0  0  0  0  0  0  0
   58.4632   27.1972   48.7073 H   0  0  0  0  0  0  0  0  0  0  0  0
  1  2  1  0
  2  3  2  0
  3  4  1  0
  4  5  2  0
  5  6  1  0
  6  7  2  0
  7  8  1  0
  8  9  2  0
  8 10  1  0
 10 11  1  0
 11 12  2  0
 12 13  1  0
 13 14  2  0
 14 15  1  0
 15 16  2  0
 15 17  1  0
 17 18  1  0
 18 19  1  0
 19 20  1  0
 20 21  1  0
 21 22  1  0
 22 23  2  0
 23 24  1  0
 24 25  1  0
 24 26  1  0
 26 27  2  0
 27 28  1  0
 14 29  1  0
 29 30  2  0
  7  2  1  0
 30 11  1  0
 21 17  1  0
 27 22  1  0
  1 31  1  0
  1 32  1  0
  1 33  1  0
  3 34  1  0
  4 35  1  0
  5 36  1  0
  6 37  1  0
 12 38  1  0
 13 39  1  0
 18 40  1  0
 18 41  1  0
 19 42  1  0
 19 43  1  0
 20 44  1  0
 20 45  1  0
 21 46  1  6
 23 47  1  0
 25 48  1  0
 25 49  1  0
 25 50  1  0
 26 51  1  0
 28 52  1  0
 28 53  1  0
 28 54  1  0
 29 55  1  0
 30 56  1  0
M  CHG  2  10  -1  26   1
M  END
>  <UniqueID>  (83) 
77

>  <SMILES>  (83) 
Cc1ccccc1C(=O)[N-]c1ccc(C(=O)N2CCC[C@H]2c2cn(C)[nH+]c2C)cc1

>  <Energy>  (83) 
101.26040738218389

>  <Genealogy>  (83) 
Cc1ccccc1C(=O)[N-]c1ccc(C(=O)N2CCCC2c2cn(C)[nH+]c2C)cc1 (protonated)
Cc1ccccc1C(=O)[N-]c1ccc(C(=O)N2CCC[C@H]2c2cn(C)[nH+]c2C)cc1 (chirality)
Cc1ccccc1C(=O)[N-]c1ccc(C(=O)N2CCC[C@H]2c2cn(C)[nH+]c2C)cc1 (3D coordinates assigned)
Cc1ccccc1C(=O)[N-]c1ccc(C(=O)N2CCC[C@H]2c2cn(C)[nH+]c2C)cc1 (nonaromatic ring conformer: 101.26040738218389 kcal/mol)

>  <smiles>  (83) 
Cc1ccccc1C(=O)Nc1ccc(C(=O)N2CCCC2c2cn(C)nc2C)cc1

>  <score_type>  (83) 
oracle

>  <origin>  (83) 
adg

>  <m_score__min__energy>  (83) 
-9.8300000000000001

>  <m_primary>  (83) 
energy

$$$$
83:0
     RDKit          3D

 49 52  0  0  0  0  0  0  0  0999 V2000
   55.8040   24.3992   46.8326 H   0  0  0  0  0  0  0  0  0  0  0  0
   56.2830   25.3100   46.4440 C   0  0  0  0  0  0  0  0  0  0  0  0
   55.5680   26.4020   46.0580 N   0  0  0  0  0  0  0  0  0  0  0  0
   56.3720   27.3920   45.6170 C   0  0  0  0  0  0  0  0  0  0  0  0
   55.9030   28.5270   45.1960 N   0  0  0  0  0  0  0  0  0  0  0  0
   56.6240   29.4800   43.9380 S   0  0  0  0  0  0  0  0  0  0  0  0
   55.5360   30.0940   43.1020 O   0  0  0  0  0  0  0  0  0  0  0  0
   57.4610   28.5970   43.0540 O   0  0  0  0  0  0  0  0  0  0  0  0
   57.5960   30.7680   44.6430 C   0  0  0  0  0  0  0  0  0  0  0  0
   57.6380   32.0390   44.0540 C   0  0  0  0  0  0  0  0  0  0  0  0
   57.0538   32.2411   43.1441 H   0  0  0  0  0  0  0  0  0  0  0  0
   58.4200   33.0510   44.6190 C   0  0  0  0  0  0  0  0  0  0  0  0
   58.4388   34.0501   44.1592 H   0  0  0  0  0  0  0  0  0  0  0  0
   59.1840   32.7960   45.7750 C   0  0  0  0  0  0  0  0  0  0  0  0
   59.9680   33.8180   46.4120 N   0  0  0  0  0  0  0  0  0  0  0  0
   60.5660   33.7280   47.5640 C   0  0  0  0  0  0  0  0  0  0  0  0
   59.9440   33.8420   48.7580 N   0  0  0  0  0  0  0  0  0  0  0  0
   60.8190   33.7440   49.7950 C   0  0  0  0  0  0  0  0  0  0  0  0
   60.3300   33.7980   51.2100 C   0  0  0  0  0  0  0  0  0  0  0  0
   61.1840   33.7037   51.8969 H   0  0  0  0  0  0  0  0  0  0  0  0
   59.8221   34.7577   51.3860 H   0  0  0  0  0  0  0  0  0  0  0  0
   59.6249   32.9723   51.3860 H   0  0  0  0  0  0  0  0  0  0  0  0
   62.1610   33.5800   49.4140 C   0  0  0  0  0  0  0  0  0  0  0  0
   63.3460   33.4320   50.2810 C   0  0  0  0  0  0  0  0  0  0  0  0
   63.5200   34.2550   51.2210 O   0  0  0  0  0  0  0  0  0  0  0  0
   64.2530   32.3330   50.1170 N   0  0  0  0  0  0  0  0  0  0  0  0
   63.8800   31.4550   49.6960 H   0  0  0  0  0  0  0  0  0  0  0  0
   65.6020   32.3460   50.6220 C   0  0  0  0  0  0  0  0  0  0  0  0
   66.4440   33.4400   50.3530 C   0  0  0  0  0  0  0  0  0  0  0  0
   66.0593   34.2946   49.7771 H   0  0  0  0  0  0  0  0  0  0  0  0
   67.7640   33.4520   50.8100 C   0  0  0  0  0  0  0  0  0  0  0  0
   68.4097   34.3178   50.6015 H   0  0  0  0  0  0  0  0  0  0  0  0
   68.2640   32.3680   51.5300 C   0  0  0  0  0  0  0  0  0  0  0  0
   69.3037   32.3796   51.8889 H   0  0  0  0  0  0  0  0  0  0  0  0
   67.4470   31.2680   51.7960 C   0  0  0  0  0  0  0  0  0  0  0  0
   67.8494   30.4130   52.3591 H   0  0  0  0  0  0  0  0  0  0  0  0
   66.1140   31.2440   51.3500 C   0  0  0  0  0  0  0  0  0  0  0  0
   65.2550   30.0440   51.6540 C   0  0  0  0  0  0  0  0  0  0  0  0
   65.1678   29.9221   52.7437 H   0  0  0  0  0  0  0  0  0  0  0  0
   64.2547   30.1897   51.2201 H   0  0  0  0  0  0  0  0  0  0  0  0
   65.7154   29.1441   51.2201 H   0  0  0  0  0  0  0  0  0  0  0  0
   62.2210   33.5240   47.7310 S   0  0  0  0  0  0  0  0  0  0  0  0
   59.1160   31.5310   46.3720 C   0  0  0  0  0  0  0  0  0  0  0  0
   59.6797   31.3326   47.2955 H   0  0  0  0  0  0  0  0  0  0  0  0
   58.3380   30.5190   45.8040 C   0  0  0  0  0  0  0  0  0  0  0  0
   58.3083   29.5233   46.2705 H   0  0  0  0  0  0  0  0  0  0  0  0
   57.9990   26.9540   45.6890 S   0  0  0  0  0  0  0  0  0  0  0  0
   57.6620   25.4280   46.3120 C   0  0  0  0  0  0  0  0  0  0  0  0
   58.4036   24.6577   46.5700 H   0  0  0  0  0  0  0  0  0  0  0  0
  1  2  1  0
  2  3  1  0
  3  4  1  0
  4  5  2  0
  5  6  1  0
  6  7  2  0
  6  8  2  0
  6  9  1  0
  9 10  2  0
 10 11  1  0
 10 12  1  0
 12 13  1  0
 12 14  2  0
 14 15  1  0
 15 16  2  0
 16 17  1  0
 17 18  1  0
 18 19  1  0
 19 20  1  0
 19 21  1  0
 19 22  1  0
 18 23  2  0
 23 24  1  0
 24 25  2  0
 24 26  1  0
 26 27  1  0
 26 28  1  0
 28 29  2  0
 29 30  1  0
 29 31  1  0
 31 32  1  0
 31 33  2  0
 33 34  1  0
 33 35  1  0
 35 36  1  0
 35 37  2  0
 37 38  1  0
 38 39  1  0
 38 40  1  0
 38 41  1  0
 23 42  1  0
 14 43  1  0
 43 44  1  0
 43 45  2  0
 45 46  1  0
  4 47  1  0
 47 48  1  0
 48 49  1  0
 48  2  2  0
 45  9  1  0
 42 16  1  0
 37 28  1  0
M  CHG  2   3  -1  17  -1
M  END
>  <UniqueID>  (84) 
78

>  <SMILES>  (84) 
Cc1ccccc1NC(=O)c1s/c(=N/c2ccc(S(=O)(=O)/N=c3/[n-]ccs3)cc2)[n-]c1C

>  <Energy>  (84) 
128.13693274835197

>  <Genealogy>  (84) 
Cc1ccccc1NC(=O)c1sc(=Nc2ccc(S(=O)(=O)N=c3[n-]ccs3)cc2)[n-]c1C (protonated)
Cc1ccccc1NC(=O)c1s/c(=N/c2ccc(S(=O)(=O)/N=c3/[n-]ccs3)cc2)[n-]c1C (cis-trans isomerization)
Cc1ccccc1NC(=O)c1s/c(=N/c2ccc(S(=O)(=O)/N=c3/[n-]ccs3)cc2)[n-]c1C (3D coordinates assigned)
Cc1ccccc1NC(=O)c1s/c(=N/c2ccc(S(=O)(=O)/N=c3/[n-]ccs3)cc2)[n-]c1C (optimized conformer: 128.13693274835197 kcal/mol)

>  <smiles>  (84) 
Cc1ccccc1NC(=O)c1sc(=Nc2ccc(S(=O)(=O)N=c3[nH]ccs3)cc2)[nH]c1C

>  <score_type>  (84) 
oracle

>  <origin>  (84) 
adg

>  <m_score__min__energy>  (84) 
-11.57

>  <m_primary>  (84) 
energy

$$$$
84:0
     RDKit          3D

 53 55  0  0  0  0  0  0  0  0999 V2000
   60.5170   34.0650   45.9800 C   0  0  0  0  0  0  0  0  0  0  0  0
   59.1680   33.8750   46.6830 C   0  0  1  0  0  0  0  0  0  0  0  0
   59.0620   34.7520   47.7740 O   0  0  0  0  0  0  0  0  0  0  0  0
   57.9820   34.0810   45.7230 C   0  0  0  0  0  0  0  0  0  0  0  0
   57.7840   32.9320   44.7630 C   0  0  0  0  0  0  0  0  0  0  0  0
   58.1690   33.0610   43.4180 C   0  0  0  0  0  0  0  0  0  0  0  0
   57.9560   32.0130   42.5200 C   0  0  0  0  0  0  0  0  0  0  0  0
   57.3630   30.8250   42.9550 C   0  0  0  0  0  0  0  0  0  0  0  0
   57.0010   30.6690   44.2990 C   0  0  0  0  0  0  0  0  0  0  0  0
   56.3910   29.4080   44.7540 C   0  0  0  0  0  0  0  0  0  0  0  0
   55.1580   29.3790   45.0030 O   0  0  0  0  0  0  0  0  0  0  0  0
   57.1580   28.2040   44.8960 N   0  0  0  0  0  0  0  0  0  0  0  0
   57.7830   27.7500   46.1350 C   0  0  0  0  0  0  0  0  0  0  0  0
   58.7340   28.7950   46.6570 C   0  0  0  0  0  0  0  0  0  0  0  0
   58.9080   28.9560   48.0390 C   0  0  0  0  0  0  0  0  0  0  0  0
   59.8180   29.8960   48.5320 C   0  0  0  0  0  0  0  0  0  0  0  0
   60.5620   30.6900   47.6470 C   0  0  0  0  0  0  0  0  0  0  0  0
   61.5310   31.6730   48.1700 C   0  0  0  0  0  0  0  0  0  0  0  0
   62.8260   31.6880   47.6260 C   0  0  0  0  0  0  0  0  0  0  0  0
   63.7710   32.6160   48.0680 C   0  0  0  0  0  0  0  0  0  0  0  0
   63.4340   33.5380   49.0570 C   0  0  0  0  0  0  0  0  0  0  0  0
   62.1540   33.5280   49.6180 C   0  0  0  0  0  0  0  0  0  0  0  0
   61.1950   32.5950   49.1930 C   0  0  0  0  0  0  0  0  0  0  0  0
   59.6080   32.5890   49.9820 S   0  0  0  0  0  0  0  0  0  0  0  0
   59.2870   34.1320   50.6970 N   0  0  0  0  0  0  0  0  0  0  0  0
   59.5760   31.5250   51.0420 O   0  0  0  0  0  0  0  0  0  0  0  0
   58.5340   32.3020   48.9690 O   0  0  0  0  0  0  0  0  0  0  0  0
   60.4030   30.5170   46.2640 C   0  0  0  0  0  0  0  0  0  0  0  0
   59.4900   29.5820   45.7720 C   0  0  0  0  0  0  0  0  0  0  0  0
   57.2060   31.7280   45.2000 C   0  0  0  0  0  0  0  0  0  0  0  0
   61.3106   34.1768   46.7335 H   0  0  0  0  0  0  0  0  0  0  0  0
   60.7294   33.1879   45.3510 H   0  0  0  0  0  0  0  0  0  0  0  0
   60.4789   34.9666   45.3510 H   0  0  0  0  0  0  0  0  0  0  0  0
   59.1278   32.8360   47.0420 H   0  0  0  0  0  0  0  0  0  0  0  0
   58.8450   34.1990   48.5690 H   0  0  0  0  0  0  0  0  0  0  0  0
   57.0658   34.1988   46.3202 H   0  0  0  0  0  0  0  0  0  0  0  0
   58.2019   34.9747   45.1206 H   0  0  0  0  0  0  0  0  0  0  0  0
   58.6405   33.9921   43.0706 H   0  0  0  0  0  0  0  0  0  0  0  0
   58.2559   32.1231   41.4674 H   0  0  0  0  0  0  0  0  0  0  0  0
   57.1799   30.0097   42.2397 H   0  0  0  0  0  0  0  0  0  0  0  0
   57.0025   27.5622   46.8870 H   0  0  0  0  0  0  0  0  0  0  0  0
   58.3442   26.8256   45.9337 H   0  0  0  0  0  0  0  0  0  0  0  0
   58.3253   28.3393   48.7392 H   0  0  0  0  0  0  0  0  0  0  0  0
   59.9509   30.0132   49.6176 H   0  0  0  0  0  0  0  0  0  0  0  0
   63.0979   30.9625   46.8452 H   0  0  0  0  0  0  0  0  0  0  0  0
   64.7823   32.6193   47.6352 H   0  0  0  0  0  0  0  0  0  0  0  0
   64.1767   34.2749   49.3967 H   0  0  0  0  0  0  0  0  0  0  0  0
   61.8957   34.2577   50.3995 H   0  0  0  0  0  0  0  0  0  0  0  0
   60.0920   34.3510   51.3250 H   0  0  0  0  0  0  0  0  0  0  0  0
   59.3030   34.8360   49.9260 H   0  0  0  0  0  0  0  0  0  0  0  0
   61.0000   31.1203   45.5643 H   0  0  0  0  0  0  0  0  0  0  0  0
   59.3620   29.4610   44.6862 H   0  0  0  0  0  0  0  0  0  0  0  0
   56.9122   31.6136   46.2538 H   0  0  0  0  0  0  0  0  0  0  0  0
  1  2  1  0
  2  3  1  0
  2  4  1  0
  4  5  1  0
  5  6  2  0
  6  7  1  0
  7  8  2  0
  8  9  1  0
  9 10  1  0
 10 11  2  0
 10 12  1  0
 12 13  1  0
 13 14  1  0
 14 15  2  0
 15 16  1  0
 16 17  2  0
 17 18  1  0
 18 19  2  0
 19 20  1  0
 20 21  2  0
 21 22  1  0
 22 23  2  0
 23 24  1  0
 24 25  1  0
 24 26  2  0
 24 27  2  0
 17 28  1  0
 28 29  2  0
  9 30  2  0
 30  5  1  0
 29 14  1  0
 23 18  1  0
  1 31  1  0
  1 32  1  0
  1 33  1  0
  2 34  1  1
  3 35  1  0
  4 36  1  0
  4 37  1  0
  6 38  1  0
  7 39  1  0
  8 40  1  0
 13 41  1  0
 13 42  1  0
 15 43  1  0
 16 44  1  0
 19 45  1  0
 20 46  1  0
 21 47  1  0
 22 48  1  0
 25 49  1  0
 25 50  1  0
 28 51  1  0
 29 52  1  0
 30 53  1  0
M  CHG  1  12  -1
M  END
>  <UniqueID>  (85) 
79

>  <SMILES>  (85) 
C[C@@H](O)Cc1cccc(C(=O)[N-]Cc2ccc(-c3ccccc3S(N)(=O)=O)cc2)c1

>  <Energy>  (85) 
59.377769287935465

>  <Genealogy>  (85) 
CC(O)Cc1cccc(C(=O)[N-]Cc2ccc(-c3ccccc3S(N)(=O)=O)cc2)c1 (protonated)
C[C@@H](O)Cc1cccc(C(=O)[N-]Cc2ccc(-c3ccccc3S(N)(=O)=O)cc2)c1 (chirality)
C[C@@H](O)Cc1cccc(C(=O)[N-]Cc2ccc(-c3ccccc3S(N)(=O)=O)cc2)c1 (3D coordinates assigned)
C[C@@H](O)Cc1cccc(C(=O)[N-]Cc2ccc(-c3ccccc3S(N)(=O)=O)cc2)c1 (optimized conformer: 59.377769287935465 kcal/mol)

>  <smiles>  (85) 
CC(O)Cc1cccc(C(=O)NCc2ccc(-c3ccccc3S(N)(=O)=O)cc2)c1

>  <score_type>  (85) 
oracle

>  <origin>  (85) 
adg

>  <m_score__min__energy>  (85) 
-12.16

>  <m_primary>  (85) 
energy

$$$$
85:0
     RDKit          3D

 49 51  0  0  0  0  0  0  0  0999 V2000
   62.8340   34.5920   50.7050 C   0  0  0  0  0  0  0  0  0  0  0  0
   62.5260   33.7430   49.5610 N   0  0  0  0  0  0  0  0  0  0  0  0
   63.5590   33.1420   48.7700 C   0  0  0  0  0  0  0  0  0  0  0  0
   64.7720   33.3260   49.0580 O   0  0  0  0  0  0  0  0  0  0  0  0
   63.2010   32.3150   47.5730 C   0  0  0  0  0  0  0  0  0  0  0  0
   62.2480   31.2210   47.9660 C   0  0  0  0  0  0  0  0  0  0  0  0
   62.1630   30.8020   49.3010 C   0  0  0  0  0  0  0  0  0  0  0  0
   61.2600   29.8010   49.6680 C   0  0  0  0  0  0  0  0  0  0  0  0
   61.1960   29.3890   50.9590 F   0  0  0  0  0  0  0  0  0  0  0  0
   60.4310   29.2180   48.7080 C   0  0  0  0  0  0  0  0  0  0  0  0
   60.4870   29.6350   47.3660 C   0  0  0  0  0  0  0  0  0  0  0  0
   59.6010   29.0170   46.3460 C   0  0  0  0  0  0  0  0  0  0  0  0
   59.8380   27.7080   45.8890 C   0  0  0  0  0  0  0  0  0  0  0  0
   59.0210   27.1400   44.9090 C   0  0  0  0  0  0  0  0  0  0  0  0
   57.9610   27.8710   44.3700 C   0  0  0  0  0  0  0  0  0  0  0  0
   57.7000   29.1720   44.8200 C   0  0  0  0  0  0  0  0  0  0  0  0
   56.3600   30.0930   44.1340 S   0  0  0  0  0  0  0  0  0  0  0  0
   55.0640   29.3540   44.3140 O   0  0  0  0  0  0  0  0  0  0  0  0
   56.5880   30.2690   42.6600 O   0  0  0  0  0  0  0  0  0  0  0  0
   56.2860   31.6660   44.8670 N   0  0  0  0  0  0  0  0  0  0  0  0
   57.3980   32.5090   45.2030 C   0  0  0  0  0  0  0  0  0  0  0  0
   58.0000   33.2480   44.1800 C   0  0  0  0  0  0  0  0  0  0  0  0
   59.0960   34.0690   44.4500 C   0  0  0  0  0  0  0  0  0  0  0  0
   59.5930   34.1690   45.7510 C   0  0  0  0  0  0  0  0  0  0  0  0
   58.9980   33.4460   46.7990 C   0  0  0  0  0  0  0  0  0  0  0  0
   59.5160   33.5590   48.1830 C   0  0  0  0  0  0  0  0  0  0  0  0
   59.8770   34.8280   48.7210 N   0  0  0  0  0  0  0  0  0  0  0  0
   59.6390   32.5310   48.9040 O   0  0  0  0  0  0  0  0  0  0  0  0
   57.8920   32.6220   46.5140 C   0  0  0  0  0  0  0  0  0  0  0  0
   58.5210   29.7380   45.8060 C   0  0  0  0  0  0  0  0  0  0  0  0
   61.4000   30.6450   47.0060 C   0  0  0  0  0  0  0  0  0  0  0  0
   62.6339   34.0404   51.6354 H   0  0  0  0  0  0  0  0  0  0  0  0
   63.8946   34.8819   50.6715 H   0  0  0  0  0  0  0  0  0  0  0  0
   62.2060   35.4945   50.6715 H   0  0  0  0  0  0  0  0  0  0  0  0
   61.5250   33.5820   49.3070 H   0  0  0  0  0  0  0  0  0  0  0  0
   62.7258   32.9568   46.8165 H   0  0  0  0  0  0  0  0  0  0  0  0
   64.1158   31.8641   47.1608 H   0  0  0  0  0  0  0  0  0  0  0  0
   62.8095   31.2629   50.0623 H   0  0  0  0  0  0  0  0  0  0  0  0
   59.7278   28.4255   49.0038 H   0  0  0  0  0  0  0  0  0  0  0  0
   60.6735   27.1271   46.3068 H   0  0  0  0  0  0  0  0  0  0  0  0
   59.2132   26.1143   44.5611 H   0  0  0  0  0  0  0  0  0  0  0  0
   57.3282   27.4240   43.5891 H   0  0  0  0  0  0  0  0  0  0  0  0
   57.6069   33.1819   43.1548 H   0  0  0  0  0  0  0  0  0  0  0  0
   59.5691   34.6383   43.6363 H   0  0  0  0  0  0  0  0  0  0  0  0
   60.4566   34.8184   45.9572 H   0  0  0  0  0  0  0  0  0  0  0  0
   59.1580   35.4540   49.1510 H   0  0  0  0  0  0  0  0  0  0  0  0
   57.4090   32.0602   47.3271 H   0  0  0  0  0  0  0  0  0  0  0  0
   58.3177   30.7589   46.1616 H   0  0  0  0  0  0  0  0  0  0  0  0
   61.4495   30.9865   45.9615 H   0  0  0  0  0  0  0  0  0  0  0  0
  1  2  1  0
  2  3  1  0
  3  4  2  0
  3  5  1  0
  5  6  1  0
  6  7  2  0
  7  8  1  0
  8  9  1  0
  8 10  2  0
 10 11  1  0
 11 12  1  0
 12 13  2  0
 13 14  1  0
 14 15  2  0
 15 16  1  0
 16 17  1  0
 17 18  2  0
 17 19  2  0
 17 20  1  0
 20 21  1  0
 21 22  2  0
 22 23  1  0
 23 24  2  0
 24 25  1  0
 25 26  1  0
 26 27  1  0
 26 28  2  0
 25 29  2  0
 16 30  2  0
 11 31  2  0
 31  6  1  0
 30 12  1  0
 29 21  1  0
  1 32  1  0
  1 33  1  0
  1 34  1  0
  2 35  1  0
  5 36  1  0
  5 37  1  0
  7 38  1  0
 10 39  1  0
 13 40  1  0
 14 41  1  0
 15 42  1  0
 22 43  1  0
 23 44  1  0
 24 45  1  0
 27 46  1  0
 29 47  1  0
 30 48  1  0
 31 49  1  0
M  CHG  2  20  -1  27  -1
M  END
>  <UniqueID>  (86) 
80

>  <SMILES>  (86) 
CNC(=O)Cc1cc(F)cc(-c2cccc(S(=O)(=O)[N-]c3cccc(C([NH-])=O)c3)c2)c1

>  <Energy>  (86) 
55.90987456524784

>  <Genealogy>  (86) 
CNC(=O)Cc1cc(F)cc(-c2cccc(S(=O)(=O)[N-]c3cccc(C([NH-])=O)c3)c2)c1 (protonated)
CNC(=O)Cc1cc(F)cc(-c2cccc(S(=O)(=O)[N-]c3cccc(C([NH-])=O)c3)c2)c1 (3D coordinates assigned)
CNC(=O)Cc1cc(F)cc(-c2cccc(S(=O)(=O)[N-]c3cccc(C([NH-])=O)c3)c2)c1 (optimized conformer: 55.90987456524784 kcal/mol)

>  <smiles>  (86) 
CNC(=O)Cc1cc(F)cc(-c2cccc(S(=O)(=O)Nc3cccc(C(N)=O)c3)c2)c1

>  <score_type>  (86) 
oracle

>  <origin>  (86) 
adg

>  <m_score__min__energy>  (86) 
-15.84

>  <m_primary>  (86) 
energy

$$$$
86:0
     RDKit          3D

 48 52  0  0  0  0  0  0  0  0999 V2000
   56.1550   28.8690   44.1290 H   0  0  0  0  0  0  0  0  0  0  0  0
   55.6880   28.5690   44.9760 O   0  0  0  0  0  0  0  0  0  0  0  0
   56.0390   27.3870   45.6220 C   0  0  0  0  0  0  0  0  0  0  0  0
   55.1920   26.3590   45.7900 N   0  0  0  0  0  0  0  0  0  0  0  0
   55.9480   25.4510   46.4420 C   0  0  0  0  0  0  0  0  0  0  0  0
   55.5090   24.3230   46.7850 O   0  0  0  0  0  0  0  0  0  0  0  0
   57.2150   25.8450   46.6870 N   0  0  0  0  0  0  0  0  0  0  0  0
   57.2640   27.0890   46.1810 C   0  0  0  0  0  0  0  0  0  0  0  0
   58.4780   27.9250   46.1060 C   0  0  0  0  0  0  0  0  0  0  0  0
   59.4204   27.4243   45.8393 H   0  0  0  0  0  0  0  0  0  0  0  0
   58.5260   29.2480   46.3370 C   0  0  0  0  0  0  0  0  0  0  0  0
   58.9520   29.8440   47.5200 C   0  0  0  0  0  0  0  0  0  0  0  0
   59.2905   29.2996   48.4139 H   0  0  0  0  0  0  0  0  0  0  0  0
   58.8890   31.1910   47.4100 N   0  0  0  0  0  0  0  0  0  0  0  0
   58.4600   31.4650   46.1890 N   0  0  0  0  0  0  0  0  0  0  0  0
   58.2220   32.6830   45.6150 C   0  0  0  0  0  0  0  0  0  0  0  0
   58.4190   33.8190   46.2250 N   0  0  0  0  0  0  0  0  0  0  0  0
   59.6410   34.5570   46.3610 C   0  0  0  0  0  0  0  0  0  0  0  0
   59.7220   35.7280   45.9010 O   0  0  0  0  0  0  0  0  0  0  0  0
   60.7550   33.9710   47.0650 N   0  0  0  0  0  0  0  0  0  0  0  0
   60.7280   33.7870   48.5060 C   0  0  0  0  0  0  0  0  0  0  0  0
   59.5170   33.5960   49.2020 C   0  0  0  0  0  0  0  0  0  0  0  0
   58.5671   33.5735   48.6477 H   0  0  0  0  0  0  0  0  0  0  0  0
   59.5130   33.4350   50.5900 C   0  0  0  0  0  0  0  0  0  0  0  0
   58.5608   33.3000   51.1239 H   0  0  0  0  0  0  0  0  0  0  0  0
   60.7130   33.4450   51.3000 C   0  0  0  0  0  0  0  0  0  0  0  0
   60.7045   33.3393   52.3949 H   0  0  0  0  0  0  0  0  0  0  0  0
   61.9250   33.5890   50.6230 C   0  0  0  0  0  0  0  0  0  0  0  0
   62.8706   33.5904   51.1849 H   0  0  0  0  0  0  0  0  0  0  0  0
   61.9400   33.7320   49.2270 C   0  0  0  0  0  0  0  0  0  0  0  0
   63.2450   33.8410   48.4920 C   0  0  0  0  0  0  0  0  0  0  0  0
   64.0369   33.3507   49.0772 H   0  0  0  0  0  0  0  0  0  0  0  0
   63.4964   34.9023   48.3492 H   0  0  0  0  0  0  0  0  0  0  0  0
   63.1240   33.1600   47.1290 C   0  0  0  0  0  0  0  0  0  0  0  0
   62.8957   32.0941   47.2760 H   0  0  0  0  0  0  0  0  0  0  0  0
   64.0757   33.2732   46.5892 H   0  0  0  0  0  0  0  0  0  0  0  0
   62.0060   33.8060   46.3030 C   0  0  0  0  0  0  0  0  0  0  0  0
   61.8034   33.1707   45.4282 H   0  0  0  0  0  0  0  0  0  0  0  0
   62.3490   34.8088   46.0085 H   0  0  0  0  0  0  0  0  0  0  0  0
   57.7230   32.6990   44.3480 N   0  0  0  0  0  0  0  0  0  0  0  0
   57.4980   31.5390   43.6640 C   0  0  0  0  0  0  0  0  0  0  0  0
   57.0350   31.5980   42.4510 N   0  0  0  0  0  0  0  0  0  0  0  0
   57.6800   32.3330   41.3680 C   0  0  0  0  0  0  0  0  0  0  0  0
   58.3498   33.0962   41.7909 H   0  0  0  0  0  0  0  0  0  0  0  0
   58.2633   31.6360   40.7483 H   0  0  0  0  0  0  0  0  0  0  0  0
   56.9132   32.8208   40.7483 H   0  0  0  0  0  0  0  0  0  0  0  0
   57.7570   30.3370   44.2560 N   0  0  0  0  0  0  0  0  0  0  0  0
   58.2220   30.3280   45.5260 C   0  0  0  0  0  0  0  0  0  0  0  0
  1  2  1  0
  2  3  1  0
  3  4  1  0
  4  5  1  0
  5  6  2  0
  5  7  1  0
  7  8  1  0
  8  9  1  0
  9 10  1  0
  9 11  2  0
 11 12  1  0
 12 13  1  0
 12 14  2  0
 14 15  1  0
 15 16  1  0
 16 17  2  3
 17 18  1  0
 18 19  2  0
 18 20  1  0
 20 21  1  0
 21 22  2  0
 22 23  1  0
 22 24  1  0
 24 25  1  0
 24 26  2  0
 26 27  1  0
 26 28  1  0
 28 29  1  0
 28 30  2  0
 30 31  1  0
 31 32  1  0
 31 33  1  0
 31 34  1  0
 34 35  1  0
 34 36  1  0
 34 37  1  0
 37 38  1  0
 37 39  1  0
 16 40  1  0
 40 41  1  0
 41 42  2  3
 42 43  1  0
 43 44  1  0
 43 45  1  0
 43 46  1  0
 41 47  1  0
 47 48  2  0
  8  3  2  0
 48 11  1  0
 48 15  1  0
 37 20  1  0
 30 21  1  0
M  CHG  3   4  -1   7  -1  40  -1
M  END
>  <UniqueID>  (87) 
81

>  <SMILES>  (87) 
CN=c1nc2/c(=C\c3[n-]c(=O)[n-]c3O)cnn2c(=NC(=O)N2CCCc3ccccc32)[n-]1

>  <Energy>  (87) 
140.87023126921088

>  <Genealogy>  (87) 
CN=c1nc2c(=Cc3[n-]c(=O)[n-]c3O)cnn2c(=NC(=O)N2CCCc3ccccc32)[n-]1 (protonated)
CN=c1nc2/c(=C\c3[n-]c(=O)[n-]c3O)cnn2c(=NC(=O)N2CCCc3ccccc32)[n-]1 (cis-trans isomerization)
CN=c1nc2/c(=C\c3[n-]c(=O)[n-]c3O)cnn2c(=NC(=O)N2CCCc3ccccc32)[n-]1 (3D coordinates assigned)
CN=c1nc2/c(=C\c3[n-]c(=O)[n-]c3O)cnn2c(=NC(=O)N2CCCc3ccccc32)[n-]1 (nonaromatic ring conformer: 140.87023126921088 kcal/mol)

>  <smiles>  (87) 
CN=c1nc2c(=Cc3[nH]c(=O)[nH]c3O)cnn2c(=NC(=O)N2CCCc3ccccc32)[nH]1

>  <score_type>  (87) 
oracle

>  <origin>  (87) 
adg

>  <m_score__min__energy>  (87) 
-15.699999999999999

>  <m_primary>  (87) 
energy

$$$$
87:0
     RDKit          3D

 60 64  0  0  0  0  0  0  0  0999 V2000
   63.3210   31.4800   49.4520 C   0  0  0  0  0  0  0  0  0  0  0  0
   63.6360   32.9160   49.5730 N   0  0  0  0  0  0  0  0  0  0  0  0
   62.5350   33.6690   50.2310 C   0  0  0  0  0  0  0  0  0  0  0  0
   61.7330   34.5690   49.2720 C   0  0  0  0  0  0  0  0  0  0  0  0
   61.6540   33.9460   47.9480 N   0  0  0  0  0  0  0  0  0  0  0  0
   60.3960   33.6620   47.3120 C   0  0  0  0  0  0  0  0  0  0  0  0
   59.3570   33.0320   48.0140 C   0  0  0  0  0  0  0  0  0  0  0  0
   58.2000   32.6500   47.3330 C   0  0  0  0  0  0  0  0  0  0  0  0
   58.0910   32.8700   45.9590 C   0  0  0  0  0  0  0  0  0  0  0  0
   56.9850   32.2940   45.2470 N   0  0  0  0  0  0  0  0  0  0  0  0
   57.0600   31.1490   44.3800 C   0  0  0  0  0  0  0  0  0  0  0  0
   56.5370   31.2240   43.2360 O   0  0  0  0  0  0  0  0  0  0  0  0
   57.7190   29.8860   44.7940 C   0  0  0  0  0  0  0  0  0  0  0  0
   58.6660   29.8950   45.8320 C   0  0  0  0  0  0  0  0  0  0  0  0
   59.2040   28.6970   46.3130 C   0  0  0  0  0  0  0  0  0  0  0  0
   58.7900   27.4720   45.7710 C   0  0  0  0  0  0  0  0  0  0  0  0
   59.2530   26.2580   46.2890 C   0  0  0  0  0  0  0  0  0  0  0  0
   58.7790   25.0560   45.7680 C   0  0  0  0  0  0  0  0  0  0  0  0
   57.8510   25.0700   44.7160 C   0  0  0  0  0  0  0  0  0  0  0  0
   57.3250   23.8320   44.2060 N   0  0  0  0  0  0  0  0  0  0  0  0
   57.8890   22.5630   44.6750 C   0  0  0  0  0  0  0  0  0  0  0  0
   57.6360   21.4640   43.6390 C   0  0  0  0  0  0  0  0  0  0  0  0
   56.2680   21.4190   43.2720 O   0  0  0  0  0  0  0  0  0  0  0  0
   55.9100   22.6200   42.6160 C   0  0  0  0  0  0  0  0  0  0  0  0
   56.0010   23.8070   43.5770 C   0  0  0  0  0  0  0  0  0  0  0  0
   57.4360   26.2620   44.1950 N   0  0  0  0  0  0  0  0  0  0  0  0
   57.8710   27.4530   44.7000 C   0  0  0  0  0  0  0  0  0  0  0  0
   57.3770   28.6620   44.1910 C   0  0  0  0  0  0  0  0  0  0  0  0
   59.1210   33.5700   45.3010 C   0  0  0  0  0  0  0  0  0  0  0  0
   59.0230   33.8620   44.0800 O   0  0  0  0  0  0  0  0  0  0  0  0
   60.2420   33.9230   45.9840 N   0  0  0  0  0  0  0  0  0  0  0  0
   62.9000   33.5680   47.2730 C   0  0  0  0  0  0  0  0  0  0  0  0
   64.0620   33.4940   48.2790 C   0  0  0  0  0  0  0  0  0  0  0  0
   63.2245   31.0400   50.4555 H   0  0  0  0  0  0  0  0  0  0  0  0
   62.3745   31.3570   48.9051 H   0  0  0  0  0  0  0  0  0  0  0  0
   64.1291   30.9722   48.9051 H   0  0  0  0  0  0  0  0  0  0  0  0
   61.8433   32.9444   50.6854 H   0  0  0  0  0  0  0  0  0  0  0  0
   63.0018   34.3316   50.9747 H   0  0  0  0  0  0  0  0  0  0  0  0
   60.7170   34.7103   49.6692 H   0  0  0  0  0  0  0  0  0  0  0  0
   62.2378   35.5423   49.1834 H   0  0  0  0  0  0  0  0  0  0  0  0
   59.4536   32.8406   49.0929 H   0  0  0  0  0  0  0  0  0  0  0  0
   57.3726   32.1747   47.8802 H   0  0  0  0  0  0  0  0  0  0  0  0
   58.9867   30.8518   46.2697 H   0  0  0  0  0  0  0  0  0  0  0  0
   59.9534   28.7159   47.1181 H   0  0  0  0  0  0  0  0  0  0  0  0
   59.9897   26.2524   47.1059 H   0  0  0  0  0  0  0  0  0  0  0  0
   59.1313   24.0989   46.1802 H   0  0  0  0  0  0  0  0  0  0  0  0
   58.9724   22.6793   44.8258 H   0  0  0  0  0  0  0  0  0  0  0  0
   57.4087   22.2827   45.6241 H   0  0  0  0  0  0  0  0  0  0  0  0
   58.2424   21.6666   42.7439 H   0  0  0  0  0  0  0  0  0  0  0  0
   57.9131   20.4952   44.0802 H   0  0  0  0  0  0  0  0  0  0  0  0
   56.5927   22.7869   41.7698 H   0  0  0  0  0  0  0  0  0  0  0  0
   54.8736   22.5328   42.2577 H   0  0  0  0  0  0  0  0  0  0  0  0
   55.8432   24.7420   43.0194 H   0  0  0  0  0  0  0  0  0  0  0  0
   55.2296   23.7065   44.3547 H   0  0  0  0  0  0  0  0  0  0  0  0
   56.7350   26.2600   43.4210 H   0  0  0  0  0  0  0  0  0  0  0  0
   56.7158   28.6535   43.3119 H   0  0  0  0  0  0  0  0  0  0  0  0
   62.7697   32.5841   46.7986 H   0  0  0  0  0  0  0  0  0  0  0  0
   63.1365   34.3288   46.5145 H   0  0  0  0  0  0  0  0  0  0  0  0
   64.8600   32.8669   47.8549 H   0  0  0  0  0  0  0  0  0  0  0  0
   64.4183   34.5181   48.4640 H   0  0  0  0  0  0  0  0  0  0  0  0
  1  2  1  0
  2  3  1  0
  3  4  1  0
  4  5  1  0
  5  6  1  0
  6  7  2  0
  7  8  1  0
  8  9  2  0
  9 10  1  0
 10 11  1  0
 11 12  2  0
 11 13  1  0
 13 14  2  0
 14 15  1  0
 15 16  2  0
 16 17  1  0
 17 18  2  0
 18 19  1  0
 19 20  1  0
 20 21  1  0
 21 22  1  0
 22 23  1  0
 23 24  1  0
 24 25  1  0
 19 26  2  0
 26 27  1  0
 27 28  2  0
  9 29  1  0
 29 30  2  0
 29 31  1  0
  5 32  1  0
 32 33  1  0
 33  2  1  0
 31  6  1  0
 28 13  1  0
 27 16  1  0
 25 20  1  0
  1 34  1  0
  1 35  1  0
  1 36  1  0
  3 37  1  0
  3 38  1  0
  4 39  1  0
  4 40  1  0
  7 41  1  0
  8 42  1  0
 14 43  1  0
 15 44  1  0
 17 45  1  0
 18 46  1  0
 21 47  1  0
 21 48  1  0
 22 49  1  0
 22 50  1  0
 24 51  1  0
 24 52  1  0
 25 53  1  0
 25 54  1  0
 26 55  1  0
 28 56  1  0
 32 57  1  0
 32 58  1  0
 33 59  1  0
 33 60  1  0
M  CHG  3  10  -1  26   1  31  -1
M  END
>  <UniqueID>  (88) 
82

>  <SMILES>  (88) 
CN1CCN(c2ccc([N-]C(=O)c3ccc4ccc(N5CCOCC5)[nH+]c4c3)c(=O)[n-]2)CC1

>  <Energy>  (88) 
90.8304847913072

>  <Genealogy>  (88) 
CN1CCN(c2ccc([N-]C(=O)c3ccc4ccc(N5CCOCC5)[nH+]c4c3)c(=O)[n-]2)CC1 (protonated)
CN1CCN(c2ccc([N-]C(=O)c3ccc4ccc(N5CCOCC5)[nH+]c4c3)c(=O)[n-]2)CC1 (3D coordinates assigned)
CN1CCN(c2ccc([N-]C(=O)c3ccc4ccc(N5CCOCC5)[nH+]c4c3)c(=O)[n-]2)CC1 (nonaromatic ring conformer: 90.8304847913072 kcal/mol)

>  <smiles>  (88) 
CN1CCN(c2ccc(NC(=O)c3ccc4ccc(N5CCOCC5)nc4c3)c(=O)[nH]2)CC1

>  <score_type>  (88) 
oracle

>  <origin>  (88) 
adg

>  <m_score__min__energy>  (88) 
-11.02

>  <m_primary>  (88) 
energy

$$$$
88:0
     RDKit          3D

 54 57  0  0  0  0  0  0  0  0999 V2000
   57.1755   34.9602   44.1868 H   0  0  0  0  0  0  0  0  0  0  0  0
   57.8610   34.5830   44.9600 C   0  0  0  0  0  0  0  0  0  0  0  0
   59.2060   34.9610   44.9460 C   0  0  0  0  0  0  0  0  0  0  0  0
   59.5809   35.6278   44.1556 H   0  0  0  0  0  0  0  0  0  0  0  0
   60.0760   34.4930   45.9350 C   0  0  0  0  0  0  0  0  0  0  0  0
   61.1375   34.7805   45.9118 H   0  0  0  0  0  0  0  0  0  0  0  0
   59.5980   33.6540   46.9620 C   0  0  0  0  0  0  0  0  0  0  0  0
   60.4690   33.1230   47.9770 N   0  0  0  0  0  0  0  0  0  0  0  0
   60.5720   31.8800   48.3460 C   0  0  0  0  0  0  0  0  0  0  0  0
   60.8970   31.5470   49.6230 N   0  0  0  0  0  0  0  0  0  0  0  0
   60.9790   30.2490   50.0150 C   0  0  0  0  0  0  0  0  0  0  0  0
   61.3200   29.9480   51.3360 C   0  0  0  0  0  0  0  0  0  0  0  0
   61.5342   30.7617   52.0446 H   0  0  0  0  0  0  0  0  0  0  0  0
   61.3910   28.6100   51.7650 C   0  0  0  0  0  0  0  0  0  0  0  0
   61.7340   28.2700   53.0840 O   0  0  0  0  0  0  0  0  0  0  0  0
   60.8080   27.8230   54.0700 C   0  0  0  0  0  0  0  0  0  0  0  0
   61.2161   28.0200   55.0723 H   0  0  0  0  0  0  0  0  0  0  0  0
   59.8560   28.3608   53.9495 H   0  0  0  0  0  0  0  0  0  0  0  0
   60.6369   26.7431   53.9495 H   0  0  0  0  0  0  0  0  0  0  0  0
   61.1090   27.5740   50.8620 C   0  0  0  0  0  0  0  0  0  0  0  0
   61.1790   26.2510   51.3290 O   0  0  0  0  0  0  0  0  0  0  0  0
   62.3780   25.5910   51.7200 C   0  0  0  0  0  0  0  0  0  0  0  0
   62.4373   25.5584   52.8179 H   0  0  0  0  0  0  0  0  0  0  0  0
   62.3785   24.5655   51.3221 H   0  0  0  0  0  0  0  0  0  0  0  0
   63.2448   26.1391   51.3221 H   0  0  0  0  0  0  0  0  0  0  0  0
   60.7650   27.8790   49.5300 C   0  0  0  0  0  0  0  0  0  0  0  0
   60.5370   27.0659   48.8251 H   0  0  0  0  0  0  0  0  0  0  0  0
   60.7110   29.2160   49.0950 C   0  0  0  0  0  0  0  0  0  0  0  0
   60.3690   29.5810   47.7740 C   0  0  0  0  0  0  0  0  0  0  0  0
   60.1370   28.5920   46.7560 N   0  0  0  0  0  0  0  0  0  0  0  0
   60.9110   28.3780   46.0880 H   0  0  0  0  0  0  0  0  0  0  0  0
   58.8450   28.0190   46.4920 C   0  0  0  0  0  0  0  0  0  0  0  0
   58.4930   26.8030   47.0950 C   0  0  0  0  0  0  0  0  0  0  0  0
   59.2127   26.2913   47.7508 H   0  0  0  0  0  0  0  0  0  0  0  0
   57.2350   26.2350   46.8700 C   0  0  0  0  0  0  0  0  0  0  0  0
   56.9746   25.2756   47.3409 H   0  0  0  0  0  0  0  0  0  0  0  0
   56.3020   26.8860   46.0440 C   0  0  0  0  0  0  0  0  0  0  0  0
   55.0000   26.3420   45.7850 N   0  0  0  0  0  0  0  0  0  0  0  0
   54.6410   24.6560   45.6070 S   0  0  0  0  0  0  0  0  0  0  0  0
   53.1920   24.4760   45.2520 O   0  0  0  0  0  0  0  0  0  0  0  0
   54.9490   23.9290   46.8860 O   0  0  0  0  0  0  0  0  0  0  0  0
   55.6470   23.9880   44.3020 C   0  0  0  0  0  0  0  0  0  0  0  0
   56.4886   23.4292   44.7373 H   0  0  0  0  0  0  0  0  0  0  0  0
   55.0406   23.3126   43.6807 H   0  0  0  0  0  0  0  0  0  0  0  0
   56.0342   24.8090   43.6807 H   0  0  0  0  0  0  0  0  0  0  0  0
   56.6450   28.1090   45.4580 C   0  0  0  0  0  0  0  0  0  0  0  0
   55.9188   28.6284   44.8154 H   0  0  0  0  0  0  0  0  0  0  0  0
   57.9030   28.6770   45.6820 C   0  0  0  0  0  0  0  0  0  0  0  0
   58.1568   29.6435   45.2221 H   0  0  0  0  0  0  0  0  0  0  0  0
   60.3090   30.9000   47.4450 N   0  0  0  0  0  0  0  0  0  0  0  0
   58.2540   33.2550   46.9480 C   0  0  0  0  0  0  0  0  0  0  0  0
   57.7810   32.4180   47.9060 F   0  0  0  0  0  0  0  0  0  0  0  0
   57.3870   33.7260   45.9560 C   0  0  0  0  0  0  0  0  0  0  0  0
   56.3302   33.4209   45.9604 H   0  0  0  0  0  0  0  0  0  0  0  0
  1  2  1  0
  2  3  2  0
  3  4  1  0
  3  5  1  0
  5  6  1  0
  5  7  2  0
  7  8  1  0
  8  9  2  0
  9 10  1  0
 10 11  2  0
 11 12  1  0
 12 13  1  0
 12 14  2  0
 14 15  1  0
 15 16  1  0
 16 17  1  0
 16 18  1  0
 16 19  1  0
 14 20  1  0
 20 21  1  0
 21 22  1  0
 22 23  1  0
 22 24  1  0
 22 25  1  0
 20 26  2  0
 26 27  1  0
 26 28  1  0
 28 29  2  0
 29 30  1  0
 30 31  1  0
 30 32  1  0
 32 33  2  0
 33 34  1  0
 33 35  1  0
 35 36  1  0
 35 37  2  0
 37 38  1  0
 38 39  1  0
 39 40  2  0
 39 41  2  0
 39 42  1  0
 42 43  1  0
 42 44  1  0
 42 45  1  0
 37 46  1  0
 46 47  1  0
 46 48  2  0
 48 49  1  0
 29 50  1  0
  7 51  1  0
 51 52  1  0
 51 53  2  0
 53 54  1  0
 53  2  1  0
 50  9  1  0
 28 11  1  0
 48 32  1  0
M  CHG  2  38  -1  50  -1
M  END
>  <UniqueID>  (89) 
83

>  <SMILES>  (89) 
COc1cc2n/c(=N\c3ccccc3F)[n-]c(Nc3ccc([N-]S(C)(=O)=O)cc3)c2cc1OC

>  <Energy>  (89) 
72.31766681867616

>  <Genealogy>  (89) 
COc1cc2nc(=Nc3ccccc3F)[n-]c(Nc3ccc([N-]S(C)(=O)=O)cc3)c2cc1OC (protonated)
COc1cc2n/c(=N\c3ccccc3F)[n-]c(Nc3ccc([N-]S(C)(=O)=O)cc3)c2cc1OC (cis-trans isomerization)
COc1cc2n/c(=N\c3ccccc3F)[n-]c(Nc3ccc([N-]S(C)(=O)=O)cc3)c2cc1OC (3D coordinates assigned)
COc1cc2n/c(=N\c3ccccc3F)[n-]c(Nc3ccc([N-]S(C)(=O)=O)cc3)c2cc1OC (optimized conformer: 72.31766681867616 kcal/mol)

>  <smiles>  (89) 
COc1cc2nc(=Nc3ccccc3F)[nH]c(Nc3ccc(NS(C)(=O)=O)cc3)c2cc1OC

>  <score_type>  (89) 
oracle

>  <origin>  (89) 
adg

>  <m_score__min__energy>  (89) 
-10.49

>  <m_primary>  (89) 
energy

$$$$
89:0
     RDKit          3D

 65 68  0  0  0  0  0  0  0  0999 V2000
   58.1530   34.1740   44.6700 C   0  0  0  0  0  0  0  0  0  0  0  0
   58.4730   33.9780   46.1260 C   0  0  0  0  0  0  0  0  0  0  0  0
   57.8590   32.9510   46.8600 C   0  0  0  0  0  0  0  0  0  0  0  0
   58.1540   32.7840   48.2200 C   0  0  0  0  0  0  0  0  0  0  0  0
   59.0490   33.6560   48.8620 C   0  0  0  0  0  0  0  0  0  0  0  0
   59.4260   33.4680   50.5710 S   0  0  0  0  0  0  0  0  0  0  0  0
   58.9150   34.6720   51.3190 O   0  0  0  0  0  0  0  0  0  0  0  0
   58.7560   32.2360   51.1230 O   0  0  0  0  0  0  0  0  0  0  0  0
   61.2000   33.3610   50.7790 C   0  0  0  0  0  0  0  0  0  0  0  0
   61.8520   32.6980   49.5900 C   0  0  0  0  0  0  0  0  0  0  0  0
   61.2010   31.6350   48.9390 C   0  0  0  0  0  0  0  0  0  0  0  0
   61.7390   31.0910   47.7660 C   0  0  0  0  0  0  0  0  0  0  0  0
   61.0200   30.0330   47.0310 C   0  0  0  0  0  0  0  0  0  0  0  0
   61.4460   29.6900   45.8910 O   0  0  0  0  0  0  0  0  0  0  0  0
   59.8640   29.3770   47.6070 N   0  0  1  0  0  0  0  0  0  0  0  0
   58.6450   29.6590   46.8110 C   0  0  0  0  0  0  0  0  0  0  0  0
   58.4610   28.6760   45.6530 C   0  0  0  0  0  0  0  0  0  0  0  0
   58.3080   27.3190   46.1830 N   0  0  0  0  0  0  0  0  0  0  0  0
   57.2850   26.4110   45.6200 C   0  0  2  0  0  0  0  0  0  0  0  0
   57.6980   25.9080   44.2160 C   0  0  0  0  0  0  0  0  0  0  0  0
   57.4930   24.4230   44.0580 C   0  0  0  0  0  0  0  0  0  0  0  0
   56.5700   23.9280   43.1180 C   0  0  0  0  0  0  0  0  0  0  0  0
   56.3640   22.5490   42.9880 C   0  0  0  0  0  0  0  0  0  0  0  0
   57.0770   21.6560   43.7910 C   0  0  0  0  0  0  0  0  0  0  0  0
   58.0230   22.1390   44.7050 C   0  0  0  0  0  0  0  0  0  0  0  0
   58.2270   23.5160   44.8390 C   0  0  0  0  0  0  0  0  0  0  0  0
   55.9330   27.0740   45.6380 C   0  0  0  0  0  0  0  0  0  0  0  0
   55.8270   28.2760   45.2650 O   0  0  0  0  0  0  0  0  0  0  0  0
   54.7910   26.3640   46.0020 O   0  0  0  0  0  0  0  0  0  0  0  0
   59.0970   26.9810   47.3380 C   0  0  0  0  0  0  0  0  0  0  0  0
   58.9570   25.8700   47.9070 O   0  0  0  0  0  0  0  0  0  0  0  0
   60.1640   27.9250   47.8340 C   0  0  0  0  0  0  0  0  0  0  0  0
   62.9500   31.5840   47.2560 C   0  0  0  0  0  0  0  0  0  0  0  0
   63.6280   32.6040   47.9240 C   0  0  0  0  0  0  0  0  0  0  0  0
   63.0820   33.1680   49.0840 C   0  0  0  0  0  0  0  0  0  0  0  0
   63.7570   34.2110   49.7180 O   0  0  0  0  0  0  0  0  0  0  0  0
   59.6540   34.6840   48.1310 C   0  0  0  0  0  0  0  0  0  0  0  0
   59.3630   34.8520   46.7750 C   0  0  0  0  0  0  0  0  0  0  0  0
   57.2186   34.7463   44.5738 H   0  0  0  0  0  0  0  0  0  0  0  0
   58.9723   34.7254   44.1855 H   0  0  0  0  0  0  0  0  0  0  0  0
   58.0341   33.1936   44.1855 H   0  0  0  0  0  0  0  0  0  0  0  0
   57.1446   32.2756   46.3666 H   0  0  0  0  0  0  0  0  0  0  0  0
   57.6830   31.9672   48.7867 H   0  0  0  0  0  0  0  0  0  0  0  0
   61.6094   34.3756   50.8928 H   0  0  0  0  0  0  0  0  0  0  0  0
   61.4091   32.7548   51.6728 H   0  0  0  0  0  0  0  0  0  0  0  0
   60.2659   31.2294   49.3526 H   0  0  0  0  0  0  0  0  0  0  0  0
   59.6940   29.8000   48.5510 H   0  0  0  0  0  0  0  0  0  0  0  0
   57.7686   29.5929   47.4725 H   0  0  0  0  0  0  0  0  0  0  0  0
   58.7521   30.6658   46.3810 H   0  0  0  0  0  0  0  0  0  0  0  0
   57.5628   28.9490   45.0797 H   0  0  0  0  0  0  0  0  0  0  0  0
   59.3421   28.7153   44.9956 H   0  0  0  0  0  0  0  0  0  0  0  0
   57.2104   25.5144   46.2529 H   0  0  0  0  0  0  0  0  0  0  0  0
   57.0932   26.4311   43.4606 H   0  0  0  0  0  0  0  0  0  0  0  0
   58.7703   26.1158   44.0857 H   0  0  0  0  0  0  0  0  0  0  0  0
   56.0076   24.6277   42.4823 H   0  0  0  0  0  0  0  0  0  0  0  0
   55.6398   22.1687   42.2526 H   0  0  0  0  0  0  0  0  0  0  0  0
   56.8961   20.5743   43.7060 H   0  0  0  0  0  0  0  0  0  0  0  0
   58.6054   21.4348   45.3173 H   0  0  0  0  0  0  0  0  0  0  0  0
   58.9674   23.8910   45.5610 H   0  0  0  0  0  0  0  0  0  0  0  0
   60.2889   27.7649   48.9151 H   0  0  0  0  0  0  0  0  0  0  0  0
   61.0736   27.6996   47.2580 H   0  0  0  0  0  0  0  0  0  0  0  0
   63.3655   31.1652   46.3276 H   0  0  0  0  0  0  0  0  0  0  0  0
   64.5928   32.9659   47.5391 H   0  0  0  0  0  0  0  0  0  0  0  0
   60.3627   35.3637   48.6267 H   0  0  0  0  0  0  0  0  0  0  0  0
   59.8325   35.6722   46.2121 H   0  0  0  0  0  0  0  0  0  0  0  0
  1  2  1  0
  2  3  2  0
  3  4  1  0
  4  5  2  0
  5  6  1  0
  6  7  2  0
  6  8  2  0
  6  9  1  0
  9 10  1  0
 10 11  2  0
 11 12  1  0
 12 13  1  0
 13 14  2  0
 13 15  1  0
 15 16  1  0
 16 17  1  0
 17 18  1  0
 18 19  1  0
 19 20  1  0
 20 21  1  0
 21 22  2  0
 22 23  1  0
 23 24  2  0
 24 25  1  0
 25 26  2  0
 19 27  1  0
 27 28  2  0
 27 29  1  0
 18 30  1  0
 30 31  2  0
 30 32  1  0
 12 33  2  0
 33 34  1  0
 34 35  2  0
 35 36  1  0
  5 37  1  0
 37 38  2  0
 38  2  1  0
 35 10  1  0
 32 15  1  0
 26 21  1  0
  1 39  1  0
  1 40  1  0
  1 41  1  0
  3 42  1  0
  4 43  1  0
  9 44  1  0
  9 45  1  0
 11 46  1  0
 15 47  1  1
 16 48  1  0
 16 49  1  0
 17 50  1  0
 17 51  1  0
 19 52  1  1
 20 53  1  0
 20 54  1  0
 22 55  1  0
 23 56  1  0
 24 57  1  0
 25 58  1  0
 26 59  1  0
 32 60  1  0
 32 61  1  0
 33 62  1  0
 34 63  1  0
 37 64  1  0
 38 65  1  0
M  CHG  3  15   1  29  -1  36  -1
M  END
>  <UniqueID>  (90) 
84

>  <SMILES>  (90) 
Cc1ccc(S(=O)(=O)Cc2cc(C(=O)[N@H+]3CCN([C@H](Cc4ccccc4)C(=O)[O-])C(=O)C3)ccc2[O-])cc1

>  <Energy>  (90) 
81.01226907339347

>  <Genealogy>  (90) 
Cc1ccc(S(=O)(=O)Cc2cc(C(=O)[NH+]3CCN(C(Cc4ccccc4)C(=O)[O-])C(=O)C3)ccc2[O-])cc1 (protonated)
Cc1ccc(S(=O)(=O)Cc2cc(C(=O)[N@H+]3CCN([C@H](Cc4ccccc4)C(=O)[O-])C(=O)C3)ccc2[O-])cc1 (chirality)
Cc1ccc(S(=O)(=O)Cc2cc(C(=O)[N@H+]3CCN([C@H](Cc4ccccc4)C(=O)[O-])C(=O)C3)ccc2[O-])cc1 (3D coordinates assigned)
Cc1ccc(S(=O)(=O)Cc2cc(C(=O)[N@H+]3CCN([C@H](Cc4ccccc4)C(=O)[O-])C(=O)C3)ccc2[O-])cc1 (nonaromatic ring conformer: 81.01226907339347 kcal/mol)

>  <smiles>  (90) 
Cc1ccc(S(=O)(=O)Cc2cc(C(=O)N3CCN(C(Cc4ccccc4)C(=O)O)C(=O)C3)ccc2O)cc1

>  <score_type>  (90) 
oracle

>  <origin>  (90) 
adg

>  <m_score__min__energy>  (90) 
-12.73

>  <m_primary>  (90) 
energy

$$$$
90:0
     RDKit          3D

 42 44  0  0  0  0  0  0  0  0999 V2000
   56.0200   27.0700   45.2300 H   0  0  0  0  0  0  0  0  0  0  0  0
   55.4300   26.6630   45.9450 O   0  0  0  0  0  0  0  0  0  0  0  0
   55.0700   25.3210   45.8890 C   0  0  0  0  0  0  0  0  0  0  0  0
   53.8580   24.8900   45.4850 N   0  0  0  0  0  0  0  0  0  0  0  0
   53.9760   23.5470   45.5430 C   0  0  0  0  0  0  0  0  0  0  0  0
   53.0340   22.7670   45.2380 O   0  0  0  0  0  0  0  0  0  0  0  0
   55.1900   23.1230   45.9570 N   0  0  0  0  0  0  0  0  0  0  0  0
   55.6310   21.7320   46.1130 C   0  0  0  0  0  0  0  0  0  0  0  0
   54.7806   21.0624   45.9171 H   0  0  0  0  0  0  0  0  0  0  0  0
   56.0029   21.5987   47.1396 H   0  0  0  0  0  0  0  0  0  0  0  0
   56.7670   21.3950   45.1390 C   0  0  0  0  0  0  0  0  0  0  0  0
   56.7958   20.3051   44.9930 H   0  0  0  0  0  0  0  0  0  0  0  0
   57.7054   21.7675   45.5757 H   0  0  0  0  0  0  0  0  0  0  0  0
   56.5860   22.0670   43.7810 C   0  0  0  0  0  0  0  0  0  0  0  0
   56.3025   23.1197   43.9277 H   0  0  0  0  0  0  0  0  0  0  0  0
   57.5298   22.0165   43.2182 H   0  0  0  0  0  0  0  0  0  0  0  0
   55.7953   21.5493   43.2182 H   0  0  0  0  0  0  0  0  0  0  0  0
   55.8880   24.2510   46.1990 C   0  0  0  0  0  0  0  0  0  0  0  0
   57.3020   24.3000   46.6290 C   0  0  0  0  0  0  0  0  0  0  0  0
   57.5273   24.0212   47.6690 H   0  0  0  0  0  0  0  0  0  0  0  0
   58.3310   24.6590   45.8460 C   0  0  0  0  0  0  0  0  0  0  0  0
   58.7762   23.8811   45.2083 H   0  0  0  0  0  0  0  0  0  0  0  0
   58.9140   26.0130   45.7710 C   0  0  0  0  0  0  0  0  0  0  0  0
   58.1450   27.0310   45.3000 N   0  0  0  0  0  0  0  0  0  0  0  0
   58.6140   28.3030   45.1650 C   0  0  0  0  0  0  0  0  0  0  0  0
   57.6970   29.3560   44.6850 C   0  0  0  0  0  0  0  0  0  0  0  0
   56.8950   29.2480   43.5660 C   0  0  0  0  0  0  0  0  0  0  0  0
   56.8021   28.3879   42.8865 H   0  0  0  0  0  0  0  0  0  0  0  0
   56.2360   30.4580   43.4890 C   0  0  0  0  0  0  0  0  0  0  0  0
   55.4956   30.7290   42.7219 H   0  0  0  0  0  0  0  0  0  0  0  0
   56.6380   31.2570   44.4970 N   0  0  0  0  0  0  0  0  0  0  0  0
   57.5290   30.5910   45.2130 N   0  0  0  0  0  0  0  0  0  0  0  0
   58.2150   31.1780   46.3600 C   0  0  0  0  0  0  0  0  0  0  0  0
   57.7681   30.7956   47.2896 H   0  0  0  0  0  0  0  0  0  0  0  0
   59.2808   30.9079   46.3274 H   0  0  0  0  0  0  0  0  0  0  0  0
   58.1130   32.2728   46.3274 H   0  0  0  0  0  0  0  0  0  0  0  0
   59.9350   28.5890   45.5420 C   0  0  0  0  0  0  0  0  0  0  0  0
   60.3194   29.6177   45.4776 H   0  0  0  0  0  0  0  0  0  0  0  0
   60.7570   27.5590   45.9990 C   0  0  0  0  0  0  0  0  0  0  0  0
   61.8001   27.7699   46.2773 H   0  0  0  0  0  0  0  0  0  0  0  0
   60.2560   26.2620   46.1030 C   0  0  0  0  0  0  0  0  0  0  0  0
   60.9055   25.4415   46.4418 H   0  0  0  0  0  0  0  0  0  0  0  0
  1  2  1  0
  2  3  1  0
  3  4  1  0
  4  5  1  0
  5  6  2  0
  5  7  1  0
  7  8  1  0
  8  9  1  0
  8 10  1  0
  8 11  1  0
 11 12  1  0
 11 13  1  0
 11 14  1  0
 14 15  1  0
 14 16  1  0
 14 17  1  0
  7 18  1  0
 18 19  1  0
 19 20  1  0
 19 21  2  0
 21 22  1  0
 21 23  1  0
 23 24  2  0
 24 25  1  0
 25 26  1  0
 26 27  2  0
 27 28  1  0
 27 29  1  0
 29 30  1  0
 29 31  2  0
 31 32  1  0
 32 33  1  0
 33 34  1  0
 33 35  1  0
 33 36  1  0
 25 37  2  0
 37 38  1  0
 37 39  1  0
 39 40  1  0
 39 41  2  0
 41 42  1  0
 18  3  2  0
 41 23  1  0
 32 26  1  0
M  CHG  1   4  -1
M  END
>  <UniqueID>  (91) 
85

>  <SMILES>  (91) 
CCCn1c(/C=C\c2cccc(-c3ccnn3C)n2)c(O)[n-]c1=O

>  <Energy>  (91) 
113.0098295271676

>  <Genealogy>  (91) 
CCCn1c(C=Cc2cccc(-c3ccnn3C)n2)c(O)[n-]c1=O (protonated)
CCCn1c(/C=C\c2cccc(-c3ccnn3C)n2)c(O)[n-]c1=O (cis-trans isomerization)
CCCn1c(/C=C\c2cccc(-c3ccnn3C)n2)c(O)[n-]c1=O (3D coordinates assigned)
CCCn1c(/C=C\c2cccc(-c3ccnn3C)n2)c(O)[n-]c1=O (optimized conformer: 113.0098295271676 kcal/mol)

>  <smiles>  (91) 
CCCn1c(C=Cc2cccc(-c3ccnn3C)n2)c(O)[nH]c1=O

>  <score_type>  (91) 
oracle

>  <origin>  (91) 
adg

>  <m_score__min__energy>  (91) 
-10.630000000000001

>  <m_primary>  (91) 
energy

$$$$
91:0
     RDKit          3D

 41 43  0  0  0  0  0  0  0  0999 V2000
   64.5680   32.6940   47.1450 H   0  0  0  0  0  0  0  0  0  0  0  0
   63.7160   33.1510   47.4450 O   0  0  0  0  0  0  0  0  0  0  0  0
   62.5240   33.0310   46.7570 N   0  0  0  0  0  0  0  0  0  0  0  0
   61.3780   33.4900   47.1740 C   0  0  0  0  0  0  0  0  0  0  0  0
   60.1480   33.4050   46.3550 C   0  0  0  0  0  0  0  0  0  0  0  0
   59.6340   34.5450   45.7210 C   0  0  0  0  0  0  0  0  0  0  0  0
   60.1361   35.5156   45.8465 H   0  0  0  0  0  0  0  0  0  0  0  0
   58.4870   34.4520   44.9310 C   0  0  0  0  0  0  0  0  0  0  0  0
   58.0797   35.3521   44.4473 H   0  0  0  0  0  0  0  0  0  0  0  0
   57.8550   33.2190   44.7530 C   0  0  0  0  0  0  0  0  0  0  0  0
   56.9446   33.1558   44.1389 H   0  0  0  0  0  0  0  0  0  0  0  0
   58.3740   32.0580   45.3530 C   0  0  0  0  0  0  0  0  0  0  0  0
   57.6990   30.7530   45.1510 C   0  0  0  0  0  0  0  0  0  0  0  0
   56.4690   30.7340   44.8660 O   0  0  0  0  0  0  0  0  0  0  0  0
   58.4310   29.5190   45.2460 N   0  0  0  0  0  0  0  0  0  0  0  0
   59.4750   29.5440   45.2190 H   0  0  0  0  0  0  0  0  0  0  0  0
   57.8030   28.2320   45.3220 C   0  0  0  0  0  0  0  0  0  0  0  0
   56.6420   27.9840   45.9640 N   0  0  0  0  0  0  0  0  0  0  0  0
   56.4680   26.6580   45.7790 C   0  0  0  0  0  0  0  0  0  0  0  0
   55.4900   26.0300   46.2650 O   0  0  0  0  0  0  0  0  0  0  0  0
   57.4560   26.0760   45.0610 N   0  0  0  0  0  0  0  0  0  0  0  0
   57.5930   24.6910   44.6840 C   0  0  0  0  0  0  0  0  0  0  0  0
   56.6510   24.0790   43.8380 C   0  0  0  0  0  0  0  0  0  0  0  0
   55.7952   24.6590   43.4622 H   0  0  0  0  0  0  0  0  0  0  0  0
   56.7960   22.7380   43.4720 C   0  0  0  0  0  0  0  0  0  0  0  0
   56.0533   22.2664   42.8117 H   0  0  0  0  0  0  0  0  0  0  0  0
   57.8810   21.9950   43.9420 C   0  0  0  0  0  0  0  0  0  0  0  0
   57.9885   20.9387   43.6545 H   0  0  0  0  0  0  0  0  0  0  0  0
   58.8330   22.5920   44.7790 C   0  0  0  0  0  0  0  0  0  0  0  0
   59.9450   21.8310   45.2590 N   0  0  0  0  0  0  0  0  0  0  0  0
   59.8110   20.8610   45.6240 H   0  0  0  0  0  0  0  0  0  0  0  0
   60.9100   22.2310   45.2520 H   0  0  0  0  0  0  0  0  0  0  0  0
   58.6880   23.9370   45.1450 C   0  0  0  0  0  0  0  0  0  0  0  0
   59.4371   24.4076   45.7987 H   0  0  0  0  0  0  0  0  0  0  0  0
   58.3110   27.0740   44.7760 C   0  0  0  0  0  0  0  0  0  0  0  0
   59.2486   26.9820   44.2082 H   0  0  0  0  0  0  0  0  0  0  0  0
   59.5240   32.1630   46.1580 C   0  0  0  0  0  0  0  0  0  0  0  0
   59.9376   31.2634   46.6372 H   0  0  0  0  0  0  0  0  0  0  0  0
   61.3090   34.0910   48.4680 N   0  0  0  0  0  0  0  0  0  0  0  0
   60.4010   34.4470   48.8450 H   0  0  0  0  0  0  0  0  0  0  0  0
   62.1640   34.1720   49.0620 H   0  0  0  0  0  0  0  0  0  0  0  0
  1  2  1  0
  2  3  1  0
  3  4  2  0
  4  5  1  0
  5  6  2  0
  6  7  1  0
  6  8  1  0
  8  9  1  0
  8 10  2  0
 10 11  1  0
 10 12  1  0
 12 13  1  0
 13 14  2  0
 13 15  1  0
 15 16  1  0
 15 17  1  0
 17 18  1  0
 18 19  1  0
 19 20  2  0
 19 21  1  0
 21 22  1  0
 22 23  2  0
 23 24  1  0
 23 25  1  0
 25 26  1  0
 25 27  2  0
 27 28  1  0
 27 29  1  0
 29 30  1  0
 30 31  1  0
 30 32  1  0
 29 33  2  0
 33 34  1  0
 21 35  1  0
 35 36  1  0
 12 37  2  0
 37 38  1  0
  4 39  1  0
 39 40  1  0
 39 41  1  0
 37  5  1  0
 35 17  2  0
 33 22  1  0
M  CHG  1  18  -1
M  END
>  <UniqueID>  (92) 
86

>  <SMILES>  (92) 
N/C(=N/O)c1cccc(C(=O)Nc2cn(-c3cccc(N)c3)c(=O)[n-]2)c1

>  <Energy>  (92) 
87.27863500768905

>  <Genealogy>  (92) 
NC(=NO)c1cccc(C(=O)Nc2cn(-c3cccc(N)c3)c(=O)[n-]2)c1 (protonated)
N/C(=N/O)c1cccc(C(=O)Nc2cn(-c3cccc(N)c3)c(=O)[n-]2)c1 (cis-trans isomerization)
N/C(=N/O)c1cccc(C(=O)Nc2cn(-c3cccc(N)c3)c(=O)[n-]2)c1 (3D coordinates assigned)
N/C(=N/O)c1cccc(C(=O)Nc2cn(-c3cccc(N)c3)c(=O)[n-]2)c1 (optimized conformer: 87.27863500768905 kcal/mol)

>  <smiles>  (92) 
NC(=NO)c1cccc(C(=O)Nc2cn(-c3cccc(N)c3)c(=O)[nH]2)c1

>  <score_type>  (92) 
oracle

>  <origin>  (92) 
adg

>  <m_score__min__energy>  (92) 
-10.56

>  <m_primary>  (92) 
energy

$$$$
92:0
     RDKit          3D

 34 36  0  0  0  0  0  0  0  0999 V2000
   56.8971   25.2070   47.3166 H   0  0  0  0  0  0  0  0  0  0  0  0
   56.5630   25.4320   46.2930 C   0  0  0  0  0  0  0  0  0  0  0  0
   55.7550   24.4080   45.6080 C   0  0  0  0  0  0  0  0  0  0  0  0
   56.1820   23.2560   44.9690 C   0  0  0  0  0  0  0  0  0  0  0  0
   57.5940   22.7860   44.8090 C   0  0  0  0  0  0  0  0  0  0  0  0
   58.0451   22.6358   45.8010 H   0  0  0  0  0  0  0  0  0  0  0  0
   57.6037   21.8362   44.2542 H   0  0  0  0  0  0  0  0  0  0  0  0
   58.1710   23.5405   44.2542 H   0  0  0  0  0  0  0  0  0  0  0  0
   55.1320   22.7040   44.3270 N   0  0  0  0  0  0  0  0  0  0  0  0
   55.1550   21.8450   43.7330 H   0  0  0  0  0  0  0  0  0  0  0  0
   54.0510   23.4470   44.5140 N   0  0  0  0  0  0  0  0  0  0  0  0
   54.4190   24.4900   45.2790 C   0  0  0  0  0  0  0  0  0  0  0  0
   53.6350   25.4120   45.6230 O   0  0  0  0  0  0  0  0  0  0  0  0
   56.9280   26.6210   45.7730 C   0  0  0  0  0  0  0  0  0  0  0  0
   55.9560   27.5580   45.5960 N   0  0  0  0  0  0  0  0  0  0  0  0
   56.2070   28.7860   45.0780 C   0  0  0  0  0  0  0  0  0  0  0  0
   55.2550   29.6000   44.9370 O   0  0  0  0  0  0  0  0  0  0  0  0
   57.5250   29.1260   44.7100 C   0  0  0  0  0  0  0  0  0  0  0  0
   57.8160   30.3240   44.1630 C   0  0  0  0  0  0  0  0  0  0  0  0
   57.9581   30.3703   43.0732 H   0  0  0  0  0  0  0  0  0  0  0  0
   57.9570   31.5830   44.9340 C   0  0  0  0  0  0  0  0  0  0  0  0
   58.1710   31.5850   46.3250 C   0  0  0  0  0  0  0  0  0  0  0  0
   58.2616   30.6314   46.8659 H   0  0  0  0  0  0  0  0  0  0  0  0
   58.2690   32.7920   47.0230 C   0  0  0  0  0  0  0  0  0  0  0  0
   58.4502   32.7859   48.1080 H   0  0  0  0  0  0  0  0  0  0  0  0
   58.1370   34.0070   46.3440 C   0  0  0  0  0  0  0  0  0  0  0  0
   58.2212   34.9563   46.8933 H   0  0  0  0  0  0  0  0  0  0  0  0
   57.8980   34.0150   44.9670 C   0  0  0  0  0  0  0  0  0  0  0  0
   57.7885   34.9708   44.4337 H   0  0  0  0  0  0  0  0  0  0  0  0
   57.7980   32.8090   44.2670 C   0  0  0  0  0  0  0  0  0  0  0  0
   57.5934   32.8202   43.1863 H   0  0  0  0  0  0  0  0  0  0  0  0
   58.5010   28.1990   44.8950 N   0  0  0  0  0  0  0  0  0  0  0  0
   58.2560   26.9700   45.4190 C   0  0  0  0  0  0  0  0  0  0  0  0
   59.2230   26.1840   45.5980 O   0  0  0  0  0  0  0  0  0  0  0  0
  1  2  1  0
  2  3  1  0
  3  4  2  0
  4  5  1  0
  5  6  1  0
  5  7  1  0
  5  8  1  0
  4  9  1  0
  9 10  1  0
  9 11  1  0
 11 12  1  0
 12 13  2  0
  2 14  2  3
 14 15  1  0
 15 16  1  0
 16 17  2  0
 16 18  1  0
 18 19  2  0
 19 20  1  0
 19 21  1  0
 21 22  2  0
 22 23  1  0
 22 24  1  0
 24 25  1  0
 24 26  2  0
 26 27  1  0
 26 28  1  0
 28 29  1  0
 28 30  2  0
 30 31  1  0
 18 32  1  0
 32 33  1  0
 33 34  2  0
 12  3  1  0
 33 14  1  0
 30 21  1  0
M  CHG  3  11  -1  15  -1  32  -1
M  END
>  <UniqueID>  (93) 
87

>  <SMILES>  (93) 
Cc1[nH][n-]c(=O)c1C=c1[n-]c(=O)/c(=C/c2ccccc2)[n-]c1=O

>  <Energy>  (93) 
88.7171853111377

>  <Genealogy>  (93) 
Cc1[nH][n-]c(=O)c1C=c1[n-]c(=O)c(=Cc2ccccc2)[n-]c1=O (protonated)
Cc1[nH][n-]c(=O)c1C=c1[n-]c(=O)/c(=C/c2ccccc2)[n-]c1=O (cis-trans isomerization)
Cc1[nH][n-]c(=O)c1C=c1[n-]c(=O)/c(=C/c2ccccc2)[n-]c1=O (3D coordinates assigned)
Cc1[nH][n-]c(=O)c1C=c1[n-]c(=O)/c(=C/c2ccccc2)[n-]c1=O (optimized conformer: 88.7171853111377 kcal/mol)

>  <smiles>  (93) 
Cc1[nH][nH]c(=O)c1C=c1[nH]c(=O)c(=Cc2ccccc2)[nH]c1=O

>  <score_type>  (93) 
oracle

>  <origin>  (93) 
adg

>  <m_score__min__energy>  (93) 
-13.02

>  <m_primary>  (93) 
energy

$$$$
93:0
     RDKit          3D

 48 50  0  0  0  0  0  0  0  0999 V2000
   61.1420   27.4120   51.1680 C   0  0  0  0  0  0  0  0  0  0  0  0
   60.8440   26.5770   50.0520 O   0  0  0  0  0  0  0  0  0  0  0  0
   60.6520   27.0520   48.7750 C   0  0  0  0  0  0  0  0  0  0  0  0
   60.6670   26.3440   47.6140 C   0  0  0  0  0  0  0  0  0  0  0  0
   60.4550   26.9660   46.3920 C   0  0  0  0  0  0  0  0  0  0  0  0
   60.2180   28.3100   46.2550 C   0  0  0  0  0  0  0  0  0  0  0  0
   59.9120   29.0180   45.0270 C   0  0  0  0  0  0  0  0  0  0  0  0
   58.7470   29.8970   44.9480 C   0  0  0  0  0  0  0  0  0  0  0  0
   58.7300   31.2300   44.9540 N   0  0  0  0  0  0  0  0  0  0  0  0
   57.5870   31.9420   44.8040 C   0  0  0  0  0  0  0  0  0  0  0  0
   57.5410   33.7340   44.8190 S   0  0  0  0  0  0  0  0  0  0  0  0
   58.1260   34.4260   46.3850 C   0  0  0  0  0  0  0  0  0  0  0  0
   59.4480   33.7810   46.7650 C   0  0  0  0  0  0  0  0  0  0  0  0
   60.7040   34.1720   46.3470 C   0  0  0  0  0  0  0  0  0  0  0  0
   61.5920   33.3040   46.9430 C   0  0  0  0  0  0  0  0  0  0  0  0
   63.0040   33.3080   46.8130 N   0  0  0  0  0  0  0  0  0  0  0  0
   63.7070   32.4800   47.4520 O   0  0  0  0  0  0  0  0  0  0  0  0
   63.6790   34.2030   45.9750 O   0  0  0  0  0  0  0  0  0  0  0  0
   60.8960   32.3960   47.7150 C   0  0  0  0  0  0  0  0  0  0  0  0
   59.6030   32.7190   47.5820 N   0  0  0  0  0  0  0  0  0  0  0  0
   58.5300   31.9770   48.2570 C   0  0  0  0  0  0  0  0  0  0  0  0
   56.3900   31.3350   44.6390 N   0  0  0  0  0  0  0  0  0  0  0  0
   56.3360   29.9820   44.6260 C   0  0  0  0  0  0  0  0  0  0  0  0
   55.2550   29.3840   44.4770 O   0  0  0  0  0  0  0  0  0  0  0  0
   57.5010   29.2780   44.7780 C   0  0  0  0  0  0  0  0  0  0  0  0
   57.4030   27.7920   44.7660 C   0  0  0  0  0  0  0  0  0  0  0  0
   60.2030   29.0420   47.4590 C   0  0  0  0  0  0  0  0  0  0  0  0
   60.4130   28.4240   48.6620 C   0  0  0  0  0  0  0  0  0  0  0  0
   60.9457   26.8620   52.1002 H   0  0  0  0  0  0  0  0  0  0  0  0
   62.2010   27.7073   51.1325 H   0  0  0  0  0  0  0  0  0  0  0  0
   60.5092   28.3111   51.1325 H   0  0  0  0  0  0  0  0  0  0  0  0
   60.8503   25.2598   47.6442 H   0  0  0  0  0  0  0  0  0  0  0  0
   60.4783   26.3471   45.4829 H   0  0  0  0  0  0  0  0  0  0  0  0
   60.7905   29.6373   44.7930 H   0  0  0  0  0  0  0  0  0  0  0  0
   59.6568   28.2059   44.3303 H   0  0  0  0  0  0  0  0  0  0  0  0
   59.6010   31.7450   45.0880 H   0  0  0  0  0  0  0  0  0  0  0  0
   58.2663   35.5115   46.2758 H   0  0  0  0  0  0  0  0  0  0  0  0
   57.3834   34.2280   47.1720 H   0  0  0  0  0  0  0  0  0  0  0  0
   60.9467   35.0077   45.6741 H   0  0  0  0  0  0  0  0  0  0  0  0
   61.3165   31.5761   48.3157 H   0  0  0  0  0  0  0  0  0  0  0  0
   58.6541   32.0628   49.3466 H   0  0  0  0  0  0  0  0  0  0  0  0
   57.5553   32.3950   47.9650 H   0  0  0  0  0  0  0  0  0  0  0  0
   58.5770   30.9175   47.9650 H   0  0  0  0  0  0  0  0  0  0  0  0
   57.3783   27.4178   45.8001 H   0  0  0  0  0  0  0  0  0  0  0  0
   56.4829   27.4894   44.2445 H   0  0  0  0  0  0  0  0  0  0  0  0
   58.2753   27.3712   44.2445 H   0  0  0  0  0  0  0  0  0  0  0  0
   60.0198   30.1263   47.4316 H   0  0  0  0  0  0  0  0  0  0  0  0
   60.3928   29.0327   49.5780 H   0  0  0  0  0  0  0  0  0  0  0  0
  1  2  1  0
  2  3  1  0
  3  4  2  0
  4  5  1  0
  5  6  2  0
  6  7  1  0
  7  8  1  0
  8  9  1  0
  9 10  1  0
 10 11  1  0
 11 12  1  0
 12 13  1  0
 13 14  2  0
 14 15  1  0
 15 16  1  0
 16 17  2  0
 16 18  1  0
 15 19  2  0
 19 20  1  0
 20 21  1  0
 10 22  2  0
 22 23  1  0
 23 24  2  0
 23 25  1  0
 25 26  1  0
  6 27  1  0
 27 28  2  0
 28  3  1  0
 25  8  2  0
 20 13  1  0
  1 29  1  0
  1 30  1  0
  1 31  1  0
  4 32  1  0
  5 33  1  0
  7 34  1  0
  7 35  1  0
  9 36  1  0
 12 37  1  0
 12 38  1  0
 14 39  1  0
 19 40  1  0
 21 41  1  0
 21 42  1  0
 21 43  1  0
 26 44  1  0
 26 45  1  0
 26 46  1  0
 27 47  1  0
 28 48  1  0
M  CHG  2  16   1  18  -1
M  END
>  <smiles>  (94) 
COc1ccc(Cc2[nH]c(SCc3cc([N+](=O)[O-])cn3C)nc(=O)c2C)cc1

>  <score_type>  (94) 
oracle

>  <origin>  (94) 
adg

>  <m_score__min__energy>  (94) 
-8.7200000000000006

>  <m_primary>  (94) 
energy

$$$$
94:0
     RDKit          3D

 33 34  0  0  0  0  0  0  0  0999 V2000
   56.0620   21.4400   43.3410 O   0  0  0  0  0  0  0  0  0  0  0  0
   56.3050   20.4350   43.9920 C   0  0  0  0  0  0  0  0  0  0  0  0
   56.0730   20.4130   45.4720 C   0  0  0  0  0  0  0  0  0  0  0  0
   56.0960   21.8350   46.0500 C   0  0  0  0  0  0  0  0  0  0  0  0
   57.4970   22.4620   45.9980 C   0  0  0  0  0  0  0  0  0  0  0  0
   57.4450   23.9660   46.0770 C   0  0  0  0  0  0  0  0  0  0  0  0
   58.6220   24.7120   46.2480 C   0  0  0  0  0  0  0  0  0  0  0  0
   58.5660   26.1040   46.3500 C   0  0  0  0  0  0  0  0  0  0  0  0
   57.3370   26.7710   46.3010 C   0  0  0  0  0  0  0  0  0  0  0  0
   57.3270   28.1680   46.4090 O   0  0  0  0  0  0  0  0  0  0  0  0
   57.0100   29.0500   45.3670 C   0  0  0  0  0  0  0  0  0  0  0  0
   57.8790   30.0520   45.0680 N   0  0  0  0  0  0  0  0  0  0  0  0
   57.6140   30.9390   44.0750 C   0  0  0  0  0  0  0  0  0  0  0  0
   56.4300   30.8340   43.3480 C   0  0  0  0  0  0  0  0  0  0  0  0
   55.5390   29.8130   43.6740 C   0  0  0  0  0  0  0  0  0  0  0  0
   55.8370   28.9440   44.6770 N   0  0  0  0  0  0  0  0  0  0  0  0
   56.1560   26.0290   46.1030 C   0  0  0  0  0  0  0  0  0  0  0  0
   54.9270   26.6680   45.9770 O   0  0  0  0  0  0  0  0  0  0  0  0
   56.2120   24.6350   46.0050 C   0  0  0  0  0  0  0  0  0  0  0  0
   56.6971   19.5395   43.4876 H   0  0  0  0  0  0  0  0  0  0  0  0
   55.0932   19.9567   45.6764 H   0  0  0  0  0  0  0  0  0  0  0  0
   56.8750   19.8276   45.9454 H   0  0  0  0  0  0  0  0  0  0  0  0
   55.4050   22.4641   45.4697 H   0  0  0  0  0  0  0  0  0  0  0  0
   55.7931   21.7744   47.1057 H   0  0  0  0  0  0  0  0  0  0  0  0
   58.0879   22.0820   46.8444 H   0  0  0  0  0  0  0  0  0  0  0  0
   57.9569   22.1877   45.0371 H   0  0  0  0  0  0  0  0  0  0  0  0
   59.5929   24.1978   46.3019 H   0  0  0  0  0  0  0  0  0  0  0  0
   59.4953   26.6803   46.4698 H   0  0  0  0  0  0  0  0  0  0  0  0
   58.3328   31.7392   43.8448 H   0  0  0  0  0  0  0  0  0  0  0  0
   56.2038   31.5404   42.5357 H   0  0  0  0  0  0  0  0  0  0  0  0
   54.5944   29.7100   43.1199 H   0  0  0  0  0  0  0  0  0  0  0  0
   55.1400   28.2060   44.9210 H   0  0  0  0  0  0  0  0  0  0  0  0
   55.2846   24.0589   45.8707 H   0  0  0  0  0  0  0  0  0  0  0  0
  1  2  2  0
  2  3  1  0
  3  4  1  0
  4  5  1  0
  5  6  1  0
  6  7  2  0
  7  8  1  0
  8  9  2  0
  9 10  1  0
 10 11  1  0
 11 12  2  0
 12 13  1  0
 13 14  2  0
 14 15  1  0
 15 16  2  0
  9 17  1  0
 17 18  1  0
 17 19  2  0
 19  6  1  0
 16 11  1  0
  2 20  1  0
  3 21  1  0
  3 22  1  0
  4 23  1  0
  4 24  1  0
  5 25  1  0
  5 26  1  0
  7 27  1  0
  8 28  1  0
 13 29  1  0
 14 30  1  0
 15 31  1  0
 16 32  1  0
 19 33  1  0
M  CHG  2  16   1  18  -1
M  END
>  <UniqueID>  (95) 
88

>  <SMILES>  (95) 
O=CCCCc1ccc(Oc2nccc[nH+]2)c([O-])c1

>  <Energy>  (95) 
34.93097909099863

>  <Genealogy>  (95) 
O=CCCCc1ccc(Oc2nccc[nH+]2)c([O-])c1 (protonated)
O=CCCCc1ccc(Oc2nccc[nH+]2)c([O-])c1 (3D coordinates assigned)
O=CCCCc1ccc(Oc2nccc[nH+]2)c([O-])c1 (optimized conformer: 34.93097909099863 kcal/mol)

>  <smiles>  (95) 
O=CCCCc1ccc(Oc2ncccn2)c(O)c1

>  <score_type>  (95) 
oracle

>  <origin>  (95) 
adg

>  <m_score__min__energy>  (95) 
-8.7699999999999996

>  <m_primary>  (95) 
energy

$$$$
95:0
     RDKit          3D

 49 51  0  0  0  0  0  0  0  0999 V2000
   59.4050   20.6190   45.8280 H   0  0  0  0  0  0  0  0  0  0  0  0
   59.4580   21.6410   45.6150 N   0  0  0  0  0  0  0  0  0  0  0  0
   58.4050   22.3920   45.6360 C   0  0  0  0  0  0  0  0  0  0  0  0
   57.6560   22.4860   46.7670 N   0  0  0  0  0  0  0  0  0  0  0  0
   56.5380   23.2600   46.8420 C   0  0  0  0  0  0  0  0  0  0  0  0
   55.7830   23.2910   48.1380 C   0  0  0  0  0  0  0  0  0  0  0  0
   56.4936   23.2618   48.9771 H   0  0  0  0  0  0  0  0  0  0  0  0
   55.1877   24.2143   48.1936 H   0  0  0  0  0  0  0  0  0  0  0  0
   55.1140   22.4196   48.1936 H   0  0  0  0  0  0  0  0  0  0  0  0
   56.1080   23.9780   45.6970 C   0  0  0  0  0  0  0  0  0  0  0  0
   54.8720   24.8510   45.7000 C   0  0  0  0  0  0  0  0  0  0  0  0
   54.3956   24.7996   44.7098 H   0  0  0  0  0  0  0  0  0  0  0  0
   54.1910   24.4828   46.4815 H   0  0  0  0  0  0  0  0  0  0  0  0
   55.2010   26.2430   45.9970 N   0  0  0  0  0  0  0  0  0  0  0  0
   56.5130   26.8100   46.1170 C   0  0  0  0  0  0  0  0  0  0  0  0
   57.0290   26.8880   47.2630 O   0  0  0  0  0  0  0  0  0  0  0  0
   57.3120   27.2760   44.9290 C   0  0  0  0  0  0  0  0  0  0  0  0
   58.0543   26.5077   44.6667 H   0  0  0  0  0  0  0  0  0  0  0  0
   56.6301   27.4449   44.0826 H   0  0  0  0  0  0  0  0  0  0  0  0
   58.0070   28.5360   45.2440 N   0  0  0  0  0  0  0  0  0  0  0  0
   59.3410   28.4880   45.5440 C   0  0  0  0  0  0  0  0  0  0  0  0
   59.8588   27.5177   45.5642 H   0  0  0  0  0  0  0  0  0  0  0  0
   60.0510   29.6520   45.8240 C   0  0  0  0  0  0  0  0  0  0  0  0
   61.1211   29.6012   46.0737 H   0  0  0  0  0  0  0  0  0  0  0  0
   59.3990   30.8790   45.7860 C   0  0  0  0  0  0  0  0  0  0  0  0
   59.9523   31.8012   46.0171 H   0  0  0  0  0  0  0  0  0  0  0  0
   58.0380   30.9450   45.4540 C   0  0  0  0  0  0  0  0  0  0  0  0
   57.3440   32.2060   45.3890 N   0  0  0  0  0  0  0  0  0  0  0  0
   56.3020   32.2190   45.3230 H   0  0  0  0  0  0  0  0  0  0  0  0
   58.1500   33.7350   45.2300 S   0  0  0  0  0  0  0  0  0  0  0  0
   57.1260   34.8360   45.2670 O   0  0  0  0  0  0  0  0  0  0  0  0
   58.8720   33.7810   43.9130 O   0  0  0  0  0  0  0  0  0  0  0  0
   59.3250   33.9320   46.5260 C   0  0  0  0  0  0  0  0  0  0  0  0
   60.6960   33.8390   46.2450 C   0  0  0  0  0  0  0  0  0  0  0  0
   61.0335   33.6555   45.2143 H   0  0  0  0  0  0  0  0  0  0  0  0
   61.6350   33.9790   47.2720 C   0  0  0  0  0  0  0  0  0  0  0  0
   62.7094   33.9026   47.0487 H   0  0  0  0  0  0  0  0  0  0  0  0
   61.2090   34.2160   48.5820 C   0  0  0  0  0  0  0  0  0  0  0  0
   61.9483   34.3239   49.3893 H   0  0  0  0  0  0  0  0  0  0  0  0
   59.8440   34.3160   48.8670 C   0  0  0  0  0  0  0  0  0  0  0  0
   59.5097   34.5055   49.8977 H   0  0  0  0  0  0  0  0  0  0  0  0
   58.9030   34.1750   47.8410 C   0  0  0  0  0  0  0  0  0  0  0  0
   57.8294   34.2550   48.0666 H   0  0  0  0  0  0  0  0  0  0  0  0
   57.3520   29.7430   45.1850 C   0  0  0  0  0  0  0  0  0  0  0  0
   56.1280   29.7860   44.8760 O   0  0  0  0  0  0  0  0  0  0  0  0
   56.8940   23.9080   44.5350 C   0  0  0  0  0  0  0  0  0  0  0  0
   56.6043   24.4865   43.6454 H   0  0  0  0  0  0  0  0  0  0  0  0
   58.0380   23.1120   44.4990 C   0  0  0  0  0  0  0  0  0  0  0  0
   58.6449   23.0523   43.5835 H   0  0  0  0  0  0  0  0  0  0  0  0
  1  2  1  0
  2  3  2  0
  3  4  1  0
  4  5  1  0
  5  6  1  0
  6  7  1  0
  6  8  1  0
  6  9  1  0
  5 10  2  0
 10 11  1  0
 11 12  1  0
 11 13  1  0
 11 14  1  0
 14 15  1  0
 15 16  2  0
 15 17  1  0
 17 18  1  0
 17 19  1  0
 17 20  1  0
 20 21  1  0
 21 22  1  0
 21 23  2  0
 23 24  1  0
 23 25  1  0
 25 26  1  0
 25 27  2  0
 27 28  1  0
 28 29  1  0
 28 30  1  0
 30 31  2  0
 30 32  2  0
 30 33  1  0
 33 34  2  0
 34 35  1  0
 34 36  1  0
 36 37  1  0
 36 38  2  0
 38 39  1  0
 38 40  1  0
 40 41  1  0
 40 42  2  0
 42 43  1  0
 27 44  1  0
 44 45  2  0
 10 46  1  0
 46 47  1  0
 46 48  2  0
 48 49  1  0
 48  3  1  0
 44 20  1  0
 42 33  1  0
M  CHG  2   4  -1  14  -1
M  END
>  <UniqueID>  (96) 
89

>  <SMILES>  (96) 
[H]/N=c1/ccc(C[N-]C(=O)Cn2cccc(NS(=O)(=O)c3ccccc3)c2=O)c(C)[n-]1

>  <Energy>  (96) 
55.35183631933515

>  <Genealogy>  (96) 
Cc1[n-]c(=N)ccc1C[N-]C(=O)Cn1cccc(NS(=O)(=O)c2ccccc2)c1=O (protonated)
[H]/N=c1/ccc(C[N-]C(=O)Cn2cccc(NS(=O)(=O)c3ccccc3)c2=O)c(C)[n-]1 (cis-trans isomerization)
[H]/N=c1/ccc(C[N-]C(=O)Cn2cccc(NS(=O)(=O)c3ccccc3)c2=O)c(C)[n-]1 (3D coordinates assigned)
[H]/N=c1/ccc(C[N-]C(=O)Cn2cccc(NS(=O)(=O)c3ccccc3)c2=O)c(C)[n-]1 (optimized conformer: 55.35183631933515 kcal/mol)

>  <smiles>  (96) 
Cc1[nH]c(=N)ccc1CNC(=O)Cn1cccc(NS(=O)(=O)c2ccccc2)c1=O

>  <score_type>  (96) 
oracle

>  <origin>  (96) 
adg

>  <m_score__min__energy>  (96) 
-13.17

>  <m_primary>  (96) 
energy

$$$$
