0:0
     RDKit          3D

 29 30  0  0  0  0  0  0  0  0999 V2000
   56.5612   31.8435   42.1475 H   0  0  0  0  0  0  0  0  0  0  0  0
   56.8940   31.2010   42.9760 C   0  0  0  0  0  0  0  0  0  0  0  0
   58.2120   31.2790   43.4340 C   0  0  0  0  0  0  0  0  0  0  0  0
   58.9159   31.9819   42.9645 H   0  0  0  0  0  0  0  0  0  0  0  0
   58.6370   30.4650   44.4880 C   0  0  0  0  0  0  0  0  0  0  0  0
   59.6758   30.5263   44.8447 H   0  0  0  0  0  0  0  0  0  0  0  0
   57.7420   29.5710   45.0910 C   0  0  0  0  0  0  0  0  0  0  0  0
   58.3040   28.5290   46.4410 S   0  0  0  0  0  0  0  0  0  0  0  0
   58.6280   27.0970   45.3630 C   0  0  0  0  0  0  0  0  0  0  0  0
   59.5723   27.2519   44.8205 H   0  0  0  0  0  0  0  0  0  0  0  0
   57.8058   26.9867   44.6407 H   0  0  0  0  0  0  0  0  0  0  0  0
   58.7290   25.8630   46.1970 C   0  0  0  0  0  0  0  0  0  0  0  0
   59.8190   25.2330   46.2350 O   0  0  0  0  0  0  0  0  0  0  0  0
   57.5610   25.3880   46.8850 N   0  0  0  0  0  0  0  0  0  0  0  0
   56.3450   25.2770   46.4290 C   0  0  0  0  0  0  0  0  0  0  0  0
   55.7080   24.1380   45.9640 C   0  0  0  0  0  0  0  0  0  0  0  0
   56.1074   23.1158   45.8895 H   0  0  0  0  0  0  0  0  0  0  0  0
   54.4500   24.5940   45.6160 C   0  0  0  0  0  0  0  0  0  0  0  0
   53.3260   23.7490   45.1170 C   0  0  0  0  0  0  0  0  0  0  0  0
   52.7726   23.3329   45.9718 H   0  0  0  0  0  0  0  0  0  0  0  0
   52.6487   24.3635   44.5057 H   0  0  0  0  0  0  0  0  0  0  0  0
   53.7281   22.9277   44.5057 H   0  0  0  0  0  0  0  0  0  0  0  0
   54.3390   25.9130   45.8780 N   0  0  0  0  0  0  0  0  0  0  0  0
   55.4990   26.3200   46.3640 N   0  0  0  0  0  0  0  0  0  0  0  0
   55.7010   27.3030   46.6550 H   0  0  0  0  0  0  0  0  0  0  0  0
   56.4180   29.4900   44.6270 C   0  0  0  0  0  0  0  0  0  0  0  0
   55.5200   28.6030   45.2090 O   0  0  0  0  0  0  0  0  0  0  0  0
   55.9980   30.3070   43.5700 C   0  0  0  0  0  0  0  0  0  0  0  0
   54.9616   30.2453   43.2065 H   0  0  0  0  0  0  0  0  0  0  0  0
  1  2  1  0
  2  3  2  0
  3  4  1  0
  3  5  1  0
  5  6  1  0
  5  7  2  0
  7  8  1  0
  8  9  1  0
  9 10  1  0
  9 11  1  0
  9 12  1  0
 12 13  2  0
 12 14  1  0
 14 15  2  0
 15 16  1  0
 16 17  1  0
 16 18  2  0
 18 19  1  0
 19 20  1  0
 19 21  1  0
 19 22  1  0
 18 23  1  0
 23 24  1  0
 24 25  1  0
  7 26  1  0
 26 27  1  0
 26 28  2  0
 28 29  1  0
 28  2  1  0
 24 15  1  0
M  CHG  2  23  -1  27  -1
M  END
>  <UniqueID>  (1) 
1

>  <SMILES>  (1) 
Cc1c/c(=N\C(=O)CSc2ccccc2[O-])[nH][n-]1

>  <Energy>  (1) 
57.627468617521124

>  <Genealogy>  (1) 
Cc1cc(=NC(=O)CSc2ccccc2[O-])[nH][n-]1 (protonated)
Cc1c/c(=N\C(=O)CSc2ccccc2[O-])[nH][n-]1 (cis-trans isomerization)
Cc1c/c(=N\C(=O)CSc2ccccc2[O-])[nH][n-]1 (3D coordinates assigned)
Cc1c/c(=N\C(=O)CSc2ccccc2[O-])[nH][n-]1 (optimized conformer: 57.627468617521124 kcal/mol)

>  <smiles>  (1) 
Cc1cc(=NC(=O)CSc2ccccc2O)[nH][nH]1

>  <score_type>  (1) 
oracle

>  <origin>  (1) 
adg

>  <m_score__min__energy>  (1) 
-12.289999999999999

>  <m_primary>  (1) 
energy

$$$$
1:0
     RDKit          3D

 26 27  0  0  0  0  0  0  0  0999 V2000
   59.9666   27.9516   45.3961 H   0  0  0  0  0  0  0  0  0  0  0  0
   59.1100   28.0910   46.0720 C   0  0  0  0  0  0  0  0  0  0  0  0
   58.7570   26.9670   46.9560 C   0  0  0  0  0  0  0  0  0  0  0  0
   59.1550   26.9910   48.1510 O   0  0  0  0  0  0  0  0  0  0  0  0
   58.0800   25.8140   46.4270 N   0  0  0  0  0  0  0  0  0  0  0  0
   56.8140   25.6910   46.1460 C   0  0  0  0  0  0  0  0  0  0  0  0
   56.1390   24.5490   45.7410 C   0  0  0  0  0  0  0  0  0  0  0  0
   56.5438   23.5424   45.5597 H   0  0  0  0  0  0  0  0  0  0  0  0
   54.8320   24.9860   45.6210 C   0  0  0  0  0  0  0  0  0  0  0  0
   53.6590   24.1520   45.2330 C   0  0  0  0  0  0  0  0  0  0  0  0
   53.1505   23.7904   46.1389 H   0  0  0  0  0  0  0  0  0  0  0  0
   52.9600   24.7571   44.6369 H   0  0  0  0  0  0  0  0  0  0  0  0
   54.0009   23.2931   44.6369 H   0  0  0  0  0  0  0  0  0  0  0  0
   54.7670   26.2610   45.9370 O   0  0  0  0  0  0  0  0  0  0  0  0
   55.9440   26.7090   46.2550 N   0  0  0  0  0  0  0  0  0  0  0  0
   56.1530   27.6880   46.5510 H   0  0  0  0  0  0  0  0  0  0  0  0
   58.4730   29.2710   46.0230 C   0  0  0  0  0  0  0  0  0  0  0  0
   58.7479   30.0221   46.7782 H   0  0  0  0  0  0  0  0  0  0  0  0
   57.4360   29.6480   45.0440 C   0  0  0  0  0  0  0  0  0  0  0  0
   56.1650   29.3550   45.1980 O   0  0  0  0  0  0  0  0  0  0  0  0
   55.5030   29.7810   44.1470 C   0  0  0  0  0  0  0  0  0  0  0  0
   54.4171   29.6845   44.0006 H   0  0  0  0  0  0  0  0  0  0  0  0
   56.3760   30.3680   43.2540 C   0  0  0  0  0  0  0  0  0  0  0  0
   56.1246   30.8182   42.2824 H   0  0  0  0  0  0  0  0  0  0  0  0
   57.6270   30.2760   43.8260 C   0  0  0  0  0  0  0  0  0  0  0  0
   58.5789   30.6285   43.4022 H   0  0  0  0  0  0  0  0  0  0  0  0
  1  2  1  0
  2  3  1  0
  3  4  2  0
  3  5  1  0
  5  6  2  3
  6  7  1  0
  7  8  1  0
  7  9  2  0
  9 10  1  0
 10 11  1  0
 10 12  1  0
 10 13  1  0
  9 14  1  0
 14 15  1  0
 15 16  1  0
  2 17  2  0
 17 18  1  0
 17 19  1  0
 19 20  1  0
 20 21  1  0
 21 22  1  0
 21 23  2  0
 23 24  1  0
 23 25  1  0
 25 26  1  0
 15  6  1  0
 25 19  2  0
M  END
>  <UniqueID>  (2) 
2

>  <SMILES>  (2) 
Cc1cc(=NC(=O)/C=C\c2ccco2)[nH]o1

>  <Energy>  (2) 
92.5384457193167

>  <Genealogy>  (2) 
Cc1cc(=NC(=O)/C=C\c2ccco2)[nH]o1 (cis-trans isomerization)
Cc1cc(=NC(=O)/C=C\c2ccco2)[nH]o1 (3D coordinates assigned)
Cc1cc(=NC(=O)/C=C\c2ccco2)[nH]o1 (optimized conformer: 92.5384457193167 kcal/mol)

>  <smiles>  (2) 
Cc1cc(=NC(=O)C=Cc2ccco2)[nH]o1

>  <score_type>  (2) 
oracle

>  <origin>  (2) 
adg

>  <m_score__min__energy>  (2) 
-6.9100000000000001

>  <m_primary>  (2) 
energy

$$$$
2:0
     RDKit          3D

 46 48  0  0  0  0  0  0  0  0999 V2000
   61.2544   33.8487   50.6185 H   0  0  0  0  0  0  0  0  0  0  0  0
   61.1800   33.9150   49.5230 C   0  0  0  0  0  0  0  0  0  0  0  0
   59.9750   34.1380   48.9370 N   0  0  0  0  0  0  0  0  0  0  0  0
   59.8600   34.2300   47.5860 C   0  0  0  0  0  0  0  0  0  0  0  0
   58.6940   34.4530   47.0610 N   0  0  0  0  0  0  0  0  0  0  0  0
   58.1020   33.6480   45.6420 S   0  0  0  0  0  0  0  0  0  0  0  0
   56.6010   33.7150   45.6290 O   0  0  0  0  0  0  0  0  0  0  0  0
   58.6160   34.3420   44.4100 O   0  0  0  0  0  0  0  0  0  0  0  0
   58.6110   31.9620   45.6530 C   0  0  0  0  0  0  0  0  0  0  0  0
   58.0530   31.0540   44.7440 C   0  0  0  0  0  0  0  0  0  0  0  0
   57.3106   31.4002   44.0099 H   0  0  0  0  0  0  0  0  0  0  0  0
   58.4360   29.7090   44.7660 C   0  0  0  0  0  0  0  0  0  0  0  0
   57.9988   29.0050   44.0427 H   0  0  0  0  0  0  0  0  0  0  0  0
   59.3740   29.2510   45.7040 C   0  0  0  0  0  0  0  0  0  0  0  0
   59.6980   27.8480   45.7470 N   0  0  0  0  0  0  0  0  0  0  0  0
   60.1550   27.4140   44.9150 H   0  0  0  0  0  0  0  0  0  0  0  0
   59.2040   26.9620   46.7570 C   0  0  0  0  0  0  0  0  0  0  0  0
   59.8620   26.9950   48.2560 S   0  0  0  0  0  0  0  0  0  0  0  0
   58.1810   26.0060   46.4490 N   0  0  0  0  0  0  0  0  0  0  0  0
   57.8590   25.3510   47.1980 H   0  0  0  0  0  0  0  0  0  0  0  0
   57.5480   25.9190   45.1330 C   0  0  0  0  0  0  0  0  0  0  0  0
   57.2016   26.9190   44.8330 H   0  0  0  0  0  0  0  0  0  0  0  0
   58.2858   25.5361   44.4125 H   0  0  0  0  0  0  0  0  0  0  0  0
   56.3690   24.9760   45.1640 C   0  0  0  0  0  0  0  0  0  0  0  0
   56.5380   23.6480   44.7340 C   0  0  0  0  0  0  0  0  0  0  0  0
   57.5224   23.3089   44.3792 H   0  0  0  0  0  0  0  0  0  0  0  0
   55.4610   22.7560   44.7550 C   0  0  0  0  0  0  0  0  0  0  0  0
   55.6004   21.7197   44.4135 H   0  0  0  0  0  0  0  0  0  0  0  0
   54.2100   23.1770   45.2080 C   0  0  0  0  0  0  0  0  0  0  0  0
   53.3655   22.4723   45.2246 H   0  0  0  0  0  0  0  0  0  0  0  0
   54.0300   24.4920   45.6400 C   0  0  0  0  0  0  0  0  0  0  0  0
   53.0451   24.8193   46.0045 H   0  0  0  0  0  0  0  0  0  0  0  0
   55.0990   25.3960   45.6110 C   0  0  0  0  0  0  0  0  0  0  0  0
   54.8880   26.7040   46.0340 O   0  0  0  0  0  0  0  0  0  0  0  0
   59.9270   30.1670   46.6200 C   0  0  0  0  0  0  0  0  0  0  0  0
   60.6581   29.8211   47.3655 H   0  0  0  0  0  0  0  0  0  0  0  0
   59.5520   31.5130   46.5870 C   0  0  0  0  0  0  0  0  0  0  0  0
   59.9986   32.2231   47.2986 H   0  0  0  0  0  0  0  0  0  0  0  0
   60.9660   34.0890   46.8040 N   0  0  0  0  0  0  0  0  0  0  0  0
   62.1890   33.8500   47.3460 C   0  0  0  0  0  0  0  0  0  0  0  0
   63.3840   33.7260   46.4560 C   0  0  0  0  0  0  0  0  0  0  0  0
   64.2911   33.6319   47.0711 H   0  0  0  0  0  0  0  0  0  0  0  0
   63.2773   32.8341   45.8211 H   0  0  0  0  0  0  0  0  0  0  0  0
   63.4627   34.6208   45.8211 H   0  0  0  0  0  0  0  0  0  0  0  0
   62.3230   33.7700   48.7370 C   0  0  0  0  0  0  0  0  0  0  0  0
   63.3061   33.5969   49.1991 H   0  0  0  0  0  0  0  0  0  0  0  0
  1  2  1  0
  2  3  1  0
  3  4  1  0
  4  5  2  0
  5  6  1  0
  6  7  2  0
  6  8  2  0
  6  9  1  0
  9 10  2  0
 10 11  1  0
 10 12  1  0
 12 13  1  0
 12 14  2  0
 14 15  1  0
 15 16  1  0
 15 17  1  0
 17 18  2  0
 17 19  1  0
 19 20  1  0
 19 21  1  0
 21 22  1  0
 21 23  1  0
 21 24  1  0
 24 25  2  0
 25 26  1  0
 25 27  1  0
 27 28  1  0
 27 29  2  0
 29 30  1  0
 29 31  1  0
 31 32  1  0
 31 33  2  0
 33 34  1  0
 14 35  1  0
 35 36  1  0
 35 37  2  0
 37 38  1  0
  4 39  1  0
 39 40  2  0
 40 41  1  0
 41 42  1  0
 41 43  1  0
 41 44  1  0
 40 45  1  0
 45 46  1  0
 45  2  2  0
 37  9  1  0
 33 24  1  0
M  CHG  2   3  -1  34  -1
M  END
>  <UniqueID>  (3) 
3

>  <SMILES>  (3) 
Cc1cc[n-]/c(=N/S(=O)(=O)c2ccc(NC(=S)NCc3ccccc3[O-])cc2)n1

>  <Energy>  (3) 
49.67897548904111

>  <Genealogy>  (3) 
Cc1cc[n-]c(=NS(=O)(=O)c2ccc(NC(=S)NCc3ccccc3[O-])cc2)n1 (protonated)
Cc1cc[n-]/c(=N/S(=O)(=O)c2ccc(NC(=S)NCc3ccccc3[O-])cc2)n1 (cis-trans isomerization)
Cc1cc[n-]/c(=N/S(=O)(=O)c2ccc(NC(=S)NCc3ccccc3[O-])cc2)n1 (3D coordinates assigned)
Cc1cc[n-]/c(=N/S(=O)(=O)c2ccc(NC(=S)NCc3ccccc3[O-])cc2)n1 (optimized conformer: 49.67897548904111 kcal/mol)

>  <smiles>  (3) 
Cc1cc[nH]c(=NS(=O)(=O)c2ccc(NC(=S)NCc3ccccc3O)cc2)n1

>  <score_type>  (3) 
oracle

>  <origin>  (3) 
adg

>  <m_score__min__energy>  (3) 
-13.41

>  <m_primary>  (3) 
energy

$$$$
3:0
     RDKit          3D

 62 65  0  0  0  0  0  0  0  0999 V2000
   58.1930   32.6750   51.2300 C   0  0  0  0  0  0  0  0  0  0  0  0
   58.7560   31.8790   50.3150 C   0  0  0  0  0  0  0  0  0  0  0  0
   59.6650   32.4670   49.3670 N   0  0  0  0  0  0  0  0  0  0  0  0
   59.2790   32.9880   48.0850 C   0  0  0  0  0  0  0  0  0  0  0  0
   57.9480   32.8760   47.6420 C   0  0  0  0  0  0  0  0  0  0  0  0
   57.5440   33.4800   46.4440 C   0  0  0  0  0  0  0  0  0  0  0  0
   58.4620   34.2100   45.6830 C   0  0  0  0  0  0  0  0  0  0  0  0
   59.7890   34.3280   46.1140 C   0  0  0  0  0  0  0  0  0  0  0  0
   60.2080   33.7170   47.3090 C   0  0  0  0  0  0  0  0  0  0  0  0
   61.5920   33.7930   47.6900 N   0  0  0  0  0  0  0  0  0  0  0  0
   61.9770   34.3060   49.0040 C   0  0  0  0  0  0  0  0  0  0  0  0
   63.1590   33.4900   49.5330 C   0  0  0  0  0  0  0  0  0  0  0  0
   64.2070   33.4430   48.5800 O   0  0  0  0  0  0  0  0  0  0  0  0
   63.7770   32.7460   47.4200 C   0  0  0  0  0  0  0  0  0  0  0  0
   62.6460   33.5030   46.7180 C   0  0  0  0  0  0  0  0  0  0  0  0
   58.5990   30.4010   50.3970 C   0  0  0  0  0  0  0  0  0  0  0  0
   57.6680   29.9210   51.0960 O   0  0  0  0  0  0  0  0  0  0  0  0
   59.4090   29.4970   49.6320 N   0  0  0  0  0  0  0  0  0  0  0  0
   59.5430   29.5020   48.2010 C   0  0  0  0  0  0  0  0  0  0  0  0
   60.7420   29.8840   47.5790 C   0  0  0  0  0  0  0  0  0  0  0  0
   60.8450   29.8690   46.1840 C   0  0  0  0  0  0  0  0  0  0  0  0
   59.7510   29.4860   45.4020 C   0  0  0  0  0  0  0  0  0  0  0  0
   58.5520   29.0990   46.0170 C   0  0  0  0  0  0  0  0  0  0  0  0
   57.1430   28.6720   45.0490 S   0  0  0  0  0  0  0  0  0  0  0  0
   57.5530   28.1900   43.6840 O   0  0  0  0  0  0  0  0  0  0  0  0
   56.2760   29.8900   44.8910 O   0  0  0  0  0  0  0  0  0  0  0  0
   56.2320   27.4300   45.8470 N   0  0  0  0  0  0  0  0  0  0  0  0
   56.3680   26.0280   45.5970 C   0  0  0  0  0  0  0  0  0  0  0  0
   55.8020   25.2220   46.3830 O   0  0  0  0  0  0  0  0  0  0  0  0
   57.0960   25.5380   44.4560 N   0  0  0  0  0  0  0  0  0  0  0  0
   57.2630   24.1420   44.1520 C   0  0  0  0  0  0  0  0  0  0  0  0
   58.2540   23.3640   44.7900 C   0  0  0  0  0  0  0  0  0  0  0  0
   58.4010   22.0090   44.4680 C   0  0  0  0  0  0  0  0  0  0  0  0
   57.5800   21.4290   43.4960 C   0  0  0  0  0  0  0  0  0  0  0  0
   56.6200   22.1990   42.8410 C   0  0  0  0  0  0  0  0  0  0  0  0
   56.4640   23.5510   43.1610 C   0  0  0  0  0  0  0  0  0  0  0  0
   58.4580   29.0930   47.4170 C   0  0  0  0  0  0  0  0  0  0  0  0
   57.4939   32.2556   51.9684 H   0  0  0  0  0  0  0  0  0  0  0  0
   58.4290   33.7493   51.2443 H   0  0  0  0  0  0  0  0  0  0  0  0
   60.6740   32.5400   49.6330 H   0  0  0  0  0  0  0  0  0  0  0  0
   57.2192   32.3100   48.2408 H   0  0  0  0  0  0  0  0  0  0  0  0
   56.5034   33.3797   46.1018 H   0  0  0  0  0  0  0  0  0  0  0  0
   58.1422   34.6910   44.7469 H   0  0  0  0  0  0  0  0  0  0  0  0
   60.5090   34.9030   45.5132 H   0  0  0  0  0  0  0  0  0  0  0  0
   62.2690   35.3629   48.9158 H   0  0  0  0  0  0  0  0  0  0  0  0
   61.1280   34.2218   49.6983 H   0  0  0  0  0  0  0  0  0  0  0  0
   63.5329   33.9549   50.4571 H   0  0  0  0  0  0  0  0  0  0  0  0
   62.8172   32.4634   49.7310 H   0  0  0  0  0  0  0  0  0  0  0  0
   64.6250   32.6413   46.7273 H   0  0  0  0  0  0  0  0  0  0  0  0
   63.4042   31.7561   47.7217 H   0  0  0  0  0  0  0  0  0  0  0  0
   63.0345   34.4448   46.3032 H   0  0  0  0  0  0  0  0  0  0  0  0
   62.2393   32.8893   45.9008 H   0  0  0  0  0  0  0  0  0  0  0  0
   61.6022   30.1957   48.1897 H   0  0  0  0  0  0  0  0  0  0  0  0
   61.7895   30.1594   45.7008 H   0  0  0  0  0  0  0  0  0  0  0  0
   59.8310   29.4883   44.3049 H   0  0  0  0  0  0  0  0  0  0  0  0
   57.4090   26.2170   43.7250 H   0  0  0  0  0  0  0  0  0  0  0  0
   58.9123   23.8236   45.5420 H   0  0  0  0  0  0  0  0  0  0  0  0
   59.1620   21.4013   44.9795 H   0  0  0  0  0  0  0  0  0  0  0  0
   57.6918   20.3632   43.2477 H   0  0  0  0  0  0  0  0  0  0  0  0
   55.9831   21.7412   42.0698 H   0  0  0  0  0  0  0  0  0  0  0  0
   55.7110   24.1548   42.6333 H   0  0  0  0  0  0  0  0  0  0  0  0
   57.5263   28.7650   47.9011 H   0  0  0  0  0  0  0  0  0  0  0  0
  1  2  2  0
  2  3  1  0
  3  4  1  0
  4  5  2  0
  5  6  1  0
  6  7  2  0
  7  8  1  0
  8  9  2  0
  9 10  1  0
 10 11  1  0
 11 12  1  0
 12 13  1  0
 13 14  1  0
 14 15  1  0
  2 16  1  0
 16 17  2  0
 16 18  1  0
 18 19  1  0
 19 20  2  0
 20 21  1  0
 21 22  2  0
 22 23  1  0
 23 24  1  0
 24 25  2  0
 24 26  2  0
 24 27  1  0
 27 28  1  0
 28 29  2  0
 28 30  1  0
 30 31  1  0
 31 32  2  0
 32 33  1  0
 33 34  2  0
 34 35  1  0
 35 36  2  0
 23 37  2  0
  9  4  1  0
 15 10  1  0
 37 19  1  0
 36 31  1  0
  1 38  1  0
  1 39  1  0
  3 40  1  0
  5 41  1  0
  6 42  1  0
  7 43  1  0
  8 44  1  0
 11 45  1  0
 11 46  1  0
 12 47  1  0
 12 48  1  0
 14 49  1  0
 14 50  1  0
 15 51  1  0
 15 52  1  0
 20 53  1  0
 21 54  1  0
 22 55  1  0
 30 56  1  0
 32 57  1  0
 33 58  1  0
 34 59  1  0
 35 60  1  0
 36 61  1  0
 37 62  1  0
M  CHG  2  18  -1  27  -1
M  END
>  <UniqueID>  (4) 
4

>  <SMILES>  (4) 
C=C(Nc1ccccc1N1CCOCC1)C(=O)[N-]c1cccc(S(=O)(=O)[N-]C(=O)Nc2ccccc2)c1

>  <Energy>  (4) 
89.56430433978954

>  <Genealogy>  (4) 
C=C(Nc1ccccc1N1CCOCC1)C(=O)[N-]c1cccc(S(=O)(=O)[N-]C(=O)Nc2ccccc2)c1 (protonated)
C=C(Nc1ccccc1N1CCOCC1)C(=O)[N-]c1cccc(S(=O)(=O)[N-]C(=O)Nc2ccccc2)c1 (3D coordinates assigned)
C=C(Nc1ccccc1N1CCOCC1)C(=O)[N-]c1cccc(S(=O)(=O)[N-]C(=O)Nc2ccccc2)c1 (nonaromatic ring conformer: 89.56430433978954 kcal/mol)

>  <smiles>  (4) 
C=C(Nc1ccccc1N1CCOCC1)C(=O)Nc1cccc(S(=O)(=O)NC(=O)Nc2ccccc2)c1

>  <score_type>  (4) 
oracle

>  <origin>  (4) 
adg

>  <m_score__min__energy>  (4) 
-13.27

>  <m_primary>  (4) 
energy

$$$$
4:0
     RDKit          3D

 51 52  0  0  0  0  0  0  0  0999 V2000
   54.5460   27.0760   46.7510 H   0  0  0  0  0  0  0  0  0  0  0  0
   55.1100   26.4150   46.1700 N   0  0  0  0  0  0  0  0  0  0  0  0
   56.5850   27.2240   45.7710 S   0  0  0  0  0  0  0  0  0  0  0  0
   57.4190   26.3420   44.8860 O   0  0  0  0  0  0  0  0  0  0  0  0
   57.3460   27.5110   47.0350 O   0  0  0  0  0  0  0  0  0  0  0  0
   56.2420   28.7260   44.9620 N   0  0  0  0  0  0  0  0  0  0  0  0
   57.1410   28.9160   43.8220 C   0  0  0  0  0  0  0  0  0  0  0  0
   56.8722   28.2044   43.0274 H   0  0  0  0  0  0  0  0  0  0  0  0
   58.1754   28.7435   44.1540 H   0  0  0  0  0  0  0  0  0  0  0  0
   57.0310   30.3200   43.2870 C   0  0  0  0  0  0  0  0  0  0  0  0
   56.2790   30.5270   42.2960 O   0  0  0  0  0  0  0  0  0  0  0  0
   57.7350   31.4240   43.8970 N   0  0  0  0  0  0  0  0  0  0  0  0
   58.1850   31.3760   45.2660 C   0  0  0  0  0  0  0  0  0  0  0  0
   57.4090   30.9410   46.1630 O   0  0  0  0  0  0  0  0  0  0  0  0
   59.5360   31.8510   45.6320 C   0  0  0  0  0  0  0  0  0  0  0  0
   60.3960   31.1820   45.4811 H   0  0  0  0  0  0  0  0  0  0  0  0
   59.7440   33.0720   46.1420 C   0  0  0  0  0  0  0  0  0  0  0  0
   59.1984   33.9222   45.7068 H   0  0  0  0  0  0  0  0  0  0  0  0
   60.6740   33.3300   47.2640 C   0  0  0  0  0  0  0  0  0  0  0  0
   62.0370   33.6160   47.0590 C   0  0  0  0  0  0  0  0  0  0  0  0
   62.4396   33.6603   46.0363 H   0  0  0  0  0  0  0  0  0  0  0  0
   62.8810   33.8440   48.1500 C   0  0  0  0  0  0  0  0  0  0  0  0
   63.9428   34.0776   47.9826 H   0  0  0  0  0  0  0  0  0  0  0  0
   62.3800   33.7760   49.4510 C   0  0  0  0  0  0  0  0  0  0  0  0
   63.0492   33.9562   50.3052 H   0  0  0  0  0  0  0  0  0  0  0  0
   61.0320   33.4800   49.6740 C   0  0  0  0  0  0  0  0  0  0  0  0
   60.5710   33.3930   50.9960 O   0  0  0  0  0  0  0  0  0  0  0  0
   59.3850   32.7550   51.3950 C   0  0  0  0  0  0  0  0  0  0  0  0
   58.5310   33.4320   52.2760 C   0  0  0  0  0  0  0  0  0  0  0  0
   58.8152   34.4241   52.6567 H   0  0  0  0  0  0  0  0  0  0  0  0
   57.3210   32.8570   52.6750 C   0  0  0  0  0  0  0  0  0  0  0  0
   56.6552   33.3990   53.3627 H   0  0  0  0  0  0  0  0  0  0  0  0
   56.9570   31.5950   52.2010 C   0  0  0  0  0  0  0  0  0  0  0  0
   55.9970   31.1507   52.5026 H   0  0  0  0  0  0  0  0  0  0  0  0
   57.8110   30.8960   51.3440 C   0  0  0  0  0  0  0  0  0  0  0  0
   57.5158   29.9058   50.9667 H   0  0  0  0  0  0  0  0  0  0  0  0
   59.0410   31.4480   50.9620 C   0  0  0  0  0  0  0  0  0  0  0  0
   59.8990   30.6800   50.1030 N   0  0  0  0  0  0  0  0  0  0  0  0
   59.5120   29.8230   49.2020 C   0  0  0  0  0  0  0  0  0  0  0  0
   60.0880   28.5170   49.1970 N   0  0  0  0  0  0  0  0  0  0  0  0
   59.7950   27.8100   48.4850 H   0  0  0  0  0  0  0  0  0  0  0  0
   60.7900   28.2430   49.9190 H   0  0  0  0  0  0  0  0  0  0  0  0
   58.5410   30.1680   48.2070 N   0  0  0  0  0  0  0  0  0  0  0  0
   58.2040   29.4410   47.5360 H   0  0  0  0  0  0  0  0  0  0  0  0
   58.2030   31.1470   48.0770 H   0  0  0  0  0  0  0  0  0  0  0  0
   60.1740   33.2900   48.5760 C   0  0  0  0  0  0  0  0  0  0  0  0
   59.1025   33.1086   48.7461 H   0  0  0  0  0  0  0  0  0  0  0  0
   57.8660   32.6860   43.1630 C   0  0  0  0  0  0  0  0  0  0  0  0
   57.9524   33.5182   43.8771 H   0  0  0  0  0  0  0  0  0  0  0  0
   58.7653   32.6507   42.5305 H   0  0  0  0  0  0  0  0  0  0  0  0
   56.9786   32.8361   42.5305 H   0  0  0  0  0  0  0  0  0  0  0  0
  1  2  1  0
  2  3  1  0
  3  4  2  0
  3  5  2  0
  3  6  1  0
  6  7  1  0
  7  8  1  0
  7  9  1  0
  7 10  1  0
 10 11  2  0
 10 12  1  0
 12 13  1  0
 13 14  2  0
 13 15  1  0
 15 16  1  0
 15 17  2  0
 17 18  1  0
 17 19  1  0
 19 20  2  0
 20 21  1  0
 20 22  1  0
 22 23  1  0
 22 24  2  0
 24 25  1  0
 24 26  1  0
 26 27  1  0
 27 28  1  0
 28 29  2  0
 29 30  1  0
 29 31  1  0
 31 32  1  0
 31 33  2  0
 33 34  1  0
 33 35  1  0
 35 36  1  0
 35 37  2  0
 37 38  1  0
 38 39  2  3
 39 40  1  0
 40 41  1  0
 40 42  1  0
 39 43  1  0
 43 44  1  0
 43 45  1  0
 26 46  2  0
 46 47  1  0
 12 48  1  0
 48 49  1  0
 48 50  1  0
 48 51  1  0
 46 19  1  0
 37 28  1  0
M  CHG  2   2  -1   6  -1
M  END
>  <UniqueID>  (5) 
5

>  <SMILES>  (5) 
CN(C(=O)/C=C/c1cccc(Oc2ccccc2N=C(N)N)c1)C(=O)C[N-]S([NH-])(=O)=O

>  <Energy>  (5) 
65.44161725829821

>  <Genealogy>  (5) 
CN(C(=O)C=Cc1cccc(Oc2ccccc2N=C(N)N)c1)C(=O)C[N-]S([NH-])(=O)=O (protonated)
CN(C(=O)/C=C/c1cccc(Oc2ccccc2N=C(N)N)c1)C(=O)C[N-]S([NH-])(=O)=O (cis-trans isomerization)
CN(C(=O)/C=C/c1cccc(Oc2ccccc2N=C(N)N)c1)C(=O)C[N-]S([NH-])(=O)=O (3D coordinates assigned)
CN(C(=O)/C=C/c1cccc(Oc2ccccc2N=C(N)N)c1)C(=O)C[N-]S([NH-])(=O)=O (optimized conformer: 65.44161725829821 kcal/mol)

>  <smiles>  (5) 
CN(C(=O)C=Cc1cccc(Oc2ccccc2N=C(N)N)c1)C(=O)CNS(N)(=O)=O

>  <score_type>  (5) 
oracle

>  <origin>  (5) 
adg

>  <m_score__min__energy>  (5) 
-12.99

>  <m_primary>  (5) 
energy

$$$$
5:0
     RDKit          3D

 47 49  0  0  0  0  0  0  0  0999 V2000
   60.6270   29.0660   48.6620 C   0  0  0  0  0  0  0  0  0  0  0  0
   59.6410   30.1220   49.0670 C   0  0  0  0  0  0  0  0  0  0  0  0
   58.4640   29.7650   49.3480 O   0  0  0  0  0  0  0  0  0  0  0  0
   60.0050   31.5210   49.1280 N   0  0  0  0  0  0  0  0  0  0  0  0
   58.9190   32.4970   49.3390 C   0  0  0  0  0  0  0  0  0  0  0  0
   59.3200   33.9810   49.1970 C   0  0  0  0  0  0  0  0  0  0  0  0
   60.5960   34.2020   48.5090 N   0  0  0  0  0  0  0  0  0  0  0  0
   60.4960   34.1090   46.7580 S   0  0  0  0  0  0  0  0  0  0  0  0
   59.9510   35.4120   46.2470 O   0  0  0  0  0  0  0  0  0  0  0  0
   61.8720   33.9310   46.1750 O   0  0  0  0  0  0  0  0  0  0  0  0
   59.4530   32.8080   46.1700 C   0  0  0  0  0  0  0  0  0  0  0  0
   58.1710   33.1030   45.6860 C   0  0  0  0  0  0  0  0  0  0  0  0
   57.3300   32.0760   45.2490 C   0  0  0  0  0  0  0  0  0  0  0  0
   57.7670   30.7410   45.2670 C   0  0  0  0  0  0  0  0  0  0  0  0
   56.8600   29.6540   44.8260 C   0  0  0  0  0  0  0  0  0  0  0  0
   55.6140   29.8390   44.8650 O   0  0  0  0  0  0  0  0  0  0  0  0
   57.3490   28.3690   44.4110 N   0  0  0  0  0  0  0  0  0  0  0  0
   57.7760   27.4210   45.1960 C   0  0  0  0  0  0  0  0  0  0  0  0
   59.1000   27.0940   45.2440 N   0  0  0  0  0  0  0  0  0  0  0  0
   59.5700   26.1010   46.0450 C   0  0  0  0  0  0  0  0  0  0  0  0
   58.6880   25.3750   46.8460 C   0  0  0  0  0  0  0  0  0  0  0  0
   57.3260   25.6770   46.8100 C   0  0  0  0  0  0  0  0  0  0  0  0
   56.8590   26.7050   45.9800 C   0  0  0  0  0  0  0  0  0  0  0  0
   55.5000   27.0140   45.9340 O   0  0  0  0  0  0  0  0  0  0  0  0
   59.0580   30.4530   45.7400 C   0  0  0  0  0  0  0  0  0  0  0  0
   59.9000   31.4800   46.1710 C   0  0  0  0  0  0  0  0  0  0  0  0
   61.6680   33.3970   49.0980 C   0  0  0  0  0  0  0  0  0  0  0  0
   61.4180   31.8990   48.9510 C   0  0  0  0  0  0  0  0  0  0  0  0
   61.0590   28.6033   49.5616 H   0  0  0  0  0  0  0  0  0  0  0  0
   60.1160   28.2973   48.0637 H   0  0  0  0  0  0  0  0  0  0  0  0
   61.4289   29.5232   48.0637 H   0  0  0  0  0  0  0  0  0  0  0  0
   58.1283   32.2880   48.6033 H   0  0  0  0  0  0  0  0  0  0  0  0
   58.5987   32.3701   50.3837 H   0  0  0  0  0  0  0  0  0  0  0  0
   58.5306   34.4978   48.6316 H   0  0  0  0  0  0  0  0  0  0  0  0
   59.4429   34.3714   50.2180 H   0  0  0  0  0  0  0  0  0  0  0  0
   57.8256   34.1468   45.6500 H   0  0  0  0  0  0  0  0  0  0  0  0
   56.3186   32.3147   44.8883 H   0  0  0  0  0  0  0  0  0  0  0  0
   60.6454   25.8701   46.0615 H   0  0  0  0  0  0  0  0  0  0  0  0
   59.0623   24.5729   47.4991 H   0  0  0  0  0  0  0  0  0  0  0  0
   56.6195   25.1085   47.4327 H   0  0  0  0  0  0  0  0  0  0  0  0
   55.1440   27.7510   45.3350 H   0  0  0  0  0  0  0  0  0  0  0  0
   59.4081   29.4107   45.7711 H   0  0  0  0  0  0  0  0  0  0  0  0
   60.9189   31.2455   46.5129 H   0  0  0  0  0  0  0  0  0  0  0  0
   62.6145   33.6481   48.5969 H   0  0  0  0  0  0  0  0  0  0  0  0
   61.7080   33.6266   50.1730 H   0  0  0  0  0  0  0  0  0  0  0  0
   61.7384   31.5891   47.9453 H   0  0  0  0  0  0  0  0  0  0  0  0
   61.9905   31.3951   49.7437 H   0  0  0  0  0  0  0  0  0  0  0  0
  1  2  1  0
  2  3  2  0
  2  4  1  0
  4  5  1  0
  5  6  1  0
  6  7  1  0
  7  8  1  0
  8  9  2  0
  8 10  2  0
  8 11  1  0
 11 12  2  0
 12 13  1  0
 13 14  2  0
 14 15  1  0
 15 16  2  0
 15 17  1  0
 17 18  2  3
 18 19  1  0
 19 20  1  0
 20 21  2  0
 21 22  1  0
 22 23  2  0
 23 24  1  0
 14 25  1  0
 25 26  2  0
  7 27  1  0
 27 28  1  0
 28  4  1  0
 26 11  1  0
 23 18  1  0
  1 29  1  0
  1 30  1  0
  1 31  1  0
  5 32  1  0
  5 33  1  0
  6 34  1  0
  6 35  1  0
 12 36  1  0
 13 37  1  0
 20 38  1  0
 21 39  1  0
 22 40  1  0
 24 41  1  0
 25 42  1  0
 26 43  1  0
 27 44  1  0
 27 45  1  0
 28 46  1  0
 28 47  1  0
M  CHG  1  19  -1
M  END
>  <UniqueID>  (6) 
6

>  <SMILES>  (6) 
CC(=O)N1CCN(S(=O)(=O)c2ccc(C(=O)N=c3[n-]cccc3O)cc2)CC1

>  <Energy>  (6) 
61.88878216421066

>  <Genealogy>  (6) 
CC(=O)N1CCN(S(=O)(=O)c2ccc(C(=O)N=c3[n-]cccc3O)cc2)CC1 (protonated)
CC(=O)N1CCN(S(=O)(=O)c2ccc(C(=O)N=c3[n-]cccc3O)cc2)CC1 (3D coordinates assigned)
CC(=O)N1CCN(S(=O)(=O)c2ccc(C(=O)N=c3[n-]cccc3O)cc2)CC1 (nonaromatic ring conformer: 61.88878216421066 kcal/mol)

>  <smiles>  (6) 
CC(=O)N1CCN(S(=O)(=O)c2ccc(C(=O)N=c3[nH]cccc3O)cc2)CC1

>  <score_type>  (6) 
oracle

>  <origin>  (6) 
adg

>  <m_score__min__energy>  (6) 
-11.109999999999999

>  <m_primary>  (6) 
energy

$$$$
6:0
     RDKit          3D

 56 59  0  0  0  0  0  0  0  0999 V2000
   56.8937   34.6135   46.7663 H   0  0  0  0  0  0  0  0  0  0  0  0
   57.7750   34.0390   46.4450 C   0  0  0  0  0  0  0  0  0  0  0  0
   58.1440   34.1190   45.0170 C   0  0  0  0  0  0  0  0  0  0  0  0
   58.8630   35.0590   44.5830 O   0  0  0  0  0  0  0  0  0  0  0  0
   57.6540   33.1080   44.1280 N   0  0  0  0  0  0  0  0  0  0  0  0
   57.6020   31.6940   44.3780 C   0  0  0  0  0  0  0  0  0  0  0  0
   58.8030   31.0020   44.5600 C   0  0  0  0  0  0  0  0  0  0  0  0
   59.7591   31.5417   44.4925 H   0  0  0  0  0  0  0  0  0  0  0  0
   58.7990   29.6300   44.8270 C   0  0  0  0  0  0  0  0  0  0  0  0
   59.7517   29.0953   44.9557 H   0  0  0  0  0  0  0  0  0  0  0  0
   57.5860   28.9300   44.9320 C   0  0  0  0  0  0  0  0  0  0  0  0
   57.5990   27.5210   45.2230 N   0  0  0  0  0  0  0  0  0  0  0  0
   57.7470   26.5440   44.1350 C   0  0  0  0  0  0  0  0  0  0  0  0
   57.1932   26.8996   43.2536 H   0  0  0  0  0  0  0  0  0  0  0  0
   58.8164   26.4388   43.8996 H   0  0  0  0  0  0  0  0  0  0  0  0
   57.2010   25.1770   44.5520 C   0  0  0  0  0  0  0  0  0  0  0  0
   56.9598   24.5867   43.6557 H   0  0  0  0  0  0  0  0  0  0  0  0
   57.9557   24.6392   45.1446 H   0  0  0  0  0  0  0  0  0  0  0  0
   55.9820   25.3750   45.3570 N   0  0  0  0  0  0  0  0  0  0  0  0
   55.1330   24.1670   45.4580 C   0  0  0  0  0  0  0  0  0  0  0  0
   54.6530   24.1633   46.4478 H   0  0  0  0  0  0  0  0  0  0  0  0
   54.4055   24.2196   44.6346 H   0  0  0  0  0  0  0  0  0  0  0  0
   55.8910   22.8650   45.2910 C   0  0  0  0  0  0  0  0  0  0  0  0
   56.3510   22.1600   46.4160 C   0  0  0  0  0  0  0  0  0  0  0  0
   56.1605   22.5559   47.4245 H   0  0  0  0  0  0  0  0  0  0  0  0
   57.0490   20.9590   46.2620 C   0  0  0  0  0  0  0  0  0  0  0  0
   57.4113   20.4163   47.1476 H   0  0  0  0  0  0  0  0  0  0  0  0
   57.2870   20.4470   44.9830 C   0  0  0  0  0  0  0  0  0  0  0  0
   57.8438   19.5060   44.8624 H   0  0  0  0  0  0  0  0  0  0  0  0
   56.8180   21.1300   43.8580 C   0  0  0  0  0  0  0  0  0  0  0  0
   57.0390   20.6270   42.6190 F   0  0  0  0  0  0  0  0  0  0  0  0
   56.1180   22.3310   44.0100 C   0  0  0  0  0  0  0  0  0  0  0  0
   55.7427   22.8612   43.1223 H   0  0  0  0  0  0  0  0  0  0  0  0
   56.2620   26.0070   46.6670 C   0  0  0  0  0  0  0  0  0  0  0  0
   55.3486   26.5101   47.0172 H   0  0  0  0  0  0  0  0  0  0  0  0
   56.5795   25.2121   47.3578 H   0  0  0  0  0  0  0  0  0  0  0  0
   57.4010   27.0450   46.5970 C   0  0  0  0  0  0  0  0  0  0  0  0
   57.1474   27.9004   47.2404 H   0  0  0  0  0  0  0  0  0  0  0  0
   58.3309   26.5665   46.9382 H   0  0  0  0  0  0  0  0  0  0  0  0
   56.3750   29.6280   44.7710 C   0  0  0  0  0  0  0  0  0  0  0  0
   55.1570   28.9630   44.8560 O   0  0  0  0  0  0  0  0  0  0  0  0
   56.3840   31.0020   44.5060 C   0  0  0  0  0  0  0  0  0  0  0  0
   55.4331   31.5441   44.3971 H   0  0  0  0  0  0  0  0  0  0  0  0
   58.4170   33.3290   47.3870 C   0  0  0  0  0  0  0  0  0  0  0  0
   57.8265   32.5959   47.9561 H   0  0  0  0  0  0  0  0  0  0  0  0
   59.8500   33.4510   47.7220 C   0  0  0  0  0  0  0  0  0  0  0  0
   60.2680   34.0090   48.9440 C   0  0  0  0  0  0  0  0  0  0  0  0
   59.5199   34.3318   49.6830 H   0  0  0  0  0  0  0  0  0  0  0  0
   61.6300   34.1550   49.2230 C   0  0  0  0  0  0  0  0  0  0  0  0
   61.9517   34.5744   50.1877 H   0  0  0  0  0  0  0  0  0  0  0  0
   62.5840   33.7680   48.2760 C   0  0  0  0  0  0  0  0  0  0  0  0
   63.6557   33.8745   48.5000 H   0  0  0  0  0  0  0  0  0  0  0  0
   62.1760   33.2460   47.0450 C   0  0  0  0  0  0  0  0  0  0  0  0
   62.9267   32.9515   46.2969 H   0  0  0  0  0  0  0  0  0  0  0  0
   60.8140   33.0980   46.7640 C   0  0  0  0  0  0  0  0  0  0  0  0
   60.4964   32.7031   45.7877 H   0  0  0  0  0  0  0  0  0  0  0  0
  1  2  1  0
  2  3  1  0
  3  4  2  0
  3  5  1  0
  5  6  1  0
  6  7  2  0
  7  8  1  0
  7  9  1  0
  9 10  1  0
  9 11  2  0
 11 12  1  0
 12 13  1  0
 13 14  1  0
 13 15  1  0
 13 16  1  0
 16 17  1  0
 16 18  1  0
 16 19  1  0
 19 20  1  0
 20 21  1  0
 20 22  1  0
 20 23  1  0
 23 24  2  0
 24 25  1  0
 24 26  1  0
 26 27  1  0
 26 28  2  0
 28 29  1  0
 28 30  1  0
 30 31  1  0
 30 32  2  0
 32 33  1  0
 19 34  1  0
 34 35  1  0
 34 36  1  0
 34 37  1  0
 37 38  1  0
 37 39  1  0
 11 40  1  0
 40 41  1  0
 40 42  2  0
 42 43  1  0
  2 44  2  0
 44 45  1  0
 44 46  1  0
 46 47  2  0
 47 48  1  0
 47 49  1  0
 49 50  1  0
 49 51  2  0
 51 52  1  0
 51 53  1  0
 53 54  1  0
 53 55  2  0
 55 56  1  0
 42  6  1  0
 55 46  1  0
 37 12  1  0
 32 23  1  0
M  CHG  2   5  -1  41  -1
M  END
>  <UniqueID>  (7) 
7

>  <SMILES>  (7) 
O=C(/C=C\c1ccccc1)[N-]c1ccc(N2CCN(Cc3cccc(F)c3)CC2)c([O-])c1

>  <Energy>  (7) 
84.74598387269539

>  <Genealogy>  (7) 
O=C(C=Cc1ccccc1)[N-]c1ccc(N2CCN(Cc3cccc(F)c3)CC2)c([O-])c1 (protonated)
O=C(/C=C\c1ccccc1)[N-]c1ccc(N2CCN(Cc3cccc(F)c3)CC2)c([O-])c1 (cis-trans isomerization)
O=C(/C=C\c1ccccc1)[N-]c1ccc(N2CCN(Cc3cccc(F)c3)CC2)c([O-])c1 (3D coordinates assigned)
O=C(/C=C\c1ccccc1)[N-]c1ccc(N2CCN(Cc3cccc(F)c3)CC2)c([O-])c1 (nonaromatic ring conformer: 84.74598387269539 kcal/mol)

>  <smiles>  (7) 
O=C(C=Cc1ccccc1)Nc1ccc(N2CCN(Cc3cccc(F)c3)CC2)c(O)c1

>  <score_type>  (7) 
oracle

>  <origin>  (7) 
adg

>  <m_score__min__energy>  (7) 
-14.58

>  <m_primary>  (7) 
energy

$$$$
7:0
     RDKit          3D

 76 80  0  0  0  0  0  0  0  0999 V2000
   63.1430   33.8190   46.3960 C   0  0  0  0  0  0  0  0  0  0  0  0
   63.8390   33.1910   47.6000 C   0  0  0  0  0  0  0  0  0  0  0  0
   63.1820   31.9870   47.9970 O   0  0  0  0  0  0  0  0  0  0  0  0
   62.7990   31.6470   49.3090 C   0  0  0  0  0  0  0  0  0  0  0  0
   63.4090   32.2280   50.4400 C   0  0  0  0  0  0  0  0  0  0  0  0
   63.0260   31.8480   51.7280 C   0  0  0  0  0  0  0  0  0  0  0  0
   62.0300   30.8900   51.9080 C   0  0  0  0  0  0  0  0  0  0  0  0
   61.4080   30.3120   50.8000 C   0  0  0  0  0  0  0  0  0  0  0  0
   61.7740   30.6890   49.4950 C   0  0  0  0  0  0  0  0  0  0  0  0
   61.0990   30.0570   48.3350 C   0  0  0  0  0  0  0  0  0  0  0  0
   61.0210   30.7210   47.0990 C   0  0  0  0  0  0  0  0  0  0  0  0
   60.4390   30.0930   45.9940 C   0  0  0  0  0  0  0  0  0  0  0  0
   59.9210   28.7940   46.1070 C   0  0  0  0  0  0  0  0  0  0  0  0
   59.3450   28.0930   44.9010 C   0  0  0  0  0  0  0  0  0  0  0  0
   57.8740   28.0480   44.9530 N   0  0  0  0  0  0  0  0  0  0  0  0
   57.0700   28.8910   44.0520 C   0  0  0  0  0  0  0  0  0  0  0  0
   57.3950   30.3450   44.2670 C   0  0  0  0  0  0  0  0  0  0  0  0
   57.4310   30.8790   45.5650 C   0  0  0  0  0  0  0  0  0  0  0  0
   57.7910   32.2140   45.7690 C   0  0  0  0  0  0  0  0  0  0  0  0
   58.1360   33.0300   44.6830 C   0  0  0  0  0  0  0  0  0  0  0  0
   58.5870   34.4560   44.9010 C   0  0  0  0  0  0  0  0  0  0  0  0
   58.7990   34.7590   46.3290 N   0  0  0  0  0  0  0  0  0  0  0  0
   59.9530   34.0620   46.9170 C   0  0  0  0  0  0  0  0  0  0  0  0
   59.7230   33.6530   48.3510 C   0  0  0  0  0  0  0  0  0  0  0  0
   58.7740   32.6730   48.6740 C   0  0  0  0  0  0  0  0  0  0  0  0
   58.5920   32.3050   50.0100 C   0  0  0  0  0  0  0  0  0  0  0  0
   59.3420   32.8800   50.9860 N   0  0  0  0  0  0  0  0  0  0  0  0
   60.2770   33.8240   50.6990 C   0  0  0  0  0  0  0  0  0  0  0  0
   60.4880   34.2210   49.3780 C   0  0  0  0  0  0  0  0  0  0  0  0
   58.0720   32.5040   43.3830 C   0  0  0  0  0  0  0  0  0  0  0  0
   57.6990   31.1740   43.1770 C   0  0  0  0  0  0  0  0  0  0  0  0
   57.2170   27.1370   45.8570 C   0  0  0  0  0  0  0  0  0  0  0  0
   57.0390   27.4750   47.0560 O   0  0  0  0  0  0  0  0  0  0  0  0
   56.7490   25.8070   45.4050 C   0  0  0  0  0  0  0  0  0  0  0  0
   57.6730   24.8760   44.8990 C   0  0  0  0  0  0  0  0  0  0  0  0
   57.2490   23.6110   44.4820 C   0  0  0  0  0  0  0  0  0  0  0  0
   55.9000   23.2600   44.5760 C   0  0  0  0  0  0  0  0  0  0  0  0
   55.4800   22.0010   44.1640 O   0  0  0  0  0  0  0  0  0  0  0  0
   54.9720   24.1730   45.0830 C   0  0  0  0  0  0  0  0  0  0  0  0
   55.3890   25.4410   45.5010 C   0  0  0  0  0  0  0  0  0  0  0  0
   54.4430   26.3340   45.9940 O   0  0  0  0  0  0  0  0  0  0  0  0
   59.9630   28.1450   47.3500 C   0  0  0  0  0  0  0  0  0  0  0  0
   60.5460   28.7700   48.4540 C   0  0  0  0  0  0  0  0  0  0  0  0
   62.3682   34.5181   46.7438 H   0  0  0  0  0  0  0  0  0  0  0  0
   63.8812   34.3626   45.7881 H   0  0  0  0  0  0  0  0  0  0  0  0
   62.6779   33.0290   45.7881 H   0  0  0  0  0  0  0  0  0  0  0  0
   64.8815   32.9617   47.3343 H   0  0  0  0  0  0  0  0  0  0  0  0
   63.8039   33.9033   48.4375 H   0  0  0  0  0  0  0  0  0  0  0  0
   64.1936   32.9874   50.3064 H   0  0  0  0  0  0  0  0  0  0  0  0
   63.5115   32.3058   52.6024 H   0  0  0  0  0  0  0  0  0  0  0  0
   61.7338   30.5891   52.9238 H   0  0  0  0  0  0  0  0  0  0  0  0
   60.6243   29.5546   50.9487 H   0  0  0  0  0  0  0  0  0  0  0  0
   61.4204   31.7412   47.0004 H   0  0  0  0  0  0  0  0  0  0  0  0
   60.3868   30.6204   45.0301 H   0  0  0  0  0  0  0  0  0  0  0  0
   59.6540   28.6318   43.9932 H   0  0  0  0  0  0  0  0  0  0  0  0
   59.7213   27.0594   44.8908 H   0  0  0  0  0  0  0  0  0  0  0  0
   57.2908   28.6204   43.0089 H   0  0  0  0  0  0  0  0  0  0  0  0
   56.0036   28.7276   44.2665 H   0  0  0  0  0  0  0  0  0  0  0  0
   57.1746   30.2436   46.4256 H   0  0  0  0  0  0  0  0  0  0  0  0
   57.8036   32.6269   46.7885 H   0  0  0  0  0  0  0  0  0  0  0  0
   59.5316   34.6158   44.3605 H   0  0  0  0  0  0  0  0  0  0  0  0
   57.7956   35.1224   44.5273 H   0  0  0  0  0  0  0  0  0  0  0  0
   58.8640   35.7860   46.5060 H   0  0  0  0  0  0  0  0  0  0  0  0
   60.1578   33.1591   46.3229 H   0  0  0  0  0  0  0  0  0  0  0  0
   60.8023   34.7610   46.9050 H   0  0  0  0  0  0  0  0  0  0  0  0
   58.1771   32.1973   47.8819 H   0  0  0  0  0  0  0  0  0  0  0  0
   57.8389   31.5472   50.2721 H   0  0  0  0  0  0  0  0  0  0  0  0
   60.8682   34.2756   51.5093 H   0  0  0  0  0  0  0  0  0  0  0  0
   61.2520   34.9770   49.1440 H   0  0  0  0  0  0  0  0  0  0  0  0
   58.3170   33.1430   42.5218 H   0  0  0  0  0  0  0  0  0  0  0  0
   57.6433   30.7741   42.1538 H   0  0  0  0  0  0  0  0  0  0  0  0
   58.7374   25.1450   44.8308 H   0  0  0  0  0  0  0  0  0  0  0  0
   57.9776   22.8917   44.0798 H   0  0  0  0  0  0  0  0  0  0  0  0
   53.9104   23.8939   45.1537 H   0  0  0  0  0  0  0  0  0  0  0  0
   59.5340   27.1376   47.4555 H   0  0  0  0  0  0  0  0  0  0  0  0
   60.5728   28.2517   49.4239 H   0  0  0  0  0  0  0  0  0  0  0  0
  1  2  1  0
  2  3  1  0
  3  4  1  0
  4  5  2  0
  5  6  1  0
  6  7  2  0
  7  8  1  0
  8  9  2  0
  9 10  1  0
 10 11  2  0
 11 12  1  0
 12 13  2  0
 13 14  1  0
 14 15  1  0
 15 16  1  0
 16 17  1  0
 17 18  2  0
 18 19  1  0
 19 20  2  0
 20 21  1  0
 21 22  1  0
 22 23  1  0
 23 24  1  0
 24 25  2  0
 25 26  1  0
 26 27  2  0
 27 28  1  0
 28 29  2  0
 20 30  1  0
 30 31  2  0
 15 32  1  0
 32 33  2  0
 32 34  1  0
 34 35  2  0
 35 36  1  0
 36 37  2  0
 37 38  1  0
 37 39  1  0
 39 40  2  0
 40 41  1  0
 13 42  1  0
 42 43  2  0
  9  4  1  0
 43 10  1  0
 31 17  1  0
 40 34  1  0
 29 24  1  0
  1 44  1  0
  1 45  1  0
  1 46  1  0
  2 47  1  0
  2 48  1  0
  5 49  1  0
  6 50  1  0
  7 51  1  0
  8 52  1  0
 11 53  1  0
 12 54  1  0
 14 55  1  0
 14 56  1  0
 16 57  1  0
 16 58  1  0
 18 59  1  0
 19 60  1  0
 21 61  1  0
 21 62  1  0
 22 63  1  0
 23 64  1  0
 23 65  1  0
 25 66  1  0
 26 67  1  0
 28 68  1  0
 29 69  1  0
 30 70  1  0
 31 71  1  0
 35 72  1  0
 36 73  1  0
 39 74  1  0
 42 75  1  0
 43 76  1  0
M  CHG  2  38  -1  41  -1
M  END
>  <UniqueID>  (8) 
8

>  <SMILES>  (8) 
CCOc1ccccc1-c1ccc(CN(Cc2ccc(CNCc3ccncc3)cc2)C(=O)c2ccc([O-])cc2[O-])cc1

>  <Energy>  (8) 
85.58997127365878

>  <Genealogy>  (8) 
CCOc1ccccc1-c1ccc(CN(Cc2ccc(CNCc3ccncc3)cc2)C(=O)c2ccc([O-])cc2[O-])cc1 (protonated)
CCOc1ccccc1-c1ccc(CN(Cc2ccc(CNCc3ccncc3)cc2)C(=O)c2ccc([O-])cc2[O-])cc1 (3D coordinates assigned)
CCOc1ccccc1-c1ccc(CN(Cc2ccc(CNCc3ccncc3)cc2)C(=O)c2ccc([O-])cc2[O-])cc1 (optimized conformer: 85.58997127365878 kcal/mol)

>  <smiles>  (8) 
CCOc1ccccc1-c1ccc(CN(Cc2ccc(CNCc3ccncc3)cc2)C(=O)c2ccc(O)cc2O)cc1

>  <score_type>  (8) 
oracle

>  <origin>  (8) 
adg

>  <m_score__min__energy>  (8) 
-16.030000000000001

>  <m_primary>  (8) 
energy

$$$$
8:0
     RDKit          3D

 48 50  0  0  0  0  0  0  0  0999 V2000
   56.9039   24.4495   44.3850 H   0  0  0  0  0  0  0  0  0  0  0  0
   56.9910   25.3470   45.0150 C   0  0  0  0  0  0  0  0  0  0  0  0
   55.9540   25.5740   46.0460 C   0  0  0  0  0  0  0  0  0  0  0  0
   55.8740   24.8090   47.0470 O   0  0  0  0  0  0  0  0  0  0  0  0
   55.1430   26.7070   45.9890 O   0  0  0  0  0  0  0  0  0  0  0  0
   58.0340   26.1700   44.8000 C   0  0  0  0  0  0  0  0  0  0  0  0
   59.0383   25.7316   44.7042 H   0  0  0  0  0  0  0  0  0  0  0  0
   57.8900   27.6360   44.6870 C   0  0  0  0  0  0  0  0  0  0  0  0
   57.5890   28.2020   43.4350 C   0  0  0  0  0  0  0  0  0  0  0  0
   57.7092   27.6068   42.5178 H   0  0  0  0  0  0  0  0  0  0  0  0
   57.1370   29.5220   43.3590 C   0  0  0  0  0  0  0  0  0  0  0  0
   56.8391   29.9428   42.3873 H   0  0  0  0  0  0  0  0  0  0  0  0
   57.0610   30.3120   44.5120 C   0  0  0  0  0  0  0  0  0  0  0  0
   56.7239   31.3567   44.4417 H   0  0  0  0  0  0  0  0  0  0  0  0
   57.4130   29.7740   45.7510 C   0  0  0  0  0  0  0  0  0  0  0  0
   57.3514   30.3958   46.6563 H   0  0  0  0  0  0  0  0  0  0  0  0
   57.8450   28.4430   45.8450 C   0  0  0  0  0  0  0  0  0  0  0  0
   58.2340   27.9420   47.0930 O   0  0  0  0  0  0  0  0  0  0  0  0
   59.5620   28.0950   47.5920 C   0  0  0  0  0  0  0  0  0  0  0  0
   59.6473   27.5867   48.5638 H   0  0  0  0  0  0  0  0  0  0  0  0
   60.2707   27.6518   46.8770 H   0  0  0  0  0  0  0  0  0  0  0  0
   59.8770   29.5430   47.7620 C   0  0  0  0  0  0  0  0  0  0  0  0
   59.2730   30.2710   48.8000 C   0  0  0  0  0  0  0  0  0  0  0  0
   58.4934   29.7996   49.4165 H   0  0  0  0  0  0  0  0  0  0  0  0
   59.6570   31.5930   49.0550 C   0  0  0  0  0  0  0  0  0  0  0  0
   59.1898   32.1481   49.8818 H   0  0  0  0  0  0  0  0  0  0  0  0
   60.6370   32.2160   48.2600 C   0  0  0  0  0  0  0  0  0  0  0  0
   61.0580   33.6250   48.5540 C   0  0  0  0  0  0  0  0  0  0  0  0
   61.3973   33.6886   49.5984 H   0  0  0  0  0  0  0  0  0  0  0  0
   61.8725   33.8980   47.8669 H   0  0  0  0  0  0  0  0  0  0  0  0
   59.8970   34.5990   48.3450 C   0  0  0  0  0  0  0  0  0  0  0  0
   59.1824   34.4952   49.1748 H   0  0  0  0  0  0  0  0  0  0  0  0
   60.2918   35.6252   48.3141 H   0  0  0  0  0  0  0  0  0  0  0  0
   59.1970   34.3050   47.0480 C   0  0  0  0  0  0  0  0  0  0  0  0
   57.9300   33.7000   47.0480 C   0  0  0  0  0  0  0  0  0  0  0  0
   57.4351   33.4627   48.0013 H   0  0  0  0  0  0  0  0  0  0  0  0
   57.2950   33.3980   45.8370 C   0  0  0  0  0  0  0  0  0  0  0  0
   56.2952   32.9394   45.8403 H   0  0  0  0  0  0  0  0  0  0  0  0
   57.9310   33.6790   44.6230 C   0  0  0  0  0  0  0  0  0  0  0  0
   57.4295   33.4443   43.6725 H   0  0  0  0  0  0  0  0  0  0  0  0
   59.2060   34.2590   44.6170 C   0  0  0  0  0  0  0  0  0  0  0  0
   59.7071   34.4762   43.6622 H   0  0  0  0  0  0  0  0  0  0  0  0
   59.8420   34.5620   45.8260 C   0  0  0  0  0  0  0  0  0  0  0  0
   60.8499   35.0027   45.8200 H   0  0  0  0  0  0  0  0  0  0  0  0
   61.1860   31.5090   47.1710 C   0  0  0  0  0  0  0  0  0  0  0  0
   61.9195   31.9992   46.5140 H   0  0  0  0  0  0  0  0  0  0  0  0
   60.8010   30.1820   46.9210 C   0  0  0  0  0  0  0  0  0  0  0  0
   61.2254   29.6411   46.0624 H   0  0  0  0  0  0  0  0  0  0  0  0
  1  2  1  0
  2  3  1  0
  3  4  2  0
  3  5  1  0
  2  6  2  0
  6  7  1  0
  6  8  1  0
  8  9  2  0
  9 10  1  0
  9 11  1  0
 11 12  1  0
 11 13  2  0
 13 14  1  0
 13 15  1  0
 15 16  1  0
 15 17  2  0
 17 18  1  0
 18 19  1  0
 19 20  1  0
 19 21  1  0
 19 22  1  0
 22 23  2  0
 23 24  1  0
 23 25  1  0
 25 26  1  0
 25 27  2  0
 27 28  1  0
 28 29  1  0
 28 30  1  0
 28 31  1  0
 31 32  1  0
 31 33  1  0
 31 34  1  0
 34 35  2  0
 35 36  1  0
 35 37  1  0
 37 38  1  0
 37 39  2  0
 39 40  1  0
 39 41  1  0
 41 42  1  0
 41 43  2  0
 43 44  1  0
 27 45  1  0
 45 46  1  0
 45 47  2  0
 47 48  1  0
 17  8  1  0
 47 22  1  0
 43 34  1  0
M  CHG  1   5  -1
M  END
>  <UniqueID>  (9) 
9

>  <SMILES>  (9) 
O=C([O-])/C=C\c1ccccc1OCc1ccc(CCc2ccccc2)cc1

>  <Energy>  (9) 
66.17377277758794

>  <Genealogy>  (9) 
O=C([O-])C=Cc1ccccc1OCc1ccc(CCc2ccccc2)cc1 (protonated)
O=C([O-])/C=C\c1ccccc1OCc1ccc(CCc2ccccc2)cc1 (cis-trans isomerization)
O=C([O-])/C=C\c1ccccc1OCc1ccc(CCc2ccccc2)cc1 (3D coordinates assigned)
O=C([O-])/C=C\c1ccccc1OCc1ccc(CCc2ccccc2)cc1 (optimized conformer: 66.17377277758794 kcal/mol)

>  <smiles>  (9) 
O=C(O)C=Cc1ccccc1OCc1ccc(CCc2ccccc2)cc1

>  <score_type>  (9) 
oracle

>  <origin>  (9) 
adg

>  <m_score__min__energy>  (9) 
-13.07

>  <m_primary>  (9) 
energy

$$$$
9:0
     RDKit          3D

 41 43  0  0  0  0  0  0  0  0999 V2000
   56.4860   30.3720   44.8570 O   0  0  0  0  0  0  0  0  0  0  0  0
   57.6710   30.5550   45.2480 C   0  0  0  0  0  0  0  0  0  0  0  0
   58.5220   29.4230   45.5000 N   0  0  0  0  0  0  0  0  0  0  0  0
   58.0320   28.1010   45.7810 C   0  0  0  0  0  0  0  0  0  0  0  0
   58.9100   27.0360   46.0420 C   0  0  0  0  0  0  0  0  0  0  0  0
   58.4110   25.7540   46.2910 C   0  0  0  0  0  0  0  0  0  0  0  0
   57.0310   25.5120   46.2740 C   0  0  0  0  0  0  0  0  0  0  0  0
   56.4290   23.8790   46.6030 S   0  0  0  0  0  0  0  0  0  0  0  0
   57.3580   23.1810   47.5560 O   0  0  0  0  0  0  0  0  0  0  0  0
   55.0820   23.9770   47.2660 O   0  0  0  0  0  0  0  0  0  0  0  0
   56.2810   22.9320   45.1430 N   0  0  0  0  0  0  0  0  0  0  0  0
   55.9200   23.7930   44.0040 C   0  0  0  0  0  0  0  0  0  0  0  0
   56.0090   23.0080   42.6790 C   0  0  0  0  0  0  0  0  0  0  0  0
   56.1470   21.6210   42.9150 O   0  0  0  0  0  0  0  0  0  0  0  0
   57.3740   21.3670   43.5800 C   0  0  0  0  0  0  0  0  0  0  0  0
   57.5310   22.2140   44.8610 C   0  0  0  0  0  0  0  0  0  0  0  0
   56.1500   26.5720   45.9900 C   0  0  0  0  0  0  0  0  0  0  0  0
   54.7740   26.3680   45.9580 O   0  0  0  0  0  0  0  0  0  0  0  0
   56.6530   27.8530   45.7390 C   0  0  0  0  0  0  0  0  0  0  0  0
   58.1900   31.9390   45.3730 C   0  0  0  0  0  0  0  0  0  0  0  0
   57.4340   33.0120   44.8710 C   0  0  0  0  0  0  0  0  0  0  0  0
   57.9090   34.3200   44.9740 C   0  0  0  0  0  0  0  0  0  0  0  0
   59.1370   34.5530   45.5880 C   0  0  0  0  0  0  0  0  0  0  0  0
   59.8550   33.5150   46.0890 N   0  0  0  0  0  0  0  0  0  0  0  0
   59.4190   32.2280   46.0050 C   0  0  0  0  0  0  0  0  0  0  0  0
   60.1160   31.3130   46.5190 O   0  0  0  0  0  0  0  0  0  0  0  0
   59.5500   29.5470   45.3590 H   0  0  0  0  0  0  0  0  0  0  0  0
   59.9959   27.2116   46.0505 H   0  0  0  0  0  0  0  0  0  0  0  0
   59.1072   24.9289   46.5019 H   0  0  0  0  0  0  0  0  0  0  0  0
   54.8913   24.1584   44.1391 H   0  0  0  0  0  0  0  0  0  0  0  0
   56.6224   24.6386   43.9626 H   0  0  0  0  0  0  0  0  0  0  0  0
   55.0930   23.1834   42.0958 H   0  0  0  0  0  0  0  0  0  0  0  0
   56.8935   23.3570   42.1260 H   0  0  0  0  0  0  0  0  0  0  0  0
   57.4151   20.3021   43.8525 H   0  0  0  0  0  0  0  0  0  0  0  0
   58.1910   21.6375   42.8949 H   0  0  0  0  0  0  0  0  0  0  0  0
   57.7711   21.5538   45.7074 H   0  0  0  0  0  0  0  0  0  0  0  0
   58.3419   22.9429   44.7156 H   0  0  0  0  0  0  0  0  0  0  0  0
   55.9591   28.6742   45.5062 H   0  0  0  0  0  0  0  0  0  0  0  0
   56.4617   32.8196   44.3939 H   0  0  0  0  0  0  0  0  0  0  0  0
   57.3196   35.1584   44.5743 H   0  0  0  0  0  0  0  0  0  0  0  0
   59.5258   35.5789   45.6672 H   0  0  0  0  0  0  0  0  0  0  0  0
  1  2  2  0
  2  3  1  0
  3  4  1  0
  4  5  2  0
  5  6  1  0
  6  7  2  0
  7  8  1  0
  8  9  2  0
  8 10  2  0
  8 11  1  0
 11 12  1  0
 12 13  1  0
 13 14  1  0
 14 15  1  0
 15 16  1  0
  7 17  1  0
 17 18  1  0
 17 19  2  0
  2 20  1  0
 20 21  2  0
 21 22  1  0
 22 23  2  0
 23 24  1  0
 24 25  1  0
 25 26  2  0
 19  4  1  0
 25 20  1  0
 16 11  1  0
  3 27  1  0
  5 28  1  0
  6 29  1  0
 12 30  1  0
 12 31  1  0
 13 32  1  0
 13 33  1  0
 15 34  1  0
 15 35  1  0
 16 36  1  0
 16 37  1  0
 19 38  1  0
 21 39  1  0
 22 40  1  0
 23 41  1  0
M  CHG  2  18  -1  24  -1
M  END
>  <UniqueID>  (10) 
10

>  <SMILES>  (10) 
O=C(Nc1ccc(S(=O)(=O)N2CCOCC2)c([O-])c1)c1ccc[n-]c1=O

>  <Energy>  (10) 
59.44381650890231

>  <Genealogy>  (10) 
O=C(Nc1ccc(S(=O)(=O)N2CCOCC2)c([O-])c1)c1ccc[n-]c1=O (protonated)
O=C(Nc1ccc(S(=O)(=O)N2CCOCC2)c([O-])c1)c1ccc[n-]c1=O (3D coordinates assigned)
O=C(Nc1ccc(S(=O)(=O)N2CCOCC2)c([O-])c1)c1ccc[n-]c1=O (nonaromatic ring conformer: 59.44381650890231 kcal/mol)

>  <smiles>  (10) 
O=C(Nc1ccc(S(=O)(=O)N2CCOCC2)c(O)c1)c1ccc[nH]c1=O

>  <score_type>  (10) 
oracle

>  <origin>  (10) 
adg

>  <m_score__min__energy>  (10) 
-13.83

>  <m_primary>  (10) 
energy

$$$$
10:0
     RDKit          3D

 60 64  0  0  0  0  0  0  0  0999 V2000
   57.7929   35.3435   47.3314 H   0  0  0  0  0  0  0  0  0  0  0  0
   58.5480   34.5760   47.1060 C   0  0  0  0  0  0  0  0  0  0  0  0
   58.2290   33.5140   46.2540 C   0  0  0  0  0  0  0  0  0  0  0  0
   57.2224   33.4449   45.8159 H   0  0  0  0  0  0  0  0  0  0  0  0
   59.1940   32.5330   45.9560 C   0  0  0  0  0  0  0  0  0  0  0  0
   58.9060   31.4080   45.1130 N   0  0  0  0  0  0  0  0  0  0  0  0
   57.9900   30.3370   45.3800 C   0  0  0  0  0  0  0  0  0  0  0  0
   56.8160   30.3790   44.9190 O   0  0  0  0  0  0  0  0  0  0  0  0
   58.4590   29.1450   46.1310 C   0  0  0  0  0  0  0  0  0  0  0  0
   59.0270   29.3390   47.4030 C   0  0  0  0  0  0  0  0  0  0  0  0
   59.1151   30.3589   47.8056 H   0  0  0  0  0  0  0  0  0  0  0  0
   59.4830   28.2550   48.1670 C   0  0  0  0  0  0  0  0  0  0  0  0
   60.0990   28.4460   49.4490 N   0  0  0  0  0  0  0  0  0  0  0  0
   60.1740   29.5680   50.1040 C   0  0  0  0  0  0  0  0  0  0  0  0
   60.9760   31.0400   49.4770 S   0  0  0  0  0  0  0  0  0  0  0  0
   59.5400   32.0270   50.0250 C   0  0  0  0  0  0  0  0  0  0  0  0
   59.7875   33.0968   49.9605 H   0  0  0  0  0  0  0  0  0  0  0  0
   58.6798   31.8030   49.3770 H   0  0  0  0  0  0  0  0  0  0  0  0
   59.1770   31.6690   51.4990 C   0  0  1  0  0  0  0  0  0  0  0  0
   60.2360   32.2210   52.5270 C   0  0  1  0  0  0  0  0  0  0  0  0
   61.1870   31.7023   52.3359 H   0  0  0  0  0  0  0  0  0  0  0  0
   60.3520   33.7560   52.3740 C   0  0  0  0  0  0  0  0  0  0  0  0
   60.9803   34.1628   53.1801 H   0  0  0  0  0  0  0  0  0  0  0  0
   60.8113   34.0045   51.4059 H   0  0  0  0  0  0  0  0  0  0  0  0
   58.9280   34.3690   52.4600 C   0  0  0  0  0  0  0  0  0  0  0  0
   58.9373   35.2015   53.1789 H   0  0  0  0  0  0  0  0  0  0  0  0
   58.6389   34.7267   51.4608 H   0  0  0  0  0  0  0  0  0  0  0  0
   57.9380   33.3530   52.9050 N   0  0  2  0  0  0  0  0  0  0  0  0
   57.0120   33.8190   53.0580 H   0  0  0  0  0  0  0  0  0  0  0  0
   58.3870   32.7390   54.1770 C   0  0  0  0  0  0  0  0  0  0  0  0
   58.5121   33.5269   54.9343 H   0  0  0  0  0  0  0  0  0  0  0  0
   57.6304   32.0115   54.5060 H   0  0  0  0  0  0  0  0  0  0  0  0
   59.7350   32.0030   53.9810 C   0  0  0  0  0  0  0  0  0  0  0  0
   60.4770   32.4018   54.6884 H   0  0  0  0  0  0  0  0  0  0  0  0
   59.5960   30.9273   54.1640 H   0  0  0  0  0  0  0  0  0  0  0  0
   57.7870   32.2930   51.8760 C   0  0  0  0  0  0  0  0  0  0  0  0
   57.3329   32.7298   50.9743 H   0  0  0  0  0  0  0  0  0  0  0  0
   57.1466   31.4977   52.2851 H   0  0  0  0  0  0  0  0  0  0  0  0
   59.1500   29.8600   51.4740 S   0  0  0  0  0  0  0  0  0  0  0  0
   59.7410   29.1990   52.6840 O   0  0  0  0  0  0  0  0  0  0  0  0
   57.7710   29.3280   51.2050 O   0  0  0  0  0  0  0  0  0  0  0  0
   59.4310   26.9700   47.6280 C   0  0  0  0  0  0  0  0  0  0  0  0
   59.8371   26.1213   48.1980 H   0  0  0  0  0  0  0  0  0  0  0  0
   58.8670   26.7540   46.3700 C   0  0  0  0  0  0  0  0  0  0  0  0
   58.8225   25.7334   45.9620 H   0  0  0  0  0  0  0  0  0  0  0  0
   58.3550   27.8260   45.6180 C   0  0  0  0  0  0  0  0  0  0  0  0
   57.7240   27.5300   44.2810 C   0  0  0  0  0  0  0  0  0  0  0  0
   56.7380   27.0675   44.4353 H   0  0  0  0  0  0  0  0  0  0  0  0
   57.6054   28.4664   43.7162 H   0  0  0  0  0  0  0  0  0  0  0  0
   58.3683   26.8402   43.7162 H   0  0  0  0  0  0  0  0  0  0  0  0
   60.4630   32.6180   46.5460 C   0  0  0  0  0  0  0  0  0  0  0  0
   61.2159   31.8440   46.3357 H   0  0  0  0  0  0  0  0  0  0  0  0
   60.7790   33.6810   47.4010 C   0  0  0  0  0  0  0  0  0  0  0  0
   62.4080   33.7810   48.1460 S   0  0  0  0  0  0  0  0  0  0  0  0
   63.0970   32.4530   47.1080 C   0  0  0  0  0  0  0  0  0  0  0  0
   63.5080   31.6608   47.7511 H   0  0  0  0  0  0  0  0  0  0  0  0
   62.3024   32.0343   46.4729 H   0  0  0  0  0  0  0  0  0  0  0  0
   63.8968   32.8616   46.4729 H   0  0  0  0  0  0  0  0  0  0  0  0
   59.8220   34.6660   47.6720 C   0  0  0  0  0  0  0  0  0  0  0  0
   60.0731   35.5106   48.3304 H   0  0  0  0  0  0  0  0  0  0  0  0
  1  2  1  0
  2  3  2  0
  3  4  1  0
  3  5  1  0
  5  6  1  0
  6  7  1  0
  7  8  2  0
  7  9  1  0
  9 10  2  0
 10 11  1  0
 10 12  1  0
 12 13  1  0
 13 14  2  0
 14 15  1  0
 15 16  1  0
 16 17  1  0
 16 18  1  0
 19 16  1  6
 19 20  1  0
 20 21  1  6
 20 22  1  0
 22 23  1  0
 22 24  1  0
 22 25  1  0
 25 26  1  0
 25 27  1  0
 25 28  1  0
 28 29  1  6
 28 30  1  0
 30 31  1  0
 30 32  1  0
 30 33  1  0
 33 34  1  0
 33 35  1  0
 28 36  1  0
 36 37  1  0
 36 38  1  0
 19 39  1  0
 39 40  2  0
 39 41  2  0
 12 42  2  0
 42 43  1  0
 42 44  1  0
 44 45  1  0
 44 46  2  0
 46 47  1  0
 47 48  1  0
 47 49  1  0
 47 50  1  0
  5 51  2  0
 51 52  1  0
 51 53  1  0
 53 54  1  0
 54 55  1  0
 55 56  1  0
 55 57  1  0
 55 58  1  0
 53 59  2  0
 59 60  1  0
 59  2  1  0
 46  9  1  0
 39 14  1  0
 36 19  1  0
 33 20  1  0
M  CHG  2   6  -1  28   1
M  END
>  <UniqueID>  (11) 
11

>  <SMILES>  (11) 
CSc1cccc([N-]C(=O)c2cc(/N=C3\SC[C@@]4(C[NH+]5CCC4CC5)S3(=O)=O)ccc2C)c1

>  <Energy>  (11) 
103.22593523734598

>  <Genealogy>  (11) 
CSc1cccc([N-]C(=O)c2cc(N=C3SCC4(C[NH+]5CCC4CC5)S3(=O)=O)ccc2C)c1 (protonated)
CSc1cccc([N-]C(=O)c2cc(N=C3SC[C@@]4(C[NH+]5CCC4CC5)S3(=O)=O)ccc2C)c1 (chirality)
CSc1cccc([N-]C(=O)c2cc(/N=C3\SC[C@@]4(C[NH+]5CCC4CC5)S3(=O)=O)ccc2C)c1 (cis-trans isomerization)
CSc1cccc([N-]C(=O)c2cc(/N=C3\SC[C@@]4(C[NH+]5CCC4CC5)S3(=O)=O)ccc2C)c1 (3D coordinates assigned)
CSc1cccc([N-]C(=O)c2cc(/N=C3\SC[C@@]4(C[NH+]5CCC4CC5)S3(=O)=O)ccc2C)c1 (nonaromatic ring conformer: 103.22593523734598 kcal/mol)

>  <smiles>  (11) 
CSc1cccc(NC(=O)c2cc(N=C3SCC4(CN5CCC4CC5)S3(=O)=O)ccc2C)c1

>  <score_type>  (11) 
oracle

>  <origin>  (11) 
adg

>  <m_score__min__energy>  (11) 
-10.48

>  <m_primary>  (11) 
energy

$$$$
11:0
     RDKit          3D

 53 55  0  0  0  0  0  0  0  0999 V2000
   56.3540   30.3200   43.8870 C   0  0  0  0  0  0  0  0  0  0  0  0
   56.8030   31.2140   44.8810 O   0  0  0  0  0  0  0  0  0  0  0  0
   57.3770   32.3600   44.2850 C   0  0  0  0  0  0  0  0  0  0  0  0
   58.1980   33.1210   45.2920 C   0  0  0  0  0  0  0  0  0  0  0  0
   58.8130   34.3250   44.9260 C   0  0  0  0  0  0  0  0  0  0  0  0
   59.5750   35.0200   45.8640 C   0  0  0  0  0  0  0  0  0  0  0  0
   59.7190   34.5120   47.1550 C   0  0  0  0  0  0  0  0  0  0  0  0
   59.1040   33.2970   47.4910 C   0  0  0  0  0  0  0  0  0  0  0  0
   59.1900   32.7630   48.8950 C   0  0  0  0  0  0  0  0  0  0  0  0
   58.6760   31.3980   48.9340 N   0  0  0  0  0  0  0  0  0  0  0  0
   59.0360   30.3930   47.9780 C   0  0  0  0  0  0  0  0  0  0  0  0
   58.1300   29.6920   47.4480 O   0  0  0  0  0  0  0  0  0  0  0  0
   60.4180   30.1930   47.6070 N   0  0  0  0  0  0  0  0  0  0  0  0
   60.7610   29.8380   46.2170 C   0  0  0  0  0  0  0  0  0  0  0  0
   59.9950   28.6180   45.7690 C   0  0  0  0  0  0  0  0  0  0  0  0
   60.0210   27.4340   46.5280 C   0  0  0  0  0  0  0  0  0  0  0  0
   59.2680   26.3240   46.1320 C   0  0  0  0  0  0  0  0  0  0  0  0
   58.4950   26.3810   44.9700 C   0  0  0  0  0  0  0  0  0  0  0  0
   58.4790   27.5440   44.1970 C   0  0  0  0  0  0  0  0  0  0  0  0
   59.2300   28.6550   44.5900 C   0  0  0  0  0  0  0  0  0  0  0  0
   61.4810   30.2160   48.6300 C   0  0  0  0  0  0  0  0  0  0  0  0
   62.3990   31.4060   48.4500 C   0  0  0  0  0  0  0  0  0  0  0  0
   62.2910   32.1850   47.2850 C   0  0  0  0  0  0  0  0  0  0  0  0
   63.0820   33.3210   47.1160 C   0  0  0  0  0  0  0  0  0  0  0  0
   63.9870   33.6980   48.1080 C   0  0  0  0  0  0  0  0  0  0  0  0
   64.1140   32.9350   49.2730 C   0  0  0  0  0  0  0  0  0  0  0  0
   65.2590   33.4600   50.5020 Cl  0  0  0  0  0  0  0  0  0  0  0  0
   63.3270   31.7810   49.4490 C   0  0  0  0  0  0  0  0  0  0  0  0
   63.5020   30.8300   50.9230 Cl  0  0  0  0  0  0  0  0  0  0  0  0
   58.3660   32.6320   46.5550 N   0  0  0  0  0  0  0  0  0  0  0  0
   55.9092   29.4344   44.3643 H   0  0  0  0  0  0  0  0  0  0  0  0
   55.5987   30.8173   43.2607 H   0  0  0  0  0  0  0  0  0  0  0  0
   57.2039   30.0111   43.2607 H   0  0  0  0  0  0  0  0  0  0  0  0
   58.0235   32.0493   43.4510 H   0  0  0  0  0  0  0  0  0  0  0  0
   56.5711   33.0117   43.9166 H   0  0  0  0  0  0  0  0  0  0  0  0
   58.6956   34.7193   43.9058 H   0  0  0  0  0  0  0  0  0  0  0  0
   60.0615   35.9668   45.5866 H   0  0  0  0  0  0  0  0  0  0  0  0
   60.3101   35.0598   47.9036 H   0  0  0  0  0  0  0  0  0  0  0  0
   60.2395   32.7681   49.2246 H   0  0  0  0  0  0  0  0  0  0  0  0
   58.5899   33.3976   49.5637 H   0  0  0  0  0  0  0  0  0  0  0  0
   60.5115   30.6823   45.5575 H   0  0  0  0  0  0  0  0  0  0  0  0
   61.8372   29.6160   46.1660 H   0  0  0  0  0  0  0  0  0  0  0  0
   60.6369   27.3809   47.4379 H   0  0  0  0  0  0  0  0  0  0  0  0
   59.2845   25.4050   46.7363 H   0  0  0  0  0  0  0  0  0  0  0  0
   57.8984   25.5092   44.6635 H   0  0  0  0  0  0  0  0  0  0  0  0
   57.8751   27.5855   43.2785 H   0  0  0  0  0  0  0  0  0  0  0  0
   59.2226   29.5652   43.9724 H   0  0  0  0  0  0  0  0  0  0  0  0
   61.0173   30.2698   49.6260 H   0  0  0  0  0  0  0  0  0  0  0  0
   62.0800   29.2993   48.5257 H   0  0  0  0  0  0  0  0  0  0  0  0
   61.5766   31.8962   46.5000 H   0  0  0  0  0  0  0  0  0  0  0  0
   62.9920   33.9210   46.1984 H   0  0  0  0  0  0  0  0  0  0  0  0
   64.6033   34.5991   47.9734 H   0  0  0  0  0  0  0  0  0  0  0  0
   57.9090   31.7290   46.8200 H   0  0  0  0  0  0  0  0  0  0  0  0
  1  2  1  0
  2  3  1  0
  3  4  1  0
  4  5  2  0
  5  6  1  0
  6  7  2  0
  7  8  1  0
  8  9  1  0
  9 10  1  0
 10 11  1  0
 11 12  2  0
 11 13  1  0
 13 14  1  0
 14 15  1  0
 15 16  2  0
 16 17  1  0
 17 18  2  0
 18 19  1  0
 19 20  2  0
 13 21  1  0
 21 22  1  0
 22 23  2  0
 23 24  1  0
 24 25  2  0
 25 26  1  0
 26 27  1  0
 26 28  2  0
 28 29  1  0
  8 30  2  0
 30  4  1  0
 20 15  1  0
 28 22  1  0
  1 31  1  0
  1 32  1  0
  1 33  1  0
  3 34  1  0
  3 35  1  0
  5 36  1  0
  6 37  1  0
  7 38  1  0
  9 39  1  0
  9 40  1  0
 14 41  1  0
 14 42  1  0
 16 43  1  0
 17 44  1  0
 18 45  1  0
 19 46  1  0
 20 47  1  0
 21 48  1  0
 21 49  1  0
 23 50  1  0
 24 51  1  0
 25 52  1  0
 30 53  1  0
M  CHG  2  10  -1  30   1
M  END
>  <UniqueID>  (12) 
12

>  <SMILES>  (12) 
COCc1cccc(C[N-]C(=O)N(Cc2ccccc2)Cc2cccc(Cl)c2Cl)[nH+]1

>  <Energy>  (12) 
50.701792918530565

>  <Genealogy>  (12) 
COCc1cccc(C[N-]C(=O)N(Cc2ccccc2)Cc2cccc(Cl)c2Cl)[nH+]1 (protonated)
COCc1cccc(C[N-]C(=O)N(Cc2ccccc2)Cc2cccc(Cl)c2Cl)[nH+]1 (3D coordinates assigned)
COCc1cccc(C[N-]C(=O)N(Cc2ccccc2)Cc2cccc(Cl)c2Cl)[nH+]1 (optimized conformer: 50.701792918530565 kcal/mol)

>  <smiles>  (12) 
COCc1cccc(CNC(=O)N(Cc2ccccc2)Cc2cccc(Cl)c2Cl)n1

>  <score_type>  (12) 
oracle

>  <origin>  (12) 
adg

>  <m_score__min__energy>  (12) 
-7.7400000000000002

>  <m_primary>  (12) 
energy

$$$$
12:0
     RDKit          3D

 74 78  0  0  0  0  0  0  0  0999 V2000
   59.2460   32.3580   53.3190 O   0  0  0  0  0  0  0  0  0  0  0  0
   60.0400   31.9900   52.4120 C   0  0  0  0  0  0  0  0  0  0  0  0
   61.1620   31.1710   52.7650 N   0  0  0  0  0  0  0  0  0  0  0  0
   62.5690   31.5790   52.7220 C   0  0  0  0  0  0  0  0  0  0  0  0
   63.3360   30.8470   51.6120 C   0  0  0  0  0  0  0  0  0  0  0  0
   63.3140   31.6210   50.3190 C   0  0  0  0  0  0  0  0  0  0  0  0
   62.5510   31.1670   49.2300 C   0  0  0  0  0  0  0  0  0  0  0  0
   62.5620   31.8640   48.0220 C   0  0  0  0  0  0  0  0  0  0  0  0
   63.3370   33.0200   47.8850 C   0  0  0  0  0  0  0  0  0  0  0  0
   63.3380   33.9010   46.3660 Cl  0  0  0  0  0  0  0  0  0  0  0  0
   64.1040   33.4770   48.9640 C   0  0  0  0  0  0  0  0  0  0  0  0
   64.0970   32.7780   50.1750 C   0  0  0  0  0  0  0  0  0  0  0  0
   59.7820   32.4130   51.0240 C   0  0  0  0  0  0  0  0  0  0  0  0
   59.9830   33.7440   50.6400 C   0  0  0  0  0  0  0  0  0  0  0  0
   59.7250   34.1430   49.3290 C   0  0  0  0  0  0  0  0  0  0  0  0
   59.2510   33.2220   48.3850 C   0  0  0  0  0  0  0  0  0  0  0  0
   58.9570   33.6650   47.0500 N   0  0  0  0  0  0  0  0  0  0  0  0
   57.5430   33.7720   46.6670 C   0  0  0  0  0  0  0  0  0  0  0  0
   57.3710   34.1920   45.2010 C   0  0  0  0  0  0  0  0  0  0  0  0
   58.2940   35.2010   44.8540 O   0  0  0  0  0  0  0  0  0  0  0  0
   59.5910   34.6480   44.8500 C   0  0  0  0  0  0  0  0  0  0  0  0
   60.0330   34.3020   46.2780 C   0  0  0  0  0  0  0  0  0  0  0  0
   59.0240   31.8830   48.7620 C   0  0  0  0  0  0  0  0  0  0  0  0
   58.6070   30.9190   47.7780 N   0  0  0  0  0  0  0  0  0  0  0  0
   59.1600   30.8330   46.4590 C   0  0  0  0  0  0  0  0  0  0  0  0
   60.3340   31.2410   46.2440 O   0  0  0  0  0  0  0  0  0  0  0  0
   58.3900   30.2040   45.3610 C   0  0  0  0  0  0  0  0  0  0  0  0
   57.4210   30.9430   44.6590 C   0  0  0  0  0  0  0  0  0  0  0  0
   56.7080   30.3560   43.6100 C   0  0  0  0  0  0  0  0  0  0  0  0
   56.9440   29.0250   43.2620 C   0  0  0  0  0  0  0  0  0  0  0  0
   57.8910   28.2670   43.9650 C   0  0  0  0  0  0  0  0  0  0  0  0
   58.1280   26.8200   43.6150 C   0  0  0  0  0  0  0  0  0  0  0  0
   57.6830   25.9350   44.7120 N   0  0  0  0  0  0  0  0  0  0  0  0
   56.8030   26.6790   45.6350 C   0  0  0  0  0  0  0  0  0  0  0  0
   56.2810   25.7420   46.7330 C   0  0  0  0  0  0  0  0  0  0  0  0
   55.5750   24.6550   46.1690 O   0  0  0  0  0  0  0  0  0  0  0  0
   56.4440   23.9010   45.3430 C   0  0  0  0  0  0  0  0  0  0  0  0
   56.9670   24.7570   44.1830 C   0  0  0  0  0  0  0  0  0  0  0  0
   58.6100   28.8600   45.0140 C   0  0  0  0  0  0  0  0  0  0  0  0
   59.2940   31.4900   50.0880 C   0  0  0  0  0  0  0  0  0  0  0  0
   62.6211   32.6621   52.5373 H   0  0  0  0  0  0  0  0  0  0  0  0
   63.0313   31.3222   53.6865 H   0  0  0  0  0  0  0  0  0  0  0  0
   64.3805   30.7117   51.9293 H   0  0  0  0  0  0  0  0  0  0  0  0
   62.8487   29.8759   51.4400 H   0  0  0  0  0  0  0  0  0  0  0  0
   61.9416   30.2568   49.3307 H   0  0  0  0  0  0  0  0  0  0  0  0
   61.9597   31.5036   47.1750 H   0  0  0  0  0  0  0  0  0  0  0  0
   64.7128   34.3871   48.8587 H   0  0  0  0  0  0  0  0  0  0  0  0
   64.7068   33.1355   51.0178 H   0  0  0  0  0  0  0  0  0  0  0  0
   60.3457   34.4777   51.3749 H   0  0  0  0  0  0  0  0  0  0  0  0
   59.8949   35.1889   49.0335 H   0  0  0  0  0  0  0  0  0  0  0  0
   57.0608   32.7944   46.8146 H   0  0  0  0  0  0  0  0  0  0  0  0
   57.0795   34.5454   47.2970 H   0  0  0  0  0  0  0  0  0  0  0  0
   57.5340   33.3172   44.5544 H   0  0  0  0  0  0  0  0  0  0  0  0
   56.3529   34.5859   45.0658 H   0  0  0  0  0  0  0  0  0  0  0  0
   59.5924   33.7332   44.2391 H   0  0  0  0  0  0  0  0  0  0  0  0
   60.2906   35.3858   44.4304 H   0  0  0  0  0  0  0  0  0  0  0  0
   60.8891   33.6131   46.2273 H   0  0  0  0  0  0  0  0  0  0  0  0
   60.3050   35.2394   46.7852 H   0  0  0  0  0  0  0  0  0  0  0  0
   57.8660   30.2300   48.0450 H   0  0  0  0  0  0  0  0  0  0  0  0
   57.2232   31.9887   44.9371 H   0  0  0  0  0  0  0  0  0  0  0  0
   55.9598   30.9437   43.0579 H   0  0  0  0  0  0  0  0  0  0  0  0
   56.3843   28.5687   42.4322 H   0  0  0  0  0  0  0  0  0  0  0  0
   57.5663   26.5731   42.7020 H   0  0  0  0  0  0  0  0  0  0  0  0
   59.2055   26.6680   43.4544 H   0  0  0  0  0  0  0  0  0  0  0  0
   57.3706   27.5004   46.0967 H   0  0  0  0  0  0  0  0  0  0  0  0
   55.9500   27.0852   45.0716 H   0  0  0  0  0  0  0  0  0  0  0  0
   57.1322   25.3572   47.3139 H   0  0  0  0  0  0  0  0  0  0  0  0
   55.5982   26.3070   47.3845 H   0  0  0  0  0  0  0  0  0  0  0  0
   57.2953   23.5467   45.9428 H   0  0  0  0  0  0  0  0  0  0  0  0
   55.8870   23.0473   44.9296 H   0  0  0  0  0  0  0  0  0  0  0  0
   57.6547   24.1576   43.5683 H   0  0  0  0  0  0  0  0  0  0  0  0
   56.1183   25.0938   43.5696 H   0  0  0  0  0  0  0  0  0  0  0  0
   59.3522   28.2679   45.5695 H   0  0  0  0  0  0  0  0  0  0  0  0
   59.1200   30.4473   50.3923 H   0  0  0  0  0  0  0  0  0  0  0  0
  1  2  2  0
  2  3  1  0
  3  4  1  0
  4  5  1  0
  5  6  1  0
  6  7  2  0
  7  8  1  0
  8  9  2  0
  9 10  1  0
  9 11  1  0
 11 12  2  0
  2 13  1  0
 13 14  2  0
 14 15  1  0
 15 16  2  0
 16 17  1  0
 17 18  1  0
 18 19  1  0
 19 20  1  0
 20 21  1  0
 21 22  1  0
 16 23  1  0
 23 24  1  0
 24 25  1  0
 25 26  2  0
 25 27  1  0
 27 28  2  0
 28 29  1  0
 29 30  2  0
 30 31  1  0
 31 32  1  0
 32 33  1  0
 33 34  1  0
 34 35  1  0
 35 36  1  0
 36 37  1  0
 37 38  1  0
 31 39  2  0
 23 40  2  0
 12  6  1  0
 40 13  1  0
 22 17  1  0
 39 27  1  0
 38 33  1  0
  4 41  1  0
  4 42  1  0
  5 43  1  0
  5 44  1  0
  7 45  1  0
  8 46  1  0
 11 47  1  0
 12 48  1  0
 14 49  1  0
 15 50  1  0
 18 51  1  0
 18 52  1  0
 19 53  1  0
 19 54  1  0
 21 55  1  0
 21 56  1  0
 22 57  1  0
 22 58  1  0
 24 59  1  0
 28 60  1  0
 29 61  1  0
 30 62  1  0
 32 63  1  0
 32 64  1  0
 34 65  1  0
 34 66  1  0
 35 67  1  0
 35 68  1  0
 37 69  1  0
 37 70  1  0
 38 71  1  0
 38 72  1  0
 39 73  1  0
 40 74  1  0
M  CHG  1   3  -1
M  END
>  <UniqueID>  (13) 
13

>  <SMILES>  (13) 
O=C([N-]CCc1ccc(Cl)cc1)c1ccc(N2CCOCC2)c(NC(=O)c2cccc(CN3CCOCC3)c2)c1

>  <Energy>  (13) 
93.6592691966033

>  <Genealogy>  (13) 
O=C([N-]CCc1ccc(Cl)cc1)c1ccc(N2CCOCC2)c(NC(=O)c2cccc(CN3CCOCC3)c2)c1 (protonated)
O=C([N-]CCc1ccc(Cl)cc1)c1ccc(N2CCOCC2)c(NC(=O)c2cccc(CN3CCOCC3)c2)c1 (3D coordinates assigned)
O=C([N-]CCc1ccc(Cl)cc1)c1ccc(N2CCOCC2)c(NC(=O)c2cccc(CN3CCOCC3)c2)c1 (nonaromatic ring conformer: 93.6592691966033 kcal/mol)

>  <smiles>  (13) 
O=C(NCCc1ccc(Cl)cc1)c1ccc(N2CCOCC2)c(NC(=O)c2cccc(CN3CCOCC3)c2)c1

>  <score_type>  (13) 
oracle

>  <origin>  (13) 
adg

>  <m_score__min__energy>  (13) 
-10.76

>  <m_primary>  (13) 
energy

$$$$
13:0
     RDKit          3D

 49 51  0  0  0  0  0  0  0  0999 V2000
   56.6190   24.4960   45.0130 C   0  0  0  0  0  0  0  0  0  0  0  0
   56.6490   25.8240   46.1980 S   0  0  0  0  0  0  0  0  0  0  0  0
   55.4440   26.7060   46.0270 O   0  0  0  0  0  0  0  0  0  0  0  0
   56.6280   25.2380   47.5810 O   0  0  0  0  0  0  0  0  0  0  0  0
   58.1000   26.7580   46.0120 N   0  0  0  0  0  0  0  0  0  0  0  0
   58.4960   27.8600   46.8390 C   0  0  0  0  0  0  0  0  0  0  0  0
   58.1480   29.1580   46.4400 C   0  0  0  0  0  0  0  0  0  0  0  0
   58.5090   30.2600   47.2200 C   0  0  0  0  0  0  0  0  0  0  0  0
   59.2210   30.0760   48.4080 C   0  0  0  0  0  0  0  0  0  0  0  0
   59.5800   28.7850   48.8160 C   0  0  0  0  0  0  0  0  0  0  0  0
   60.4590   28.5230   50.3160 S   0  0  0  0  0  0  0  0  0  0  0  0
   61.8970   28.8900   50.0800 O   0  0  0  0  0  0  0  0  0  0  0  0
   60.3650   27.0860   50.7440 O   0  0  0  0  0  0  0  0  0  0  0  0
   59.7640   29.5370   51.5410 N   0  0  0  0  0  0  0  0  0  0  0  0
   58.4980   29.3580   52.1940 C   0  0  0  0  0  0  0  0  0  0  0  0
   58.4320   28.4220   53.2340 C   0  0  0  0  0  0  0  0  0  0  0  0
   57.2250   28.1640   53.8850 C   0  0  0  0  0  0  0  0  0  0  0  0
   56.0650   28.8340   53.4970 C   0  0  0  0  0  0  0  0  0  0  0  0
   56.1100   29.7830   52.4670 C   0  0  0  0  0  0  0  0  0  0  0  0
   54.8690   30.4440   52.0250 C   0  0  0  0  0  0  0  0  0  0  0  0
   54.7690   31.6940   52.1270 O   0  0  0  0  0  0  0  0  0  0  0  0
   53.7910   29.7040   51.4370 N   0  0  0  0  0  0  0  0  0  0  0  0
   52.5550   30.2790   50.9050 C   0  0  0  0  0  0  0  0  0  0  0  0
   51.7840   31.0100   51.9800 C   0  0  0  0  0  0  0  0  0  0  0  0
   51.7870   30.5230   53.3010 C   0  0  0  0  0  0  0  0  0  0  0  0
   51.0620   31.1800   54.2980 C   0  0  0  0  0  0  0  0  0  0  0  0
   50.3420   32.3360   53.9930 C   0  0  0  0  0  0  0  0  0  0  0  0
   50.3400   32.8360   52.6880 C   0  0  0  0  0  0  0  0  0  0  0  0
   51.0590   32.1800   51.6820 C   0  0  0  0  0  0  0  0  0  0  0  0
   51.0470   32.6970   50.3900 O   0  0  0  0  0  0  0  0  0  0  0  0
   57.3350   30.0770   51.8380 C   0  0  0  0  0  0  0  0  0  0  0  0
   57.3810   31.0840   50.8800 O   0  0  0  0  0  0  0  0  0  0  0  0
   59.2160   27.6810   48.0350 C   0  0  0  0  0  0  0  0  0  0  0  0
   56.5972   23.5322   45.5428 H   0  0  0  0  0  0  0  0  0  0  0  0
   55.7227   24.5878   44.3820 H   0  0  0  0  0  0  0  0  0  0  0  0
   57.5185   24.5473   44.3820 H   0  0  0  0  0  0  0  0  0  0  0  0
   57.5868   29.3102   45.5063 H   0  0  0  0  0  0  0  0  0  0  0  0
   58.2319   31.2746   46.8979 H   0  0  0  0  0  0  0  0  0  0  0  0
   59.4995   30.9447   49.0227 H   0  0  0  0  0  0  0  0  0  0  0  0
   59.3414   27.8846   53.5408 H   0  0  0  0  0  0  0  0  0  0  0  0
   57.1884   27.4316   54.7049 H   0  0  0  0  0  0  0  0  0  0  0  0
   55.1117   28.6168   54.0011 H   0  0  0  0  0  0  0  0  0  0  0  0
   52.8056   30.9856   50.1001 H   0  0  0  0  0  0  0  0  0  0  0  0
   51.9273   29.4608   50.5221 H   0  0  0  0  0  0  0  0  0  0  0  0
   52.3637   29.6198   53.5495 H   0  0  0  0  0  0  0  0  0  0  0  0
   51.0586   30.7857   55.3249 H   0  0  0  0  0  0  0  0  0  0  0  0
   49.7754   32.8542   54.7807 H   0  0  0  0  0  0  0  0  0  0  0  0
   49.7719   33.7475   52.4507 H   0  0  0  0  0  0  0  0  0  0  0  0
   59.4947   26.6672   48.3585 H   0  0  0  0  0  0  0  0  0  0  0  0
  1  2  1  0
  2  3  2  0
  2  4  2  0
  2  5  1  0
  5  6  1  0
  6  7  2  0
  7  8  1  0
  8  9  2  0
  9 10  1  0
 10 11  1  0
 11 12  2  0
 11 13  2  0
 11 14  1  0
 14 15  1  0
 15 16  2  0
 16 17  1  0
 17 18  2  0
 18 19  1  0
 19 20  1  0
 20 21  2  0
 20 22  1  0
 22 23  1  0
 23 24  1  0
 24 25  2  0
 25 26  1  0
 26 27  2  0
 27 28  1  0
 28 29  2  0
 29 30  1  0
 19 31  2  0
 31 32  1  0
 10 33  2  0
 33  6  1  0
 31 15  1  0
 29 24  1  0
  1 34  1  0
  1 35  1  0
  1 36  1  0
  7 37  1  0
  8 38  1  0
  9 39  1  0
 16 40  1  0
 17 41  1  0
 18 42  1  0
 23 43  1  0
 23 44  1  0
 25 45  1  0
 26 46  1  0
 27 47  1  0
 28 48  1  0
 33 49  1  0
M  CHG  5   5  -1  14  -1  22  -1  30  -1  32  -1
M  END
>  <UniqueID>  (14) 
14

>  <SMILES>  (14) 
CS(=O)(=O)[N-]c1cccc(S(=O)(=O)[N-]c2cccc(C(=O)[N-]Cc3ccccc3[O-])c2[O-])c1

>  <Energy>  (14) 
59.24012007745343

>  <Genealogy>  (14) 
CS(=O)(=O)[N-]c1cccc(S(=O)(=O)[N-]c2cccc(C(=O)[N-]Cc3ccccc3[O-])c2[O-])c1 (protonated)
CS(=O)(=O)[N-]c1cccc(S(=O)(=O)[N-]c2cccc(C(=O)[N-]Cc3ccccc3[O-])c2[O-])c1 (3D coordinates assigned)
CS(=O)(=O)[N-]c1cccc(S(=O)(=O)[N-]c2cccc(C(=O)[N-]Cc3ccccc3[O-])c2[O-])c1 (optimized conformer: 59.24012007745343 kcal/mol)

>  <smiles>  (14) 
CS(=O)(=O)Nc1cccc(S(=O)(=O)Nc2cccc(C(=O)NCc3ccccc3O)c2O)c1

>  <score_type>  (14) 
oracle

>  <origin>  (14) 
adg

>  <m_score__min__energy>  (14) 
-18.719999999999999

>  <m_primary>  (14) 
energy

$$$$
14:0
     RDKit          3D

 47 49  0  0  0  0  0  0  0  0999 V2000
   61.5764   28.6281   45.2000 H   0  0  0  0  0  0  0  0  0  0  0  0
   60.5170   28.8510   45.3950 C   0  0  0  0  0  0  0  0  0  0  0  0
   59.2060   28.1940   44.5810 S   0  0  0  0  0  0  0  0  0  0  0  0
   58.0700   29.0220   45.5150 C   0  0  0  0  0  0  0  0  0  0  0  0
   56.7750   28.9710   45.3970 N   0  0  0  0  0  0  0  0  0  0  0  0
   55.9420   29.7600   44.5340 C   0  0  0  0  0  0  0  0  0  0  0  0
   54.7830   29.3430   44.2670 O   0  0  0  0  0  0  0  0  0  0  0  0
   56.4130   30.9810   43.9540 N   0  0  0  0  0  0  0  0  0  0  0  0
   57.8190   31.2750   43.6860 C   0  0  0  0  0  0  0  0  0  0  0  0
   58.4357   30.8186   44.4743 H   0  0  0  0  0  0  0  0  0  0  0  0
   58.0747   30.8623   42.6989 H   0  0  0  0  0  0  0  0  0  0  0  0
   58.0850   32.7880   43.6580 C   0  0  0  0  0  0  0  0  0  0  0  0
   59.1730   32.9501   43.6643 H   0  0  0  0  0  0  0  0  0  0  0  0
   57.6088   33.1828   42.7484 H   0  0  0  0  0  0  0  0  0  0  0  0
   57.4740   33.5420   44.8510 C   0  0  0  0  0  0  0  0  0  0  0  0
   57.1068   34.5178   44.5003 H   0  0  0  0  0  0  0  0  0  0  0  0
   56.6591   32.9229   45.2543 H   0  0  0  0  0  0  0  0  0  0  0  0
   58.4680   33.7710   45.9640 C   0  0  0  0  0  0  0  0  0  0  0  0
   58.1300   33.4590   47.2930 C   0  0  0  0  0  0  0  0  0  0  0  0
   57.1468   33.0206   47.5192 H   0  0  0  0  0  0  0  0  0  0  0  0
   59.0400   33.7040   48.3310 C   0  0  0  0  0  0  0  0  0  0  0  0
   58.7668   33.4659   49.3696 H   0  0  0  0  0  0  0  0  0  0  0  0
   60.2950   34.2510   48.0460 C   0  0  0  0  0  0  0  0  0  0  0  0
   61.0088   34.4430   48.8606 H   0  0  0  0  0  0  0  0  0  0  0  0
   60.6430   34.5540   46.7260 C   0  0  0  0  0  0  0  0  0  0  0  0
   61.6345   34.9750   46.5029 H   0  0  0  0  0  0  0  0  0  0  0  0
   59.7330   34.3230   45.6880 C   0  0  0  0  0  0  0  0  0  0  0  0
   60.0074   34.5738   44.6527 H   0  0  0  0  0  0  0  0  0  0  0  0
   58.6690   29.8060   46.4350 N   0  0  0  0  0  0  0  0  0  0  0  0
   60.0290   29.7300   46.3630 C   0  0  0  0  0  0  0  0  0  0  0  0
   60.8960   30.4700   47.3060 C   0  0  0  0  0  0  0  0  0  0  0  0
   62.1090   30.9880   46.8270 C   0  0  0  0  0  0  0  0  0  0  0  0
   62.4151   30.7867   45.7898 H   0  0  0  0  0  0  0  0  0  0  0  0
   62.9310   31.7560   47.6530 C   0  0  0  0  0  0  0  0  0  0  0  0
   63.8809   32.1496   47.2622 H   0  0  0  0  0  0  0  0  0  0  0  0
   62.5570   32.0310   48.9780 C   0  0  0  0  0  0  0  0  0  0  0  0
   63.4370   32.8620   49.8360 C   0  0  0  0  0  0  0  0  0  0  0  0
   62.9980   33.3050   50.9320 O   0  0  0  0  0  0  0  0  0  0  0  0
   64.7860   33.1640   49.4600 N   0  0  0  0  0  0  0  0  0  0  0  0
   65.2360   32.7280   48.6260 H   0  0  0  0  0  0  0  0  0  0  0  0
   65.3790   33.7530   50.0840 H   0  0  0  0  0  0  0  0  0  0  0  0
   61.3630   31.4820   49.4740 C   0  0  0  0  0  0  0  0  0  0  0  0
   61.0708   31.6741   50.5169 H   0  0  0  0  0  0  0  0  0  0  0  0
   60.5360   30.6910   48.6580 C   0  0  0  0  0  0  0  0  0  0  0  0
   59.3830   30.0710   49.2430 N   0  0  0  0  0  0  0  0  0  0  0  0
   59.2260   30.0610   50.2750 H   0  0  0  0  0  0  0  0  0  0  0  0
   58.6100   29.7100   48.6380 H   0  0  0  0  0  0  0  0  0  0  0  0
  1  2  1  0
  2  3  1  0
  3  4  1  0
  4  5  2  0
  5  6  1  0
  6  7  2  0
  6  8  1  0
  8  9  1  0
  9 10  1  0
  9 11  1  0
  9 12  1  0
 12 13  1  0
 12 14  1  0
 12 15  1  0
 15 16  1  0
 15 17  1  0
 15 18  1  0
 18 19  2  0
 19 20  1  0
 19 21  1  0
 21 22  1  0
 21 23  2  0
 23 24  1  0
 23 25  1  0
 25 26  1  0
 25 27  2  0
 27 28  1  0
  4 29  1  0
 29 30  1  0
 30 31  1  0
 31 32  2  0
 32 33  1  0
 32 34  1  0
 34 35  1  0
 34 36  2  0
 36 37  1  0
 37 38  2  0
 37 39  1  0
 39 40  1  0
 39 41  1  0
 36 42  1  0
 42 43  1  0
 42 44  2  0
 44 45  1  0
 45 46  1  0
 45 47  1  0
 30  2  2  0
 44 31  1  0
 27 18  1  0
M  CHG  2   8  -1  29  -1
M  END
>  <UniqueID>  (15) 
15

>  <SMILES>  (15) 
NC(=O)c1ccc(-c2cs/c(=N\C(=O)[N-]CCCc3ccccc3)[n-]2)c(N)c1

>  <Energy>  (15) 
82.03878895917515

>  <Genealogy>  (15) 
NC(=O)c1ccc(-c2csc(=NC(=O)[N-]CCCc3ccccc3)[n-]2)c(N)c1 (protonated)
NC(=O)c1ccc(-c2cs/c(=N\C(=O)[N-]CCCc3ccccc3)[n-]2)c(N)c1 (cis-trans isomerization)
NC(=O)c1ccc(-c2cs/c(=N\C(=O)[N-]CCCc3ccccc3)[n-]2)c(N)c1 (3D coordinates assigned)
NC(=O)c1ccc(-c2cs/c(=N\C(=O)[N-]CCCc3ccccc3)[n-]2)c(N)c1 (optimized conformer: 82.03878895917515 kcal/mol)

>  <smiles>  (15) 
NC(=O)c1ccc(-c2csc(=NC(=O)NCCCc3ccccc3)[nH]2)c(N)c1

>  <score_type>  (15) 
oracle

>  <origin>  (15) 
adg

>  <m_score__min__energy>  (15) 
-11.35

>  <m_primary>  (15) 
energy

$$$$
15:0
     RDKit          3D

 46 48  0  0  0  0  0  0  0  0999 V2000
   62.2640   33.7760   46.3730 C   0  0  0  0  0  0  0  0  0  0  0  0
   62.2890   33.6910   47.8430 N   0  0  0  0  0  0  0  0  0  0  0  0
   60.9340   33.7940   48.4420 C   0  0  0  0  0  0  0  0  0  0  0  0
   60.4370   32.4760   49.0680 C   0  0  0  0  0  0  0  0  0  0  0  0
   60.8190   31.3270   48.2230 N   0  0  0  0  0  0  0  0  0  0  0  0
   60.1690   30.0660   48.6590 C   0  0  0  0  0  0  0  0  0  0  0  0
   59.5120   29.3020   47.5380 C   0  0  0  0  0  0  0  0  0  0  0  0
   59.0200   28.0130   47.6180 C   0  0  0  0  0  0  0  0  0  0  0  0
   58.5180   27.7240   46.3670 C   0  0  0  0  0  0  0  0  0  0  0  0
   58.7370   28.8570   45.6070 C   0  0  0  0  0  0  0  0  0  0  0  0
   58.3200   29.0490   44.1850 C   0  0  0  0  0  0  0  0  0  0  0  0
   57.0860   30.3310   44.0820 S   0  0  0  0  0  0  0  0  0  0  0  0
   55.9000   29.9530   44.9260 O   0  0  0  0  0  0  0  0  0  0  0  0
   56.6330   30.4810   42.6570 O   0  0  0  0  0  0  0  0  0  0  0  0
   57.7600   31.8520   44.6590 C   0  0  0  0  0  0  0  0  0  0  0  0
   58.3320   32.7590   43.7550 C   0  0  0  0  0  0  0  0  0  0  0  0
   58.9020   33.9480   44.2180 C   0  0  0  0  0  0  0  0  0  0  0  0
   58.9080   34.2360   45.5870 C   0  0  0  0  0  0  0  0  0  0  0  0
   59.6270   35.7270   46.1690 Cl  0  0  0  0  0  0  0  0  0  0  0  0
   58.3440   33.3300   46.4930 C   0  0  0  0  0  0  0  0  0  0  0  0
   57.7740   32.1400   46.0310 C   0  0  0  0  0  0  0  0  0  0  0  0
   59.3260   29.7810   46.3290 O   0  0  0  0  0  0  0  0  0  0  0  0
   62.2940   31.1880   48.0980 C   0  0  0  0  0  0  0  0  0  0  0  0
   63.0510   32.5180   48.3140 C   0  0  0  0  0  0  0  0  0  0  0  0
   61.9657   34.7903   46.0694 H   0  0  0  0  0  0  0  0  0  0  0  0
   63.2655   33.5540   45.9758 H   0  0  0  0  0  0  0  0  0  0  0  0
   61.5422   33.0472   45.9758 H   0  0  0  0  0  0  0  0  0  0  0  0
   60.9577   34.5649   49.2263 H   0  0  0  0  0  0  0  0  0  0  0  0
   60.2388   34.0482   47.6283 H   0  0  0  0  0  0  0  0  0  0  0  0
   60.8854   32.3570   50.0654 H   0  0  0  0  0  0  0  0  0  0  0  0
   59.3404   32.5107   49.1475 H   0  0  0  0  0  0  0  0  0  0  0  0
   60.4390   31.5160   47.2650 H   0  0  0  0  0  0  0  0  0  0  0  0
   60.9340   29.4214   49.1164 H   0  0  0  0  0  0  0  0  0  0  0  0
   59.3742   30.3431   49.3672 H   0  0  0  0  0  0  0  0  0  0  0  0
   59.0274   27.3536   48.4984 H   0  0  0  0  0  0  0  0  0  0  0  0
   58.0424   26.7870   46.0417 H   0  0  0  0  0  0  0  0  0  0  0  0
   59.1953   29.3363   43.5839 H   0  0  0  0  0  0  0  0  0  0  0  0
   57.8977   28.1085   43.8015 H   0  0  0  0  0  0  0  0  0  0  0  0
   58.3320   32.5338   42.6783 H   0  0  0  0  0  0  0  0  0  0  0  0
   59.3464   34.6582   43.5052 H   0  0  0  0  0  0  0  0  0  0  0  0
   58.3493   33.5547   47.5698 H   0  0  0  0  0  0  0  0  0  0  0  0
   57.3355   31.4280   46.7456 H   0  0  0  0  0  0  0  0  0  0  0  0
   62.6416   30.4621   48.8478 H   0  0  0  0  0  0  0  0  0  0  0  0
   62.5052   30.8545   47.0713 H   0  0  0  0  0  0  0  0  0  0  0  0
   63.2522   32.6377   49.3888 H   0  0  0  0  0  0  0  0  0  0  0  0
   63.9810   32.4694   47.7285 H   0  0  0  0  0  0  0  0  0  0  0  0
  1  2  1  0
  2  3  1  0
  3  4  1  0
  4  5  1  0
  5  6  1  0
  6  7  1  0
  7  8  2  0
  8  9  1  0
  9 10  2  0
 10 11  1  0
 11 12  1  0
 12 13  2  0
 12 14  2  0
 12 15  1  0
 15 16  2  0
 16 17  1  0
 17 18  2  0
 18 19  1  0
 18 20  1  0
 20 21  2  0
 10 22  1  0
  5 23  1  0
 23 24  1  0
 24  2  1  0
 22  7  1  0
 21 15  1  0
  1 25  1  0
  1 26  1  0
  1 27  1  0
  3 28  1  0
  3 29  1  0
  4 30  1  0
  4 31  1  0
  5 32  1  0
  6 33  1  0
  6 34  1  0
  8 35  1  0
  9 36  1  0
 11 37  1  0
 11 38  1  0
 16 39  1  0
 17 40  1  0
 20 41  1  0
 21 42  1  0
 23 43  1  0
 23 44  1  0
 24 45  1  0
 24 46  1  0
M  CHG  1   5   1
M  END
>  <UniqueID>  (16) 
16

>  <SMILES>  (16) 
CN1CC[NH+](Cc2ccc(CS(=O)(=O)c3ccc(Cl)cc3)o2)CC1

>  <Energy>  (16) 
81.32218848898253

>  <Genealogy>  (16) 
CN1CC[NH+](Cc2ccc(CS(=O)(=O)c3ccc(Cl)cc3)o2)CC1 (protonated)
CN1CC[NH+](Cc2ccc(CS(=O)(=O)c3ccc(Cl)cc3)o2)CC1 (3D coordinates assigned)
CN1CC[NH+](Cc2ccc(CS(=O)(=O)c3ccc(Cl)cc3)o2)CC1 (nonaromatic ring conformer: 81.32218848898253 kcal/mol)

>  <smiles>  (16) 
CN1CCN(Cc2ccc(CS(=O)(=O)c3ccc(Cl)cc3)o2)CC1

>  <score_type>  (16) 
oracle

>  <origin>  (16) 
adg

>  <m_score__min__energy>  (16) 
-7.25

>  <m_primary>  (16) 
energy

$$$$
16:0
     RDKit          3D

 46 48  0  0  0  0  0  0  0  0999 V2000
   58.4070   25.4230   46.3540 C   0  0  0  0  0  0  0  0  0  0  0  0
   58.8960   26.7240   46.9360 C   0  0  0  0  0  0  0  0  0  0  0  0
   59.9150   26.6980   47.9050 C   0  0  0  0  0  0  0  0  0  0  0  0
   60.3920   27.8820   48.4670 C   0  0  0  0  0  0  0  0  0  0  0  0
   59.8580   29.1070   48.0720 C   0  0  0  0  0  0  0  0  0  0  0  0
   58.8470   29.1530   47.1120 C   0  0  0  0  0  0  0  0  0  0  0  0
   58.3540   27.9710   46.5340 C   0  0  0  0  0  0  0  0  0  0  0  0
   57.0640   28.0790   45.3230 S   0  0  0  0  0  0  0  0  0  0  0  0
   55.9290   27.1800   45.7300 O   0  0  0  0  0  0  0  0  0  0  0  0
   57.6040   27.6630   43.9840 O   0  0  0  0  0  0  0  0  0  0  0  0
   56.4810   29.7100   45.2160 N   0  0  0  0  0  0  0  0  0  0  0  0
   57.0190   30.7320   44.3650 C   0  0  0  0  0  0  0  0  0  0  0  0
   57.6690   31.8670   44.8850 C   0  0  0  0  0  0  0  0  0  0  0  0
   58.1990   32.8440   44.0220 C   0  0  0  0  0  0  0  0  0  0  0  0
   58.8540   34.0220   44.5140 N   0  0  0  0  0  0  0  0  0  0  0  0
   59.5860   34.1440   45.7400 C   0  0  0  0  0  0  0  0  0  0  0  0
   60.8080   33.8410   45.7980 O   0  0  0  0  0  0  0  0  0  0  0  0
   58.9190   34.7450   46.9360 C   0  0  0  0  0  0  0  0  0  0  0  0
   59.1190   33.8610   48.1360 C   0  0  0  0  0  0  0  0  0  0  0  0
   60.0780   34.1940   49.1090 C   0  0  0  0  0  0  0  0  0  0  0  0
   60.2880   33.3540   50.2070 C   0  0  0  0  0  0  0  0  0  0  0  0
   59.5510   32.1740   50.3370 C   0  0  0  0  0  0  0  0  0  0  0  0
   58.6040   31.8300   49.3670 C   0  0  0  0  0  0  0  0  0  0  0  0
   58.3910   32.6670   48.2670 C   0  0  0  0  0  0  0  0  0  0  0  0
   58.0340   32.6990   42.6410 C   0  0  0  0  0  0  0  0  0  0  0  0
   57.3860   31.5780   42.1190 C   0  0  0  0  0  0  0  0  0  0  0  0
   56.8820   30.5920   42.9760 C   0  0  0  0  0  0  0  0  0  0  0  0
   56.2380   29.4700   42.4530 O   0  0  0  0  0  0  0  0  0  0  0  0
   58.1471   24.7315   47.1690 H   0  0  0  0  0  0  0  0  0  0  0  0
   57.5178   25.6099   45.7341 H   0  0  0  0  0  0  0  0  0  0  0  0
   59.1992   24.9779   45.7341 H   0  0  0  0  0  0  0  0  0  0  0  0
   60.3399   25.7344   48.2227 H   0  0  0  0  0  0  0  0  0  0  0  0
   61.1905   27.8488   49.2228 H   0  0  0  0  0  0  0  0  0  0  0  0
   60.2344   30.0394   48.5180 H   0  0  0  0  0  0  0  0  0  0  0  0
   58.4317   30.1241   46.8045 H   0  0  0  0  0  0  0  0  0  0  0  0
   57.7634   31.9912   45.9739 H   0  0  0  0  0  0  0  0  0  0  0  0
   59.3543   35.7351   47.1365 H   0  0  0  0  0  0  0  0  0  0  0  0
   57.8418   34.8440   46.7365 H   0  0  0  0  0  0  0  0  0  0  0  0
   60.6651   35.1185   49.0060 H   0  0  0  0  0  0  0  0  0  0  0  0
   61.0342   33.6224   50.9693 H   0  0  0  0  0  0  0  0  0  0  0  0
   59.7157   31.5154   51.2025 H   0  0  0  0  0  0  0  0  0  0  0  0
   58.0259   30.8998   49.4694 H   0  0  0  0  0  0  0  0  0  0  0  0
   57.6510   32.3893   47.5020 H   0  0  0  0  0  0  0  0  0  0  0  0
   58.4176   33.4739   41.9610 H   0  0  0  0  0  0  0  0  0  0  0  0
   57.2709   31.4689   41.0305 H   0  0  0  0  0  0  0  0  0  0  0  0
   56.1350   28.6180   42.9920 H   0  0  0  0  0  0  0  0  0  0  0  0
  1  2  1  0
  2  3  2  0
  3  4  1  0
  4  5  2  0
  5  6  1  0
  6  7  2  0
  7  8  1  0
  8  9  2  0
  8 10  2  0
  8 11  1  0
 11 12  1  0
 12 13  2  0
 13 14  1  0
 14 15  1  0
 15 16  1  0
 16 17  2  0
 16 18  1  0
 18 19  1  0
 19 20  2  0
 20 21  1  0
 21 22  2  0
 22 23  1  0
 23 24  2  0
 14 25  2  0
 25 26  1  0
 26 27  2  0
 27 28  1  0
  7  2  1  0
 27 12  1  0
 24 19  1  0
  1 29  1  0
  1 30  1  0
  1 31  1  0
  3 32  1  0
  4 33  1  0
  5 34  1  0
  6 35  1  0
 13 36  1  0
 18 37  1  0
 18 38  1  0
 20 39  1  0
 21 40  1  0
 22 41  1  0
 23 42  1  0
 24 43  1  0
 25 44  1  0
 26 45  1  0
 28 46  1  0
M  CHG  2  11  -1  15  -1
M  END
>  <UniqueID>  (17) 
17

>  <SMILES>  (17) 
Cc1ccccc1S(=O)(=O)[N-]c1cc([N-]C(=O)Cc2ccccc2)ccc1O

>  <Energy>  (17) 
55.310783356529996

>  <Genealogy>  (17) 
Cc1ccccc1S(=O)(=O)[N-]c1cc([N-]C(=O)Cc2ccccc2)ccc1O (protonated)
Cc1ccccc1S(=O)(=O)[N-]c1cc([N-]C(=O)Cc2ccccc2)ccc1O (3D coordinates assigned)
Cc1ccccc1S(=O)(=O)[N-]c1cc([N-]C(=O)Cc2ccccc2)ccc1O (optimized conformer: 55.310783356529996 kcal/mol)

>  <smiles>  (17) 
Cc1ccccc1S(=O)(=O)Nc1cc(NC(=O)Cc2ccccc2)ccc1O

>  <score_type>  (17) 
oracle

>  <origin>  (17) 
adg

>  <m_score__min__energy>  (17) 
-11.4

>  <m_primary>  (17) 
energy

$$$$
17:0
     RDKit          3D

 42 44  0  0  0  0  0  0  0  0999 V2000
   54.8340   26.1280   45.9790 N   0  0  0  0  0  0  0  0  0  0  0  0
   56.5080   25.7040   45.9210 S   0  0  0  0  0  0  0  0  0  0  0  0
   56.9530   25.2380   47.2780 O   0  0  0  0  0  0  0  0  0  0  0  0
   56.7090   24.5840   44.9380 O   0  0  0  0  0  0  0  0  0  0  0  0
   57.4540   27.1040   45.4290 C   0  0  0  0  0  0  0  0  0  0  0  0
   58.8530   27.0340   45.4110 C   0  0  0  0  0  0  0  0  0  0  0  0
   59.6050   28.1380   45.0040 C   0  0  0  0  0  0  0  0  0  0  0  0
   58.9660   29.3150   44.6060 C   0  0  0  0  0  0  0  0  0  0  0  0
   57.5630   29.3940   44.6000 C   0  0  0  0  0  0  0  0  0  0  0  0
   56.8750   30.6350   44.1720 C   0  0  0  0  0  0  0  0  0  0  0  0
   56.1370   30.6100   43.1500 O   0  0  0  0  0  0  0  0  0  0  0  0
   56.9810   31.8600   44.9110 N   0  0  0  0  0  0  0  0  0  0  0  0
   58.0940   32.2650   45.7220 C   0  0  0  0  0  0  0  0  0  0  0  0
   58.7840   33.4350   45.3870 C   0  0  0  0  0  0  0  0  0  0  0  0
   59.8750   33.8540   46.1500 C   0  0  0  0  0  0  0  0  0  0  0  0
   60.2980   33.1030   47.2540 C   0  0  0  0  0  0  0  0  0  0  0  0
   61.4160   33.5620   48.0250 N   0  0  0  0  0  0  0  0  0  0  0  0
   62.7490   33.6440   47.4250 C   0  0  0  0  0  0  0  0  0  0  0  0
   63.8050   33.3620   48.4970 C   0  0  0  0  0  0  0  0  0  0  0  0
   63.6060   34.1900   49.6290 O   0  0  0  0  0  0  0  0  0  0  0  0
   62.3760   33.8660   50.2520 C   0  0  0  0  0  0  0  0  0  0  0  0
   61.1950   34.1840   49.3300 C   0  0  0  0  0  0  0  0  0  0  0  0
   59.6310   31.9070   47.5760 C   0  0  0  0  0  0  0  0  0  0  0  0
   60.1650   30.8890   48.9070 Cl  0  0  0  0  0  0  0  0  0  0  0  0
   58.5390   31.4890   46.8060 C   0  0  0  0  0  0  0  0  0  0  0  0
   56.8130   28.2830   45.0240 C   0  0  0  0  0  0  0  0  0  0  0  0
   54.7780   27.0830   46.4000 H   0  0  0  0  0  0  0  0  0  0  0  0
   59.3602   26.1075   45.7181 H   0  0  0  0  0  0  0  0  0  0  0  0
   60.7035   28.0808   44.9967 H   0  0  0  0  0  0  0  0  0  0  0  0
   59.5643   30.1844   44.2957 H   0  0  0  0  0  0  0  0  0  0  0  0
   58.4649   34.0281   44.5173 H   0  0  0  0  0  0  0  0  0  0  0  0
   60.4058   34.7796   45.8827 H   0  0  0  0  0  0  0  0  0  0  0  0
   62.8356   32.9001   46.6193 H   0  0  0  0  0  0  0  0  0  0  0  0
   62.9049   34.6508   47.0102 H   0  0  0  0  0  0  0  0  0  0  0  0
   63.7346   32.3081   48.8042 H   0  0  0  0  0  0  0  0  0  0  0  0
   64.7994   33.5726   48.0765 H   0  0  0  0  0  0  0  0  0  0  0  0
   62.3661   32.7927   50.4926 H   0  0  0  0  0  0  0  0  0  0  0  0
   62.2777   34.4665   51.1684 H   0  0  0  0  0  0  0  0  0  0  0  0
   60.2680   33.7900   49.7720 H   0  0  0  0  0  0  0  0  0  0  0  0
   61.1077   35.2737   49.2075 H   0  0  0  0  0  0  0  0  0  0  0  0
   58.0261   30.5473   47.0510 H   0  0  0  0  0  0  0  0  0  0  0  0
   55.7145   28.3394   45.0380 H   0  0  0  0  0  0  0  0  0  0  0  0
  1  2  1  0
  2  3  2  0
  2  4  2  0
  2  5  1  0
  5  6  2  0
  6  7  1  0
  7  8  2  0
  8  9  1  0
  9 10  1  0
 10 11  2  0
 10 12  1  0
 12 13  1  0
 13 14  2  0
 14 15  1  0
 15 16  2  0
 16 17  1  0
 17 18  1  0
 18 19  1  0
 19 20  1  0
 20 21  1  0
 21 22  1  0
 16 23  1  0
 23 24  1  0
 23 25  2  0
  9 26  2  0
 26  5  1  0
 25 13  1  0
 22 17  1  0
  1 27  1  0
  6 28  1  0
  7 29  1  0
  8 30  1  0
 14 31  1  0
 15 32  1  0
 18 33  1  0
 18 34  1  0
 19 35  1  0
 19 36  1  0
 21 37  1  0
 21 38  1  0
 22 39  1  0
 22 40  1  0
 25 41  1  0
 26 42  1  0
M  CHG  2   1  -1  12  -1
M  END
>  <UniqueID>  (18) 
18

>  <SMILES>  (18) 
[NH-]S(=O)(=O)c1cccc(C(=O)[N-]c2ccc(N3CCOCC3)c(Cl)c2)c1

>  <Energy>  (18) 
57.1707497195939

>  <Genealogy>  (18) 
[NH-]S(=O)(=O)c1cccc(C(=O)[N-]c2ccc(N3CCOCC3)c(Cl)c2)c1 (protonated)
[NH-]S(=O)(=O)c1cccc(C(=O)[N-]c2ccc(N3CCOCC3)c(Cl)c2)c1 (3D coordinates assigned)
[NH-]S(=O)(=O)c1cccc(C(=O)[N-]c2ccc(N3CCOCC3)c(Cl)c2)c1 (nonaromatic ring conformer: 57.1707497195939 kcal/mol)

>  <smiles>  (18) 
NS(=O)(=O)c1cccc(C(=O)Nc2ccc(N3CCOCC3)c(Cl)c2)c1

>  <score_type>  (18) 
oracle

>  <origin>  (18) 
adg

>  <m_score__min__energy>  (18) 
-12.84

>  <m_primary>  (18) 
energy

$$$$
18:0
     RDKit          3D

 32 34  0  0  0  0  0  0  0  0999 V2000
   62.2665   33.7503   50.3624 H   0  0  0  0  0  0  0  0  0  0  0  0
   62.4110   33.6450   49.2770 C   0  0  0  0  0  0  0  0  0  0  0  0
   61.4980   34.0900   48.3750 N   0  0  0  0  0  0  0  0  0  0  0  0
   61.8940   33.8500   47.1080 C   0  0  0  0  0  0  0  0  0  0  0  0
   61.1820   34.2080   46.0830 N   0  0  0  0  0  0  0  0  0  0  0  0
   59.4500   34.3240   46.0750 S   0  0  0  0  0  0  0  0  0  0  0  0
   59.0360   35.1580   44.8980 O   0  0  0  0  0  0  0  0  0  0  0  0
   58.9900   34.9970   47.3380 O   0  0  0  0  0  0  0  0  0  0  0  0
   58.7080   32.7320   45.9320 C   0  0  0  0  0  0  0  0  0  0  0  0
   57.8210   32.4760   44.8780 C   0  0  0  0  0  0  0  0  0  0  0  0
   57.5786   33.2724   44.1590 H   0  0  0  0  0  0  0  0  0  0  0  0
   57.2430   31.2100   44.7380 C   0  0  0  0  0  0  0  0  0  0  0  0
   56.5417   31.0192   43.9123 H   0  0  0  0  0  0  0  0  0  0  0  0
   57.5490   30.1840   45.6390 C   0  0  0  0  0  0  0  0  0  0  0  0
   56.9550   28.8930   45.4420 N   0  0  0  0  0  0  0  0  0  0  0  0
   57.8190   27.4350   45.0760 S   0  0  0  0  0  0  0  0  0  0  0  0
   59.2660   27.6140   45.4440 O   0  0  0  0  0  0  0  0  0  0  0  0
   57.7280   27.1560   43.6030 O   0  0  0  0  0  0  0  0  0  0  0  0
   57.1630   26.0990   46.0080 C   0  0  0  0  0  0  0  0  0  0  0  0
   57.9100   25.1080   46.5230 N   0  0  0  0  0  0  0  0  0  0  0  0
   57.0000   24.3370   47.1600 C   0  0  0  0  0  0  0  0  0  0  0  0
   57.3170   23.2910   47.7830 O   0  0  0  0  0  0  0  0  0  0  0  0
   55.7260   24.7780   47.0790 N   0  0  0  0  0  0  0  0  0  0  0  0
   55.8470   25.8950   46.3440 C   0  0  0  0  0  0  0  0  0  0  0  0
   54.7770   26.7100   45.9950 O   0  0  0  0  0  0  0  0  0  0  0  0
   58.4330   30.4450   46.7030 C   0  0  0  0  0  0  0  0  0  0  0  0
   58.6657   29.6529   47.4299 H   0  0  0  0  0  0  0  0  0  0  0  0
   59.0160   31.7090   46.8380 C   0  0  0  0  0  0  0  0  0  0  0  0
   59.7206   31.9010   47.6606 H   0  0  0  0  0  0  0  0  0  0  0  0
   63.3910   33.0780   47.0550 S   0  0  0  0  0  0  0  0  0  0  0  0
   63.5410   33.0470   48.7310 C   0  0  0  0  0  0  0  0  0  0  0  0
   64.3860   32.6267   49.2960 H   0  0  0  0  0  0  0  0  0  0  0  0
  1  2  1  0
  2  3  1  0
  3  4  1  0
  4  5  2  0
  5  6  1  0
  6  7  2  0
  6  8  2  0
  6  9  1  0
  9 10  2  0
 10 11  1  0
 10 12  1  0
 12 13  1  0
 12 14  2  0
 14 15  1  0
 15 16  1  0
 16 17  2  0
 16 18  2  0
 16 19  1  0
 19 20  1  0
 20 21  1  0
 21 22  2  0
 21 23  1  0
 23 24  1  0
 24 25  1  0
 14 26  1  0
 26 27  1  0
 26 28  2  0
 28 29  1  0
  4 30  1  0
 30 31  1  0
 31 32  1  0
 31  2  2  0
 28  9  1  0
 24 19  2  0
M  CHG  5   3  -1  15  -1  20  -1  23  -1  25  -1
M  END
>  <UniqueID>  (19) 
19

>  <SMILES>  (19) 
O=c1[n-]c([O-])c(S(=O)(=O)[N-]c2ccc(S(=O)(=O)/N=c3/[n-]ccs3)cc2)[n-]1

>  <Energy>  (19) 
101.79696107487494

>  <Genealogy>  (19) 
O=c1[n-]c([O-])c(S(=O)(=O)[N-]c2ccc(S(=O)(=O)N=c3[n-]ccs3)cc2)[n-]1 (protonated)
O=c1[n-]c([O-])c(S(=O)(=O)[N-]c2ccc(S(=O)(=O)/N=c3/[n-]ccs3)cc2)[n-]1 (cis-trans isomerization)
O=c1[n-]c([O-])c(S(=O)(=O)[N-]c2ccc(S(=O)(=O)/N=c3/[n-]ccs3)cc2)[n-]1 (3D coordinates assigned)
O=c1[n-]c([O-])c(S(=O)(=O)[N-]c2ccc(S(=O)(=O)/N=c3/[n-]ccs3)cc2)[n-]1 (optimized conformer: 101.79696107487494 kcal/mol)

>  <smiles>  (19) 
O=c1[nH]c(O)c(S(=O)(=O)Nc2ccc(S(=O)(=O)N=c3[nH]ccs3)cc2)[nH]1

>  <score_type>  (19) 
oracle

>  <origin>  (19) 
adg

>  <m_score__min__energy>  (19) 
-17.739999999999998

>  <m_primary>  (19) 
energy

$$$$
19:0
     RDKit          3D

 47 50  0  0  0  0  0  0  0  0999 V2000
   57.0783   31.3117   41.3635 H   0  0  0  0  0  0  0  0  0  0  0  0
   57.0530   31.1950   42.4570 C   0  0  0  0  0  0  0  0  0  0  0  0
   56.3700   30.1620   43.0120 N   0  0  0  0  0  0  0  0  0  0  0  0
   56.3220   29.9980   44.3590 C   0  0  0  0  0  0  0  0  0  0  0  0
   55.6740   28.9840   44.8530 N   0  0  0  0  0  0  0  0  0  0  0  0
   56.2510   27.8250   45.4720 C   0  0  0  0  0  0  0  0  0  0  0  0
   55.5550   26.7910   45.9830 N   0  0  0  0  0  0  0  0  0  0  0  0
   56.4220   25.9210   46.4770 N   0  0  0  0  0  0  0  0  0  0  0  0
   57.6650   26.3990   46.2700 C   0  0  0  0  0  0  0  0  0  0  0  0
   58.9110   25.7380   46.7740 C   0  0  0  0  0  0  0  0  0  0  0  0
   59.1788   24.9149   46.0951 H   0  0  0  0  0  0  0  0  0  0  0  0
   58.7156   25.3606   47.7886 H   0  0  0  0  0  0  0  0  0  0  0  0
   60.0810   26.7260   46.8450 C   0  0  0  0  0  0  0  0  0  0  0  0
   60.0366   27.3946   45.9726 H   0  0  0  0  0  0  0  0  0  0  0  0
   61.0175   26.1490   46.8518 H   0  0  0  0  0  0  0  0  0  0  0  0
   60.0320   27.5590   48.1030 C   0  0  0  0  0  0  0  0  0  0  0  0
   60.7310   27.1540   49.2500 C   0  0  0  0  0  0  0  0  0  0  0  0
   61.2957   26.2100   49.2433 H   0  0  0  0  0  0  0  0  0  0  0  0
   60.7120   27.9450   50.3990 C   0  0  0  0  0  0  0  0  0  0  0  0
   61.2596   27.6212   51.2964 H   0  0  0  0  0  0  0  0  0  0  0  0
   60.0000   29.1470   50.4140 C   0  0  0  0  0  0  0  0  0  0  0  0
   59.9857   29.7646   51.3242 H   0  0  0  0  0  0  0  0  0  0  0  0
   59.3010   29.5700   49.2680 C   0  0  0  0  0  0  0  0  0  0  0  0
   58.5740   30.7680   49.2300 O   0  0  0  0  0  0  0  0  0  0  0  0
   58.1780   31.5060   50.3800 C   0  0  0  0  0  0  0  0  0  0  0  0
   58.4723   30.9575   51.2869 H   0  0  0  0  0  0  0  0  0  0  0  0
   58.6692   32.4902   50.3711 H   0  0  0  0  0  0  0  0  0  0  0  0
   57.0863   31.6409   50.3711 H   0  0  0  0  0  0  0  0  0  0  0  0
   59.3260   28.7730   48.1180 C   0  0  0  0  0  0  0  0  0  0  0  0
   58.7872   29.1007   47.2167 H   0  0  0  0  0  0  0  0  0  0  0  0
   57.6010   27.6220   45.6340 C   0  0  0  0  0  0  0  0  0  0  0  0
   58.4307   28.2770   45.3298 H   0  0  0  0  0  0  0  0  0  0  0  0
   56.9680   30.8840   45.1660 N   0  0  0  0  0  0  0  0  0  0  0  0
   57.6630   31.9400   44.6630 C   0  0  0  0  0  0  0  0  0  0  0  0
   58.3620   32.8560   45.6020 C   0  0  0  0  0  0  0  0  0  0  0  0
   58.8490   34.1080   45.1790 C   0  0  0  0  0  0  0  0  0  0  0  0
   58.7179   34.4275   44.1346 H   0  0  0  0  0  0  0  0  0  0  0  0
   59.4990   34.9420   46.0910 C   0  0  0  0  0  0  0  0  0  0  0  0
   59.8857   35.9189   45.7653 H   0  0  0  0  0  0  0  0  0  0  0  0
   59.6570   34.5350   47.4140 C   0  0  0  0  0  0  0  0  0  0  0  0
   60.1742   35.1827   48.1373 H   0  0  0  0  0  0  0  0  0  0  0  0
   59.1520   33.2970   47.8110 C   0  0  0  0  0  0  0  0  0  0  0  0
   59.2646   32.9691   48.8549 H   0  0  0  0  0  0  0  0  0  0  0  0
   58.5200   32.4920   46.9120 N   0  0  0  0  0  0  0  0  0  0  0  0
   58.1660   31.5690   47.2490 H   0  0  0  0  0  0  0  0  0  0  0  0
   57.7230   32.1090   43.2700 C   0  0  0  0  0  0  0  0  0  0  0  0
   58.2866   32.9447   42.8295 H   0  0  0  0  0  0  0  0  0  0  0  0
  1  2  1  0
  2  3  1  0
  3  4  1  0
  4  5  2  0
  5  6  1  0
  6  7  2  0
  7  8  1  0
  8  9  1  0
  9 10  1  0
 10 11  1  0
 10 12  1  0
 10 13  1  0
 13 14  1  0
 13 15  1  0
 13 16  1  0
 16 17  2  0
 17 18  1  0
 17 19  1  0
 19 20  1  0
 19 21  2  0
 21 22  1  0
 21 23  1  0
 23 24  1  0
 24 25  1  0
 25 26  1  0
 25 27  1  0
 25 28  1  0
 23 29  2  0
 29 30  1  0
  9 31  2  0
 31 32  1  0
  4 33  1  0
 33 34  2  0
 34 35  1  0
 35 36  2  0
 36 37  1  0
 36 38  1  0
 38 39  1  0
 38 40  2  0
 40 41  1  0
 40 42  1  0
 42 43  1  0
 42 44  2  0
 44 45  1  0
 34 46  1  0
 46 47  1  0
 46  2  2  0
 31  6  1  0
 44 35  1  0
 29 16  1  0
M  CHG  3   3  -1   8  -1  44   1
M  END
>  <UniqueID>  (20) 
20

>  <SMILES>  (20) 
COc1cccc(CCc2cc(/N=c3\nc(-c4cccc[nH+]4)cc[n-]3)n[n-]2)c1

>  <Energy>  (20) 
83.31097215227098

>  <Genealogy>  (20) 
COc1cccc(CCc2cc(N=c3nc(-c4cccc[nH+]4)cc[n-]3)n[n-]2)c1 (protonated)
COc1cccc(CCc2cc(/N=c3\nc(-c4cccc[nH+]4)cc[n-]3)n[n-]2)c1 (cis-trans isomerization)
COc1cccc(CCc2cc(/N=c3\nc(-c4cccc[nH+]4)cc[n-]3)n[n-]2)c1 (3D coordinates assigned)
COc1cccc(CCc2cc(/N=c3\nc(-c4cccc[nH+]4)cc[n-]3)n[n-]2)c1 (optimized conformer: 83.31097215227098 kcal/mol)

>  <smiles>  (20) 
COc1cccc(CCc2cc(N=c3nc(-c4ccccn4)cc[nH]3)n[nH]2)c1

>  <score_type>  (20) 
oracle

>  <origin>  (20) 
adg

>  <m_score__min__energy>  (20) 
-10.699999999999999

>  <m_primary>  (20) 
energy

$$$$
20:0
     RDKit          3D

 63 67  0  0  0  0  0  0  0  0999 V2000
   54.4950   23.9800   45.1490 C   0  0  0  0  0  0  0  0  0  0  0  0
   55.7840   23.2810   44.8030 C   0  0  0  0  0  0  0  0  0  0  0  0
   55.9270   22.7640   43.5020 C   0  0  0  0  0  0  0  0  0  0  0  0
   57.0880   22.0950   43.1220 C   0  0  0  0  0  0  0  0  0  0  0  0
   58.1280   21.9310   44.0300 C   0  0  0  0  0  0  0  0  0  0  0  0
   58.0130   22.4390   45.3240 C   0  0  0  0  0  0  0  0  0  0  0  0
   56.8490   23.1210   45.7380 C   0  0  0  0  0  0  0  0  0  0  0  0
   56.8030   23.6280   47.1400 C   0  0  0  0  0  0  0  0  0  0  0  0
   57.0160   22.8580   48.1140 O   0  0  0  0  0  0  0  0  0  0  0  0
   56.5630   24.9920   47.3640 O   0  0  0  0  0  0  0  0  0  0  0  0
   57.1310   26.0620   46.6550 C   0  0  0  0  0  0  0  0  0  0  0  0
   58.5170   26.3130   46.6410 C   0  0  0  0  0  0  0  0  0  0  0  0
   59.0310   27.4070   45.9380 C   0  0  0  0  0  0  0  0  0  0  0  0
   58.1690   28.2880   45.2720 C   0  0  0  0  0  0  0  0  0  0  0  0
   58.7250   29.4360   44.5270 C   0  0  0  0  0  0  0  0  0  0  0  0
   59.0350   30.6430   45.0570 C   0  0  0  0  0  0  0  0  0  0  0  0
   60.1190   30.9100   46.0600 C   0  0  0  0  0  0  0  0  0  0  0  0
   61.0970   30.0770   46.2570 N   0  0  0  0  0  0  0  0  0  0  0  0
   60.0370   32.1490   46.8010 N   0  0  0  0  0  0  0  0  0  0  0  0
   58.8720   32.9580   46.7180 C   0  0  0  0  0  0  0  0  0  0  0  0
   58.0520   32.8690   45.7160 N   0  0  0  0  0  0  0  0  0  0  0  0
   58.1430   31.7940   44.7730 C   0  0  0  0  0  0  0  0  0  0  0  0
   57.4180   31.8170   43.7430 O   0  0  0  0  0  0  0  0  0  0  0  0
   58.9050   34.3680   47.7940 S   0  0  0  0  0  0  0  0  0  0  0  0
   60.6410   34.0660   47.9460 N   0  0  0  0  0  0  0  0  0  0  0  0
   61.0520   32.9400   47.4510 C   0  0  0  0  0  0  0  0  0  0  0  0
   62.7990   32.6680   47.3510 S   0  0  0  0  0  0  0  0  0  0  0  0
   63.3400   33.5310   46.2470 O   0  0  0  0  0  0  0  0  0  0  0  0
   63.1020   31.2390   47.0020 O   0  0  0  0  0  0  0  0  0  0  0  0
   63.6180   33.1300   48.8750 C   0  0  0  0  0  0  0  0  0  0  0  0
   63.3360   32.1220   49.9450 C   0  0  0  0  0  0  0  0  0  0  0  0
   62.1490   32.0750   50.5630 C   0  0  0  0  0  0  0  0  0  0  0  0
   61.0330   31.2130   50.1100 C   0  0  0  0  0  0  0  0  0  0  0  0
   61.2540   29.9380   49.5500 C   0  0  0  0  0  0  0  0  0  0  0  0
   60.1740   29.1630   49.1180 C   0  0  0  0  0  0  0  0  0  0  0  0
   58.8700   29.6490   49.2320 C   0  0  0  0  0  0  0  0  0  0  0  0
   58.6420   30.9210   49.7670 C   0  0  0  0  0  0  0  0  0  0  0  0
   59.7180   31.7020   50.1990 C   0  0  0  0  0  0  0  0  0  0  0  0
   56.7870   28.0330   45.2750 C   0  0  0  0  0  0  0  0  0  0  0  0
   56.2720   26.9360   45.9730 C   0  0  0  0  0  0  0  0  0  0  0  0
   54.9000   26.7140   45.9850 O   0  0  0  0  0  0  0  0  0  0  0  0
   54.3907   24.0366   46.2426 H   0  0  0  0  0  0  0  0  0  0  0  0
   54.5047   24.9964   44.7285 H   0  0  0  0  0  0  0  0  0  0  0  0
   53.6485   23.4174   44.7285 H   0  0  0  0  0  0  0  0  0  0  0  0
   55.1108   22.8899   42.7754 H   0  0  0  0  0  0  0  0  0  0  0  0
   57.1823   21.6956   42.1014 H   0  0  0  0  0  0  0  0  0  0  0  0
   59.0426   21.4000   43.7276 H   0  0  0  0  0  0  0  0  0  0  0  0
   58.8432   22.3058   46.0333 H   0  0  0  0  0  0  0  0  0  0  0  0
   59.1992   25.6443   47.1864 H   0  0  0  0  0  0  0  0  0  0  0  0
   60.1174   27.5767   45.9077 H   0  0  0  0  0  0  0  0  0  0  0  0
   58.9023   29.2988   43.4501 H   0  0  0  0  0  0  0  0  0  0  0  0
   62.0790   30.3510   46.0720 H   0  0  0  0  0  0  0  0  0  0  0  0
   60.9520   29.1090   46.6110 H   0  0  0  0  0  0  0  0  0  0  0  0
   64.7031   33.1813   48.7022 H   0  0  0  0  0  0  0  0  0  0  0  0
   63.2403   34.1107   49.2000 H   0  0  0  0  0  0  0  0  0  0  0  0
   64.1201   31.4050   50.2296 H   0  0  0  0  0  0  0  0  0  0  0  0
   61.9953   32.7072   51.4500 H   0  0  0  0  0  0  0  0  0  0  0  0
   62.2795   29.5521   49.4528 H   0  0  0  0  0  0  0  0  0  0  0  0
   60.3520   28.1668   48.6867 H   0  0  0  0  0  0  0  0  0  0  0  0
   58.0220   29.0315   48.9010 H   0  0  0  0  0  0  0  0  0  0  0  0
   57.6152   31.3072   49.8479 H   0  0  0  0  0  0  0  0  0  0  0  0
   59.5346   32.7053   50.6111 H   0  0  0  0  0  0  0  0  0  0  0  0
   56.1066   28.7000   44.7253 H   0  0  0  0  0  0  0  0  0  0  0  0
  1  2  1  0
  2  3  2  0
  3  4  1  0
  4  5  2  0
  5  6  1  0
  6  7  2  0
  7  8  1  0
  8  9  2  0
  8 10  1  0
 10 11  1  0
 11 12  2  0
 12 13  1  0
 13 14  2  0
 14 15  1  0
 15 16  2  3
 16 17  1  0
 17 18  2  0
 17 19  1  0
 19 20  1  0
 20 21  2  0
 21 22  1  0
 22 23  2  0
 20 24  1  0
 24 25  1  0
 25 26  2  0
 26 27  1  0
 27 28  2  0
 27 29  2  0
 27 30  1  0
 30 31  1  0
 31 32  2  3
 32 33  1  0
 33 34  2  0
 34 35  1  0
 35 36  2  0
 36 37  1  0
 37 38  2  0
 14 39  1  0
 39 40  2  0
 40 41  1  0
  7  2  1  0
 40 11  1  0
 22 16  1  0
 38 33  1  0
 26 19  1  0
  1 42  1  0
  1 43  1  0
  1 44  1  0
  3 45  1  0
  4 46  1  0
  5 47  1  0
  6 48  1  0
 12 49  1  0
 13 50  1  0
 15 51  1  0
 18 52  1  0
 18 53  1  0
 30 54  1  0
 30 55  1  0
 31 56  1  0
 32 57  1  0
 34 58  1  0
 35 59  1  0
 36 60  1  0
 37 61  1  0
 38 62  1  0
 39 63  1  0
M  CHG  2  18   1  41  -1
M  END
>  <UniqueID>  (21) 
21

>  <SMILES>  (21) 
Cc1ccccc1C(=O)Oc1ccc(C=C2C(=[NH2+])N3C(=NC2=O)SN=C3S(=O)(=O)CC=Cc2ccccc2)cc1[O-]

>  <Energy>  (21) 
123.76156203429309

>  <Genealogy>  (21) 
Cc1ccccc1C(=O)Oc1ccc(C=C2C(=[NH2+])N3C(=NC2=O)SN=C3S(=O)(=O)CC=Cc2ccccc2)cc1[O-] (protonated)
Cc1ccccc1C(=O)Oc1ccc(C=C2C(=[NH2+])N3C(=NC2=O)SN=C3S(=O)(=O)CC=Cc2ccccc2)cc1[O-] (3D coordinates assigned)
Cc1ccccc1C(=O)Oc1ccc(C=C2C(=[NH2+])N3C(=NC2=O)SN=C3S(=O)(=O)CC=Cc2ccccc2)cc1[O-] (nonaromatic ring conformer: 123.76156203429309 kcal/mol)

>  <smiles>  (21) 
Cc1ccccc1C(=O)Oc1ccc(C=C2C(=N)N3C(=NC2=O)SN=C3S(=O)(=O)CC=Cc2ccccc2)cc1O

>  <score_type>  (21) 
oracle

>  <origin>  (21) 
adg

>  <m_score__min__energy>  (21) 
-13.029999999999999

>  <m_primary>  (21) 
energy

$$$$
21:0
     RDKit          3D

 49 51  0  0  0  0  0  0  0  0999 V2000
   55.1620   26.4100   46.0150 N   0  0  0  0  0  0  0  0  0  0  0  0
   56.6170   25.4850   45.9120 S   0  0  0  0  0  0  0  0  0  0  0  0
   56.8370   25.0380   44.4940 O   0  0  0  0  0  0  0  0  0  0  0  0
   56.4890   24.2680   46.7830 O   0  0  0  0  0  0  0  0  0  0  0  0
   57.9830   26.4770   46.4450 C   0  0  0  0  0  0  0  0  0  0  0  0
   58.5770   26.2100   47.6900 C   0  0  0  0  0  0  0  0  0  0  0  0
   59.6610   26.9680   48.1360 C   0  0  0  0  0  0  0  0  0  0  0  0
   60.1580   28.0070   47.3510 C   0  0  0  0  0  0  0  0  0  0  0  0
   59.5760   28.2900   46.1150 C   0  0  0  0  0  0  0  0  0  0  0  0
   58.4970   27.5220   45.6410 C   0  0  0  0  0  0  0  0  0  0  0  0
   57.8680   27.8750   44.3480 C   0  0  0  0  0  0  0  0  0  0  0  0
   57.5210   29.1170   43.9810 C   0  0  0  0  0  0  0  0  0  0  0  0
   56.3560   29.8650   44.5070 C   0  0  0  0  0  0  0  0  0  0  0  0
   55.4050   29.2520   45.0610 O   0  0  0  0  0  0  0  0  0  0  0  0
   56.3380   31.2980   44.5060 N   0  0  0  0  0  0  0  0  0  0  0  0
   57.3960   32.1560   44.9570 C   0  0  0  0  0  0  0  0  0  0  0  0
   57.9860   33.1070   44.1050 C   0  0  0  0  0  0  0  0  0  0  0  0
   58.9960   33.9460   44.5840 C   0  0  0  0  0  0  0  0  0  0  0  0
   59.4150   33.8510   45.9130 C   0  0  0  0  0  0  0  0  0  0  0  0
   58.8210   32.9190   46.7760 C   0  0  0  0  0  0  0  0  0  0  0  0
   59.3670   32.7850   48.4500 S   0  0  0  0  0  0  0  0  0  0  0  0
   58.4870   31.8070   49.1810 O   0  0  0  0  0  0  0  0  0  0  0  0
   59.2340   34.1220   49.1240 O   0  0  0  0  0  0  0  0  0  0  0  0
   61.0310   32.2560   48.5430 N   0  0  0  0  0  0  0  0  0  0  0  0
   61.3690   31.4070   47.3840 C   0  0  0  0  0  0  0  0  0  0  0  0
   62.8900   31.3670   47.1630 C   0  0  0  0  0  0  0  0  0  0  0  0
   63.4750   32.6410   46.9170 O   0  0  0  0  0  0  0  0  0  0  0  0
   62.7100   33.7290   47.4160 C   0  0  0  0  0  0  0  0  0  0  0  0
   61.9570   33.3950   48.7170 C   0  0  0  0  0  0  0  0  0  0  0  0
   57.7980   32.0900   46.2960 C   0  0  0  0  0  0  0  0  0  0  0  0
   55.1650   27.0760   45.2100 H   0  0  0  0  0  0  0  0  0  0  0  0
   58.1846   25.3969   48.3184 H   0  0  0  0  0  0  0  0  0  0  0  0
   60.1238   26.7450   49.1087 H   0  0  0  0  0  0  0  0  0  0  0  0
   61.0103   28.6047   47.7065 H   0  0  0  0  0  0  0  0  0  0  0  0
   59.9639   29.1202   45.5064 H   0  0  0  0  0  0  0  0  0  0  0  0
   57.6711   27.0592   43.6369 H   0  0  0  0  0  0  0  0  0  0  0  0
   58.1502   29.6192   43.2314 H   0  0  0  0  0  0  0  0  0  0  0  0
   57.6520   33.1905   43.0603 H   0  0  0  0  0  0  0  0  0  0  0  0
   59.4619   34.6826   43.9129 H   0  0  0  0  0  0  0  0  0  0  0  0
   60.2140   34.5098   46.2841 H   0  0  0  0  0  0  0  0  0  0  0  0
   61.0039   30.3855   47.5663 H   0  0  0  0  0  0  0  0  0  0  0  0
   60.8928   31.8288   46.4866 H   0  0  0  0  0  0  0  0  0  0  0  0
   63.3586   30.9394   48.0617 H   0  0  0  0  0  0  0  0  0  0  0  0
   63.0640   30.7589   46.2630 H   0  0  0  0  0  0  0  0  0  0  0  0
   63.3882   34.5727   47.6114 H   0  0  0  0  0  0  0  0  0  0  0  0
   61.9546   33.9737   46.6548 H   0  0  0  0  0  0  0  0  0  0  0  0
   62.6902   33.1409   49.4967 H   0  0  0  0  0  0  0  0  0  0  0  0
   61.3630   34.2759   49.0019 H   0  0  0  0  0  0  0  0  0  0  0  0
   57.3064   31.3807   46.9781 H   0  0  0  0  0  0  0  0  0  0  0  0
  1  2  1  0
  2  3  2  0
  2  4  2  0
  2  5  1  0
  5  6  2  0
  6  7  1  0
  7  8  2  0
  8  9  1  0
  9 10  2  0
 10 11  1  0
 11 12  2  3
 12 13  1  0
 13 14  2  0
 13 15  1  0
 15 16  1  0
 16 17  2  0
 17 18  1  0
 18 19  2  0
 19 20  1  0
 20 21  1  0
 21 22  2  0
 21 23  2  0
 21 24  1  0
 24 25  1  0
 25 26  1  0
 26 27  1  0
 27 28  1  0
 28 29  1  0
 20 30  2  0
 10  5  1  0
 30 16  1  0
 29 24  1  0
  1 31  1  0
  6 32  1  0
  7 33  1  0
  8 34  1  0
  9 35  1  0
 11 36  1  0
 12 37  1  0
 17 38  1  0
 18 39  1  0
 19 40  1  0
 25 41  1  0
 25 42  1  0
 26 43  1  0
 26 44  1  0
 28 45  1  0
 28 46  1  0
 29 47  1  0
 29 48  1  0
 30 49  1  0
M  CHG  2   1  -1  15  -1
M  END
>  <UniqueID>  (22) 
22

>  <SMILES>  (22) 
[NH-]S(=O)(=O)c1ccccc1C=CC(=O)[N-]c1cccc(S(=O)(=O)N2CCOCC2)c1

>  <Energy>  (22) 
75.26403718015345

>  <Genealogy>  (22) 
[NH-]S(=O)(=O)c1ccccc1C=CC(=O)[N-]c1cccc(S(=O)(=O)N2CCOCC2)c1 (protonated)
[NH-]S(=O)(=O)c1ccccc1C=CC(=O)[N-]c1cccc(S(=O)(=O)N2CCOCC2)c1 (3D coordinates assigned)
[NH-]S(=O)(=O)c1ccccc1C=CC(=O)[N-]c1cccc(S(=O)(=O)N2CCOCC2)c1 (nonaromatic ring conformer: 75.26403718015345 kcal/mol)

>  <smiles>  (22) 
NS(=O)(=O)c1ccccc1C=CC(=O)Nc1cccc(S(=O)(=O)N2CCOCC2)c1

>  <score_type>  (22) 
oracle

>  <origin>  (22) 
adg

>  <m_score__min__energy>  (22) 
-15.02

>  <m_primary>  (22) 
energy

$$$$
22:0
     RDKit          3D

 47 49  0  0  0  0  0  0  0  0999 V2000
   59.0820   30.3340   50.1850 C   0  0  0  0  0  0  0  0  0  0  0  0
   60.0970   30.3510   49.0280 C   0  0  0  0  0  0  0  0  0  0  0  0
   61.5310   30.3750   49.5770 C   0  0  0  0  0  0  0  0  0  0  0  0
   59.9090   29.1770   48.1680 N   0  0  0  0  0  0  0  0  0  0  0  0
   60.1040   27.8360   48.6530 C   0  0  0  0  0  0  0  0  0  0  0  0
   60.4180   27.6300   49.8570 O   0  0  0  0  0  0  0  0  0  0  0  0
   59.8400   26.6670   47.7520 C   0  0  0  0  0  0  0  0  0  0  0  0
   58.6930   26.9530   46.8950 N   0  0  0  0  0  0  0  0  0  0  0  0
   57.4160   26.5770   47.1060 C   0  0  0  0  0  0  0  0  0  0  0  0
   56.6470   27.1190   46.0980 C   0  0  0  0  0  0  0  0  0  0  0  0
   55.2710   26.9730   45.9640 O   0  0  0  0  0  0  0  0  0  0  0  0
   57.4300   27.8290   45.2580 N   0  0  0  0  0  0  0  0  0  0  0  0
   57.0320   28.5470   44.0440 C   0  0  0  0  0  0  0  0  0  0  0  0
   56.6520   29.9680   44.3720 C   0  0  0  0  0  0  0  0  0  0  0  0
   55.5120   30.2020   44.8600 O   0  0  0  0  0  0  0  0  0  0  0  0
   57.5870   31.0490   44.2230 N   0  0  0  0  0  0  0  0  0  0  0  0
   57.8930   31.6500   42.9220 C   0  0  0  0  0  0  0  0  0  0  0  0
   58.4200   33.0750   43.2210 C   0  0  0  0  0  0  0  0  0  0  0  0
   58.4950   33.1080   44.7070 C   0  0  0  0  0  0  0  0  0  0  0  0
   58.9940   34.1280   45.5200 C   0  0  0  0  0  0  0  0  0  0  0  0
   59.0130   33.9260   46.9110 C   0  0  0  0  0  0  0  0  0  0  0  0
   58.5530   32.7130   47.4590 C   0  0  0  0  0  0  0  0  0  0  0  0
   58.0580   31.7010   46.6190 C   0  0  0  0  0  0  0  0  0  0  0  0
   58.0110   31.9440   45.2410 C   0  0  0  0  0  0  0  0  0  0  0  0
   58.6680   27.7180   45.7830 C   0  0  0  0  0  0  0  0  0  0  0  0
   59.6890   28.2750   45.2910 O   0  0  0  0  0  0  0  0  0  0  0  0
   59.6197   30.3430   51.1446 H   0  0  0  0  0  0  0  0  0  0  0  0
   58.4354   31.2214   50.1186 H   0  0  0  0  0  0  0  0  0  0  0  0
   58.4655   29.4254   50.1186 H   0  0  0  0  0  0  0  0  0  0  0  0
   59.9300   31.2594   48.4306 H   0  0  0  0  0  0  0  0  0  0  0  0
   61.5027   30.3745   50.6766 H   0  0  0  0  0  0  0  0  0  0  0  0
   62.0738   29.4858   49.2238 H   0  0  0  0  0  0  0  0  0  0  0  0
   62.0437   31.2819   49.2238 H   0  0  0  0  0  0  0  0  0  0  0  0
   59.5470   29.3020   47.1920 H   0  0  0  0  0  0  0  0  0  0  0  0
   60.7256   26.4803   47.1268 H   0  0  0  0  0  0  0  0  0  0  0  0
   59.6243   25.7783   48.3634 H   0  0  0  0  0  0  0  0  0  0  0  0
   57.0526   25.9503   47.9337 H   0  0  0  0  0  0  0  0  0  0  0  0
   57.8723   28.5516   43.3342 H   0  0  0  0  0  0  0  0  0  0  0  0
   56.1630   28.0399   43.5994 H   0  0  0  0  0  0  0  0  0  0  0  0
   58.6613   31.0604   42.4003 H   0  0  0  0  0  0  0  0  0  0  0  0
   57.0052   31.6776   42.2731 H   0  0  0  0  0  0  0  0  0  0  0  0
   59.4125   33.2301   42.7729 H   0  0  0  0  0  0  0  0  0  0  0  0
   57.7797   33.8667   42.8048 H   0  0  0  0  0  0  0  0  0  0  0  0
   59.3634   35.0671   45.0823 H   0  0  0  0  0  0  0  0  0  0  0  0
   59.3888   34.7189   47.5744 H   0  0  0  0  0  0  0  0  0  0  0  0
   58.5813   32.5573   48.5476 H   0  0  0  0  0  0  0  0  0  0  0  0
   57.7158   30.7415   47.0340 H   0  0  0  0  0  0  0  0  0  0  0  0
  1  2  1  0
  2  3  1  0
  2  4  1  0
  4  5  1  0
  5  6  2  0
  5  7  1  0
  7  8  1  0
  8  9  1  0
  9 10  2  0
 10 11  1  0
 10 12  1  0
 12 13  1  0
 13 14  1  0
 14 15  2  0
 14 16  1  0
 16 17  1  0
 17 18  1  0
 18 19  1  0
 19 20  2  0
 20 21  1  0
 21 22  2  0
 22 23  1  0
 23 24  2  0
 12 25  1  0
 25 26  2  0
 25  8  1  0
 24 16  1  0
 24 19  1  0
  1 27  1  0
  1 28  1  0
  1 29  1  0
  2 30  1  0
  3 31  1  0
  3 32  1  0
  3 33  1  0
  4 34  1  0
  7 35  1  0
  7 36  1  0
  9 37  1  0
 13 38  1  0
 13 39  1  0
 17 40  1  0
 17 41  1  0
 18 42  1  0
 18 43  1  0
 20 44  1  0
 21 45  1  0
 22 46  1  0
 23 47  1  0
M  CHG  1  11  -1
M  END
>  <UniqueID>  (23) 
23

>  <SMILES>  (23) 
CC(C)NC(=O)Cn1cc([O-])n(CC(=O)N2CCc3ccccc32)c1=O

>  <Energy>  (23) 
90.8686213017975

>  <Genealogy>  (23) 
CC(C)NC(=O)Cn1cc([O-])n(CC(=O)N2CCc3ccccc32)c1=O (protonated)
CC(C)NC(=O)Cn1cc([O-])n(CC(=O)N2CCc3ccccc32)c1=O (3D coordinates assigned)
CC(C)NC(=O)Cn1cc([O-])n(CC(=O)N2CCc3ccccc32)c1=O (nonaromatic ring conformer: 90.8686213017975 kcal/mol)

>  <smiles>  (23) 
CC(C)NC(=O)Cn1cc(O)n(CC(=O)N2CCc3ccccc32)c1=O

>  <score_type>  (23) 
oracle

>  <origin>  (23) 
adg

>  <m_score__min__energy>  (23) 
-11.26

>  <m_primary>  (23) 
energy

$$$$
23:0
     RDKit          3D

 44 47  0  0  0  0  0  0  0  0999 V2000
   54.4420   24.7828   46.0388 H   0  0  0  0  0  0  0  0  0  0  0  0
   55.4400   25.2390   45.9620 C   0  0  0  0  0  0  0  0  0  0  0  0
   55.5730   26.5920   45.9880 N   0  0  0  0  0  0  0  0  0  0  0  0
   56.7880   27.2050   45.8910 C   0  0  0  0  0  0  0  0  0  0  0  0
   56.8850   28.5050   45.9420 N   0  0  0  0  0  0  0  0  0  0  0  0
   56.3890   29.4370   44.9680 C   0  0  0  0  0  0  0  0  0  0  0  0
   55.2500   29.2400   44.4690 O   0  0  0  0  0  0  0  0  0  0  0  0
   57.1280   30.6650   44.6140 C   0  0  0  0  0  0  0  0  0  0  0  0
   57.0960   31.0800   43.4240 O   0  0  0  0  0  0  0  0  0  0  0  0
   57.9590   31.3820   45.5990 C   0  0  0  0  0  0  0  0  0  0  0  0
   58.5210   30.8220   46.7420 C   0  0  0  0  0  0  0  0  0  0  0  0
   58.3953   29.7749   47.0546 H   0  0  0  0  0  0  0  0  0  0  0  0
   59.2440   31.7470   47.4150 N   0  0  0  0  0  0  0  0  0  0  0  0
   60.0400   31.4960   48.6180 C   0  0  0  0  0  0  0  0  0  0  0  0
   59.5532   31.9725   49.4817 H   0  0  0  0  0  0  0  0  0  0  0  0
   60.1132   30.4104   48.7797 H   0  0  0  0  0  0  0  0  0  0  0  0
   61.4240   32.0620   48.4530 C   0  0  0  0  0  0  0  0  0  0  0  0
   61.8920   33.0730   49.3090 C   0  0  0  0  0  0  0  0  0  0  0  0
   61.2512   33.4413   50.1237 H   0  0  0  0  0  0  0  0  0  0  0  0
   63.1700   33.6130   49.1290 C   0  0  0  0  0  0  0  0  0  0  0  0
   63.5324   34.4033   49.8029 H   0  0  0  0  0  0  0  0  0  0  0  0
   63.9860   33.1500   48.0950 C   0  0  0  0  0  0  0  0  0  0  0  0
   64.9903   33.5765   47.9550 H   0  0  0  0  0  0  0  0  0  0  0  0
   63.5290   32.1460   47.2380 C   0  0  0  0  0  0  0  0  0  0  0  0
   64.1741   31.7816   46.4250 H   0  0  0  0  0  0  0  0  0  0  0  0
   62.2520   31.6040   47.4130 C   0  0  0  0  0  0  0  0  0  0  0  0
   61.8937   30.8160   46.7342 H   0  0  0  0  0  0  0  0  0  0  0  0
   59.1710   32.8850   46.6940 C   0  0  0  0  0  0  0  0  0  0  0  0
   59.7960   34.1090   46.9520 C   0  0  0  0  0  0  0  0  0  0  0  0
   60.4075   34.2524   47.8551 H   0  0  0  0  0  0  0  0  0  0  0  0
   59.6210   35.1510   46.0250 C   0  0  0  0  0  0  0  0  0  0  0  0
   60.0920   36.1284   46.2060 H   0  0  0  0  0  0  0  0  0  0  0  0
   58.8450   34.9510   44.8640 C   0  0  0  0  0  0  0  0  0  0  0  0
   58.7203   35.7717   44.1423 H   0  0  0  0  0  0  0  0  0  0  0  0
   58.2300   33.7100   44.6230 C   0  0  0  0  0  0  0  0  0  0  0  0
   57.6367   33.5399   43.7125 H   0  0  0  0  0  0  0  0  0  0  0  0
   58.3940   32.6990   45.5730 C   0  0  0  0  0  0  0  0  0  0  0  0
   57.9500   26.4170   45.7760 C   0  0  0  0  0  0  0  0  0  0  0  0
   59.2610   27.0160   45.6850 C   0  0  0  0  0  0  0  0  0  0  0  0
   60.3100   27.4960   45.6130 N   0  0  0  0  0  0  0  0  0  0  0  0
   57.8280   25.0230   45.7460 C   0  0  0  0  0  0  0  0  0  0  0  0
   58.7257   24.3947   45.6498 H   0  0  0  0  0  0  0  0  0  0  0  0
   56.5690   24.4300   45.8380 C   0  0  0  0  0  0  0  0  0  0  0  0
   56.4676   23.3350   45.8130 H   0  0  0  0  0  0  0  0  0  0  0  0
  1  2  1  0
  2  3  1  0
  3  4  1  0
  4  5  2  0
  5  6  1  0
  6  7  2  0
  6  8  1  0
  8  9  2  0
  8 10  1  0
 10 11  2  0
 11 12  1  0
 11 13  1  0
 13 14  1  0
 14 15  1  0
 14 16  1  0
 14 17  1  0
 17 18  2  0
 18 19  1  0
 18 20  1  0
 20 21  1  0
 20 22  2  0
 22 23  1  0
 22 24  1  0
 24 25  1  0
 24 26  2  0
 26 27  1  0
 13 28  1  0
 28 29  2  0
 29 30  1  0
 29 31  1  0
 31 32  1  0
 31 33  2  0
 33 34  1  0
 33 35  1  0
 35 36  1  0
 35 37  2  0
  4 38  1  0
 38 39  1  0
 39 40  3  0
 38 41  2  0
 41 42  1  0
 41 43  1  0
 43 44  1  0
 43  2  2  0
 37 10  1  0
 26 17  1  0
 37 28  1  0
M  CHG  1   3  -1
M  END
>  <UniqueID>  (24) 
24

>  <SMILES>  (24) 
N#Cc1ccc[n-]/c1=N\C(=O)C(=O)c1cn(Cc2ccccc2)c2ccccc12

>  <Energy>  (24) 
91.55081672223042

>  <Genealogy>  (24) 
N#Cc1ccc[n-]c1=NC(=O)C(=O)c1cn(Cc2ccccc2)c2ccccc12 (protonated)
N#Cc1ccc[n-]/c1=N\C(=O)C(=O)c1cn(Cc2ccccc2)c2ccccc12 (cis-trans isomerization)
N#Cc1ccc[n-]/c1=N\C(=O)C(=O)c1cn(Cc2ccccc2)c2ccccc12 (3D coordinates assigned)
N#Cc1ccc[n-]/c1=N\C(=O)C(=O)c1cn(Cc2ccccc2)c2ccccc12 (optimized conformer: 91.55081672223042 kcal/mol)

>  <smiles>  (24) 
N#Cc1ccc[nH]c1=NC(=O)C(=O)c1cn(Cc2ccccc2)c2ccccc12

>  <score_type>  (24) 
oracle

>  <origin>  (24) 
adg

>  <m_score__min__energy>  (24) 
-11.15

>  <m_primary>  (24) 
energy

$$$$
24:0
     RDKit          3D

 43 45  0  0  0  0  0  0  0  0999 V2000
   57.0640   25.3320   47.1180 N   0  0  0  0  0  0  0  0  0  0  0  0
   57.2540   24.3500   46.0920 C   0  0  0  0  0  0  0  0  0  0  0  0
   57.2870   22.9910   46.4450 C   0  0  0  0  0  0  0  0  0  0  0  0
   57.3900   22.0060   45.4600 C   0  0  0  0  0  0  0  0  0  0  0  0
   57.4520   22.3670   44.1140 C   0  0  0  0  0  0  0  0  0  0  0  0
   57.4300   23.7140   43.7490 C   0  0  0  0  0  0  0  0  0  0  0  0
   57.3560   24.7160   44.7280 C   0  0  0  0  0  0  0  0  0  0  0  0
   57.3730   26.0900   44.3160 N   0  0  0  0  0  0  0  0  0  0  0  0
   58.2430   27.0610   44.9210 C   0  0  0  0  0  0  0  0  0  0  0  0
   59.1470   26.6790   45.7150 O   0  0  0  0  0  0  0  0  0  0  0  0
   58.1100   28.5050   44.6090 C   0  0  0  0  0  0  0  0  0  0  0  0
   59.0190   29.4450   45.1280 C   0  0  0  0  0  0  0  0  0  0  0  0
   58.8890   30.8020   44.8210 C   0  0  0  0  0  0  0  0  0  0  0  0
   57.8460   31.2460   43.9970 C   0  0  0  0  0  0  0  0  0  0  0  0
   57.7320   32.7030   43.6340 C   0  0  0  0  0  0  0  0  0  0  0  0
   57.3080   33.4920   44.7910 N   0  0  0  0  0  0  0  0  0  0  0  0
   58.1590   33.7570   45.9220 C   0  0  0  0  0  0  0  0  0  0  0  0
   57.9970   33.0810   47.1480 C   0  0  0  0  0  0  0  0  0  0  0  0
   58.8420   33.3620   48.2270 C   0  0  0  0  0  0  0  0  0  0  0  0
   59.8520   34.3170   48.0970 C   0  0  0  0  0  0  0  0  0  0  0  0
   60.6700   34.5880   49.1450 F   0  0  0  0  0  0  0  0  0  0  0  0
   60.0220   34.9930   46.8870 C   0  0  0  0  0  0  0  0  0  0  0  0
   59.1810   34.7150   45.8050 C   0  0  0  0  0  0  0  0  0  0  0  0
   56.9530   30.3110   43.4550 C   0  0  0  0  0  0  0  0  0  0  0  0
   57.0820   28.9530   43.7600 C   0  0  0  0  0  0  0  0  0  0  0  0
   56.3270   25.2280   47.8490 H   0  0  0  0  0  0  0  0  0  0  0  0
   57.7170   26.1430   47.2040 H   0  0  0  0  0  0  0  0  0  0  0  0
   57.2313   22.7003   47.5044 H   0  0  0  0  0  0  0  0  0  0  0  0
   57.4223   20.9443   45.7460 H   0  0  0  0  0  0  0  0  0  0  0  0
   57.5183   21.5890   43.3392 H   0  0  0  0  0  0  0  0  0  0  0  0
   57.4710   23.9920   42.6855 H   0  0  0  0  0  0  0  0  0  0  0  0
   56.9290   26.3250   43.4000 H   0  0  0  0  0  0  0  0  0  0  0  0
   59.8384   29.1091   45.7805 H   0  0  0  0  0  0  0  0  0  0  0  0
   59.6097   31.5262   45.2286 H   0  0  0  0  0  0  0  0  0  0  0  0
   58.7107   33.0667   43.2879 H   0  0  0  0  0  0  0  0  0  0  0  0
   56.9813   32.8116   42.8373 H   0  0  0  0  0  0  0  0  0  0  0  0
   56.3390   33.8870   44.8030 H   0  0  0  0  0  0  0  0  0  0  0  0
   57.2021   32.3286   47.2571 H   0  0  0  0  0  0  0  0  0  0  0  0
   58.7103   32.8291   49.1802 H   0  0  0  0  0  0  0  0  0  0  0  0
   60.8183   35.7450   46.7849 H   0  0  0  0  0  0  0  0  0  0  0  0
   59.3203   35.2505   44.8543 H   0  0  0  0  0  0  0  0  0  0  0  0
   56.1469   30.6477   42.7865 H   0  0  0  0  0  0  0  0  0  0  0  0
   56.3734   28.2284   43.3323 H   0  0  0  0  0  0  0  0  0  0  0  0
  1  2  1  0
  2  3  2  0
  3  4  1  0
  4  5  2  0
  5  6  1  0
  6  7  2  0
  7  8  1  0
  8  9  1  0
  9 10  2  0
  9 11  1  0
 11 12  2  0
 12 13  1  0
 13 14  2  0
 14 15  1  0
 15 16  1  0
 16 17  1  0
 17 18  2  0
 18 19  1  0
 19 20  2  0
 20 21  1  0
 20 22  1  0
 22 23  2  0
 14 24  1  0
 24 25  2  0
  7  2  1  0
 25 11  1  0
 23 17  1  0
  1 26  1  0
  1 27  1  0
  3 28  1  0
  4 29  1  0
  5 30  1  0
  6 31  1  0
  8 32  1  0
 12 33  1  0
 13 34  1  0
 15 35  1  0
 15 36  1  0
 16 37  1  0
 18 38  1  0
 19 39  1  0
 22 40  1  0
 23 41  1  0
 24 42  1  0
 25 43  1  0
M  END
>  <UniqueID>  (25) 
25

>  <SMILES>  (25) 
Nc1ccccc1NC(=O)c1ccc(CNc2ccc(F)cc2)cc1

>  <Energy>  (25) 
52.8488684288181

>  <Genealogy>  (25) 
Nc1ccccc1NC(=O)c1ccc(CNc2ccc(F)cc2)cc1 (3D coordinates assigned)
Nc1ccccc1NC(=O)c1ccc(CNc2ccc(F)cc2)cc1 (optimized conformer: 52.8488684288181 kcal/mol)

>  <smiles>  (25) 
Nc1ccccc1NC(=O)c1ccc(CNc2ccc(F)cc2)cc1

>  <score_type>  (25) 
oracle

>  <origin>  (25) 
adg

>  <m_score__min__energy>  (25) 
-8.4600000000000009

>  <m_primary>  (25) 
energy

$$$$
25:0
     RDKit          3D

 44 46  0  0  0  0  0  0  0  0999 V2000
   64.0350   33.1100   47.3000 C   0  0  0  0  0  0  0  0  0  0  0  0
   64.1480   33.2910   48.7850 C   0  0  0  0  0  0  0  0  0  0  0  0
   65.2660   33.1170   49.3350 O   0  0  0  0  0  0  0  0  0  0  0  0
   63.0150   33.6170   49.6020 N   0  0  0  0  0  0  0  0  0  0  0  0
   61.6340   33.5510   49.2190 C   0  0  0  0  0  0  0  0  0  0  0  0
   60.7210   32.9440   50.0880 C   0  0  0  0  0  0  0  0  0  0  0  0
   59.3660   32.8790   49.7560 C   0  0  0  0  0  0  0  0  0  0  0  0
   58.9090   33.4380   48.5600 C   0  0  0  0  0  0  0  0  0  0  0  0
   59.8050   34.0800   47.6850 C   0  0  0  0  0  0  0  0  0  0  0  0
   59.3190   34.6850   46.4220 C   0  0  0  0  0  0  0  0  0  0  0  0
   59.6070   35.8810   46.1480 O   0  0  0  0  0  0  0  0  0  0  0  0
   58.4890   33.9210   45.5340 N   0  0  0  0  0  0  0  0  0  0  0  0
   58.3960   32.4940   45.4620 C   0  0  0  0  0  0  0  0  0  0  0  0
   59.4230   31.5800   45.6370 C   0  0  0  0  0  0  0  0  0  0  0  0
   58.8380   30.3390   45.4940 C   0  0  0  0  0  0  0  0  0  0  0  0
   57.4980   30.5780   45.2440 C   0  0  0  0  0  0  0  0  0  0  0  0
   56.4670   29.5590   45.0240 C   0  0  0  0  0  0  0  0  0  0  0  0
   55.2750   29.9150   44.8230 O   0  0  0  0  0  0  0  0  0  0  0  0
   56.8160   28.1700   45.0380 N   0  0  0  0  0  0  0  0  0  0  0  0
   57.0560   27.4100   46.2590 C   0  0  0  0  0  0  0  0  0  0  0  0
   56.7940   25.9440   46.0240 C   0  0  0  0  0  0  0  0  0  0  0  0
   57.8650   25.0340   45.9840 C   0  0  0  0  0  0  0  0  0  0  0  0
   57.6260   23.6710   45.7890 C   0  0  0  0  0  0  0  0  0  0  0  0
   56.3190   23.2040   45.6370 C   0  0  0  0  0  0  0  0  0  0  0  0
   55.2470   24.0990   45.6800 C   0  0  0  0  0  0  0  0  0  0  0  0
   55.4780   25.4660   45.8750 C   0  0  0  0  0  0  0  0  0  0  0  0
   54.3960   26.3390   45.9220 O   0  0  0  0  0  0  0  0  0  0  0  0
   57.2650   31.8700   45.2330 O   0  0  0  0  0  0  0  0  0  0  0  0
   61.1690   34.1420   48.0310 C   0  0  0  0  0  0  0  0  0  0  0  0
   63.4638   32.1950   47.0846 H   0  0  0  0  0  0  0  0  0  0  0  0
   63.5173   33.9768   46.8633 H   0  0  0  0  0  0  0  0  0  0  0  0
   65.0411   33.0255   46.8633 H   0  0  0  0  0  0  0  0  0  0  0  0
   61.0724   32.5155   51.0382 H   0  0  0  0  0  0  0  0  0  0  0  0
   58.6570   32.3865   50.4378 H   0  0  0  0  0  0  0  0  0  0  0  0
   57.8418   33.3759   48.3005 H   0  0  0  0  0  0  0  0  0  0  0  0
   60.4808   31.7980   45.8458 H   0  0  0  0  0  0  0  0  0  0  0  0
   59.3348   29.3601   45.5643 H   0  0  0  0  0  0  0  0  0  0  0  0
   58.1020   27.5460   46.5712 H   0  0  0  0  0  0  0  0  0  0  0  0
   56.3774   27.7728   47.0450 H   0  0  0  0  0  0  0  0  0  0  0  0
   58.8962   25.3967   46.1068 H   0  0  0  0  0  0  0  0  0  0  0  0
   58.4689   22.9650   45.7552 H   0  0  0  0  0  0  0  0  0  0  0  0
   56.1332   22.1308   45.4833 H   0  0  0  0  0  0  0  0  0  0  0  0
   54.2182   23.7284   45.5603 H   0  0  0  0  0  0  0  0  0  0  0  0
   61.8770   34.6576   47.3655 H   0  0  0  0  0  0  0  0  0  0  0  0
  1  2  1  0
  2  3  2  0
  2  4  1  0
  4  5  1  0
  5  6  2  0
  6  7  1  0
  7  8  2  0
  8  9  1  0
  9 10  1  0
 10 11  2  0
 10 12  1  0
 12 13  1  0
 13 14  2  0
 14 15  1  0
 15 16  2  0
 16 17  1  0
 17 18  2  0
 17 19  1  0
 19 20  1  0
 20 21  1  0
 21 22  2  0
 22 23  1  0
 23 24  2  0
 24 25  1  0
 25 26  2  0
 26 27  1  0
 16 28  1  0
  9 29  2  0
 29  5  1  0
 28 13  1  0
 26 21  1  0
  1 30  1  0
  1 31  1  0
  1 32  1  0
  6 33  1  0
  7 34  1  0
  8 35  1  0
 14 36  1  0
 15 37  1  0
 20 38  1  0
 20 39  1  0
 22 40  1  0
 23 41  1  0
 24 42  1  0
 25 43  1  0
 29 44  1  0
M  CHG  4   4  -1  12  -1  19  -1  27  -1
M  END
>  <UniqueID>  (26) 
26

>  <SMILES>  (26) 
CC(=O)[N-]c1cccc(C(=O)[N-]c2ccc(C(=O)[N-]Cc3ccccc3[O-])o2)c1

>  <Energy>  (26) 
76.28396280070123

>  <Genealogy>  (26) 
CC(=O)[N-]c1cccc(C(=O)[N-]c2ccc(C(=O)[N-]Cc3ccccc3[O-])o2)c1 (protonated)
CC(=O)[N-]c1cccc(C(=O)[N-]c2ccc(C(=O)[N-]Cc3ccccc3[O-])o2)c1 (3D coordinates assigned)
CC(=O)[N-]c1cccc(C(=O)[N-]c2ccc(C(=O)[N-]Cc3ccccc3[O-])o2)c1 (optimized conformer: 76.28396280070123 kcal/mol)

>  <smiles>  (26) 
CC(=O)Nc1cccc(C(=O)Nc2ccc(C(=O)NCc3ccccc3O)o2)c1

>  <score_type>  (26) 
oracle

>  <origin>  (26) 
adg

>  <m_score__min__energy>  (26) 
-16.940000000000001

>  <m_primary>  (26) 
energy

$$$$
26:0
     RDKit          3D

 45 47  0  0  0  0  0  0  0  0999 V2000
   58.4013   24.0394   47.3032 H   0  0  0  0  0  0  0  0  0  0  0  0
   57.3680   23.6710   47.2220 C   0  0  0  0  0  0  0  0  0  0  0  0
   56.9910   22.5590   47.9070 N   0  0  0  0  0  0  0  0  0  0  0  0
   55.7260   22.0660   47.8350 C   0  0  0  0  0  0  0  0  0  0  0  0
   55.4170   21.0360   48.4880 O   0  0  0  0  0  0  0  0  0  0  0  0
   54.7750   22.7010   47.0340 C   0  0  0  0  0  0  0  0  0  0  0  0
   53.7509   22.3050   46.9676 H   0  0  0  0  0  0  0  0  0  0  0  0
   55.1370   23.8440   46.3180 C   0  0  0  0  0  0  0  0  0  0  0  0
   54.3965   24.3480   45.6795 H   0  0  0  0  0  0  0  0  0  0  0  0
   56.4440   24.3530   46.4100 C   0  0  0  0  0  0  0  0  0  0  0  0
   56.8350   25.5620   45.6460 C   0  0  0  0  0  0  0  0  0  0  0  0
   57.3890   25.4330   44.5200 O   0  0  0  0  0  0  0  0  0  0  0  0
   56.5480   26.8780   46.1500 N   0  0  0  0  0  0  0  0  0  0  0  0
   55.7330   26.9890   46.7960 H   0  0  0  0  0  0  0  0  0  0  0  0
   57.2330   28.0640   45.7110 C   0  0  0  0  0  0  0  0  0  0  0  0
   58.6120   28.2290   45.9380 C   0  0  0  0  0  0  0  0  0  0  0  0
   59.1826   27.4234   46.4232 H   0  0  0  0  0  0  0  0  0  0  0  0
   59.2690   29.4090   45.5530 C   0  0  0  0  0  0  0  0  0  0  0  0
   60.7600   29.5370   45.7700 C   0  0  0  0  0  0  0  0  0  0  0  0
   61.1676   30.2406   45.0292 H   0  0  0  0  0  0  0  0  0  0  0  0
   61.2066   28.5380   45.6578 H   0  0  0  0  0  0  0  0  0  0  0  0
   61.0790   30.0270   47.1130 N   0  0  0  0  0  0  0  0  0  0  0  0
   61.1580   31.2340   47.6080 C   0  0  0  0  0  0  0  0  0  0  0  0
   62.1230   32.0380   47.0870 N   0  0  0  0  0  0  0  0  0  0  0  0
   62.3140   33.3240   47.4720 C   0  0  0  0  0  0  0  0  0  0  0  0
   63.4120   34.1300   46.8550 C   0  0  0  0  0  0  0  0  0  0  0  0
   64.0262   34.5809   47.6484 H   0  0  0  0  0  0  0  0  0  0  0  0
   64.0402   33.4770   46.2314 H   0  0  0  0  0  0  0  0  0  0  0  0
   62.9773   34.9250   46.2314 H   0  0  0  0  0  0  0  0  0  0  0  0
   61.5000   33.8780   48.4580 C   0  0  0  0  0  0  0  0  0  0  0  0
   61.6506   34.9199   48.7770 H   0  0  0  0  0  0  0  0  0  0  0  0
   60.4900   33.1040   49.0410 C   0  0  0  0  0  0  0  0  0  0  0  0
   59.6320   33.7200   50.1190 C   0  0  0  0  0  0  0  0  0  0  0  0
   60.0253   33.4376   51.1067 H   0  0  0  0  0  0  0  0  0  0  0  0
   59.6465   34.8153   50.0180 H   0  0  0  0  0  0  0  0  0  0  0  0
   58.5989   33.3561   50.0180 H   0  0  0  0  0  0  0  0  0  0  0  0
   60.3100   31.7600   48.6320 C   0  0  0  0  0  0  0  0  0  0  0  0
   59.3070   30.9730   49.3160 C   0  0  0  0  0  0  0  0  0  0  0  0
   58.4960   30.3340   49.8390 N   0  0  0  0  0  0  0  0  0  0  0  0
   58.5430   30.4100   44.8870 C   0  0  0  0  0  0  0  0  0  0  0  0
   59.0574   31.3156   44.5330 H   0  0  0  0  0  0  0  0  0  0  0  0
   57.1710   30.2610   44.6720 C   0  0  0  0  0  0  0  0  0  0  0  0
   56.6052   31.0609   44.1719 H   0  0  0  0  0  0  0  0  0  0  0  0
   56.5140   29.1010   45.0890 C   0  0  0  0  0  0  0  0  0  0  0  0
   55.1460   28.9770   44.8680 O   0  0  0  0  0  0  0  0  0  0  0  0
  1  2  1  0
  2  3  1  0
  3  4  1  0
  4  5  2  0
  4  6  1  0
  6  7  1  0
  6  8  2  0
  8  9  1  0
  8 10  1  0
 10 11  1  0
 11 12  2  0
 11 13  1  0
 13 14  1  0
 13 15  1  0
 15 16  2  0
 16 17  1  0
 16 18  1  0
 18 19  1  0
 19 20  1  0
 19 21  1  0
 19 22  1  0
 22 23  2  0
 23 24  1  0
 24 25  1  0
 25 26  1  0
 26 27  1  0
 26 28  1  0
 26 29  1  0
 25 30  2  0
 30 31  1  0
 30 32  1  0
 32 33  1  0
 33 34  1  0
 33 35  1  0
 33 36  1  0
 32 37  2  0
 37 38  1  0
 38 39  3  0
 18 40  2  0
 40 41  1  0
 40 42  1  0
 42 43  1  0
 42 44  2  0
 44 45  1  0
 10  2  2  0
 44 15  1  0
 37 23  1  0
M  CHG  3   3  -1  24  -1  45  -1
M  END
>  <UniqueID>  (27) 
27

>  <SMILES>  (27) 
Cc1cc(C)c(C#N)/c(=N\Cc2ccc([O-])c(NC(=O)c3ccc(=O)[n-]c3)c2)[n-]1

>  <Energy>  (27) 
64.05557207351765

>  <Genealogy>  (27) 
Cc1cc(C)c(C#N)c(=NCc2ccc([O-])c(NC(=O)c3ccc(=O)[n-]c3)c2)[n-]1 (protonated)
Cc1cc(C)c(C#N)/c(=N\Cc2ccc([O-])c(NC(=O)c3ccc(=O)[n-]c3)c2)[n-]1 (cis-trans isomerization)
Cc1cc(C)c(C#N)/c(=N\Cc2ccc([O-])c(NC(=O)c3ccc(=O)[n-]c3)c2)[n-]1 (3D coordinates assigned)
Cc1cc(C)c(C#N)/c(=N\Cc2ccc([O-])c(NC(=O)c3ccc(=O)[n-]c3)c2)[n-]1 (optimized conformer: 64.05557207351765 kcal/mol)

>  <smiles>  (27) 
Cc1cc(C)c(C#N)c(=NCc2ccc(O)c(NC(=O)c3ccc(=O)[nH]c3)c2)[nH]1

>  <score_type>  (27) 
oracle

>  <origin>  (27) 
adg

>  <m_score__min__energy>  (27) 
-13.44

>  <m_primary>  (27) 
energy

$$$$
27:0
     RDKit          3D

 59 61  0  0  0  0  0  0  0  0999 V2000
   54.2157   24.6445   46.0176 H   0  0  0  0  0  0  0  0  0  0  0  0
   55.1780   25.0510   45.6730 C   0  0  0  0  0  0  0  0  0  0  0  0
   55.5230   26.3300   45.9800 N   0  0  0  0  0  0  0  0  0  0  0  0
   56.7080   26.8760   45.5840 C   0  0  0  0  0  0  0  0  0  0  0  0
   57.0210   28.1050   45.8770 N   0  0  0  0  0  0  0  0  0  0  0  0
   56.5700   29.2980   45.2090 C   0  0  0  0  0  0  0  0  0  0  0  0
   55.4570   29.3200   44.6170 O   0  0  0  0  0  0  0  0  0  0  0  0
   57.4150   30.5160   45.2300 C   0  0  0  0  0  0  0  0  0  0  0  0
   57.0340   31.6620   44.5070 C   0  0  0  0  0  0  0  0  0  0  0  0
   56.1026   31.6537   43.9219 H   0  0  0  0  0  0  0  0  0  0  0  0
   57.8300   32.8100   44.5270 C   0  0  0  0  0  0  0  0  0  0  0  0
   57.5259   33.6963   43.9508 H   0  0  0  0  0  0  0  0  0  0  0  0
   59.0170   32.8390   45.2790 C   0  0  0  0  0  0  0  0  0  0  0  0
   59.8760   33.9900   45.2960 N   0  0  0  0  0  0  0  0  0  0  0  0
   59.7470   35.1300   46.1570 C   0  0  0  0  0  0  0  0  0  0  0  0
   59.7150   36.2940   45.6800 O   0  0  0  0  0  0  0  0  0  0  0  0
   59.7350   34.9610   47.5750 N   0  0  0  0  0  0  0  0  0  0  0  0
   60.0150   33.9090   48.2950 C   0  0  0  0  0  0  0  0  0  0  0  0
   59.0370   33.0890   48.8110 C   0  0  0  0  0  0  0  0  0  0  0  0
   57.9489   33.1660   48.6695 H   0  0  0  0  0  0  0  0  0  0  0  0
   59.7310   32.1470   49.5470 C   0  0  0  0  0  0  0  0  0  0  0  0
   59.1200   31.0030   50.3390 C   0  0  0  0  0  0  0  0  0  0  0  0
   58.8790   29.7810   49.4280 C   0  0  0  0  0  0  0  0  0  0  0  0
   58.7033   28.8900   50.0486 H   0  0  0  0  0  0  0  0  0  0  0  0
   57.9998   29.9648   48.7930 H   0  0  0  0  0  0  0  0  0  0  0  0
   59.7621   29.6172   48.7930 H   0  0  0  0  0  0  0  0  0  0  0  0
   57.7740   31.4580   50.9340 C   0  0  0  0  0  0  0  0  0  0  0  0
   57.8331   31.4380   52.0322 H   0  0  0  0  0  0  0  0  0  0  0  0
   57.5515   32.4813   50.5973 H   0  0  0  0  0  0  0  0  0  0  0  0
   56.9762   30.7796   50.5973 H   0  0  0  0  0  0  0  0  0  0  0  0
   60.0780   30.5970   51.4750 C   0  0  0  0  0  0  0  0  0  0  0  0
   59.6019   30.7988   52.4459 H   0  0  0  0  0  0  0  0  0  0  0  0
   60.3076   29.5242   51.3952 H   0  0  0  0  0  0  0  0  0  0  0  0
   61.0086   31.1781   51.3952 H   0  0  0  0  0  0  0  0  0  0  0  0
   61.0560   32.3760   49.4330 N   0  0  0  0  0  0  0  0  0  0  0  0
   61.2400   33.4410   48.6640 N   0  0  0  0  0  0  0  0  0  0  0  0
   62.5880   33.8190   48.2100 C   0  0  0  0  0  0  0  0  0  0  0  0
   62.5493   34.8273   47.7720 H   0  0  0  0  0  0  0  0  0  0  0  0
   63.5510   33.8320   49.4000 C   0  0  0  0  0  0  0  0  0  0  0  0
   62.9756   33.8242   50.3375 H   0  0  0  0  0  0  0  0  0  0  0  0
   64.1968   32.9425   49.3588 H   0  0  0  0  0  0  0  0  0  0  0  0
   64.1726   34.7386   49.3588 H   0  0  0  0  0  0  0  0  0  0  0  0
   63.0800   32.8430   47.1340 C   0  0  0  0  0  0  0  0  0  0  0  0
   63.5251   31.9600   47.6158 H   0  0  0  0  0  0  0  0  0  0  0  0
   62.2319   32.5302   46.5072 H   0  0  0  0  0  0  0  0  0  0  0  0
   63.8359   33.3388   46.5072 H   0  0  0  0  0  0  0  0  0  0  0  0
   59.4090   31.6940   45.9790 C   0  0  0  0  0  0  0  0  0  0  0  0
   60.3518   31.6973   46.5456 H   0  0  0  0  0  0  0  0  0  0  0  0
   58.6130   30.5450   45.9650 C   0  0  0  0  0  0  0  0  0  0  0  0
   58.9264   29.6569   46.5334 H   0  0  0  0  0  0  0  0  0  0  0  0
   57.6070   26.1000   44.8430 C   0  0  0  0  0  0  0  0  0  0  0  0
   58.5678   26.5256   44.5179 H   0  0  0  0  0  0  0  0  0  0  0  0
   57.2770   24.7830   44.5190 C   0  0  0  0  0  0  0  0  0  0  0  0
   57.9850   24.1633   43.9491 H   0  0  0  0  0  0  0  0  0  0  0  0
   56.0450   24.2500   44.9190 C   0  0  0  0  0  0  0  0  0  0  0  0
   55.6920   22.8250   44.6100 C   0  0  0  0  0  0  0  0  0  0  0  0
   55.5544   22.2694   45.5493 H   0  0  0  0  0  0  0  0  0  0  0  0
   54.7596   22.7963   44.0271 H   0  0  0  0  0  0  0  0  0  0  0  0
   56.5032   22.3644   44.0271 H   0  0  0  0  0  0  0  0  0  0  0  0
  1  2  1  0
  2  3  1  0
  3  4  1  0
  4  5  2  3
  5  6  1  0
  6  7  2  0
  6  8  1  0
  8  9  2  0
  9 10  1  0
  9 11  1  0
 11 12  1  0
 11 13  2  0
 13 14  1  0
 14 15  1  0
 15 16  2  0
 15 17  1  0
 17 18  2  0
 18 19  1  0
 19 20  1  0
 19 21  2  0
 21 22  1  0
 22 23  1  0
 23 24  1  0
 23 25  1  0
 23 26  1  0
 22 27  1  0
 27 28  1  0
 27 29  1  0
 27 30  1  0
 22 31  1  0
 31 32  1  0
 31 33  1  0
 31 34  1  0
 21 35  1  0
 35 36  1  0
 36 37  1  0
 37 38  1  0
 37 39  1  0
 39 40  1  0
 39 41  1  0
 39 42  1  0
 37 43  1  0
 43 44  1  0
 43 45  1  0
 43 46  1  0
 13 47  1  0
 47 48  1  0
 47 49  2  0
 49 50  1  0
  4 51  1  0
 51 52  1  0
 51 53  2  0
 53 54  1  0
 53 55  1  0
 55 56  1  0
 56 57  1  0
 56 58  1  0
 56 59  1  0
 55  2  2  0
 49  8  1  0
 36 18  1  0
M  CHG  3   3  -1  14  -1  35  -1
M  END
>  <UniqueID>  (28) 
28

>  <SMILES>  (28) 
Cc1ccc(=NC(=O)c2ccc([N-]C(=O)/N=c3/cc(C(C)(C)C)[n-]n3C(C)C)cc2)[n-]c1

>  <Energy>  (28) 
104.04815719512821

>  <Genealogy>  (28) 
Cc1ccc(=NC(=O)c2ccc([N-]C(=O)N=c3cc(C(C)(C)C)[n-]n3C(C)C)cc2)[n-]c1 (protonated)
Cc1ccc(=NC(=O)c2ccc([N-]C(=O)/N=c3/cc(C(C)(C)C)[n-]n3C(C)C)cc2)[n-]c1 (cis-trans isomerization)
Cc1ccc(=NC(=O)c2ccc([N-]C(=O)/N=c3/cc(C(C)(C)C)[n-]n3C(C)C)cc2)[n-]c1 (3D coordinates assigned)
Cc1ccc(=NC(=O)c2ccc([N-]C(=O)/N=c3/cc(C(C)(C)C)[n-]n3C(C)C)cc2)[n-]c1 (optimized conformer: 104.04815719512821 kcal/mol)

>  <smiles>  (28) 
Cc1ccc(=NC(=O)c2ccc(NC(=O)N=c3cc(C(C)(C)C)[nH]n3C(C)C)cc2)[nH]c1

>  <score_type>  (28) 
oracle

>  <origin>  (28) 
adg

>  <m_score__min__energy>  (28) 
-12.720000000000001

>  <m_primary>  (28) 
energy

$$$$
28:0
     RDKit          3D

 47 50  0  0  0  0  0  0  0  0999 V2000
   55.1310   29.3910   44.8360 O   0  0  0  0  0  0  0  0  0  0  0  0
   56.3640   29.6400   44.8830 C   0  0  0  0  0  0  0  0  0  0  0  0
   56.7980   31.0000   44.7690 N   0  0  0  0  0  0  0  0  0  0  0  0
   57.8510   31.6120   45.5240 C   0  0  0  0  0  0  0  0  0  0  0  0
   58.2900   32.8920   45.1660 C   0  0  0  0  0  0  0  0  0  0  0  0
   59.3230   33.5100   45.8730 C   0  0  0  0  0  0  0  0  0  0  0  0
   59.9540   32.8440   46.9370 C   0  0  0  0  0  0  0  0  0  0  0  0
   61.0090   33.4860   47.6790 N   0  0  0  0  0  0  0  0  0  0  0  0
   60.6980   34.2110   48.9170 C   0  0  0  0  0  0  0  0  0  0  0  0
   61.9810   34.5500   49.6910 C   0  0  0  0  0  0  0  0  0  0  0  0
   62.8970   33.3860   49.7050 N   0  0  0  0  0  0  0  0  0  0  0  0
   64.0440   33.6330   50.5590 C   0  0  0  0  0  0  0  0  0  0  0  0
   64.0630   34.6780   51.2630 O   0  0  0  0  0  0  0  0  0  0  0  0
   65.2150   32.7170   50.6390 C   0  0  0  0  0  0  0  0  0  0  0  0
   65.1290   31.3620   50.9070 C   0  0  0  0  0  0  0  0  0  0  0  0
   66.4190   30.8720   50.8840 C   0  0  0  0  0  0  0  0  0  0  0  0
   67.2390   31.9420   50.5970 C   0  0  0  0  0  0  0  0  0  0  0  0
   66.5060   33.0610   50.4470 N   0  0  0  0  0  0  0  0  0  0  0  0
   63.3050   32.9020   48.3550 C   0  0  0  0  0  0  0  0  0  0  0  0
   62.4010   33.4200   47.2230 C   0  0  0  0  0  0  0  0  0  0  0  0
   59.5250   31.5510   47.2830 C   0  0  0  0  0  0  0  0  0  0  0  0
   58.4890   30.9360   46.5760 C   0  0  0  0  0  0  0  0  0  0  0  0
   57.3150   28.5380   45.1190 C   0  0  0  0  0  0  0  0  0  0  0  0
   57.1050   27.4540   45.9650 C   0  0  0  0  0  0  0  0  0  0  0  0
   58.2000   26.5850   46.0390 C   0  0  0  0  0  0  0  0  0  0  0  0
   59.2830   26.9850   45.2660 C   0  0  0  0  0  0  0  0  0  0  0  0
   58.8740   28.4200   44.4930 S   0  0  0  0  0  0  0  0  0  0  0  0
   57.8175   33.4148   44.3213 H   0  0  0  0  0  0  0  0  0  0  0  0
   59.6449   34.5245   45.5953 H   0  0  0  0  0  0  0  0  0  0  0  0
   60.1720   35.1438   48.6656 H   0  0  0  0  0  0  0  0  0  0  0  0
   60.0649   33.5712   49.5493 H   0  0  0  0  0  0  0  0  0  0  0  0
   62.4828   35.4006   49.2065 H   0  0  0  0  0  0  0  0  0  0  0  0
   61.7157   34.8084   50.7268 H   0  0  0  0  0  0  0  0  0  0  0  0
   62.3530   32.6050   50.1480 H   0  0  0  0  0  0  0  0  0  0  0  0
   64.2112   30.7874   51.1006 H   0  0  0  0  0  0  0  0  0  0  0  0
   66.7313   29.8321   51.0601 H   0  0  0  0  0  0  0  0  0  0  0  0
   68.3338   31.8892   50.5040 H   0  0  0  0  0  0  0  0  0  0  0  0
   66.8960   33.9960   50.2060 H   0  0  0  0  0  0  0  0  0  0  0  0
   64.3345   33.2372   48.1605 H   0  0  0  0  0  0  0  0  0  0  0  0
   63.2202   31.8053   48.3631 H   0  0  0  0  0  0  0  0  0  0  0  0
   62.7334   34.4247   46.9230 H   0  0  0  0  0  0  0  0  0  0  0  0
   62.4668   32.7324   46.3669 H   0  0  0  0  0  0  0  0  0  0  0  0
   60.0083   31.0198   48.1162 H   0  0  0  0  0  0  0  0  0  0  0  0
   58.1717   29.9176   46.8448 H   0  0  0  0  0  0  0  0  0  0  0  0
   56.1696   27.2951   46.5216 H   0  0  0  0  0  0  0  0  0  0  0  0
   58.2028   25.6713   46.6516 H   0  0  0  0  0  0  0  0  0  0  0  0
   60.2422   26.4542   45.1756 H   0  0  0  0  0  0  0  0  0  0  0  0
  1  2  2  0
  2  3  1  0
  3  4  1  0
  4  5  2  0
  5  6  1  0
  6  7  2  0
  7  8  1  0
  8  9  1  0
  9 10  1  0
 10 11  1  0
 11 12  1  0
 12 13  2  0
 12 14  1  0
 14 15  2  0
 15 16  1  0
 16 17  2  0
 17 18  1  0
 11 19  1  0
 19 20  1  0
  7 21  1  0
 21 22  2  0
  2 23  1  0
 23 24  2  0
 24 25  1  0
 25 26  2  0
 26 27  1  0
 22  4  1  0
 27 23  1  0
 20  8  1  0
 18 14  1  0
  5 28  1  0
  6 29  1  0
  9 30  1  0
  9 31  1  0
 10 32  1  0
 10 33  1  0
 11 34  1  0
 15 35  1  0
 16 36  1  0
 17 37  1  0
 18 38  1  0
 19 39  1  0
 19 40  1  0
 20 41  1  0
 20 42  1  0
 21 43  1  0
 22 44  1  0
 24 45  1  0
 25 46  1  0
 26 47  1  0
M  CHG  2   3  -1  11   1
M  END
>  <UniqueID>  (29) 
29

>  <SMILES>  (29) 
O=C([N-]c1ccc(N2CC[NH+](C(=O)c3ccc[nH]3)CC2)cc1)c1cccs1

>  <Energy>  (29) 
121.28625715671485

>  <Genealogy>  (29) 
O=C([N-]c1ccc(N2CC[NH+](C(=O)c3ccc[nH]3)CC2)cc1)c1cccs1 (protonated)
O=C([N-]c1ccc(N2CC[NH+](C(=O)c3ccc[nH]3)CC2)cc1)c1cccs1 (3D coordinates assigned)
O=C([N-]c1ccc(N2CC[NH+](C(=O)c3ccc[nH]3)CC2)cc1)c1cccs1 (nonaromatic ring conformer: 121.28625715671485 kcal/mol)

>  <smiles>  (29) 
O=C(Nc1ccc(N2CCN(C(=O)c3ccc[nH]3)CC2)cc1)c1cccs1

>  <score_type>  (29) 
oracle

>  <origin>  (29) 
adg

>  <m_score__min__energy>  (29) 
-8.2599999999999998

>  <m_primary>  (29) 
energy

$$$$
29:0
     RDKit          3D

 43 45  0  0  1  0  0  0  0  0999 V2000
   56.6450   29.0380   42.7540 C   0  0  0  0  0  0  0  0  0  0  0  0
   56.6920   29.7520   44.3870 S   0  0  0  0  0  0  0  0  0  0  0  0
   57.9590   29.3200   45.0660 O   0  0  0  0  0  0  0  0  0  0  0  0
   55.5230   29.1780   45.1450 O   0  0  0  0  0  0  0  0  0  0  0  0
   56.6300   31.4750   44.3150 N   0  0  0  0  0  0  0  0  0  0  0  0
   57.6140   32.2480   44.9900 C   0  0  0  0  0  0  0  0  0  0  0  0
   57.5810   33.6320   44.9160 C   0  0  0  0  0  0  0  0  0  0  0  0
   58.5240   34.4110   45.5610 C   0  0  0  0  0  0  0  0  0  0  0  0
   59.4790   26.9000   45.9690 C   0  0  0  0  0  0  0  0  0  0  0  0
   58.8190   27.1490   47.1630 C   0  0  0  0  0  0  0  0  0  0  0  0
   59.5390   27.5090   48.3450 N   0  0  0  0  0  0  0  0  0  0  0  0
   59.8180   28.7360   48.6270 C   0  0  0  0  0  0  0  0  0  0  0  0
   60.3960   31.2880   49.3180 N   0  0  0  0  0  0  0  0  0  0  0  0
   60.1630   30.4290   50.3270 C   0  0  0  0  0  0  0  0  0  0  0  0
   59.8640   29.1080   49.9740 C   0  0  0  0  0  0  0  0  0  0  0  0
   59.6310   28.2460   50.9760 F   0  0  0  0  0  0  0  0  0  0  0  0
   60.3460   30.9020   48.0290 C   0  0  0  0  0  0  0  0  0  0  0  0
   60.5770   31.7680   47.1290 N   0  0  0  0  0  0  0  0  0  0  0  0
   59.5820   32.4710   46.3910 C   0  0  0  0  0  0  0  0  0  0  0  0
   59.5380   33.8480   46.3080 C   0  0  0  0  0  0  0  0  0  0  0  0
   58.7490   26.5500   44.8330 C   0  0  0  0  0  0  0  0  0  0  0  0
   57.3640   26.4460   44.8680 C   0  0  0  0  0  0  0  0  0  0  0  0
   56.7140   26.7000   46.0740 C   0  0  0  0  0  0  0  0  0  0  0  0
   55.3110   26.6040   46.1450 O   0  0  0  0  0  0  0  0  0  0  0  0
   57.4320   27.0460   47.2030 C   0  0  0  0  0  0  0  0  0  0  0  0
   60.0610   29.6420   47.6480 N   0  0  0  0  0  0  0  0  0  0  0  0
   58.6300   31.6950   45.7380 C   0  0  0  0  0  0  0  0  0  0  0  0
   56.5729   27.9433   42.8344 H   0  0  0  0  0  0  0  0  0  0  0  0
   55.7703   29.4241   42.2100 H   0  0  0  0  0  0  0  0  0  0  0  0
   57.5627   29.3061   42.2100 H   0  0  0  0  0  0  0  0  0  0  0  0
   55.8950   31.9700   43.7920 H   0  0  0  0  0  0  0  0  0  0  0  0
   56.7876   34.1209   44.3316 H   0  0  0  0  0  0  0  0  0  0  0  0
   58.4642   35.5061   45.4764 H   0  0  0  0  0  0  0  0  0  0  0  0
   60.5750   26.9783   45.9179 H   0  0  0  0  0  0  0  0  0  0  0  0
   60.6190   32.2670   49.5410 H   0  0  0  0  0  0  0  0  0  0  0  0
   60.2054   30.7494   51.3785 H   0  0  0  0  0  0  0  0  0  0  0  0
   60.2844   34.4739   46.8190 H   0  0  0  0  0  0  0  0  0  0  0  0
   59.2806   26.3524   43.8905 H   0  0  0  0  0  0  0  0  0  0  0  0
   56.7956   26.1704   43.9674 H   0  0  0  0  0  0  0  0  0  0  0  0
   54.7770   27.4570   46.3730 H   0  0  0  0  0  0  0  0  0  0  0  0
   56.9000   27.2425   48.1455 H   0  0  0  0  0  0  0  0  0  0  0  0
   60.0310   29.3800   46.6370 H   0  0  0  0  0  0  0  0  0  0  0  0
   58.6907   30.5999   45.8220 H   0  0  0  0  0  0  0  0  0  0  0  0
  1  2  1  0
  2  3  2  0
  2  4  2  0
  2  5  1  0
  5  6  1  0
  6  7  2  0
  7  8  1  0
  8  9  2  0
  9 10  1  0
 10 11  1  0
 11 12  2  0
 12 13  1  0
 13 14  1  0
 14 15  2  0
 15 16  1  0
 15 17  1  0
 17 18  2  0
 18 19  1  0
 19 20  2  0
 20 21  1  0
 21 22  2  0
 22 23  1  0
 23 24  1  0
 23 25  2  0
 17 26  1  0
 10 27  2  0
 27  6  1  0
 26 12  1  0
 25 19  1  0
  1 28  1  0
  1 29  1  0
  1 30  1  0
  5 31  1  0
  7 32  1  0
  8 33  1  0
  9 34  1  0
 13 35  1  0
 14 36  1  0
 20 37  1  0
 21 38  1  0
 22 39  1  0
 24 40  1  0
 25 41  1  0
 26 42  1  0
 27 43  1  0
M  END
>  <smiles>  (30) 
CS(=O)(=O)Nc1cccc(N=c2[nH]cc(F)c(=Nc3cccc(O)c3)[nH]2)c1

>  <score_type>  (30) 
oracle

>  <origin>  (30) 
adg

>  <m_score__min__energy>  (30) 
-9.4000000000000004

>  <m_primary>  (30) 
energy

$$$$
30:0
     RDKit          3D

 50 53  0  0  1  0  0  0  0  0999 V2000
   57.6940   32.9850   52.6490 C   0  0  0  0  0  0  0  0  0  0  0  0
   58.4820   32.2660   51.6860 N   0  0  0  0  0  0  0  0  0  0  0  0
   58.1370   31.0290   51.1000 C   0  0  0  0  0  0  0  0  0  0  0  0
   57.0550   30.4900   51.4320 O   0  0  0  0  0  0  0  0  0  0  0  0
   59.0650   30.4220   50.1270 C   0  0  0  0  0  0  0  0  0  0  0  0
   58.6860   29.3060   49.3790 C   0  0  0  0  0  0  0  0  0  0  0  0
   59.5870   28.7690   48.4950 C   0  0  0  0  0  0  0  0  0  0  0  0
   59.3820   27.6760   47.6800 O   0  0  0  0  0  0  0  0  0  0  0  0
   58.8790   27.8270   46.4170 C   0  0  0  0  0  0  0  0  0  0  0  0
   59.2650   27.0660   45.3280 C   0  0  0  0  0  0  0  0  0  0  0  0
   58.7450   27.2220   44.0640 C   0  0  0  0  0  0  0  0  0  0  0  0
   57.7900   28.1920   43.8800 C   0  0  0  0  0  0  0  0  0  0  0  0
   57.2400   28.3880   42.6450 F   0  0  0  0  0  0  0  0  0  0  0  0
   57.3790   28.9790   44.9620 C   0  0  0  0  0  0  0  0  0  0  0  0
   56.3140   29.9640   44.6570 C   0  0  0  0  0  0  0  0  0  0  0  0
   55.1540   29.5290   44.8130 O   0  0  0  0  0  0  0  0  0  0  0  0
   56.6720   31.2600   44.2350 N   0  0  0  0  0  0  0  0  0  0  0  0
   57.2100   32.1550   44.9730 C   0  0  0  0  0  0  0  0  0  0  0  0
   58.3940   32.0260   45.6770 C   0  0  0  0  0  0  0  0  0  0  0  0
   58.6500   33.1990   46.3730 C   0  0  0  0  0  0  0  0  0  0  0  0
   59.7950   33.3980   47.2370 C   0  0  0  0  0  0  0  0  0  0  0  0
   61.0780   33.1090   46.7850 C   0  0  0  0  0  0  0  0  0  0  0  0
   62.1570   33.2800   47.6420 C   0  0  0  0  0  0  0  0  0  0  0  0
   61.9900   33.7290   48.9320 C   0  0  0  0  0  0  0  0  0  0  0  0
   63.3990   33.9160   49.9550 Cl  0  0  0  0  0  0  0  0  0  0  0  0
   60.7110   34.0190   49.3860 C   0  0  0  0  0  0  0  0  0  0  0  0
   59.6420   33.8450   48.5190 C   0  0  0  0  0  0  0  0  0  0  0  0
   57.6150   34.0050   46.0700 N   0  0  0  0  0  0  0  0  0  0  0  0
   56.7770   33.3960   45.2550 N   0  0  0  0  0  0  0  0  0  0  0  0
   57.9040   28.8130   46.2090 C   0  0  0  0  0  0  0  0  0  0  0  0
   60.8490   29.3700   48.3870 C   0  0  0  0  0  0  0  0  0  0  0  0
   61.1960   30.4590   49.1280 C   0  0  0  0  0  0  0  0  0  0  0  0
   60.2910   30.9600   49.9840 N   0  0  0  0  0  0  0  0  0  0  0  0
   58.0063   32.7000   53.6645 H   0  0  0  0  0  0  0  0  0  0  0  0
   57.8416   34.0661   52.5098 H   0  0  0  0  0  0  0  0  0  0  0  0
   56.6309   32.7392   52.5098 H   0  0  0  0  0  0  0  0  0  0  0  0
   59.3970   32.7110   51.4020 H   0  0  0  0  0  0  0  0  0  0  0  0
   57.6847   28.8659   49.4961 H   0  0  0  0  0  0  0  0  0  0  0  0
   60.0314   26.2920   45.4816 H   0  0  0  0  0  0  0  0  0  0  0  0
   59.0827   26.5911   43.2286 H   0  0  0  0  0  0  0  0  0  0  0  0
   59.0340   31.1314   45.6840 H   0  0  0  0  0  0  0  0  0  0  0  0
   61.2366   32.7483   45.7580 H   0  0  0  0  0  0  0  0  0  0  0  0
   63.1704   33.0509   47.2808 H   0  0  0  0  0  0  0  0  0  0  0  0
   60.5482   34.3795   50.4124 H   0  0  0  0  0  0  0  0  0  0  0  0
   58.6287   34.0767   48.8788 H   0  0  0  0  0  0  0  0  0  0  0  0
   57.5120   34.9930   46.4520 H   0  0  0  0  0  0  0  0  0  0  0  0
   55.9010   33.8200   44.8810 H   0  0  0  0  0  0  0  0  0  0  0  0
   57.5664   29.4457   47.0431 H   0  0  0  0  0  0  0  0  0  0  0  0
   61.5814   28.9492   47.6823 H   0  0  0  0  0  0  0  0  0  0  0  0
   62.1915   30.9160   49.0277 H   0  0  0  0  0  0  0  0  0  0  0  0
  1  2  1  0
  2  3  1  0
  3  4  2  0
  3  5  1  0
  5  6  2  0
  6  7  1  0
  7  8  1  0
  8  9  1  0
  9 10  2  0
 10 11  1  0
 11 12  2  0
 12 13  1  0
 12 14  1  0
 14 15  1  0
 15 16  2  0
 15 17  1  0
 17 18  2  0
 18 19  1  0
 19 20  2  0
 20 21  1  0
 21 22  2  0
 22 23  1  0
 23 24  2  0
 24 25  1  0
 24 26  1  0
 26 27  2  0
 20 28  1  0
 28 29  1  0
 14 30  2  0
  7 31  2  0
 31 32  1  0
 32 33  2  0
 33  5  1  0
 30  9  1  0
 29 18  1  0
 27 21  1  0
  1 34  1  0
  1 35  1  0
  1 36  1  0
  2 37  1  0
  6 38  1  0
 10 39  1  0
 11 40  1  0
 19 41  1  0
 22 42  1  0
 23 43  1  0
 26 44  1  0
 27 45  1  0
 28 46  1  0
 29 47  1  0
 30 48  1  0
 31 49  1  0
 32 50  1  0
M  END
>  <smiles>  (31) 
CNC(=O)c1cc(Oc2ccc(F)c(C(=O)N=c3cc(-c4ccc(Cl)cc4)[nH][nH]3)c2)ccn1

>  <score_type>  (31) 
oracle

>  <origin>  (31) 
adg

>  <m_score__min__energy>  (31) 
-9.7699999999999996

>  <m_primary>  (31) 
energy

$$$$
31:0
     RDKit          3D

 38 40  0  0  0  0  0  0  0  0999 V2000
   58.9060   27.8420   46.1040 O   0  0  0  0  0  0  0  0  0  0  0  0
   57.7350   27.4650   45.8280 C   0  0  0  0  0  0  0  0  0  0  0  0
   56.8480   28.3300   45.0950 N   0  0  0  0  0  0  0  0  0  0  0  0
   57.1770   29.6760   44.7130 C   0  0  0  0  0  0  0  0  0  0  0  0
   57.0300   30.1170   43.3860 C   0  0  0  0  0  0  0  0  0  0  0  0
   57.3440   31.4360   43.0440 C   0  0  0  0  0  0  0  0  0  0  0  0
   57.7810   32.3300   44.0260 C   0  0  0  0  0  0  0  0  0  0  0  0
   57.9080   31.9160   45.3560 C   0  0  0  0  0  0  0  0  0  0  0  0
   58.3440   32.8730   46.3300 N   0  0  0  0  0  0  0  0  0  0  0  0
   59.6320   34.0130   46.1050 S   0  0  0  0  0  0  0  0  0  0  0  0
   59.8160   34.2630   44.6330 O   0  0  0  0  0  0  0  0  0  0  0  0
   59.2700   35.3060   46.7740 O   0  0  0  0  0  0  0  0  0  0  0  0
   61.1100   33.3890   46.8310 C   0  0  0  0  0  0  0  0  0  0  0  0
   62.3690   33.8310   46.3910 C   0  0  0  0  0  0  0  0  0  0  0  0
   63.5360   33.3160   46.9690 C   0  0  0  0  0  0  0  0  0  0  0  0
   63.4470   32.3590   47.9850 C   0  0  0  0  0  0  0  0  0  0  0  0
   62.1960   31.9200   48.4290 C   0  0  0  0  0  0  0  0  0  0  0  0
   61.0290   32.4350   47.8550 C   0  0  0  0  0  0  0  0  0  0  0  0
   57.6000   30.5830   45.6950 C   0  0  0  0  0  0  0  0  0  0  0  0
   57.2850   26.1280   46.2800 C   0  0  0  0  0  0  0  0  0  0  0  0
   55.9180   25.7910   46.3360 C   0  0  0  0  0  0  0  0  0  0  0  0
   54.9380   26.7180   45.9980 O   0  0  0  0  0  0  0  0  0  0  0  0
   55.5390   24.5560   46.7580 N   0  0  0  0  0  0  0  0  0  0  0  0
   56.4540   23.6320   47.1420 C   0  0  0  0  0  0  0  0  0  0  0  0
   56.0760   22.4970   47.5360 O   0  0  0  0  0  0  0  0  0  0  0  0
   57.7780   23.9340   47.1110 N   0  0  0  0  0  0  0  0  0  0  0  0
   58.2120   25.1520   46.6940 C   0  0  0  0  0  0  0  0  0  0  0  0
   59.4530   25.3870   46.6680 O   0  0  0  0  0  0  0  0  0  0  0  0
   55.8820   27.9970   44.8860 H   0  0  0  0  0  0  0  0  0  0  0  0
   56.6668   29.4222   42.6144 H   0  0  0  0  0  0  0  0  0  0  0  0
   57.2470   31.7707   42.0007 H   0  0  0  0  0  0  0  0  0  0  0  0
   58.0267   33.3663   43.7508 H   0  0  0  0  0  0  0  0  0  0  0  0
   62.4382   34.5829   45.5911 H   0  0  0  0  0  0  0  0  0  0  0  0
   64.5211   33.6636   46.6245 H   0  0  0  0  0  0  0  0  0  0  0  0
   64.3635   31.9507   48.4359 H   0  0  0  0  0  0  0  0  0  0  0  0
   62.1295   31.1692   49.2302 H   0  0  0  0  0  0  0  0  0  0  0  0
   60.0457   32.0907   48.2078 H   0  0  0  0  0  0  0  0  0  0  0  0
   57.6923   30.2512   46.7397 H   0  0  0  0  0  0  0  0  0  0  0  0
  1  2  2  0
  2  3  1  0
  3  4  1  0
  4  5  2  0
  5  6  1  0
  6  7  2  0
  7  8  1  0
  8  9  1  0
  9 10  1  0
 10 11  2  0
 10 12  2  0
 10 13  1  0
 13 14  2  0
 14 15  1  0
 15 16  2  0
 16 17  1  0
 17 18  2  0
  8 19  2  0
  2 20  1  0
 20 21  2  0
 21 22  1  0
 21 23  1  0
 23 24  1  0
 24 25  2  0
 24 26  1  0
 26 27  1  0
 27 28  2  0
 19  4  1  0
 27 20  1  0
 18 13  1  0
  3 29  1  0
  5 30  1  0
  6 31  1  0
  7 32  1  0
 14 33  1  0
 15 34  1  0
 16 35  1  0
 17 36  1  0
 18 37  1  0
 19 38  1  0
M  CHG  4   9  -1  22  -1  23  -1  26  -1
M  END
>  <UniqueID>  (32) 
30

>  <SMILES>  (32) 
O=C(Nc1cccc([N-]S(=O)(=O)c2ccccc2)c1)c1c([O-])[n-]c(=O)[n-]c1=O

>  <Energy>  (32) 
55.23979806537733

>  <Genealogy>  (32) 
O=C(Nc1cccc([N-]S(=O)(=O)c2ccccc2)c1)c1c([O-])[n-]c(=O)[n-]c1=O (protonated)
O=C(Nc1cccc([N-]S(=O)(=O)c2ccccc2)c1)c1c([O-])[n-]c(=O)[n-]c1=O (3D coordinates assigned)
O=C(Nc1cccc([N-]S(=O)(=O)c2ccccc2)c1)c1c([O-])[n-]c(=O)[n-]c1=O (optimized conformer: 55.23979806537733 kcal/mol)

>  <smiles>  (32) 
O=C(Nc1cccc(NS(=O)(=O)c2ccccc2)c1)c1c(O)[nH]c(=O)[nH]c1=O

>  <score_type>  (32) 
oracle

>  <origin>  (32) 
adg

>  <m_score__min__energy>  (32) 
-17.469999999999999

>  <m_primary>  (32) 
energy

$$$$
32:0
     RDKit          3D

 35 36  0  0  0  0  0  0  0  0999 V2000
   56.0000   24.2480   44.7080 C   0  0  0  0  0  0  0  0  0  0  0  0
   55.0290   24.9560   45.6040 C   0  0  0  0  0  0  0  0  0  0  0  0
   54.0470   24.3170   46.0640 O   0  0  0  0  0  0  0  0  0  0  0  0
   55.1610   26.3480   45.9230 N   0  0  0  0  0  0  0  0  0  0  0  0
   56.3840   27.0910   46.0250 C   0  0  0  0  0  0  0  0  0  0  0  0
   57.3940   26.6170   46.8700 C   0  0  0  0  0  0  0  0  0  0  0  0
   58.6120   27.2930   46.9610 C   0  0  0  0  0  0  0  0  0  0  0  0
   58.8370   28.4490   46.2030 C   0  0  0  0  0  0  0  0  0  0  0  0
   60.0540   29.1230   46.2950 O   0  0  0  0  0  0  0  0  0  0  0  0
   57.8350   28.9330   45.3480 C   0  0  0  0  0  0  0  0  0  0  0  0
   58.1050   30.0990   44.5550 N   0  0  0  0  0  0  0  0  0  0  0  0
   57.1990   31.1780   44.2930 C   0  0  0  0  0  0  0  0  0  0  0  0
   55.9620   31.0490   44.5030 O   0  0  0  0  0  0  0  0  0  0  0  0
   57.7420   32.5060   43.8720 C   0  0  0  0  0  0  0  0  0  0  0  0
   58.3000   33.2360   45.0620 C   0  0  0  0  0  0  0  0  0  0  0  0
   57.9800   32.8180   46.3640 C   0  0  0  0  0  0  0  0  0  0  0  0
   58.4730   33.5180   47.4700 C   0  0  0  0  0  0  0  0  0  0  0  0
   59.2770   34.6450   47.2830 C   0  0  0  0  0  0  0  0  0  0  0  0
   59.5890   35.0760   45.9900 C   0  0  0  0  0  0  0  0  0  0  0  0
   59.0990   34.3780   44.8820 C   0  0  0  0  0  0  0  0  0  0  0  0
   56.6210   28.2310   45.2390 C   0  0  0  0  0  0  0  0  0  0  0  0
   56.7384   23.7096   45.3203 H   0  0  0  0  0  0  0  0  0  0  0  0
   55.4579   23.5317   44.0731 H   0  0  0  0  0  0  0  0  0  0  0  0
   56.5162   24.9831   44.0731 H   0  0  0  0  0  0  0  0  0  0  0  0
   57.2272   25.7072   47.4654 H   0  0  0  0  0  0  0  0  0  0  0  0
   59.3986   26.9160   47.6311 H   0  0  0  0  0  0  0  0  0  0  0  0
   60.2460   29.9500   45.7420 H   0  0  0  0  0  0  0  0  0  0  0  0
   58.5405   32.3543   43.1308 H   0  0  0  0  0  0  0  0  0  0  0  0
   56.9307   33.1035   43.4306 H   0  0  0  0  0  0  0  0  0  0  0  0
   57.3392   31.9367   46.5145 H   0  0  0  0  0  0  0  0  0  0  0  0
   58.2274   33.1808   48.4879 H   0  0  0  0  0  0  0  0  0  0  0  0
   59.6650   35.1938   48.1538 H   0  0  0  0  0  0  0  0  0  0  0  0
   60.2204   35.9649   45.8443 H   0  0  0  0  0  0  0  0  0  0  0  0
   59.3397   34.7239   43.8659 H   0  0  0  0  0  0  0  0  0  0  0  0
   55.8516   28.5772   44.5332 H   0  0  0  0  0  0  0  0  0  0  0  0
  1  2  1  0
  2  3  2  0
  2  4  1  0
  4  5  1  0
  5  6  2  0
  6  7  1  0
  7  8  2  0
  8  9  1  0
  8 10  1  0
 10 11  1  0
 11 12  1  0
 12 13  2  0
 12 14  1  0
 14 15  1  0
 15 16  2  0
 16 17  1  0
 17 18  2  0
 18 19  1  0
 19 20  2  0
 10 21  2  0
 21  5  1  0
 20 15  1  0
  1 22  1  0
  1 23  1  0
  1 24  1  0
  6 25  1  0
  7 26  1  0
  9 27  1  0
 14 28  1  0
 14 29  1  0
 16 30  1  0
 17 31  1  0
 18 32  1  0
 19 33  1  0
 20 34  1  0
 21 35  1  0
M  CHG  2   4  -1  11  -1
M  END
>  <UniqueID>  (33) 
31

>  <SMILES>  (33) 
CC(=O)[N-]c1ccc(O)c([N-]C(=O)Cc2ccccc2)c1

>  <Energy>  (33) 
39.49996846893289

>  <Genealogy>  (33) 
CC(=O)[N-]c1ccc(O)c([N-]C(=O)Cc2ccccc2)c1 (protonated)
CC(=O)[N-]c1ccc(O)c([N-]C(=O)Cc2ccccc2)c1 (3D coordinates assigned)
CC(=O)[N-]c1ccc(O)c([N-]C(=O)Cc2ccccc2)c1 (optimized conformer: 39.49996846893289 kcal/mol)

>  <smiles>  (33) 
CC(=O)Nc1ccc(O)c(NC(=O)Cc2ccccc2)c1

>  <score_type>  (33) 
oracle

>  <origin>  (33) 
adg

>  <m_score__min__energy>  (33) 
-10.630000000000001

>  <m_primary>  (33) 
energy

$$$$
33:0
     RDKit          3D

 68 72  0  0  0  0  0  0  0  0999 V2000
   59.0880   29.7080   49.3600 C   0  0  0  0  0  0  0  0  0  0  0  0
   59.8760   30.9120   49.0440 N   0  0  0  0  0  0  0  0  0  0  0  0
   59.0590   32.1450   48.9590 C   0  0  0  0  0  0  0  0  0  0  0  0
   58.1450   32.2580   47.7160 C   0  0  0  0  0  0  0  0  0  0  0  0
   58.5810   33.3210   46.7280 C   0  0  0  0  0  0  0  0  0  0  0  0
   59.2710   34.4490   47.2090 C   0  0  0  0  0  0  0  0  0  0  0  0
   59.5950   35.4700   46.3740 N   0  0  0  0  0  0  0  0  0  0  0  0
   59.2750   35.4440   45.0570 C   0  0  0  0  0  0  0  0  0  0  0  0
   58.6130   34.3410   44.5190 C   0  0  0  0  0  0  0  0  0  0  0  0
   58.2880   33.2540   45.3420 C   0  0  0  0  0  0  0  0  0  0  0  0
   57.6650   32.0690   44.7100 C   0  0  0  0  0  0  0  0  0  0  0  0
   57.3800   32.1120   43.4850 O   0  0  0  0  0  0  0  0  0  0  0  0
   57.3640   30.8740   45.4460 N   0  0  0  0  0  0  0  0  0  0  0  0
   58.1930   29.7100   45.5830 C   0  0  0  0  0  0  0  0  0  0  0  0
   59.4740   29.7280   45.0190 C   0  0  0  0  0  0  0  0  0  0  0  0
   60.3000   28.6050   45.1060 C   0  0  0  0  0  0  0  0  0  0  0  0
   59.8600   27.4600   45.7730 C   0  0  0  0  0  0  0  0  0  0  0  0
   58.5970   27.4400   46.3840 C   0  0  0  0  0  0  0  0  0  0  0  0
   58.1150   26.2080   47.1110 C   0  0  0  0  0  0  0  0  0  0  0  0
   56.9420   25.5810   46.4030 C   0  0  0  0  0  0  0  0  0  0  0  0
   55.7200   26.1600   46.5530 N   0  0  0  0  0  0  0  0  0  0  0  0
   54.6230   25.6550   45.9900 N   0  0  0  0  0  0  0  0  0  0  0  0
   54.6620   24.5240   45.2440 C   0  0  0  0  0  0  0  0  0  0  0  0
   53.6010   24.0920   44.7210 O   0  0  0  0  0  0  0  0  0  0  0  0
   55.8810   23.8530   45.0660 C   0  0  0  0  0  0  0  0  0  0  0  0
   57.0490   24.4010   45.6350 C   0  0  0  0  0  0  0  0  0  0  0  0
   58.3120   23.7340   45.4420 N   0  0  0  0  0  0  0  0  0  0  0  0
   58.4470   22.6140   44.5140 C   0  0  0  0  0  0  0  0  0  0  0  0
   57.1860   21.7530   44.5490 C   0  0  0  0  0  0  0  0  0  0  0  0
   55.9540   22.6020   44.2150 C   0  0  0  0  0  0  0  0  0  0  0  0
   57.7680   28.5700   46.2870 C   0  0  0  0  0  0  0  0  0  0  0  0
   60.7820   30.7090   47.8950 C   0  0  0  0  0  0  0  0  0  0  0  0
   61.8000   31.8150   47.8480 C   0  0  0  0  0  0  0  0  0  0  0  0
   61.8190   32.7270   46.7780 C   0  0  0  0  0  0  0  0  0  0  0  0
   62.7860   33.7370   46.7320 C   0  0  0  0  0  0  0  0  0  0  0  0
   63.7420   33.8390   47.7470 C   0  0  0  0  0  0  0  0  0  0  0  0
   63.7340   32.9300   48.8090 C   0  0  0  0  0  0  0  0  0  0  0  0
   62.7690   31.9200   48.8590 C   0  0  0  0  0  0  0  0  0  0  0  0
   59.0137   29.5945   50.4516 H   0  0  0  0  0  0  0  0  0  0  0  0
   58.0795   29.8071   48.9322 H   0  0  0  0  0  0  0  0  0  0  0  0
   59.5825   28.8234   48.9322 H   0  0  0  0  0  0  0  0  0  0  0  0
   58.4205   32.1900   49.8536 H   0  0  0  0  0  0  0  0  0  0  0  0
   59.7759   32.9757   48.8814 H   0  0  0  0  0  0  0  0  0  0  0  0
   58.1404   31.2865   47.2000 H   0  0  0  0  0  0  0  0  0  0  0  0
   57.1478   32.5485   48.0782 H   0  0  0  0  0  0  0  0  0  0  0  0
   59.5507   34.5044   48.2714 H   0  0  0  0  0  0  0  0  0  0  0  0
   59.5381   36.2948   44.4114 H   0  0  0  0  0  0  0  0  0  0  0  0
   58.3466   34.3240   43.4519 H   0  0  0  0  0  0  0  0  0  0  0  0
   59.8322   30.6318   44.5043 H   0  0  0  0  0  0  0  0  0  0  0  0
   61.2999   28.6227   44.6478 H   0  0  0  0  0  0  0  0  0  0  0  0
   60.5056   26.5706   45.8196 H   0  0  0  0  0  0  0  0  0  0  0  0
   58.9357   25.4773   47.1618 H   0  0  0  0  0  0  0  0  0  0  0  0
   57.7948   26.5028   48.1212 H   0  0  0  0  0  0  0  0  0  0  0  0
   59.1720   24.0460   45.9420 H   0  0  0  0  0  0  0  0  0  0  0  0
   58.5960   23.0009   43.4951 H   0  0  0  0  0  0  0  0  0  0  0  0
   59.3113   22.0014   44.8101 H   0  0  0  0  0  0  0  0  0  0  0  0
   57.2792   20.9424   43.8112 H   0  0  0  0  0  0  0  0  0  0  0  0
   57.0678   21.3315   45.5582 H   0  0  0  0  0  0  0  0  0  0  0  0
   56.0008   22.8950   43.1558 H   0  0  0  0  0  0  0  0  0  0  0  0
   55.0582   21.9976   44.4207 H   0  0  0  0  0  0  0  0  0  0  0  0
   56.7778   28.5626   46.7661 H   0  0  0  0  0  0  0  0  0  0  0  0
   61.2969   29.7429   48.0021 H   0  0  0  0  0  0  0  0  0  0  0  0
   60.1956   30.7150   46.9643 H   0  0  0  0  0  0  0  0  0  0  0  0
   61.0716   32.6462   45.9750 H   0  0  0  0  0  0  0  0  0  0  0  0
   62.7941   34.4519   45.8960 H   0  0  0  0  0  0  0  0  0  0  0  0
   64.5006   34.6347   47.7099 H   0  0  0  0  0  0  0  0  0  0  0  0
   64.4879   33.0096   49.6061 H   0  0  0  0  0  0  0  0  0  0  0  0
   62.7686   31.2041   49.6942 H   0  0  0  0  0  0  0  0  0  0  0  0
  1  2  1  0
  2  3  1  0
  3  4  1  0
  4  5  1  0
  5  6  2  0
  6  7  1  0
  7  8  2  0
  8  9  1  0
  9 10  2  0
 10 11  1  0
 11 12  2  0
 11 13  1  0
 13 14  1  0
 14 15  2  0
 15 16  1  0
 16 17  2  0
 17 18  1  0
 18 19  1  0
 19 20  1  0
 20 21  2  0
 21 22  1  0
 22 23  1  0
 23 24  2  0
 23 25  1  0
 25 26  2  0
 26 27  1  0
 27 28  1  0
 28 29  1  0
 29 30  1  0
 18 31  2  0
  2 32  1  0
 32 33  1  0
 33 34  2  0
 34 35  1  0
 35 36  2  0
 36 37  1  0
 37 38  2  0
 10  5  1  0
 31 14  1  0
 38 33  1  0
 26 20  1  0
 30 25  1  0
  1 39  1  0
  1 40  1  0
  1 41  1  0
  3 42  1  0
  3 43  1  0
  4 44  1  0
  4 45  1  0
  6 46  1  0
  8 47  1  0
  9 48  1  0
 15 49  1  0
 16 50  1  0
 17 51  1  0
 19 52  1  0
 19 53  1  0
 27 54  1  0
 28 55  1  0
 28 56  1  0
 29 57  1  0
 29 58  1  0
 30 59  1  0
 30 60  1  0
 31 61  1  0
 32 62  1  0
 32 63  1  0
 34 64  1  0
 35 65  1  0
 36 66  1  0
 37 67  1  0
 38 68  1  0
M  CHG  2  13  -1  22  -1
M  END
>  <UniqueID>  (34) 
32

>  <SMILES>  (34) 
CN(CCc1cnccc1C(=O)[N-]c1cccc(Cc2n[n-]c(=O)c3c2NCCC3)c1)Cc1ccccc1

>  <Energy>  (34) 
88.58383956258425

>  <Genealogy>  (34) 
CN(CCc1cnccc1C(=O)[N-]c1cccc(Cc2n[n-]c(=O)c3c2NCCC3)c1)Cc1ccccc1 (protonated)
CN(CCc1cnccc1C(=O)[N-]c1cccc(Cc2n[n-]c(=O)c3c2NCCC3)c1)Cc1ccccc1 (3D coordinates assigned)
CN(CCc1cnccc1C(=O)[N-]c1cccc(Cc2n[n-]c(=O)c3c2NCCC3)c1)Cc1ccccc1 (nonaromatic ring conformer: 88.58383956258425 kcal/mol)

>  <smiles>  (34) 
CN(CCc1cnccc1C(=O)Nc1cccc(Cc2n[nH]c(=O)c3c2NCCC3)c1)Cc1ccccc1

>  <score_type>  (34) 
oracle

>  <origin>  (34) 
adg

>  <m_score__min__energy>  (34) 
-14.529999999999999

>  <m_primary>  (34) 
energy

$$$$
34:0
     RDKit          3D

 52 55  0  0  0  0  0  0  0  0999 V2000
   54.7800   27.0910   46.4150 H   0  0  0  0  0  0  0  0  0  0  0  0
   54.7710   26.2220   45.8340 N   0  0  0  0  0  0  0  0  0  0  0  0
   56.4140   25.7180   45.6550 S   0  0  0  0  0  0  0  0  0  0  0  0
   56.8620   25.0200   46.9080 O   0  0  0  0  0  0  0  0  0  0  0  0
   56.5230   24.7580   44.5040 O   0  0  0  0  0  0  0  0  0  0  0  0
   57.4320   27.1240   45.3580 C   0  0  0  0  0  0  0  0  0  0  0  0
   58.8210   26.9800   45.2520 C   0  0  0  0  0  0  0  0  0  0  0  0
   59.2795   25.9857   45.3580 H   0  0  0  0  0  0  0  0  0  0  0  0
   59.6250   28.0960   45.0120 C   0  0  0  0  0  0  0  0  0  0  0  0
   60.7142   27.9766   44.9148 H   0  0  0  0  0  0  0  0  0  0  0  0
   59.0500   29.3640   44.8950 C   0  0  0  0  0  0  0  0  0  0  0  0
   59.6860   30.2375   44.6889 H   0  0  0  0  0  0  0  0  0  0  0  0
   57.6600   29.5270   45.0400 C   0  0  0  0  0  0  0  0  0  0  0  0
   57.0220   30.8100   44.9050 N   0  0  0  0  0  0  0  0  0  0  0  0
   57.5500   31.9740   45.1460 C   0  0  0  0  0  0  0  0  0  0  0  0
   58.6220   32.1050   45.9750 N   0  0  0  0  0  0  0  0  0  0  0  0
   59.1720   33.3180   46.2550 C   0  0  0  0  0  0  0  0  0  0  0  0
   60.3470   33.3900   47.1620 C   0  0  0  0  0  0  0  0  0  0  0  0
   61.6280   33.0820   46.6710 C   0  0  0  0  0  0  0  0  0  0  0  0
   61.7500   32.7804   45.6202 H   0  0  0  0  0  0  0  0  0  0  0  0
   62.7480   33.1550   47.5040 C   0  0  0  0  0  0  0  0  0  0  0  0
   63.7427   32.9120   47.1022 H   0  0  0  0  0  0  0  0  0  0  0  0
   62.6150   33.5360   48.8500 C   0  0  0  0  0  0  0  0  0  0  0  0
   63.8110   33.6180   49.7210 C   0  0  0  0  0  0  0  0  0  0  0  0
   63.7310   34.2200   50.8270 O   0  0  0  0  0  0  0  0  0  0  0  0
   65.0620   33.0380   49.3190 N   0  0  0  0  0  0  0  0  0  0  0  0
   65.2060   32.7500   48.3250 H   0  0  0  0  0  0  0  0  0  0  0  0
   66.1840   32.8850   50.2420 C   0  0  0  0  0  0  0  0  0  0  0  0
   67.1276   32.9404   49.6794 H   0  0  0  0  0  0  0  0  0  0  0  0
   66.1457   33.6901   50.9906 H   0  0  0  0  0  0  0  0  0  0  0  0
   66.1010   31.5570   50.9440 C   0  0  0  0  0  0  0  0  0  0  0  0
   64.9540   31.2040   51.6760 C   0  0  0  0  0  0  0  0  0  0  0  0
   64.1158   31.9116   51.7575 H   0  0  0  0  0  0  0  0  0  0  0  0
   64.8760   29.9550   52.3010 C   0  0  0  0  0  0  0  0  0  0  0  0
   63.9783   29.6838   52.8760 H   0  0  0  0  0  0  0  0  0  0  0  0
   65.9370   29.0510   52.1960 C   0  0  0  0  0  0  0  0  0  0  0  0
   65.8745   28.0703   52.6904 H   0  0  0  0  0  0  0  0  0  0  0  0
   67.0760   29.3920   51.4640 C   0  0  0  0  0  0  0  0  0  0  0  0
   67.9093   28.6788   51.3808 H   0  0  0  0  0  0  0  0  0  0  0  0
   67.1590   30.6400   50.8360 C   0  0  0  0  0  0  0  0  0  0  0  0
   68.0558   30.9034   50.2560 H   0  0  0  0  0  0  0  0  0  0  0  0
   61.3390   33.8680   49.3360 C   0  0  0  0  0  0  0  0  0  0  0  0
   61.2205   34.1876   50.3819 H   0  0  0  0  0  0  0  0  0  0  0  0
   60.2190   33.7960   48.5030 C   0  0  0  0  0  0  0  0  0  0  0  0
   59.2275   34.0594   48.8998 H   0  0  0  0  0  0  0  0  0  0  0  0
   58.5960   34.4670   45.6880 C   0  0  0  0  0  0  0  0  0  0  0  0
   59.0079   35.4643   45.9017 H   0  0  0  0  0  0  0  0  0  0  0  0
   57.4920   34.3190   44.8490 C   0  0  0  0  0  0  0  0  0  0  0  0
   57.0273   35.2045   44.3909 H   0  0  0  0  0  0  0  0  0  0  0  0
   56.9900   33.0820   44.5970 N   0  0  0  0  0  0  0  0  0  0  0  0
   56.8560   28.3980   45.2470 C   0  0  0  0  0  0  0  0  0  0  0  0
   55.7646   28.5119   45.3230 H   0  0  0  0  0  0  0  0  0  0  0  0
  1  2  1  0
  2  3  1  0
  3  4  2  0
  3  5  2  0
  3  6  1  0
  6  7  2  0
  7  8  1  0
  7  9  1  0
  9 10  1  0
  9 11  2  0
 11 12  1  0
 11 13  1  0
 13 14  1  0
 14 15  2  0
 15 16  1  0
 16 17  2  0
 17 18  1  0
 18 19  2  0
 19 20  1  0
 19 21  1  0
 21 22  1  0
 21 23  2  0
 23 24  1  0
 24 25  2  0
 24 26  1  0
 26 27  1  0
 26 28  1  0
 28 29  1  0
 28 30  1  0
 28 31  1  0
 31 32  2  0
 32 33  1  0
 32 34  1  0
 34 35  1  0
 34 36  2  0
 36 37  1  0
 36 38  1  0
 38 39  1  0
 38 40  2  0
 40 41  1  0
 23 42  1  0
 42 43  1  0
 42 44  2  0
 44 45  1  0
 17 46  1  0
 46 47  1  0
 46 48  2  0
 48 49  1  0
 48 50  1  0
 13 51  2  0
 51 52  1  0
 51  6  1  0
 50 15  1  0
 44 18  1  0
 40 31  1  0
M  CHG  2   2  -1  50  -1
M  END
>  <UniqueID>  (35) 
33

>  <SMILES>  (35) 
[NH-]S(=O)(=O)c1cccc(/N=c2\nc(-c3ccc(C(=O)NCc4ccccc4)cc3)cc[n-]2)c1

>  <Energy>  (35) 
67.13625487793693

>  <Genealogy>  (35) 
[NH-]S(=O)(=O)c1cccc(N=c2nc(-c3ccc(C(=O)NCc4ccccc4)cc3)cc[n-]2)c1 (protonated)
[NH-]S(=O)(=O)c1cccc(/N=c2\nc(-c3ccc(C(=O)NCc4ccccc4)cc3)cc[n-]2)c1 (cis-trans isomerization)
[NH-]S(=O)(=O)c1cccc(/N=c2\nc(-c3ccc(C(=O)NCc4ccccc4)cc3)cc[n-]2)c1 (3D coordinates assigned)
[NH-]S(=O)(=O)c1cccc(/N=c2\nc(-c3ccc(C(=O)NCc4ccccc4)cc3)cc[n-]2)c1 (optimized conformer: 67.13625487793693 kcal/mol)

>  <smiles>  (35) 
NS(=O)(=O)c1cccc(N=c2nc(-c3ccc(C(=O)NCc4ccccc4)cc3)cc[nH]2)c1

>  <score_type>  (35) 
oracle

>  <origin>  (35) 
adg

>  <m_score__min__energy>  (35) 
-14.84

>  <m_primary>  (35) 
energy

$$$$
35:0
     RDKit          3D

 66 69  0  0  0  0  0  0  0  0999 V2000
   55.7600   27.4590   45.6240 O   0  0  0  0  0  0  0  0  0  0  0  0
   56.7400   28.1840   45.3120 C   0  0  0  0  0  0  0  0  0  0  0  0
   56.5200   29.3570   44.3970 C   0  0  0  0  0  0  0  0  0  0  0  0
   57.0470   30.5470   44.9810 O   0  0  0  0  0  0  0  0  0  0  0  0
   57.9630   31.3810   44.3250 C   0  0  0  0  0  0  0  0  0  0  0  0
   58.4010   31.0640   43.1850 O   0  0  0  0  0  0  0  0  0  0  0  0
   58.4090   32.6370   44.9640 C   0  0  0  0  0  0  0  0  0  0  0  0
   58.3500   33.8550   44.2630 C   0  0  0  0  0  0  0  0  0  0  0  0
   58.7630   35.0420   44.8710 C   0  0  0  0  0  0  0  0  0  0  0  0
   59.2510   35.0280   46.1790 C   0  0  0  0  0  0  0  0  0  0  0  0
   59.3290   33.8230   46.8880 C   0  0  0  0  0  0  0  0  0  0  0  0
   59.9540   33.8280   48.5340 S   0  0  0  0  0  0  0  0  0  0  0  0
   59.6350   32.5030   49.1730 O   0  0  0  0  0  0  0  0  0  0  0  0
   59.2950   34.9170   49.3380 O   0  0  0  0  0  0  0  0  0  0  0  0
   61.6830   34.0730   48.4950 N   0  0  0  0  0  0  0  0  0  0  0  0
   62.3080   33.6710   49.7810 C   0  0  0  0  0  0  0  0  0  0  0  0
   62.9680   32.2840   49.7180 C   0  0  0  0  0  0  0  0  0  0  0  0
   64.0570   32.2350   48.6320 C   0  0  0  0  0  0  0  0  0  0  0  0
   63.7650   33.1840   47.4560 C   0  0  0  0  0  0  0  0  0  0  0  0
   62.2580   33.4140   47.2990 C   0  0  0  0  0  0  0  0  0  0  0  0
   58.8990   32.6300   46.2840 C   0  0  0  0  0  0  0  0  0  0  0  0
   58.0490   27.8150   45.7630 N   0  0  0  0  0  0  0  0  0  0  0  0
   58.9420   28.6450   46.5190 C   0  0  0  0  0  0  0  0  0  0  0  0
   58.8560   28.7000   47.9210 C   0  0  0  0  0  0  0  0  0  0  0  0
   59.7510   29.4860   48.6570 C   0  0  0  0  0  0  0  0  0  0  0  0
   59.6420   29.5360   50.4160 S   0  0  0  0  0  0  0  0  0  0  0  0
   60.5820   30.5970   50.9210 O   0  0  0  0  0  0  0  0  0  0  0  0
   60.0830   28.2130   50.9780 O   0  0  0  0  0  0  0  0  0  0  0  0
   58.0070   29.9240   50.9140 N   0  0  0  0  0  0  0  0  0  0  0  0
   57.6830   29.4210   52.2620 C   0  0  0  0  0  0  0  0  0  0  0  0
   58.2090   30.3480   53.3680 C   0  0  0  0  0  0  0  0  0  0  0  0
   57.7270   31.6640   53.1900 O   0  0  0  0  0  0  0  0  0  0  0  0
   58.2170   32.1840   51.9710 C   0  0  0  0  0  0  0  0  0  0  0  0
   57.7080   31.3630   50.7750 C   0  0  0  0  0  0  0  0  0  0  0  0
   60.7480   30.2090   47.9890 C   0  0  0  0  0  0  0  0  0  0  0  0
   60.8580   30.1350   46.6000 C   0  0  0  0  0  0  0  0  0  0  0  0
   59.9660   29.3510   45.8600 C   0  0  0  0  0  0  0  0  0  0  0  0
   60.1100   29.2970   44.4730 O   0  0  0  0  0  0  0  0  0  0  0  0
   57.0253   29.1689   43.4382 H   0  0  0  0  0  0  0  0  0  0  0  0
   55.4397   29.4864   44.2350 H   0  0  0  0  0  0  0  0  0  0  0  0
   57.9759   33.8724   43.2287 H   0  0  0  0  0  0  0  0  0  0  0  0
   58.7037   35.9910   44.3179 H   0  0  0  0  0  0  0  0  0  0  0  0
   59.5750   35.9659   46.6538 H   0  0  0  0  0  0  0  0  0  0  0  0
   63.0756   34.4132   50.0452 H   0  0  0  0  0  0  0  0  0  0  0  0
   61.5088   33.6221   50.5352 H   0  0  0  0  0  0  0  0  0  0  0  0
   63.4237   32.0588   50.6935 H   0  0  0  0  0  0  0  0  0  0  0  0
   62.1952   31.5414   49.4703 H   0  0  0  0  0  0  0  0  0  0  0  0
   65.0183   32.5202   49.0843 H   0  0  0  0  0  0  0  0  0  0  0  0
   64.0836   31.2100   48.2336 H   0  0  0  0  0  0  0  0  0  0  0  0
   64.2591   34.1492   47.6410 H   0  0  0  0  0  0  0  0  0  0  0  0
   64.1485   32.7265   46.5321 H   0  0  0  0  0  0  0  0  0  0  0  0
   62.0832   34.0522   46.4203 H   0  0  0  0  0  0  0  0  0  0  0  0
   61.7701   32.4359   47.1751 H   0  0  0  0  0  0  0  0  0  0  0  0
   58.9453   31.6851   46.8453 H   0  0  0  0  0  0  0  0  0  0  0  0
   58.0800   28.1214   48.4436 H   0  0  0  0  0  0  0  0  0  0  0  0
   56.5901   29.3405   52.3570 H   0  0  0  0  0  0  0  0  0  0  0  0
   58.1681   28.4412   52.3829 H   0  0  0  0  0  0  0  0  0  0  0  0
   57.8738   29.9701   54.3452 H   0  0  0  0  0  0  0  0  0  0  0  0
   59.3079   30.3653   53.3210 H   0  0  0  0  0  0  0  0  0  0  0  0
   57.8784   33.2249   51.8624 H   0  0  0  0  0  0  0  0  0  0  0  0
   59.3158   32.1347   51.9865 H   0  0  0  0  0  0  0  0  0  0  0  0
   56.6184   31.4917   50.6959 H   0  0  0  0  0  0  0  0  0  0  0  0
   58.2226   31.7276   49.8738 H   0  0  0  0  0  0  0  0  0  0  0  0
   61.4464   30.8371   48.5615 H   0  0  0  0  0  0  0  0  0  0  0  0
   61.6507   30.6963   46.0836 H   0  0  0  0  0  0  0  0  0  0  0  0
   59.3150   29.2510   43.8480 H   0  0  0  0  0  0  0  0  0  0  0  0
  1  2  2  0
  2  3  1  0
  3  4  1  0
  4  5  1  0
  5  6  2  0
  5  7  1  0
  7  8  2  0
  8  9  1  0
  9 10  2  0
 10 11  1  0
 11 12  1  0
 12 13  2  0
 12 14  2  0
 12 15  1  0
 15 16  1  0
 16 17  1  0
 17 18  1  0
 18 19  1  0
 19 20  1  0
 11 21  2  0
  2 22  1  0
 22 23  1  0
 23 24  2  0
 24 25  1  0
 25 26  1  0
 26 27  2  0
 26 28  2  0
 26 29  1  0
 29 30  1  0
 30 31  1  0
 31 32  1  0
 32 33  1  0
 33 34  1  0
 25 35  2  0
 35 36  1  0
 36 37  2  0
 37 38  1  0
 21  7  1  0
 37 23  1  0
 20 15  1  0
 34 29  1  0
  3 39  1  0
  3 40  1  0
  8 41  1  0
  9 42  1  0
 10 43  1  0
 16 44  1  0
 16 45  1  0
 17 46  1  0
 17 47  1  0
 18 48  1  0
 18 49  1  0
 19 50  1  0
 19 51  1  0
 20 52  1  0
 20 53  1  0
 21 54  1  0
 24 55  1  0
 30 56  1  0
 30 57  1  0
 31 58  1  0
 31 59  1  0
 33 60  1  0
 33 61  1  0
 34 62  1  0
 34 63  1  0
 35 64  1  0
 36 65  1  0
 38 66  1  0
M  CHG  1  22  -1
M  END
>  <UniqueID>  (36) 
34

>  <SMILES>  (36) 
O=C(COC(=O)c1cccc(S(=O)(=O)N2CCCCC2)c1)[N-]c1cc(S(=O)(=O)N2CCOCC2)ccc1O

>  <Energy>  (36) 
81.70661509489301

>  <Genealogy>  (36) 
O=C(COC(=O)c1cccc(S(=O)(=O)N2CCCCC2)c1)[N-]c1cc(S(=O)(=O)N2CCOCC2)ccc1O (protonated)
O=C(COC(=O)c1cccc(S(=O)(=O)N2CCCCC2)c1)[N-]c1cc(S(=O)(=O)N2CCOCC2)ccc1O (3D coordinates assigned)
O=C(COC(=O)c1cccc(S(=O)(=O)N2CCCCC2)c1)[N-]c1cc(S(=O)(=O)N2CCOCC2)ccc1O (nonaromatic ring conformer: 81.70661509489301 kcal/mol)

>  <smiles>  (36) 
O=C(COC(=O)c1cccc(S(=O)(=O)N2CCCCC2)c1)Nc1cc(S(=O)(=O)N2CCOCC2)ccc1O

>  <score_type>  (36) 
oracle

>  <origin>  (36) 
adg

>  <m_score__min__energy>  (36) 
-11.779999999999999

>  <m_primary>  (36) 
energy

$$$$
36:0
     RDKit          3D

 56 59  0  0  0  0  0  0  0  0999 V2000
   58.4410   25.7690   47.6690 C   0  0  0  0  0  0  0  0  0  0  0  0
   59.4230   25.9400   46.5880 N   0  0  0  0  0  0  0  0  0  0  0  0
   60.4440   26.9440   46.9480 C   0  0  0  0  0  0  0  0  0  0  0  0
   59.7930   28.1990   47.5500 C   0  0  0  0  0  0  0  0  0  0  0  0
   59.0720   29.1300   46.5870 C   0  0  0  0  0  0  0  0  0  0  0  0
   59.3770   30.5020   46.6590 C   0  0  0  0  0  0  0  0  0  0  0  0
   58.7050   31.4450   45.8620 C   0  0  0  0  0  0  0  0  0  0  0  0
   59.0400   32.8490   45.9430 N   0  0  0  0  0  0  0  0  0  0  0  0
   58.3390   33.8330   45.1060 C   0  0  0  0  0  0  0  0  0  0  0  0
   59.2250   35.0650   44.8880 C   0  0  0  0  0  0  0  0  0  0  0  0
   59.6390   35.6930   46.1560 N   0  0  0  0  0  0  0  0  0  0  0  0
   59.8260   34.7580   47.2840 C   0  0  0  0  0  0  0  0  0  0  0  0
   60.1020   33.3160   46.8410 C   0  0  0  0  0  0  0  0  0  0  0  0
   57.6980   30.9990   44.9940 C   0  0  0  0  0  0  0  0  0  0  0  0
   57.3700   29.6470   44.9210 C   0  0  0  0  0  0  0  0  0  0  0  0
   58.0450   28.7050   45.7080 C   0  0  0  0  0  0  0  0  0  0  0  0
   57.6850   27.3210   45.5930 N   0  0  0  0  0  0  0  0  0  0  0  0
   56.3090   26.9110   45.9020 C   0  0  0  0  0  0  0  0  0  0  0  0
   56.0890   25.4570   45.5910 C   0  0  0  0  0  0  0  0  0  0  0  0
   55.5680   24.7120   46.4640 O   0  0  0  0  0  0  0  0  0  0  0  0
   56.4160   24.9390   44.2920 N   0  0  0  0  0  0  0  0  0  0  0  0
   56.6050   23.5420   44.0060 C   0  0  0  0  0  0  0  0  0  0  0  0
   57.3390   22.7470   44.8960 C   0  0  0  0  0  0  0  0  0  0  0  0
   57.5100   21.3840   44.6410 C   0  0  0  0  0  0  0  0  0  0  0  0
   56.9260   20.8230   43.5030 C   0  0  0  0  0  0  0  0  0  0  0  0
   56.1930   21.5990   42.6610 N   0  0  0  0  0  0  0  0  0  0  0  0
   56.0160   22.9290   42.8850 C   0  0  0  0  0  0  0  0  0  0  0  0
   58.7340   26.3210   45.3390 C   0  0  0  0  0  0  0  0  0  0  0  0
   58.9473   25.8572   48.6416 H   0  0  0  0  0  0  0  0  0  0  0  0
   57.6665   26.5458   47.5870 H   0  0  0  0  0  0  0  0  0  0  0  0
   57.9746   24.7761   47.5870 H   0  0  0  0  0  0  0  0  0  0  0  0
   61.1337   26.5074   47.6854 H   0  0  0  0  0  0  0  0  0  0  0  0
   60.9877   27.2337   46.0367 H   0  0  0  0  0  0  0  0  0  0  0  0
   59.0613   27.8661   48.3008 H   0  0  0  0  0  0  0  0  0  0  0  0
   60.6289   28.7917   47.9499 H   0  0  0  0  0  0  0  0  0  0  0  0
   60.1581   30.8439   47.3540 H   0  0  0  0  0  0  0  0  0  0  0  0
   58.1010   33.3791   44.1327 H   0  0  0  0  0  0  0  0  0  0  0  0
   57.4120   34.1409   45.6118 H   0  0  0  0  0  0  0  0  0  0  0  0
   60.1254   34.7589   44.3353 H   0  0  0  0  0  0  0  0  0  0  0  0
   58.6371   35.8045   44.3246 H   0  0  0  0  0  0  0  0  0  0  0  0
   60.5410   36.1980   45.9860 H   0  0  0  0  0  0  0  0  0  0  0  0
   60.6770   35.1061   47.8879 H   0  0  0  0  0  0  0  0  0  0  0  0
   58.8865   34.7476   47.8561 H   0  0  0  0  0  0  0  0  0  0  0  0
   61.0668   33.2763   46.3141 H   0  0  0  0  0  0  0  0  0  0  0  0
   60.1317   32.6675   47.7290 H   0  0  0  0  0  0  0  0  0  0  0  0
   57.1616   31.7241   44.3643 H   0  0  0  0  0  0  0  0  0  0  0  0
   56.5732   29.3159   44.2387 H   0  0  0  0  0  0  0  0  0  0  0  0
   56.1159   27.0818   46.9714 H   0  0  0  0  0  0  0  0  0  0  0  0
   55.6221   27.5062   45.2823 H   0  0  0  0  0  0  0  0  0  0  0  0
   56.4720   25.6150   43.4970 H   0  0  0  0  0  0  0  0  0  0  0  0
   57.7814   23.1967   45.7971 H   0  0  0  0  0  0  0  0  0  0  0  0
   58.0983   20.7593   45.3292 H   0  0  0  0  0  0  0  0  0  0  0  0
   57.0592   19.7525   43.2878 H   0  0  0  0  0  0  0  0  0  0  0  0
   55.4107   23.5269   42.1877 H   0  0  0  0  0  0  0  0  0  0  0  0
   58.2756   25.4252   44.8946 H   0  0  0  0  0  0  0  0  0  0  0  0
   59.4739   26.7593   44.6531 H   0  0  0  0  0  0  0  0  0  0  0  0
  1  2  1  0
  2  3  1  0
  3  4  1  0
  4  5  1  0
  5  6  2  0
  6  7  1  0
  7  8  1  0
  8  9  1  0
  9 10  1  0
 10 11  1  0
 11 12  1  0
 12 13  1  0
  7 14  2  0
 14 15  1  0
 15 16  2  0
 16 17  1  0
 17 18  1  0
 18 19  1  0
 19 20  2  0
 19 21  1  0
 21 22  1  0
 22 23  2  0
 23 24  1  0
 24 25  2  0
 25 26  1  0
 26 27  2  0
 17 28  1  0
 28  2  1  0
 16  5  1  0
 27 22  1  0
 13  8  1  0
  1 29  1  0
  1 30  1  0
  1 31  1  0
  3 32  1  0
  3 33  1  0
  4 34  1  0
  4 35  1  0
  6 36  1  0
  9 37  1  0
  9 38  1  0
 10 39  1  0
 10 40  1  0
 11 41  1  0
 12 42  1  0
 12 43  1  0
 13 44  1  0
 13 45  1  0
 14 46  1  0
 15 47  1  0
 18 48  1  0
 18 49  1  0
 21 50  1  0
 23 51  1  0
 24 52  1  0
 25 53  1  0
 27 54  1  0
 28 55  1  0
 28 56  1  0
M  END
>  <UniqueID>  (37) 
35

>  <SMILES>  (37) 
CN1CCc2cc(N3CCNCC3)ccc2N(CC(=O)Nc2cccnc2)C1

>  <Energy>  (37) 
83.28365727665731

>  <Genealogy>  (37) 
CN1CCc2cc(N3CCNCC3)ccc2N(CC(=O)Nc2cccnc2)C1 (3D coordinates assigned)
CN1CCc2cc(N3CCNCC3)ccc2N(CC(=O)Nc2cccnc2)C1 (nonaromatic ring conformer: 83.28365727665731 kcal/mol)

>  <smiles>  (37) 
CN1CCc2cc(N3CCNCC3)ccc2N(CC(=O)Nc2cccnc2)C1

>  <score_type>  (37) 
oracle

>  <origin>  (37) 
adg

>  <m_score__min__energy>  (37) 
-6.4699999999999998

>  <m_primary>  (37) 
energy

$$$$
37:0
     RDKit          3D

 61 64  0  0  0  0  0  0  0  0999 V2000
   55.1350   26.1480   45.6760 N   0  0  0  0  0  0  0  0  0  0  0  0
   55.1710   24.5370   46.3040 S   0  0  0  0  0  0  0  0  0  0  0  0
   53.7610   24.0180   46.3510 O   0  0  0  0  0  0  0  0  0  0  0  0
   55.7410   24.5680   47.6940 O   0  0  0  0  0  0  0  0  0  0  0  0
   56.1710   23.4980   45.2740 C   0  0  0  0  0  0  0  0  0  0  0  0
   55.6390   22.2750   44.8330 C   0  0  0  0  0  0  0  0  0  0  0  0
   56.4080   21.4020   44.0620 C   0  0  0  0  0  0  0  0  0  0  0  0
   57.7180   21.7370   43.7200 C   0  0  0  0  0  0  0  0  0  0  0  0
   58.2580   22.9550   44.1400 C   0  0  0  0  0  0  0  0  0  0  0  0
   57.4930   23.8510   44.9040 C   0  0  0  0  0  0  0  0  0  0  0  0
   58.1000   25.1420   45.2870 C   0  0  0  0  0  0  0  0  0  0  0  0
   58.8020   25.2590   46.4960 C   0  0  0  0  0  0  0  0  0  0  0  0
   59.3900   26.4740   46.8530 C   0  0  0  0  0  0  0  0  0  0  0  0
   59.2830   27.5900   46.0070 C   0  0  0  0  0  0  0  0  0  0  0  0
   59.9520   28.8830   46.3760 C   0  0  0  0  0  0  0  0  0  0  0  0
   58.9320   29.8850   46.6900 N   0  0  0  0  0  0  0  0  0  0  0  0
   59.6790   31.2850   47.4010 S   0  0  0  0  0  0  0  0  0  0  0  0
   59.1660   31.4540   48.8030 O   0  0  0  0  0  0  0  0  0  0  0  0
   61.1670   31.0740   47.4420 O   0  0  0  0  0  0  0  0  0  0  0  0
   59.2600   32.7240   46.4590 C   0  0  0  0  0  0  0  0  0  0  0  0
   58.0600   32.7110   45.7280 C   0  0  0  0  0  0  0  0  0  0  0  0
   57.6830   33.8140   44.9610 C   0  0  0  0  0  0  0  0  0  0  0  0
   58.4930   34.9490   44.9240 C   0  0  0  0  0  0  0  0  0  0  0  0
   59.6810   34.9830   45.6540 C   0  0  0  0  0  0  0  0  0  0  0  0
   60.0780   33.8790   46.4250 C   0  0  0  0  0  0  0  0  0  0  0  0
   61.3020   33.9620   47.1690 N   0  0  0  0  0  0  0  0  0  0  0  0
   62.5720   33.6720   46.4870 C   0  0  0  0  0  0  0  0  0  0  0  0
   63.7210   33.5100   47.4880 C   0  0  0  0  0  0  0  0  0  0  0  0
   63.2660   32.6380   48.6590 C   0  0  0  0  0  0  0  0  0  0  0  0
   62.1030   33.2890   49.4460 C   0  0  2  0  0  0  0  0  0  0  0  0
   61.2600   32.2460   50.0340 N   0  0  0  0  0  0  0  0  0  0  0  0
   61.2650   34.2870   48.6010 C   0  0  0  0  0  0  0  0  0  0  0  0
   58.6070   27.4630   44.7830 C   0  0  0  0  0  0  0  0  0  0  0  0
   58.0190   26.2470   44.4250 C   0  0  0  0  0  0  0  0  0  0  0  0
   54.7680   26.7640   46.4360 H   0  0  0  0  0  0  0  0  0  0  0  0
   54.6066   22.0028   45.0978 H   0  0  0  0  0  0  0  0  0  0  0  0
   55.9797   20.4471   43.7231 H   0  0  0  0  0  0  0  0  0  0  0  0
   58.3252   21.0430   43.1203 H   0  0  0  0  0  0  0  0  0  0  0  0
   59.2922   23.2146   43.8697 H   0  0  0  0  0  0  0  0  0  0  0  0
   58.8895   24.3903   47.1651 H   0  0  0  0  0  0  0  0  0  0  0  0
   59.9400   26.5576   47.8019 H   0  0  0  0  0  0  0  0  0  0  0  0
   60.5951   28.7260   47.2545 H   0  0  0  0  0  0  0  0  0  0  0  0
   60.5648   29.2338   45.5326 H   0  0  0  0  0  0  0  0  0  0  0  0
   58.2890   29.4810   47.4100 H   0  0  0  0  0  0  0  0  0  0  0  0
   57.4117   31.8229   45.7607 H   0  0  0  0  0  0  0  0  0  0  0  0
   56.7462   33.7884   44.3850 H   0  0  0  0  0  0  0  0  0  0  0  0
   58.1947   35.8177   44.3188 H   0  0  0  0  0  0  0  0  0  0  0  0
   60.3127   35.8831   45.6253 H   0  0  0  0  0  0  0  0  0  0  0  0
   62.4646   32.7405   45.9119 H   0  0  0  0  0  0  0  0  0  0  0  0
   62.8085   34.5163   45.8228 H   0  0  0  0  0  0  0  0  0  0  0  0
   64.5769   33.0331   46.9880 H   0  0  0  0  0  0  0  0  0  0  0  0
   64.0177   34.4999   47.8650 H   0  0  0  0  0  0  0  0  0  0  0  0
   62.9310   31.6655   48.2690 H   0  0  0  0  0  0  0  0  0  0  0  0
   64.1171   32.5182   49.3455 H   0  0  0  0  0  0  0  0  0  0  0  0
   62.5515   33.8933   50.2483 H   0  0  0  0  0  0  0  0  0  0  0  0
   60.2810   32.6070   50.1080 H   0  0  0  0  0  0  0  0  0  0  0  0
   61.2400   31.4180   49.3970 H   0  0  0  0  0  0  0  0  0  0  0  0
   60.2209   34.2547   48.9456 H   0  0  0  0  0  0  0  0  0  0  0  0
   61.6968   35.2901   48.7330 H   0  0  0  0  0  0  0  0  0  0  0  0
   58.5399   28.3248   44.1027 H   0  0  0  0  0  0  0  0  0  0  0  0
   57.4909   26.1553   43.4644 H   0  0  0  0  0  0  0  0  0  0  0  0
  1  2  1  0
  2  3  2  0
  2  4  2  0
  2  5  1  0
  5  6  2  0
  6  7  1  0
  7  8  2  0
  8  9  1  0
  9 10  2  0
 10 11  1  0
 11 12  2  0
 12 13  1  0
 13 14  2  0
 14 15  1  0
 15 16  1  0
 16 17  1  0
 17 18  2  0
 17 19  2  0
 17 20  1  0
 20 21  2  0
 21 22  1  0
 22 23  2  0
 23 24  1  0
 24 25  2  0
 25 26  1  0
 26 27  1  0
 27 28  1  0
 28 29  1  0
 29 30  1  0
 30 31  1  0
 30 32  1  0
 14 33  1  0
 33 34  2  0
 10  5  1  0
 34 11  1  0
 25 20  1  0
 32 26  1  0
  1 35  1  0
  6 36  1  0
  7 37  1  0
  8 38  1  0
  9 39  1  0
 12 40  1  0
 13 41  1  0
 15 42  1  0
 15 43  1  0
 16 44  1  0
 21 45  1  0
 22 46  1  0
 23 47  1  0
 24 48  1  0
 27 49  1  0
 27 50  1  0
 28 51  1  0
 28 52  1  0
 29 53  1  0
 29 54  1  0
 30 55  1  1
 31 56  1  0
 31 57  1  0
 32 58  1  0
 32 59  1  0
 33 60  1  0
 34 61  1  0
M  CHG  1   1  -1
M  END
>  <UniqueID>  (38) 
36

>  <SMILES>  (38) 
[NH-]S(=O)(=O)c1ccccc1-c1ccc(CNS(=O)(=O)c2ccccc2N2CCC[C@H](N)C2)cc1

>  <Energy>  (38) 
77.59261833818793

>  <Genealogy>  (38) 
[NH-]S(=O)(=O)c1ccccc1-c1ccc(CNS(=O)(=O)c2ccccc2N2CCCC(N)C2)cc1 (protonated)
[NH-]S(=O)(=O)c1ccccc1-c1ccc(CNS(=O)(=O)c2ccccc2N2CCC[C@H](N)C2)cc1 (chirality)
[NH-]S(=O)(=O)c1ccccc1-c1ccc(CNS(=O)(=O)c2ccccc2N2CCC[C@H](N)C2)cc1 (3D coordinates assigned)
[NH-]S(=O)(=O)c1ccccc1-c1ccc(CNS(=O)(=O)c2ccccc2N2CCC[C@H](N)C2)cc1 (nonaromatic ring conformer: 77.59261833818793 kcal/mol)

>  <smiles>  (38) 
NC1CCCN(c2ccccc2S(=O)(=O)NCc2ccc(-c3ccccc3S(N)(=O)=O)cc2)C1

>  <score_type>  (38) 
oracle

>  <origin>  (38) 
adg

>  <m_score__min__energy>  (38) 
-13.02

>  <m_primary>  (38) 
energy

$$$$
38:0
     RDKit          3D

 53 54  0  0  1  0  0  0  0  0999 V2000
   62.6820   33.9400   48.8410 C   0  0  0  0  0  0  0  0  0  0  0  0
   62.7230   32.9740   47.6570 C   0  0  0  0  0  0  0  0  0  0  0  0
   62.7870   33.8510   46.4060 C   0  0  0  0  0  0  0  0  0  0  0  0
   61.4820   32.1550   47.6630 C   0  0  0  0  0  0  0  0  0  0  0  0
   60.1980   32.5430   47.7770 N   0  0  0  0  0  0  0  0  0  0  0  0
   59.4480   31.4820   47.7310 O   0  0  0  0  0  0  0  0  0  0  0  0
   60.1630   30.3870   47.5910 C   0  0  0  0  0  0  0  0  0  0  0  0
   59.7030   29.0040   47.4990 C   0  0  0  0  0  0  0  0  0  0  0  0
   60.4550   27.9730   48.0350 C   0  0  0  0  0  0  0  0  0  0  0  0
   59.9590   26.7290   47.9060 N   0  0  0  0  0  0  0  0  0  0  0  0
   58.7700   26.4890   47.2790 C   0  0  0  0  0  0  0  0  0  0  0  0
   58.4150   25.2500   47.2270 N   0  0  0  0  0  0  0  0  0  0  0  0
   57.1810   24.8560   47.8370 C   0  0  0  0  0  0  0  0  0  0  0  0
   56.3930   24.0280   46.8490 C   0  0  0  0  0  0  0  0  0  0  0  0
   55.7420   25.1760   45.6290 S   0  0  0  0  0  0  0  0  0  0  0  0
   57.0420   25.7070   44.6500 N   0  0  0  0  0  0  0  0  0  0  0  0
   54.6340   24.5570   44.8680 O   0  0  0  0  0  0  0  0  0  0  0  0
   55.1850   26.3780   46.3500 O   0  0  0  0  0  0  0  0  0  0  0  0
   58.0640   27.5010   46.7720 N   0  0  0  0  0  0  0  0  0  0  0  0
   58.5000   28.7770   46.8630 C   0  0  0  0  0  0  0  0  0  0  0  0
   57.8340   29.7710   46.3790 N   0  0  0  0  0  0  0  0  0  0  0  0
   57.9800   30.0400   44.9620 C   0  0  0  0  0  0  0  0  0  0  0  0
   57.0300   29.2010   44.1350 C   0  0  0  0  0  0  0  0  0  0  0  0
   57.7960   28.1810   43.3430 C   0  0  0  0  0  0  0  0  0  0  0  0
   56.2840   30.0830   43.1570 C   0  0  0  0  0  0  0  0  0  0  0  0
   56.0300   28.5850   44.9950 N   0  0  0  0  0  0  0  0  0  0  0  0
   61.4600   30.8150   47.5470 N   0  0  0  0  0  0  0  0  0  0  0  0
   62.7062   33.3691   49.7810 H   0  0  0  0  0  0  0  0  0  0  0  0
   63.5525   34.6111   48.7970 H   0  0  0  0  0  0  0  0  0  0  0  0
   61.7578   34.5349   48.7970 H   0  0  0  0  0  0  0  0  0  0  0  0
   63.5819   32.2880   47.6984 H   0  0  0  0  0  0  0  0  0  0  0  0
   62.8641   34.9075   46.7024 H   0  0  0  0  0  0  0  0  0  0  0  0
   63.6672   33.5728   45.8078 H   0  0  0  0  0  0  0  0  0  0  0  0
   61.8757   33.7036   45.8078 H   0  0  0  0  0  0  0  0  0  0  0  0
   61.4126   28.1617   48.5423 H   0  0  0  0  0  0  0  0  0  0  0  0
   60.5150   25.9560   48.3020 H   0  0  0  0  0  0  0  0  0  0  0  0
   57.3876   24.2594   48.7378 H   0  0  0  0  0  0  0  0  0  0  0  0
   56.6034   25.7476   48.1225 H   0  0  0  0  0  0  0  0  0  0  0  0
   57.0480   23.2890   46.3644 H   0  0  0  0  0  0  0  0  0  0  0  0
   55.5833   23.4756   47.3483 H   0  0  0  0  0  0  0  0  0  0  0  0
   56.7770   26.6240   44.2280 H   0  0  0  0  0  0  0  0  0  0  0  0
   57.8910   25.8000   45.2640 H   0  0  0  0  0  0  0  0  0  0  0  0
   57.1590   27.2910   46.2970 H   0  0  0  0  0  0  0  0  0  0  0  0
   57.7701   31.1038   44.7771 H   0  0  0  0  0  0  0  0  0  0  0  0
   59.0089   29.7857   44.6677 H   0  0  0  0  0  0  0  0  0  0  0  0
   58.3116   27.4945   44.0307 H   0  0  0  0  0  0  0  0  0  0  0  0
   57.1006   27.6113   42.7090 H   0  0  0  0  0  0  0  0  0  0  0  0
   58.5370   28.6900   42.7090 H   0  0  0  0  0  0  0  0  0  0  0  0
   55.6705   30.8083   43.7116 H   0  0  0  0  0  0  0  0  0  0  0  0
   57.0054   30.6209   42.5243 H   0  0  0  0  0  0  0  0  0  0  0  0
   55.6339   29.4608   42.5243 H   0  0  0  0  0  0  0  0  0  0  0  0
   56.1530   28.8550   45.9940 H   0  0  0  0  0  0  0  0  0  0  0  0
   55.9460   27.5590   44.8530 H   0  0  0  0  0  0  0  0  0  0  0  0
  1  2  1  0
  2  3  1  0
  2  4  1  0
  4  5  2  0
  5  6  1  0
  6  7  1  0
  7  8  1  0
  8  9  2  0
  9 10  1  0
 10 11  1  0
 11 12  2  0
 12 13  1  0
 13 14  1  0
 14 15  1  0
 15 16  1  0
 15 17  2  0
 15 18  2  0
 11 19  1  0
 19 20  1  0
 20 21  2  0
 21 22  1  0
 22 23  1  0
 23 24  1  0
 23 25  1  0
 23 26  1  0
  7 27  2  0
 27  4  1  0
 20  8  1  0
  1 28  1  0
  1 29  1  0
  1 30  1  0
  2 31  1  0
  3 32  1  0
  3 33  1  0
  3 34  1  0
  9 35  1  0
 10 36  1  0
 13 37  1  0
 13 38  1  0
 14 39  1  0
 14 40  1  0
 16 41  1  0
 16 42  1  0
 19 43  1  0
 22 44  1  0
 22 45  1  0
 24 46  1  0
 24 47  1  0
 24 48  1  0
 25 49  1  0
 25 50  1  0
 25 51  1  0
 26 52  1  0
 26 53  1  0
M  END
>  <smiles>  (39) 
CC(C)c1noc(-c2c[nH]c(=NCCS(N)(=O)=O)[nH]c2=NCC(C)(C)N)n1

>  <score_type>  (39) 
oracle

>  <origin>  (39) 
adg

>  <m_score__min__energy>  (39) 
-7.7800000000000002

>  <m_primary>  (39) 
energy

$$$$
39:0
     RDKit          3D

 44 46  0  0  0  0  0  0  0  0999 V2000
   58.6586   26.8062   43.5967 H   0  0  0  0  0  0  0  0  0  0  0  0
   58.1580   26.5320   44.5370 C   0  0  0  0  0  0  0  0  0  0  0  0
   58.4280   25.1330   45.4280 S   0  0  0  0  0  0  0  0  0  0  0  0
   57.3180   25.5490   46.6240 C   0  0  0  0  0  0  0  0  0  0  0  0
   56.9880   24.8350   47.6600 N   0  0  0  0  0  0  0  0  0  0  0  0
   56.4300   23.5100   47.6680 C   0  0  0  0  0  0  0  0  0  0  0  0
   57.0700   22.6020   48.2630 O   0  0  0  0  0  0  0  0  0  0  0  0
   55.1390   23.1760   46.9450 C   0  0  1  0  0  0  0  0  0  0  0  0
   54.4314   22.7328   47.6611 H   0  0  0  0  0  0  0  0  0  0  0  0
   54.5600   24.4160   46.3930 N   0  0  0  0  0  0  0  0  0  0  0  0
   55.1210   25.2450   46.7010 H   0  0  0  0  0  0  0  0  0  0  0  0
   54.5000   24.4040   44.9280 C   0  0  0  0  0  0  0  0  0  0  0  0
   53.4689   24.1978   44.6049 H   0  0  0  0  0  0  0  0  0  0  0  0
   54.8169   25.3833   44.5400 H   0  0  0  0  0  0  0  0  0  0  0  0
   55.1692   23.6219   44.5400 H   0  0  0  0  0  0  0  0  0  0  0  0
   55.3700   22.1280   45.8370 C   0  0  0  0  0  0  0  0  0  0  0  0
   55.5853   21.1514   46.2952 H   0  0  0  0  0  0  0  0  0  0  0  0
   54.4676   22.0493   45.2129 H   0  0  0  0  0  0  0  0  0  0  0  0
   56.2218   22.4360   45.2129 H   0  0  0  0  0  0  0  0  0  0  0  0
   56.7240   26.7310   46.3550 N   0  0  0  0  0  0  0  0  0  0  0  0
   57.1860   27.2860   45.2000 C   0  0  0  0  0  0  0  0  0  0  0  0
   56.6820   28.5930   44.7330 C   0  0  0  0  0  0  0  0  0  0  0  0
   55.6230   29.0510   45.2430 O   0  0  0  0  0  0  0  0  0  0  0  0
   57.3640   29.3430   43.7120 N   0  0  0  0  0  0  0  0  0  0  0  0
   58.1500   28.9110   43.1810 H   0  0  0  0  0  0  0  0  0  0  0  0
   56.9610   30.6980   43.3450 C   0  0  0  0  0  0  0  0  0  0  0  0
   57.2791   30.9051   42.3126 H   0  0  0  0  0  0  0  0  0  0  0  0
   55.8670   30.7819   43.4237 H   0  0  0  0  0  0  0  0  0  0  0  0
   57.5950   31.6900   44.2660 C   0  0  0  0  0  0  0  0  0  0  0  0
   57.7810   31.4430   45.5890 N   0  0  0  0  0  0  0  0  0  0  0  0
   58.3220   32.5900   46.0230 C   0  0  0  0  0  0  0  0  0  0  0  0
   58.7180   32.9090   47.3190 C   0  0  0  0  0  0  0  0  0  0  0  0
   58.6079   32.1859   48.1405 H   0  0  0  0  0  0  0  0  0  0  0  0
   59.2660   34.1920   47.5450 C   0  0  0  0  0  0  0  0  0  0  0  0
   59.6710   34.6000   48.9300 C   0  0  0  0  0  0  0  0  0  0  0  0
   59.0952   34.0200   49.6662 H   0  0  0  0  0  0  0  0  0  0  0  0
   60.7449   34.4069   49.0699 H   0  0  0  0  0  0  0  0  0  0  0  0
   59.4700   35.6724   49.0699 H   0  0  0  0  0  0  0  0  0  0  0  0
   59.3700   35.1140   46.4720 C   0  0  0  0  0  0  0  0  0  0  0  0
   59.7769   36.1196   46.6545 H   0  0  0  0  0  0  0  0  0  0  0  0
   58.9570   34.7530   45.1760 C   0  0  0  0  0  0  0  0  0  0  0  0
   59.0414   35.4571   44.3351 H   0  0  0  0  0  0  0  0  0  0  0  0
   58.4380   33.4740   44.9950 C   0  0  0  0  0  0  0  0  0  0  0  0
   57.9770   32.9290   43.8610 N   0  0  0  0  0  0  0  0  0  0  0  0
  1  2  1  0
  2  3  1  0
  3  4  1  0
  4  5  2  0
  5  6  1  0
  6  7  2  0
  6  8  1  0
  8  9  1  1
  8 10  1  0
 10 11  1  0
 10 12  1  0
 12 13  1  0
 12 14  1  0
 12 15  1  0
  8 16  1  0
 16 17  1  0
 16 18  1  0
 16 19  1  0
  4 20  1  0
 20 21  1  0
 21 22  1  0
 22 23  2  0
 22 24  1  0
 24 25  1  0
 24 26  1  0
 26 27  1  0
 26 28  1  0
 26 29  1  0
 29 30  2  0
 30 31  1  0
 31 32  2  0
 32 33  1  0
 32 34  1  0
 34 35  1  0
 35 36  1  0
 35 37  1  0
 35 38  1  0
 34 39  2  0
 39 40  1  0
 39 41  1  0
 41 42  1  0
 41 43  2  0
 43 44  1  0
 21  2  2  0
 44 29  1  0
 43 31  1  0
M  CHG  2  20  -1  44  -1
M  END
>  <UniqueID>  (40) 
37

>  <SMILES>  (40) 
CN[C@@H](C)C(=O)/N=c1/[n-]c(C(=O)NCc2nc3cc(C)ccc3[n-]2)cs1

>  <Energy>  (40) 
112.6191113536571

>  <Genealogy>  (40) 
CNC(C)C(=O)N=c1[n-]c(C(=O)NCc2nc3cc(C)ccc3[n-]2)cs1 (protonated)
CN[C@@H](C)C(=O)N=c1[n-]c(C(=O)NCc2nc3cc(C)ccc3[n-]2)cs1 (chirality)
CN[C@@H](C)C(=O)/N=c1/[n-]c(C(=O)NCc2nc3cc(C)ccc3[n-]2)cs1 (cis-trans isomerization)
CN[C@@H](C)C(=O)/N=c1/[n-]c(C(=O)NCc2nc3cc(C)ccc3[n-]2)cs1 (3D coordinates assigned)
CN[C@@H](C)C(=O)/N=c1/[n-]c(C(=O)NCc2nc3cc(C)ccc3[n-]2)cs1 (optimized conformer: 112.6191113536571 kcal/mol)

>  <smiles>  (40) 
CNC(C)C(=O)N=c1[nH]c(C(=O)NCc2nc3cc(C)ccc3[nH]2)cs1

>  <score_type>  (40) 
oracle

>  <origin>  (40) 
adg

>  <m_score__min__energy>  (40) 
-11.640000000000001

>  <m_primary>  (40) 
energy

$$$$
40:0
     RDKit          3D

 42 43  0  0  0  0  0  0  0  0999 V2000
   63.5110   32.6530   47.1130 C   0  0  0  0  0  0  0  0  0  0  0  0
   62.4660   33.0950   47.9680 O   0  0  0  0  0  0  0  0  0  0  0  0
   61.1300   33.2790   47.5810 C   0  0  0  0  0  0  0  0  0  0  0  0
   60.5610   34.5680   47.5560 C   0  0  0  0  0  0  0  0  0  0  0  0
   59.2390   34.7560   47.1620 C   0  0  0  0  0  0  0  0  0  0  0  0
   58.4610   33.6690   46.7860 C   0  0  0  0  0  0  0  0  0  0  0  0
   59.0010   32.3740   46.7870 C   0  0  0  0  0  0  0  0  0  0  0  0
   58.1690   31.2220   46.2730 C   0  0  0  0  0  0  0  0  0  0  0  0
   57.1900   31.6950   45.2980 N   0  0  0  0  0  0  0  0  0  0  0  0
   57.4220   31.7030   43.8790 C   0  0  0  0  0  0  0  0  0  0  0  0
   58.2110   32.5440   43.3690 O   0  0  0  0  0  0  0  0  0  0  0  0
   56.7010   30.7400   42.9820 C   0  0  0  0  0  0  0  0  0  0  0  0
   56.8530   29.3680   43.4450 N   0  0  0  0  0  0  0  0  0  0  0  0
   56.2720   28.8570   44.6490 C   0  0  0  0  0  0  0  0  0  0  0  0
   55.1930   29.3550   45.0720 O   0  0  0  0  0  0  0  0  0  0  0  0
   56.9250   27.7520   45.4050 C   0  0  0  0  0  0  0  0  0  0  0  0
   58.3350   27.7100   45.4980 C   0  0  0  0  0  0  0  0  0  0  0  0
   58.9780   26.6980   46.2190 C   0  0  0  0  0  0  0  0  0  0  0  0
   60.8890   26.6830   46.3490 Br  0  0  0  0  0  0  0  0  0  0  0  0
   58.2270   25.7030   46.8440 C   0  0  0  0  0  0  0  0  0  0  0  0
   56.8310   25.7190   46.7500 C   0  0  0  0  0  0  0  0  0  0  0  0
   56.1760   26.7350   46.0440 C   0  0  0  0  0  0  0  0  0  0  0  0
   54.7860   26.7120   45.9880 O   0  0  0  0  0  0  0  0  0  0  0  0
   60.3360   32.1650   47.2020 C   0  0  0  0  0  0  0  0  0  0  0  0
   60.8070   30.8340   47.2140 O   0  0  0  0  0  0  0  0  0  0  0  0
   60.6190   29.8770   48.2540 C   0  0  0  0  0  0  0  0  0  0  0  0
   64.3555   32.2958   47.7206 H   0  0  0  0  0  0  0  0  0  0  0  0
   63.1434   31.8333   46.4782 H   0  0  0  0  0  0  0  0  0  0  0  0
   63.8432   33.4877   46.4782 H   0  0  0  0  0  0  0  0  0  0  0  0
   61.1687   35.4360   47.8513 H   0  0  0  0  0  0  0  0  0  0  0  0
   58.8095   35.7686   47.1485 H   0  0  0  0  0  0  0  0  0  0  0  0
   57.4143   33.8242   46.4853 H   0  0  0  0  0  0  0  0  0  0  0  0
   58.8291   30.4835   45.7945 H   0  0  0  0  0  0  0  0  0  0  0  0
   57.6364   30.7620   47.1184 H   0  0  0  0  0  0  0  0  0  0  0  0
   55.6314   30.9965   42.9674 H   0  0  0  0  0  0  0  0  0  0  0  0
   57.1339   30.8153   41.9736 H   0  0  0  0  0  0  0  0  0  0  0  0
   58.9349   28.4837   44.9965 H   0  0  0  0  0  0  0  0  0  0  0  0
   58.7316   24.9063   47.4104 H   0  0  0  0  0  0  0  0  0  0  0  0
   56.2429   24.9261   47.2352 H   0  0  0  0  0  0  0  0  0  0  0  0
   60.7165   30.3732   49.2309 H   0  0  0  0  0  0  0  0  0  0  0  0
   59.6164   29.4329   48.1668 H   0  0  0  0  0  0  0  0  0  0  0  0
   61.3790   29.0866   48.1668 H   0  0  0  0  0  0  0  0  0  0  0  0
  1  2  1  0
  2  3  1  0
  3  4  2  0
  4  5  1  0
  5  6  2  0
  6  7  1  0
  7  8  1  0
  8  9  1  0
  9 10  1  0
 10 11  2  0
 10 12  1  0
 12 13  1  0
 13 14  1  0
 14 15  2  0
 14 16  1  0
 16 17  2  0
 17 18  1  0
 18 19  1  0
 18 20  2  0
 20 21  1  0
 21 22  2  0
 22 23  1  0
  7 24  2  0
 24 25  1  0
 25 26  1  0
 24  3  1  0
 22 16  1  0
  1 27  1  0
  1 28  1  0
  1 29  1  0
  4 30  1  0
  5 31  1  0
  6 32  1  0
  8 33  1  0
  8 34  1  0
 12 35  1  0
 12 36  1  0
 17 37  1  0
 20 38  1  0
 21 39  1  0
 26 40  1  0
 26 41  1  0
 26 42  1  0
M  CHG  3   9  -1  13  -1  23  -1
M  END
>  <UniqueID>  (41) 
38

>  <SMILES>  (41) 
COc1cccc(C[N-]C(=O)C[N-]C(=O)c2cc(Br)ccc2[O-])c1OC

>  <Energy>  (41) 
41.0502314937149

>  <Genealogy>  (41) 
COc1cccc(C[N-]C(=O)C[N-]C(=O)c2cc(Br)ccc2[O-])c1OC (protonated)
COc1cccc(C[N-]C(=O)C[N-]C(=O)c2cc(Br)ccc2[O-])c1OC (3D coordinates assigned)
COc1cccc(C[N-]C(=O)C[N-]C(=O)c2cc(Br)ccc2[O-])c1OC (optimized conformer: 41.0502314937149 kcal/mol)

>  <smiles>  (41) 
COc1cccc(CNC(=O)CNC(=O)c2cc(Br)ccc2O)c1OC

>  <score_type>  (41) 
oracle

>  <origin>  (41) 
adg

>  <m_score__min__energy>  (41) 
-14.550000000000001

>  <m_primary>  (41) 
energy

$$$$
41:0
     RDKit          3D

 49 51  0  0  0  0  0  0  0  0999 V2000
   57.3950   31.5070   55.4220 C   0  0  0  0  0  0  0  0  0  0  0  0
   57.1000   31.0320   54.0350 C   0  0  0  0  0  0  0  0  0  0  0  0
   58.0660   31.0040   53.0770 N   0  0  0  0  0  0  0  0  0  0  0  0
   57.6010   30.5330   51.8980 C   0  0  0  0  0  0  0  0  0  0  0  0
   58.4280   30.3980   50.6900 C   0  0  0  0  0  0  0  0  0  0  0  0
   58.3220   29.3640   49.9800 O   0  0  0  0  0  0  0  0  0  0  0  0
   59.3460   31.4380   50.3170 N   0  0  0  0  0  0  0  0  0  0  0  0
   60.1400   31.3770   49.0910 C   0  0  0  0  0  0  0  0  0  0  0  0
   59.4060   32.0610   47.9490 C   0  0  0  0  0  0  0  0  0  0  0  0
   59.5530   33.4450   47.8330 C   0  0  0  0  0  0  0  0  0  0  0  0
   58.8890   34.1220   46.8210 C   0  0  0  0  0  0  0  0  0  0  0  0
   59.0410   35.3710   46.7230 O   0  0  0  0  0  0  0  0  0  0  0  0
   58.0860   33.4420   45.9500 N   0  0  0  0  0  0  0  0  0  0  0  0
   57.3960   34.1650   44.8680 C   0  0  0  0  0  0  0  0  0  0  0  0
   57.9860   32.0740   46.0350 C   0  0  0  0  0  0  0  0  0  0  0  0
   57.2850   31.4520   45.1870 O   0  0  0  0  0  0  0  0  0  0  0  0
   58.6410   31.3790   47.0280 N   0  0  0  0  0  0  0  0  0  0  0  0
   58.5280   29.9090   47.0960 C   0  0  0  0  0  0  0  0  0  0  0  0
   55.9710   30.1290   51.9970 S   0  0  0  0  0  0  0  0  0  0  0  0
   55.8420   30.5970   53.6110 C   0  0  0  0  0  0  0  0  0  0  0  0
   54.6030   30.4600   54.4490 C   0  0  0  0  0  0  0  0  0  0  0  0
   53.5490   29.7660   53.7090 N   0  0  0  0  0  0  0  0  0  0  0  0
   52.8220   30.3370   52.6030 C   0  0  0  0  0  0  0  0  0  0  0  0
   52.8840   29.7860   51.3070 C   0  0  0  0  0  0  0  0  0  0  0  0
   52.1590   30.3620   50.2600 C   0  0  0  0  0  0  0  0  0  0  0  0
   51.3690   31.4910   50.4890 C   0  0  0  0  0  0  0  0  0  0  0  0
   51.3040   32.0490   51.7680 C   0  0  0  0  0  0  0  0  0  0  0  0
   50.5190   33.1720   51.9970 O   0  0  0  0  0  0  0  0  0  0  0  0
   52.0270   31.4740   52.8200 C   0  0  0  0  0  0  0  0  0  0  0  0
   56.9599   30.8064   56.1498 H   0  0  0  0  0  0  0  0  0  0  0  0
   58.4840   31.5582   55.5682 H   0  0  0  0  0  0  0  0  0  0  0  0
   56.9581   32.5059   55.5682 H   0  0  0  0  0  0  0  0  0  0  0  0
   59.4560   32.2730   50.9350 H   0  0  0  0  0  0  0  0  0  0  0  0
   61.1027   31.8825   49.2573 H   0  0  0  0  0  0  0  0  0  0  0  0
   60.3071   30.3224   48.8265 H   0  0  0  0  0  0  0  0  0  0  0  0
   60.1916   33.9948   48.5401 H   0  0  0  0  0  0  0  0  0  0  0  0
   56.6983   34.8961   45.3023 H   0  0  0  0  0  0  0  0  0  0  0  0
   58.1370   34.6895   44.2468 H   0  0  0  0  0  0  0  0  0  0  0  0
   56.8375   33.4493   44.2468 H   0  0  0  0  0  0  0  0  0  0  0  0
   58.5036   29.5914   48.1489 H   0  0  0  0  0  0  0  0  0  0  0  0
   57.6026   29.5888   46.5949 H   0  0  0  0  0  0  0  0  0  0  0  0
   59.3936   29.4511   46.5949 H   0  0  0  0  0  0  0  0  0  0  0  0
   54.8432   29.8872   55.3568 H   0  0  0  0  0  0  0  0  0  0  0  0
   54.2440   31.4654   54.7142 H   0  0  0  0  0  0  0  0  0  0  0  0
   53.3260   28.7880   54.0020 H   0  0  0  0  0  0  0  0  0  0  0  0
   53.5059   28.8984   51.1188 H   0  0  0  0  0  0  0  0  0  0  0  0
   52.2107   29.9246   49.2520 H   0  0  0  0  0  0  0  0  0  0  0  0
   50.7985   31.9404   49.6628 H   0  0  0  0  0  0  0  0  0  0  0  0
   51.9718   31.9168   53.8254 H   0  0  0  0  0  0  0  0  0  0  0  0
  1  2  1  0
  2  3  1  0
  3  4  2  0
  4  5  1  0
  5  6  2  0
  5  7  1  0
  7  8  1  0
  8  9  1  0
  9 10  2  0
 10 11  1  0
 11 12  2  0
 11 13  1  0
 13 14  1  0
 13 15  1  0
 15 16  2  0
 15 17  1  0
 17 18  1  0
  4 19  1  0
 19 20  1  0
 20 21  1  0
 21 22  1  0
 22 23  1  0
 23 24  2  0
 24 25  1  0
 25 26  2  0
 26 27  1  0
 27 28  1  0
 27 29  2  0
 20  2  2  0
 29 23  1  0
 17  9  1  0
  1 30  1  0
  1 31  1  0
  1 32  1  0
  7 33  1  0
  8 34  1  0
  8 35  1  0
 10 36  1  0
 14 37  1  0
 14 38  1  0
 14 39  1  0
 18 40  1  0
 18 41  1  0
 18 42  1  0
 21 43  1  0
 21 44  1  0
 22 45  1  0
 24 46  1  0
 25 47  1  0
 26 48  1  0
 29 49  1  0
M  CHG  1  28  -1
M  END
>  <UniqueID>  (42) 
39

>  <SMILES>  (42) 
Cc1nc(C(=O)NCc2cc(=O)n(C)c(=O)n2C)sc1CNc1cccc([O-])c1

>  <Energy>  (42) 
84.98705016804003

>  <Genealogy>  (42) 
Cc1nc(C(=O)NCc2cc(=O)n(C)c(=O)n2C)sc1CNc1cccc([O-])c1 (protonated)
Cc1nc(C(=O)NCc2cc(=O)n(C)c(=O)n2C)sc1CNc1cccc([O-])c1 (3D coordinates assigned)
Cc1nc(C(=O)NCc2cc(=O)n(C)c(=O)n2C)sc1CNc1cccc([O-])c1 (optimized conformer: 84.98705016804003 kcal/mol)

>  <smiles>  (42) 
Cc1nc(C(=O)NCc2cc(=O)n(C)c(=O)n2C)sc1CNc1cccc(O)c1

>  <score_type>  (42) 
oracle

>  <origin>  (42) 
adg

>  <m_score__min__energy>  (42) 
-12.58

>  <m_primary>  (42) 
energy

$$$$
42:0
     RDKit          3D

 45 47  0  0  0  0  0  0  0  0999 V2000
   63.7741   34.1792   48.7567 H   0  0  0  0  0  0  0  0  0  0  0  0
   63.0660   33.4230   48.3870 C   0  0  0  0  0  0  0  0  0  0  0  0
   63.1430   32.1450   48.8380 N   0  0  0  0  0  0  0  0  0  0  0  0
   62.2920   31.1810   48.4020 C   0  0  0  0  0  0  0  0  0  0  0  0
   62.3802   30.1566   48.7930 H   0  0  0  0  0  0  0  0  0  0  0  0
   61.3010   31.4830   47.4560 C   0  0  0  0  0  0  0  0  0  0  0  0
   60.3860   30.4120   47.0110 C   0  0  0  0  0  0  0  0  0  0  0  0
   59.5110   29.8130   47.9270 C   0  0  0  0  0  0  0  0  0  0  0  0
   59.5226   30.1266   48.9813 H   0  0  0  0  0  0  0  0  0  0  0  0
   58.6230   28.8180   47.5060 C   0  0  0  0  0  0  0  0  0  0  0  0
   57.9274   28.3636   48.2269 H   0  0  0  0  0  0  0  0  0  0  0  0
   58.6160   28.3960   46.1640 C   0  0  0  0  0  0  0  0  0  0  0  0
   57.6970   27.4040   45.6830 N   0  0  0  0  0  0  0  0  0  0  0  0
   56.2690   27.5220   45.6260 C   0  0  0  0  0  0  0  0  0  0  0  0
   55.5390   26.5590   45.9850 O   0  0  0  0  0  0  0  0  0  0  0  0
   55.6530   28.6640   45.0150 N   0  0  0  0  0  0  0  0  0  0  0  0
   56.2290   29.6720   44.4200 C   0  0  0  0  0  0  0  0  0  0  0  0
   56.7850   30.6440   45.1950 N   0  0  0  0  0  0  0  0  0  0  0  0
   57.4140   31.7270   44.6660 C   0  0  0  0  0  0  0  0  0  0  0  0
   57.8413   32.4928   45.3300 H   0  0  0  0  0  0  0  0  0  0  0  0
   57.5180   31.8680   43.2830 C   0  0  0  0  0  0  0  0  0  0  0  0
   58.0193   32.7458   42.8492 H   0  0  0  0  0  0  0  0  0  0  0  0
   56.9790   30.8830   42.4560 C   0  0  0  0  0  0  0  0  0  0  0  0
   57.0587   30.9780   41.3630 H   0  0  0  0  0  0  0  0  0  0  0  0
   56.3380   29.7760   43.0160 C   0  0  0  0  0  0  0  0  0  0  0  0
   55.9211   28.9908   42.3682 H   0  0  0  0  0  0  0  0  0  0  0  0
   59.4870   29.0020   45.2510 C   0  0  0  0  0  0  0  0  0  0  0  0
   59.4724   28.6936   44.1952 H   0  0  0  0  0  0  0  0  0  0  0  0
   60.3750   29.9960   45.6710 C   0  0  0  0  0  0  0  0  0  0  0  0
   61.0673   30.4536   44.9490 H   0  0  0  0  0  0  0  0  0  0  0  0
   61.1910   32.8130   46.9810 C   0  0  0  0  0  0  0  0  0  0  0  0
   60.1060   33.2250   46.0080 C   0  0  0  0  0  0  0  0  0  0  0  0
   59.6612   32.3241   45.5602 H   0  0  0  0  0  0  0  0  0  0  0  0
   60.5525   33.8581   45.2271 H   0  0  0  0  0  0  0  0  0  0  0  0
   59.0510   33.9950   46.6990 N   0  0  0  0  0  0  0  0  0  0  0  0
   58.3230   33.1300   47.6390 C   0  0  0  0  0  0  0  0  0  0  0  0
   58.5684   33.4216   48.6709 H   0  0  0  0  0  0  0  0  0  0  0  0
   57.2408   33.2390   47.4747 H   0  0  0  0  0  0  0  0  0  0  0  0
   58.6151   32.0823   47.4747 H   0  0  0  0  0  0  0  0  0  0  0  0
   58.1100   34.5800   45.7280 C   0  0  0  0  0  0  0  0  0  0  0  0
   57.2953   35.0865   46.2663 H   0  0  0  0  0  0  0  0  0  0  0  0
   58.6402   35.3079   45.0964 H   0  0  0  0  0  0  0  0  0  0  0  0
   57.6919   33.7824   45.0964 H   0  0  0  0  0  0  0  0  0  0  0  0
   62.0910   33.7790   47.4560 C   0  0  0  0  0  0  0  0  0  0  0  0
   62.0274   34.8159   47.0943 H   0  0  0  0  0  0  0  0  0  0  0  0
  1  2  1  0
  2  3  2  0
  3  4  1  0
  4  5  1  0
  4  6  2  0
  6  7  1  0
  7  8  2  0
  8  9  1  0
  8 10  1  0
 10 11  1  0
 10 12  2  0
 12 13  1  0
 13 14  1  0
 14 15  2  0
 14 16  1  0
 16 17  2  0
 17 18  1  0
 18 19  1  0
 19 20  1  0
 19 21  2  0
 21 22  1  0
 21 23  1  0
 23 24  1  0
 23 25  2  0
 25 26  1  0
 12 27  1  0
 27 28  1  0
 27 29  2  0
 29 30  1  0
  6 31  1  0
 31 32  1  0
 32 33  1  0
 32 34  1  0
 32 35  1  0
 35 36  1  0
 36 37  1  0
 36 38  1  0
 36 39  1  0
 35 40  1  0
 40 41  1  0
 40 42  1  0
 40 43  1  0
 31 44  2  0
 44 45  1  0
 44  2  1  0
 29  7  1  0
 25 17  1  0
M  CHG  2  13  -1  18  -1
M  END
>  <UniqueID>  (43) 
40

>  <SMILES>  (43) 
CN(C)Cc1ccncc1-c1ccc([N-]C(=O)/N=c2\cccc[n-]2)cc1

>  <Energy>  (43) 
66.58693363488932

>  <Genealogy>  (43) 
CN(C)Cc1ccncc1-c1ccc([N-]C(=O)N=c2cccc[n-]2)cc1 (protonated)
CN(C)Cc1ccncc1-c1ccc([N-]C(=O)/N=c2\cccc[n-]2)cc1 (cis-trans isomerization)
CN(C)Cc1ccncc1-c1ccc([N-]C(=O)/N=c2\cccc[n-]2)cc1 (3D coordinates assigned)
CN(C)Cc1ccncc1-c1ccc([N-]C(=O)/N=c2\cccc[n-]2)cc1 (optimized conformer: 66.58693363488932 kcal/mol)

>  <smiles>  (43) 
CN(C)Cc1ccncc1-c1ccc(NC(=O)N=c2cccc[nH]2)cc1

>  <score_type>  (43) 
oracle

>  <origin>  (43) 
adg

>  <m_score__min__energy>  (43) 
-10.83

>  <m_primary>  (43) 
energy

$$$$
43:0
     RDKit          3D

 36 37  0  0  0  0  0  0  0  0999 V2000
   57.6850   20.8690   43.9290 N   0  0  0  0  0  0  0  0  0  0  0  0
   56.7980   21.9610   43.6680 C   0  0  0  0  0  0  0  0  0  0  0  0
   55.9000   21.8200   42.7950 O   0  0  0  0  0  0  0  0  0  0  0  0
   56.9040   23.2400   44.4120 C   0  0  0  0  0  0  0  0  0  0  0  0
   56.4900   23.3090   45.7540 C   0  0  0  0  0  0  0  0  0  0  0  0
   56.5800   24.5080   46.4680 C   0  0  0  0  0  0  0  0  0  0  0  0
   57.0920   25.6620   45.8530 C   0  0  0  0  0  0  0  0  0  0  0  0
   57.1790   26.9180   46.5410 N   0  0  0  0  0  0  0  0  0  0  0  0
   58.3800   27.6090   46.9090 C   0  0  0  0  0  0  0  0  0  0  0  0
   59.2560   27.0450   47.6190 O   0  0  0  0  0  0  0  0  0  0  0  0
   58.6440   28.9680   46.3550 C   0  0  0  0  0  0  0  0  0  0  0  0
   57.3950   29.7240   46.3290 N   0  0  0  0  0  0  0  0  0  0  0  0
   57.3980   30.8270   44.9880 S   0  0  0  0  0  0  0  0  0  0  0  0
   55.9910   31.0420   44.5000 O   0  0  0  0  0  0  0  0  0  0  0  0
   58.1970   30.2280   43.8650 O   0  0  0  0  0  0  0  0  0  0  0  0
   58.1280   32.3660   45.4560 C   0  0  0  0  0  0  0  0  0  0  0  0
   58.2800   32.6710   46.8180 C   0  0  0  0  0  0  0  0  0  0  0  0
   58.8440   33.8890   47.2090 C   0  0  0  0  0  0  0  0  0  0  0  0
   59.2540   34.8120   46.2450 C   0  0  0  0  0  0  0  0  0  0  0  0
   59.0990   34.5200   44.8870 C   0  0  0  0  0  0  0  0  0  0  0  0
   58.5350   33.3030   44.4890 C   0  0  0  0  0  0  0  0  0  0  0  0
   58.3790   33.0500   43.1660 F   0  0  0  0  0  0  0  0  0  0  0  0
   57.4710   25.6070   44.5070 C   0  0  0  0  0  0  0  0  0  0  0  0
   57.3840   24.4080   43.7920 C   0  0  0  0  0  0  0  0  0  0  0  0
   58.3390   20.8730   44.7420 H   0  0  0  0  0  0  0  0  0  0  0  0
   57.6260   20.0020   43.3490 H   0  0  0  0  0  0  0  0  0  0  0  0
   56.0912   22.4104   46.2474 H   0  0  0  0  0  0  0  0  0  0  0  0
   56.2483   24.5474   47.5160 H   0  0  0  0  0  0  0  0  0  0  0  0
   59.3765   29.4885   46.9894 H   0  0  0  0  0  0  0  0  0  0  0  0
   59.0458   28.8808   45.3347 H   0  0  0  0  0  0  0  0  0  0  0  0
   57.9539   31.9485   47.5807 H   0  0  0  0  0  0  0  0  0  0  0  0
   58.9649   34.1205   48.2776 H   0  0  0  0  0  0  0  0  0  0  0  0
   59.6991   35.7692   46.5543 H   0  0  0  0  0  0  0  0  0  0  0  0
   59.4213   35.2490   44.1290 H   0  0  0  0  0  0  0  0  0  0  0  0
   57.8405   26.5145   44.0070 H   0  0  0  0  0  0  0  0  0  0  0  0
   57.6933   24.3781   42.7368 H   0  0  0  0  0  0  0  0  0  0  0  0
  1  2  1  0
  2  3  2  0
  2  4  1  0
  4  5  2  0
  5  6  1  0
  6  7  2  0
  7  8  1  0
  8  9  1  0
  9 10  2  0
  9 11  1  0
 11 12  1  0
 12 13  1  0
 13 14  2  0
 13 15  2  0
 13 16  1  0
 16 17  2  0
 17 18  1  0
 18 19  2  0
 19 20  1  0
 20 21  2  0
 21 22  1  0
  7 23  1  0
 23 24  2  0
 24  4  1  0
 21 16  1  0
  1 25  1  0
  1 26  1  0
  5 27  1  0
  6 28  1  0
 11 29  1  0
 11 30  1  0
 17 31  1  0
 18 32  1  0
 19 33  1  0
 20 34  1  0
 23 35  1  0
 24 36  1  0
M  CHG  2   8  -1  12  -1
M  END
>  <UniqueID>  (44) 
41

>  <SMILES>  (44) 
NC(=O)c1ccc([N-]C(=O)C[N-]S(=O)(=O)c2ccccc2F)cc1

>  <Energy>  (44) 
38.97455476993129

>  <Genealogy>  (44) 
NC(=O)c1ccc([N-]C(=O)C[N-]S(=O)(=O)c2ccccc2F)cc1 (protonated)
NC(=O)c1ccc([N-]C(=O)C[N-]S(=O)(=O)c2ccccc2F)cc1 (3D coordinates assigned)
NC(=O)c1ccc([N-]C(=O)C[N-]S(=O)(=O)c2ccccc2F)cc1 (optimized conformer: 38.97455476993129 kcal/mol)

>  <smiles>  (44) 
NC(=O)c1ccc(NC(=O)CNS(=O)(=O)c2ccccc2F)cc1

>  <score_type>  (44) 
oracle

>  <origin>  (44) 
adg

>  <m_score__min__energy>  (44) 
-11.76

>  <m_primary>  (44) 
energy

$$$$
44:0
     RDKit          3D

 34 36  0  0  0  0  0  0  0  0999 V2000
   57.5534   29.4081   46.8658 H   0  0  0  0  0  0  0  0  0  0  0  0
   57.3760   29.8650   45.8810 C   0  0  0  0  0  0  0  0  0  0  0  0
   57.9780   31.0400   45.5600 N   0  0  0  0  0  0  0  0  0  0  0  0
   57.8120   31.6430   44.3500 C   0  0  0  0  0  0  0  0  0  0  0  0
   58.4200   32.7780   44.1430 N   0  0  0  0  0  0  0  0  0  0  0  0
   58.4730   33.9470   44.9800 C   0  0  0  0  0  0  0  0  0  0  0  0
   57.8230   34.9820   44.6740 O   0  0  0  0  0  0  0  0  0  0  0  0
   59.3690   33.9660   46.1600 C   0  0  0  0  0  0  0  0  0  0  0  0
   58.8470   34.1410   47.4560 C   0  0  0  0  0  0  0  0  0  0  0  0
   57.7626   34.2622   47.5956 H   0  0  0  0  0  0  0  0  0  0  0  0
   59.6960   34.1620   48.5670 C   0  0  0  0  0  0  0  0  0  0  0  0
   59.2775   34.3002   49.5749 H   0  0  0  0  0  0  0  0  0  0  0  0
   61.0730   34.0080   48.4000 C   0  0  0  0  0  0  0  0  0  0  0  0
   61.7386   34.0236   49.2757 H   0  0  0  0  0  0  0  0  0  0  0  0
   61.6060   33.8340   47.1200 C   0  0  0  0  0  0  0  0  0  0  0  0
   62.9440   33.6860   46.9580 F   0  0  0  0  0  0  0  0  0  0  0  0
   60.7610   33.8130   46.0050 C   0  0  0  0  0  0  0  0  0  0  0  0
   61.1866   33.6760   45.0000 H   0  0  0  0  0  0  0  0  0  0  0  0
   56.9670   31.0340   43.3980 C   0  0  0  0  0  0  0  0  0  0  0  0
   56.8012   31.5091   42.4198 H   0  0  0  0  0  0  0  0  0  0  0  0
   56.3430   29.8240   43.7070 C   0  0  0  0  0  0  0  0  0  0  0  0
   55.7015   29.3328   42.9605 H   0  0  0  0  0  0  0  0  0  0  0  0
   56.5290   29.2340   44.9590 C   0  0  0  0  0  0  0  0  0  0  0  0
   55.8910   27.9810   45.2470 N   0  0  0  0  0  0  0  0  0  0  0  0
   56.4710   26.8870   45.9660 C   0  0  0  0  0  0  0  0  0  0  0  0
   55.7200   25.9610   46.3710 O   0  0  0  0  0  0  0  0  0  0  0  0
   57.9080   26.8430   46.3000 C   0  0  0  0  0  0  0  0  0  0  0  0
   58.5860   27.4400   47.7180 S   0  0  0  0  0  0  0  0  0  0  0  0
   60.1820   27.0800   47.3320 C   0  0  0  0  0  0  0  0  0  0  0  0
   61.0590   27.2757   47.9665 H   0  0  0  0  0  0  0  0  0  0  0  0
   60.2020   26.4930   46.0740 C   0  0  0  0  0  0  0  0  0  0  0  0
   61.1270   26.1594   45.5810 H   0  0  0  0  0  0  0  0  0  0  0  0
   58.9350   26.3650   45.4910 C   0  0  0  0  0  0  0  0  0  0  0  0
   58.7683   25.9305   44.4943 H   0  0  0  0  0  0  0  0  0  0  0  0
  1  2  1  0
  2  3  1  0
  3  4  1  0
  4  5  2  0
  5  6  1  0
  6  7  2  0
  6  8  1  0
  8  9  2  0
  9 10  1  0
  9 11  1  0
 11 12  1  0
 11 13  2  0
 13 14  1  0
 13 15  1  0
 15 16  1  0
 15 17  2  0
 17 18  1  0
  4 19  1  0
 19 20  1  0
 19 21  2  0
 21 22  1  0
 21 23  1  0
 23 24  1  0
 24 25  1  0
 25 26  2  0
 25 27  1  0
 27 28  1  0
 28 29  1  0
 29 30  1  0
 29 31  2  0
 31 32  1  0
 31 33  1  0
 33 34  1  0
 23  2  2  0
 33 27  2  0
 17  8  1  0
M  CHG  2   3  -1  24  -1
M  END
>  <UniqueID>  (45) 
42

>  <SMILES>  (45) 
O=C(/N=c1\ccc([N-]C(=O)c2cccs2)c[n-]1)c1cccc(F)c1

>  <Energy>  (45) 
77.41653255185601

>  <Genealogy>  (45) 
O=C(N=c1ccc([N-]C(=O)c2cccs2)c[n-]1)c1cccc(F)c1 (protonated)
O=C(/N=c1\ccc([N-]C(=O)c2cccs2)c[n-]1)c1cccc(F)c1 (cis-trans isomerization)
O=C(/N=c1\ccc([N-]C(=O)c2cccs2)c[n-]1)c1cccc(F)c1 (3D coordinates assigned)
O=C(/N=c1\ccc([N-]C(=O)c2cccs2)c[n-]1)c1cccc(F)c1 (optimized conformer: 77.41653255185601 kcal/mol)

>  <smiles>  (45) 
O=C(N=c1ccc(NC(=O)c2cccs2)c[nH]1)c1cccc(F)c1

>  <score_type>  (45) 
oracle

>  <origin>  (45) 
adg

>  <m_score__min__energy>  (45) 
-11

>  <m_primary>  (45) 
energy

$$$$
45:0
     RDKit          3D

 42 43  0  0  0  0  0  0  0  0999 V2000
   61.3271   28.1066   47.0353 H   0  0  0  0  0  0  0  0  0  0  0  0
   60.4220   28.4800   46.5340 C   0  0  0  0  0  0  0  0  0  0  0  0
   59.4620   29.1910   47.2620 C   0  0  0  0  0  0  0  0  0  0  0  0
   59.6142   29.3806   48.3348 H   0  0  0  0  0  0  0  0  0  0  0  0
   58.3080   29.6610   46.6250 C   0  0  0  0  0  0  0  0  0  0  0  0
   57.5523   30.2166   47.1996 H   0  0  0  0  0  0  0  0  0  0  0  0
   58.1120   29.4260   45.2570 C   0  0  0  0  0  0  0  0  0  0  0  0
   56.6470   29.9990   44.4600 S   0  0  0  0  0  0  0  0  0  0  0  0
   55.4790   29.1480   44.8760 O   0  0  0  0  0  0  0  0  0  0  0  0
   56.8140   29.8750   42.9720 O   0  0  0  0  0  0  0  0  0  0  0  0
   56.3480   31.6650   44.8530 N   0  0  0  0  0  0  0  0  0  0  0  0
   57.5970   32.4240   44.8260 C   0  0  0  0  0  0  0  0  0  0  0  0
   57.9409   32.5282   43.7864 H   0  0  0  0  0  0  0  0  0  0  0  0
   58.3622   31.8943   45.4125 H   0  0  0  0  0  0  0  0  0  0  0  0
   57.3650   33.7850   45.4160 C   0  0  0  0  0  0  0  0  0  0  0  0
   56.6270   34.5910   44.7910 O   0  0  0  0  0  0  0  0  0  0  0  0
   57.9910   34.2380   46.6300 N   0  0  0  0  0  0  0  0  0  0  0  0
   59.0530   33.7650   47.2140 C   0  0  0  0  0  0  0  0  0  0  0  0
   59.3150   33.8660   48.5350 N   0  0  0  0  0  0  0  0  0  0  0  0
   60.5180   33.3140   48.8580 C   0  0  0  0  0  0  0  0  0  0  0  0
   61.0290   33.3890   50.2610 C   0  0  0  0  0  0  0  0  0  0  0  0
   60.1914   33.2661   50.9634 H   0  0  0  0  0  0  0  0  0  0  0  0
   61.7662   32.5894   50.4260 H   0  0  0  0  0  0  0  0  0  0  0  0
   61.5054   34.3667   50.4260 H   0  0  0  0  0  0  0  0  0  0  0  0
   61.2090   32.7450   47.7760 C   0  0  0  0  0  0  0  0  0  0  0  0
   62.5250   32.0720   47.7670 C   0  0  0  0  0  0  0  0  0  0  0  0
   62.5740   30.8520   48.0870 O   0  0  0  0  0  0  0  0  0  0  0  0
   63.7510   32.8000   47.5200 N   0  0  0  0  0  0  0  0  0  0  0  0
   64.4740   32.1680   47.1110 H   0  0  0  0  0  0  0  0  0  0  0  0
   63.5050   33.8690   46.5400 C   0  0  0  0  0  0  0  0  0  0  0  0
   63.2887   34.8088   47.0691 H   0  0  0  0  0  0  0  0  0  0  0  0
   64.3964   34.0002   45.9090 H   0  0  0  0  0  0  0  0  0  0  0  0
   62.6459   33.5974   45.9090 H   0  0  0  0  0  0  0  0  0  0  0  0
   64.2810   33.3620   48.7730 C   0  0  0  0  0  0  0  0  0  0  0  0
   63.8073   32.8597   49.6294 H   0  0  0  0  0  0  0  0  0  0  0  0
   65.3693   33.2069   48.8130 H   0  0  0  0  0  0  0  0  0  0  0  0
   64.0624   34.4393   48.8130 H   0  0  0  0  0  0  0  0  0  0  0  0
   60.2920   32.9980   46.3850 S   0  0  0  0  0  0  0  0  0  0  0  0
   59.0830   28.7220   44.5290 C   0  0  0  0  0  0  0  0  0  0  0  0
   58.9411   28.5456   43.4525 H   0  0  0  0  0  0  0  0  0  0  0  0
   60.2310   28.2440   45.1690 C   0  0  0  0  0  0  0  0  0  0  0  0
   60.9845   27.6818   44.5980 H   0  0  0  0  0  0  0  0  0  0  0  0
  1  2  1  0
  2  3  2  0
  3  4  1  0
  3  5  1  0
  5  6  1  0
  5  7  2  0
  7  8  1  0
  8  9  2  0
  8 10  2  0
  8 11  1  0
 11 12  1  0
 12 13  1  0
 12 14  1  0
 12 15  1  0
 15 16  2  0
 15 17  1  0
 17 18  2  0
 18 19  1  0
 19 20  1  0
 20 21  1  0
 21 22  1  0
 21 23  1  0
 21 24  1  0
 20 25  2  0
 25 26  1  0
 26 27  2  0
 26 28  1  0
 28 29  1  0
 28 30  1  0
 30 31  1  0
 30 32  1  0
 30 33  1  0
 28 34  1  0
 34 35  1  0
 34 36  1  0
 34 37  1  0
 25 38  1  0
  7 39  1  0
 39 40  1  0
 39 41  2  0
 41 42  1  0
 41  2  1  0
 38 18  1  0
M  CHG  3  11  -1  19  -1  28   1
M  END
>  <UniqueID>  (46) 
43

>  <SMILES>  (46) 
Cc1[n-]/c(=N\C(=O)C[N-]S(=O)(=O)c2ccccc2)sc1C(=O)[NH+](C)C

>  <Energy>  (46) 
74.75287809700771

>  <Genealogy>  (46) 
Cc1[n-]c(=NC(=O)C[N-]S(=O)(=O)c2ccccc2)sc1C(=O)[NH+](C)C (protonated)
Cc1[n-]/c(=N\C(=O)C[N-]S(=O)(=O)c2ccccc2)sc1C(=O)[NH+](C)C (cis-trans isomerization)
Cc1[n-]/c(=N\C(=O)C[N-]S(=O)(=O)c2ccccc2)sc1C(=O)[NH+](C)C (3D coordinates assigned)
Cc1[n-]/c(=N\C(=O)C[N-]S(=O)(=O)c2ccccc2)sc1C(=O)[NH+](C)C (optimized conformer: 74.75287809700771 kcal/mol)

>  <smiles>  (46) 
Cc1[nH]c(=NC(=O)CNS(=O)(=O)c2ccccc2)sc1C(=O)N(C)C

>  <score_type>  (46) 
oracle

>  <origin>  (46) 
adg

>  <m_score__min__energy>  (46) 
-11.26

>  <m_primary>  (46) 
energy

$$$$
46:0
     RDKit          3D

 65 67  0  0  0  0  0  0  0  0999 V2000
   59.0090   34.3550   52.7520 C   0  0  0  0  0  0  0  0  0  0  0  0
   58.9120   33.3280   51.6500 C   0  0  0  0  0  0  0  0  0  0  0  0
   59.6640   33.5400   50.4880 C   0  0  0  0  0  0  0  0  0  0  0  0
   59.6250   32.6140   49.4560 C   0  0  0  0  0  0  0  0  0  0  0  0
   58.8420   31.4630   49.5630 C   0  0  0  0  0  0  0  0  0  0  0  0
   58.8660   30.5210   48.4670 N   0  0  0  0  0  0  0  0  0  0  0  0
   59.7490   30.7140   46.9810 S   0  0  0  0  0  0  0  0  0  0  0  0
   59.5320   29.4870   46.1420 O   0  0  0  0  0  0  0  0  0  0  0  0
   61.2140   30.8390   47.2970 O   0  0  0  0  0  0  0  0  0  0  0  0
   59.2300   32.1770   46.1290 C   0  0  0  0  0  0  0  0  0  0  0  0
   59.8500   33.3940   46.4580 C   0  0  0  0  0  0  0  0  0  0  0  0
   59.4030   34.5940   45.9030 C   0  0  0  0  0  0  0  0  0  0  0  0
   58.3350   34.5930   45.0080 C   0  0  0  0  0  0  0  0  0  0  0  0
   57.7290   33.3900   44.6440 C   0  0  0  0  0  0  0  0  0  0  0  0
   58.1770   32.1700   45.1770 C   0  0  0  0  0  0  0  0  0  0  0  0
   57.5610   30.9520   44.7300 N   0  0  0  0  0  0  0  0  0  0  0  0
   58.2070   30.1340   44.0430 O   0  0  0  0  0  0  0  0  0  0  0  0
   56.2030   30.7840   44.8620 O   0  0  0  0  0  0  0  0  0  0  0  0
   58.0900   31.2700   50.7450 C   0  0  0  0  0  0  0  0  0  0  0  0
   57.4120   30.2170   50.8940 O   0  0  0  0  0  0  0  0  0  0  0  0
   58.1090   32.2100   51.7540 N   0  0  0  0  0  0  0  0  0  0  0  0
   57.2880   31.9600   52.9620 C   0  0  0  0  0  0  0  0  0  0  0  0
   57.6780   30.6740   53.6300 C   0  0  0  0  0  0  0  0  0  0  0  0
   56.8520   30.0490   54.3490 O   0  0  0  0  0  0  0  0  0  0  0  0
   58.9960   30.1560   53.4310 N   0  0  0  0  0  0  0  0  0  0  0  0
   60.2050   30.9110   53.7330 C   0  0  0  0  0  0  0  0  0  0  0  0
   61.1230   30.8770   52.5440 C   0  0  0  0  0  0  0  0  0  0  0  0
   61.0420   29.8220   51.6250 C   0  0  0  0  0  0  0  0  0  0  0  0
   61.8580   29.8310   50.4920 C   0  0  0  0  0  0  0  0  0  0  0  0
   62.7150   30.8640   50.2770 N   0  0  0  0  0  0  0  0  0  0  0  0
   62.8070   31.9120   51.1430 C   0  0  0  0  0  0  0  0  0  0  0  0
   63.6900   32.9670   50.8940 O   0  0  0  0  0  0  0  0  0  0  0  0
   64.1240   33.3130   49.5810 C   0  0  0  0  0  0  0  0  0  0  0  0
   62.9440   33.8490   48.7720 C   0  0  0  0  0  0  0  0  0  0  0  0
   62.9070   33.2110   47.4380 N   0  0  0  0  0  0  0  0  0  0  0  0
   63.7630   32.0120   47.4040 C   0  0  0  0  0  0  0  0  0  0  0  0
   63.3470   34.1580   46.4030 C   0  0  0  0  0  0  0  0  0  0  0  0
   62.0080   31.9380   52.2920 C   0  0  0  0  0  0  0  0  0  0  0  0
   58.9614   33.8507   53.7284 H   0  0  0  0  0  0  0  0  0  0  0  0
   59.9623   34.8969   52.6653 H   0  0  0  0  0  0  0  0  0  0  0  0
   58.1740   35.0658   52.6653 H   0  0  0  0  0  0  0  0  0  0  0  0
   60.2865   34.4420   50.3934 H   0  0  0  0  0  0  0  0  0  0  0  0
   60.2164   32.7881   48.5450 H   0  0  0  0  0  0  0  0  0  0  0  0
   58.4110   29.5900   48.6050 H   0  0  0  0  0  0  0  0  0  0  0  0
   60.6966   33.4012   47.1603 H   0  0  0  0  0  0  0  0  0  0  0  0
   59.8939   35.5409   46.1722 H   0  0  0  0  0  0  0  0  0  0  0  0
   57.9693   35.5416   44.5880 H   0  0  0  0  0  0  0  0  0  0  0  0
   56.8909   33.3971   43.9316 H   0  0  0  0  0  0  0  0  0  0  0  0
   57.4310   32.7894   53.6703 H   0  0  0  0  0  0  0  0  0  0  0  0
   56.2339   31.8866   52.6562 H   0  0  0  0  0  0  0  0  0  0  0  0
   59.9393   31.9535   53.9621 H   0  0  0  0  0  0  0  0  0  0  0  0
   60.7109   30.4638   54.6014 H   0  0  0  0  0  0  0  0  0  0  0  0
   60.3402   28.9923   51.7952 H   0  0  0  0  0  0  0  0  0  0  0  0
   61.8073   29.0008   49.7722 H   0  0  0  0  0  0  0  0  0  0  0  0
   64.9039   34.0860   49.6457 H   0  0  0  0  0  0  0  0  0  0  0  0
   64.5295   32.4191   49.0845 H   0  0  0  0  0  0  0  0  0  0  0  0
   62.0077   33.6292   49.3059 H   0  0  0  0  0  0  0  0  0  0  0  0
   63.0589   34.9358   48.6469 H   0  0  0  0  0  0  0  0  0  0  0  0
   63.9899   31.6942   48.4324 H   0  0  0  0  0  0  0  0  0  0  0  0
   63.2381   31.2015   46.8771 H   0  0  0  0  0  0  0  0  0  0  0  0
   64.7000   32.2453   46.8771 H   0  0  0  0  0  0  0  0  0  0  0  0
   63.7644   35.0563   46.8815 H   0  0  0  0  0  0  0  0  0  0  0  0
   64.1174   33.6847   45.7766 H   0  0  0  0  0  0  0  0  0  0  0  0
   62.4884   34.4416   45.7766 H   0  0  0  0  0  0  0  0  0  0  0  0
   62.0728   32.7835   52.9927 H   0  0  0  0  0  0  0  0  0  0  0  0
  1  2  1  0
  2  3  2  0
  3  4  1  0
  4  5  2  0
  5  6  1  0
  6  7  1  0
  7  8  2  0
  7  9  2  0
  7 10  1  0
 10 11  2  0
 11 12  1  0
 12 13  2  0
 13 14  1  0
 14 15  2  0
 15 16  1  0
 16 17  2  0
 16 18  1  0
  5 19  1  0
 19 20  2  0
 19 21  1  0
 21 22  1  0
 22 23  1  0
 23 24  2  0
 23 25  1  0
 25 26  1  0
 26 27  1  0
 27 28  2  0
 28 29  1  0
 29 30  2  0
 30 31  1  0
 31 32  1  0
 32 33  1  0
 33 34  1  0
 34 35  1  0
 35 36  1  0
 35 37  1  0
 31 38  2  0
 21  2  1  0
 38 27  1  0
 15 10  1  0
  1 39  1  0
  1 40  1  0
  1 41  1  0
  3 42  1  0
  4 43  1  0
  6 44  1  0
 11 45  1  0
 12 46  1  0
 13 47  1  0
 14 48  1  0
 22 49  1  0
 22 50  1  0
 26 51  1  0
 26 52  1  0
 28 53  1  0
 29 54  1  0
 33 55  1  0
 33 56  1  0
 34 57  1  0
 34 58  1  0
 36 59  1  0
 36 60  1  0
 36 61  1  0
 37 62  1  0
 37 63  1  0
 37 64  1  0
 38 65  1  0
M  CHG  3  16   1  18  -1  25  -1
M  END
>  <UniqueID>  (47) 
44

>  <SMILES>  (47) 
Cc1ccc(NS(=O)(=O)c2ccccc2[N+](=O)[O-])c(=O)n1CC(=O)[N-]Cc1ccnc(OCCN(C)C)c1

>  <Energy>  (47) 
77.49527165817504

>  <Genealogy>  (47) 
Cc1ccc(NS(=O)(=O)c2ccccc2[N+](=O)[O-])c(=O)n1CC(=O)[N-]Cc1ccnc(OCCN(C)C)c1 (protonated)
Cc1ccc(NS(=O)(=O)c2ccccc2[N+](=O)[O-])c(=O)n1CC(=O)[N-]Cc1ccnc(OCCN(C)C)c1 (3D coordinates assigned)
Cc1ccc(NS(=O)(=O)c2ccccc2[N+](=O)[O-])c(=O)n1CC(=O)[N-]Cc1ccnc(OCCN(C)C)c1 (optimized conformer: 77.49527165817504 kcal/mol)

>  <smiles>  (47) 
Cc1ccc(NS(=O)(=O)c2ccccc2[N+](=O)[O-])c(=O)n1CC(=O)NCc1ccnc(OCCN(C)C)c1

>  <score_type>  (47) 
oracle

>  <origin>  (47) 
adg

>  <m_score__min__energy>  (47) 
-11.289999999999999

>  <m_primary>  (47) 
energy

$$$$
47:0
     RDKit          3D

 51 54  0  0  0  0  0  0  0  0999 V2000
   58.1060   26.5030   47.2130 O   0  0  0  0  0  0  0  0  0  0  0  0
   57.2140   26.5280   46.3220 C   0  0  0  0  0  0  0  0  0  0  0  0
   56.6960   27.7740   45.8460 N   0  0  0  0  0  0  0  0  0  0  0  0
   57.2330   28.4760   44.6860 C   0  0  0  0  0  0  0  0  0  0  0  0
   57.9510   29.7170   45.1360 C   0  0  0  0  0  0  0  0  0  0  0  0
   57.4230   30.9800   44.8290 C   0  0  0  0  0  0  0  0  0  0  0  0
   58.0180   32.1360   45.3420 C   0  0  0  0  0  0  0  0  0  0  0  0
   59.1460   32.0420   46.1670 C   0  0  0  0  0  0  0  0  0  0  0  0
   59.8350   33.5050   46.8620 S   0  0  0  0  0  0  0  0  0  0  0  0
   58.7640   34.2230   47.6360 O   0  0  0  0  0  0  0  0  0  0  0  0
   60.3390   34.4130   45.7730 O   0  0  0  0  0  0  0  0  0  0  0  0
   61.1510   33.0710   47.9260 N   0  0  0  0  0  0  0  0  0  0  0  0
   62.3050   32.5390   47.1640 C   0  0  0  0  0  0  0  0  0  0  0  0
   63.4980   33.5100   47.1530 C   0  0  0  0  0  0  0  0  0  0  0  0
   63.9480   33.8370   48.4580 O   0  0  0  0  0  0  0  0  0  0  0  0
   62.8960   34.0210   49.4000 C   0  0  0  0  0  0  0  0  0  0  0  0
   61.5030   34.2200   48.7780 C   0  0  0  0  0  0  0  0  0  0  0  0
   59.6820   30.7820   46.4670 C   0  0  0  0  0  0  0  0  0  0  0  0
   59.0850   29.6250   45.9570 C   0  0  0  0  0  0  0  0  0  0  0  0
   56.6950   25.2630   45.7720 C   0  0  0  0  0  0  0  0  0  0  0  0
   55.3070   25.1150   45.5430 C   0  0  0  0  0  0  0  0  0  0  0  0
   54.3970   26.1350   45.8280 O   0  0  0  0  0  0  0  0  0  0  0  0
   54.8070   23.9150   45.0310 C   0  0  0  0  0  0  0  0  0  0  0  0
   55.6590   22.8490   44.7530 C   0  0  0  0  0  0  0  0  0  0  0  0
   57.0370   22.9710   44.9680 C   0  0  0  0  0  0  0  0  0  0  0  0
   57.8910   21.8940   44.6750 C   0  0  0  0  0  0  0  0  0  0  0  0
   59.2670   22.0150   44.8670 C   0  0  0  0  0  0  0  0  0  0  0  0
   59.8050   23.2080   45.3470 C   0  0  0  0  0  0  0  0  0  0  0  0
   58.9710   24.2870   45.6410 C   0  0  0  0  0  0  0  0  0  0  0  0
   57.5720   24.1850   45.4740 C   0  0  0  0  0  0  0  0  0  0  0  0
   57.9363   27.8188   44.1536 H   0  0  0  0  0  0  0  0  0  0  0  0
   56.4084   28.7545   44.0134 H   0  0  0  0  0  0  0  0  0  0  0  0
   56.5371   31.0608   44.1819 H   0  0  0  0  0  0  0  0  0  0  0  0
   57.5989   33.1231   45.0970 H   0  0  0  0  0  0  0  0  0  0  0  0
   62.6247   31.5917   47.6226 H   0  0  0  0  0  0  0  0  0  0  0  0
   61.9812   32.3936   46.1228 H   0  0  0  0  0  0  0  0  0  0  0  0
   64.3271   33.0430   46.6013 H   0  0  0  0  0  0  0  0  0  0  0  0
   63.1645   34.4417   46.6727 H   0  0  0  0  0  0  0  0  0  0  0  0
   62.8579   33.1334   50.0487 H   0  0  0  0  0  0  0  0  0  0  0  0
   63.1272   34.9472   49.9466 H   0  0  0  0  0  0  0  0  0  0  0  0
   60.7580   34.3169   49.5815 H   0  0  0  0  0  0  0  0  0  0  0  0
   61.5150   35.1307   48.1611 H   0  0  0  0  0  0  0  0  0  0  0  0
   60.5745   30.7032   47.1052 H   0  0  0  0  0  0  0  0  0  0  0  0
   59.5062   28.6385   46.2005 H   0  0  0  0  0  0  0  0  0  0  0  0
   54.6750   27.0920   46.0050 H   0  0  0  0  0  0  0  0  0  0  0  0
   53.7278   23.8110   44.8453 H   0  0  0  0  0  0  0  0  0  0  0  0
   55.2473   21.9066   44.3626 H   0  0  0  0  0  0  0  0  0  0  0  0
   57.4723   20.9515   44.2925 H   0  0  0  0  0  0  0  0  0  0  0  0
   59.9294   21.1669   44.6391 H   0  0  0  0  0  0  0  0  0  0  0  0
   60.8913   23.2990   45.4945 H   0  0  0  0  0  0  0  0  0  0  0  0
   59.4078   25.2279   46.0070 H   0  0  0  0  0  0  0  0  0  0  0  0
  1  2  2  0
  2  3  1  0
  3  4  1  0
  4  5  1  0
  5  6  2  0
  6  7  1  0
  7  8  2  0
  8  9  1  0
  9 10  2  0
  9 11  2  0
  9 12  1  0
 12 13  1  0
 13 14  1  0
 14 15  1  0
 15 16  1  0
 16 17  1  0
  8 18  1  0
 18 19  2  0
  2 20  1  0
 20 21  2  0
 21 22  1  0
 21 23  1  0
 23 24  2  0
 24 25  1  0
 25 26  2  0
 26 27  1  0
 27 28  2  0
 28 29  1  0
 29 30  2  0
 19  5  1  0
 30 20  1  0
 17 12  1  0
 30 25  1  0
  4 31  1  0
  4 32  1  0
  6 33  1  0
  7 34  1  0
 13 35  1  0
 13 36  1  0
 14 37  1  0
 14 38  1  0
 16 39  1  0
 16 40  1  0
 17 41  1  0
 17 42  1  0
 18 43  1  0
 19 44  1  0
 22 45  1  0
 23 46  1  0
 24 47  1  0
 26 48  1  0
 27 49  1  0
 28 50  1  0
 29 51  1  0
M  CHG  1   3  -1
M  END
>  <UniqueID>  (48) 
45

>  <SMILES>  (48) 
O=C([N-]Cc1ccc(S(=O)(=O)N2CCOCC2)cc1)c1c(O)ccc2ccccc12

>  <Energy>  (48) 
75.26684455722287

>  <Genealogy>  (48) 
O=C([N-]Cc1ccc(S(=O)(=O)N2CCOCC2)cc1)c1c(O)ccc2ccccc12 (protonated)
O=C([N-]Cc1ccc(S(=O)(=O)N2CCOCC2)cc1)c1c(O)ccc2ccccc12 (3D coordinates assigned)
O=C([N-]Cc1ccc(S(=O)(=O)N2CCOCC2)cc1)c1c(O)ccc2ccccc12 (nonaromatic ring conformer: 75.26684455722287 kcal/mol)

>  <smiles>  (48) 
O=C(NCc1ccc(S(=O)(=O)N2CCOCC2)cc1)c1c(O)ccc2ccccc12

>  <score_type>  (48) 
oracle

>  <origin>  (48) 
adg

>  <m_score__min__energy>  (48) 
-11.59

>  <m_primary>  (48) 
energy

$$$$
48:0
     RDKit          3D

 51 53  0  0  0  0  0  0  0  0999 V2000
   56.5460   23.8350   43.7520 C   0  0  0  0  0  0  0  0  0  0  0  0
   55.1050   23.3670   43.8690 C   0  0  0  0  0  0  0  0  0  0  0  0
   54.5930   23.6840   45.1940 N   0  0  0  0  0  0  0  0  0  0  0  0
   54.8210   24.9400   45.8330 C   0  0  0  0  0  0  0  0  0  0  0  0
   54.0040   25.8790   45.6490 O   0  0  0  0  0  0  0  0  0  0  0  0
   55.9430   25.1090   46.7120 N   0  0  0  0  0  0  0  0  0  0  0  0
   56.9700   26.1020   46.5820 C   0  0  0  0  0  0  0  0  0  0  0  0
   58.1010   26.1130   47.4170 C   0  0  0  0  0  0  0  0  0  0  0  0
   59.0700   27.1090   47.2750 C   0  0  0  0  0  0  0  0  0  0  0  0
   58.9170   28.1040   46.3080 C   0  0  0  0  0  0  0  0  0  0  0  0
   57.7880   28.1110   45.4740 C   0  0  0  0  0  0  0  0  0  0  0  0
   57.6420   29.1470   44.3940 C   0  0  0  0  0  0  0  0  0  0  0  0
   56.8050   30.2520   44.8590 N   0  0  0  0  0  0  0  0  0  0  0  0
   56.9720   31.6250   44.4830 C   0  0  0  0  0  0  0  0  0  0  0  0
   57.3530   31.8940   43.3170 O   0  0  0  0  0  0  0  0  0  0  0  0
   56.7690   32.6930   45.4150 N   0  0  0  0  0  0  0  0  0  0  0  0
   57.8050   33.3490   46.1560 C   0  0  0  0  0  0  0  0  0  0  0  0
   58.5580   34.3930   45.5940 C   0  0  0  0  0  0  0  0  0  0  0  0
   59.5630   35.0110   46.3400 C   0  0  0  0  0  0  0  0  0  0  0  0
   59.8320   34.5860   47.6430 C   0  0  0  0  0  0  0  0  0  0  0  0
   59.1070   33.5290   48.2030 C   0  0  0  0  0  0  0  0  0  0  0  0
   59.4340   33.0240   49.8560 S   0  0  0  0  0  0  0  0  0  0  0  0
   58.4630   31.9430   50.2430 O   0  0  0  0  0  0  0  0  0  0  0  0
   59.2750   34.1890   50.7910 O   0  0  0  0  0  0  0  0  0  0  0  0
   61.0580   32.4200   49.9420 N   0  0  0  0  0  0  0  0  0  0  0  0
   61.9250   32.5400   48.9850 C   0  0  0  0  0  0  0  0  0  0  0  0
   62.5630   33.7250   48.8080 N   0  0  0  0  0  0  0  0  0  0  0  0
   63.4710   33.8910   47.8110 C   0  0  0  0  0  0  0  0  0  0  0  0
   63.7630   32.8320   46.9520 C   0  0  0  0  0  0  0  0  0  0  0  0
   63.1040   31.6200   47.1460 C   0  0  0  0  0  0  0  0  0  0  0  0
   62.2000   31.4950   48.1530 N   0  0  0  0  0  0  0  0  0  0  0  0
   58.0990   32.9090   47.4530 C   0  0  0  0  0  0  0  0  0  0  0  0
   56.8130   27.1130   45.6250 C   0  0  0  0  0  0  0  0  0  0  0  0
   56.9696   23.9726   44.7578 H   0  0  0  0  0  0  0  0  0  0  0  0
   57.1332   23.0814   43.2068 H   0  0  0  0  0  0  0  0  0  0  0  0
   56.5783   24.7898   43.2068 H   0  0  0  0  0  0  0  0  0  0  0  0
   54.4927   23.8747   43.1092 H   0  0  0  0  0  0  0  0  0  0  0  0
   55.0611   22.2792   43.7118 H   0  0  0  0  0  0  0  0  0  0  0  0
   58.2232   25.3347   48.1847 H   0  0  0  0  0  0  0  0  0  0  0  0
   59.9560   27.1093   47.9269 H   0  0  0  0  0  0  0  0  0  0  0  0
   59.6837   28.8852   46.1992 H   0  0  0  0  0  0  0  0  0  0  0  0
   58.6362   29.5333   44.1253 H   0  0  0  0  0  0  0  0  0  0  0  0
   57.1672   28.6839   43.5165 H   0  0  0  0  0  0  0  0  0  0  0  0
   58.3555   34.7240   44.5647 H   0  0  0  0  0  0  0  0  0  0  0  0
   60.1446   35.8348   45.9006 H   0  0  0  0  0  0  0  0  0  0  0  0
   60.6169   35.0843   48.2309 H   0  0  0  0  0  0  0  0  0  0  0  0
   63.9754   34.8599   47.6815 H   0  0  0  0  0  0  0  0  0  0  0  0
   64.4962   32.9508   46.1406 H   0  0  0  0  0  0  0  0  0  0  0  0
   63.3149   30.7660   46.4855 H   0  0  0  0  0  0  0  0  0  0  0  0
   57.5341   32.0703   47.8860 H   0  0  0  0  0  0  0  0  0  0  0  0
   55.9175   27.1247   44.9863 H   0  0  0  0  0  0  0  0  0  0  0  0
  1  2  1  0
  2  3  1  0
  3  4  1  0
  4  5  2  0
  4  6  1  0
  6  7  1  0
  7  8  2  0
  8  9  1  0
  9 10  2  0
 10 11  1  0
 11 12  1  0
 12 13  1  0
 13 14  1  0
 14 15  2  0
 14 16  1  0
 16 17  1  0
 17 18  2  0
 18 19  1  0
 19 20  2  0
 20 21  1  0
 21 22  1  0
 22 23  2  0
 22 24  2  0
 22 25  1  0
 25 26  2  3
 26 27  1  0
 27 28  2  0
 28 29  1  0
 29 30  2  0
 30 31  1  0
 21 32  2  0
 11 33  2  0
 33  7  1  0
 32 17  1  0
 31 26  1  0
  1 34  1  0
  1 35  1  0
  1 36  1  0
  2 37  1  0
  2 38  1  0
  8 39  1  0
  9 40  1  0
 10 41  1  0
 12 42  1  0
 12 43  1  0
 18 44  1  0
 19 45  1  0
 20 46  1  0
 28 47  1  0
 29 48  1  0
 30 49  1  0
 32 50  1  0
 33 51  1  0
M  CHG  5   3  -1   6  -1  13  -1  16  -1  31  -1
M  END
>  <UniqueID>  (49) 
46

>  <SMILES>  (49) 
CC[N-]C(=O)[N-]c1cccc(C[N-]C(=O)[N-]c2cccc(S(=O)(=O)N=c3nccc[n-]3)c2)c1

>  <Energy>  (49) 
59.769094410573025

>  <Genealogy>  (49) 
CC[N-]C(=O)[N-]c1cccc(C[N-]C(=O)[N-]c2cccc(S(=O)(=O)N=c3nccc[n-]3)c2)c1 (protonated)
CC[N-]C(=O)[N-]c1cccc(C[N-]C(=O)[N-]c2cccc(S(=O)(=O)N=c3nccc[n-]3)c2)c1 (3D coordinates assigned)
CC[N-]C(=O)[N-]c1cccc(C[N-]C(=O)[N-]c2cccc(S(=O)(=O)N=c3nccc[n-]3)c2)c1 (optimized conformer: 59.769094410573025 kcal/mol)

>  <smiles>  (49) 
CCNC(=O)Nc1cccc(CNC(=O)Nc2cccc(S(=O)(=O)N=c3nccc[nH]3)c2)c1

>  <score_type>  (49) 
oracle

>  <origin>  (49) 
adg

>  <m_score__min__energy>  (49) 
-18.16

>  <m_primary>  (49) 
energy

$$$$
49:0
     RDKit          3D

 48 50  0  0  0  0  0  0  0  0999 V2000
   59.7930   27.1480   45.4560 C   0  0  0  0  0  0  0  0  0  0  0  0
   58.9080   28.2990   45.2140 N   0  0  0  0  0  0  0  0  0  0  0  0
   58.9620   29.4060   46.0250 C   0  0  0  0  0  0  0  0  0  0  0  0
   60.1180   29.5390   47.4060 S   0  0  0  0  0  0  0  0  0  0  0  0
   58.8920   30.1790   48.6060 C   0  0  0  0  0  0  0  0  0  0  0  0
   59.2800   31.5270   49.1480 C   0  0  0  0  0  0  0  0  0  0  0  0
   60.1500   31.5970   50.0570 O   0  0  0  0  0  0  0  0  0  0  0  0
   58.5670   32.7170   48.7860 N   0  0  0  0  0  0  0  0  0  0  0  0
   58.5760   33.3260   47.4920 C   0  0  0  0  0  0  0  0  0  0  0  0
   57.3810   33.4850   46.7760 C   0  0  0  0  0  0  0  0  0  0  0  0
   57.3940   34.0630   45.5050 C   0  0  0  0  0  0  0  0  0  0  0  0
   58.6030   34.4560   44.9270 C   0  0  0  0  0  0  0  0  0  0  0  0
   59.8010   34.2680   45.6180 C   0  0  0  0  0  0  0  0  0  0  0  0
   59.7950   33.7020   46.9000 C   0  0  0  0  0  0  0  0  0  0  0  0
   61.0320   33.5340   47.6030 N   0  0  0  0  0  0  0  0  0  0  0  0
   61.9570   32.4880   47.1470 C   0  0  0  0  0  0  0  0  0  0  0  0
   63.3540   32.6490   47.7730 C   0  0  0  0  0  0  0  0  0  0  0  0
   63.2780   32.9960   49.1430 O   0  0  0  0  0  0  0  0  0  0  0  0
   62.6900   34.2720   49.2600 C   0  0  0  0  0  0  0  0  0  0  0  0
   61.2130   34.2110   48.8920 C   0  0  0  0  0  0  0  0  0  0  0  0
   58.0970   30.4740   45.7990 C   0  0  0  0  0  0  0  0  0  0  0  0
   57.2360   30.4330   44.7110 C   0  0  0  0  0  0  0  0  0  0  0  0
   56.4560   31.4040   44.5160 O   0  0  0  0  0  0  0  0  0  0  0  0
   57.2420   29.3580   43.8660 N   0  0  0  0  0  0  0  0  0  0  0  0
   56.3220   29.3450   42.7150 C   0  0  0  0  0  0  0  0  0  0  0  0
   58.0660   28.2900   44.1250 C   0  0  0  0  0  0  0  0  0  0  0  0
   58.0500   27.2870   43.3560 O   0  0  0  0  0  0  0  0  0  0  0  0
   59.9095   26.9965   46.5393 H   0  0  0  0  0  0  0  0  0  0  0  0
   59.3534   26.2462   45.0048 H   0  0  0  0  0  0  0  0  0  0  0  0
   60.7774   27.3412   45.0048 H   0  0  0  0  0  0  0  0  0  0  0  0
   57.9169   30.2659   48.1044 H   0  0  0  0  0  0  0  0  0  0  0  0
   58.8458   29.4754   49.4503 H   0  0  0  0  0  0  0  0  0  0  0  0
   56.4296   33.1531   47.2173 H   0  0  0  0  0  0  0  0  0  0  0  0
   56.4507   34.2090   44.9583 H   0  0  0  0  0  0  0  0  0  0  0  0
   58.6111   34.9139   43.9268 H   0  0  0  0  0  0  0  0  0  0  0  0
   60.7533   34.5652   45.1546 H   0  0  0  0  0  0  0  0  0  0  0  0
   61.5510   31.5055   47.4297 H   0  0  0  0  0  0  0  0  0  0  0  0
   62.0592   32.5737   46.0551 H   0  0  0  0  0  0  0  0  0  0  0  0
   63.8996   31.6988   47.6759 H   0  0  0  0  0  0  0  0  0  0  0  0
   63.8755   33.4596   47.2429 H   0  0  0  0  0  0  0  0  0  0  0  0
   62.7910   34.6241   50.2972 H   0  0  0  0  0  0  0  0  0  0  0  0
   63.2005   34.9647   48.5747 H   0  0  0  0  0  0  0  0  0  0  0  0
   60.6684   33.6575   49.6712 H   0  0  0  0  0  0  0  0  0  0  0  0
   60.8235   35.2367   48.8129 H   0  0  0  0  0  0  0  0  0  0  0  0
   58.0962   31.3411   46.4758 H   0  0  0  0  0  0  0  0  0  0  0  0
   55.2831   29.3303   43.0762 H   0  0  0  0  0  0  0  0  0  0  0  0
   56.4854   30.2455   42.1048 H   0  0  0  0  0  0  0  0  0  0  0  0
   56.5108   28.4494   42.1048 H   0  0  0  0  0  0  0  0  0  0  0  0
  1  2  1  0
  2  3  1  0
  3  4  1  0
  4  5  1  0
  5  6  1  0
  6  7  2  0
  6  8  1  0
  8  9  1  0
  9 10  2  0
 10 11  1  0
 11 12  2  0
 12 13  1  0
 13 14  2  0
 14 15  1  0
 15 16  1  0
 16 17  1  0
 17 18  1  0
 18 19  1  0
 19 20  1  0
  3 21  2  0
 21 22  1  0
 22 23  2  0
 22 24  1  0
 24 25  1  0
 24 26  1  0
 26 27  2  0
 26  2  1  0
 14  9  1  0
 20 15  1  0
  1 28  1  0
  1 29  1  0
  1 30  1  0
  5 31  1  0
  5 32  1  0
 10 33  1  0
 11 34  1  0
 12 35  1  0
 13 36  1  0
 16 37  1  0
 16 38  1  0
 17 39  1  0
 17 40  1  0
 19 41  1  0
 19 42  1  0
 20 43  1  0
 20 44  1  0
 21 45  1  0
 25 46  1  0
 25 47  1  0
 25 48  1  0
M  CHG  1   8  -1
M  END
>  <UniqueID>  (50) 
47

>  <SMILES>  (50) 
Cn1c(SCC(=O)[N-]c2ccccc2N2CCOCC2)cc(=O)n(C)c1=O

>  <Energy>  (50) 
65.08562502694231

>  <Genealogy>  (50) 
Cn1c(SCC(=O)[N-]c2ccccc2N2CCOCC2)cc(=O)n(C)c1=O (protonated)
Cn1c(SCC(=O)[N-]c2ccccc2N2CCOCC2)cc(=O)n(C)c1=O (3D coordinates assigned)
Cn1c(SCC(=O)[N-]c2ccccc2N2CCOCC2)cc(=O)n(C)c1=O (nonaromatic ring conformer: 65.08562502694231 kcal/mol)

>  <smiles>  (50) 
Cn1c(SCC(=O)Nc2ccccc2N2CCOCC2)cc(=O)n(C)c1=O

>  <score_type>  (50) 
oracle

>  <origin>  (50) 
adg

>  <m_score__min__energy>  (50) 
-9.0999999999999996

>  <m_primary>  (50) 
energy

$$$$
50:0
     RDKit          3D

 64 70  0  0  1  0  0  0  0  0999 V2000
   60.9670   29.3430   52.9810 O   0  0  0  0  0  0  0  0  0  0  0  0
   60.9930   29.7680   51.6540 C   0  0  0  0  0  0  0  0  0  0  0  0
   59.8080   29.8860   50.9420 C   0  0  0  0  0  0  0  0  0  0  0  0
   59.7990   30.3100   49.6090 C   0  0  0  0  0  0  0  0  0  0  0  0
   61.0010   30.6200   48.9860 C   0  0  0  0  0  0  0  0  0  0  0  0
   60.9470   31.0470   47.6290 N   0  0  0  0  0  0  0  0  0  0  0  0
   59.8320   30.8780   46.9990 C   0  0  0  0  0  0  0  0  0  0  0  0
   59.2640   29.6550   46.9300 N   0  0  0  0  0  0  0  0  0  0  0  0
   58.1020   29.5460   46.2580 C   0  0  0  0  0  0  0  0  0  0  0  0
   57.3970   28.2580   46.1220 C   0  0  0  0  0  0  0  0  0  0  0  0
   56.2250   28.1050   45.6020 N   0  0  0  0  0  0  0  0  0  0  0  0
   55.8440   26.7690   45.6220 O   0  0  0  0  0  0  0  0  0  0  0  0
   57.0210   25.9970   45.8130 C   0  0  0  0  0  0  0  0  0  0  0  0
   57.5630   25.6260   44.4660 C   0  0  0  0  0  0  0  0  0  0  0  0
   57.5390   24.1150   44.3030 C   0  0  0  0  0  0  0  0  0  0  0  0
   56.1310   23.6150   44.5580 C   0  0  0  0  0  0  0  0  0  0  0  0
   55.7070   23.9320   45.9720 C   0  0  0  0  0  0  0  0  0  0  0  0
   56.7090   24.8040   46.6750 C   0  0  0  0  0  0  0  0  0  0  0  0
   57.9410   26.9370   46.5670 C   0  0  0  0  0  0  0  0  0  0  0  0
   57.5070   30.6080   45.6670 N   0  0  0  0  0  0  0  0  0  0  0  0
   58.0500   31.8380   45.7200 C   0  0  0  0  0  0  0  0  0  0  0  0
   57.4520   32.9260   45.1210 C   0  0  0  0  0  0  0  0  0  0  0  0
   58.0070   34.1910   45.1720 C   0  0  0  0  0  0  0  0  0  0  0  0
   59.1980   34.3150   45.8570 C   0  0  0  0  0  0  0  0  0  0  0  0
   59.8160   33.2300   46.4680 C   0  0  0  0  0  0  0  0  0  0  0  0
   61.0770   33.4460   47.1750 C   0  0  0  0  0  0  0  0  0  0  0  0
   62.2620   33.4650   46.4410 C   0  0  0  0  0  0  0  0  0  0  0  0
   63.4530   33.6730   47.1390 C   0  0  0  0  0  0  0  0  0  0  0  0
   63.4210   33.8500   48.5090 C   0  0  0  0  0  0  0  0  0  0  0  0
   62.2560   33.8340   49.2470 C   0  0  0  0  0  0  0  0  0  0  0  0
   61.9270   33.9720   50.5460 N   0  0  0  0  0  0  0  0  0  0  0  0
   60.5870   33.8620   50.7010 C   0  0  0  0  0  0  0  0  0  0  0  0
   60.0220   33.6410   49.4410 C   0  0  0  0  0  0  0  0  0  0  0  0
   61.0810   33.6280   48.5560 C   0  0  0  0  0  0  0  0  0  0  0  0
   59.2400   31.9780   46.4010 C   0  0  0  0  0  0  0  0  0  0  0  0
   62.1950   30.5090   49.6800 C   0  0  0  0  0  0  0  0  0  0  0  0
   62.1590   30.0850   50.9980 C   0  0  0  0  0  0  0  0  0  0  0  0
   61.4880   29.8830   53.6820 H   0  0  0  0  0  0  0  0  0  0  0  0
   58.8561   29.6411   51.4359 H   0  0  0  0  0  0  0  0  0  0  0  0
   58.8498   30.3970   49.0599 H   0  0  0  0  0  0  0  0  0  0  0  0
   59.6930   28.8080   47.3750 H   0  0  0  0  0  0  0  0  0  0  0  0
   56.9441   26.0882   43.6828 H   0  0  0  0  0  0  0  0  0  0  0  0
   58.5988   25.9856   44.3783 H   0  0  0  0  0  0  0  0  0  0  0  0
   57.8456   23.8492   43.2806 H   0  0  0  0  0  0  0  0  0  0  0  0
   58.2338   23.6522   45.0193 H   0  0  0  0  0  0  0  0  0  0  0  0
   55.4403   24.1030   43.8546 H   0  0  0  0  0  0  0  0  0  0  0  0
   56.1086   22.5245   44.4151 H   0  0  0  0  0  0  0  0  0  0  0  0
   54.7389   24.4535   45.9446 H   0  0  0  0  0  0  0  0  0  0  0  0
   55.6313   22.9846   46.5259 H   0  0  0  0  0  0  0  0  0  0  0  0
   56.2918   25.1431   47.6347 H   0  0  0  0  0  0  0  0  0  0  0  0
   57.6301   24.2318   46.8598 H   0  0  0  0  0  0  0  0  0  0  0  0
   57.8528   26.8064   47.6557 H   0  0  0  0  0  0  0  0  0  0  0  0
   59.0128   26.7900   46.3681 H   0  0  0  0  0  0  0  0  0  0  0  0
   56.5022   32.7829   44.5849 H   0  0  0  0  0  0  0  0  0  0  0  0
   57.5238   35.0543   44.6911 H   0  0  0  0  0  0  0  0  0  0  0  0
   59.6741   35.3045   45.9218 H   0  0  0  0  0  0  0  0  0  0  0  0
   62.2587   33.3212   45.3504 H   0  0  0  0  0  0  0  0  0  0  0  0
   64.4122   33.6959   46.6010 H   0  0  0  0  0  0  0  0  0  0  0  0
   64.3721   34.0117   49.0374 H   0  0  0  0  0  0  0  0  0  0  0  0
   62.6600   34.1410   51.2820 H   0  0  0  0  0  0  0  0  0  0  0  0
   60.0383   33.9339   51.6517 H   0  0  0  0  0  0  0  0  0  0  0  0
   58.9562   33.5058   49.2046 H   0  0  0  0  0  0  0  0  0  0  0  0
   63.1515   30.7525   49.1944 H   0  0  0  0  0  0  0  0  0  0  0  0
   63.1087   29.9977   51.5462 H   0  0  0  0  0  0  0  0  0  0  0  0
  1  2  1  0
  2  3  2  0
  3  4  1  0
  4  5  2  0
  5  6  1  0
  6  7  2  0
  7  8  1  0
  8  9  1  0
  9 10  1  0
 10 11  2  0
 11 12  1  0
 12 13  1  0
 13 14  1  0
 14 15  1  0
 15 16  1  0
 16 17  1  0
 17 18  1  0
 13 19  1  0
  9 20  2  0
 20 21  1  0
 21 22  2  0
 22 23  1  0
 23 24  2  0
 24 25  1  0
 25 26  1  0
 26 27  2  0
 27 28  1  0
 28 29  2  0
 29 30  1  0
 30 31  1  0
 31 32  1  0
 32 33  2  0
 33 34  1  0
 25 35  2  0
  5 36  1  0
 36 37  2  0
 37  2  1  0
 35  7  1  0
 19 10  1  0
 35 21  1  0
 18 13  1  0
 34 26  1  0
 34 30  2  0
  1 38  1  0
  3 39  1  0
  4 40  1  0
  8 41  1  0
 14 42  1  0
 14 43  1  0
 15 44  1  0
 15 45  1  0
 16 46  1  0
 16 47  1  0
 17 48  1  0
 17 49  1  0
 18 50  1  0
 18 51  1  0
 19 52  1  0
 19 53  1  0
 22 54  1  0
 23 55  1  0
 24 56  1  0
 27 57  1  0
 28 58  1  0
 29 59  1  0
 31 60  1  0
 32 61  1  0
 33 62  1  0
 36 63  1  0
 37 64  1  0
M  END
>  <smiles>  (51) 
Oc1ccc(N=c2[nH]c(C3=NOC4(CCCCC4)C3)nc3cccc(-c4cccc5[nH]ccc45)c23)cc1

>  <score_type>  (51) 
oracle

>  <origin>  (51) 
adg

>  <m_score__min__energy>  (51) 
-10.390000000000001

>  <m_primary>  (51) 
energy

$$$$
51:0
     RDKit          3D

 75 78  0  0  0  0  0  0  0  0999 V2000
   60.2850   27.3930   52.1000 O   0  0  0  0  0  0  0  0  0  0  0  0
   61.0150   28.0690   51.3280 C   0  0  0  0  0  0  0  0  0  0  0  0
   61.1650   27.6950   49.9560 N   0  0  0  0  0  0  0  0  0  0  0  0
   60.5090   28.3460   48.8240 C   0  0  1  0  0  0  0  0  0  0  0  0
   59.6400   27.3420   48.0550 C   0  0  0  0  0  0  0  0  0  0  0  0
   58.6750   28.0260   47.2820 O   0  0  0  0  0  0  0  0  0  0  0  0
   59.2970   28.7410   46.2300 C   0  0  0  0  0  0  0  0  0  0  0  0
   58.2500   29.3380   45.3330 C   0  0  0  0  0  0  0  0  0  0  0  0
   58.5560   30.4470   44.5310 C   0  0  0  0  0  0  0  0  0  0  0  0
   57.5740   31.0200   43.7180 C   0  0  0  0  0  0  0  0  0  0  0  0
   56.2820   30.4900   43.7060 C   0  0  0  0  0  0  0  0  0  0  0  0
   55.9670   29.3920   44.5100 C   0  0  0  0  0  0  0  0  0  0  0  0
   56.9450   28.8190   45.3260 C   0  0  0  0  0  0  0  0  0  0  0  0
   59.6690   29.4900   49.3230 C   0  0  0  0  0  0  0  0  0  0  0  0
   59.8730   30.8350   49.0920 C   0  0  0  0  0  0  0  0  0  0  0  0
   58.9090   31.4800   49.7680 N   0  0  0  0  0  0  0  0  0  0  0  0
   58.7530   32.9330   49.8720 C   0  0  2  0  0  0  0  0  0  0  0  0
   59.7290   33.6530   48.9210 C   0  0  0  0  0  0  0  0  0  0  0  0
   59.1170   33.8560   47.5580 C   0  0  0  0  0  0  0  0  0  0  0  0
   57.8620   33.3000   47.2560 C   0  0  0  0  0  0  0  0  0  0  0  0
   57.3090   33.4630   45.9810 C   0  0  0  0  0  0  0  0  0  0  0  0
   58.0010   34.1790   45.0020 C   0  0  0  0  0  0  0  0  0  0  0  0
   59.2500   34.7320   45.2910 C   0  0  0  0  0  0  0  0  0  0  0  0
   59.8120   34.5640   46.5620 C   0  0  0  0  0  0  0  0  0  0  0  0
   58.9270   33.3650   51.3070 C   0  0  0  0  0  0  0  0  0  0  0  0
   59.0080   34.5890   51.6020 O   0  0  0  0  0  0  0  0  0  0  0  0
   59.0670   32.3700   52.3300 N   0  0  0  0  0  0  0  0  0  0  0  0
   59.1360   32.7360   53.7440 C   0  0  0  0  0  0  0  0  0  0  0  0
   59.2680   31.4960   54.6230 C   0  0  0  0  0  0  0  0  0  0  0  0
   59.1880   30.3460   53.8280 O   0  0  0  0  0  0  0  0  0  0  0  0
   58.1690   30.5840   50.4030 N   0  0  0  0  0  0  0  0  0  0  0  0
   58.6080   29.3580   50.1470 N   0  0  0  0  0  0  0  0  0  0  0  0
   61.6630   29.3350   51.8040 C   0  0  2  0  0  0  0  0  0  0  0  0
   60.7140   30.3700   51.8250 O   0  0  0  0  0  0  0  0  0  0  0  0
   62.8290   29.6940   50.8700 C   0  0  0  0  0  0  0  0  0  0  0  0
   62.8360   31.1600   50.5320 C   0  0  0  0  0  0  0  0  0  0  0  0
   62.9310   31.5730   49.1920 C   0  0  0  0  0  0  0  0  0  0  0  0
   62.9620   32.9350   48.8760 C   0  0  0  0  0  0  0  0  0  0  0  0
   62.9100   33.8930   49.8930 C   0  0  0  0  0  0  0  0  0  0  0  0
   62.8240   33.4880   51.2280 C   0  0  0  0  0  0  0  0  0  0  0  0
   62.7890   32.1280   51.5490 C   0  0  0  0  0  0  0  0  0  0  0  0
   61.2765   28.7314   48.1367 H   0  0  0  0  0  0  0  0  0  0  0  0
   60.2791   26.7418   47.3908 H   0  0  0  0  0  0  0  0  0  0  0  0
   59.1263   26.6865   48.7736 H   0  0  0  0  0  0  0  0  0  0  0  0
   59.9182   29.5448   46.6519 H   0  0  0  0  0  0  0  0  0  0  0  0
   59.9271   28.0539   45.6462 H   0  0  0  0  0  0  0  0  0  0  0  0
   59.5724   30.8674   44.5418 H   0  0  0  0  0  0  0  0  0  0  0  0
   57.8187   31.8879   43.0880 H   0  0  0  0  0  0  0  0  0  0  0  0
   55.5109   30.9381   43.0621 H   0  0  0  0  0  0  0  0  0  0  0  0
   54.9478   28.9783   44.5004 H   0  0  0  0  0  0  0  0  0  0  0  0
   56.6926   27.9595   45.9644 H   0  0  0  0  0  0  0  0  0  0  0  0
   60.6656   31.2874   48.4779 H   0  0  0  0  0  0  0  0  0  0  0  0
   57.7371   33.2161   49.5594 H   0  0  0  0  0  0  0  0  0  0  0  0
   59.9869   34.6336   49.3475 H   0  0  0  0  0  0  0  0  0  0  0  0
   60.6277   33.0288   48.8084 H   0  0  0  0  0  0  0  0  0  0  0  0
   57.3131   32.7352   48.0239 H   0  0  0  0  0  0  0  0  0  0  0  0
   56.3265   33.0259   45.7493 H   0  0  0  0  0  0  0  0  0  0  0  0
   57.5615   34.3075   44.0018 H   0  0  0  0  0  0  0  0  0  0  0  0
   59.7922   35.2995   44.5203 H   0  0  0  0  0  0  0  0  0  0  0  0
   60.8027   34.9882   46.7826 H   0  0  0  0  0  0  0  0  0  0  0  0
   59.1180   31.3630   52.0460 H   0  0  0  0  0  0  0  0  0  0  0  0
   60.0086   33.3860   53.9053 H   0  0  0  0  0  0  0  0  0  0  0  0
   58.2088   33.2617   54.0160 H   0  0  0  0  0  0  0  0  0  0  0  0
   60.2381   31.5161   55.1411 H   0  0  0  0  0  0  0  0  0  0  0  0
   58.4550   31.4852   55.3639 H   0  0  0  0  0  0  0  0  0  0  0  0
   60.0500   30.2890   53.3390 H   0  0  0  0  0  0  0  0  0  0  0  0
   62.0534   29.1935   52.8226 H   0  0  0  0  0  0  0  0  0  0  0  0
   59.8190   29.9400   51.7720 H   0  0  0  0  0  0  0  0  0  0  0  0
   63.7764   29.4376   51.3667 H   0  0  0  0  0  0  0  0  0  0  0  0
   62.7092   29.1259   49.9357 H   0  0  0  0  0  0  0  0  0  0  0  0
   62.9811   30.8226   48.3892 H   0  0  0  0  0  0  0  0  0  0  0  0
   63.0274   33.2532   47.8251 H   0  0  0  0  0  0  0  0  0  0  0  0
   62.9367   34.9639   49.6429 H   0  0  0  0  0  0  0  0  0  0  0  0
   62.7838   34.2416   52.0283 H   0  0  0  0  0  0  0  0  0  0  0  0
   62.7244   31.8147   52.6015 H   0  0  0  0  0  0  0  0  0  0  0  0
  1  2  2  0
  2  3  1  0
  3  4  1  0
  4  5  1  0
  5  6  1  0
  6  7  1  0
  7  8  1  0
  8  9  2  0
  9 10  1  0
 10 11  2  0
 11 12  1  0
 12 13  2  0
  4 14  1  0
 14 15  2  0
 15 16  1  0
 16 17  1  0
 17 18  1  0
 18 19  1  0
 19 20  2  0
 20 21  1  0
 21 22  2  0
 22 23  1  0
 23 24  2  0
 17 25  1  0
 25 26  2  0
 25 27  1  0
 27 28  1  0
 28 29  1  0
 29 30  1  0
 16 31  1  0
 31 32  2  0
  2 33  1  0
 33 34  1  0
 33 35  1  0
 35 36  1  0
 36 37  2  0
 37 38  1  0
 38 39  2  0
 39 40  1  0
 40 41  2  0
 13  8  1  0
 32 14  1  0
 41 36  1  0
 24 19  1  0
  4 42  1  6
  5 43  1  0
  5 44  1  0
  7 45  1  0
  7 46  1  0
  9 47  1  0
 10 48  1  0
 11 49  1  0
 12 50  1  0
 13 51  1  0
 15 52  1  0
 17 53  1  6
 18 54  1  0
 18 55  1  0
 20 56  1  0
 21 57  1  0
 22 58  1  0
 23 59  1  0
 24 60  1  0
 27 61  1  0
 28 62  1  0
 28 63  1  0
 29 64  1  0
 29 65  1  0
 30 66  1  0
 33 67  1  1
 34 68  1  0
 35 69  1  0
 35 70  1  0
 37 71  1  0
 38 72  1  0
 39 73  1  0
 40 74  1  0
 41 75  1  0
M  CHG  1   3  -1
M  END
>  <UniqueID>  (52) 
48

>  <SMILES>  (52) 
O=C([N-][C@@H](COCc1ccccc1)c1cn([C@H](Cc2ccccc2)C(=O)NCCO)nn1)C(O)Cc1ccccc1

>  <Energy>  (52) 
94.35561353543916

>  <Genealogy>  (52) 
O=C([N-]C(COCc1ccccc1)c1cn(C(Cc2ccccc2)C(=O)NCCO)nn1)C(O)Cc1ccccc1 (protonated)
O=C([N-][C@@H](COCc1ccccc1)c1cn([C@H](Cc2ccccc2)C(=O)NCCO)nn1)C(O)Cc1ccccc1 (chirality)
O=C([N-][C@@H](COCc1ccccc1)c1cn([C@H](Cc2ccccc2)C(=O)NCCO)nn1)C(O)Cc1ccccc1 (3D coordinates assigned)
O=C([N-][C@@H](COCc1ccccc1)c1cn([C@H](Cc2ccccc2)C(=O)NCCO)nn1)C(O)Cc1ccccc1 (optimized conformer: 94.35561353543916 kcal/mol)

>  <smiles>  (52) 
O=C(NC(COCc1ccccc1)c1cn(C(Cc2ccccc2)C(=O)NCCO)nn1)C(O)Cc1ccccc1

>  <score_type>  (52) 
oracle

>  <origin>  (52) 
adg

>  <m_score__min__energy>  (52) 
-12.119999999999999

>  <m_primary>  (52) 
energy

$$$$
52:0
     RDKit          3D

 26 27  0  0  0  0  0  0  0  0999 V2000
   58.2980   32.1970   54.4920 C   0  0  0  0  0  0  0  0  0  0  0  0
   57.7530   30.9620   54.0380 O   0  0  0  0  0  0  0  0  0  0  0  0
   56.4890   30.8200   53.4440 C   0  0  0  0  0  0  0  0  0  0  0  0
   56.3090   30.8950   52.0480 C   0  0  0  0  0  0  0  0  0  0  0  0
   55.0360   30.7510   51.4910 C   0  0  0  0  0  0  0  0  0  0  0  0
   53.9220   30.5400   52.3140 C   0  0  0  0  0  0  0  0  0  0  0  0
   52.5580   30.3480   51.7080 C   0  0  0  0  0  0  0  0  0  0  0  0
   51.5930   31.3340   52.2890 C   0  0  0  0  0  0  0  0  0  0  0  0
   51.2870   31.4090   53.5970 N   0  0  0  0  0  0  0  0  0  0  0  0
   50.4490   32.4680   53.6590 C   0  0  0  0  0  0  0  0  0  0  0  0
   49.9320   32.8600   54.7370 O   0  0  0  0  0  0  0  0  0  0  0  0
   50.2150   33.0760   52.4760 N   0  0  0  0  0  0  0  0  0  0  0  0
   50.9520   32.3500   51.6210 C   0  0  0  0  0  0  0  0  0  0  0  0
   51.0410   32.6120   50.2600 O   0  0  0  0  0  0  0  0  0  0  0  0
   54.0990   30.4530   53.7030 C   0  0  0  0  0  0  0  0  0  0  0  0
   55.3710   30.5960   54.2680 C   0  0  0  0  0  0  0  0  0  0  0  0
   55.5040   30.5090   55.6530 O   0  0  0  0  0  0  0  0  0  0  0  0
   58.3048   32.2125   55.5919 H   0  0  0  0  0  0  0  0  0  0  0  0
   59.3267   32.3036   54.1174 H   0  0  0  0  0  0  0  0  0  0  0  0
   57.6834   33.0288   54.1174 H   0  0  0  0  0  0  0  0  0  0  0  0
   57.1759   31.0679   51.3934 H   0  0  0  0  0  0  0  0  0  0  0  0
   54.9075   30.8036   50.3998 H   0  0  0  0  0  0  0  0  0  0  0  0
   52.6192   30.4969   50.6198 H   0  0  0  0  0  0  0  0  0  0  0  0
   52.2070   29.3289   51.9274 H   0  0  0  0  0  0  0  0  0  0  0  0
   53.2306   30.2709   54.3532 H   0  0  0  0  0  0  0  0  0  0  0  0
   56.4040   30.5650   56.1150 H   0  0  0  0  0  0  0  0  0  0  0  0
  1  2  1  0
  2  3  1  0
  3  4  2  0
  4  5  1  0
  5  6  2  0
  6  7  1  0
  7  8  1  0
  8  9  1  0
  9 10  1  0
 10 11  2  0
 10 12  1  0
 12 13  1  0
 13 14  1  0
  6 15  1  0
 15 16  2  0
 16 17  1  0
 16  3  1  0
 13  8  2  0
  1 18  1  0
  1 19  1  0
  1 20  1  0
  4 21  1  0
  5 22  1  0
  7 23  1  0
  7 24  1  0
 15 25  1  0
 17 26  1  0
M  CHG  3   9  -1  12  -1  14  -1
M  END
>  <UniqueID>  (53) 
49

>  <SMILES>  (53) 
COc1ccc(Cc2[n-]c(=O)[n-]c2[O-])cc1O

>  <Energy>  (53) 
53.61658844256701

>  <Genealogy>  (53) 
COc1ccc(Cc2[n-]c(=O)[n-]c2[O-])cc1O (protonated)
COc1ccc(Cc2[n-]c(=O)[n-]c2[O-])cc1O (3D coordinates assigned)
COc1ccc(Cc2[n-]c(=O)[n-]c2[O-])cc1O (optimized conformer: 53.61658844256701 kcal/mol)

>  <smiles>  (53) 
COc1ccc(Cc2[nH]c(=O)[nH]c2O)cc1O

>  <score_type>  (53) 
oracle

>  <origin>  (53) 
adg

>  <m_score__min__energy>  (53) 
-14.460000000000001

>  <m_primary>  (53) 
energy

$$$$
53:0
     RDKit          3D

 36 38  0  0  0  0  0  0  0  0999 V2000
   55.4110   28.9620   44.9040 N   0  0  0  0  0  0  0  0  0  0  0  0
   56.6790   30.0560   44.4810 S   0  0  0  0  0  0  0  0  0  0  0  0
   56.2870   31.4550   44.8670 O   0  0  0  0  0  0  0  0  0  0  0  0
   56.9070   30.0110   42.9960 O   0  0  0  0  0  0  0  0  0  0  0  0
   58.1530   29.5980   45.3270 C   0  0  0  0  0  0  0  0  0  0  0  0
   59.3340   29.3580   44.6110 C   0  0  0  0  0  0  0  0  0  0  0  0
   60.4930   28.9680   45.2840 C   0  0  0  0  0  0  0  0  0  0  0  0
   60.4840   28.8240   46.6740 C   0  0  0  0  0  0  0  0  0  0  0  0
   59.3170   29.0810   47.4050 C   0  0  0  0  0  0  0  0  0  0  0  0
   59.3420   28.9050   48.8280 N   0  0  0  0  0  0  0  0  0  0  0  0
   59.0590   29.9130   49.8060 C   0  0  0  0  0  0  0  0  0  0  0  0
   58.1410   29.7030   50.6410 O   0  0  0  0  0  0  0  0  0  0  0  0
   59.8600   31.1050   49.8670 N   0  0  0  0  0  0  0  0  0  0  0  0
   60.1230   31.9390   48.9040 C   0  0  0  0  0  0  0  0  0  0  0  0
   59.1580   32.6790   48.3210 N   0  0  0  0  0  0  0  0  0  0  0  0
   59.6580   33.4920   47.3480 C   0  0  0  0  0  0  0  0  0  0  0  0
   58.7860   34.4270   46.5500 C   0  0  0  0  0  0  0  0  0  0  0  0
   57.4390   33.8210   46.1600 C   0  0  0  0  0  0  0  0  0  0  0  0
   57.8280   33.9080   44.6900 C   0  0  0  0  0  0  0  0  0  0  0  0
   59.1710   34.5160   45.0750 C   0  0  0  0  0  0  0  0  0  0  0  0
   61.0350   33.4020   47.1560 C   0  0  0  0  0  0  0  0  0  0  0  0
   61.6390   32.2680   48.2400 S   0  0  0  0  0  0  0  0  0  0  0  0
   58.1420   29.4420   46.7200 C   0  0  0  0  0  0  0  0  0  0  0  0
   54.5320   29.5230   44.9650 H   0  0  0  0  0  0  0  0  0  0  0  0
   59.3474   29.4771   43.5176 H   0  0  0  0  0  0  0  0  0  0  0  0
   61.4162   28.7734   44.7185 H   0  0  0  0  0  0  0  0  0  0  0  0
   61.3984   28.5071   47.1970 H   0  0  0  0  0  0  0  0  0  0  0  0
   58.8334   35.3182   47.1930 H   0  0  0  0  0  0  0  0  0  0  0  0
   57.2857   32.7945   46.5243 H   0  0  0  0  0  0  0  0  0  0  0  0
   56.5009   34.2718   46.5160 H   0  0  0  0  0  0  0  0  0  0  0  0
   57.9052   32.9321   44.1883 H   0  0  0  0  0  0  0  0  0  0  0  0
   57.1719   34.4219   43.9721 H   0  0  0  0  0  0  0  0  0  0  0  0
   60.0391   33.8993   44.7991 H   0  0  0  0  0  0  0  0  0  0  0  0
   59.4948   35.4731   44.6402 H   0  0  0  0  0  0  0  0  0  0  0  0
   61.6240   33.9731   46.4232 H   0  0  0  0  0  0  0  0  0  0  0  0
   57.2095   29.6027   47.2809 H   0  0  0  0  0  0  0  0  0  0  0  0
  1  2  1  0
  2  3  2  0
  2  4  2  0
  2  5  1  0
  5  6  2  0
  6  7  1  0
  7  8  2  0
  8  9  1  0
  9 10  1  0
 10 11  1  0
 11 12  2  0
 11 13  1  0
 13 14  2  3
 14 15  1  0
 15 16  1  0
 16 17  1  0
 17 18  1  0
 18 19  1  0
 19 20  1  0
 16 21  2  0
 21 22  1  0
  9 23  2  0
 23  5  1  0
 22 14  1  0
 20 17  1  0
  1 24  1  0
  6 25  1  0
  7 26  1  0
  8 27  1  0
 17 28  1  0
 18 29  1  0
 18 30  1  0
 19 31  1  0
 19 32  1  0
 20 33  1  0
 20 34  1  0
 21 35  1  0
 23 36  1  0
M  CHG  3   1  -1  10  -1  15  -1
M  END
>  <UniqueID>  (54) 
50

>  <SMILES>  (54) 
[NH-]S(=O)(=O)c1cccc([N-]C(=O)N=c2[n-]c(C3CCC3)cs2)c1

>  <Energy>  (54) 
132.84243675728572

>  <Genealogy>  (54) 
[NH-]S(=O)(=O)c1cccc([N-]C(=O)N=c2[n-]c(C3CCC3)cs2)c1 (protonated)
[NH-]S(=O)(=O)c1cccc([N-]C(=O)N=c2[n-]c(C3CCC3)cs2)c1 (3D coordinates assigned)
[NH-]S(=O)(=O)c1cccc([N-]C(=O)N=c2[n-]c(C3CCC3)cs2)c1 (nonaromatic ring conformer: 132.84243675728572 kcal/mol)

>  <smiles>  (54) 
NS(=O)(=O)c1cccc(NC(=O)N=c2[nH]c(C3CCC3)cs2)c1

>  <score_type>  (54) 
oracle

>  <origin>  (54) 
adg

>  <m_score__min__energy>  (54) 
-13.470000000000001

>  <m_primary>  (54) 
energy

$$$$
54:0
     RDKit          3D

 42 44  0  0  0  0  0  0  0  0999 V2000
   60.3890   29.6820   45.8410 C   0  0  0  0  0  0  0  0  0  0  0  0
   60.4100   29.0590   47.2100 C   0  0  0  0  0  0  0  0  0  0  0  0
   60.3450   27.6610   47.3440 C   0  0  0  0  0  0  0  0  0  0  0  0
   60.3440   27.0700   48.6080 C   0  0  0  0  0  0  0  0  0  0  0  0
   60.4060   27.8680   49.7520 C   0  0  0  0  0  0  0  0  0  0  0  0
   60.4740   29.2580   49.6350 C   0  0  0  0  0  0  0  0  0  0  0  0
   60.4820   29.8680   48.3660 C   0  0  0  0  0  0  0  0  0  0  0  0
   60.5750   31.2950   48.2170 N   0  0  0  0  0  0  0  0  0  0  0  0
   59.2590   32.4200   48.3300 S   0  0  0  0  0  0  0  0  0  0  0  0
   59.7850   33.7310   48.8460 O   0  0  0  0  0  0  0  0  0  0  0  0
   58.2290   31.9110   49.3010 O   0  0  0  0  0  0  0  0  0  0  0  0
   58.5580   32.6810   46.7370 C   0  0  0  0  0  0  0  0  0  0  0  0
   58.5700   33.9520   46.1440 C   0  0  0  0  0  0  0  0  0  0  0  0
   57.9900   34.1420   44.8870 C   0  0  0  0  0  0  0  0  0  0  0  0
   57.4140   33.0630   44.2100 C   0  0  0  0  0  0  0  0  0  0  0  0
   57.4250   31.7830   44.7770 C   0  0  0  0  0  0  0  0  0  0  0  0
   56.8330   30.6980   44.0510 N   0  0  0  0  0  0  0  0  0  0  0  0
   56.0460   29.6410   44.6130 C   0  0  0  0  0  0  0  0  0  0  0  0
   54.8730   29.4400   44.1970 O   0  0  0  0  0  0  0  0  0  0  0  0
   56.5790   28.7570   45.6110 N   0  0  0  0  0  0  0  0  0  0  0  0
   56.7060   27.4580   45.6090 C   0  0  0  0  0  0  0  0  0  0  0  0
   57.9100   26.7920   45.2810 C   0  0  0  0  0  0  0  0  0  0  0  0
   57.9540   25.3940   45.3140 C   0  0  0  0  0  0  0  0  0  0  0  0
   56.8190   24.6690   45.6840 C   0  0  0  0  0  0  0  0  0  0  0  0
   56.8680   22.7600   45.7400 Br  0  0  0  0  0  0  0  0  0  0  0  0
   55.6540   25.3550   46.0240 C   0  0  0  0  0  0  0  0  0  0  0  0
   55.6280   26.7140   45.9810 N   0  0  0  0  0  0  0  0  0  0  0  0
   57.9760   31.6030   46.0580 C   0  0  0  0  0  0  0  0  0  0  0  0
   60.3521   30.7772   45.9371 H   0  0  0  0  0  0  0  0  0  0  0  0
   61.2974   29.3925   45.2924 H   0  0  0  0  0  0  0  0  0  0  0  0
   59.5021   29.3319   45.2924 H   0  0  0  0  0  0  0  0  0  0  0  0
   60.2946   27.0283   46.4456 H   0  0  0  0  0  0  0  0  0  0  0  0
   60.2944   25.9752   48.7032 H   0  0  0  0  0  0  0  0  0  0  0  0
   60.4013   27.4008   50.7478 H   0  0  0  0  0  0  0  0  0  0  0  0
   60.5216   29.8806   50.5406 H   0  0  0  0  0  0  0  0  0  0  0  0
   59.0360   34.7992   46.6685 H   0  0  0  0  0  0  0  0  0  0  0  0
   57.9866   35.1423   44.4294 H   0  0  0  0  0  0  0  0  0  0  0  0
   56.9492   33.2207   43.2256 H   0  0  0  0  0  0  0  0  0  0  0  0
   58.8044   27.3685   45.0023 H   0  0  0  0  0  0  0  0  0  0  0  0
   58.8819   24.8662   45.0487 H   0  0  0  0  0  0  0  0  0  0  0  0
   54.7558   24.7970   46.3271 H   0  0  0  0  0  0  0  0  0  0  0  0
   57.9498   30.6096   46.5297 H   0  0  0  0  0  0  0  0  0  0  0  0
  1  2  1  0
  2  3  2  0
  3  4  1  0
  4  5  2  0
  5  6  1  0
  6  7  2  0
  7  8  1  0
  8  9  1  0
  9 10  2  0
  9 11  2  0
  9 12  1  0
 12 13  2  0
 13 14  1  0
 14 15  2  0
 15 16  1  0
 16 17  1  0
 17 18  1  0
 18 19  2  0
 18 20  1  0
 20 21  2  3
 21 22  1  0
 22 23  2  0
 23 24  1  0
 24 25  1  0
 24 26  2  0
 26 27  1  0
 16 28  2  0
  7  2  1  0
 28 12  1  0
 27 21  1  0
  1 29  1  0
  1 30  1  0
  1 31  1  0
  3 32  1  0
  4 33  1  0
  5 34  1  0
  6 35  1  0
 13 36  1  0
 14 37  1  0
 15 38  1  0
 22 39  1  0
 23 40  1  0
 26 41  1  0
 28 42  1  0
M  CHG  3   8  -1  17  -1  27  -1
M  END
>  <UniqueID>  (55) 
51

>  <SMILES>  (55) 
Cc1ccccc1[N-]S(=O)(=O)c1cccc([N-]C(=O)N=c2ccc(Br)c[n-]2)c1

>  <Energy>  (55) 
60.60927168699096

>  <Genealogy>  (55) 
Cc1ccccc1[N-]S(=O)(=O)c1cccc([N-]C(=O)N=c2ccc(Br)c[n-]2)c1 (protonated)
Cc1ccccc1[N-]S(=O)(=O)c1cccc([N-]C(=O)N=c2ccc(Br)c[n-]2)c1 (3D coordinates assigned)
Cc1ccccc1[N-]S(=O)(=O)c1cccc([N-]C(=O)N=c2ccc(Br)c[n-]2)c1 (optimized conformer: 60.60927168699096 kcal/mol)

>  <smiles>  (55) 
Cc1ccccc1NS(=O)(=O)c1cccc(NC(=O)N=c2ccc(Br)c[nH]2)c1

>  <score_type>  (55) 
oracle

>  <origin>  (55) 
adg

>  <m_score__min__energy>  (55) 
-12.710000000000001

>  <m_primary>  (55) 
energy

$$$$
55:0
     RDKit          3D

 56 59  0  0  0  0  0  0  0  0999 V2000
   56.3660   29.3990   44.1050 C   0  0  0  0  0  0  0  0  0  0  0  0
   56.2150   28.5600   45.2450 O   0  0  0  0  0  0  0  0  0  0  0  0
   57.2810   28.0520   46.0080 C   0  0  0  0  0  0  0  0  0  0  0  0
   58.2570   28.8870   46.5850 C   0  0  0  0  0  0  0  0  0  0  0  0
   59.3300   28.3360   47.3010 C   0  0  0  0  0  0  0  0  0  0  0  0
   60.3640   29.1830   47.8530 N   0  0  0  0  0  0  0  0  0  0  0  0
   60.8280   30.1740   46.8580 C   0  0  0  0  0  0  0  0  0  0  0  0
   61.5740   31.3140   47.5340 C   0  0  0  0  0  0  0  0  0  0  0  0
   62.9240   31.4460   47.1460 C   0  0  0  0  0  0  0  0  0  0  0  0
   63.7460   32.4200   47.6930 C   0  0  0  0  0  0  0  0  0  0  0  0
   63.2520   33.2860   48.6550 C   0  0  0  0  0  0  0  0  0  0  0  0
   61.9240   33.1880   49.0870 C   0  0  0  0  0  0  0  0  0  0  0  0
   61.0330   32.2290   48.5170 C   0  0  0  0  0  0  0  0  0  0  0  0
   59.6550   32.1870   49.0220 N   0  0  0  0  0  0  0  0  0  0  0  0
   58.4890   31.8880   48.1810 C   0  0  0  0  0  0  0  0  0  0  0  0
   58.4700   32.6030   46.8230 C   0  0  0  0  0  0  0  0  0  0  0  0
   58.0280   31.8170   45.7360 C   0  0  0  0  0  0  0  0  0  0  0  0
   57.9230   32.3470   44.4530 C   0  0  0  0  0  0  0  0  0  0  0  0
   58.2530   33.6760   44.2170 C   0  0  0  0  0  0  0  0  0  0  0  0
   58.6910   34.4830   45.2660 C   0  0  0  0  0  0  0  0  0  0  0  0
   58.8010   33.9780   46.5770 C   0  0  0  0  0  0  0  0  0  0  0  0
   59.3650   34.9250   47.6140 C   0  0  0  0  0  0  0  0  0  0  0  0
   59.3710   32.8390   50.2830 C   0  0  0  0  0  0  0  0  0  0  0  0
   58.2460   32.7090   50.8420 O   0  0  0  0  0  0  0  0  0  0  0  0
   60.3580   33.6490   50.8990 N   0  0  0  0  0  0  0  0  0  0  0  0
   61.4440   34.1920   50.1050 C   0  0  0  0  0  0  0  0  0  0  0  0
   59.3900   26.9430   47.4500 C   0  0  0  0  0  0  0  0  0  0  0  0
   58.4290   26.1540   46.9010 N   0  0  0  0  0  0  0  0  0  0  0  0
   57.3800   26.6660   46.2030 C   0  0  0  0  0  0  0  0  0  0  0  0
   56.3730   25.7280   45.6090 C   0  0  0  0  0  0  0  0  0  0  0  0
   56.5520   30.4325   44.4324 H   0  0  0  0  0  0  0  0  0  0  0  0
   57.2153   29.0473   43.5008 H   0  0  0  0  0  0  0  0  0  0  0  0
   55.4474   29.3655   43.5008 H   0  0  0  0  0  0  0  0  0  0  0  0
   58.1775   29.9784   46.4735 H   0  0  0  0  0  0  0  0  0  0  0  0
   59.9790   29.6830   48.6900 H   0  0  0  0  0  0  0  0  0  0  0  0
   61.1670   28.6020   48.1850 H   0  0  0  0  0  0  0  0  0  0  0  0
   61.5002   29.6781   46.1424 H   0  0  0  0  0  0  0  0  0  0  0  0
   59.9509   30.5874   46.3385 H   0  0  0  0  0  0  0  0  0  0  0  0
   63.3348   30.7595   46.3910 H   0  0  0  0  0  0  0  0  0  0  0  0
   64.7917   32.5050   47.3625 H   0  0  0  0  0  0  0  0  0  0  0  0
   63.9090   34.0574   49.0831 H   0  0  0  0  0  0  0  0  0  0  0  0
   58.4701   30.8038   47.9964 H   0  0  0  0  0  0  0  0  0  0  0  0
   57.6097   32.2517   48.7329 H   0  0  0  0  0  0  0  0  0  0  0  0
   57.7610   30.7636   45.9068 H   0  0  0  0  0  0  0  0  0  0  0  0
   57.5779   31.7120   43.6238 H   0  0  0  0  0  0  0  0  0  0  0  0
   58.1686   34.0915   43.2020 H   0  0  0  0  0  0  0  0  0  0  0  0
   58.9553   35.5321   45.0669 H   0  0  0  0  0  0  0  0  0  0  0  0
   59.1380   34.5439   48.6206 H   0  0  0  0  0  0  0  0  0  0  0  0
   60.4551   35.0002   47.4876 H   0  0  0  0  0  0  0  0  0  0  0  0
   58.9118   35.9193   47.4876 H   0  0  0  0  0  0  0  0  0  0  0  0
   61.0917   35.0936   49.5825 H   0  0  0  0  0  0  0  0  0  0  0  0
   62.2801   34.4374   50.7763 H   0  0  0  0  0  0  0  0  0  0  0  0
   60.2177   26.4872   48.0132 H   0  0  0  0  0  0  0  0  0  0  0  0
   55.8259   25.2184   46.4159 H   0  0  0  0  0  0  0  0  0  0  0  0
   55.6649   26.2958   44.9876 H   0  0  0  0  0  0  0  0  0  0  0  0
   56.8892   24.9814   44.9876 H   0  0  0  0  0  0  0  0  0  0  0  0
  1  2  1  0
  2  3  1  0
  3  4  2  0
  4  5  1  0
  5  6  1  0
  6  7  1  0
  7  8  1  0
  8  9  2  0
  9 10  1  0
 10 11  2  0
 11 12  1  0
 12 13  2  0
 13 14  1  0
 14 15  1  0
 15 16  1  0
 16 17  2  0
 17 18  1  0
 18 19  2  0
 19 20  1  0
 20 21  2  0
 21 22  1  0
 14 23  1  0
 23 24  2  0
 23 25  1  0
 25 26  1  0
  5 27  2  0
 27 28  1  0
 28 29  2  0
 29 30  1  0
 29  3  1  0
 13  8  1  0
 21 16  1  0
 26 12  1  0
  1 31  1  0
  1 32  1  0
  1 33  1  0
  4 34  1  0
  6 35  1  0
  6 36  1  0
  7 37  1  0
  7 38  1  0
  9 39  1  0
 10 40  1  0
 11 41  1  0
 15 42  1  0
 15 43  1  0
 17 44  1  0
 18 45  1  0
 19 46  1  0
 20 47  1  0
 22 48  1  0
 22 49  1  0
 22 50  1  0
 26 51  1  0
 26 52  1  0
 27 53  1  0
 30 54  1  0
 30 55  1  0
 30 56  1  0
M  CHG  2   6   1  25  -1
M  END
>  <UniqueID>  (56) 
52

>  <SMILES>  (56) 
COc1cc([NH2+]Cc2cccc3c2N(Cc2ccccc2C)C(=O)[N-]C3)cnc1C

>  <Energy>  (56) 
82.88116732535593

>  <Genealogy>  (56) 
COc1cc([NH2+]Cc2cccc3c2N(Cc2ccccc2C)C(=O)[N-]C3)cnc1C (protonated)
COc1cc([NH2+]Cc2cccc3c2N(Cc2ccccc2C)C(=O)[N-]C3)cnc1C (3D coordinates assigned)
COc1cc([NH2+]Cc2cccc3c2N(Cc2ccccc2C)C(=O)[N-]C3)cnc1C (nonaromatic ring conformer: 82.88116732535593 kcal/mol)

>  <smiles>  (56) 
COc1cc(NCc2cccc3c2N(Cc2ccccc2C)C(=O)NC3)cnc1C

>  <score_type>  (56) 
oracle

>  <origin>  (56) 
adg

>  <m_score__min__energy>  (56) 
-8.3399999999999999

>  <m_primary>  (56) 
energy

$$$$
56:0
     RDKit          3D

 39 41  0  0  0  0  0  0  0  0999 V2000
   59.2080   29.8250   44.2315 H   0  0  0  0  0  0  0  0  0  0  0  0
   58.5660   30.1130   45.0770 C   0  0  0  0  0  0  0  0  0  0  0  0
   57.6130   29.2450   45.4730 C   0  0  0  0  0  0  0  0  0  0  0  0
   56.2720   29.3180   44.9350 C   0  0  0  0  0  0  0  0  0  0  0  0
   55.1990   29.3780   44.5030 N   0  0  0  0  0  0  0  0  0  0  0  0
   57.9260   28.1580   46.4280 C   0  0  0  0  0  0  0  0  0  0  0  0
   59.0660   28.0890   46.9630 O   0  0  0  0  0  0  0  0  0  0  0  0
   56.9380   27.1560   46.7080 N   0  0  0  0  0  0  0  0  0  0  0  0
   56.7450   25.9210   46.0000 C   0  0  0  0  0  0  0  0  0  0  0  0
   57.8200   25.0670   45.6890 C   0  0  0  0  0  0  0  0  0  0  0  0
   58.8443   25.3497   45.9735 H   0  0  0  0  0  0  0  0  0  0  0  0
   57.5910   23.8610   45.0200 C   0  0  0  0  0  0  0  0  0  0  0  0
   58.4362   23.2030   44.7696 H   0  0  0  0  0  0  0  0  0  0  0  0
   56.2910   23.4900   44.6690 C   0  0  0  0  0  0  0  0  0  0  0  0
   56.1138   22.5443   44.1359 H   0  0  0  0  0  0  0  0  0  0  0  0
   55.2160   24.3200   44.9950 C   0  0  0  0  0  0  0  0  0  0  0  0
   54.1918   24.0231   44.7251 H   0  0  0  0  0  0  0  0  0  0  0  0
   55.4390   25.5280   45.6640 C   0  0  0  0  0  0  0  0  0  0  0  0
   54.3590   26.3410   45.9900 O   0  0  0  0  0  0  0  0  0  0  0  0
   58.8010   31.4320   45.7120 C   0  0  0  0  0  0  0  0  0  0  0  0
   57.8460   32.4450   45.5830 C   0  0  0  0  0  0  0  0  0  0  0  0
   56.6640   32.2210   44.8860 O   0  0  0  0  0  0  0  0  0  0  0  0
   58.0630   33.6550   46.1510 N   0  0  0  0  0  0  0  0  0  0  0  0
   59.2000   33.9220   46.8410 C   0  0  0  0  0  0  0  0  0  0  0  0
   59.3410   35.0590   47.3700 O   0  0  0  0  0  0  0  0  0  0  0  0
   60.1730   32.9650   46.9660 N   0  0  0  0  0  0  0  0  0  0  0  0
   61.3850   33.2550   47.6940 C   0  0  0  0  0  0  0  0  0  0  0  0
   61.3370   33.5210   49.0730 C   0  0  0  0  0  0  0  0  0  0  0  0
   60.3717   33.5098   49.6004 H   0  0  0  0  0  0  0  0  0  0  0  0
   62.5130   33.8000   49.7770 C   0  0  0  0  0  0  0  0  0  0  0  0
   62.4713   34.0070   50.8565 H   0  0  0  0  0  0  0  0  0  0  0  0
   63.7410   33.8160   49.1100 C   0  0  0  0  0  0  0  0  0  0  0  0
   64.6646   34.0375   49.6648 H   0  0  0  0  0  0  0  0  0  0  0  0
   63.7970   33.5510   47.7390 C   0  0  0  0  0  0  0  0  0  0  0  0
   64.7649   33.5620   47.2165 H   0  0  0  0  0  0  0  0  0  0  0  0
   62.6250   33.2720   47.0310 C   0  0  0  0  0  0  0  0  0  0  0  0
   62.6725   33.0650   45.9517 H   0  0  0  0  0  0  0  0  0  0  0  0
   59.9950   31.7300   46.3950 C   0  0  0  0  0  0  0  0  0  0  0  0
   60.9140   30.8660   46.4530 O   0  0  0  0  0  0  0  0  0  0  0  0
  1  2  1  0
  2  3  2  0
  3  4  1  0
  4  5  3  0
  3  6  1  0
  6  7  2  0
  6  8  1  0
  8  9  1  0
  9 10  2  0
 10 11  1  0
 10 12  1  0
 12 13  1  0
 12 14  2  0
 14 15  1  0
 14 16  1  0
 16 17  1  0
 16 18  2  0
 18 19  1  0
  2 20  1  0
 20 21  2  0
 21 22  1  0
 21 23  1  0
 23 24  1  0
 24 25  2  0
 24 26  1  0
 26 27  1  0
 27 28  2  0
 28 29  1  0
 28 30  1  0
 30 31  1  0
 30 32  2  0
 32 33  1  0
 32 34  1  0
 34 35  1  0
 34 36  2  0
 36 37  1  0
 26 38  1  0
 38 39  2  0
 18  9  1  0
 38 20  1  0
 36 27  1  0
M  CHG  4   8  -1  19  -1  22  -1  23  -1
M  END
>  <UniqueID>  (57) 
53

>  <SMILES>  (57) 
N#C/C(=C\c1c([O-])[n-]c(=O)n(-c2ccccc2)c1=O)C(=O)[N-]c1ccccc1[O-]

>  <Energy>  (57) 
64.61827569907958

>  <Genealogy>  (57) 
N#CC(=Cc1c([O-])[n-]c(=O)n(-c2ccccc2)c1=O)C(=O)[N-]c1ccccc1[O-] (protonated)
N#C/C(=C\c1c([O-])[n-]c(=O)n(-c2ccccc2)c1=O)C(=O)[N-]c1ccccc1[O-] (cis-trans isomerization)
N#C/C(=C\c1c([O-])[n-]c(=O)n(-c2ccccc2)c1=O)C(=O)[N-]c1ccccc1[O-] (3D coordinates assigned)
N#C/C(=C\c1c([O-])[n-]c(=O)n(-c2ccccc2)c1=O)C(=O)[N-]c1ccccc1[O-] (optimized conformer: 64.61827569907958 kcal/mol)

>  <smiles>  (57) 
N#CC(=Cc1c(O)[nH]c(=O)n(-c2ccccc2)c1=O)C(=O)Nc1ccccc1O

>  <score_type>  (57) 
oracle

>  <origin>  (57) 
adg

>  <m_score__min__energy>  (57) 
-17.129999999999999

>  <m_primary>  (57) 
energy

$$$$
57:0
     RDKit          3D

 42 45  0  0  0  0  0  0  0  0999 V2000
   56.8660   24.9750   46.3240 H   0  0  0  0  0  0  0  0  0  0  0  0
   57.6730   25.5390   46.0800 O   0  0  0  0  0  0  0  0  0  0  0  0
   57.5390   26.8630   45.6700 C   0  0  0  0  0  0  0  0  0  0  0  0
   58.6650   27.6120   45.3030 C   0  0  0  0  0  0  0  0  0  0  0  0
   59.6644   27.1540   45.3409 H   0  0  0  0  0  0  0  0  0  0  0  0
   58.5220   28.9390   44.8890 C   0  0  0  0  0  0  0  0  0  0  0  0
   59.4113   29.5282   44.6208 H   0  0  0  0  0  0  0  0  0  0  0  0
   57.2450   29.5240   44.8140 C   0  0  0  0  0  0  0  0  0  0  0  0
   57.0780   30.9390   44.4160 C   0  0  0  0  0  0  0  0  0  0  0  0
   56.1897   31.1990   43.8216 H   0  0  0  0  0  0  0  0  0  0  0  0
   57.9350   31.9360   44.7280 C   0  0  0  0  0  0  0  0  0  0  0  0
   58.2950   32.9510   43.7160 C   0  0  0  0  0  0  0  0  0  0  0  0
   58.0020   32.7910   42.5000 O   0  0  0  0  0  0  0  0  0  0  0  0
   58.9610   34.1470   44.1170 N   0  0  0  0  0  0  0  0  0  0  0  0
   59.3050   34.3840   45.4830 C   0  0  0  0  0  0  0  0  0  0  0  0
   59.7900   35.5010   45.8060 O   0  0  0  0  0  0  0  0  0  0  0  0
   59.1080   33.3540   46.4720 N   0  0  0  0  0  0  0  0  0  0  0  0
   59.3300   33.6300   47.8980 C   0  0  0  0  0  0  0  0  0  0  0  0
   59.0011   34.6542   48.1277 H   0  0  0  0  0  0  0  0  0  0  0  0
   58.7543   32.9129   48.5017 H   0  0  0  0  0  0  0  0  0  0  0  0
   60.7890   33.4910   48.2190 C   0  0  0  0  0  0  0  0  0  0  0  0
   61.2500   33.9010   49.4320 N   0  0  0  0  0  0  0  0  0  0  0  0
   62.5500   33.7440   49.8000 C   0  0  0  0  0  0  0  0  0  0  0  0
   62.9840   34.1860   51.0540 C   0  0  0  0  0  0  0  0  0  0  0  0
   62.2741   34.6649   51.7445 H   0  0  0  0  0  0  0  0  0  0  0  0
   64.3210   34.0190   51.4300 C   0  0  0  0  0  0  0  0  0  0  0  0
   64.6612   34.3691   52.4158 H   0  0  0  0  0  0  0  0  0  0  0  0
   65.2270   33.4080   50.5560 C   0  0  0  0  0  0  0  0  0  0  0  0
   66.2771   33.2786   50.8570 H   0  0  0  0  0  0  0  0  0  0  0  0
   64.8010   32.9610   49.3000 C   0  0  0  0  0  0  0  0  0  0  0  0
   65.5150   32.4801   48.6152 H   0  0  0  0  0  0  0  0  0  0  0  0
   63.4630   33.1270   48.9160 C   0  0  0  0  0  0  0  0  0  0  0  0
   63.0040   32.6860   47.6680 C   0  0  0  0  0  0  0  0  0  0  0  0
   63.6974   32.1998   46.9660 H   0  0  0  0  0  0  0  0  0  0  0  0
   61.6640   32.8650   47.3170 C   0  0  0  0  0  0  0  0  0  0  0  0
   61.2966   32.5177   46.3401 H   0  0  0  0  0  0  0  0  0  0  0  0
   58.5620   32.0840   46.0670 C   0  0  0  0  0  0  0  0  0  0  0  0
   58.6700   31.0870   46.8310 O   0  0  0  0  0  0  0  0  0  0  0  0
   56.1240   28.7820   45.2110 C   0  0  0  0  0  0  0  0  0  0  0  0
   55.1268   29.2460   45.1956 H   0  0  0  0  0  0  0  0  0  0  0  0
   56.2680   27.4530   45.6270 C   0  0  0  0  0  0  0  0  0  0  0  0
   55.1470   26.7220   46.0000 O   0  0  0  0  0  0  0  0  0  0  0  0
  1  2  1  0
  2  3  1  0
  3  4  2  0
  4  5  1  0
  4  6  1  0
  6  7  1  0
  6  8  2  0
  8  9  1  0
  9 10  1  0
  9 11  2  0
 11 12  1  0
 12 13  2  0
 12 14  1  0
 14 15  1  0
 15 16  2  0
 15 17  1  0
 17 18  1  0
 18 19  1  0
 18 20  1  0
 18 21  1  0
 21 22  2  0
 22 23  1  0
 23 24  2  0
 24 25  1  0
 24 26  1  0
 26 27  1  0
 26 28  2  0
 28 29  1  0
 28 30  1  0
 30 31  1  0
 30 32  2  0
 32 33  1  0
 33 34  1  0
 33 35  2  0
 35 36  1  0
 17 37  1  0
 37 38  2  0
  8 39  1  0
 39 40  1  0
 39 41  2  0
 41 42  1  0
 41  3  1  0
 37 11  1  0
 35 21  1  0
 32 23  1  0
M  CHG  2  14  -1  42  -1
M  END
>  <UniqueID>  (58) 
54

>  <SMILES>  (58) 
O=C1[N-]C(=O)N(Cc2ccc3ccccc3n2)C(=O)/C1=C\c1ccc(O)c([O-])c1

>  <Energy>  (58) 
57.270171775904025

>  <Genealogy>  (58) 
O=C1[N-]C(=O)N(Cc2ccc3ccccc3n2)C(=O)C1=Cc1ccc(O)c([O-])c1 (protonated)
O=C1[N-]C(=O)N(Cc2ccc3ccccc3n2)C(=O)/C1=C\c1ccc(O)c([O-])c1 (cis-trans isomerization)
O=C1[N-]C(=O)N(Cc2ccc3ccccc3n2)C(=O)/C1=C\c1ccc(O)c([O-])c1 (3D coordinates assigned)
O=C1[N-]C(=O)N(Cc2ccc3ccccc3n2)C(=O)/C1=C\c1ccc(O)c([O-])c1 (nonaromatic ring conformer: 57.270171775904025 kcal/mol)

>  <smiles>  (58) 
O=C1NC(=O)N(Cc2ccc3ccccc3n2)C(=O)C1=Cc1ccc(O)c(O)c1

>  <score_type>  (58) 
oracle

>  <origin>  (58) 
adg

>  <m_score__min__energy>  (58) 
-14.140000000000001

>  <m_primary>  (58) 
energy

$$$$
58:0
     RDKit          3D

 65 68  0  0  1  0  0  0  0  0999 V2000
   57.2760   24.2250   47.8830 C   0  0  0  0  0  0  0  0  0  0  0  0
   56.5740   22.9750   48.3130 C   0  0  0  0  0  0  0  0  0  0  0  0
   57.2720   22.0720   48.8420 O   0  0  0  0  0  0  0  0  0  0  0  0
   55.1700   22.8440   48.1200 N   0  0  0  0  0  0  0  0  0  0  0  0
   54.4490   21.6590   48.5150 C   0  0  0  0  0  0  0  0  0  0  0  0
   54.3500   20.6960   47.3860 C   0  0  0  0  0  0  0  0  0  0  0  0
   55.5130   20.7540   46.4930 C   0  0  0  0  0  0  0  0  0  0  0  0
   56.6680   20.0130   46.4390 C   0  0  0  0  0  0  0  0  0  0  0  0
   57.4610   20.4430   45.4390 N   0  0  0  0  0  0  0  0  0  0  0  0
   56.7890   21.4580   44.8740 C   0  0  0  0  0  0  0  0  0  0  0  0
   57.2190   22.3150   43.7100 C   0  0  0  0  0  0  0  0  0  0  0  0
   56.0610   23.2550   43.3630 C   0  0  0  0  0  0  0  0  0  0  0  0
   56.1370   24.3730   44.2790 C   0  0  0  0  0  0  0  0  0  0  0  0
   55.3680   24.8490   45.2900 C   0  0  0  0  0  0  0  0  0  0  0  0
   55.6980   25.9250   45.9310 N   0  0  0  0  0  0  0  0  0  0  0  0
   56.8150   26.5840   45.5950 C   0  0  0  0  0  0  0  0  0  0  0  0
   57.3530   27.6490   46.0460 N   0  0  0  0  0  0  0  0  0  0  0  0
   57.2230   28.9120   45.3990 C   0  0  0  0  0  0  0  0  0  0  0  0
   56.1280   29.4750   45.1780 O   0  0  0  0  0  0  0  0  0  0  0  0
   58.4830   29.5760   44.9740 C   0  0  0  0  0  0  0  0  0  0  0  0
   58.3040   31.0630   44.9150 C   0  0  0  0  0  0  0  0  0  0  0  0
   57.9220   31.7210   43.7700 C   0  0  0  0  0  0  0  0  0  0  0  0
   57.7740   33.0830   43.8180 C   0  0  0  0  0  0  0  0  0  0  0  0
   58.0050   33.7690   44.9900 C   0  0  0  0  0  0  0  0  0  0  0  0
   58.3920   33.1510   46.1680 C   0  0  0  0  0  0  0  0  0  0  0  0
   58.6340   33.7230   47.3440 O   0  0  0  0  0  0  0  0  0  0  0  0
   59.5400   34.5930   47.8760 C   0  0  0  0  0  0  0  0  0  0  0  0
   60.9590   34.1990   47.8140 C   0  0  0  0  0  0  0  0  0  0  0  0
   61.6470   34.1560   49.0250 C   0  0  0  0  0  0  0  0  0  0  0  0
   62.9710   33.7790   49.0620 C   0  0  0  0  0  0  0  0  0  0  0  0
   63.6820   33.4290   47.9330 C   0  0  0  0  0  0  0  0  0  0  0  0
   62.9940   33.4720   46.7260 C   0  0  0  0  0  0  0  0  0  0  0  0
   61.6600   33.8530   46.6990 C   0  0  0  0  0  0  0  0  0  0  0  0
   58.5320   31.7580   46.0760 C   0  0  0  0  0  0  0  0  0  0  0  0
   57.5260   25.6030   44.2050 S   0  0  0  0  0  0  0  0  0  0  0  0
   55.6160   21.6620   45.4910 N   0  0  0  0  0  0  0  0  0  0  0  0
   57.5939   24.7910   48.7710 H   0  0  0  0  0  0  0  0  0  0  0  0
   58.1581   23.9615   47.2810 H   0  0  0  0  0  0  0  0  0  0  0  0
   56.5919   24.8411   47.2810 H   0  0  0  0  0  0  0  0  0  0  0  0
   54.7000   23.6770   47.6770 H   0  0  0  0  0  0  0  0  0  0  0  0
   54.9766   21.1790   49.3524 H   0  0  0  0  0  0  0  0  0  0  0  0
   53.4325   21.9510   48.8176 H   0  0  0  0  0  0  0  0  0  0  0  0
   54.2710   19.6785   47.7964 H   0  0  0  0  0  0  0  0  0  0  0  0
   53.4618   20.9645   46.7952 H   0  0  0  0  0  0  0  0  0  0  0  0
   56.9117   19.1830   47.1185 H   0  0  0  0  0  0  0  0  0  0  0  0
   58.3840   20.0440   45.1860 H   0  0  0  0  0  0  0  0  0  0  0  0
   58.1069   22.9024   43.9866 H   0  0  0  0  0  0  0  0  0  0  0  0
   57.4733   21.6854   42.8446 H   0  0  0  0  0  0  0  0  0  0  0  0
   56.1587   23.6085   42.3260 H   0  0  0  0  0  0  0  0  0  0  0  0
   55.0942   22.7380   43.4527 H   0  0  0  0  0  0  0  0  0  0  0  0
   54.4494   24.3126   45.5699 H   0  0  0  0  0  0  0  0  0  0  0  0
   55.1040   26.3260   46.7410 H   0  0  0  0  0  0  0  0  0  0  0  0
   59.2785   29.3363   45.6949 H   0  0  0  0  0  0  0  0  0  0  0  0
   58.7541   29.2122   43.9719 H   0  0  0  0  0  0  0  0  0  0  0  0
   57.7394   31.1675   42.8371 H   0  0  0  0  0  0  0  0  0  0  0  0
   57.4688   33.6317   42.9148 H   0  0  0  0  0  0  0  0  0  0  0  0
   57.8758   34.8614   44.9906 H   0  0  0  0  0  0  0  0  0  0  0  0
   59.4368   35.5486   47.3410 H   0  0  0  0  0  0  0  0  0  0  0  0
   59.3009   34.6355   48.9489 H   0  0  0  0  0  0  0  0  0  0  0  0
   61.1292   34.4249   49.9575 H   0  0  0  0  0  0  0  0  0  0  0  0
   63.4842   33.7560   50.0347 H   0  0  0  0  0  0  0  0  0  0  0  0
   64.7396   33.1310   47.9852 H   0  0  0  0  0  0  0  0  0  0  0  0
   63.5077   33.2037   45.7911 H   0  0  0  0  0  0  0  0  0  0  0  0
   61.1429   33.8767   45.7284 H   0  0  0  0  0  0  0  0  0  0  0  0
   58.8376   31.1992   46.9728 H   0  0  0  0  0  0  0  0  0  0  0  0
  1  2  1  0
  2  3  2  0
  2  4  1  0
  4  5  1  0
  5  6  1  0
  6  7  1  0
  7  8  2  0
  8  9  1  0
  9 10  1  0
 10 11  1  0
 11 12  1  0
 12 13  1  0
 13 14  2  0
 14 15  1  0
 15 16  1  0
 16 17  2  0
 17 18  1  0
 18 19  2  0
 18 20  1  0
 20 21  1  0
 21 22  2  0
 22 23  1  0
 23 24  2  0
 24 25  1  0
 25 26  1  0
 26 27  1  0
 27 28  1  0
 28 29  2  0
 29 30  1  0
 30 31  2  0
 31 32  1  0
 32 33  2  0
 25 34  2  0
 16 35  1  0
 10 36  2  0
 36  7  1  0
 35 13  1  0
 34 21  1  0
 33 28  1  0
  1 37  1  0
  1 38  1  0
  1 39  1  0
  4 40  1  0
  5 41  1  0
  5 42  1  0
  6 43  1  0
  6 44  1  0
  8 45  1  0
  9 46  1  0
 11 47  1  0
 11 48  1  0
 12 49  1  0
 12 50  1  0
 14 51  1  0
 15 52  1  0
 20 53  1  0
 20 54  1  0
 22 55  1  0
 23 56  1  0
 24 57  1  0
 27 58  1  0
 27 59  1  0
 29 60  1  0
 30 61  1  0
 31 62  1  0
 32 63  1  0
 33 64  1  0
 34 65  1  0
M  END
>  <smiles>  (59) 
CC(=O)NCCc1c[nH]c(CCc2c[nH]c(=NC(=O)Cc3cccc(OCc4ccccc4)c3)s2)n1

>  <score_type>  (59) 
oracle

>  <origin>  (59) 
adg

>  <m_score__min__energy>  (59) 
-9.7300000000000004

>  <m_primary>  (59) 
energy

$$$$
59:0
     RDKit          3D

 48 51  0  0  0  0  0  0  0  0999 V2000
   59.1370   34.9490   47.4730 O   0  0  0  0  0  0  0  0  0  0  0  0
   59.0380   34.1320   46.5150 C   0  0  0  0  0  0  0  0  0  0  0  0
   57.8450   34.1570   45.6090 C   0  0  0  0  0  0  0  0  0  0  0  0
   58.1270   33.1690   44.1130 S   0  0  0  0  0  0  0  0  0  0  0  0
   57.8990   31.4380   44.5530 C   0  0  0  0  0  0  0  0  0  0  0  0
   56.6290   30.9870   44.5450 N   0  0  0  0  0  0  0  0  0  0  0  0
   56.3590   29.7060   44.8610 C   0  0  0  0  0  0  0  0  0  0  0  0
   55.1550   29.3450   44.8370 O   0  0  0  0  0  0  0  0  0  0  0  0
   57.3880   28.8530   45.1920 C   0  0  0  0  0  0  0  0  0  0  0  0
   57.0670   27.5570   45.5070 C   0  0  0  0  0  0  0  0  0  0  0  0
   58.0760   26.6770   45.8420 C   0  0  0  0  0  0  0  0  0  0  0  0
   59.3600   27.1550   45.8440 C   0  0  0  0  0  0  0  0  0  0  0  0
   59.6850   28.4670   45.5250 C   0  0  0  0  0  0  0  0  0  0  0  0
   58.6750   29.3490   45.1880 C   0  0  0  0  0  0  0  0  0  0  0  0
   58.9140   30.6360   44.8690 N   0  0  0  0  0  0  0  0  0  0  0  0
   60.0260   33.1710   46.2570 N   0  0  0  0  0  0  0  0  0  0  0  0
   61.2180   33.0090   47.0190 C   0  0  0  0  0  0  0  0  0  0  0  0
   62.2970   33.8210   46.6990 C   0  0  0  0  0  0  0  0  0  0  0  0
   63.4920   33.7460   47.3710 C   0  0  0  0  0  0  0  0  0  0  0  0
   63.6060   32.8190   48.4040 C   0  0  0  0  0  0  0  0  0  0  0  0
   62.5300   31.9970   48.7370 C   0  0  0  0  0  0  0  0  0  0  0  0
   61.3210   32.0870   48.0420 C   0  0  0  0  0  0  0  0  0  0  0  0
   60.2160   31.2530   48.3730 N   0  0  0  0  0  0  0  0  0  0  0  0
   60.2770   29.8100   48.3800 C   0  0  0  0  0  0  0  0  0  0  0  0
   58.9600   29.3600   49.0230 C   0  0  0  0  0  0  0  0  0  0  0  0
   58.6760   30.0090   50.1950 O   0  0  0  0  0  0  0  0  0  0  0  0
   58.5990   31.3760   50.1100 C   0  0  0  0  0  0  0  0  0  0  0  0
   58.9260   31.8500   48.7320 C   0  0  0  0  0  0  0  0  0  0  0  0
   56.9775   33.7493   46.1486 H   0  0  0  0  0  0  0  0  0  0  0  0
   57.6628   35.1986   45.3061 H   0  0  0  0  0  0  0  0  0  0  0  0
   56.0189   27.2235   45.4928 H   0  0  0  0  0  0  0  0  0  0  0  0
   57.8573   25.6298   46.0981 H   0  0  0  0  0  0  0  0  0  0  0  0
   60.1740   26.4652   46.1116 H   0  0  0  0  0  0  0  0  0  0  0  0
   60.7332   28.8004   45.5403 H   0  0  0  0  0  0  0  0  0  0  0  0
   59.8850   31.0060   44.8680 H   0  0  0  0  0  0  0  0  0  0  0  0
   59.9120   32.4980   45.4470 H   0  0  0  0  0  0  0  0  0  0  0  0
   62.1915   34.5482   45.8805 H   0  0  0  0  0  0  0  0  0  0  0  0
   64.3349   34.3992   47.1012 H   0  0  0  0  0  0  0  0  0  0  0  0
   64.5509   32.7347   48.9608 H   0  0  0  0  0  0  0  0  0  0  0  0
   62.6340   31.2698   49.5557 H   0  0  0  0  0  0  0  0  0  0  0  0
   60.3589   29.4216   47.3541 H   0  0  0  0  0  0  0  0  0  0  0  0
   61.1537   29.4363   48.9293 H   0  0  0  0  0  0  0  0  0  0  0  0
   58.1423   29.5504   48.3123 H   0  0  0  0  0  0  0  0  0  0  0  0
   59.0642   28.2912   49.2613 H   0  0  0  0  0  0  0  0  0  0  0  0
   57.5778   31.6946   50.3663 H   0  0  0  0  0  0  0  0  0  0  0  0
   59.3277   31.8104   50.8102 H   0  0  0  0  0  0  0  0  0  0  0  0
   58.1485   31.5245   48.0252 H   0  0  0  0  0  0  0  0  0  0  0  0
   58.9754   32.9482   48.6940 H   0  0  0  0  0  0  0  0  0  0  0  0
  1  2  2  0
  2  3  1  0
  3  4  1  0
  4  5  1  0
  5  6  2  0
  6  7  1  0
  7  8  2  0
  7  9  1  0
  9 10  2  0
 10 11  1  0
 11 12  2  0
 12 13  1  0
 13 14  2  0
 14 15  1  0
  2 16  1  0
 16 17  1  0
 17 18  2  0
 18 19  1  0
 19 20  2  0
 20 21  1  0
 21 22  2  0
 22 23  1  0
 23 24  1  0
 24 25  1  0
 25 26  1  0
 26 27  1  0
 27 28  1  0
 15  5  1  0
 22 17  1  0
 28 23  1  0
 14  9  1  0
  3 29  1  0
  3 30  1  0
 10 31  1  0
 11 32  1  0
 12 33  1  0
 13 34  1  0
 15 35  1  0
 16 36  1  0
 18 37  1  0
 19 38  1  0
 20 39  1  0
 21 40  1  0
 24 41  1  0
 24 42  1  0
 25 43  1  0
 25 44  1  0
 27 45  1  0
 27 46  1  0
 28 47  1  0
 28 48  1  0
M  END
>  <smiles>  (60) 
O=C(CSc1nc(=O)c2ccccc2[nH]1)Nc1ccccc1N1CCOCC1

>  <score_type>  (60) 
oracle

>  <origin>  (60) 
adg

>  <m_score__min__energy>  (60) 
-8.9700000000000006

>  <m_primary>  (60) 
energy

$$$$
60:0
     RDKit          3D

 58 62  0  0  0  0  0  0  0  0999 V2000
   63.4260   33.7320   47.4160 O   0  0  0  0  0  0  0  0  0  0  0  0
   62.6540   33.0190   48.1110 C   0  0  0  0  0  0  0  0  0  0  0  0
   62.8640   31.5260   48.1750 C   0  0  0  0  0  0  0  0  0  0  0  0
   61.6340   30.8270   48.6100 N   0  0  0  0  0  0  0  0  0  0  0  0
   61.2820   30.8210   49.9380 C   0  0  0  0  0  0  0  0  0  0  0  0
   62.0240   31.4010   50.7800 O   0  0  0  0  0  0  0  0  0  0  0  0
   60.1330   30.1930   50.3600 N   0  0  0  0  0  0  0  0  0  0  0  0
   59.7570   30.1910   51.7920 C   0  0  0  0  0  0  0  0  0  0  0  0
   58.2610   30.3270   51.9570 C   0  0  0  0  0  0  0  0  0  0  0  0
   57.6000   31.4660   51.4720 C   0  0  0  0  0  0  0  0  0  0  0  0
   56.2180   31.6050   51.6260 C   0  0  0  0  0  0  0  0  0  0  0  0
   55.4670   30.6120   52.2760 C   0  0  0  0  0  0  0  0  0  0  0  0
   53.9980   30.7720   52.4180 C   0  0  0  0  0  0  0  0  0  0  0  0
   53.2800   30.1340   53.4430 C   0  0  0  0  0  0  0  0  0  0  0  0
   51.9020   30.3330   53.5210 C   0  0  0  0  0  0  0  0  0  0  0  0
   51.2780   31.1350   52.6200 N   0  0  0  0  0  0  0  0  0  0  0  0
   51.9810   31.7530   51.6360 C   0  0  0  0  0  0  0  0  0  0  0  0
   51.3880   32.4950   50.8100 O   0  0  0  0  0  0  0  0  0  0  0  0
   53.3240   31.5730   51.5440 N   0  0  0  0  0  0  0  0  0  0  0  0
   56.1300   29.4660   52.7540 C   0  0  0  0  0  0  0  0  0  0  0  0
   57.5120   29.3240   52.5980 C   0  0  0  0  0  0  0  0  0  0  0  0
   58.1140   28.2000   53.0610 F   0  0  0  0  0  0  0  0  0  0  0  0
   59.3230   29.5630   49.4520 C   0  0  0  0  0  0  0  0  0  0  0  0
   58.2790   28.9630   49.8380 O   0  0  0  0  0  0  0  0  0  0  0  0
   59.6440   29.5790   48.0900 C   0  0  0  0  0  0  0  0  0  0  0  0
   58.8280   28.9700   47.1190 C   0  0  0  0  0  0  0  0  0  0  0  0
   59.1860   29.0250   45.7710 C   0  0  0  0  0  0  0  0  0  0  0  0
   58.3760   28.4200   44.8120 O   0  0  0  0  0  0  0  0  0  0  0  0
   60.3580   29.6910   45.4040 C   0  0  0  0  0  0  0  0  0  0  0  0
   61.1350   30.2720   46.3550 N   0  0  0  0  0  0  0  0  0  0  0  0
   60.8200   30.2340   47.6820 C   0  0  0  0  0  0  0  0  0  0  0  0
   61.5810   33.6540   48.8150 N   0  0  0  0  0  0  0  0  0  0  0  0
   60.6520   34.6250   48.2400 C   0  0  0  0  0  0  0  0  0  0  0  0
   59.6970   33.9520   47.2900 C   0  0  0  0  0  0  0  0  0  0  0  0
   58.7830   32.9960   47.7660 C   0  0  0  0  0  0  0  0  0  0  0  0
   57.8910   32.3730   46.8870 C   0  0  0  0  0  0  0  0  0  0  0  0
   57.9000   32.7040   45.5290 C   0  0  0  0  0  0  0  0  0  0  0  0
   57.0340   32.0990   44.6790 F   0  0  0  0  0  0  0  0  0  0  0  0
   58.7980   33.6620   45.0490 C   0  0  0  0  0  0  0  0  0  0  0  0
   59.6910   34.2880   45.9250 C   0  0  0  0  0  0  0  0  0  0  0  0
   63.1493   31.1614   47.1772 H   0  0  0  0  0  0  0  0  0  0  0  0
   63.6581   31.3186   48.9074 H   0  0  0  0  0  0  0  0  0  0  0  0
   60.0853   29.2459   52.2492 H   0  0  0  0  0  0  0  0  0  0  0  0
   60.2440   31.0456   52.2844 H   0  0  0  0  0  0  0  0  0  0  0  0
   58.1746   32.2561   50.9663 H   0  0  0  0  0  0  0  0  0  0  0  0
   55.7136   32.5007   51.2344 H   0  0  0  0  0  0  0  0  0  0  0  0
   53.7951   29.4895   54.1705 H   0  0  0  0  0  0  0  0  0  0  0  0
   51.3197   29.8398   54.3133 H   0  0  0  0  0  0  0  0  0  0  0  0
   55.5547   28.6739   53.2555 H   0  0  0  0  0  0  0  0  0  0  0  0
   57.9073   28.4502   47.4224 H   0  0  0  0  0  0  0  0  0  0  0  0
   58.5100   28.5920   43.8220 H   0  0  0  0  0  0  0  0  0  0  0  0
   60.6516   29.7449   44.3453 H   0  0  0  0  0  0  0  0  0  0  0  0
   60.0798   35.1006   49.0502 H   0  0  0  0  0  0  0  0  0  0  0  0
   61.2287   35.3797   47.6852 H   0  0  0  0  0  0  0  0  0  0  0  0
   58.7692   32.7366   48.8349 H   0  0  0  0  0  0  0  0  0  0  0  0
   57.1817   31.6219   47.2648 H   0  0  0  0  0  0  0  0  0  0  0  0
   58.8023   33.9239   43.9806 H   0  0  0  0  0  0  0  0  0  0  0  0
   60.3912   35.0461   45.5443 H   0  0  0  0  0  0  0  0  0  0  0  0
  1  2  2  0
  2  3  1  0
  3  4  1  0
  4  5  1  0
  5  6  2  0
  5  7  1  0
  7  8  1  0
  8  9  1  0
  9 10  2  0
 10 11  1  0
 11 12  2  0
 12 13  1  0
 13 14  1  0
 14 15  2  0
 15 16  1  0
 16 17  1  0
 17 18  2  0
 17 19  1  0
 12 20  1  0
 20 21  2  0
 21 22  1  0
  7 23  1  0
 23 24  2  0
 23 25  1  0
 25 26  2  0
 26 27  1  0
 27 28  1  0
 27 29  2  0
 29 30  1  0
 30 31  2  0
  2 32  1  0
 32 33  1  0
 33 34  1  0
 34 35  2  0
 35 36  1  0
 36 37  2  0
 37 38  1  0
 37 39  1  0
 39 40  2  0
 31  4  1  0
 40 34  1  0
 21  9  1  0
 31 25  1  0
 19 13  2  0
  3 41  1  0
  3 42  1  0
  8 43  1  0
  8 44  1  0
 10 45  1  0
 11 46  1  0
 14 47  1  0
 15 48  1  0
 20 49  1  0
 26 50  1  0
 28 51  1  0
 29 52  1  0
 33 53  1  0
 33 54  1  0
 35 55  1  0
 36 56  1  0
 39 57  1  0
 40 58  1  0
M  CHG  2  16  -1  32  -1
M  END
>  <UniqueID>  (61) 
55

>  <SMILES>  (61) 
O=C(Cn1c(=O)n(Cc2ccc(-c3cc[n-]c(=O)n3)cc2F)c(=O)c2cc(O)cnc21)[N-]Cc1ccc(F)cc1

>  <Energy>  (61) 
80.3084437091008

>  <Genealogy>  (61) 
O=C(Cn1c(=O)n(Cc2ccc(-c3cc[n-]c(=O)n3)cc2F)c(=O)c2cc(O)cnc21)[N-]Cc1ccc(F)cc1 (protonated)
O=C(Cn1c(=O)n(Cc2ccc(-c3cc[n-]c(=O)n3)cc2F)c(=O)c2cc(O)cnc21)[N-]Cc1ccc(F)cc1 (3D coordinates assigned)
O=C(Cn1c(=O)n(Cc2ccc(-c3cc[n-]c(=O)n3)cc2F)c(=O)c2cc(O)cnc21)[N-]Cc1ccc(F)cc1 (optimized conformer: 80.3084437091008 kcal/mol)

>  <smiles>  (61) 
O=C(Cn1c(=O)n(Cc2ccc(-c3cc[nH]c(=O)n3)cc2F)c(=O)c2cc(O)cnc21)NCc1ccc(F)cc1

>  <score_type>  (61) 
oracle

>  <origin>  (61) 
adg

>  <m_score__min__energy>  (61) 
-11.44

>  <m_primary>  (61) 
energy

$$$$
61:0
     RDKit          3D

 37 39  0  0  0  0  0  0  0  0999 V2000
   52.0950   22.9850   44.8680 O   0  0  0  0  0  0  0  0  0  0  0  0
   53.2400   23.3280   45.2580 C   0  0  0  0  0  0  0  0  0  0  0  0
   54.1820   22.3850   45.5060 N   0  0  0  0  0  0  0  0  0  0  0  0
   55.4260   22.7310   45.9280 C   0  0  0  0  0  0  0  0  0  0  0  0
   55.7590   24.0840   46.1110 C   0  0  0  0  0  0  0  0  0  0  0  0
   57.0680   24.4960   46.5550 N   0  0  0  0  0  0  0  0  0  0  0  0
   58.3320   25.0140   45.4840 S   0  0  0  0  0  0  0  0  0  0  0  0
   58.1280   24.3770   44.1370 O   0  0  0  0  0  0  0  0  0  0  0  0
   59.6590   24.5750   46.0360 O   0  0  0  0  0  0  0  0  0  0  0  0
   58.3280   26.7700   45.3510 C   0  0  0  0  0  0  0  0  0  0  0  0
   57.7880   27.3960   44.2210 C   0  0  0  0  0  0  0  0  0  0  0  0
   57.7760   28.7900   44.1260 C   0  0  0  0  0  0  0  0  0  0  0  0
   58.3070   29.5800   45.1610 C   0  0  0  0  0  0  0  0  0  0  0  0
   58.2920   31.0620   45.0640 C   0  0  0  0  0  0  0  0  0  0  0  0
   57.8940   31.6940   43.8730 C   0  0  0  0  0  0  0  0  0  0  0  0
   57.8830   33.0870   43.7810 C   0  0  0  0  0  0  0  0  0  0  0  0
   58.2650   33.8670   44.8740 C   0  0  0  0  0  0  0  0  0  0  0  0
   58.6650   33.2590   46.0770 C   0  0  0  0  0  0  0  0  0  0  0  0
   59.0560   34.0610   47.2080 N   0  0  0  0  0  0  0  0  0  0  0  0
   58.9240   33.6290   48.3710 O   0  0  0  0  0  0  0  0  0  0  0  0
   59.5820   35.3200   47.0240 O   0  0  0  0  0  0  0  0  0  0  0  0
   58.6750   31.8560   46.1620 C   0  0  0  0  0  0  0  0  0  0  0  0
   58.8520   28.9440   46.2920 C   0  0  0  0  0  0  0  0  0  0  0  0
   58.8630   27.5490   46.3830 C   0  0  0  0  0  0  0  0  0  0  0  0
   54.7600   25.0400   45.8510 C   0  0  0  0  0  0  0  0  0  0  0  0
   54.9940   26.2680   45.9990 O   0  0  0  0  0  0  0  0  0  0  0  0
   53.5320   24.6420   45.4320 N   0  0  0  0  0  0  0  0  0  0  0  0
   56.1747   21.9501   46.1270 H   0  0  0  0  0  0  0  0  0  0  0  0
   57.2690   24.5550   47.5770 H   0  0  0  0  0  0  0  0  0  0  0  0
   57.3714   26.7878   43.4046 H   0  0  0  0  0  0  0  0  0  0  0  0
   57.3481   29.2729   43.2351 H   0  0  0  0  0  0  0  0  0  0  0  0
   57.5892   31.0869   43.0078 H   0  0  0  0  0  0  0  0  0  0  0  0
   57.5722   33.5718   42.8438 H   0  0  0  0  0  0  0  0  0  0  0  0
   58.2530   34.9640   44.7935 H   0  0  0  0  0  0  0  0  0  0  0  0
   58.9863   31.3716   47.0992 H   0  0  0  0  0  0  0  0  0  0  0  0
   59.2720   29.5483   47.1095 H   0  0  0  0  0  0  0  0  0  0  0  0
   59.2942   27.0615   47.2698 H   0  0  0  0  0  0  0  0  0  0  0  0
  1  2  2  0
  2  3  1  0
  3  4  1  0
  4  5  2  0
  5  6  1  0
  6  7  1  0
  7  8  2  0
  7  9  2  0
  7 10  1  0
 10 11  2  0
 11 12  1  0
 12 13  2  0
 13 14  1  0
 14 15  2  0
 15 16  1  0
 16 17  2  0
 17 18  1  0
 18 19  1  0
 19 20  2  0
 19 21  1  0
 18 22  2  0
 13 23  1  0
 23 24  2  0
  5 25  1  0
 25 26  2  0
 25 27  1  0
 27  2  1  0
 24 10  1  0
 22 14  1  0
  4 28  1  0
  6 29  1  0
 11 30  1  0
 12 31  1  0
 15 32  1  0
 16 33  1  0
 17 34  1  0
 22 35  1  0
 23 36  1  0
 24 37  1  0
M  CHG  4   3  -1  19   1  21  -1  27  -1
M  END
>  <UniqueID>  (62) 
56

>  <SMILES>  (62) 
O=c1[n-]cc(NS(=O)(=O)c2ccc(-c3cccc([N+](=O)[O-])c3)cc2)c(=O)[n-]1

>  <Energy>  (62) 
51.35124877639927

>  <Genealogy>  (62) 
O=c1[n-]cc(NS(=O)(=O)c2ccc(-c3cccc([N+](=O)[O-])c3)cc2)c(=O)[n-]1 (protonated)
O=c1[n-]cc(NS(=O)(=O)c2ccc(-c3cccc([N+](=O)[O-])c3)cc2)c(=O)[n-]1 (3D coordinates assigned)
O=c1[n-]cc(NS(=O)(=O)c2ccc(-c3cccc([N+](=O)[O-])c3)cc2)c(=O)[n-]1 (optimized conformer: 51.35124877639927 kcal/mol)

>  <smiles>  (62) 
O=c1[nH]cc(NS(=O)(=O)c2ccc(-c3cccc([N+](=O)[O-])c3)cc2)c(=O)[nH]1

>  <score_type>  (62) 
oracle

>  <origin>  (62) 
adg

>  <m_score__min__energy>  (62) 
-12.17

>  <m_primary>  (62) 
energy

$$$$
62:0
     RDKit          3D

 45 47  0  0  0  0  0  0  0  0999 V2000
   59.6340   34.0870   48.5600 C   0  0  0  0  0  0  0  0  0  0  0  0
   59.0670   34.0110   47.1740 C   0  0  0  0  0  0  0  0  0  0  0  0
   59.5190   34.8840   46.1760 C   0  0  0  0  0  0  0  0  0  0  0  0
   59.0030   34.7760   44.8850 C   0  0  0  0  0  0  0  0  0  0  0  0
   58.0880   33.8140   44.5960 N   0  0  0  0  0  0  0  0  0  0  0  0
   57.6450   32.9310   45.5350 C   0  0  0  0  0  0  0  0  0  0  0  0
   56.7590   32.0220   45.2450 N   0  0  0  0  0  0  0  0  0  0  0  0
   56.9160   30.9400   44.3110 C   0  0  0  0  0  0  0  0  0  0  0  0
   56.3710   31.0310   43.1790 O   0  0  0  0  0  0  0  0  0  0  0  0
   57.6730   29.7140   44.6440 C   0  0  0  0  0  0  0  0  0  0  0  0
   59.0690   29.7290   44.5130 C   0  0  0  0  0  0  0  0  0  0  0  0
   59.8250   28.6180   44.8850 C   0  0  0  0  0  0  0  0  0  0  0  0
   59.1980   27.4790   45.3880 C   0  0  0  0  0  0  0  0  0  0  0  0
   57.8020   27.4340   45.5080 C   0  0  0  0  0  0  0  0  0  0  0  0
   57.0200   25.9750   46.1310 S   0  0  0  0  0  0  0  0  0  0  0  0
   57.4100   24.8150   45.2570 O   0  0  0  0  0  0  0  0  0  0  0  0
   57.4890   25.6940   47.5310 O   0  0  0  0  0  0  0  0  0  0  0  0
   55.2820   26.1170   46.1370 N   0  0  0  0  0  0  0  0  0  0  0  0
   54.6350   24.9280   45.5790 C   0  0  0  0  0  0  0  0  0  0  0  0
   55.1480   23.6650   46.2180 C   0  0  0  0  0  0  0  0  0  0  0  0
   55.4670   22.5480   45.4280 C   0  0  0  0  0  0  0  0  0  0  0  0
   55.9280   21.3720   46.0280 C   0  0  0  0  0  0  0  0  0  0  0  0
   56.0760   21.3050   47.4160 C   0  0  0  0  0  0  0  0  0  0  0  0
   55.7640   22.4140   48.2060 C   0  0  0  0  0  0  0  0  0  0  0  0
   55.3020   23.5920   47.6110 C   0  0  0  0  0  0  0  0  0  0  0  0
   57.0300   28.5450   45.1150 C   0  0  0  0  0  0  0  0  0  0  0  0
   55.6370   28.4570   45.1880 O   0  0  0  0  0  0  0  0  0  0  0  0
   58.1290   33.0210   46.8460 C   0  0  0  0  0  0  0  0  0  0  0  0
   58.8225   33.9782   49.2946 H   0  0  0  0  0  0  0  0  0  0  0  0
   60.3670   33.2791   48.7011 H   0  0  0  0  0  0  0  0  0  0  0  0
   60.1284   35.0594   48.7011 H   0  0  0  0  0  0  0  0  0  0  0  0
   60.2748   35.6485   46.4088 H   0  0  0  0  0  0  0  0  0  0  0  0
   59.3370   35.4703   44.0999 H   0  0  0  0  0  0  0  0  0  0  0  0
   59.5709   30.6229   44.1142 H   0  0  0  0  0  0  0  0  0  0  0  0
   60.9199   28.6403   44.7812 H   0  0  0  0  0  0  0  0  0  0  0  0
   59.8017   26.6112   45.6923 H   0  0  0  0  0  0  0  0  0  0  0  0
   53.5506   24.9989   45.7492 H   0  0  0  0  0  0  0  0  0  0  0  0
   54.8626   24.8858   44.5036 H   0  0  0  0  0  0  0  0  0  0  0  0
   55.3539   22.5986   44.3350 H   0  0  0  0  0  0  0  0  0  0  0  0
   56.1745   20.4985   45.4066 H   0  0  0  0  0  0  0  0  0  0  0  0
   56.4382   20.3790   47.8864 H   0  0  0  0  0  0  0  0  0  0  0  0
   55.8820   22.3605   49.2983 H   0  0  0  0  0  0  0  0  0  0  0  0
   55.0587   24.4636   48.2363 H   0  0  0  0  0  0  0  0  0  0  0  0
   55.1440   27.5870   45.3400 H   0  0  0  0  0  0  0  0  0  0  0  0
   57.7752   32.3186   47.6150 H   0  0  0  0  0  0  0  0  0  0  0  0
  1  2  1  0
  2  3  1  0
  3  4  2  0
  4  5  1  0
  5  6  1  0
  6  7  2  3
  7  8  1  0
  8  9  2  0
  8 10  1  0
 10 11  2  0
 11 12  1  0
 12 13  2  0
 13 14  1  0
 14 15  1  0
 15 16  2  0
 15 17  2  0
 15 18  1  0
 18 19  1  0
 19 20  1  0
 20 21  2  0
 21 22  1  0
 22 23  2  0
 23 24  1  0
 24 25  2  0
 14 26  2  0
 26 27  1  0
  6 28  1  0
 28  2  2  0
 26 10  1  0
 25 20  1  0
  1 29  1  0
  1 30  1  0
  1 31  1  0
  3 32  1  0
  4 33  1  0
 11 34  1  0
 12 35  1  0
 13 36  1  0
 19 37  1  0
 19 38  1  0
 21 39  1  0
 22 40  1  0
 23 41  1  0
 24 42  1  0
 25 43  1  0
 27 44  1  0
 28 45  1  0
M  CHG  2   5  -1  18  -1
M  END
>  <UniqueID>  (63) 
57

>  <SMILES>  (63) 
Cc1cc[n-]c(=NC(=O)c2cccc(S(=O)(=O)[N-]Cc3ccccc3)c2O)c1

>  <Energy>  (63) 
55.14951538444903

>  <Genealogy>  (63) 
Cc1cc[n-]c(=NC(=O)c2cccc(S(=O)(=O)[N-]Cc3ccccc3)c2O)c1 (protonated)
Cc1cc[n-]c(=NC(=O)c2cccc(S(=O)(=O)[N-]Cc3ccccc3)c2O)c1 (3D coordinates assigned)
Cc1cc[n-]c(=NC(=O)c2cccc(S(=O)(=O)[N-]Cc3ccccc3)c2O)c1 (optimized conformer: 55.14951538444903 kcal/mol)

>  <smiles>  (63) 
Cc1cc[nH]c(=NC(=O)c2cccc(S(=O)(=O)NCc3ccccc3)c2O)c1

>  <score_type>  (63) 
oracle

>  <origin>  (63) 
adg

>  <m_score__min__energy>  (63) 
-13.99

>  <m_primary>  (63) 
energy

$$$$
63:0
     RDKit          3D

 55 58  0  0  0  0  0  0  0  0999 V2000
   59.9292   26.9313   46.2547 H   0  0  0  0  0  0  0  0  0  0  0  0
   60.0650   27.9120   46.7340 C   0  0  0  0  0  0  0  0  0  0  0  0
   60.7110   28.9520   46.0420 C   0  0  0  0  0  0  0  0  0  0  0  0
   61.0741   28.7844   45.0173 H   0  0  0  0  0  0  0  0  0  0  0  0
   60.8950   30.2030   46.6520 C   0  0  0  0  0  0  0  0  0  0  0  0
   61.3926   31.0152   46.1018 H   0  0  0  0  0  0  0  0  0  0  0  0
   60.4430   30.4180   47.9670 C   0  0  0  0  0  0  0  0  0  0  0  0
   60.6120   31.6730   48.6300 N   0  0  0  0  0  0  0  0  0  0  0  0
   59.5130   33.0040   48.4900 S   0  0  0  0  0  0  0  0  0  0  0  0
   60.2710   34.2920   48.6170 O   0  0  0  0  0  0  0  0  0  0  0  0
   58.5140   32.9230   49.6150 O   0  0  0  0  0  0  0  0  0  0  0  0
   58.6820   32.9650   46.9360 C   0  0  0  0  0  0  0  0  0  0  0  0
   58.5530   34.1390   46.1780 C   0  0  0  0  0  0  0  0  0  0  0  0
   58.9576   35.0866   46.5633 H   0  0  0  0  0  0  0  0  0  0  0  0
   57.9140   34.1100   44.9380 C   0  0  0  0  0  0  0  0  0  0  0  0
   57.8138   35.0350   44.3513 H   0  0  0  0  0  0  0  0  0  0  0  0
   57.4010   32.9100   44.4390 C   0  0  0  0  0  0  0  0  0  0  0  0
   56.9066   32.8937   43.4565 H   0  0  0  0  0  0  0  0  0  0  0  0
   57.5130   31.7190   45.1870 C   0  0  0  0  0  0  0  0  0  0  0  0
   56.9790   30.4430   44.6480 C   0  0  0  0  0  0  0  0  0  0  0  0
   55.7700   30.1450   44.8370 O   0  0  0  0  0  0  0  0  0  0  0  0
   57.8130   29.5650   43.8750 N   0  0  0  0  0  0  0  0  0  0  0  0
   58.5400   30.0000   43.2630 H   0  0  0  0  0  0  0  0  0  0  0  0
   57.6750   28.1330   43.8500 C   0  0  0  0  0  0  0  0  0  0  0  0
   57.8650   27.4500   42.6340 C   0  0  0  0  0  0  0  0  0  0  0  0
   58.0847   28.0162   41.7169 H   0  0  0  0  0  0  0  0  0  0  0  0
   57.7760   26.0570   42.5860 C   0  0  0  0  0  0  0  0  0  0  0  0
   57.9244   25.5298   41.6320 H   0  0  0  0  0  0  0  0  0  0  0  0
   57.4980   25.3300   43.7510 C   0  0  0  0  0  0  0  0  0  0  0  0
   57.4142   24.2341   43.7062 H   0  0  0  0  0  0  0  0  0  0  0  0
   57.3260   25.9950   44.9750 C   0  0  0  0  0  0  0  0  0  0  0  0
   56.9940   25.0730   46.4390 S   0  0  0  0  0  0  0  0  0  0  0  0
   55.5290   25.1480   46.7520 O   0  0  0  0  0  0  0  0  0  0  0  0
   57.7450   25.6610   47.5970 O   0  0  0  0  0  0  0  0  0  0  0  0
   57.5130   23.4290   46.2290 N   0  0  0  0  0  0  0  0  0  0  0  0
   57.3600   22.6890   45.1720 C   0  0  0  0  0  0  0  0  0  0  0  0
   58.3730   21.8380   44.7010 N   0  0  0  0  0  0  0  0  0  0  0  0
   59.2940   21.7010   45.1690 H   0  0  0  0  0  0  0  0  0  0  0  0
   57.9980   21.2350   43.4450 C   0  0  0  0  0  0  0  0  0  0  0  0
   58.0588   20.1388   43.5135 H   0  0  0  0  0  0  0  0  0  0  0  0
   58.6684   21.5474   42.6308 H   0  0  0  0  0  0  0  0  0  0  0  0
   56.5480   21.6750   43.1830 C   0  0  0  0  0  0  0  0  0  0  0  0
   55.8777   20.8034   43.2155 H   0  0  0  0  0  0  0  0  0  0  0  0
   56.4534   22.1388   42.1901 H   0  0  0  0  0  0  0  0  0  0  0  0
   56.1700   22.6720   44.2900 C   0  0  0  0  0  0  0  0  0  0  0  0
   55.2804   22.3294   44.8388 H   0  0  0  0  0  0  0  0  0  0  0  0
   55.9175   23.6680   43.8972 H   0  0  0  0  0  0  0  0  0  0  0  0
   57.4210   27.3930   45.0230 C   0  0  0  0  0  0  0  0  0  0  0  0
   57.2965   27.9162   45.9826 H   0  0  0  0  0  0  0  0  0  0  0  0
   58.1670   31.7580   46.4380 C   0  0  0  0  0  0  0  0  0  0  0  0
   58.2737   30.8351   47.0269 H   0  0  0  0  0  0  0  0  0  0  0  0
   59.7990   29.3740   48.6490 C   0  0  0  0  0  0  0  0  0  0  0  0
   59.3280   29.5720   49.9050 F   0  0  0  0  0  0  0  0  0  0  0  0
   59.5970   28.1280   48.0300 C   0  0  0  0  0  0  0  0  0  0  0  0
   59.0708   27.3249   48.5668 H   0  0  0  0  0  0  0  0  0  0  0  0
  1  2  1  0
  2  3  2  0
  3  4  1  0
  3  5  1  0
  5  6  1  0
  5  7  2  0
  7  8  1  0
  8  9  1  0
  9 10  2  0
  9 11  2  0
  9 12  1  0
 12 13  2  0
 13 14  1  0
 13 15  1  0
 15 16  1  0
 15 17  2  0
 17 18  1  0
 17 19  1  0
 19 20  1  0
 20 21  2  0
 20 22  1  0
 22 23  1  0
 22 24  1  0
 24 25  2  0
 25 26  1  0
 25 27  1  0
 27 28  1  0
 27 29  2  0
 29 30  1  0
 29 31  1  0
 31 32  1  0
 32 33  2  0
 32 34  2  0
 32 35  1  0
 35 36  2  0
 36 37  1  0
 37 38  1  0
 37 39  1  0
 39 40  1  0
 39 41  1  0
 39 42  1  0
 42 43  1  0
 42 44  1  0
 42 45  1  0
 45 46  1  0
 45 47  1  0
 31 48  2  0
 48 49  1  0
 19 50  2  0
 50 51  1  0
  7 52  1  0
 52 53  1  0
 52 54  2  0
 54 55  1  0
 54  2  1  0
 50 12  1  0
 48 24  1  0
 45 36  1  0
M  CHG  1   8  -1
M  END
>  <UniqueID>  (64) 
58

>  <SMILES>  (64) 
O=C(Nc1cccc(S(=O)(=O)/N=C2\CCCN2)c1)c1cccc(S(=O)(=O)[N-]c2ccccc2F)c1

>  <Energy>  (64) 
79.9885838291429

>  <Genealogy>  (64) 
O=C(Nc1cccc(S(=O)(=O)N=C2CCCN2)c1)c1cccc(S(=O)(=O)[N-]c2ccccc2F)c1 (protonated)
O=C(Nc1cccc(S(=O)(=O)/N=C2\CCCN2)c1)c1cccc(S(=O)(=O)[N-]c2ccccc2F)c1 (cis-trans isomerization)
O=C(Nc1cccc(S(=O)(=O)/N=C2\CCCN2)c1)c1cccc(S(=O)(=O)[N-]c2ccccc2F)c1 (3D coordinates assigned)
O=C(Nc1cccc(S(=O)(=O)/N=C2\CCCN2)c1)c1cccc(S(=O)(=O)[N-]c2ccccc2F)c1 (nonaromatic ring conformer: 79.9885838291429 kcal/mol)

>  <smiles>  (64) 
O=C(Nc1cccc(S(=O)(=O)N=C2CCCN2)c1)c1cccc(S(=O)(=O)Nc2ccccc2F)c1

>  <score_type>  (64) 
oracle

>  <origin>  (64) 
adg

>  <m_score__min__energy>  (64) 
-11.550000000000001

>  <m_primary>  (64) 
energy

$$$$
64:0
     RDKit          3D

 54 56  0  0  1  0  0  0  0  0999 V2000
   59.6480   35.6660   45.8730 C   0  0  0  0  0  0  0  0  0  0  0  0
   59.5090   34.3700   46.1090 C   0  0  0  0  0  0  0  0  0  0  0  0
   60.6400   33.4960   46.5230 C   0  0  0  0  0  0  0  0  0  0  0  0
   61.8480   34.1860   46.4190 O   0  0  0  0  0  0  0  0  0  0  0  0
   62.8150   33.4060   47.0880 C   0  0  0  0  0  0  0  0  0  0  0  0
   58.2300   33.7260   45.9750 N   0  0  0  0  0  0  0  0  0  0  0  0
   58.0590   32.8020   45.0640 C   0  0  0  0  0  0  0  0  0  0  0  0
   57.8830   31.4750   45.4010 C   0  0  0  0  0  0  0  0  0  0  0  0
   57.7050   30.5280   44.4140 C   0  0  0  0  0  0  0  0  0  0  0  0
   57.5170   29.1450   44.6740 N   0  0  0  0  0  0  0  0  0  0  0  0
   57.3550   28.5790   45.9900 C   0  0  0  0  0  0  0  0  0  0  0  0
   58.3600   27.4230   46.1020 C   0  0  0  0  0  0  0  0  0  0  0  0
   57.9230   26.4400   45.1310 N   0  0  0  0  0  0  0  0  0  0  0  0
   58.5660   25.1730   45.3560 C   0  0  0  0  0  0  0  0  0  0  0  0
   57.9190   24.0240   44.7220 C   0  0  0  0  0  0  0  0  0  0  0  0
   56.8030   24.0820   43.9190 C   0  0  0  0  0  0  0  0  0  0  0  0
   56.2710   22.9510   43.3650 C   0  0  0  0  0  0  0  0  0  0  0  0
   56.8290   21.7000   43.5880 C   0  0  0  0  0  0  0  0  0  0  0  0
   56.2830   20.5400   43.0210 O   0  0  0  0  0  0  0  0  0  0  0  0
   57.9560   21.6170   44.3970 C   0  0  0  0  0  0  0  0  0  0  0  0
   58.4740   22.7680   44.9420 C   0  0  0  0  0  0  0  0  0  0  0  0
   58.2230   26.9590   43.8140 C   0  0  0  0  0  0  0  0  0  0  0  0
   57.4830   28.2260   43.5510 C   0  0  0  0  0  0  0  0  0  0  0  0
   57.7180   30.9850   43.1420 N   0  0  0  0  0  0  0  0  0  0  0  0
   57.8920   32.2820   42.8340 C   0  0  0  0  0  0  0  0  0  0  0  0
   57.8800   32.6240   41.3750 C   0  0  0  0  0  0  0  0  0  0  0  0
   58.0670   33.2210   43.7850 N   0  0  0  0  0  0  0  0  0  0  0  0
   58.7777   36.2662   45.5692 H   0  0  0  0  0  0  0  0  0  0  0  0
   60.6338   36.1421   45.9808 H   0  0  0  0  0  0  0  0  0  0  0  0
   60.4913   33.1797   47.5660 H   0  0  0  0  0  0  0  0  0  0  0  0
   60.6724   32.6162   45.8636 H   0  0  0  0  0  0  0  0  0  0  0  0
   62.6836   33.5120   48.1750 H   0  0  0  0  0  0  0  0  0  0  0  0
   62.6938   32.3499   46.8053 H   0  0  0  0  0  0  0  0  0  0  0  0
   63.8215   33.7480   46.8053 H   0  0  0  0  0  0  0  0  0  0  0  0
   57.8847   31.1722   46.4585 H   0  0  0  0  0  0  0  0  0  0  0  0
   57.5644   29.3387   46.7575 H   0  0  0  0  0  0  0  0  0  0  0  0
   56.3254   28.2234   46.1430 H   0  0  0  0  0  0  0  0  0  0  0  0
   59.3762   27.7719   45.8663 H   0  0  0  0  0  0  0  0  0  0  0  0
   58.3941   27.0068   47.1196 H   0  0  0  0  0  0  0  0  0  0  0  0
   59.5940   25.2400   44.9704 H   0  0  0  0  0  0  0  0  0  0  0  0
   58.5137   24.9927   46.4399 H   0  0  0  0  0  0  0  0  0  0  0  0
   56.3308   25.0552   43.7194 H   0  0  0  0  0  0  0  0  0  0  0  0
   55.3789   23.0346   42.7269 H   0  0  0  0  0  0  0  0  0  0  0  0
   56.7360   19.6500   43.0780 H   0  0  0  0  0  0  0  0  0  0  0  0
   58.4271   20.6436   44.5985 H   0  0  0  0  0  0  0  0  0  0  0  0
   59.3667   22.6921   45.5802 H   0  0  0  0  0  0  0  0  0  0  0  0
   59.3033   27.1533   43.7427 H   0  0  0  0  0  0  0  0  0  0  0  0
   57.9123   26.2134   43.0673 H   0  0  0  0  0  0  0  0  0  0  0  0
   57.9345   28.7213   42.6787 H   0  0  0  0  0  0  0  0  0  0  0  0
   56.4301   27.9618   43.3732 H   0  0  0  0  0  0  0  0  0  0  0  0
   57.8417   33.7167   41.2548 H   0  0  0  0  0  0  0  0  0  0  0  0
   58.7924   32.2346   40.8996 H   0  0  0  0  0  0  0  0  0  0  0  0
   56.9972   32.1717   40.8996 H   0  0  0  0  0  0  0  0  0  0  0  0
   58.1980   34.2150   43.4990 H   0  0  0  0  0  0  0  0  0  0  0  0
  1  2  2  0
  2  3  1  0
  3  4  1  0
  4  5  1  0
  2  6  1  0
  6  7  2  0
  7  8  1  0
  8  9  2  0
  9 10  1  0
 10 11  1  0
 11 12  1  0
 12 13  1  0
 13 14  1  0
 14 15  1  0
 15 16  2  0
 16 17  1  0
 17 18  2  0
 18 19  1  0
 18 20  1  0
 20 21  2  0
 13 22  1  0
 22 23  1  0
  9 24  1  0
 24 25  2  0
 25 26  1  0
 25 27  1  0
 27  7  1  0
 23 10  1  0
 21 15  1  0
  1 28  1  0
  1 29  1  0
  3 30  1  0
  3 31  1  0
  5 32  1  0
  5 33  1  0
  5 34  1  0
  8 35  1  0
 11 36  1  0
 11 37  1  0
 12 38  1  0
 12 39  1  0
 14 40  1  0
 14 41  1  0
 16 42  1  0
 17 43  1  0
 19 44  1  0
 20 45  1  0
 21 46  1  0
 22 47  1  0
 22 48  1  0
 23 49  1  0
 23 50  1  0
 26 51  1  0
 26 52  1  0
 26 53  1  0
 27 54  1  0
M  END
>  <smiles>  (65) 
C=C(COC)N=c1cc(N2CCN(Cc3ccc(O)cc3)CC2)nc(C)[nH]1

>  <score_type>  (65) 
oracle

>  <origin>  (65) 
adg

>  <m_score__min__energy>  (65) 
-8.2200000000000006

>  <m_primary>  (65) 
energy

$$$$
65:0
     RDKit          3D

 60 62  0  0  0  0  0  0  0  0999 V2000
   62.2107   30.5704   48.1708 H   0  0  0  0  0  0  0  0  0  0  0  0
   61.4890   31.0590   48.8420 C   0  0  0  0  0  0  0  0  0  0  0  0
   61.7310   32.3180   49.2580 C   0  0  0  0  0  0  0  0  0  0  0  0
   62.9410   32.9980   48.8180 N   0  0  2  0  0  0  0  0  0  0  0  0
   62.9290   33.9980   49.1320 H   0  0  0  0  0  0  0  0  0  0  0  0
   63.0130   33.0340   47.3730 C   0  0  0  0  0  0  0  0  0  0  0  0
   63.9190   32.4080   46.7520 O   0  0  0  0  0  0  0  0  0  0  0  0
   62.0030   33.7880   46.6070 C   0  0  0  0  0  0  0  0  0  0  0  0
   62.1450   33.9542   45.5289 H   0  0  0  0  0  0  0  0  0  0  0  0
   60.9480   34.2560   47.1990 N   0  0  0  0  0  0  0  0  0  0  0  0
   59.6330   34.3020   46.5600 C   0  0  0  0  0  0  0  0  0  0  0  0
   58.8628   34.3828   47.3412 H   0  0  0  0  0  0  0  0  0  0  0  0
   59.6159   35.1723   45.8874 H   0  0  0  0  0  0  0  0  0  0  0  0
   59.3480   33.0370   45.7070 C   0  0  0  0  0  0  0  0  0  0  0  0
   60.1717   32.9281   44.9862 H   0  0  0  0  0  0  0  0  0  0  0  0
   59.2601   32.2133   46.4307 H   0  0  0  0  0  0  0  0  0  0  0  0
   58.0620   33.0230   44.9340 N   0  0  0  0  0  0  0  0  0  0  0  0
   58.4380   33.0710   43.4970 C   0  0  0  0  0  0  0  0  0  0  0  0
   59.5255   33.2098   43.4070 H   0  0  0  0  0  0  0  0  0  0  0  0
   58.1471   32.1284   43.0102 H   0  0  0  0  0  0  0  0  0  0  0  0
   57.9197   33.9103   43.0102 H   0  0  0  0  0  0  0  0  0  0  0  0
   57.2600   34.2320   45.2530 C   0  0  0  0  0  0  0  0  0  0  0  0
   57.1852   34.3448   46.3446 H   0  0  0  0  0  0  0  0  0  0  0  0
   57.7489   35.1197   44.8253 H   0  0  0  0  0  0  0  0  0  0  0  0
   56.2520   34.1267   44.8253 H   0  0  0  0  0  0  0  0  0  0  0  0
   57.2970   31.7680   45.2340 C   0  0  0  0  0  0  0  0  0  0  0  0
   57.6420   31.3933   46.2090 H   0  0  0  0  0  0  0  0  0  0  0  0
   56.2377   32.0625   45.2010 H   0  0  0  0  0  0  0  0  0  0  0  0
   57.4270   30.6050   44.2110 C   0  0  0  0  0  0  0  0  0  0  0  0
   56.5209   30.5982   43.5873 H   0  0  0  0  0  0  0  0  0  0  0  0
   58.3502   30.7994   43.6454 H   0  0  0  0  0  0  0  0  0  0  0  0
   57.5890   29.2270   44.8150 C   0  0  0  0  0  0  0  0  0  0  0  0
   58.8760   28.7020   45.0430 C   0  0  0  0  0  0  0  0  0  0  0  0
   59.7629   29.2872   44.7585 H   0  0  0  0  0  0  0  0  0  0  0  0
   59.0340   27.4410   45.6290 C   0  0  0  0  0  0  0  0  0  0  0  0
   60.0428   27.0327   45.7894 H   0  0  0  0  0  0  0  0  0  0  0  0
   57.9120   26.6990   46.0110 C   0  0  0  0  0  0  0  0  0  0  0  0
   58.0387   25.7039   46.4624 H   0  0  0  0  0  0  0  0  0  0  0  0
   56.6320   27.2200   45.8200 C   0  0  0  0  0  0  0  0  0  0  0  0
   55.7516   26.6392   46.1323 H   0  0  0  0  0  0  0  0  0  0  0  0
   56.4640   28.4800   45.2320 C   0  0  0  0  0  0  0  0  0  0  0  0
   55.1730   28.9760   45.0590 O   0  0  0  0  0  0  0  0  0  0  0  0
   64.1290   32.3860   49.4410 C   0  0  0  0  0  0  0  0  0  0  0  0
   64.0349   32.4345   50.5359 H   0  0  0  0  0  0  0  0  0  0  0  0
   64.2079   31.3350   49.1259 H   0  0  0  0  0  0  0  0  0  0  0  0
   65.0305   32.9319   49.1259 H   0  0  0  0  0  0  0  0  0  0  0  0
   60.7310   33.0010   50.1360 C   0  0  0  0  0  0  0  0  0  0  0  0
   60.8930   34.2060   50.4650 O   0  0  0  0  0  0  0  0  0  0  0  0
   59.5400   32.2630   50.6230 C   0  0  0  0  0  0  0  0  0  0  0  0
   58.6300   32.8640   51.5120 C   0  0  0  0  0  0  0  0  0  0  0  0
   58.7994   33.8951   51.8556 H   0  0  0  0  0  0  0  0  0  0  0  0
   57.5120   32.1560   51.9600 C   0  0  0  0  0  0  0  0  0  0  0  0
   56.8036   32.6302   52.6552 H   0  0  0  0  0  0  0  0  0  0  0  0
   57.2930   30.8470   51.5260 C   0  0  0  0  0  0  0  0  0  0  0  0
   56.4112   30.2926   51.8797 H   0  0  0  0  0  0  0  0  0  0  0  0
   58.1900   30.2390   50.6440 C   0  0  0  0  0  0  0  0  0  0  0  0
   58.0127   29.2074   50.3057 H   0  0  0  0  0  0  0  0  0  0  0  0
   59.3180   30.9420   50.1880 C   0  0  0  0  0  0  0  0  0  0  0  0
   60.2860   30.3180   49.2600 C   0  0  0  0  0  0  0  0  0  0  0  0
   60.0990   29.1500   48.8230 O   0  0  0  0  0  0  0  0  0  0  0  0
  1  2  1  0
  2  3  2  0
  3  4  1  0
  4  5  1  1
  4  6  1  0
  6  7  2  0
  6  8  1  0
  8  9  1  0
  8 10  2  0
 10 11  1  0
 11 12  1  0
 11 13  1  0
 11 14  1  0
 14 15  1  0
 14 16  1  0
 14 17  1  0
 17 18  1  0
 18 19  1  0
 18 20  1  0
 18 21  1  0
 17 22  1  0
 22 23  1  0
 22 24  1  0
 22 25  1  0
 17 26  1  0
 26 27  1  0
 26 28  1  0
 26 29  1  0
 29 30  1  0
 29 31  1  0
 29 32  1  0
 32 33  2  0
 33 34  1  0
 33 35  1  0
 35 36  1  0
 35 37  2  0
 37 38  1  0
 37 39  1  0
 39 40  1  0
 39 41  2  0
 41 42  1  0
  4 43  1  0
 43 44  1  0
 43 45  1  0
 43 46  1  0
  3 47  1  0
 47 48  2  0
 47 49  1  0
 49 50  2  0
 50 51  1  0
 50 52  1  0
 52 53  1  0
 52 54  2  0
 54 55  1  0
 54 56  1  0
 56 57  1  0
 56 58  2  0
 58 59  1  0
 59 60  2  0
 59  2  1  0
 41 32  1  0
 58 49  1  0
M  CHG  3   4   1  17   1  42  -1
M  END
>  <UniqueID>  (66) 
59

>  <SMILES>  (66) 
C[N@@H+](C(=O)/C=N/CC[N+](C)(C)CCc1ccccc1[O-])C1=CC(=O)c2ccccc2C1=O

>  <Energy>  (66) 
81.57056462320467

>  <Genealogy>  (66) 
C[NH+](C(=O)C=NCC[N+](C)(C)CCc1ccccc1[O-])C1=CC(=O)c2ccccc2C1=O (protonated)
C[N@@H+](C(=O)C=NCC[N+](C)(C)CCc1ccccc1[O-])C1=CC(=O)c2ccccc2C1=O (chirality)
C[N@@H+](C(=O)/C=N/CC[N+](C)(C)CCc1ccccc1[O-])C1=CC(=O)c2ccccc2C1=O (cis-trans isomerization)
C[N@@H+](C(=O)/C=N/CC[N+](C)(C)CCc1ccccc1[O-])C1=CC(=O)c2ccccc2C1=O (3D coordinates assigned)
C[N@@H+](C(=O)/C=N/CC[N+](C)(C)CCc1ccccc1[O-])C1=CC(=O)c2ccccc2C1=O (nonaromatic ring conformer: 81.57056462320467 kcal/mol)

>  <smiles>  (66) 
CN(C(=O)C=NCC[N+](C)(C)CCc1ccccc1O)C1=CC(=O)c2ccccc2C1=O

>  <score_type>  (66) 
oracle

>  <origin>  (66) 
adg

>  <m_score__min__energy>  (66) 
-10.779999999999999

>  <m_primary>  (66) 
energy

$$$$
66:0
     RDKit          3D

 59 62  0  0  0  0  0  0  0  0999 V2000
   59.3680   30.8270   50.1110 O   0  0  0  0  0  0  0  0  0  0  0  0
   59.5210   31.4540   49.0290 C   0  0  0  0  0  0  0  0  0  0  0  0
   59.3960   32.9560   49.0130 C   0  0  0  0  0  0  0  0  0  0  0  0
   59.0700   33.5040   47.6800 N   0  0  0  0  0  0  0  0  0  0  0  0
   59.2950   34.9540   47.5660 C   0  0  0  0  0  0  0  0  0  0  0  0
   59.3240   35.3500   46.0760 C   0  0  0  0  0  0  0  0  0  0  0  0
   58.4710   34.4840   45.2190 N   0  0  0  0  0  0  0  0  0  0  0  0
   59.2360   33.4030   44.5580 C   0  0  0  0  0  0  0  0  0  0  0  0
   58.3120   32.4590   43.8330 C   0  0  0  0  0  0  0  0  0  0  0  0
   57.9790   32.6840   42.4870 C   0  0  0  0  0  0  0  0  0  0  0  0
   57.1300   31.8030   41.8150 C   0  0  0  0  0  0  0  0  0  0  0  0
   56.6060   30.6920   42.4760 C   0  0  0  0  0  0  0  0  0  0  0  0
   56.9300   30.4460   43.8250 C   0  0  0  0  0  0  0  0  0  0  0  0
   56.3880   29.3010   44.5100 N   0  0  0  0  0  0  0  0  0  0  0  0
   55.2460   29.3450   45.0190 O   0  0  0  0  0  0  0  0  0  0  0  0
   57.1320   28.1500   44.6530 O   0  0  0  0  0  0  0  0  0  0  0  0
   57.7870   31.3360   44.4970 C   0  0  0  0  0  0  0  0  0  0  0  0
   57.3070   33.9520   45.9600 C   0  0  0  0  0  0  0  0  0  0  0  0
   57.7310   33.1140   47.1880 C   0  0  0  0  0  0  0  0  0  0  0  0
   59.8570   30.7480   47.8260 N   0  0  0  0  0  0  0  0  0  0  0  0
   59.5750   29.3580   47.6150 C   0  0  0  0  0  0  0  0  0  0  0  0
   60.6330   28.4700   47.3650 C   0  0  0  0  0  0  0  0  0  0  0  0
   60.3780   27.1220   47.1020 C   0  0  0  0  0  0  0  0  0  0  0  0
   59.0540   26.6490   47.0570 C   0  0  0  0  0  0  0  0  0  0  0  0
   58.7540   25.3050   46.7910 O   0  0  0  0  0  0  0  0  0  0  0  0
   57.7410   24.8560   45.9300 C   0  0  0  0  0  0  0  0  0  0  0  0
   56.3800   25.1050   46.1960 C   0  0  0  0  0  0  0  0  0  0  0  0
   55.3980   24.6450   45.3140 C   0  0  0  0  0  0  0  0  0  0  0  0
   55.7630   23.9240   44.1710 C   0  0  0  0  0  0  0  0  0  0  0  0
   57.1100   23.6540   43.9190 C   0  0  0  0  0  0  0  0  0  0  0  0
   58.0960   24.1070   44.8000 C   0  0  0  0  0  0  0  0  0  0  0  0
   57.9990   27.5310   47.3180 C   0  0  0  0  0  0  0  0  0  0  0  0
   58.2520   28.8790   47.5850 C   0  0  0  0  0  0  0  0  0  0  0  0
   58.5997   33.2470   49.7138 H   0  0  0  0  0  0  0  0  0  0  0  0
   60.3749   33.3662   49.3020 H   0  0  0  0  0  0  0  0  0  0  0  0
   58.4815   35.4930   48.0736 H   0  0  0  0  0  0  0  0  0  0  0  0
   60.2547   35.2159   48.0355 H   0  0  0  0  0  0  0  0  0  0  0  0
   58.9712   36.3878   45.9839 H   0  0  0  0  0  0  0  0  0  0  0  0
   60.3608   35.2315   45.7282 H   0  0  0  0  0  0  0  0  0  0  0  0
   59.9370   33.8470   43.8358 H   0  0  0  0  0  0  0  0  0  0  0  0
   59.7842   32.8385   45.3267 H   0  0  0  0  0  0  0  0  0  0  0  0
   58.3891   33.5583   41.9602 H   0  0  0  0  0  0  0  0  0  0  0  0
   56.8734   31.9854   40.7610 H   0  0  0  0  0  0  0  0  0  0  0  0
   55.9356   30.0036   41.9407 H   0  0  0  0  0  0  0  0  0  0  0  0
   58.0485   31.1523   45.5496 H   0  0  0  0  0  0  0  0  0  0  0  0
   56.6894   34.7953   46.3026 H   0  0  0  0  0  0  0  0  0  0  0  0
   56.7449   33.2949   45.2801 H   0  0  0  0  0  0  0  0  0  0  0  0
   56.9972   33.2652   47.9934 H   0  0  0  0  0  0  0  0  0  0  0  0
   57.7712   32.0573   46.8849 H   0  0  0  0  0  0  0  0  0  0  0  0
   60.3740   31.2640   47.0740 H   0  0  0  0  0  0  0  0  0  0  0  0
   61.6696   28.8380   47.3763 H   0  0  0  0  0  0  0  0  0  0  0  0
   61.2145   26.4288   46.9297 H   0  0  0  0  0  0  0  0  0  0  0  0
   56.0898   25.6621   47.0990 H   0  0  0  0  0  0  0  0  0  0  0  0
   54.3368   24.8499   45.5184 H   0  0  0  0  0  0  0  0  0  0  0  0
   54.9902   23.5707   43.4724 H   0  0  0  0  0  0  0  0  0  0  0  0
   57.3960   23.0826   43.0236 H   0  0  0  0  0  0  0  0  0  0  0  0
   59.1536   23.8750   44.6058 H   0  0  0  0  0  0  0  0  0  0  0  0
   56.9633   27.1603   47.3129 H   0  0  0  0  0  0  0  0  0  0  0  0
   57.4149   29.5676   47.7722 H   0  0  0  0  0  0  0  0  0  0  0  0
  1  2  2  0
  2  3  1  0
  3  4  1  0
  4  5  1  0
  5  6  1  0
  6  7  1  0
  7  8  1  0
  8  9  1  0
  9 10  2  0
 10 11  1  0
 11 12  2  0
 12 13  1  0
 13 14  1  0
 14 15  2  0
 14 16  1  0
 13 17  2  0
  7 18  1  0
 18 19  1  0
  2 20  1  0
 20 21  1  0
 21 22  2  0
 22 23  1  0
 23 24  2  0
 24 25  1  0
 25 26  1  0
 26 27  2  0
 27 28  1  0
 28 29  2  0
 29 30  1  0
 30 31  2  0
 24 32  1  0
 32 33  2  0
 19  4  1  0
 33 21  1  0
 17  9  1  0
 31 26  1  0
  3 34  1  0
  3 35  1  0
  5 36  1  0
  5 37  1  0
  6 38  1  0
  6 39  1  0
  8 40  1  0
  8 41  1  0
 10 42  1  0
 11 43  1  0
 12 44  1  0
 17 45  1  0
 18 46  1  0
 18 47  1  0
 19 48  1  0
 19 49  1  0
 20 50  1  0
 22 51  1  0
 23 52  1  0
 27 53  1  0
 28 54  1  0
 29 55  1  0
 30 56  1  0
 31 57  1  0
 32 58  1  0
 33 59  1  0
M  CHG  2  14   1  16  -1
M  END
>  <UniqueID>  (67) 
60

>  <SMILES>  (67) 
O=C(CN1CCN(Cc2cccc([N+](=O)[O-])c2)CC1)Nc1ccc(Oc2ccccc2)cc1

>  <Energy>  (67) 
87.08506777851636

>  <Genealogy>  (67) 
O=C(CN1CCN(Cc2cccc([N+](=O)[O-])c2)CC1)Nc1ccc(Oc2ccccc2)cc1 (3D coordinates assigned)
O=C(CN1CCN(Cc2cccc([N+](=O)[O-])c2)CC1)Nc1ccc(Oc2ccccc2)cc1 (nonaromatic ring conformer: 87.08506777851636 kcal/mol)

>  <smiles>  (67) 
O=C(CN1CCN(Cc2cccc([N+](=O)[O-])c2)CC1)Nc1ccc(Oc2ccccc2)cc1

>  <score_type>  (67) 
oracle

>  <origin>  (67) 
adg

>  <m_score__min__energy>  (67) 
-9.4600000000000009

>  <m_primary>  (67) 
energy

$$$$
67:0
     RDKit          3D

 58 59  0  0  0  0  0  0  0  0999 V2000
   55.1100   29.3450   44.8400 N   0  0  0  0  0  0  0  0  0  0  0  0
   56.2770   29.7260   44.1140 C   0  0  0  0  0  0  0  0  0  0  0  0
   56.3230   29.5250   42.8710 O   0  0  0  0  0  0  0  0  0  0  0  0
   57.4120   30.3890   44.8040 C   0  0  0  0  0  0  0  0  0  0  0  0
   58.0720   29.8040   45.7640 N   0  0  0  0  0  0  0  0  0  0  0  0
   59.1850   28.9060   45.6450 C   0  0  0  0  0  0  0  0  0  0  0  0
   59.5150   28.4910   44.5030 O   0  0  0  0  0  0  0  0  0  0  0  0
   60.0040   28.5130   46.8480 C   0  0  0  0  0  0  0  0  0  0  0  0
   59.3970   27.3240   47.6080 C   0  0  0  0  0  0  0  0  0  0  0  0
   58.4020   26.5550   46.7740 C   0  0  0  0  0  0  0  0  0  0  0  0
   58.8170   25.4390   46.0270 C   0  0  0  0  0  0  0  0  0  0  0  0
   57.8940   24.7240   45.2590 C   0  0  0  0  0  0  0  0  0  0  0  0
   56.5470   25.1030   45.2370 C   0  0  0  0  0  0  0  0  0  0  0  0
   55.6480   24.3690   44.4640 O   0  0  0  0  0  0  0  0  0  0  0  0
   56.1240   26.2130   45.9890 C   0  0  0  0  0  0  0  0  0  0  0  0
   54.7870   26.5920   45.9940 O   0  0  0  0  0  0  0  0  0  0  0  0
   57.0510   26.9430   46.7410 C   0  0  0  0  0  0  0  0  0  0  0  0
   57.8340   31.7440   44.3730 C   0  0  0  0  0  0  0  0  0  0  0  0
   57.9900   31.9770   43.1440 O   0  0  0  0  0  0  0  0  0  0  0  0
   58.0390   32.8280   45.2910 N   0  0  0  0  0  0  0  0  0  0  0  0
   59.0350   32.9330   46.3590 C   0  0  1  0  0  0  0  0  0  0  0  0
   59.7950   34.2680   46.2550 C   0  0  0  0  0  0  0  0  0  0  0  0
   59.2290   35.2480   44.8770 S   0  0  0  0  0  0  0  0  0  0  0  0
   58.3160   32.8110   47.6830 C   0  0  0  0  0  0  0  0  0  0  0  0
   57.0810   33.0600   47.7540 O   0  0  0  0  0  0  0  0  0  0  0  0
   58.9880   32.3690   48.8730 N   0  0  0  0  0  0  0  0  0  0  0  0
   59.0970   30.9870   49.3450 C   0  0  1  0  0  0  0  0  0  0  0  0
   60.5240   30.7300   49.8510 C   0  0  0  0  0  0  0  0  0  0  0  0
   61.5280   31.5870   49.1220 C   0  0  0  0  0  0  0  0  0  0  0  0
   61.9710   31.2300   47.8390 C   0  0  0  0  0  0  0  0  0  0  0  0
   62.9170   32.0180   47.1740 C   0  0  0  0  0  0  0  0  0  0  0  0
   63.4320   33.1610   47.7900 C   0  0  0  0  0  0  0  0  0  0  0  0
   63.0010   33.5200   49.0680 C   0  0  0  0  0  0  0  0  0  0  0  0
   62.0530   32.7370   49.7340 C   0  0  0  0  0  0  0  0  0  0  0  0
   58.1160   30.7330   50.4530 C   0  0  0  0  0  0  0  0  0  0  0  0
   57.2070   31.7550   50.8610 N   0  0  0  0  0  0  0  0  0  0  0  0
   58.1210   29.6260   51.0540 O   0  0  0  0  0  0  0  0  0  0  0  0
   55.1650   28.6500   45.6170 H   0  0  0  0  0  0  0  0  0  0  0  0
   61.0150   28.2385   46.5125 H   0  0  0  0  0  0  0  0  0  0  0  0
   60.0258   29.3728   47.5337 H   0  0  0  0  0  0  0  0  0  0  0  0
   60.2086   26.6438   47.9059 H   0  0  0  0  0  0  0  0  0  0  0  0
   58.8633   27.7229   48.4833 H   0  0  0  0  0  0  0  0  0  0  0  0
   59.8718   25.1274   46.0470 H   0  0  0  0  0  0  0  0  0  0  0  0
   58.2282   23.8583   44.6683 H   0  0  0  0  0  0  0  0  0  0  0  0
   54.7040   24.6920   44.2900 H   0  0  0  0  0  0  0  0  0  0  0  0
   56.7211   27.8251   47.3094 H   0  0  0  0  0  0  0  0  0  0  0  0
   59.7803   32.1289   46.2702 H   0  0  0  0  0  0  0  0  0  0  0  0
   59.6422   34.8378   47.1835 H   0  0  0  0  0  0  0  0  0  0  0  0
   60.8605   34.0431   46.0993 H   0  0  0  0  0  0  0  0  0  0  0  0
   58.8714   30.3069   48.5104 H   0  0  0  0  0  0  0  0  0  0  0  0
   60.5698   30.9604   50.9256 H   0  0  0  0  0  0  0  0  0  0  0  0
   60.7718   29.6740   49.6678 H   0  0  0  0  0  0  0  0  0  0  0  0
   61.5727   30.3266   47.3540 H   0  0  0  0  0  0  0  0  0  0  0  0
   63.2552   31.7372   46.1657 H   0  0  0  0  0  0  0  0  0  0  0  0
   64.1776   33.7784   47.2676 H   0  0  0  0  0  0  0  0  0  0  0  0
   63.4076   34.4202   49.5520 H   0  0  0  0  0  0  0  0  0  0  0  0
   61.7170   33.0230   50.7416 H   0  0  0  0  0  0  0  0  0  0  0  0
   56.9870   32.5580   50.2320 H   0  0  0  0  0  0  0  0  0  0  0  0
  1  2  1  0
  2  3  2  0
  2  4  1  0
  4  5  2  3
  5  6  1  0
  6  7  2  0
  6  8  1  0
  8  9  1  0
  9 10  1  0
 10 11  2  0
 11 12  1  0
 12 13  2  0
 13 14  1  0
 13 15  1  0
 15 16  1  0
 15 17  2  0
  4 18  1  0
 18 19  2  0
 18 20  1  0
 20 21  1  0
 21 22  1  0
 22 23  1  0
 21 24  1  0
 24 25  2  0
 24 26  1  0
 26 27  1  0
 27 28  1  0
 28 29  1  0
 29 30  2  0
 30 31  1  0
 31 32  2  0
 32 33  1  0
 33 34  2  0
 27 35  1  0
 35 36  1  0
 35 37  2  0
 17 10  1  0
 34 29  1  0
  1 38  1  0
  8 39  1  0
  8 40  1  0
  9 41  1  0
  9 42  1  0
 11 43  1  0
 12 44  1  0
 14 45  1  0
 17 46  1  0
 21 47  1  6
 22 48  1  0
 22 49  1  0
 27 50  1  6
 28 51  1  0
 28 52  1  0
 30 53  1  0
 31 54  1  0
 32 55  1  0
 33 56  1  0
 34 57  1  0
 36 58  1  0
M  CHG  6   1  -1  16  -1  20  -1  23  -1  26  -1  36  -1
M  END
>  <UniqueID>  (68) 
61

>  <SMILES>  (68) 
[NH-]C(=O)C(=NC(=O)CCc1ccc(O)c([O-])c1)C(=O)[N-][C@@H](C[S-])C(=O)[N-][C@@H](Cc1ccccc1)C([NH-])=O

>  <Energy>  (68) 
58.13931506475315

>  <Genealogy>  (68) 
[NH-]C(=O)C(=NC(=O)CCc1ccc(O)c([O-])c1)C(=O)[N-]C(C[S-])C(=O)[N-]C(Cc1ccccc1)C([NH-])=O (protonated)
[NH-]C(=O)C(=NC(=O)CCc1ccc(O)c([O-])c1)C(=O)[N-][C@@H](C[S-])C(=O)[N-][C@@H](Cc1ccccc1)C([NH-])=O (chirality)
[NH-]C(=O)C(=NC(=O)CCc1ccc(O)c([O-])c1)C(=O)[N-][C@@H](C[S-])C(=O)[N-][C@@H](Cc1ccccc1)C([NH-])=O (3D coordinates assigned)
[NH-]C(=O)C(=NC(=O)CCc1ccc(O)c([O-])c1)C(=O)[N-][C@@H](C[S-])C(=O)[N-][C@@H](Cc1ccccc1)C([NH-])=O (optimized conformer: 58.13931506475315 kcal/mol)

>  <smiles>  (68) 
NC(=O)C(=NC(=O)CCc1ccc(O)c(O)c1)C(=O)NC(CS)C(=O)NC(Cc1ccccc1)C(N)=O

>  <score_type>  (68) 
oracle

>  <origin>  (68) 
adg

>  <m_score__min__energy>  (68) 
-19.690000000000001

>  <m_primary>  (68) 
energy

$$$$
68:0
     RDKit          3D

 38 38  0  0  0  0  0  0  0  0999 V2000
   63.4760   33.7470   48.8410 C   0  0  0  0  0  0  0  0  0  0  0  0
   62.7590   33.1500   47.5930 C   0  0  0  0  0  0  0  0  0  0  0  0
   63.3940   33.8560   46.3510 C   0  0  0  0  0  0  0  0  0  0  0  0
   63.2240   31.6580   47.5070 C   0  0  0  0  0  0  0  0  0  0  0  0
   61.2250   33.3100   47.6520 N   0  0  0  0  0  0  0  0  0  0  0  0
   60.8230   34.1860   48.7930 C   0  0  0  0  0  0  0  0  0  0  0  0
   60.5550   31.9900   47.8610 C   0  0  0  0  0  0  0  0  0  0  0  0
   60.6870   33.9300   46.3850 C   0  0  0  0  0  0  0  0  0  0  0  0
   59.1790   33.8230   46.1950 C   0  0  0  0  0  0  0  0  0  0  0  0
   58.4550   34.6540   46.8090 O   0  0  0  0  0  0  0  0  0  0  0  0
   58.5180   32.8250   45.3060 C   0  0  0  0  0  0  0  0  0  0  0  0
   58.0770   31.6030   45.8540 C   0  0  0  0  0  0  0  0  0  0  0  0
   57.4100   30.6630   45.0660 C   0  0  0  0  0  0  0  0  0  0  0  0
   57.1830   30.9200   43.7130 C   0  0  0  0  0  0  0  0  0  0  0  0
   56.3380   29.7420   42.7240 Cl  0  0  0  0  0  0  0  0  0  0  0  0
   57.6290   32.1180   43.1490 C   0  0  0  0  0  0  0  0  0  0  0  0
   58.2910   33.0650   43.9370 C   0  0  0  0  0  0  0  0  0  0  0  0
   63.0064   33.3560   49.7556 H   0  0  0  0  0  0  0  0  0  0  0  0
   64.5386   33.4630   48.8242 H   0  0  0  0  0  0  0  0  0  0  0  0
   63.3892   34.8434   48.8242 H   0  0  0  0  0  0  0  0  0  0  0  0
   64.0939   34.6341   46.6896 H   0  0  0  0  0  0  0  0  0  0  0  0
   63.9352   33.1147   45.7448 H   0  0  0  0  0  0  0  0  0  0  0  0
   62.5997   34.3159   45.7448 H   0  0  0  0  0  0  0  0  0  0  0  0
   63.3499   31.2541   48.5224 H   0  0  0  0  0  0  0  0  0  0  0  0
   62.4670   31.0684   46.9691 H   0  0  0  0  0  0  0  0  0  0  0  0
   64.1819   31.6029   46.9691 H   0  0  0  0  0  0  0  0  0  0  0  0
   61.0548   33.6810   49.7423 H   0  0  0  0  0  0  0  0  0  0  0  0
   61.3754   35.1357   48.7385 H   0  0  0  0  0  0  0  0  0  0  0  0
   59.7428   34.3865   48.7385 H   0  0  0  0  0  0  0  0  0  0  0  0
   60.4563   31.7955   48.9392 H   0  0  0  0  0  0  0  0  0  0  0  0
   59.5570   32.0081   47.3988 H   0  0  0  0  0  0  0  0  0  0  0  0
   61.1587   31.1951   47.3988 H   0  0  0  0  0  0  0  0  0  0  0  0
   60.9537   34.9972   46.3894 H   0  0  0  0  0  0  0  0  0  0  0  0
   61.1381   33.3654   45.5557 H   0  0  0  0  0  0  0  0  0  0  0  0
   58.2610   31.3873   46.9168 H   0  0  0  0  0  0  0  0  0  0  0  0
   57.0631   29.7191   45.5118 H   0  0  0  0  0  0  0  0  0  0  0  0
   57.4587   32.3172   42.0807 H   0  0  0  0  0  0  0  0  0  0  0  0
   58.6374   34.0054   43.4835 H   0  0  0  0  0  0  0  0  0  0  0  0
  1  2  1  0
  2  3  1  0
  2  4  1  0
  2  5  1  0
  5  6  1  0
  5  7  1  0
  5  8  1  0
  8  9  1  0
  9 10  2  0
  9 11  1  0
 11 12  2  0
 12 13  1  0
 13 14  2  0
 14 15  1  0
 14 16  1  0
 16 17  2  0
 17 11  1  0
  1 18  1  0
  1 19  1  0
  1 20  1  0
  3 21  1  0
  3 22  1  0
  3 23  1  0
  4 24  1  0
  4 25  1  0
  4 26  1  0
  6 27  1  0
  6 28  1  0
  6 29  1  0
  7 30  1  0
  7 31  1  0
  7 32  1  0
  8 33  1  0
  8 34  1  0
 12 35  1  0
 13 36  1  0
 16 37  1  0
 17 38  1  0
M  CHG  1   5   1
M  END
>  <UniqueID>  (69) 
62

>  <SMILES>  (69) 
CC(C)(C)[N+](C)(C)CC(=O)c1ccc(Cl)cc1

>  <Energy>  (69) 
64.42013920258286

>  <Genealogy>  (69) 
CC(C)(C)[N+](C)(C)CC(=O)c1ccc(Cl)cc1 (3D coordinates assigned)
CC(C)(C)[N+](C)(C)CC(=O)c1ccc(Cl)cc1 (optimized conformer: 64.42013920258286 kcal/mol)

>  <smiles>  (69) 
CC(C)(C)[N+](C)(C)CC(=O)c1ccc(Cl)cc1

>  <score_type>  (69) 
oracle

>  <origin>  (69) 
adg

>  <m_score__min__energy>  (69) 
-5.0099999999999998

>  <m_primary>  (69) 
energy

$$$$
69:0
     RDKit          3D

 56 57  0  0  0  0  0  0  0  0999 V2000
   54.9140   29.7230   43.7500 O   0  0  0  0  0  0  0  0  0  0  0  0
   55.7910   29.5080   44.6320 C   0  0  0  0  0  0  0  0  0  0  0  0
   55.9010   28.2210   45.2490 N   0  0  0  0  0  0  0  0  0  0  0  0
   57.1520   27.4760   45.3320 C   0  0  0  0  0  0  0  0  0  0  0  0
   56.9750   26.2420   46.2240 C   0  0  0  0  0  0  0  0  0  0  0  0
   58.2060   26.0010   47.1200 C   0  0  0  0  0  0  0  0  0  0  0  0
   59.2940   27.0640   46.8880 C   0  0  0  0  0  0  0  0  0  0  0  0
   59.9420   27.5390   48.2020 C   0  0  0  0  0  0  0  0  0  0  0  0
   59.4390   28.8980   48.6050 C   0  0  0  0  0  0  0  0  0  0  0  0
   58.5770   29.4710   47.8860 O   0  0  0  0  0  0  0  0  0  0  0  0
   59.9540   29.5550   49.7750 N   0  0  0  0  0  0  0  0  0  0  0  0
   59.5200   30.9100   50.1450 C   0  0  1  0  0  0  0  0  0  0  0  0
   59.4970   31.8520   48.9240 C   0  0  0  0  0  0  0  0  0  0  0  0
   60.8790   32.2560   48.4640 C   0  0  0  0  0  0  0  0  0  0  0  0
   61.4130   33.4940   48.8630 C   0  0  0  0  0  0  0  0  0  0  0  0
   62.6780   33.8920   48.4280 C   0  0  0  0  0  0  0  0  0  0  0  0
   63.4360   33.0480   47.6110 C   0  0  0  0  0  0  0  0  0  0  0  0
   62.9320   31.7990   47.2390 C   0  0  0  0  0  0  0  0  0  0  0  0
   61.6610   31.3990   47.6670 C   0  0  0  0  0  0  0  0  0  0  0  0
   58.1510   30.8560   50.7640 C   0  0  0  0  0  0  0  0  0  0  0  0
   57.4290   31.8910   50.7950 O   0  0  0  0  0  0  0  0  0  0  0  0
   57.6690   29.6640   51.3000 O   0  0  0  0  0  0  0  0  0  0  0  0
   56.6710   30.5520   45.0450 N   0  0  0  0  0  0  0  0  0  0  0  0
   57.3250   31.4700   44.1210 C   0  0  0  0  0  0  0  0  0  0  0  0
   57.8400   32.6490   44.8960 C   0  0  0  0  0  0  0  0  0  0  0  0
   57.5180   32.7950   46.2560 C   0  0  0  0  0  0  0  0  0  0  0  0
   58.0870   33.8280   47.0080 C   0  0  0  0  0  0  0  0  0  0  0  0
   58.9840   34.7170   46.4080 C   0  0  0  0  0  0  0  0  0  0  0  0
   59.3210   34.5710   45.0570 C   0  0  0  0  0  0  0  0  0  0  0  0
   58.7510   33.5420   44.3010 C   0  0  0  0  0  0  0  0  0  0  0  0
   57.4515   27.1553   44.3233 H   0  0  0  0  0  0  0  0  0  0  0  0
   57.9277   28.1242   45.7658 H   0  0  0  0  0  0  0  0  0  0  0  0
   56.0924   26.3890   46.8638 H   0  0  0  0  0  0  0  0  0  0  0  0
   56.8498   25.3647   45.5724 H   0  0  0  0  0  0  0  0  0  0  0  0
   57.8924   26.0356   48.1738 H   0  0  0  0  0  0  0  0  0  0  0  0
   58.6277   25.0170   46.8669 H   0  0  0  0  0  0  0  0  0  0  0  0
   60.0756   26.6345   46.2440 H   0  0  0  0  0  0  0  0  0  0  0  0
   58.8159   27.9352   46.4163 H   0  0  0  0  0  0  0  0  0  0  0  0
   59.7037   26.8190   48.9987 H   0  0  0  0  0  0  0  0  0  0  0  0
   61.0289   27.6055   48.0464 H   0  0  0  0  0  0  0  0  0  0  0  0
   60.6750   29.0640   50.3510 H   0  0  0  0  0  0  0  0  0  0  0  0
   60.2442   31.3085   50.8707 H   0  0  0  0  0  0  0  0  0  0  0  0
   58.9876   31.3390   48.0950 H   0  0  0  0  0  0  0  0  0  0  0  0
   58.9693   32.7689   49.2255 H   0  0  0  0  0  0  0  0  0  0  0  0
   60.8297   34.1534   49.5225 H   0  0  0  0  0  0  0  0  0  0  0  0
   63.0792   34.8712   48.7284 H   0  0  0  0  0  0  0  0  0  0  0  0
   64.4289   33.3671   47.2611 H   0  0  0  0  0  0  0  0  0  0  0  0
   63.5352   31.1290   46.6087 H   0  0  0  0  0  0  0  0  0  0  0  0
   61.2717   30.4112   47.3795 H   0  0  0  0  0  0  0  0  0  0  0  0
   58.1629   30.9597   43.6234 H   0  0  0  0  0  0  0  0  0  0  0  0
   56.6079   31.8076   43.3582 H   0  0  0  0  0  0  0  0  0  0  0  0
   56.8157   32.0942   46.7310 H   0  0  0  0  0  0  0  0  0  0  0  0
   57.8288   33.9410   48.0713 H   0  0  0  0  0  0  0  0  0  0  0  0
   59.4259   35.5329   46.9988 H   0  0  0  0  0  0  0  0  0  0  0  0
   60.0344   35.2660   44.5901 H   0  0  0  0  0  0  0  0  0  0  0  0
   59.0151   33.4301   43.2390 H   0  0  0  0  0  0  0  0  0  0  0  0
  1  2  2  0
  2  3  1  0
  3  4  1  0
  4  5  1  0
  5  6  1  0
  6  7  1  0
  7  8  1  0
  8  9  1  0
  9 10  2  0
  9 11  1  0
 11 12  1  0
 12 13  1  0
 13 14  1  0
 14 15  2  0
 15 16  1  0
 16 17  2  0
 17 18  1  0
 18 19  2  0
 12 20  1  0
 20 21  2  0
 20 22  1  0
  2 23  1  0
 23 24  1  0
 24 25  1  0
 25 26  2  0
 26 27  1  0
 27 28  2  0
 28 29  1  0
 29 30  2  0
 19 14  1  0
 30 25  1  0
  4 31  1  0
  4 32  1  0
  5 33  1  0
  5 34  1  0
  6 35  1  0
  6 36  1  0
  7 37  1  0
  7 38  1  0
  8 39  1  0
  8 40  1  0
 11 41  1  0
 12 42  1  1
 13 43  1  0
 13 44  1  0
 15 45  1  0
 16 46  1  0
 17 47  1  0
 18 48  1  0
 19 49  1  0
 24 50  1  0
 24 51  1  0
 26 52  1  0
 27 53  1  0
 28 54  1  0
 29 55  1  0
 30 56  1  0
M  CHG  3   3  -1  22  -1  23  -1
M  END
>  <UniqueID>  (70) 
63

>  <SMILES>  (70) 
O=C([N-]CCCCCC(=O)N[C@@H](Cc1ccccc1)C(=O)[O-])[N-]Cc1ccccc1

>  <Energy>  (70) 
35.432846672536705

>  <Genealogy>  (70) 
O=C([N-]CCCCCC(=O)NC(Cc1ccccc1)C(=O)[O-])[N-]Cc1ccccc1 (protonated)
O=C([N-]CCCCCC(=O)N[C@@H](Cc1ccccc1)C(=O)[O-])[N-]Cc1ccccc1 (chirality)
O=C([N-]CCCCCC(=O)N[C@@H](Cc1ccccc1)C(=O)[O-])[N-]Cc1ccccc1 (3D coordinates assigned)
O=C([N-]CCCCCC(=O)N[C@@H](Cc1ccccc1)C(=O)[O-])[N-]Cc1ccccc1 (optimized conformer: 35.432846672536705 kcal/mol)

>  <smiles>  (70) 
O=C(CCCCCNC(=O)NCc1ccccc1)NC(Cc1ccccc1)C(=O)O

>  <score_type>  (70) 
oracle

>  <origin>  (70) 
adg

>  <m_score__min__energy>  (70) 
-14.09

>  <m_primary>  (70) 
energy

$$$$
70:0
     RDKit          3D

 34 36  0  0  0  0  0  0  0  0999 V2000
   57.9530   34.1800   45.0640 C   0  0  0  0  0  0  0  0  0  0  0  0
   57.4150   33.0850   44.3940 O   0  0  0  0  0  0  0  0  0  0  0  0
   57.6970   31.7500   44.6510 C   0  0  0  0  0  0  0  0  0  0  0  0
   58.6370   31.3370   45.5720 C   0  0  0  0  0  0  0  0  0  0  0  0
   58.8670   29.9770   45.7770 C   0  0  0  0  0  0  0  0  0  0  0  0
   58.1400   29.0390   45.0460 C   0  0  0  0  0  0  0  0  0  0  0  0
   58.3460   27.6000   45.2270 C   0  0  0  0  0  0  0  0  0  0  0  0
   57.6690   26.6250   44.5230 C   0  0  0  0  0  0  0  0  0  0  0  0
   58.1390   25.4010   44.9750 C   0  0  0  0  0  0  0  0  0  0  0  0
   57.6760   24.1140   44.4820 C   0  0  0  0  0  0  0  0  0  0  0  0
   58.2270   22.9210   44.9330 C   0  0  0  0  0  0  0  0  0  0  0  0
   57.7800   21.7020   44.4590 C   0  0  0  0  0  0  0  0  0  0  0  0
   56.7530   21.6940   43.5100 C   0  0  0  0  0  0  0  0  0  0  0  0
   56.2680   20.4730   43.0020 O   0  0  0  0  0  0  0  0  0  0  0  0
   56.2140   22.8970   43.0700 C   0  0  0  0  0  0  0  0  0  0  0  0
   56.6540   24.1060   43.5370 C   0  0  0  0  0  0  0  0  0  0  0  0
   59.0700   25.6510   45.9220 N   0  0  0  0  0  0  0  0  0  0  0  0
   59.1850   26.9620   46.0640 N   0  0  0  0  0  0  0  0  0  0  0  0
   57.1940   29.4560   44.1180 C   0  0  0  0  0  0  0  0  0  0  0  0
   56.9660   30.8160   43.9160 C   0  0  0  0  0  0  0  0  0  0  0  0
   57.8746   34.0204   46.1495 H   0  0  0  0  0  0  0  0  0  0  0  0
   59.0109   34.2964   44.7860 H   0  0  0  0  0  0  0  0  0  0  0  0
   57.3987   35.0885   44.7860 H   0  0  0  0  0  0  0  0  0  0  0  0
   59.2067   32.0824   46.1463 H   0  0  0  0  0  0  0  0  0  0  0  0
   59.6171   29.6467   46.5106 H   0  0  0  0  0  0  0  0  0  0  0  0
   56.9028   26.7877   43.7507 H   0  0  0  0  0  0  0  0  0  0  0  0
   59.0334   22.9470   45.6807 H   0  0  0  0  0  0  0  0  0  0  0  0
   58.2214   20.7611   44.8195 H   0  0  0  0  0  0  0  0  0  0  0  0
   56.8400   19.6430   43.1540 H   0  0  0  0  0  0  0  0  0  0  0  0
   55.4076   22.8769   42.3221 H   0  0  0  0  0  0  0  0  0  0  0  0
   56.2119   25.0460   43.1753 H   0  0  0  0  0  0  0  0  0  0  0  0
   59.6090   24.9300   46.4550 H   0  0  0  0  0  0  0  0  0  0  0  0
   56.6243   28.7119   43.5420 H   0  0  0  0  0  0  0  0  0  0  0  0
   56.2164   31.1501   43.1836 H   0  0  0  0  0  0  0  0  0  0  0  0
  1  2  1  0
  2  3  1  0
  3  4  2  0
  4  5  1  0
  5  6  2  0
  6  7  1  0
  7  8  1  0
  8  9  2  0
  9 10  1  0
 10 11  2  0
 11 12  1  0
 12 13  2  0
 13 14  1  0
 13 15  1  0
 15 16  2  0
  9 17  1  0
 17 18  1  0
  6 19  1  0
 19 20  2  0
 20  3  1  0
 18  7  2  0
 16 10  1  0
  1 21  1  0
  1 22  1  0
  1 23  1  0
  4 24  1  0
  5 25  1  0
  8 26  1  0
 11 27  1  0
 12 28  1  0
 14 29  1  0
 15 30  1  0
 16 31  1  0
 17 32  1  0
 19 33  1  0
 20 34  1  0
M  END
>  <smiles>  (71) 
COc1ccc(-c2cc(-c3ccc(O)cc3)[nH]n2)cc1

>  <score_type>  (71) 
oracle

>  <origin>  (71) 
adg

>  <m_score__min__energy>  (71) 
-6.9900000000000002

>  <m_primary>  (71) 
energy

$$$$
71:0
     RDKit          3D

 57 60  0  0  1  0  0  0  0  0999 V2000
   56.2930   29.8640   42.6890 C   0  0  0  0  0  0  0  0  0  0  0  0
   56.7990   30.2620   44.3410 S   0  0  0  0  0  0  0  0  0  0  0  0
   56.2630   31.5940   44.7780 O   0  0  0  0  0  0  0  0  0  0  0  0
   56.1860   29.2260   45.2610 O   0  0  0  0  0  0  0  0  0  0  0  0
   58.5490   30.1800   44.5320 C   0  0  0  0  0  0  0  0  0  0  0  0
   58.9000   29.6150   45.8680 C   0  0  0  0  0  0  0  0  0  0  0  0
   58.8730   28.2400   46.0760 C   0  0  0  0  0  0  0  0  0  0  0  0
   59.1960   27.7280   47.3080 C   0  0  0  0  0  0  0  0  0  0  0  0
   59.5480   28.5790   48.3370 C   0  0  0  0  0  0  0  0  0  0  0  0
   59.8710   27.9670   49.5890 N   0  0  0  0  0  0  0  0  0  0  0  0
   60.3870   28.6250   50.5660 C   0  0  0  0  0  0  0  0  0  0  0  0
   59.5860   28.9020   51.6080 N   0  0  0  0  0  0  0  0  0  0  0  0
   60.1210   29.5900   52.6330 C   0  0  0  0  0  0  0  0  0  0  0  0
   61.4430   29.9810   52.5820 C   0  0  0  0  0  0  0  0  0  0  0  0
   62.1010   30.8750   53.9320 Cl  0  0  0  0  0  0  0  0  0  0  0  0
   62.2540   29.6940   51.5110 C   0  0  0  0  0  0  0  0  0  0  0  0
   63.5640   30.0370   51.3730 O   0  0  0  0  0  0  0  0  0  0  0  0
   63.9490   31.0900   50.5710 C   0  0  0  0  0  0  0  0  0  0  0  0
   65.0750   31.8320   50.9460 C   0  0  0  0  0  0  0  0  0  0  0  0
   65.5020   32.9090   50.1620 C   0  0  0  0  0  0  0  0  0  0  0  0
   64.7780   33.2130   49.0130 C   0  0  0  0  0  0  0  0  0  0  0  0
   63.6720   32.5070   48.6200 C   0  0  0  0  0  0  0  0  0  0  0  0
   62.9950   32.8920   47.4290 N   0  0  0  0  0  0  0  0  0  0  0  0
   61.9040   33.8100   47.4860 C   0  0  0  0  0  0  0  0  0  0  0  0
   61.5850   34.2470   48.6160 O   0  0  0  0  0  0  0  0  0  0  0  0
   61.2470   34.1750   46.2790 N   0  0  0  0  0  0  0  0  0  0  0  0
   59.9730   33.9810   46.2150 C   0  0  0  0  0  0  0  0  0  0  0  0
   59.2020   33.5880   47.2810 C   0  0  0  0  0  0  0  0  0  0  0  0
   57.8480   33.4040   47.1290 C   0  0  0  0  0  0  0  0  0  0  0  0
   57.2140   33.5990   45.9390 N   0  0  0  0  0  0  0  0  0  0  0  0
   57.9770   33.9800   44.9150 C   0  0  0  0  0  0  0  0  0  0  0  0
   59.3380   34.1850   44.9900 C   0  0  0  0  0  0  0  0  0  0  0  0
   63.2610   31.4410   49.4060 C   0  0  0  0  0  0  0  0  0  0  0  0
   61.6760   28.9970   50.4950 N   0  0  0  0  0  0  0  0  0  0  0  0
   59.5850   29.9560   48.1650 C   0  0  0  0  0  0  0  0  0  0  0  0
   59.2560   30.4730   46.9120 C   0  0  0  0  0  0  0  0  0  0  0  0
   55.4288   29.1843   42.7239 H   0  0  0  0  0  0  0  0  0  0  0  0
   56.0129   30.7863   42.1591 H   0  0  0  0  0  0  0  0  0  0  0  0
   57.1234   29.3745   42.1591 H   0  0  0  0  0  0  0  0  0  0  0  0
   58.9699   29.5374   43.7447 H   0  0  0  0  0  0  0  0  0  0  0  0
   58.9648   31.1954   44.4533 H   0  0  0  0  0  0  0  0  0  0  0  0
   58.5933   27.5640   45.2546 H   0  0  0  0  0  0  0  0  0  0  0  0
   59.1745   26.6410   47.4754 H   0  0  0  0  0  0  0  0  0  0  0  0
   59.5056   29.8402   53.5098 H   0  0  0  0  0  0  0  0  0  0  0  0
   65.6261   31.5673   51.8604 H   0  0  0  0  0  0  0  0  0  0  0  0
   66.3857   33.4993   50.4459 H   0  0  0  0  0  0  0  0  0  0  0  0
   65.1090   34.0587   48.3923 H   0  0  0  0  0  0  0  0  0  0  0  0
   63.3010   32.4970   46.5110 H   0  0  0  0  0  0  0  0  0  0  0  0
   59.6702   33.4194   48.2620 H   0  0  0  0  0  0  0  0  0  0  0  0
   57.2550   33.0878   47.9999 H   0  0  0  0  0  0  0  0  0  0  0  0
   56.1740   33.4490   45.8550 H   0  0  0  0  0  0  0  0  0  0  0  0
   57.4872   34.1420   43.9435 H   0  0  0  0  0  0  0  0  0  0  0  0
   59.9095   34.5018   44.1051 H   0  0  0  0  0  0  0  0  0  0  0  0
   62.3761   30.8602   49.1067 H   0  0  0  0  0  0  0  0  0  0  0  0
   62.2120   28.7300   49.6360 H   0  0  0  0  0  0  0  0  0  0  0  0
   59.8662   30.6215   48.9945 H   0  0  0  0  0  0  0  0  0  0  0  0
   59.2768   31.5601   46.7450 H   0  0  0  0  0  0  0  0  0  0  0  0
  1  2  1  0
  2  3  2  0
  2  4  2  0
  2  5  1  0
  5  6  1  0
  6  7  2  0
  7  8  1  0
  8  9  2  0
  9 10  1  0
 10 11  2  0
 11 12  1  0
 12 13  2  0
 13 14  1  0
 14 15  1  0
 14 16  2  0
 16 17  1  0
 17 18  1  0
 18 19  2  0
 19 20  1  0
 20 21  2  0
 21 22  1  0
 22 23  1  0
 23 24  1  0
 24 25  2  0
 24 26  1  0
 26 27  2  3
 27 28  1  0
 28 29  2  0
 29 30  1  0
 30 31  1  0
 31 32  2  0
 22 33  2  0
 16 34  1  0
  9 35  1  0
 35 36  2  0
 36  6  1  0
 34 11  1  0
 33 18  1  0
 32 27  1  0
  1 37  1  0
  1 38  1  0
  1 39  1  0
  5 40  1  0
  5 41  1  0
  7 42  1  0
  8 43  1  0
 13 44  1  0
 19 45  1  0
 20 46  1  0
 21 47  1  0
 23 48  1  0
 28 49  1  0
 29 50  1  0
 30 51  1  0
 31 52  1  0
 32 53  1  0
 33 54  1  0
 34 55  1  0
 35 56  1  0
 36 57  1  0
M  END
>  <smiles>  (72) 
CS(=O)(=O)Cc1ccc(N=c2ncc(Cl)c(Oc3cccc(NC(=O)N=c4cc[nH]cc4)c3)[nH]2)cc1

>  <score_type>  (72) 
oracle

>  <origin>  (72) 
adg

>  <m_score__min__energy>  (72) 
-10.44

>  <m_primary>  (72) 
energy

$$$$
72:0
     RDKit          3D

 50 52  0  0  0  0  0  0  0  0999 V2000
   54.7460   26.3360   45.9840 O   0  0  0  0  0  0  0  0  0  0  0  0
   55.9040   26.0720   46.3990 C   0  0  0  0  0  0  0  0  0  0  0  0
   56.1610   24.8400   46.9880 O   0  0  0  0  0  0  0  0  0  0  0  0
   56.9860   27.1020   46.3170 C   0  0  0  0  0  0  0  0  0  0  0  0
   57.4120   27.3140   44.8590 C   0  0  0  0  0  0  0  0  0  0  0  0
   57.6540   28.8000   44.5310 C   0  0  1  0  0  0  0  0  0  0  0  0
   56.4220   29.6270   44.7690 C   0  0  0  0  0  0  0  0  0  0  0  0
   56.5100   30.8790   44.8660 O   0  0  0  0  0  0  0  0  0  0  0  0
   55.1780   29.0180   44.8830 O   0  0  0  0  0  0  0  0  0  0  0  0
   58.7590   29.3210   45.3400 N   0  0  0  0  0  0  0  0  0  0  0  0
   58.6410   29.8890   46.5560 C   0  0  0  0  0  0  0  0  0  0  0  0
   59.9130   30.2160   46.9850 C   0  0  0  0  0  0  0  0  0  0  0  0
   60.3100   30.8280   48.2210 N   0  0  0  0  0  0  0  0  0  0  0  0
   60.9290   30.1310   49.3140 C   0  0  0  0  0  0  0  0  0  0  0  0
   61.1340   28.8910   49.2520 O   0  0  0  0  0  0  0  0  0  0  0  0
   61.3400   30.8720   50.5210 C   0  0  0  0  0  0  0  0  0  0  0  0
   62.5660   30.5350   51.1200 C   0  0  0  0  0  0  0  0  0  0  0  0
   62.9840   31.1740   52.2880 C   0  0  0  0  0  0  0  0  0  0  0  0
   62.1870   32.1580   52.8690 C   0  0  0  0  0  0  0  0  0  0  0  0
   60.9760   32.5190   52.2750 C   0  0  0  0  0  0  0  0  0  0  0  0
   60.5400   31.8920   51.0960 C   0  0  0  0  0  0  0  0  0  0  0  0
   59.0630   32.4800   50.3100 S   0  0  0  0  0  0  0  0  0  0  0  0
   58.1560   33.1070   51.3320 O   0  0  0  0  0  0  0  0  0  0  0  0
   58.3220   31.3320   49.6870 O   0  0  0  0  0  0  0  0  0  0  0  0
   59.4880   33.7080   49.1550 N   0  0  0  0  0  0  0  0  0  0  0  0
   59.0700   33.8350   47.7890 C   0  0  0  0  0  0  0  0  0  0  0  0
   57.8730   33.2760   47.3000 C   0  0  0  0  0  0  0  0  0  0  0  0
   57.5120   33.4490   45.9580 C   0  0  0  0  0  0  0  0  0  0  0  0
   58.3290   34.1900   45.1010 C   0  0  0  0  0  0  0  0  0  0  0  0
   59.5070   34.7640   45.5840 C   0  0  0  0  0  0  0  0  0  0  0  0
   59.8710   34.5920   46.9220 C   0  0  0  0  0  0  0  0  0  0  0  0
   60.7650   29.8020   45.9830 C   0  0  0  0  0  0  0  0  0  0  0  0
   60.0370   29.2600   44.9870 N   0  0  0  0  0  0  0  0  0  0  0  0
   56.6140   28.0522   46.7279 H   0  0  0  0  0  0  0  0  0  0  0  0
   57.8544   26.7545   46.8959 H   0  0  0  0  0  0  0  0  0  0  0  0
   58.3421   26.7556   44.6774 H   0  0  0  0  0  0  0  0  0  0  0  0
   56.5960   26.9555   44.2143 H   0  0  0  0  0  0  0  0  0  0  0  0
   57.9114   28.8676   43.4637 H   0  0  0  0  0  0  0  0  0  0  0  0
   57.7041   30.0608   47.1062 H   0  0  0  0  0  0  0  0  0  0  0  0
   60.0530   31.8320   48.3640 H   0  0  0  0  0  0  0  0  0  0  0  0
   63.2013   29.7612   50.6643 H   0  0  0  0  0  0  0  0  0  0  0  0
   63.9438   30.9005   52.7505 H   0  0  0  0  0  0  0  0  0  0  0  0
   62.5122   32.6512   53.7969 H   0  0  0  0  0  0  0  0  0  0  0  0
   60.3567   33.3029   52.7353 H   0  0  0  0  0  0  0  0  0  0  0  0
   57.2201   32.7021   47.9741 H   0  0  0  0  0  0  0  0  0  0  0  0
   56.5825   33.0001   45.5778 H   0  0  0  0  0  0  0  0  0  0  0  0
   58.0448   34.3213   44.0465 H   0  0  0  0  0  0  0  0  0  0  0  0
   60.1485   35.3517   44.9109 H   0  0  0  0  0  0  0  0  0  0  0  0
   60.7949   35.0549   47.2989 H   0  0  0  0  0  0  0  0  0  0  0  0
   61.8607   29.8985   45.9948 H   0  0  0  0  0  0  0  0  0  0  0  0
  1  2  2  0
  2  3  1  0
  2  4  1  0
  4  5  1  0
  5  6  1  0
  6  7  1  0
  7  8  2  0
  7  9  1  0
  6 10  1  0
 10 11  1  0
 11 12  2  0
 12 13  1  0
 13 14  1  0
 14 15  2  0
 14 16  1  0
 16 17  2  0
 17 18  1  0
 18 19  2  0
 19 20  1  0
 20 21  2  0
 21 22  1  0
 22 23  2  0
 22 24  2  0
 22 25  1  0
 25 26  1  0
 26 27  2  0
 27 28  1  0
 28 29  2  0
 29 30  1  0
 30 31  2  0
 12 32  1  0
 32 33  2  0
 33 10  1  0
 21 16  1  0
 31 26  1  0
  4 34  1  0
  4 35  1  0
  5 36  1  0
  5 37  1  0
  6 38  1  6
 11 39  1  0
 13 40  1  0
 17 41  1  0
 18 42  1  0
 19 43  1  0
 20 44  1  0
 27 45  1  0
 28 46  1  0
 29 47  1  0
 30 48  1  0
 31 49  1  0
 32 50  1  0
M  CHG  3   3  -1   9  -1  25  -1
M  END
>  <UniqueID>  (73) 
64

>  <SMILES>  (73) 
O=C([O-])CC[C@@H](C(=O)[O-])n1cc(NC(=O)c2ccccc2S(=O)(=O)[N-]c2ccccc2)cn1

>  <Energy>  (73) 
89.97746483442555

>  <Genealogy>  (73) 
O=C([O-])CCC(C(=O)[O-])n1cc(NC(=O)c2ccccc2S(=O)(=O)[N-]c2ccccc2)cn1 (protonated)
O=C([O-])CC[C@@H](C(=O)[O-])n1cc(NC(=O)c2ccccc2S(=O)(=O)[N-]c2ccccc2)cn1 (chirality)
O=C([O-])CC[C@@H](C(=O)[O-])n1cc(NC(=O)c2ccccc2S(=O)(=O)[N-]c2ccccc2)cn1 (3D coordinates assigned)
O=C([O-])CC[C@@H](C(=O)[O-])n1cc(NC(=O)c2ccccc2S(=O)(=O)[N-]c2ccccc2)cn1 (optimized conformer: 89.97746483442555 kcal/mol)

>  <smiles>  (73) 
O=C(O)CCC(C(=O)O)n1cc(NC(=O)c2ccccc2S(=O)(=O)Nc2ccccc2)cn1

>  <score_type>  (73) 
oracle

>  <origin>  (73) 
adg

>  <m_score__min__energy>  (73) 
-15.49

>  <m_primary>  (73) 
energy

$$$$
73:0
     RDKit          3D

 51 54  0  0  0  0  0  0  0  0999 V2000
   59.9650   26.3900   46.9510 C   0  0  0  0  0  0  0  0  0  0  0  0
   59.1910   27.5150   47.6290 C   0  0  0  0  0  0  0  0  0  0  0  0
   59.9530   28.7700   47.6120 N   0  0  0  0  0  0  0  0  0  0  0  0
   60.3830   29.4870   46.5450 C   0  0  0  0  0  0  0  0  0  0  0  0
   60.0630   29.1970   45.1070 C   0  0  0  0  0  0  0  0  0  0  0  0
   58.6680   29.6530   44.7750 C   0  0  0  0  0  0  0  0  0  0  0  0
   57.5630   28.8790   45.1650 C   0  0  0  0  0  0  0  0  0  0  0  0
   56.2670   29.2770   44.8240 C   0  0  0  0  0  0  0  0  0  0  0  0
   56.0650   30.4540   44.0970 C   0  0  0  0  0  0  0  0  0  0  0  0
   57.1580   31.2360   43.7130 C   0  0  0  0  0  0  0  0  0  0  0  0
   58.4570   30.8400   44.0520 C   0  0  0  0  0  0  0  0  0  0  0  0
   61.1050   30.5610   46.9290 N   0  0  0  0  0  0  0  0  0  0  0  0
   61.1450   30.5270   48.2500 N   0  0  0  0  0  0  0  0  0  0  0  0
   60.4390   29.4620   48.6640 C   0  0  0  0  0  0  0  0  0  0  0  0
   60.2080   29.0360   50.3960 S   0  0  0  0  0  0  0  0  0  0  0  0
   58.7400   30.0980   50.6490 C   0  0  0  0  0  0  0  0  0  0  0  0
   58.9470   31.4630   50.0670 C   0  0  0  0  0  0  0  0  0  0  0  0
   58.5920   31.7410   48.7840 N   0  0  0  0  0  0  0  0  0  0  0  0
   58.9130   33.0050   48.4270 C   0  0  0  0  0  0  0  0  0  0  0  0
   58.6790   33.5320   47.1070 N   0  0  0  0  0  0  0  0  0  0  0  0
   59.7980   34.0370   46.3050 C   0  0  0  0  0  0  0  0  0  0  0  0
   59.2900   34.9930   45.2210 C   0  0  0  0  0  0  0  0  0  0  0  0
   58.2390   34.4040   44.4820 O   0  0  0  0  0  0  0  0  0  0  0  0
   57.1190   34.2170   45.3250 C   0  0  0  0  0  0  0  0  0  0  0  0
   57.4250   33.1940   46.4210 C   0  0  0  0  0  0  0  0  0  0  0  0
   59.6580   33.8310   49.6970 S   0  0  0  0  0  0  0  0  0  0  0  0
   59.5630   32.5160   50.7410 C   0  0  0  0  0  0  0  0  0  0  0  0
   60.1660   32.5020   52.3870 Cl  0  0  0  0  0  0  0  0  0  0  0  0
   60.4126   25.7395   47.7168 H   0  0  0  0  0  0  0  0  0  0  0  0
   59.2805   25.8003   46.3235 H   0  0  0  0  0  0  0  0  0  0  0  0
   60.7604   26.8185   46.3235 H   0  0  0  0  0  0  0  0  0  0  0  0
   58.2393   27.6660   47.0985 H   0  0  0  0  0  0  0  0  0  0  0  0
   59.0108   27.2314   48.6764 H   0  0  0  0  0  0  0  0  0  0  0  0
   60.7800   29.7269   44.4627 H   0  0  0  0  0  0  0  0  0  0  0  0
   60.1320   28.1121   44.9391 H   0  0  0  0  0  0  0  0  0  0  0  0
   57.7180   27.9551   45.7416 H   0  0  0  0  0  0  0  0  0  0  0  0
   55.4058   28.6638   45.1278 H   0  0  0  0  0  0  0  0  0  0  0  0
   55.0450   30.7649   43.8270 H   0  0  0  0  0  0  0  0  0  0  0  0
   56.9972   32.1635   43.1439 H   0  0  0  0  0  0  0  0  0  0  0  0
   59.3151   31.4593   43.7518 H   0  0  0  0  0  0  0  0  0  0  0  0
   61.6360   31.2280   48.8490 H   0  0  0  0  0  0  0  0  0  0  0  0
   57.8713   29.6296   50.1633 H   0  0  0  0  0  0  0  0  0  0  0  0
   58.5715   30.2044   51.7308 H   0  0  0  0  0  0  0  0  0  0  0  0
   60.5007   34.5726   46.9602 H   0  0  0  0  0  0  0  0  0  0  0  0
   60.3033   33.1872   45.8228 H   0  0  0  0  0  0  0  0  0  0  0  0
   58.9235   35.9147   45.6965 H   0  0  0  0  0  0  0  0  0  0  0  0
   60.1192   35.2187   44.5344 H   0  0  0  0  0  0  0  0  0  0  0  0
   56.8556   35.1774   45.7922 H   0  0  0  0  0  0  0  0  0  0  0  0
   56.2814   33.8422   44.7184 H   0  0  0  0  0  0  0  0  0  0  0  0
   56.6028   33.1899   47.1517 H   0  0  0  0  0  0  0  0  0  0  0  0
   57.5290   32.2006   45.9603 H   0  0  0  0  0  0  0  0  0  0  0  0
  1  2  1  0
  2  3  1  0
  3  4  1  0
  4  5  1  0
  5  6  1  0
  6  7  2  0
  7  8  1  0
  8  9  2  0
  9 10  1  0
 10 11  2  0
  4 12  2  0
 12 13  1  0
 13 14  2  0
 14 15  1  0
 15 16  1  0
 16 17  1  0
 17 18  1  0
 18 19  2  0
 19 20  1  0
 20 21  1  0
 21 22  1  0
 22 23  1  0
 23 24  1  0
 24 25  1  0
 19 26  1  0
 26 27  1  0
 27 28  1  0
 14  3  1  0
 27 17  2  0
 11  6  1  0
 25 20  1  0
  1 29  1  0
  1 30  1  0
  1 31  1  0
  2 32  1  0
  2 33  1  0
  5 34  1  0
  5 35  1  0
  7 36  1  0
  8 37  1  0
  9 38  1  0
 10 39  1  0
 11 40  1  0
 13 41  1  0
 16 42  1  0
 16 43  1  0
 21 44  1  0
 21 45  1  0
 22 46  1  0
 22 47  1  0
 24 48  1  0
 24 49  1  0
 25 50  1  0
 25 51  1  0
M  CHG  1  13   1
M  END
>  <UniqueID>  (74) 
65

>  <SMILES>  (74) 
CCn1c(Cc2ccccc2)n[nH+]c1SCc1nc(N2CCOCC2)sc1Cl

>  <Energy>  (74) 
108.59154034261832

>  <Genealogy>  (74) 
CCn1c(Cc2ccccc2)n[nH+]c1SCc1nc(N2CCOCC2)sc1Cl (protonated)
CCn1c(Cc2ccccc2)n[nH+]c1SCc1nc(N2CCOCC2)sc1Cl (3D coordinates assigned)
CCn1c(Cc2ccccc2)n[nH+]c1SCc1nc(N2CCOCC2)sc1Cl (nonaromatic ring conformer: 108.59154034261832 kcal/mol)

>  <smiles>  (74) 
CCn1c(Cc2ccccc2)nnc1SCc1nc(N2CCOCC2)sc1Cl

>  <score_type>  (74) 
oracle

>  <origin>  (74) 
adg

>  <m_score__min__energy>  (74) 
-6.9100000000000001

>  <m_primary>  (74) 
energy

$$$$
74:0
     RDKit          3D

 44 46  0  0  0  0  0  0  0  0999 V2000
   55.7080   23.7080   43.8760 C   0  0  0  0  0  0  0  0  0  0  0  0
   55.6180   24.1650   45.1290 C   0  0  0  0  0  0  0  0  0  0  0  0
   54.4150   24.9210   45.6150 C   0  0  0  0  0  0  0  0  0  0  0  0
   54.7910   26.2810   45.9790 N   0  0  0  0  0  0  0  0  0  0  0  0
   56.1440   26.6940   46.2010 C   0  0  0  0  0  0  0  0  0  0  0  0
   56.9010   26.0250   46.9530 O   0  0  0  0  0  0  0  0  0  0  0  0
   56.6720   27.8990   45.4980 C   0  0  0  0  0  0  0  0  0  0  0  0
   58.4760   27.7420   45.3100 S   0  0  0  0  0  0  0  0  0  0  0  0
   58.8020   29.3940   45.9270 C   0  0  0  0  0  0  0  0  0  0  0  0
   59.3790   29.5580   47.1450 N   0  0  0  0  0  0  0  0  0  0  0  0
   59.6410   30.7980   47.6510 C   0  0  0  0  0  0  0  0  0  0  0  0
   60.1790   30.8870   48.7870 O   0  0  0  0  0  0  0  0  0  0  0  0
   59.3200   31.9280   46.9300 N   0  0  0  0  0  0  0  0  0  0  0  0
   59.5800   33.2770   47.4710 C   0  0  0  0  0  0  0  0  0  0  0  0
   61.0460   33.4650   47.7680 C   0  0  0  0  0  0  0  0  0  0  0  0
   62.0190   33.1480   46.8080 C   0  0  0  0  0  0  0  0  0  0  0  0
   63.3730   33.3240   47.1000 C   0  0  0  0  0  0  0  0  0  0  0  0
   63.7450   33.8070   48.3550 C   0  0  0  0  0  0  0  0  0  0  0  0
   62.7930   34.0990   49.2810 N   0  0  0  0  0  0  0  0  0  0  0  0
   61.4680   33.9380   49.0210 C   0  0  0  0  0  0  0  0  0  0  0  0
   58.7320   31.7670   45.7020 C   0  0  0  0  0  0  0  0  0  0  0  0
   58.4710   30.5260   45.1890 C   0  0  0  0  0  0  0  0  0  0  0  0
   57.8240   30.5850   43.8570 C   0  0  0  0  0  0  0  0  0  0  0  0
   57.7530   32.0900   43.5440 C   0  0  0  0  0  0  0  0  0  0  0  0
   58.2930   32.8440   44.7740 C   0  0  0  0  0  0  0  0  0  0  0  0
   56.6046   23.1579   43.5543 H   0  0  0  0  0  0  0  0  0  0  0  0
   54.8855   23.8821   43.1667 H   0  0  0  0  0  0  0  0  0  0  0  0
   56.4500   23.9818   45.8248 H   0  0  0  0  0  0  0  0  0  0  0  0
   53.6591   24.9540   44.8165 H   0  0  0  0  0  0  0  0  0  0  0  0
   54.0036   24.4125   46.4994 H   0  0  0  0  0  0  0  0  0  0  0  0
   56.2046   27.9799   44.5055 H   0  0  0  0  0  0  0  0  0  0  0  0
   56.4392   28.8000   46.0846 H   0  0  0  0  0  0  0  0  0  0  0  0
   59.2630   34.0282   46.7326 H   0  0  0  0  0  0  0  0  0  0  0  0
   59.0142   33.3950   48.4069 H   0  0  0  0  0  0  0  0  0  0  0  0
   61.7148   32.7605   45.8245 H   0  0  0  0  0  0  0  0  0  0  0  0
   64.1390   33.0842   46.3479 H   0  0  0  0  0  0  0  0  0  0  0  0
   64.8086   33.9516   48.5954 H   0  0  0  0  0  0  0  0  0  0  0  0
   60.7243   34.1791   49.7948 H   0  0  0  0  0  0  0  0  0  0  0  0
   58.4288   30.0573   43.1048 H   0  0  0  0  0  0  0  0  0  0  0  0
   56.8353   30.1029   43.8448 H   0  0  0  0  0  0  0  0  0  0  0  0
   58.3691   32.3198   42.6621 H   0  0  0  0  0  0  0  0  0  0  0  0
   56.7178   32.3926   43.3274 H   0  0  0  0  0  0  0  0  0  0  0  0
   59.1404   33.4877   44.4954 H   0  0  0  0  0  0  0  0  0  0  0  0
   57.5394   33.5062   45.2252 H   0  0  0  0  0  0  0  0  0  0  0  0
  1  2  2  0
  2  3  1  0
  3  4  1  0
  4  5  1  0
  5  6  2  0
  5  7  1  0
  7  8  1  0
  8  9  1  0
  9 10  2  0
 10 11  1  0
 11 12  2  0
 11 13  1  0
 13 14  1  0
 14 15  1  0
 15 16  2  0
 16 17  1  0
 17 18  2  0
 18 19  1  0
 19 20  2  0
 13 21  1  0
 21 22  2  0
 22 23  1  0
 23 24  1  0
 24 25  1  0
 22  9  1  0
 20 15  1  0
 25 21  1  0
  1 26  1  0
  1 27  1  0
  2 28  1  0
  3 29  1  0
  3 30  1  0
  7 31  1  0
  7 32  1  0
 14 33  1  0
 14 34  1  0
 16 35  1  0
 17 36  1  0
 18 37  1  0
 20 38  1  0
 23 39  1  0
 23 40  1  0
 24 41  1  0
 24 42  1  0
 25 43  1  0
 25 44  1  0
M  CHG  1   4  -1
M  END
>  <UniqueID>  (75) 
66

>  <SMILES>  (75) 
C=CC[N-]C(=O)CSc1nc(=O)n(Cc2cccnc2)c2c1CCC2

>  <Energy>  (75) 
47.25425157143627

>  <Genealogy>  (75) 
C=CC[N-]C(=O)CSc1nc(=O)n(Cc2cccnc2)c2c1CCC2 (protonated)
C=CC[N-]C(=O)CSc1nc(=O)n(Cc2cccnc2)c2c1CCC2 (3D coordinates assigned)
C=CC[N-]C(=O)CSc1nc(=O)n(Cc2cccnc2)c2c1CCC2 (nonaromatic ring conformer: 47.25425157143627 kcal/mol)

>  <smiles>  (75) 
C=CCNC(=O)CSc1nc(=O)n(Cc2cccnc2)c2c1CCC2

>  <score_type>  (75) 
oracle

>  <origin>  (75) 
adg

>  <m_score__min__energy>  (75) 
-10.02

>  <m_primary>  (75) 
energy

$$$$
75:0
     RDKit          3D

 46 47  0  0  0  0  0  0  0  0999 V2000
   63.0540   33.8170   47.5740 C   0  0  0  0  0  0  0  0  0  0  0  0
   61.9190   32.9680   47.9570 N   0  0  0  0  0  0  0  0  0  0  0  0
   61.8510   31.6810   47.4940 C   0  0  0  0  0  0  0  0  0  0  0  0
   60.7690   30.8480   47.8270 C   0  0  0  0  0  0  0  0  0  0  0  0
   60.7150   29.4540   47.3270 C   0  0  0  0  0  0  0  0  0  0  0  0
   60.7460   28.4990   48.1520 O   0  0  0  0  0  0  0  0  0  0  0  0
   60.6430   29.1720   45.9200 N   0  0  0  0  0  0  0  0  0  0  0  0
   60.3400   27.8390   45.4060 C   0  0  0  0  0  0  0  0  0  0  0  0
   58.8770   27.5350   45.5840 C   0  0  0  0  0  0  0  0  0  0  0  0
   58.4810   26.3260   46.1720 C   0  0  0  0  0  0  0  0  0  0  0  0
   57.1270   26.0230   46.3130 C   0  0  0  0  0  0  0  0  0  0  0  0
   56.1550   26.9220   45.8650 C   0  0  0  0  0  0  0  0  0  0  0  0
   54.8090   26.6060   46.0130 O   0  0  0  0  0  0  0  0  0  0  0  0
   56.5300   28.1350   45.2720 C   0  0  0  0  0  0  0  0  0  0  0  0
   55.5150   29.0080   44.8420 O   0  0  0  0  0  0  0  0  0  0  0  0
   55.4950   29.7150   43.6020 C   0  0  0  0  0  0  0  0  0  0  0  0
   56.5520   30.8280   43.5670 C   0  0  0  0  0  0  0  0  0  0  0  0
   56.6760   31.4960   44.8660 N   0  0  0  0  0  0  0  0  0  0  0  0
   58.1580   32.4010   45.0240 S   0  0  0  0  0  0  0  0  0  0  0  0
   58.0780   33.6260   46.3180 C   0  0  0  0  0  0  0  0  0  0  0  0
   59.2600   31.4380   45.3630 O   0  0  0  0  0  0  0  0  0  0  0  0
   58.4930   33.0680   43.7210 O   0  0  0  0  0  0  0  0  0  0  0  0
   57.9000   28.4340   45.1250 C   0  0  0  0  0  0  0  0  0  0  0  0
   59.7640   31.3610   48.6600 C   0  0  0  0  0  0  0  0  0  0  0  0
   59.8410   32.6730   49.1210 C   0  0  0  0  0  0  0  0  0  0  0  0
   60.9260   33.4720   48.7570 C   0  0  0  0  0  0  0  0  0  0  0  0
   60.9810   34.6610   49.1760 O   0  0  0  0  0  0  0  0  0  0  0  0
   63.5541   34.1911   48.4795 H   0  0  0  0  0  0  0  0  0  0  0  0
   63.7671   33.2288   46.9778 H   0  0  0  0  0  0  0  0  0  0  0  0
   62.6912   34.6672   46.9778 H   0  0  0  0  0  0  0  0  0  0  0  0
   62.6554   31.2932   46.8517 H   0  0  0  0  0  0  0  0  0  0  0  0
   60.8540   29.9260   45.2290 H   0  0  0  0  0  0  0  0  0  0  0  0
   60.5929   27.7956   44.3363 H   0  0  0  0  0  0  0  0  0  0  0  0
   60.9317   27.0965   45.9615 H   0  0  0  0  0  0  0  0  0  0  0  0
   59.2413   25.6131   46.5238 H   0  0  0  0  0  0  0  0  0  0  0  0
   56.8231   25.0737   46.7782 H   0  0  0  0  0  0  0  0  0  0  0  0
   55.6955   29.0069   42.7844 H   0  0  0  0  0  0  0  0  0  0  0  0
   54.5042   30.1787   43.4871 H   0  0  0  0  0  0  0  0  0  0  0  0
   57.5238   30.3889   43.2973 H   0  0  0  0  0  0  0  0  0  0  0  0
   56.2390   31.5763   42.8240 H   0  0  0  0  0  0  0  0  0  0  0  0
   58.1106   33.1270   47.2978 H   0  0  0  0  0  0  0  0  0  0  0  0
   58.9333   34.3117   46.2271 H   0  0  0  0  0  0  0  0  0  0  0  0
   57.1408   34.1947   46.2271 H   0  0  0  0  0  0  0  0  0  0  0  0
   58.2057   29.3769   44.6480 H   0  0  0  0  0  0  0  0  0  0  0  0
   58.9137   30.7262   48.9497 H   0  0  0  0  0  0  0  0  0  0  0  0
   59.0499   33.0779   49.7693 H   0  0  0  0  0  0  0  0  0  0  0  0
  1  2  1  0
  2  3  1  0
  3  4  2  0
  4  5  1  0
  5  6  2  0
  5  7  1  0
  7  8  1  0
  8  9  1  0
  9 10  2  0
 10 11  1  0
 11 12  2  0
 12 13  1  0
 12 14  1  0
 14 15  1  0
 15 16  1  0
 16 17  1  0
 17 18  1  0
 18 19  1  0
 19 20  1  0
 19 21  2  0
 19 22  2  0
 14 23  2  0
  4 24  1  0
 24 25  2  0
 25 26  1  0
 26 27  2  0
 26  2  1  0
 23  9  1  0
  1 28  1  0
  1 29  1  0
  1 30  1  0
  3 31  1  0
  7 32  1  0
  8 33  1  0
  8 34  1  0
 10 35  1  0
 11 36  1  0
 16 37  1  0
 16 38  1  0
 17 39  1  0
 17 40  1  0
 20 41  1  0
 20 42  1  0
 20 43  1  0
 23 44  1  0
 24 45  1  0
 25 46  1  0
M  CHG  2  13  -1  18  -1
M  END
>  <UniqueID>  (76) 
67

>  <SMILES>  (76) 
Cn1cc(C(=O)NCc2ccc([O-])c(OCC[N-]S(C)(=O)=O)c2)ccc1=O

>  <Energy>  (76) 
42.43486643262592

>  <Genealogy>  (76) 
Cn1cc(C(=O)NCc2ccc([O-])c(OCC[N-]S(C)(=O)=O)c2)ccc1=O (protonated)
Cn1cc(C(=O)NCc2ccc([O-])c(OCC[N-]S(C)(=O)=O)c2)ccc1=O (3D coordinates assigned)
Cn1cc(C(=O)NCc2ccc([O-])c(OCC[N-]S(C)(=O)=O)c2)ccc1=O (optimized conformer: 42.43486643262592 kcal/mol)

>  <smiles>  (76) 
Cn1cc(C(=O)NCc2ccc(O)c(OCCNS(C)(=O)=O)c2)ccc1=O

>  <score_type>  (76) 
oracle

>  <origin>  (76) 
adg

>  <m_score__min__energy>  (76) 
-13.289999999999999

>  <m_primary>  (76) 
energy

$$$$
76:0
     RDKit          3D

 44 46  0  0  0  0  0  0  0  0999 V2000
   55.1660   30.2090   44.0460 C   0  0  0  0  0  0  0  0  0  0  0  0
   56.1740   29.3570   44.7440 C   0  0  0  0  0  0  0  0  0  0  0  0
   55.9050   28.1370   45.2480 N   0  0  0  0  0  0  0  0  0  0  0  0
   57.0240   27.6380   45.7580 N   0  0  0  0  0  0  0  0  0  0  0  0
   57.0850   25.9680   46.2470 S   0  0  0  0  0  0  0  0  0  0  0  0
   57.7740   24.9520   44.9570 C   0  0  0  0  0  0  0  0  0  0  0  0
   57.9810   25.8620   47.4490 O   0  0  0  0  0  0  0  0  0  0  0  0
   55.7240   25.4760   46.6490 O   0  0  0  0  0  0  0  0  0  0  0  0
   58.0210   28.5470   45.5670 C   0  0  0  0  0  0  0  0  0  0  0  0
   59.2690   28.4630   45.9340 N   0  0  0  0  0  0  0  0  0  0  0  0
   59.8930   28.9630   47.1180 C   0  0  0  0  0  0  0  0  0  0  0  0
   59.4830   28.5040   48.3770 C   0  0  0  0  0  0  0  0  0  0  0  0
   60.0160   29.0700   49.5390 C   0  0  0  0  0  0  0  0  0  0  0  0
   60.9420   30.1130   49.4470 C   0  0  0  0  0  0  0  0  0  0  0  0
   61.3270   30.6050   48.1930 C   0  0  0  0  0  0  0  0  0  0  0  0
   62.4570   31.9520   48.0860 S   0  0  0  0  0  0  0  0  0  0  0  0
   63.2090   31.8920   46.7850 O   0  0  0  0  0  0  0  0  0  0  0  0
   63.4480   31.8530   49.2110 O   0  0  0  0  0  0  0  0  0  0  0  0
   61.6110   33.4660   48.2030 N   0  0  0  0  0  0  0  0  0  0  0  0
   61.2690   33.9470   46.8630 C   0  0  0  0  0  0  0  0  0  0  0  0
   59.7870   33.8930   46.6740 C   0  0  0  0  0  0  0  0  0  0  0  0
   59.0780   34.5300   45.6780 C   0  0  0  0  0  0  0  0  0  0  0  0
   57.7540   34.2250   45.9130 C   0  0  0  0  0  0  0  0  0  0  0  0
   57.7400   33.4270   47.0400 C   0  0  0  0  0  0  0  0  0  0  0  0
   58.9670   33.2490   47.4730 O   0  0  0  0  0  0  0  0  0  0  0  0
   60.7780   30.0450   47.0300 C   0  0  0  0  0  0  0  0  0  0  0  0
   57.5140   29.6390   44.9000 C   0  0  0  0  0  0  0  0  0  0  0  0
   58.4510   31.2130   44.3500 Br  0  0  0  0  0  0  0  0  0  0  0  0
   54.5482   30.7312   44.7914 H   0  0  0  0  0  0  0  0  0  0  0  0
   55.6834   30.9477   43.4162 H   0  0  0  0  0  0  0  0  0  0  0  0
   54.5238   29.5758   43.4162 H   0  0  0  0  0  0  0  0  0  0  0  0
   58.3375   24.1210   45.4063 H   0  0  0  0  0  0  0  0  0  0  0  0
   56.9617   24.5496   44.3339 H   0  0  0  0  0  0  0  0  0  0  0  0
   58.4484   25.5578   44.3339 H   0  0  0  0  0  0  0  0  0  0  0  0
   58.7399   27.6963   48.4512 H   0  0  0  0  0  0  0  0  0  0  0  0
   59.7066   28.6945   50.5256 H   0  0  0  0  0  0  0  0  0  0  0  0
   61.3697   30.5488   50.3619 H   0  0  0  0  0  0  0  0  0  0  0  0
   60.7200   33.2750   48.7180 H   0  0  0  0  0  0  0  0  0  0  0  0
   61.6153   34.9846   46.7470 H   0  0  0  0  0  0  0  0  0  0  0  0
   61.7567   33.3098   46.1106 H   0  0  0  0  0  0  0  0  0  0  0  0
   59.4835   35.1514   44.8660 H   0  0  0  0  0  0  0  0  0  0  0  0
   56.8851   34.5512   45.3225 H   0  0  0  0  0  0  0  0  0  0  0  0
   56.8372   33.0042   47.5049 H   0  0  0  0  0  0  0  0  0  0  0  0
   61.0435   30.4571   46.0453 H   0  0  0  0  0  0  0  0  0  0  0  0
  1  2  1  0
  2  3  1  0
  3  4  1  0
  4  5  1  0
  5  6  1  0
  5  7  2  0
  5  8  2  0
  4  9  1  0
  9 10  2  3
 10 11  1  0
 11 12  2  0
 12 13  1  0
 13 14  2  0
 14 15  1  0
 15 16  1  0
 16 17  2  0
 16 18  2  0
 16 19  1  0
 19 20  1  0
 20 21  1  0
 21 22  2  0
 22 23  1  0
 23 24  2  0
 24 25  1  0
 15 26  2  0
  9 27  1  0
 27 28  1  0
 27  2  2  0
 26 11  1  0
 25 21  1  0
  1 29  1  0
  1 30  1  0
  1 31  1  0
  6 32  1  0
  6 33  1  0
  6 34  1  0
 12 35  1  0
 13 36  1  0
 14 37  1  0
 19 38  1  0
 20 39  1  0
 20 40  1  0
 22 41  1  0
 23 42  1  0
 24 43  1  0
 26 44  1  0
M  CHG  1   3  -1
M  END
>  <UniqueID>  (77) 
68

>  <SMILES>  (77) 
Cc1[n-]n(S(C)(=O)=O)c(=Nc2cccc(S(=O)(=O)NCc3ccco3)c2)c1Br

>  <Energy>  (77) 
113.1785406003315

>  <Genealogy>  (77) 
Cc1[n-]n(S(C)(=O)=O)c(=Nc2cccc(S(=O)(=O)NCc3ccco3)c2)c1Br (protonated)
Cc1[n-]n(S(C)(=O)=O)c(=Nc2cccc(S(=O)(=O)NCc3ccco3)c2)c1Br (3D coordinates assigned)
Cc1[n-]n(S(C)(=O)=O)c(=Nc2cccc(S(=O)(=O)NCc3ccco3)c2)c1Br (optimized conformer: 113.1785406003315 kcal/mol)

>  <smiles>  (77) 
Cc1[nH]n(S(C)(=O)=O)c(=Nc2cccc(S(=O)(=O)NCc3ccco3)c2)c1Br

>  <score_type>  (77) 
oracle

>  <origin>  (77) 
adg

>  <m_score__min__energy>  (77) 
-10.84

>  <m_primary>  (77) 
energy

$$$$
77:0
     RDKit          3D

 51 54  0  0  0  0  0  0  0  0999 V2000
   63.0380   32.0600   47.4740 C   0  0  0  0  0  0  0  0  0  0  0  0
   62.6540   33.5080   47.4030 C   0  0  0  0  0  0  0  0  0  0  0  0
   63.1210   34.2170   46.5260 O   0  0  0  0  0  0  0  0  0  0  0  0
   61.7210   34.1020   48.4230 C   0  0  0  0  0  0  0  0  0  0  0  0
   60.3790   34.3080   47.8350 N   0  0  0  0  0  0  0  0  0  0  0  0
   59.3190   33.6440   48.6220 C   0  0  0  0  0  0  0  0  0  0  0  0
   59.3820   32.1080   48.5190 C   0  0  0  0  0  0  0  0  0  0  0  0
   59.7640   31.6200   47.0990 C   0  0  0  0  0  0  0  0  0  0  0  0
   59.0440   30.3330   46.7350 C   0  0  0  0  0  0  0  0  0  0  0  0
   58.2500   30.2720   45.5790 C   0  0  0  0  0  0  0  0  0  0  0  0
   57.5820   29.0940   45.2360 C   0  0  0  0  0  0  0  0  0  0  0  0
   57.6890   27.9500   46.0450 C   0  0  0  0  0  0  0  0  0  0  0  0
   56.9870   26.6930   45.6870 C   0  0  0  0  0  0  0  0  0  0  0  0
   55.9900   26.3240   46.3670 O   0  0  0  0  0  0  0  0  0  0  0  0
   57.3970   25.9190   44.5470 N   0  0  0  0  0  0  0  0  0  0  0  0
   57.0640   24.5320   44.3620 C   0  0  0  0  0  0  0  0  0  0  0  0
   56.6860   24.0770   43.0760 C   0  0  0  0  0  0  0  0  0  0  0  0
   56.3740   22.7250   42.8540 C   0  0  0  0  0  0  0  0  0  0  0  0
   56.4580   21.8320   43.9200 C   0  0  0  0  0  0  0  0  0  0  0  0
   56.1910   20.5040   43.8340 N   0  0  0  0  0  0  0  0  0  0  0  0
   56.3690   19.8870   45.0280 C   0  0  0  0  0  0  0  0  0  0  0  0
   56.8680   20.9720   46.2290 S   0  0  0  0  0  0  0  0  0  0  0  0
   56.8470   22.2740   45.1730 C   0  0  0  0  0  0  0  0  0  0  0  0
   57.1620   23.6060   45.4250 C   0  0  0  0  0  0  0  0  0  0  0  0
   58.4950   28.0060   47.1950 C   0  0  0  0  0  0  0  0  0  0  0  0
   59.1630   29.1850   47.5390 C   0  0  0  0  0  0  0  0  0  0  0  0
   59.5230   32.7120   46.0460 C   0  0  0  0  0  0  0  0  0  0  0  0
   60.3250   33.9860   46.3820 C   0  0  0  0  0  0  0  0  0  0  0  0
   63.1193   31.7534   48.5273 H   0  0  0  0  0  0  0  0  0  0  0  0
   62.2700   31.4520   46.9734 H   0  0  0  0  0  0  0  0  0  0  0  0
   64.0063   31.9125   46.9734 H   0  0  0  0  0  0  0  0  0  0  0  0
   61.6398   33.4190   49.2814 H   0  0  0  0  0  0  0  0  0  0  0  0
   62.1207   35.0733   48.7499 H   0  0  0  0  0  0  0  0  0  0  0  0
   59.4309   33.9316   49.6778 H   0  0  0  0  0  0  0  0  0  0  0  0
   58.3491   33.9667   48.2155 H   0  0  0  0  0  0  0  0  0  0  0  0
   60.1330   31.7378   49.2324 H   0  0  0  0  0  0  0  0  0  0  0  0
   58.3789   31.7180   48.7461 H   0  0  0  0  0  0  0  0  0  0  0  0
   60.8418   31.4006   47.1096 H   0  0  0  0  0  0  0  0  0  0  0  0
   58.1529   31.1601   44.9372 H   0  0  0  0  0  0  0  0  0  0  0  0
   56.9669   29.0617   44.3247 H   0  0  0  0  0  0  0  0  0  0  0  0
   57.8660   26.4180   43.7570 H   0  0  0  0  0  0  0  0  0  0  0  0
   56.6359   24.7905   42.2403 H   0  0  0  0  0  0  0  0  0  0  0  0
   56.0687   22.3778   41.8559 H   0  0  0  0  0  0  0  0  0  0  0  0
   56.2087   18.8118   45.1964 H   0  0  0  0  0  0  0  0  0  0  0  0
   57.4795   23.9301   46.4271 H   0  0  0  0  0  0  0  0  0  0  0  0
   58.6012   27.1142   47.8301 H   0  0  0  0  0  0  0  0  0  0  0  0
   59.7861   29.2151   48.4450 H   0  0  0  0  0  0  0  0  0  0  0  0
   59.8373   32.3378   45.0605 H   0  0  0  0  0  0  0  0  0  0  0  0
   58.4519   32.9625   46.0377 H   0  0  0  0  0  0  0  0  0  0  0  0
   61.3549   33.8507   46.0202 H   0  0  0  0  0  0  0  0  0  0  0  0
   59.8075   34.8237   45.8917 H   0  0  0  0  0  0  0  0  0  0  0  0
  1  2  1  0
  2  3  2  0
  2  4  1  0
  4  5  1  0
  5  6  1  0
  6  7  1  0
  7  8  1  0
  8  9  1  0
  9 10  2  0
 10 11  1  0
 11 12  2  0
 12 13  1  0
 13 14  2  0
 13 15  1  0
 15 16  1  0
 16 17  2  0
 17 18  1  0
 18 19  2  0
 19 20  1  0
 20 21  2  0
 21 22  1  0
 22 23  1  0
 23 24  2  0
 12 25  1  0
 25 26  2  0
  8 27  1  0
 27 28  1  0
 28  5  1  0
 26  9  1  0
 24 16  1  0
 23 19  1  0
  1 29  1  0
  1 30  1  0
  1 31  1  0
  4 32  1  0
  4 33  1  0
  6 34  1  0
  6 35  1  0
  7 36  1  0
  7 37  1  0
  8 38  1  0
 10 39  1  0
 11 40  1  0
 15 41  1  0
 17 42  1  0
 18 43  1  0
 21 44  1  0
 24 45  1  0
 25 46  1  0
 26 47  1  0
 27 48  1  0
 27 49  1  0
 28 50  1  0
 28 51  1  0
M  END
>  <UniqueID>  (78) 
69

>  <SMILES>  (78) 
CC(=O)CN1CCC(c2ccc(C(=O)Nc3ccc4ncsc4c3)cc2)CC1

>  <Energy>  (78) 
101.22140847440055

>  <Genealogy>  (78) 
CC(=O)CN1CCC(c2ccc(C(=O)Nc3ccc4ncsc4c3)cc2)CC1 (3D coordinates assigned)
CC(=O)CN1CCC(c2ccc(C(=O)Nc3ccc4ncsc4c3)cc2)CC1 (nonaromatic ring conformer: 101.22140847440055 kcal/mol)

>  <smiles>  (78) 
CC(=O)CN1CCC(c2ccc(C(=O)Nc3ccc4ncsc4c3)cc2)CC1

>  <score_type>  (78) 
oracle

>  <origin>  (78) 
adg

>  <m_score__min__energy>  (78) 
-8.5500000000000007

>  <m_primary>  (78) 
energy

$$$$
78:0
     RDKit          3D

 33 35  0  0  0  0  0  0  0  0999 V2000
   58.1750   33.0300   43.2070 O   0  0  0  0  0  0  0  0  0  0  0  0
   57.6360   31.8990   43.3210 C   0  0  0  0  0  0  0  0  0  0  0  0
   57.2620   31.1090   42.2420 O   0  0  0  0  0  0  0  0  0  0  0  0
   56.6540   29.9980   42.8050 C   0  0  0  0  0  0  0  0  0  0  0  0
   56.1890   29.0350   42.1390 O   0  0  0  0  0  0  0  0  0  0  0  0
   56.6300   30.1160   44.2590 C   0  0  0  0  0  0  0  0  0  0  0  0
   56.1710   29.1020   45.1640 N   0  0  0  0  0  0  0  0  0  0  0  0
   56.9440   27.9430   45.5240 C   0  0  0  0  0  0  0  0  0  0  0  0
   58.3520   27.9740   45.5000 C   0  0  0  0  0  0  0  0  0  0  0  0
   59.0890   26.8440   45.8700 C   0  0  0  0  0  0  0  0  0  0  0  0
   58.4320   25.6820   46.2760 C   0  0  0  0  0  0  0  0  0  0  0  0
   57.0360   25.6450   46.3180 C   0  0  0  0  0  0  0  0  0  0  0  0
   56.2910   26.7700   45.9470 C   0  0  0  0  0  0  0  0  0  0  0  0
   54.9030   26.7130   45.9940 O   0  0  0  0  0  0  0  0  0  0  0  0
   57.2620   31.2450   44.5810 C   0  0  0  0  0  0  0  0  0  0  0  0
   57.5830   31.6830   45.9120 N   0  0  0  0  0  0  0  0  0  0  0  0
   58.5970   32.6550   46.2070 C   0  0  0  0  0  0  0  0  0  0  0  0
   58.2930   34.0220   46.1090 C   0  0  0  0  0  0  0  0  0  0  0  0
   59.2570   34.9840   46.4250 C   0  0  0  0  0  0  0  0  0  0  0  0
   60.5260   34.5890   46.8580 C   0  0  0  0  0  0  0  0  0  0  0  0
   60.8290   33.2310   46.9840 C   0  0  0  0  0  0  0  0  0  0  0  0
   59.8680   32.2660   46.6690 C   0  0  0  0  0  0  0  0  0  0  0  0
   55.2850   29.2920   45.6840 H   0  0  0  0  0  0  0  0  0  0  0  0
   58.8743   28.8907   45.1890 H   0  0  0  0  0  0  0  0  0  0  0  0
   60.1883   26.8716   45.8408 H   0  0  0  0  0  0  0  0  0  0  0  0
   59.0139   24.7939   46.5634 H   0  0  0  0  0  0  0  0  0  0  0  0
   56.5211   24.7291   46.6436 H   0  0  0  0  0  0  0  0  0  0  0  0
   57.0420   31.2960   46.7150 H   0  0  0  0  0  0  0  0  0  0  0  0
   57.2913   34.3378   45.7820 H   0  0  0  0  0  0  0  0  0  0  0  0
   59.0165   36.0534   46.3327 H   0  0  0  0  0  0  0  0  0  0  0  0
   61.2857   35.3470   47.0994 H   0  0  0  0  0  0  0  0  0  0  0  0
   61.8254   32.9207   47.3317 H   0  0  0  0  0  0  0  0  0  0  0  0
   60.1063   31.1982   46.7827 H   0  0  0  0  0  0  0  0  0  0  0  0
  1  2  2  0
  2  3  1  0
  3  4  1  0
  4  5  2  0
  4  6  1  0
  6  7  1  0
  7  8  1  0
  8  9  2  0
  9 10  1  0
 10 11  2  0
 11 12  1  0
 12 13  2  0
 13 14  1  0
  6 15  2  0
 15 16  1  0
 16 17  1  0
 17 18  2  0
 18 19  1  0
 19 20  2  0
 20 21  1  0
 21 22  2  0
 15  2  1  0
 22 17  1  0
 13  8  1  0
  7 23  1  0
  9 24  1  0
 10 25  1  0
 11 26  1  0
 12 27  1  0
 16 28  1  0
 18 29  1  0
 19 30  1  0
 20 31  1  0
 21 32  1  0
 22 33  1  0
M  CHG  1  14  -1
M  END
>  <UniqueID>  (79) 
70

>  <SMILES>  (79) 
O=C1OC(=O)C(Nc2ccccc2[O-])=C1Nc1ccccc1

>  <Energy>  (79) 
76.12908596645705

>  <Genealogy>  (79) 
O=C1OC(=O)C(Nc2ccccc2[O-])=C1Nc1ccccc1 (protonated)
O=C1OC(=O)C(Nc2ccccc2[O-])=C1Nc1ccccc1 (3D coordinates assigned)
O=C1OC(=O)C(Nc2ccccc2[O-])=C1Nc1ccccc1 (nonaromatic ring conformer: 76.12908596645705 kcal/mol)

>  <smiles>  (79) 
O=C1OC(=O)C(Nc2ccccc2O)=C1Nc1ccccc1

>  <score_type>  (79) 
oracle

>  <origin>  (79) 
adg

>  <m_score__min__energy>  (79) 
-11.529999999999999

>  <m_primary>  (79) 
energy

$$$$
79:0
     RDKit          3D

 50 52  0  0  0  0  0  0  0  0999 V2000
   54.3500   26.7030   46.7560 H   0  0  0  0  0  0  0  0  0  0  0  0
   54.8190   26.2270   45.9940 O   0  0  0  0  0  0  0  0  0  0  0  0
   55.8460   25.3200   46.2410 C   0  0  0  0  0  0  0  0  0  0  0  0
   55.5710   24.1470   46.8710 N   0  0  0  0  0  0  0  0  0  0  0  0
   56.5490   23.2430   47.1310 C   0  0  0  0  0  0  0  0  0  0  0  0
   56.1860   21.8430   47.8860 S   0  0  0  0  0  0  0  0  0  0  0  0
   57.8310   23.5090   46.7740 N   0  0  0  0  0  0  0  0  0  0  0  0
   58.1600   24.6660   46.1450 C   0  0  0  0  0  0  0  0  0  0  0  0
   59.3660   24.8930   45.8610 O   0  0  0  0  0  0  0  0  0  0  0  0
   57.1580   25.6050   45.8360 C   0  0  0  0  0  0  0  0  0  0  0  0
   57.4650   26.8940   45.1740 C   0  0  0  0  0  0  0  0  0  0  0  0
   57.2137   27.0057   44.1089 H   0  0  0  0  0  0  0  0  0  0  0  0
   58.0360   27.9370   45.8080 C   0  0  0  0  0  0  0  0  0  0  0  0
   58.7660   27.8790   46.9880 C   0  0  0  0  0  0  0  0  0  0  0  0
   58.9690   26.9820   47.5915 H   0  0  0  0  0  0  0  0  0  0  0  0
   59.1870   29.1650   47.2560 C   0  0  0  0  0  0  0  0  0  0  0  0
   60.0260   29.5540   48.4350 C   0  0  0  0  0  0  0  0  0  0  0  0
   59.4910   29.3059   49.3636 H   0  0  0  0  0  0  0  0  0  0  0  0
   60.9793   29.0060   48.4035 H   0  0  0  0  0  0  0  0  0  0  0  0
   60.2237   30.6356   48.4035 H   0  0  0  0  0  0  0  0  0  0  0  0
   58.7650   30.0120   46.2890 N   0  0  0  0  0  0  0  0  0  0  0  0
   59.0230   31.4270   46.2370 C   0  0  0  0  0  0  0  0  0  0  0  0
   58.7140   32.1590   45.0830 C   0  0  0  0  0  0  0  0  0  0  0  0
   58.2592   31.6527   44.2188 H   0  0  0  0  0  0  0  0  0  0  0  0
   58.9810   33.5290   45.0250 C   0  0  0  0  0  0  0  0  0  0  0  0
   58.7404   34.0952   44.1131 H   0  0  0  0  0  0  0  0  0  0  0  0
   59.5540   34.1860   46.1230 C   0  0  0  0  0  0  0  0  0  0  0  0
   59.8010   35.6050   46.0330 C   0  0  0  0  0  0  0  0  0  0  0  0
   60.0010   36.7430   45.9630 N   0  0  0  0  0  0  0  0  0  0  0  0
   59.8490   33.4610   47.2970 C   0  0  0  0  0  0  0  0  0  0  0  0
   60.4550   34.1140   48.4760 C   0  0  0  0  0  0  0  0  0  0  0  0
   59.7070   34.5720   49.3790 O   0  0  0  0  0  0  0  0  0  0  0  0
   61.8760   34.2460   48.6150 N   0  0  0  0  0  0  0  0  0  0  0  0
   62.7550   33.2090   49.1470 C   0  0  0  0  0  0  0  0  0  0  0  0
   63.5445   33.6786   49.7521 H   0  0  0  0  0  0  0  0  0  0  0  0
   62.1611   32.5219   49.7676 H   0  0  0  0  0  0  0  0  0  0  0  0
   63.3980   32.4170   48.0060 C   0  0  0  0  0  0  0  0  0  0  0  0
   64.4654   32.6745   47.9401 H   0  0  0  0  0  0  0  0  0  0  0  0
   63.2855   31.3410   48.2050 H   0  0  0  0  0  0  0  0  0  0  0  0
   62.7630   32.7320   46.7800 O   0  0  0  0  0  0  0  0  0  0  0  0
   63.3970   33.8380   46.1720 C   0  0  0  0  0  0  0  0  0  0  0  0
   63.7836   34.5124   46.9502 H   0  0  0  0  0  0  0  0  0  0  0  0
   64.2298   33.4848   45.5461 H   0  0  0  0  0  0  0  0  0  0  0  0
   62.6714   34.3781   45.5461 H   0  0  0  0  0  0  0  0  0  0  0  0
   59.5850   32.0830   47.3410 C   0  0  0  0  0  0  0  0  0  0  0  0
   59.8215   31.5122   48.2510 H   0  0  0  0  0  0  0  0  0  0  0  0
   58.0610   29.2730   45.3940 C   0  0  0  0  0  0  0  0  0  0  0  0
   57.5100   29.7700   44.2750 C   0  0  0  0  0  0  0  0  0  0  0  0
   57.5932   30.8437   44.0510 H   0  0  0  0  0  0  0  0  0  0  0  0
   56.9754   29.1034   43.5823 H   0  0  0  0  0  0  0  0  0  0  0  0
  1  2  1  0
  2  3  1  0
  3  4  1  0
  4  5  1  0
  5  6  2  0
  5  7  1  0
  7  8  1  0
  8  9  2  0
  8 10  1  0
 10 11  1  0
 11 12  1  0
 11 13  2  0
 13 14  1  0
 14 15  1  0
 14 16  2  0
 16 17  1  0
 17 18  1  0
 17 19  1  0
 17 20  1  0
 16 21  1  0
 21 22  1  0
 22 23  2  0
 23 24  1  0
 23 25  1  0
 25 26  1  0
 25 27  2  0
 27 28  1  0
 28 29  3  0
 27 30  1  0
 30 31  1  0
 31 32  2  0
 31 33  1  0
 33 34  1  0
 34 35  1  0
 34 36  1  0
 34 37  1  0
 37 38  1  0
 37 39  1  0
 37 40  1  0
 40 41  1  0
 41 42  1  0
 41 43  1  0
 41 44  1  0
 30 45  2  0
 45 46  1  0
 21 47  1  0
 47 48  2  0
 48 49  1  0
 48 50  1  0
 10  3  2  0
 47 13  1  0
 45 22  1  0
M  CHG  3   4  -1   7  -1  33  -1
M  END
>  <UniqueID>  (80) 
71

>  <SMILES>  (80) 
C=c1/c(=C/c2c(O)[n-]c(=S)[n-]c2=O)cc(C)n1-c1ccc(C#N)c(C(=O)[N-]CCOC)c1

>  <Energy>  (80) 
99.28164596099832

>  <Genealogy>  (80) 
C=c1c(=Cc2c(O)[n-]c(=S)[n-]c2=O)cc(C)n1-c1ccc(C#N)c(C(=O)[N-]CCOC)c1 (protonated)
C=c1/c(=C/c2c(O)[n-]c(=S)[n-]c2=O)cc(C)n1-c1ccc(C#N)c(C(=O)[N-]CCOC)c1 (cis-trans isomerization)
C=c1/c(=C/c2c(O)[n-]c(=S)[n-]c2=O)cc(C)n1-c1ccc(C#N)c(C(=O)[N-]CCOC)c1 (3D coordinates assigned)
C=c1/c(=C/c2c(O)[n-]c(=S)[n-]c2=O)cc(C)n1-c1ccc(C#N)c(C(=O)[N-]CCOC)c1 (optimized conformer: 99.28164596099832 kcal/mol)

>  <smiles>  (80) 
C=c1c(=Cc2c(O)[nH]c(=S)[nH]c2=O)cc(C)n1-c1ccc(C#N)c(C(=O)NCCOC)c1

>  <score_type>  (80) 
oracle

>  <origin>  (80) 
adg

>  <m_score__min__energy>  (80) 
-13.6

>  <m_primary>  (80) 
energy

$$$$
80:0
     RDKit          3D

 47 49  0  0  0  0  0  0  0  0999 V2000
   56.4480   30.8690   44.7990 O   0  0  0  0  0  0  0  0  0  0  0  0
   56.3840   29.6170   44.9220 C   0  0  0  0  0  0  0  0  0  0  0  0
   55.1560   28.9760   44.8140 O   0  0  0  0  0  0  0  0  0  0  0  0
   57.6290   28.8160   45.1310 C   0  0  0  0  0  0  0  0  0  0  0  0
   58.2180   29.1190   46.4840 C   0  0  0  0  0  0  0  0  0  0  0  0
   58.5870   30.4360   46.8060 C   0  0  0  0  0  0  0  0  0  0  0  0
   59.1610   30.7270   48.0460 C   0  0  0  0  0  0  0  0  0  0  0  0
   59.3990   29.7090   48.9740 C   0  0  0  0  0  0  0  0  0  0  0  0
   59.9650   30.0460   50.2130 O   0  0  0  0  0  0  0  0  0  0  0  0
   59.8740   31.3000   50.8370 C   0  0  0  0  0  0  0  0  0  0  0  0
   60.8600   32.2860   50.6390 C   0  0  0  0  0  0  0  0  0  0  0  0
   60.7430   33.5350   51.2510 C   0  0  0  0  0  0  0  0  0  0  0  0
   59.6410   33.8170   52.0600 C   0  0  0  0  0  0  0  0  0  0  0  0
   58.6480   32.8540   52.2490 C   0  0  0  0  0  0  0  0  0  0  0  0
   58.7460   31.5990   51.6260 C   0  0  0  0  0  0  0  0  0  0  0  0
   57.6980   30.5830   51.8490 C   0  0  0  0  0  0  0  0  0  0  0  0
   57.0280   30.1670   50.8670 O   0  0  0  0  0  0  0  0  0  0  0  0
   57.4050   30.0680   53.1530 N   0  0  0  0  0  0  0  0  0  0  0  0
   56.0950   30.1360   53.7950 C   0  0  0  0  0  0  0  0  0  0  0  0
   55.0690   29.3440   52.9840 C   0  0  0  0  0  0  0  0  0  0  0  0
   53.8820   30.1990   52.6170 C   0  0  0  0  0  0  0  0  0  0  0  0
   53.7990   30.7810   51.3400 C   0  0  0  0  0  0  0  0  0  0  0  0
   52.7150   31.5990   51.0080 C   0  0  0  0  0  0  0  0  0  0  0  0
   51.7120   31.8490   51.9490 C   0  0  0  0  0  0  0  0  0  0  0  0
   50.6350   32.6640   51.6180 O   0  0  0  0  0  0  0  0  0  0  0  0
   51.7930   31.2820   53.2250 C   0  0  0  0  0  0  0  0  0  0  0  0
   52.8760   30.4630   53.5600 C   0  0  0  0  0  0  0  0  0  0  0  0
   59.0250   28.3910   48.6620 C   0  0  0  0  0  0  0  0  0  0  0  0
   58.4490   28.0930   47.4210 C   0  0  0  0  0  0  0  0  0  0  0  0
   58.1060   26.7760   47.1300 O   0  0  0  0  0  0  0  0  0  0  0  0
   57.3868   27.7447   45.0712 H   0  0  0  0  0  0  0  0  0  0  0  0
   58.3608   29.0781   44.3527 H   0  0  0  0  0  0  0  0  0  0  0  0
   58.4229   31.2432   46.0770 H   0  0  0  0  0  0  0  0  0  0  0  0
   59.4277   31.7650   48.2940 H   0  0  0  0  0  0  0  0  0  0  0  0
   61.7276   32.0704   49.9981 H   0  0  0  0  0  0  0  0  0  0  0  0
   61.5201   34.2979   51.0956 H   0  0  0  0  0  0  0  0  0  0  0  0
   59.5549   34.7986   52.5489 H   0  0  0  0  0  0  0  0  0  0  0  0
   57.7831   33.0796   52.8901 H   0  0  0  0  0  0  0  0  0  0  0  0
   56.1639   29.7117   54.8075 H   0  0  0  0  0  0  0  0  0  0  0  0
   55.7758   31.1872   53.8498 H   0  0  0  0  0  0  0  0  0  0  0  0
   55.5457   28.9784   52.0626 H   0  0  0  0  0  0  0  0  0  0  0  0
   54.7145   28.5036   53.5989 H   0  0  0  0  0  0  0  0  0  0  0  0
   54.5899   30.5921   50.5993 H   0  0  0  0  0  0  0  0  0  0  0  0
   52.6513   32.0464   50.0051 H   0  0  0  0  0  0  0  0  0  0  0  0
   51.0043   31.4804   53.9656 H   0  0  0  0  0  0  0  0  0  0  0  0
   52.9399   30.0239   54.5665 H   0  0  0  0  0  0  0  0  0  0  0  0
   59.1857   27.5885   49.3970 H   0  0  0  0  0  0  0  0  0  0  0  0
  1  2  2  0
  2  3  1  0
  2  4  1  0
  4  5  1  0
  5  6  2  0
  6  7  1  0
  7  8  2  0
  8  9  1  0
  9 10  1  0
 10 11  2  0
 11 12  1  0
 12 13  2  0
 13 14  1  0
 14 15  2  0
 15 16  1  0
 16 17  2  0
 16 18  1  0
 18 19  1  0
 19 20  1  0
 20 21  1  0
 21 22  2  0
 22 23  1  0
 23 24  2  0
 24 25  1  0
 24 26  1  0
 26 27  2  0
  8 28  1  0
 28 29  2  0
 29 30  1  0
 29  5  1  0
 15 10  1  0
 27 21  1  0
  4 31  1  0
  4 32  1  0
  6 33  1  0
  7 34  1  0
 11 35  1  0
 12 36  1  0
 13 37  1  0
 14 38  1  0
 19 39  1  0
 19 40  1  0
 20 41  1  0
 20 42  1  0
 22 43  1  0
 23 44  1  0
 26 45  1  0
 27 46  1  0
 28 47  1  0
M  CHG  4   3  -1  18  -1  25  -1  30  -1
M  END
>  <UniqueID>  (81) 
72

>  <SMILES>  (81) 
O=C([O-])Cc1ccc(Oc2ccccc2C(=O)[N-]CCc2ccc([O-])cc2)cc1[O-]

>  <Energy>  (81) 
56.948538124248394

>  <Genealogy>  (81) 
O=C([O-])Cc1ccc(Oc2ccccc2C(=O)[N-]CCc2ccc([O-])cc2)cc1[O-] (protonated)
O=C([O-])Cc1ccc(Oc2ccccc2C(=O)[N-]CCc2ccc([O-])cc2)cc1[O-] (3D coordinates assigned)
O=C([O-])Cc1ccc(Oc2ccccc2C(=O)[N-]CCc2ccc([O-])cc2)cc1[O-] (optimized conformer: 56.948538124248394 kcal/mol)

>  <smiles>  (81) 
O=C(O)Cc1ccc(Oc2ccccc2C(=O)NCCc2ccc(O)cc2)cc1O

>  <score_type>  (81) 
oracle

>  <origin>  (81) 
adg

>  <m_score__min__energy>  (81) 
-17.890000000000001

>  <m_primary>  (81) 
energy

$$$$
81:0
     RDKit          3D

 53 56  0  0  0  0  0  0  0  0999 V2000
   53.2197   25.5272   45.6527 H   0  0  0  0  0  0  0  0  0  0  0  0
   54.0950   24.8620   45.6160 C   0  0  0  0  0  0  0  0  0  0  0  0
   55.2130   25.0850   46.3560 N   0  0  0  0  0  0  0  0  0  0  0  0
   56.1460   24.1320   46.1410 C   0  0  0  0  0  0  0  0  0  0  0  0
   57.2950   24.0780   46.7500 N   0  0  0  0  0  0  0  0  0  0  0  0
   58.4800   24.8010   46.3780 C   0  0  0  0  0  0  0  0  0  0  0  0
   59.4560   24.1980   45.8500 O   0  0  0  0  0  0  0  0  0  0  0  0
   58.5550   26.2630   46.6050 C   0  0  0  0  0  0  0  0  0  0  0  0
   59.3230   26.7870   47.6590 C   0  0  0  0  0  0  0  0  0  0  0  0
   59.8927   26.1081   48.3105 H   0  0  0  0  0  0  0  0  0  0  0  0
   59.3670   28.1650   47.8840 C   0  0  0  0  0  0  0  0  0  0  0  0
   59.9680   28.5663   48.7133 H   0  0  0  0  0  0  0  0  0  0  0  0
   58.6500   29.0350   47.0590 C   0  0  0  0  0  0  0  0  0  0  0  0
   58.6802   30.1181   47.2489 H   0  0  0  0  0  0  0  0  0  0  0  0
   57.8940   28.5370   45.9930 C   0  0  0  0  0  0  0  0  0  0  0  0
   57.1400   29.4540   45.1900 N   0  0  0  0  0  0  0  0  0  0  0  0
   57.3560   30.8670   45.1220 C   0  0  0  0  0  0  0  0  0  0  0  0
   56.3970   31.6470   44.8680 O   0  0  0  0  0  0  0  0  0  0  0  0
   58.6780   31.3900   45.2950 N   0  0  0  0  0  0  0  0  0  0  0  0
   59.4890   30.7690   45.0740 H   0  0  0  0  0  0  0  0  0  0  0  0
   58.9340   32.7280   45.7530 C   0  0  0  0  0  0  0  0  0  0  0  0
   59.0050   33.7800   44.8310 C   0  0  0  0  0  0  0  0  0  0  0  0
   58.8548   33.5812   43.7596 H   0  0  0  0  0  0  0  0  0  0  0  0
   59.2660   35.0810   45.2680 C   0  0  0  0  0  0  0  0  0  0  0  0
   59.3046   35.9059   44.5413 H   0  0  0  0  0  0  0  0  0  0  0  0
   59.4780   35.3380   46.6240 C   0  0  0  0  0  0  0  0  0  0  0  0
   59.6721   36.3668   46.9615 H   0  0  0  0  0  0  0  0  0  0  0  0
   59.4450   34.2940   47.5570 C   0  0  0  0  0  0  0  0  0  0  0  0
   59.6990   34.5950   48.9370 N   0  0  0  0  0  0  0  0  0  0  0  0
   59.5970   33.4630   50.2480 S   0  0  0  0  0  0  0  0  0  0  0  0
   58.5310   32.4420   49.9620 O   0  0  0  0  0  0  0  0  0  0  0  0
   59.2300   34.2080   51.5000 O   0  0  0  0  0  0  0  0  0  0  0  0
   61.1850   32.6770   50.4860 C   0  0  0  0  0  0  0  0  0  0  0  0
   61.7340   33.2058   51.2791 H   0  0  0  0  0  0  0  0  0  0  0  0
   61.0200   31.6271   50.7696 H   0  0  0  0  0  0  0  0  0  0  0  0
   61.9930   32.7130   49.2190 C   0  0  0  0  0  0  0  0  0  0  0  0
   61.9920   31.6140   48.3410 C   0  0  0  0  0  0  0  0  0  0  0  0
   61.3996   30.7192   48.5827 H   0  0  0  0  0  0  0  0  0  0  0  0
   62.7420   31.6560   47.1620 C   0  0  0  0  0  0  0  0  0  0  0  0
   62.7233   30.8019   46.4690 H   0  0  0  0  0  0  0  0  0  0  0  0
   63.5150   32.7800   46.8620 C   0  0  0  0  0  0  0  0  0  0  0  0
   64.1090   32.8078   45.9366 H   0  0  0  0  0  0  0  0  0  0  0  0
   63.5340   33.8690   47.7370 C   0  0  0  0  0  0  0  0  0  0  0  0
   64.1471   34.7515   47.5020 H   0  0  0  0  0  0  0  0  0  0  0  0
   62.7750   33.8390   48.9110 C   0  0  0  0  0  0  0  0  0  0  0  0
   62.7902   34.6998   49.5957 H   0  0  0  0  0  0  0  0  0  0  0  0
   59.1750   32.9870   47.1150 C   0  0  0  0  0  0  0  0  0  0  0  0
   59.1519   32.1599   47.8399 H   0  0  0  0  0  0  0  0  0  0  0  0
   57.8350   27.1460   45.7820 C   0  0  0  0  0  0  0  0  0  0  0  0
   57.2183   26.7459   44.9637 H   0  0  0  0  0  0  0  0  0  0  0  0
   55.6310   22.9830   45.0340 S   0  0  0  0  0  0  0  0  0  0  0  0
   54.1400   23.7290   44.8080 C   0  0  0  0  0  0  0  0  0  0  0  0
   53.3396   23.3818   44.1381 H   0  0  0  0  0  0  0  0  0  0  0  0
  1  2  1  0
  2  3  1  0
  3  4  1  0
  4  5  2  0
  5  6  1  0
  6  7  2  0
  6  8  1  0
  8  9  2  0
  9 10  1  0
  9 11  1  0
 11 12  1  0
 11 13  2  0
 13 14  1  0
 13 15  1  0
 15 16  1  0
 16 17  1  0
 17 18  2  0
 17 19  1  0
 19 20  1  0
 19 21  1  0
 21 22  2  0
 22 23  1  0
 22 24  1  0
 24 25  1  0
 24 26  2  0
 26 27  1  0
 26 28  1  0
 28 29  1  0
 29 30  1  0
 30 31  2  0
 30 32  2  0
 30 33  1  0
 33 34  1  0
 33 35  1  0
 33 36  1  0
 36 37  2  0
 37 38  1  0
 37 39  1  0
 39 40  1  0
 39 41  2  0
 41 42  1  0
 41 43  1  0
 43 44  1  0
 43 45  2  0
 45 46  1  0
 28 47  2  0
 47 48  1  0
 15 49  2  0
 49 50  1  0
  4 51  1  0
 51 52  1  0
 52 53  1  0
 52  2  2  0
 49  8  1  0
 47 21  1  0
 45 36  1  0
M  CHG  3   3  -1  16  -1  29  -1
M  END
>  <UniqueID>  (82) 
73

>  <SMILES>  (82) 
O=C([N-]c1cccc(C(=O)/N=c2\[n-]ccs2)c1)Nc1cccc([N-]S(=O)(=O)Cc2ccccc2)c1

>  <Energy>  (82) 
92.0896093468267

>  <Genealogy>  (82) 
O=C([N-]c1cccc(C(=O)N=c2[n-]ccs2)c1)Nc1cccc([N-]S(=O)(=O)Cc2ccccc2)c1 (protonated)
O=C([N-]c1cccc(C(=O)/N=c2\[n-]ccs2)c1)Nc1cccc([N-]S(=O)(=O)Cc2ccccc2)c1 (cis-trans isomerization)
O=C([N-]c1cccc(C(=O)/N=c2\[n-]ccs2)c1)Nc1cccc([N-]S(=O)(=O)Cc2ccccc2)c1 (3D coordinates assigned)
O=C([N-]c1cccc(C(=O)/N=c2\[n-]ccs2)c1)Nc1cccc([N-]S(=O)(=O)Cc2ccccc2)c1 (optimized conformer: 92.0896093468267 kcal/mol)

>  <smiles>  (82) 
O=C(Nc1cccc(NS(=O)(=O)Cc2ccccc2)c1)Nc1cccc(C(=O)N=c2[nH]ccs2)c1

>  <score_type>  (82) 
oracle

>  <origin>  (82) 
adg

>  <m_score__min__energy>  (82) 
-15

>  <m_primary>  (82) 
energy

$$$$
82:0
     RDKit          3D

 44 48  0  0  0  0  0  0  0  0999 V2000
   54.7960   27.0800   46.3760 H   0  0  0  0  0  0  0  0  0  0  0  0
   54.6190   26.1520   45.9320 N   0  0  0  0  0  0  0  0  0  0  0  0
   56.1070   25.2730   45.9890 S   0  0  0  0  0  0  0  0  0  0  0  0
   56.0410   24.2850   47.1190 O   0  0  0  0  0  0  0  0  0  0  0  0
   56.3100   24.5380   44.6940 O   0  0  0  0  0  0  0  0  0  0  0  0
   57.4410   26.3910   46.2430 C   0  0  0  0  0  0  0  0  0  0  0  0
   57.9740   26.5860   47.5250 C   0  0  0  0  0  0  0  0  0  0  0  0
   57.5624   26.0308   48.3808 H   0  0  0  0  0  0  0  0  0  0  0  0
   59.0280   27.4850   47.7180 C   0  0  0  0  0  0  0  0  0  0  0  0
   59.4526   27.6227   48.7234 H   0  0  0  0  0  0  0  0  0  0  0  0
   59.5450   28.2100   46.6390 C   0  0  0  0  0  0  0  0  0  0  0  0
   60.5940   29.1090   46.8620 O   0  0  0  0  0  0  0  0  0  0  0  0
   60.4550   30.5010   46.8270 C   0  0  0  0  0  0  0  0  0  0  0  0
   61.1560   31.2600   47.7190 N   0  0  0  0  0  0  0  0  0  0  0  0
   61.0150   32.6130   47.7530 C   0  0  0  0  0  0  0  0  0  0  0  0
   61.7060   33.2960   48.6230 N   0  0  0  0  0  0  0  0  0  0  0  0
   63.0340   33.8680   48.4220 C   0  0  0  0  0  0  0  0  0  0  0  0
   62.8752   34.8113   48.9651 H   0  0  0  0  0  0  0  0  0  0  0  0
   64.1190   32.8070   48.3740 C   0  0  0  0  0  0  0  0  0  0  0  0
   65.1136   33.0177   48.7939 H   0  0  0  0  0  0  0  0  0  0  0  0
   64.2006   31.7616   48.7063 H   0  0  0  0  0  0  0  0  0  0  0  0
   63.6710   33.4980   47.0950 C   0  0  0  0  0  0  0  0  0  0  0  0
   64.3417   34.2085   46.5896 H   0  0  0  0  0  0  0  0  0  0  0  0
   63.2942   33.1594   46.1186 H   0  0  0  0  0  0  0  0  0  0  0  0
   60.1460   33.1850   46.8720 N   0  0  0  0  0  0  0  0  0  0  0  0
   59.7750   34.4530   46.7790 N   0  0  0  0  0  0  0  0  0  0  0  0
   58.8310   34.5240   45.8120 C   0  0  0  0  0  0  0  0  0  0  0  0
   58.3197   35.4449   45.4952 H   0  0  0  0  0  0  0  0  0  0  0  0
   58.6030   33.2600   45.2780 C   0  0  0  0  0  0  0  0  0  0  0  0
   57.6900   32.9540   44.3450 C   0  0  0  0  0  0  0  0  0  0  0  0
   57.3630   33.7498   43.6595 H   0  0  0  0  0  0  0  0  0  0  0  0
   57.1010   31.6180   44.1850 C   0  0  0  0  0  0  0  0  0  0  0  0
   56.6520   30.8690   45.2080 N   0  0  0  0  0  0  0  0  0  0  0  0
   56.1080   29.7980   44.5900 C   0  0  0  0  0  0  0  0  0  0  0  0
   55.5860   28.8440   45.2220 O   0  0  0  0  0  0  0  0  0  0  0  0
   56.1550   29.8360   43.2400 N   0  0  0  0  0  0  0  0  0  0  0  0
   56.7790   31.0010   43.0010 C   0  0  0  0  0  0  0  0  0  0  0  0
   57.0130   31.5060   41.7290 O   0  0  0  0  0  0  0  0  0  0  0  0
   59.4660   32.4460   45.9880 C   0  0  0  0  0  0  0  0  0  0  0  0
   59.5930   31.0970   45.9500 N   0  0  0  0  0  0  0  0  0  0  0  0
   59.0330   27.9900   45.3510 C   0  0  0  0  0  0  0  0  0  0  0  0
   59.4559   28.5328   44.4928 H   0  0  0  0  0  0  0  0  0  0  0  0
   57.9870   27.0830   45.1550 C   0  0  0  0  0  0  0  0  0  0  0  0
   57.5917   26.9125   44.1427 H   0  0  0  0  0  0  0  0  0  0  0  0
  1  2  1  0
  2  3  1  0
  3  4  2  0
  3  5  2  0
  3  6  1  0
  6  7  2  0
  7  8  1  0
  7  9  1  0
  9 10  1  0
  9 11  2  0
 11 12  1  0
 12 13  1  0
 13 14  2  0
 14 15  1  0
 15 16  2  0
 16 17  1  0
 17 18  1  0
 17 19  1  0
 19 20  1  0
 19 21  1  0
 19 22  1  0
 22 23  1  0
 22 24  1  0
 15 25  1  0
 25 26  1  0
 26 27  2  0
 27 28  1  0
 27 29  1  0
 29 30  2  0
 30 31  1  0
 30 32  1  0
 32 33  1  0
 33 34  1  0
 34 35  2  0
 34 36  1  0
 36 37  1  0
 37 38  1  0
 29 39  1  0
 39 40  2  0
 11 41  1  0
 41 42  1  0
 41 43  2  0
 43 44  1  0
 43  6  1  0
 40 13  1  0
 22 17  1  0
 39 25  1  0
 37 32  2  0
M  CHG  4   2  -1  33  -1  36  -1  38  -1
M  END
>  <UniqueID>  (83) 
74

>  <SMILES>  (83) 
[NH-]S(=O)(=O)c1ccc(Oc2n/c(=N/C3CC3)n3nc/c(=C/c4[n-]c(=O)[n-]c4[O-])c3n2)cc1

>  <Energy>  (83) 
395.1056216198166

>  <Genealogy>  (83) 
[NH-]S(=O)(=O)c1ccc(Oc2nc(=NC3CC3)n3ncc(=Cc4[n-]c(=O)[n-]c4[O-])c3n2)cc1 (protonated)
[NH-]S(=O)(=O)c1ccc(Oc2n/c(=N/C3CC3)n3nc/c(=C/c4[n-]c(=O)[n-]c4[O-])c3n2)cc1 (cis-trans isomerization)
[NH-]S(=O)(=O)c1ccc(Oc2n/c(=N/C3CC3)n3nc/c(=C/c4[n-]c(=O)[n-]c4[O-])c3n2)cc1 (3D coordinates assigned)
[NH-]S(=O)(=O)c1ccc(Oc2n/c(=N/C3CC3)n3nc/c(=C/c4[n-]c(=O)[n-]c4[O-])c3n2)cc1 (nonaromatic ring conformer: 395.1056216198166 kcal/mol)

>  <smiles>  (83) 
NS(=O)(=O)c1ccc(Oc2nc(=NC3CC3)n3ncc(=Cc4[nH]c(=O)[nH]c4O)c3n2)cc1

>  <score_type>  (83) 
oracle

>  <origin>  (83) 
adg

>  <m_score__min__energy>  (83) 
-17.84

>  <m_primary>  (83) 
energy

$$$$
83:0
     RDKit          3D

 56 60  0  0  0  0  0  0  0  0999 V2000
   59.6200   27.8450   48.3350 C   0  0  0  0  0  0  0  0  0  0  0  0
   59.1000   28.7540   47.3460 N   0  0  0  0  0  0  0  0  0  0  0  0
   59.4440   30.0570   47.3260 C   0  0  0  0  0  0  0  0  0  0  0  0
   60.2940   30.6750   48.1820 O   0  0  0  0  0  0  0  0  0  0  0  0
   60.2280   31.0990   49.4560 C   0  0  0  0  0  0  0  0  0  0  0  0
   61.2390   30.8440   50.3660 C   0  0  0  0  0  0  0  0  0  0  0  0
   62.3270   30.1460   49.9400 F   0  0  0  0  0  0  0  0  0  0  0  0
   61.1990   31.2600   51.6790 C   0  0  0  0  0  0  0  0  0  0  0  0
   62.2110   30.9880   52.5290 F   0  0  0  0  0  0  0  0  0  0  0  0
   60.0930   31.9670   52.0990 C   0  0  0  0  0  0  0  0  0  0  0  0
   60.0520   32.3780   53.3860 F   0  0  0  0  0  0  0  0  0  0  0  0
   59.0600   32.2510   51.2490 C   0  0  0  0  0  0  0  0  0  0  0  0
   57.9580   32.9420   51.6280 F   0  0  0  0  0  0  0  0  0  0  0  0
   59.1360   31.8180   49.9460 C   0  0  0  0  0  0  0  0  0  0  0  0
   58.1450   32.0690   49.0610 F   0  0  0  0  0  0  0  0  0  0  0  0
   58.9000   30.8630   46.3540 N   0  0  0  0  0  0  0  0  0  0  0  0
   58.0520   30.3880   45.4470 C   0  0  0  0  0  0  0  0  0  0  0  0
   57.3850   30.9860   44.3840 C   0  0  0  0  0  0  0  0  0  0  0  0
   57.4040   32.3860   43.9300 C   0  0  0  0  0  0  0  0  0  0  0  0
   57.4580   33.3670   44.9540 N   0  0  0  0  0  0  0  0  0  0  0  0
   58.4910   34.3260   44.9140 C   0  0  0  0  0  0  0  0  0  0  0  0
   59.3740   34.2790   46.1390 C   0  0  0  0  0  0  0  0  0  0  0  0
   60.6970   33.8550   45.9600 C   0  0  0  0  0  0  0  0  0  0  0  0
   61.4980   33.8170   47.0880 C   0  0  0  0  0  0  0  0  0  0  0  0
   61.0170   34.1800   48.3280 C   0  0  0  0  0  0  0  0  0  0  0  0
   61.9720   34.0960   49.4460 C   0  0  0  0  0  0  0  0  0  0  0  0
   61.6000   34.1370   50.6490 O   0  0  0  0  0  0  0  0  0  0  0  0
   63.3390   33.9650   49.0980 N   0  0  0  0  0  0  0  0  0  0  0  0
   64.0640   33.1460   49.7810 C   0  0  0  0  0  0  0  0  0  0  0  0
   65.0600   32.3340   49.3710 N   0  0  0  0  0  0  0  0  0  0  0  0
   65.5180   31.6730   50.4150 N   0  0  0  0  0  0  0  0  0  0  0  0
   64.8340   32.0450   51.4970 N   0  0  0  0  0  0  0  0  0  0  0  0
   63.9400   32.9470   51.1190 N   0  0  0  0  0  0  0  0  0  0  0  0
   59.7130   34.5990   48.5090 C   0  0  0  0  0  0  0  0  0  0  0  0
   58.8930   34.6440   47.3820 C   0  0  0  0  0  0  0  0  0  0  0  0
   56.6340   29.9750   43.7840 C   0  0  0  0  0  0  0  0  0  0  0  0
   56.8210   28.8130   44.4330 N   0  0  0  0  0  0  0  0  0  0  0  0
   57.6780   29.0620   45.4380 C   0  0  0  0  0  0  0  0  0  0  0  0
   58.2260   28.2610   46.4140 C   0  0  0  0  0  0  0  0  0  0  0  0
   57.8880   27.0430   46.4120 O   0  0  0  0  0  0  0  0  0  0  0  0
   59.3988   28.2317   49.3407 H   0  0  0  0  0  0  0  0  0  0  0  0
   59.1496   26.8586   48.2098 H   0  0  0  0  0  0  0  0  0  0  0  0
   60.7088   27.7505   48.2098 H   0  0  0  0  0  0  0  0  0  0  0  0
   58.2865   32.5203   43.2872 H   0  0  0  0  0  0  0  0  0  0  0  0
   56.4458   32.5456   43.4139 H   0  0  0  0  0  0  0  0  0  0  0  0
   56.5670   33.6180   45.3840 H   0  0  0  0  0  0  0  0  0  0  0  0
   59.1113   34.1390   44.0250 H   0  0  0  0  0  0  0  0  0  0  0  0
   58.0218   35.3203   44.8790 H   0  0  0  0  0  0  0  0  0  0  0  0
   61.0808   33.5661   44.9704 H   0  0  0  0  0  0  0  0  0  0  0  0
   62.5437   33.4892   46.9929 H   0  0  0  0  0  0  0  0  0  0  0  0
   65.0060   31.6610   52.4690 H   0  0  0  0  0  0  0  0  0  0  0  0
   63.2750   33.3970   51.7880 H   0  0  0  0  0  0  0  0  0  0  0  0
   59.3368   34.8856   49.5021 H   0  0  0  0  0  0  0  0  0  0  0  0
   57.8488   34.9746   47.4838 H   0  0  0  0  0  0  0  0  0  0  0  0
   55.9834   30.1093   42.9073 H   0  0  0  0  0  0  0  0  0  0  0  0
   56.3920   27.8710   44.2200 H   0  0  0  0  0  0  0  0  0  0  0  0
  1  2  1  0
  2  3  1  0
  3  4  1  0
  4  5  1  0
  5  6  2  0
  6  7  1  0
  6  8  1  0
  8  9  1  0
  8 10  2  0
 10 11  1  0
 10 12  1  0
 12 13  1  0
 12 14  2  0
 14 15  1  0
  3 16  2  0
 16 17  1  0
 17 18  1  0
 18 19  1  0
 19 20  1  0
 20 21  1  0
 21 22  1  0
 22 23  2  0
 23 24  1  0
 24 25  2  0
 25 26  1  0
 26 27  2  0
 26 28  1  0
 28 29  2  3
 29 30  1  0
 30 31  2  0
 31 32  1  0
 32 33  1  0
 25 34  1  0
 34 35  2  0
 18 36  2  0
 36 37  1  0
 37 38  1  0
 38 39  1  0
 39 40  2  0
 39  2  1  0
 14  5  1  0
 38 17  2  0
 35 22  1  0
 33 29  1  0
  1 41  1  0
  1 42  1  0
  1 43  1  0
 19 44  1  0
 19 45  1  0
 20 46  1  0
 21 47  1  0
 21 48  1  0
 23 49  1  0
 24 50  1  0
 32 51  1  0
 33 52  1  0
 34 53  1  0
 35 54  1  0
 36 55  1  0
 37 56  1  0
M  END
>  <smiles>  (84) 
Cn1c(Oc2c(F)c(F)c(F)c(F)c2F)nc2c(CNCc3ccc(C(=O)N=c4nn[nH][nH]4)cc3)c[nH]c2c1=O

>  <score_type>  (84) 
oracle

>  <origin>  (84) 
adg

>  <m_score__min__energy>  (84) 
-9.9000000000000004

>  <m_primary>  (84) 
energy

$$$$
84:0
     RDKit          3D

 45 47  0  0  0  0  0  0  0  0999 V2000
   57.3210   32.2740   44.2860 H   0  0  0  0  0  0  0  0  0  0  0  0
   57.8540   33.1240   44.1400 O   0  0  0  0  0  0  0  0  0  0  0  0
   58.5260   33.7520   45.1900 C   0  0  0  0  0  0  0  0  0  0  0  0
   59.1950   34.9670   44.9750 C   0  0  0  0  0  0  0  0  0  0  0  0
   59.1881   35.4278   43.9762 H   0  0  0  0  0  0  0  0  0  0  0  0
   59.8700   35.5930   46.0270 C   0  0  0  0  0  0  0  0  0  0  0  0
   60.3828   36.5513   45.8577 H   0  0  0  0  0  0  0  0  0  0  0  0
   59.8940   35.0030   47.2930 C   0  0  0  0  0  0  0  0  0  0  0  0
   60.4285   35.4949   48.1190 H   0  0  0  0  0  0  0  0  0  0  0  0
   59.2390   33.7880   47.5100 C   0  0  0  0  0  0  0  0  0  0  0  0
   59.2842   33.3109   48.5001 H   0  0  0  0  0  0  0  0  0  0  0  0
   58.5220   33.1720   46.4680 C   0  0  0  0  0  0  0  0  0  0  0  0
   57.8660   31.9100   46.6700 N   0  0  0  0  0  0  0  0  0  0  0  0
   58.4040   30.7220   46.6160 C   0  0  0  0  0  0  0  0  0  0  0  0
   59.1710   30.1390   47.7450 C   0  0  0  0  0  0  0  0  0  0  0  0
   58.5760   29.8500   48.8180 O   0  0  0  0  0  0  0  0  0  0  0  0
   60.5940   30.0070   47.6500 N   0  0  0  0  0  0  0  0  0  0  0  0
   61.5720   30.9720   48.0640 C   0  0  0  0  0  0  0  0  0  0  0  0
   62.2050   30.9020   49.3200 C   0  0  0  0  0  0  0  0  0  0  0  0
   61.9328   30.1053   50.0279 H   0  0  0  0  0  0  0  0  0  0  0  0
   63.1800   31.8440   49.6700 C   0  0  0  0  0  0  0  0  0  0  0  0
   63.9700   31.7480   51.2350 Cl  0  0  0  0  0  0  0  0  0  0  0  0
   63.5350   32.8510   48.7680 C   0  0  0  0  0  0  0  0  0  0  0  0
   64.2943   33.5963   49.0474 H   0  0  0  0  0  0  0  0  0  0  0  0
   62.9260   32.9120   47.5110 C   0  0  0  0  0  0  0  0  0  0  0  0
   63.3830   34.1690   46.3760 Cl  0  0  0  0  0  0  0  0  0  0  0  0
   61.9540   31.9700   47.1590 C   0  0  0  0  0  0  0  0  0  0  0  0
   61.4863   32.0134   46.1643 H   0  0  0  0  0  0  0  0  0  0  0  0
   58.1730   29.8910   45.3840 C   0  0  0  0  0  0  0  0  0  0  0  0
   58.6112   28.8937   45.5368 H   0  0  0  0  0  0  0  0  0  0  0  0
   58.6466   30.3967   44.5296 H   0  0  0  0  0  0  0  0  0  0  0  0
   56.7030   29.7420   45.0940 C   0  0  0  0  0  0  0  0  0  0  0  0
   56.0320   30.7560   44.7630 O   0  0  0  0  0  0  0  0  0  0  0  0
   56.0310   28.4810   45.2230 N   0  0  0  0  0  0  0  0  0  0  0  0
   56.6060   27.2600   45.7080 C   0  0  0  0  0  0  0  0  0  0  0  0
   58.0000   27.0800   45.7690 C   0  0  0  0  0  0  0  0  0  0  0  0
   58.6711   27.8934   45.4560 H   0  0  0  0  0  0  0  0  0  0  0  0
   58.5370   25.8710   46.2260 C   0  0  0  0  0  0  0  0  0  0  0  0
   59.6278   25.7414   46.2847 H   0  0  0  0  0  0  0  0  0  0  0  0
   57.6880   24.8280   46.6080 C   0  0  0  0  0  0  0  0  0  0  0  0
   58.1103   23.8828   46.9799 H   0  0  0  0  0  0  0  0  0  0  0  0
   56.3020   24.9870   46.5170 C   0  0  0  0  0  0  0  0  0  0  0  0
   55.6349   24.1603   46.8027 H   0  0  0  0  0  0  0  0  0  0  0  0
   55.7610   26.1960   46.0630 C   0  0  0  0  0  0  0  0  0  0  0  0
   54.3790   26.3410   45.9760 O   0  0  0  0  0  0  0  0  0  0  0  0
  1  2  1  0
  2  3  1  0
  3  4  2  0
  4  5  1  0
  4  6  1  0
  6  7  1  0
  6  8  2  0
  8  9  1  0
  8 10  1  0
 10 11  1  0
 10 12  2  0
 12 13  1  0
 13 14  2  0
 14 15  1  0
 15 16  2  0
 15 17  1  0
 17 18  1  0
 18 19  2  0
 19 20  1  0
 19 21  1  0
 21 22  1  0
 21 23  2  0
 23 24  1  0
 23 25  1  0
 25 26  1  0
 25 27  2  0
 27 28  1  0
 14 29  1  0
 29 30  1  0
 29 31  1  0
 29 32  1  0
 32 33  2  0
 32 34  1  0
 34 35  1  0
 35 36  2  0
 36 37  1  0
 36 38  1  0
 38 39  1  0
 38 40  2  0
 40 41  1  0
 40 42  1  0
 42 43  1  0
 42 44  2  0
 44 45  1  0
 12  3  1  0
 27 18  1  0
 44 35  1  0
M  CHG  3  17  -1  34  -1  45  -1
M  END
>  <UniqueID>  (85) 
75

>  <SMILES>  (85) 
O=C(C/C(=N/c1ccccc1O)C(=O)[N-]c1cc(Cl)cc(Cl)c1)[N-]c1ccccc1[O-]

>  <Energy>  (85) 
63.477134372217165

>  <Genealogy>  (85) 
O=C(CC(=Nc1ccccc1O)C(=O)[N-]c1cc(Cl)cc(Cl)c1)[N-]c1ccccc1[O-] (protonated)
O=C(C/C(=N/c1ccccc1O)C(=O)[N-]c1cc(Cl)cc(Cl)c1)[N-]c1ccccc1[O-] (cis-trans isomerization)
O=C(C/C(=N/c1ccccc1O)C(=O)[N-]c1cc(Cl)cc(Cl)c1)[N-]c1ccccc1[O-] (3D coordinates assigned)
O=C(C/C(=N/c1ccccc1O)C(=O)[N-]c1cc(Cl)cc(Cl)c1)[N-]c1ccccc1[O-] (optimized conformer: 63.477134372217165 kcal/mol)

>  <smiles>  (85) 
O=C(CC(=Nc1ccccc1O)C(=O)Nc1cc(Cl)cc(Cl)c1)Nc1ccccc1O

>  <score_type>  (85) 
oracle

>  <origin>  (85) 
adg

>  <m_score__min__energy>  (85) 
-16.140000000000001

>  <m_primary>  (85) 
energy

$$$$
85:0
     RDKit          3D

 54 55  0  0  0  0  0  0  0  0999 V2000
   57.7770   28.0610   46.3800 C   0  0  0  0  0  0  0  0  0  0  0  0
   58.8310   27.6570   45.3280 C   0  0  0  0  0  0  0  0  0  0  0  0
   58.1560   26.8330   44.2100 C   0  0  0  0  0  0  0  0  0  0  0  0
   59.8890   26.7660   46.0140 C   0  0  0  0  0  0  0  0  0  0  0  0
   59.5540   28.9070   44.7380 C   0  0  0  0  0  0  0  0  0  0  0  0
   60.6460   29.5340   45.6350 C   0  0  0  0  0  0  0  0  0  0  0  0
   60.0530   30.3420   46.6990 N   0  0  0  0  0  0  0  0  0  0  0  0
   60.1680   29.9790   48.0830 C   0  0  0  0  0  0  0  0  0  0  0  0
   60.7820   28.9280   48.4120 O   0  0  0  0  0  0  0  0  0  0  0  0
   59.6380   30.8620   49.1400 C   0  0  0  0  0  0  0  0  0  0  0  0
   58.5290   30.4170   49.8790 C   0  0  0  0  0  0  0  0  0  0  0  0
   57.9850   31.2130   50.8940 C   0  0  0  0  0  0  0  0  0  0  0  0
   56.8520   30.7430   51.6490 C   0  0  0  0  0  0  0  0  0  0  0  0
   55.9410   30.3650   52.2550 N   0  0  0  0  0  0  0  0  0  0  0  0
   58.5390   32.4640   51.1700 C   0  0  0  0  0  0  0  0  0  0  0  0
   59.6270   32.9280   50.4290 C   0  0  0  0  0  0  0  0  0  0  0  0
   60.1870   32.1430   49.4050 C   0  0  0  0  0  0  0  0  0  0  0  0
   61.3080   32.7180   48.5760 C   0  0  0  0  0  0  0  0  0  0  0  0
   60.8490   32.9450   47.2120 N   0  0  0  0  0  0  0  0  0  0  0  0
   60.1010   34.1000   46.8260 C   0  0  0  0  0  0  0  0  0  0  0  0
   59.7670   34.9520   47.6930 O   0  0  0  0  0  0  0  0  0  0  0  0
   59.7800   34.2940   45.3980 C   0  0  0  0  0  0  0  0  0  0  0  0
   58.5670   34.1380   44.8450 C   0  0  0  0  0  0  0  0  0  0  0  0
   57.9950   32.8570   44.5320 N   0  0  0  0  0  0  0  0  0  0  0  0
   57.7630   32.5180   43.2280 C   0  0  0  0  0  0  0  0  0  0  0  0
   57.1720   31.2960   42.9120 C   0  0  0  0  0  0  0  0  0  0  0  0
   56.8030   30.4470   43.9520 C   0  0  0  0  0  0  0  0  0  0  0  0
   56.2660   29.3360   43.7050 O   0  0  0  0  0  0  0  0  0  0  0  0
   57.0190   30.8220   45.2390 N   0  0  0  0  0  0  0  0  0  0  0  0
   57.5990   32.0150   45.5370 C   0  0  0  0  0  0  0  0  0  0  0  0
   57.7700   32.3300   46.7470 O   0  0  0  0  0  0  0  0  0  0  0  0
   58.1868   27.9039   47.3887 H   0  0  0  0  0  0  0  0  0  0  0  0
   57.5179   29.1222   46.2507 H   0  0  0  0  0  0  0  0  0  0  0  0
   56.8750   27.4449   46.2507 H   0  0  0  0  0  0  0  0  0  0  0  0
   57.5199   26.0565   44.6599 H   0  0  0  0  0  0  0  0  0  0  0  0
   57.5388   27.4969   43.5868 H   0  0  0  0  0  0  0  0  0  0  0  0
   58.9284   26.3586   43.5868 H   0  0  0  0  0  0  0  0  0  0  0  0
   59.7878   26.8512   47.1060 H   0  0  0  0  0  0  0  0  0  0  0  0
   59.7379   25.7190   45.7124 H   0  0  0  0  0  0  0  0  0  0  0  0
   60.8950   27.0930   45.7124 H   0  0  0  0  0  0  0  0  0  0  0  0
   60.0252   28.6089   43.7898 H   0  0  0  0  0  0  0  0  0  0  0  0
   58.7776   29.6782   44.6265 H   0  0  0  0  0  0  0  0  0  0  0  0
   61.2456   28.7298   46.0863 H   0  0  0  0  0  0  0  0  0  0  0  0
   61.2780   30.1849   45.0129 H   0  0  0  0  0  0  0  0  0  0  0  0
   59.6690   31.2830   46.4530 H   0  0  0  0  0  0  0  0  0  0  0  0
   58.0846   29.4353   49.6583 H   0  0  0  0  0  0  0  0  0  0  0  0
   58.1171   33.0857   51.9734 H   0  0  0  0  0  0  0  0  0  0  0  0
   60.0513   33.9189   50.6483 H   0  0  0  0  0  0  0  0  0  0  0  0
   61.6339   33.6725   49.0149 H   0  0  0  0  0  0  0  0  0  0  0  0
   62.1490   32.0092   48.5622 H   0  0  0  0  0  0  0  0  0  0  0  0
   60.6034   34.5911   44.7319 H   0  0  0  0  0  0  0  0  0  0  0  0
   57.9786   35.0395   44.6190 H   0  0  0  0  0  0  0  0  0  0  0  0
   58.0444   33.2137   42.4237 H   0  0  0  0  0  0  0  0  0  0  0  0
   57.0009   31.0086   41.8641 H   0  0  0  0  0  0  0  0  0  0  0  0
  1  2  1  0
  2  3  1  0
  2  4  1  0
  2  5  1  0
  5  6  1  0
  6  7  1  0
  7  8  1  0
  8  9  2  0
  8 10  1  0
 10 11  2  0
 11 12  1  0
 12 13  1  0
 13 14  3  0
 12 15  2  0
 15 16  1  0
 16 17  2  0
 17 18  1  0
 18 19  1  0
 19 20  1  0
 20 21  2  0
 20 22  1  0
 22 23  2  3
 23 24  1  0
 24 25  1  0
 25 26  2  0
 26 27  1  0
 27 28  2  0
 27 29  1  0
 29 30  1  0
 30 31  2  0
 17 10  1  0
 30 24  1  0
  1 32  1  0
  1 33  1  0
  1 34  1  0
  3 35  1  0
  3 36  1  0
  3 37  1  0
  4 38  1  0
  4 39  1  0
  4 40  1  0
  5 41  1  0
  5 42  1  0
  6 43  1  0
  6 44  1  0
  7 45  1  0
 11 46  1  0
 15 47  1  0
 16 48  1  0
 18 49  1  0
 18 50  1  0
 22 51  1  0
 23 52  1  0
 25 53  1  0
 26 54  1  0
M  CHG  2  19  -1  29  -1
M  END
>  <UniqueID>  (86) 
76

>  <SMILES>  (86) 
CC(C)(C)CCNC(=O)c1cc(C#N)ccc1C[N-]C(=O)C=Cn1ccc(=O)[n-]c1=O

>  <Energy>  (86) 
58.433909995108024

>  <Genealogy>  (86) 
CC(C)(C)CCNC(=O)c1cc(C#N)ccc1C[N-]C(=O)C=Cn1ccc(=O)[n-]c1=O (protonated)
CC(C)(C)CCNC(=O)c1cc(C#N)ccc1C[N-]C(=O)C=Cn1ccc(=O)[n-]c1=O (3D coordinates assigned)
CC(C)(C)CCNC(=O)c1cc(C#N)ccc1C[N-]C(=O)C=Cn1ccc(=O)[n-]c1=O (optimized conformer: 58.433909995108024 kcal/mol)

>  <smiles>  (86) 
CC(C)(C)CCNC(=O)c1cc(C#N)ccc1CNC(=O)C=Cn1ccc(=O)[nH]c1=O

>  <score_type>  (86) 
oracle

>  <origin>  (86) 
adg

>  <m_score__min__energy>  (86) 
-11.56

>  <m_primary>  (86) 
energy

$$$$
86:0
     RDKit          3D

 50 53  0  0  0  0  0  0  0  0999 V2000
   55.4150   26.7120   45.9820 N   0  0  0  0  0  0  0  0  0  0  0  0
   56.7590   27.1830   45.9160 C   0  0  0  0  0  0  0  0  0  0  0  0
   57.6950   26.4420   46.3220 O   0  0  0  0  0  0  0  0  0  0  0  0
   57.0420   28.5250   45.3760 C   0  0  0  0  0  0  0  0  0  0  0  0
   57.5810   29.5360   46.1880 C   0  0  0  0  0  0  0  0  0  0  0  0
   57.8260   30.8090   45.6430 C   0  0  0  0  0  0  0  0  0  0  0  0
   58.3700   31.8520   46.4080 O   0  0  0  0  0  0  0  0  0  0  0  0
   59.6920   31.8970   46.8720 C   0  0  0  0  0  0  0  0  0  0  0  0
   60.4720   30.7320   46.9590 C   0  0  0  0  0  0  0  0  0  0  0  0
   61.8010   30.8010   47.3800 C   0  0  0  0  0  0  0  0  0  0  0  0
   62.3730   32.0390   47.7220 C   0  0  0  0  0  0  0  0  0  0  0  0
   63.7690   32.1650   48.0420 N   0  0  0  0  0  0  0  0  0  0  0  0
   64.3660   32.6820   49.5900 S   0  0  0  0  0  0  0  0  0  0  0  0
   65.6470   33.4410   49.3950 O   0  0  0  0  0  0  0  0  0  0  0  0
   63.3470   33.6070   50.1970 O   0  0  0  0  0  0  0  0  0  0  0  0
   64.6740   31.3160   50.6840 C   0  0  0  0  0  0  0  0  0  0  0  0
   66.0080   30.9180   50.8740 C   0  0  0  0  0  0  0  0  0  0  0  0
   66.3300   29.8960   51.7660 C   0  0  0  0  0  0  0  0  0  0  0  0
   65.3240   29.2530   52.4840 C   0  0  0  0  0  0  0  0  0  0  0  0
   63.9910   29.6220   52.3030 C   0  0  0  0  0  0  0  0  0  0  0  0
   63.6450   30.6430   51.3990 C   0  0  0  0  0  0  0  0  0  0  0  0
   62.2110   30.9760   51.2470 C   0  0  0  0  0  0  0  0  0  0  0  0
   61.6780   32.1390   51.8250 C   0  0  0  0  0  0  0  0  0  0  0  0
   60.3200   32.4380   51.6820 C   0  0  0  0  0  0  0  0  0  0  0  0
   59.4890   31.5900   50.9420 C   0  0  0  0  0  0  0  0  0  0  0  0
   57.7830   31.9590   50.7740 Cl  0  0  0  0  0  0  0  0  0  0  0  0
   60.0210   30.4490   50.3330 C   0  0  0  0  0  0  0  0  0  0  0  0
   61.3770   30.1470   50.4770 C   0  0  0  0  0  0  0  0  0  0  0  0
   61.5710   33.1890   47.7020 C   0  0  0  0  0  0  0  0  0  0  0  0
   60.2390   33.1210   47.2810 C   0  0  0  0  0  0  0  0  0  0  0  0
   59.2830   34.5930   47.2080 Cl  0  0  0  0  0  0  0  0  0  0  0  0
   57.5590   31.0340   44.2900 C   0  0  0  0  0  0  0  0  0  0  0  0
   57.0270   30.0040   43.5130 C   0  0  0  0  0  0  0  0  0  0  0  0
   56.7810   28.7880   44.0660 N   0  0  0  0  0  0  0  0  0  0  0  0
   54.7510   27.0810   46.6980 H   0  0  0  0  0  0  0  0  0  0  0  0
   57.8103   29.3333   47.2446 H   0  0  0  0  0  0  0  0  0  0  0  0
   60.0326   29.7591   46.6936 H   0  0  0  0  0  0  0  0  0  0  0  0
   62.4034   29.8829   47.4445 H   0  0  0  0  0  0  0  0  0  0  0  0
   64.4790   31.8340   47.3520 H   0  0  0  0  0  0  0  0  0  0  0  0
   66.8092   31.4195   50.3114 H   0  0  0  0  0  0  0  0  0  0  0  0
   67.3797   29.5970   51.9030 H   0  0  0  0  0  0  0  0  0  0  0  0
   65.5812   28.4535   53.1944 H   0  0  0  0  0  0  0  0  0  0  0  0
   63.2021   29.1094   52.8730 H   0  0  0  0  0  0  0  0  0  0  0  0
   62.3316   32.8177   52.3927 H   0  0  0  0  0  0  0  0  0  0  0  0
   59.9041   33.3414   52.1520 H   0  0  0  0  0  0  0  0  0  0  0  0
   59.3709   29.7888   49.7401 H   0  0  0  0  0  0  0  0  0  0  0  0
   61.7944   29.2559   49.9853 H   0  0  0  0  0  0  0  0  0  0  0  0
   61.9933   34.1535   48.0204 H   0  0  0  0  0  0  0  0  0  0  0  0
   57.7667   32.0162   43.8404 H   0  0  0  0  0  0  0  0  0  0  0  0
   56.8062   30.1774   42.4494 H   0  0  0  0  0  0  0  0  0  0  0  0
  1  2  1  0
  2  3  2  0
  2  4  1  0
  4  5  2  0
  5  6  1  0
  6  7  1  0
  7  8  1  0
  8  9  2  0
  9 10  1  0
 10 11  2  0
 11 12  1  0
 12 13  1  0
 13 14  2  0
 13 15  2  0
 13 16  1  0
 16 17  2  0
 17 18  1  0
 18 19  2  0
 19 20  1  0
 20 21  2  0
 21 22  1  0
 22 23  2  0
 23 24  1  0
 24 25  2  0
 25 26  1  0
 25 27  1  0
 27 28  2  0
 11 29  1  0
 29 30  2  0
 30 31  1  0
  6 32  2  0
 32 33  1  0
 33 34  2  0
 34  4  1  0
 30  8  1  0
 21 16  1  0
 28 22  1  0
  1 35  1  0
  5 36  1  0
  9 37  1  0
 10 38  1  0
 12 39  1  0
 17 40  1  0
 18 41  1  0
 19 42  1  0
 20 43  1  0
 23 44  1  0
 24 45  1  0
 27 46  1  0
 28 47  1  0
 29 48  1  0
 32 49  1  0
 33 50  1  0
M  CHG  1   1  -1
M  END
>  <UniqueID>  (87) 
77

>  <SMILES>  (87) 
[NH-]C(=O)c1cc(Oc2ccc(NS(=O)(=O)c3ccccc3-c3ccc(Cl)cc3)cc2Cl)ccn1

>  <Energy>  (87) 
68.62665145342822

>  <Genealogy>  (87) 
[NH-]C(=O)c1cc(Oc2ccc(NS(=O)(=O)c3ccccc3-c3ccc(Cl)cc3)cc2Cl)ccn1 (protonated)
[NH-]C(=O)c1cc(Oc2ccc(NS(=O)(=O)c3ccccc3-c3ccc(Cl)cc3)cc2Cl)ccn1 (3D coordinates assigned)
[NH-]C(=O)c1cc(Oc2ccc(NS(=O)(=O)c3ccccc3-c3ccc(Cl)cc3)cc2Cl)ccn1 (optimized conformer: 68.62665145342822 kcal/mol)

>  <smiles>  (87) 
NC(=O)c1cc(Oc2ccc(NS(=O)(=O)c3ccccc3-c3ccc(Cl)cc3)cc2Cl)ccn1

>  <score_type>  (87) 
oracle

>  <origin>  (87) 
adg

>  <m_score__min__energy>  (87) 
-13.289999999999999

>  <m_primary>  (87) 
energy

$$$$
87:0
     RDKit          3D

 39 41  0  0  0  0  0  0  0  0999 V2000
   64.5590   32.8450   47.6790 H   0  0  0  0  0  0  0  0  0  0  0  0
   63.6410   33.2090   47.9060 O   0  0  0  0  0  0  0  0  0  0  0  0
   62.4790   32.5460   47.5180 C   0  0  0  0  0  0  0  0  0  0  0  0
   62.5470   31.2040   47.1270 C   0  0  0  0  0  0  0  0  0  0  0  0
   63.5149   30.6813   47.1267 H   0  0  0  0  0  0  0  0  0  0  0  0
   61.3890   30.5260   46.7370 C   0  0  0  0  0  0  0  0  0  0  0  0
   61.4487   29.4707   46.4325 H   0  0  0  0  0  0  0  0  0  0  0  0
   60.1490   31.1860   46.7320 C   0  0  0  0  0  0  0  0  0  0  0  0
   58.9530   30.4870   46.3300 N   0  0  0  0  0  0  0  0  0  0  0  0
   58.0180   31.1200   45.5540 C   0  0  0  0  0  0  0  0  0  0  0  0
   58.1920   32.3110   45.1770 O   0  0  0  0  0  0  0  0  0  0  0  0
   56.8980   30.4630   45.1620 N   0  0  0  0  0  0  0  0  0  0  0  0
   56.6620   29.1810   45.5250 C   0  0  0  0  0  0  0  0  0  0  0  0
   55.5190   28.5470   45.0500 O   0  0  0  0  0  0  0  0  0  0  0  0
   57.5810   28.5050   46.3440 C   0  0  0  0  0  0  0  0  0  0  0  0
   57.3740   27.0980   46.7700 C   0  0  0  0  0  0  0  0  0  0  0  0
   58.0982   26.6430   47.4618 H   0  0  0  0  0  0  0  0  0  0  0  0
   56.3380   26.3600   46.3440 C   0  0  0  0  0  0  0  0  0  0  0  0
   55.3275   26.6548   46.6633 H   0  0  0  0  0  0  0  0  0  0  0  0
   56.4730   25.1700   45.4680 C   0  0  0  0  0  0  0  0  0  0  0  0
   57.7190   24.7160   44.9880 C   0  0  0  0  0  0  0  0  0  0  0  0
   58.6384   25.2573   45.2557 H   0  0  0  0  0  0  0  0  0  0  0  0
   57.7920   23.5820   44.1740 C   0  0  0  0  0  0  0  0  0  0  0  0
   58.7694   23.2340   43.8086 H   0  0  0  0  0  0  0  0  0  0  0  0
   56.6280   22.8850   43.8200 C   0  0  0  0  0  0  0  0  0  0  0  0
   56.7150   21.6460   42.9790 C   0  0  0  0  0  0  0  0  0  0  0  0
   56.7770   20.7631   43.6322 H   0  0  0  0  0  0  0  0  0  0  0  0
   55.8200   21.5702   42.3440 H   0  0  0  0  0  0  0  0  0  0  0  0
   57.6118   21.6961   42.3440 H   0  0  0  0  0  0  0  0  0  0  0  0
   55.3920   23.3130   44.3230 C   0  0  0  0  0  0  0  0  0  0  0  0
   54.4771   22.7546   44.0759 H   0  0  0  0  0  0  0  0  0  0  0  0
   55.3170   24.4460   45.1370 C   0  0  0  0  0  0  0  0  0  0  0  0
   54.3407   24.7745   45.5230 H   0  0  0  0  0  0  0  0  0  0  0  0
   58.7490   29.1890   46.7240 C   0  0  0  0  0  0  0  0  0  0  0  0
   59.6020   28.6080   47.4540 O   0  0  0  0  0  0  0  0  0  0  0  0
   60.0850   32.5330   47.1250 C   0  0  0  0  0  0  0  0  0  0  0  0
   59.1182   33.0578   47.1251 H   0  0  0  0  0  0  0  0  0  0  0  0
   61.2440   33.2100   47.5160 C   0  0  0  0  0  0  0  0  0  0  0  0
   61.1870   34.2649   47.8225 H   0  0  0  0  0  0  0  0  0  0  0  0
  1  2  1  0
  2  3  1  0
  3  4  2  0
  4  5  1  0
  4  6  1  0
  6  7  1  0
  6  8  2  0
  8  9  1  0
  9 10  1  0
 10 11  2  0
 10 12  1  0
 12 13  1  0
 13 14  1  0
 13 15  2  0
 15 16  1  0
 16 17  1  0
 16 18  2  0
 18 19  1  0
 18 20  1  0
 20 21  2  0
 21 22  1  0
 21 23  1  0
 23 24  1  0
 23 25  2  0
 25 26  1  0
 26 27  1  0
 26 28  1  0
 26 29  1  0
 25 30  1  0
 30 31  1  0
 30 32  2  0
 32 33  1  0
 15 34  1  0
 34 35  2  0
  8 36  1  0
 36 37  1  0
 36 38  2  0
 38 39  1  0
 38  3  1  0
 34  9  1  0
 32 20  1  0
M  CHG  2  12  -1  14  -1
M  END
>  <UniqueID>  (88) 
78

>  <SMILES>  (88) 
Cc1ccc(/C=C/c2c([O-])[n-]c(=O)n(-c3ccc(O)cc3)c2=O)cc1

>  <Energy>  (88) 
59.96082279182596

>  <Genealogy>  (88) 
Cc1ccc(C=Cc2c([O-])[n-]c(=O)n(-c3ccc(O)cc3)c2=O)cc1 (protonated)
Cc1ccc(/C=C/c2c([O-])[n-]c(=O)n(-c3ccc(O)cc3)c2=O)cc1 (cis-trans isomerization)
Cc1ccc(/C=C/c2c([O-])[n-]c(=O)n(-c3ccc(O)cc3)c2=O)cc1 (3D coordinates assigned)
Cc1ccc(/C=C/c2c([O-])[n-]c(=O)n(-c3ccc(O)cc3)c2=O)cc1 (optimized conformer: 59.96082279182596 kcal/mol)

>  <smiles>  (88) 
Cc1ccc(C=Cc2c(O)[nH]c(=O)n(-c3ccc(O)cc3)c2=O)cc1

>  <score_type>  (88) 
oracle

>  <origin>  (88) 
adg

>  <m_score__min__energy>  (88) 
-11.69

>  <m_primary>  (88) 
energy

$$$$
88:0
     RDKit          3D

 70 73  0  0  0  0  0  0  0  0999 V2000
   57.3730   31.5900   41.9440 C   0  0  0  0  0  0  0  0  0  0  0  0
   57.5790   32.8040   42.6550 O   0  0  0  0  0  0  0  0  0  0  0  0
   58.0710   32.8820   43.9660 C   0  0  0  0  0  0  0  0  0  0  0  0
   58.3320   34.1040   44.5990 C   0  0  0  0  0  0  0  0  0  0  0  0
   58.8040   34.1310   45.9100 C   0  0  0  0  0  0  0  0  0  0  0  0
   59.0250   32.9400   46.6300 C   0  0  0  0  0  0  0  0  0  0  0  0
   59.4180   32.9650   48.0250 N   0  0  0  0  0  0  0  0  0  0  0  0
   60.7800   32.9180   48.5820 C   0  0  0  0  0  0  0  0  0  0  0  0
   61.7580   32.0680   47.7320 C   0  0  0  0  0  0  0  0  0  0  0  0
   63.2070   32.5520   47.8790 C   0  0  0  0  0  0  0  0  0  0  0  0
   63.4340   33.0150   49.2620 N   0  0  0  0  0  0  0  0  0  0  0  0
   64.8720   33.1550   49.5570 C   0  0  0  0  0  0  0  0  0  0  0  0
   65.3570   31.9830   50.3690 C   0  0  0  0  0  0  0  0  0  0  0  0
   64.4310   31.0950   50.9400 C   0  0  0  0  0  0  0  0  0  0  0  0
   64.8730   29.9990   51.6870 C   0  0  0  0  0  0  0  0  0  0  0  0
   66.2430   29.7860   51.8730 C   0  0  0  0  0  0  0  0  0  0  0  0
   67.1710   30.6690   51.3150 C   0  0  0  0  0  0  0  0  0  0  0  0
   66.7310   31.7650   50.5660 C   0  0  0  0  0  0  0  0  0  0  0  0
   62.7290   34.2960   49.5080 C   0  0  0  0  0  0  0  0  0  0  0  0
   61.3050   34.3290   48.9060 C   0  0  0  0  0  0  0  0  0  0  0  0
   58.7880   31.6980   45.9830 C   0  0  0  0  0  0  0  0  0  0  0  0
   59.0820   30.4530   46.6560 N   0  0  0  0  0  0  0  0  0  0  0  0
   58.6790   30.1420   48.0300 C   0  0  0  0  0  0  0  0  0  0  0  0
   58.5680   28.6280   48.2460 C   0  0  0  0  0  0  0  0  0  0  0  0
   59.6980   27.9330   47.6370 N   0  0  0  0  0  0  0  0  0  0  0  0
   59.6770   27.3720   46.3180 C   0  0  0  0  0  0  0  0  0  0  0  0
   59.7600   28.1230   45.3070 O   0  0  0  0  0  0  0  0  0  0  0  0
   59.6420   25.8830   46.1550 C   0  0  0  0  0  0  0  0  0  0  0  0
   58.2270   25.3640   46.0810 C   0  0  0  0  0  0  0  0  0  0  0  0
   57.1510   26.2690   46.0790 C   0  0  0  0  0  0  0  0  0  0  0  0
   55.8350   25.8030   45.9890 C   0  0  0  0  0  0  0  0  0  0  0  0
   54.7760   26.7040   45.9950 O   0  0  0  0  0  0  0  0  0  0  0  0
   55.5840   24.4310   45.8910 C   0  0  0  0  0  0  0  0  0  0  0  0
   56.6480   23.5240   45.8790 C   0  0  0  0  0  0  0  0  0  0  0  0
   57.9670   23.9850   45.9680 C   0  0  0  0  0  0  0  0  0  0  0  0
   59.0100   23.0650   45.9420 O   0  0  0  0  0  0  0  0  0  0  0  0
   58.3080   31.6930   44.6580 C   0  0  0  0  0  0  0  0  0  0  0  0
   57.2331   30.7657   42.6588 H   0  0  0  0  0  0  0  0  0  0  0  0
   56.4778   31.6828   41.3116 H   0  0  0  0  0  0  0  0  0  0  0  0
   58.2487   31.3823   41.3116 H   0  0  0  0  0  0  0  0  0  0  0  0
   58.1636   35.0472   44.0585 H   0  0  0  0  0  0  0  0  0  0  0  0
   59.0076   35.0990   46.3912 H   0  0  0  0  0  0  0  0  0  0  0  0
   58.6660   33.0950   48.7380 H   0  0  0  0  0  0  0  0  0  0  0  0
   60.7172   32.3830   49.5411 H   0  0  0  0  0  0  0  0  0  0  0  0
   61.6973   31.0200   48.0605 H   0  0  0  0  0  0  0  0  0  0  0  0
   61.4691   32.1676   46.6753 H   0  0  0  0  0  0  0  0  0  0  0  0
   63.8948   31.7241   47.6521 H   0  0  0  0  0  0  0  0  0  0  0  0
   63.3886   33.3820   47.1804 H   0  0  0  0  0  0  0  0  0  0  0  0
   65.4334   33.1986   48.6121 H   0  0  0  0  0  0  0  0  0  0  0  0
   65.0302   34.0786   50.1331 H   0  0  0  0  0  0  0  0  0  0  0  0
   63.3530   31.2625   50.7989 H   0  0  0  0  0  0  0  0  0  0  0  0
   64.1435   29.3041   52.1285 H   0  0  0  0  0  0  0  0  0  0  0  0
   66.5901   28.9224   52.4592 H   0  0  0  0  0  0  0  0  0  0  0  0
   68.2479   30.5021   51.4649 H   0  0  0  0  0  0  0  0  0  0  0  0
   67.4638   32.4594   50.1292 H   0  0  0  0  0  0  0  0  0  0  0  0
   62.6537   34.4513   50.5944 H   0  0  0  0  0  0  0  0  0  0  0  0
   63.3111   35.0905   49.0182 H   0  0  0  0  0  0  0  0  0  0  0  0
   60.6251   34.8030   49.6292 H   0  0  0  0  0  0  0  0  0  0  0  0
   61.3479   34.8985   47.9659 H   0  0  0  0  0  0  0  0  0  0  0  0
   59.5170   29.6740   46.1150 H   0  0  0  0  0  0  0  0  0  0  0  0
   59.4282   30.5496   48.7247 H   0  0  0  0  0  0  0  0  0  0  0  0
   57.6930   30.5934   48.2145 H   0  0  0  0  0  0  0  0  0  0  0  0
   58.5548   28.4178   49.3256 H   0  0  0  0  0  0  0  0  0  0  0  0
   57.6399   28.2719   47.7751 H   0  0  0  0  0  0  0  0  0  0  0  0
   60.1699   25.6131   45.2284 H   0  0  0  0  0  0  0  0  0  0  0  0
   60.1286   25.4300   47.0314 H   0  0  0  0  0  0  0  0  0  0  0  0
   57.3450   27.3495   46.1486 H   0  0  0  0  0  0  0  0  0  0  0  0
   54.5489   24.0650   45.8233 H   0  0  0  0  0  0  0  0  0  0  0  0
   56.4482   22.4452   45.7994 H   0  0  0  0  0  0  0  0  0  0  0  0
   58.1160   30.7319   44.1585 H   0  0  0  0  0  0  0  0  0  0  0  0
  1  2  1  0
  2  3  1  0
  3  4  2  0
  4  5  1  0
  5  6  2  0
  6  7  1  0
  7  8  1  0
  8  9  1  0
  9 10  1  0
 10 11  1  0
 11 12  1  0
 12 13  1  0
 13 14  2  0
 14 15  1  0
 15 16  2  0
 16 17  1  0
 17 18  2  0
 11 19  1  0
 19 20  1  0
  6 21  1  0
 21 22  1  0
 22 23  1  0
 23 24  1  0
 24 25  1  0
 25 26  1  0
 26 27  2  0
 26 28  1  0
 28 29  1  0
 29 30  2  0
 30 31  1  0
 31 32  1  0
 31 33  2  0
 33 34  1  0
 34 35  2  0
 35 36  1  0
 21 37  2  0
 37  3  1  0
 20  8  1  0
 35 29  1  0
 18 13  1  0
  1 38  1  0
  1 39  1  0
  1 40  1  0
  4 41  1  0
  5 42  1  0
  7 43  1  0
  8 44  1  0
  9 45  1  0
  9 46  1  0
 10 47  1  0
 10 48  1  0
 12 49  1  0
 12 50  1  0
 14 51  1  0
 15 52  1  0
 16 53  1  0
 17 54  1  0
 18 55  1  0
 19 56  1  0
 19 57  1  0
 20 58  1  0
 20 59  1  0
 22 60  1  0
 23 61  1  0
 23 62  1  0
 24 63  1  0
 24 64  1  0
 28 65  1  0
 28 66  1  0
 30 67  1  0
 33 68  1  0
 34 69  1  0
 37 70  1  0
M  CHG  3  25  -1  32  -1  36  -1
M  END
>  <UniqueID>  (89) 
79

>  <SMILES>  (89) 
COc1ccc(NC2CCN(Cc3ccccc3)CC2)c(NCC[N-]C(=O)Cc2cc([O-])ccc2[O-])c1

>  <Energy>  (89) 
83.0133351849298

>  <Genealogy>  (89) 
COc1ccc(NC2CCN(Cc3ccccc3)CC2)c(NCC[N-]C(=O)Cc2cc([O-])ccc2[O-])c1 (protonated)
COc1ccc(NC2CCN(Cc3ccccc3)CC2)c(NCC[N-]C(=O)Cc2cc([O-])ccc2[O-])c1 (3D coordinates assigned)
COc1ccc(NC2CCN(Cc3ccccc3)CC2)c(NCC[N-]C(=O)Cc2cc([O-])ccc2[O-])c1 (nonaromatic ring conformer: 83.0133351849298 kcal/mol)

>  <smiles>  (89) 
COc1ccc(NC2CCN(Cc3ccccc3)CC2)c(NCCNC(=O)Cc2cc(O)ccc2O)c1

>  <score_type>  (89) 
oracle

>  <origin>  (89) 
adg

>  <m_score__min__energy>  (89) 
-15.199999999999999

>  <m_primary>  (89) 
energy

$$$$
89:0
     RDKit          3D

 48 50  0  0  0  0  0  0  0  0999 V2000
   58.2030   26.8840   45.7340 C   0  0  0  0  0  0  0  0  0  0  0  0
   58.8690   28.1080   46.2900 C   0  0  0  0  0  0  0  0  0  0  0  0
   59.7590   28.8370   45.4900 C   0  0  0  0  0  0  0  0  0  0  0  0
   60.3830   29.9830   45.9920 C   0  0  0  0  0  0  0  0  0  0  0  0
   60.1370   30.4060   47.3110 C   0  0  0  0  0  0  0  0  0  0  0  0
   60.7400   31.6000   47.8390 N   0  0  0  0  0  0  0  0  0  0  0  0
   61.7600   31.5970   48.8500 C   0  0  0  0  0  0  0  0  0  0  0  0
   61.4340   31.2480   50.1710 C   0  0  0  0  0  0  0  0  0  0  0  0
   62.4130   31.2450   51.1660 C   0  0  0  0  0  0  0  0  0  0  0  0
   63.7280   31.5880   50.8520 C   0  0  0  0  0  0  0  0  0  0  0  0
   64.0670   31.9430   49.5440 C   0  0  0  0  0  0  0  0  0  0  0  0
   63.0900   31.9610   48.5320 C   0  0  0  0  0  0  0  0  0  0  0  0
   63.4990   32.2580   47.1080 C   0  0  0  0  0  0  0  0  0  0  0  0
   62.9980   33.6100   46.7010 C   0  0  0  0  0  0  0  0  0  0  0  0
   63.7390   34.6210   46.8390 O   0  0  0  0  0  0  0  0  0  0  0  0
   61.7140   33.7170   46.1530 O   0  0  0  0  0  0  0  0  0  0  0  0
   60.6480   34.4260   46.7180 C   0  0  0  0  0  0  0  0  0  0  0  0
   60.5870   34.6410   47.9620 O   0  0  0  0  0  0  0  0  0  0  0  0
   59.5430   34.8850   45.8240 C   0  0  0  0  0  0  0  0  0  0  0  0
   58.7000   33.7400   45.4400 N   0  0  0  0  0  0  0  0  0  0  0  0
   58.4940   33.4880   44.1110 C   0  0  0  0  0  0  0  0  0  0  0  0
   57.7450   32.3850   43.7080 C   0  0  0  0  0  0  0  0  0  0  0  0
   57.2110   31.5500   44.6850 C   0  0  0  0  0  0  0  0  0  0  0  0
   56.5360   30.5410   44.3470 O   0  0  0  0  0  0  0  0  0  0  0  0
   57.4240   31.8230   45.9990 N   0  0  0  0  0  0  0  0  0  0  0  0
   58.1690   32.8960   46.3820 C   0  0  0  0  0  0  0  0  0  0  0  0
   58.3660   33.1020   47.6120 O   0  0  0  0  0  0  0  0  0  0  0  0
   59.2380   29.6790   48.1040 C   0  0  0  0  0  0  0  0  0  0  0  0
   58.6100   28.5370   47.6000 C   0  0  0  0  0  0  0  0  0  0  0  0
   57.8565   26.2473   46.5614 H   0  0  0  0  0  0  0  0  0  0  0  0
   57.3432   27.1829   45.1165 H   0  0  0  0  0  0  0  0  0  0  0  0
   58.9210   26.3244   45.1165 H   0  0  0  0  0  0  0  0  0  0  0  0
   59.9677   28.5060   44.4620 H   0  0  0  0  0  0  0  0  0  0  0  0
   61.0698   30.5568   45.3524 H   0  0  0  0  0  0  0  0  0  0  0  0
   60.4220   32.5230   47.4670 H   0  0  0  0  0  0  0  0  0  0  0  0
   60.3988   30.9748   50.4234 H   0  0  0  0  0  0  0  0  0  0  0  0
   62.1474   30.9721   52.1980 H   0  0  0  0  0  0  0  0  0  0  0  0
   64.4997   31.5790   51.6358 H   0  0  0  0  0  0  0  0  0  0  0  0
   65.1065   32.2107   49.3035 H   0  0  0  0  0  0  0  0  0  0  0  0
   64.5963   32.2386   47.0328 H   0  0  0  0  0  0  0  0  0  0  0  0
   63.0653   31.4973   46.4422 H   0  0  0  0  0  0  0  0  0  0  0  0
   58.9294   35.6279   46.3546 H   0  0  0  0  0  0  0  0  0  0  0  0
   59.9740   35.3370   44.9185 H   0  0  0  0  0  0  0  0  0  0  0  0
   58.9233   34.1618   43.3549 H   0  0  0  0  0  0  0  0  0  0  0  0
   57.5791   32.1783   42.6404 H   0  0  0  0  0  0  0  0  0  0  0  0
   57.0190   31.1900   46.7250 H   0  0  0  0  0  0  0  0  0  0  0  0
   59.0253   30.0102   49.1312 H   0  0  0  0  0  0  0  0  0  0  0  0
   57.9098   27.9723   48.2331 H   0  0  0  0  0  0  0  0  0  0  0  0
  1  2  1  0
  2  3  2  0
  3  4  1  0
  4  5  2  0
  5  6  1  0
  6  7  1  0
  7  8  2  0
  8  9  1  0
  9 10  2  0
 10 11  1  0
 11 12  2  0
 12 13  1  0
 13 14  1  0
 14 15  2  0
 14 16  1  0
 16 17  1  0
 17 18  2  0
 17 19  1  0
 19 20  1  0
 20 21  1  0
 21 22  2  0
 22 23  1  0
 23 24  2  0
 23 25  1  0
 25 26  1  0
 26 27  2  0
  5 28  1  0
 28 29  2  0
 29  2  1  0
 12  7  1  0
 26 20  1  0
  1 30  1  0
  1 31  1  0
  1 32  1  0
  3 33  1  0
  4 34  1  0
  6 35  1  0
  8 36  1  0
  9 37  1  0
 10 38  1  0
 11 39  1  0
 13 40  1  0
 13 41  1  0
 19 42  1  0
 19 43  1  0
 21 44  1  0
 22 45  1  0
 25 46  1  0
 28 47  1  0
 29 48  1  0
M  END
>  <UniqueID>  (90) 
80

>  <SMILES>  (90) 
Cc1ccc(Nc2ccccc2CC(=O)OC(=O)Cn2ccc(=O)[nH]c2=O)cc1

>  <Energy>  (90) 
51.15240141605917

>  <Genealogy>  (90) 
Cc1ccc(Nc2ccccc2CC(=O)OC(=O)Cn2ccc(=O)[nH]c2=O)cc1 (3D coordinates assigned)
Cc1ccc(Nc2ccccc2CC(=O)OC(=O)Cn2ccc(=O)[nH]c2=O)cc1 (optimized conformer: 51.15240141605917 kcal/mol)

>  <smiles>  (90) 
Cc1ccc(Nc2ccccc2CC(=O)OC(=O)Cn2ccc(=O)[nH]c2=O)cc1

>  <score_type>  (90) 
oracle

>  <origin>  (90) 
adg

>  <m_score__min__energy>  (90) 
-9.0500000000000007

>  <m_primary>  (90) 
energy

$$$$
90:0
     RDKit          3D

 54 57  0  0  0  0  0  0  0  0999 V2000
   60.4671   26.7948   51.2337 H   0  0  0  0  0  0  0  0  0  0  0  0
   60.7240   27.7200   50.6970 C   0  0  0  0  0  0  0  0  0  0  0  0
   61.3550   28.7320   51.3490 N   0  0  0  0  0  0  0  0  0  0  0  0
   61.6840   29.8930   50.7250 C   0  0  0  0  0  0  0  0  0  0  0  0
   62.1939   30.6900   51.2861 H   0  0  0  0  0  0  0  0  0  0  0  0
   61.3760   30.0820   49.3640 C   0  0  0  0  0  0  0  0  0  0  0  0
   61.7360   31.3320   48.6440 C   0  0  0  0  0  0  0  0  0  0  0  0
   61.0540   32.4790   48.9200 N   0  0  0  0  0  0  0  0  0  0  0  0
   61.3420   33.6510   48.2960 C   0  0  0  0  0  0  0  0  0  0  0  0
   60.6670   34.7180   48.6040 N   0  0  0  0  0  0  0  0  0  0  0  0
   59.2650   34.9520   48.2550 C   0  0  0  0  0  0  0  0  0  0  0  0
   59.1079   36.0291   48.0963 H   0  0  0  0  0  0  0  0  0  0  0  0
   58.6318   34.5897   49.0782 H   0  0  0  0  0  0  0  0  0  0  0  0
   58.8950   34.2090   46.9990 C   0  0  0  0  0  0  0  0  0  0  0  0
   59.5650   34.4670   45.7930 C   0  0  0  0  0  0  0  0  0  0  0  0
   60.3816   35.2036   45.7673 H   0  0  0  0  0  0  0  0  0  0  0  0
   59.2000   33.7930   44.6250 C   0  0  0  0  0  0  0  0  0  0  0  0
   59.7285   34.0055   43.6839 H   0  0  0  0  0  0  0  0  0  0  0  0
   58.1630   32.8460   44.6440 C   0  0  0  0  0  0  0  0  0  0  0  0
   57.7520   32.1510   43.4010 C   0  0  0  0  0  0  0  0  0  0  0  0
   58.4370   32.3060   42.3550 O   0  0  0  0  0  0  0  0  0  0  0  0
   56.6280   31.2570   43.3600 N   0  0  0  0  0  0  0  0  0  0  0  0
   56.4740   30.2050   44.1070 C   0  0  0  0  0  0  0  0  0  0  0  0
   55.2940   29.7660   44.5850 N   0  0  0  0  0  0  0  0  0  0  0  0
   55.5530   28.6770   45.2490 O   0  0  0  0  0  0  0  0  0  0  0  0
   56.8380   28.3890   45.2210 C   0  0  0  0  0  0  0  0  0  0  0  0
   57.4670   27.1800   45.8830 C   0  0  0  0  0  0  0  0  0  0  0  0
   56.3970   26.1000   46.1370 C   0  0  0  0  0  0  0  0  0  0  0  0
   56.2627   25.9645   47.2203 H   0  0  0  0  0  0  0  0  0  0  0  0
   55.4443   26.4145   45.6860 H   0  0  0  0  0  0  0  0  0  0  0  0
   56.7204   25.1503   45.6860 H   0  0  0  0  0  0  0  0  0  0  0  0
   58.5580   26.6070   44.9590 C   0  0  0  0  0  0  0  0  0  0  0  0
   59.3685   26.1813   45.5688 H   0  0  0  0  0  0  0  0  0  0  0  0
   58.1247   25.8201   44.3242 H   0  0  0  0  0  0  0  0  0  0  0  0
   58.9599   27.4104   44.3242 H   0  0  0  0  0  0  0  0  0  0  0  0
   58.0920   27.5930   47.2320 C   0  0  0  0  0  0  0  0  0  0  0  0
   57.4841   27.1913   48.0560 H   0  0  0  0  0  0  0  0  0  0  0  0
   59.1139   27.1917   47.3008 H   0  0  0  0  0  0  0  0  0  0  0  0
   58.1236   28.6904   47.3008 H   0  0  0  0  0  0  0  0  0  0  0  0
   57.4910   29.3550   44.4750 C   0  0  0  0  0  0  0  0  0  0  0  0
   58.5622   29.4257   44.2349 H   0  0  0  0  0  0  0  0  0  0  0  0
   57.4830   32.6000   45.8480 C   0  0  0  0  0  0  0  0  0  0  0  0
   56.6555   31.8756   45.8705 H   0  0  0  0  0  0  0  0  0  0  0  0
   57.8520   33.2710   47.0190 C   0  0  0  0  0  0  0  0  0  0  0  0
   57.3217   33.0620   47.9598 H   0  0  0  0  0  0  0  0  0  0  0  0
   62.3360   33.6920   47.3680 N   0  0  0  0  0  0  0  0  0  0  0  0
   63.0530   32.5810   47.0600 C   0  0  0  0  0  0  0  0  0  0  0  0
   63.8547   32.6338   46.3087 H   0  0  0  0  0  0  0  0  0  0  0  0
   62.7720   31.3730   47.6970 C   0  0  0  0  0  0  0  0  0  0  0  0
   63.3516   30.4681   47.4619 H   0  0  0  0  0  0  0  0  0  0  0  0
   60.7330   29.0360   48.6800 C   0  0  0  0  0  0  0  0  0  0  0  0
   60.4888   29.1480   47.6133 H   0  0  0  0  0  0  0  0  0  0  0  0
   60.4030   27.8560   49.3480 C   0  0  0  0  0  0  0  0  0  0  0  0
   59.8938   27.0402   48.8140 H   0  0  0  0  0  0  0  0  0  0  0  0
  1  2  1  0
  2  3  2  0
  3  4  1  0
  4  5  1  0
  4  6  2  0
  6  7  1  0
  7  8  2  0
  8  9  1  0
  9 10  2  3
 10 11  1  0
 11 12  1  0
 11 13  1  0
 11 14  1  0
 14 15  2  0
 15 16  1  0
 15 17  1  0
 17 18  1  0
 17 19  2  0
 19 20  1  0
 20 21  2  0
 20 22  1  0
 22 23  2  0
 23 24  1  0
 24 25  1  0
 25 26  1  0
 26 27  1  0
 27 28  1  0
 28 29  1  0
 28 30  1  0
 28 31  1  0
 27 32  1  0
 32 33  1  0
 32 34  1  0
 32 35  1  0
 27 36  1  0
 36 37  1  0
 36 38  1  0
 36 39  1  0
 26 40  2  0
 40 41  1  0
 19 42  1  0
 42 43  1  0
 42 44  2  0
 44 45  1  0
  9 46  1  0
 46 47  1  0
 47 48  1  0
 47 49  2  0
 49 50  1  0
  6 51  1  0
 51 52  1  0
 51 53  2  0
 53 54  1  0
 53  2  1  0
 49  7  1  0
 44 14  1  0
 40 23  1  0
M  CHG  2  24  -1  46  -1
M  END
>  <UniqueID>  (91) 
81

>  <SMILES>  (91) 
CC(C)(C)c1c/c(=N/C(=O)c2ccc(CN=c3nc(-c4cccnc4)cc[n-]3)cc2)[n-]o1

>  <Energy>  (91) 
97.14373175284953

>  <Genealogy>  (91) 
CC(C)(C)c1cc(=NC(=O)c2ccc(CN=c3nc(-c4cccnc4)cc[n-]3)cc2)[n-]o1 (protonated)
CC(C)(C)c1c/c(=N/C(=O)c2ccc(CN=c3nc(-c4cccnc4)cc[n-]3)cc2)[n-]o1 (cis-trans isomerization)
CC(C)(C)c1c/c(=N/C(=O)c2ccc(CN=c3nc(-c4cccnc4)cc[n-]3)cc2)[n-]o1 (3D coordinates assigned)
CC(C)(C)c1c/c(=N/C(=O)c2ccc(CN=c3nc(-c4cccnc4)cc[n-]3)cc2)[n-]o1 (optimized conformer: 97.14373175284953 kcal/mol)

>  <smiles>  (91) 
CC(C)(C)c1cc(=NC(=O)c2ccc(CN=c3nc(-c4cccnc4)cc[nH]3)cc2)[nH]o1

>  <score_type>  (91) 
oracle

>  <origin>  (91) 
adg

>  <m_score__min__energy>  (91) 
-13.140000000000001

>  <m_primary>  (91) 
energy

$$$$
91:0
     RDKit          3D

 40 41  0  0  0  0  0  0  0  0999 V2000
   54.7810   26.3390   45.9540 O   0  0  0  0  0  0  0  0  0  0  0  0
   55.5570   25.3480   46.0080 C   0  0  0  0  0  0  0  0  0  0  0  0
   55.4130   24.4160   47.0270 O   0  0  0  0  0  0  0  0  0  0  0  0
   56.6070   25.1560   44.9570 C   0  0  0  0  0  0  0  0  0  0  0  0
   57.9270   25.8420   45.3380 C   0  0  0  0  0  0  0  0  0  0  0  0
   57.7440   27.2830   45.8380 C   0  0  0  0  0  0  0  0  0  0  0  0
   57.3090   28.1760   44.7650 N   0  0  0  0  0  0  0  0  0  0  0  0
   56.6570   29.4420   44.9380 C   0  0  0  0  0  0  0  0  0  0  0  0
   55.4040   29.4960   44.8300 O   0  0  0  0  0  0  0  0  0  0  0  0
   57.4010   30.6760   45.2560 C   0  0  0  0  0  0  0  0  0  0  0  0
   58.3620   30.6680   46.2770 C   0  0  0  0  0  0  0  0  0  0  0  0
   59.0650   31.8330   46.5940 C   0  0  0  0  0  0  0  0  0  0  0  0
   58.8100   33.0320   45.9060 C   0  0  0  0  0  0  0  0  0  0  0  0
   59.5530   34.2690   46.2410 C   0  0  0  0  0  0  0  0  0  0  0  0
   58.9260   35.3420   46.4580 O   0  0  0  0  0  0  0  0  0  0  0  0
   60.9860   34.2630   46.2720 N   0  0  0  0  0  0  0  0  0  0  0  0
   61.7930   33.8200   47.3720 C   0  0  0  0  0  0  0  0  0  0  0  0
   62.9670   33.1070   47.0970 C   0  0  0  0  0  0  0  0  0  0  0  0
   63.7800   32.6510   48.1370 C   0  0  0  0  0  0  0  0  0  0  0  0
   63.4160   32.8880   49.4640 C   0  0  0  0  0  0  0  0  0  0  0  0
   62.2300   33.5680   49.7530 C   0  0  0  0  0  0  0  0  0  0  0  0
   61.4050   34.0230   48.7140 C   0  0  0  0  0  0  0  0  0  0  0  0
   60.1920   34.6430   49.0140 O   0  0  0  0  0  0  0  0  0  0  0  0
   57.8260   33.0400   44.8990 C   0  0  0  0  0  0  0  0  0  0  0  0
   57.1250   31.8740   44.5820 C   0  0  0  0  0  0  0  0  0  0  0  0
   56.7896   24.0789   44.8286 H   0  0  0  0  0  0  0  0  0  0  0  0
   56.2431   25.6093   44.0231 H   0  0  0  0  0  0  0  0  0  0  0  0
   58.4077   25.2550   46.1345 H   0  0  0  0  0  0  0  0  0  0  0  0
   58.5424   25.8901   44.4275 H   0  0  0  0  0  0  0  0  0  0  0  0
   56.9874   27.2900   46.6365 H   0  0  0  0  0  0  0  0  0  0  0  0
   58.7142   27.6425   46.2115 H   0  0  0  0  0  0  0  0  0  0  0  0
   58.5635   29.7395   46.8314 H   0  0  0  0  0  0  0  0  0  0  0  0
   59.8248   31.8118   47.3891 H   0  0  0  0  0  0  0  0  0  0  0  0
   63.2508   32.9047   46.0537 H   0  0  0  0  0  0  0  0  0  0  0  0
   64.7076   32.1048   47.9106 H   0  0  0  0  0  0  0  0  0  0  0  0
   64.0632   32.5393   50.2823 H   0  0  0  0  0  0  0  0  0  0  0  0
   61.9423   33.7472   50.7995 H   0  0  0  0  0  0  0  0  0  0  0  0
   59.6640   35.1460   48.3110 H   0  0  0  0  0  0  0  0  0  0  0  0
   57.6074   33.9721   44.3574 H   0  0  0  0  0  0  0  0  0  0  0  0
   56.3523   31.8959   43.7994 H   0  0  0  0  0  0  0  0  0  0  0  0
  1  2  2  0
  2  3  1  0
  2  4  1  0
  4  5  1  0
  5  6  1  0
  6  7  1  0
  7  8  1  0
  8  9  2  0
  8 10  1  0
 10 11  2  0
 11 12  1  0
 12 13  2  0
 13 14  1  0
 14 15  2  0
 14 16  1  0
 16 17  1  0
 17 18  2  0
 18 19  1  0
 19 20  2  0
 20 21  1  0
 21 22  2  0
 22 23  1  0
 13 24  1  0
 24 25  2  0
 25 10  1  0
 22 17  1  0
  4 26  1  0
  4 27  1  0
  5 28  1  0
  5 29  1  0
  6 30  1  0
  6 31  1  0
 11 32  1  0
 12 33  1  0
 18 34  1  0
 19 35  1  0
 20 36  1  0
 21 37  1  0
 23 38  1  0
 24 39  1  0
 25 40  1  0
M  CHG  3   3  -1   7  -1  16  -1
M  END
>  <UniqueID>  (92) 
82

>  <SMILES>  (92) 
O=C([O-])CCC[N-]C(=O)c1ccc(C(=O)[N-]c2ccccc2O)cc1

>  <Energy>  (92) 
46.33554201779942

>  <Genealogy>  (92) 
O=C([O-])CCC[N-]C(=O)c1ccc(C(=O)[N-]c2ccccc2O)cc1 (protonated)
O=C([O-])CCC[N-]C(=O)c1ccc(C(=O)[N-]c2ccccc2O)cc1 (3D coordinates assigned)
O=C([O-])CCC[N-]C(=O)c1ccc(C(=O)[N-]c2ccccc2O)cc1 (optimized conformer: 46.33554201779942 kcal/mol)

>  <smiles>  (92) 
O=C(O)CCCNC(=O)c1ccc(C(=O)Nc2ccccc2O)cc1

>  <score_type>  (92) 
oracle

>  <origin>  (92) 
adg

>  <m_score__min__energy>  (92) 
-12.359999999999999

>  <m_primary>  (92) 
energy

$$$$
92:0
     RDKit          3D

 41 43  0  0  0  0  0  0  0  0999 V2000
   54.7740   26.3430   45.9560 O   0  0  0  0  0  0  0  0  0  0  0  0
   55.8770   25.8980   46.3750 C   0  0  0  0  0  0  0  0  0  0  0  0
   55.9240   24.6230   46.9270 O   0  0  0  0  0  0  0  0  0  0  0  0
   57.1030   26.7190   46.2780 C   0  0  0  0  0  0  0  0  0  0  0  0
   58.2060   26.4450   47.1020 C   0  0  0  0  0  0  0  0  0  0  0  0
   59.3700   27.2090   46.9990 C   0  0  0  0  0  0  0  0  0  0  0  0
   59.4470   28.2580   46.0790 C   0  0  0  0  0  0  0  0  0  0  0  0
   58.3500   28.5510   45.2490 C   0  0  0  0  0  0  0  0  0  0  0  0
   58.3660   29.6210   44.2910 N   0  0  0  0  0  0  0  0  0  0  0  0
   57.3040   30.9940   44.2170 S   0  0  0  0  0  0  0  0  0  0  0  0
   55.9790   30.6880   44.8550 O   0  0  0  0  0  0  0  0  0  0  0  0
   57.0620   31.3020   42.7640 O   0  0  0  0  0  0  0  0  0  0  0  0
   58.0580   32.3880   44.9910 C   0  0  0  0  0  0  0  0  0  0  0  0
   58.4750   33.4840   44.2250 C   0  0  0  0  0  0  0  0  0  0  0  0
   59.1220   34.5610   44.8340 C   0  0  0  0  0  0  0  0  0  0  0  0
   59.3600   34.5510   46.2110 C   0  0  0  0  0  0  0  0  0  0  0  0
   58.9400   33.4630   46.9990 C   0  0  0  0  0  0  0  0  0  0  0  0
   59.2110   33.4450   48.4610 C   0  0  0  0  0  0  0  0  0  0  0  0
   59.4310   34.5250   49.0700 O   0  0  0  0  0  0  0  0  0  0  0  0
   59.1420   32.2310   49.2240 N   0  0  0  0  0  0  0  0  0  0  0  0
   58.5820   32.0320   50.3870 C   0  0  0  0  0  0  0  0  0  0  0  0
   57.7250   30.9810   50.5030 N   0  0  0  0  0  0  0  0  0  0  0  0
   57.0960   30.6710   51.6660 C   0  0  0  0  0  0  0  0  0  0  0  0
   57.3160   31.4410   52.8040 C   0  0  0  0  0  0  0  0  0  0  0  0
   58.1750   32.5350   52.7300 C   0  0  0  0  0  0  0  0  0  0  0  0
   58.8050   32.8600   51.5200 C   0  0  0  0  0  0  0  0  0  0  0  0
   59.6100   33.9960   51.4550 O   0  0  0  0  0  0  0  0  0  0  0  0
   58.2750   32.3910   46.3750 C   0  0  0  0  0  0  0  0  0  0  0  0
   57.1900   27.7730   45.3500 C   0  0  0  0  0  0  0  0  0  0  0  0
   58.1529   25.6243   47.8325 H   0  0  0  0  0  0  0  0  0  0  0  0
   60.2311   26.9840   47.6455 H   0  0  0  0  0  0  0  0  0  0  0  0
   60.3674   28.8557   46.0038 H   0  0  0  0  0  0  0  0  0  0  0  0
   58.2922   33.4963   43.1404 H   0  0  0  0  0  0  0  0  0  0  0  0
   59.4454   35.4201   44.2280 H   0  0  0  0  0  0  0  0  0  0  0  0
   59.8789   35.3988   46.6821 H   0  0  0  0  0  0  0  0  0  0  0  0
   56.4121   29.8105   51.7085 H   0  0  0  0  0  0  0  0  0  0  0  0
   56.8172   31.1886   53.7513 H   0  0  0  0  0  0  0  0  0  0  0  0
   58.3601   33.1470   53.6251 H   0  0  0  0  0  0  0  0  0  0  0  0
   60.0220   34.3100   50.5850 H   0  0  0  0  0  0  0  0  0  0  0  0
   57.9211   31.5446   46.9819 H   0  0  0  0  0  0  0  0  0  0  0  0
   56.3339   27.9892   44.6939 H   0  0  0  0  0  0  0  0  0  0  0  0
  1  2  2  0
  2  3  1  0
  2  4  1  0
  4  5  2  0
  5  6  1  0
  6  7  2  0
  7  8  1  0
  8  9  1  0
  9 10  1  0
 10 11  2  0
 10 12  2  0
 10 13  1  0
 13 14  2  0
 14 15  1  0
 15 16  2  0
 16 17  1  0
 17 18  1  0
 18 19  2  0
 18 20  1  0
 20 21  2  3
 21 22  1  0
 22 23  1  0
 23 24  2  0
 24 25  1  0
 25 26  2  0
 26 27  1  0
 17 28  2  0
  8 29  2  0
 29  4  1  0
 28 13  1  0
 26 21  1  0
  5 30  1  0
  6 31  1  0
  7 32  1  0
 14 33  1  0
 15 34  1  0
 16 35  1  0
 23 36  1  0
 24 37  1  0
 25 38  1  0
 27 39  1  0
 28 40  1  0
 29 41  1  0
M  CHG  3   3  -1   9  -1  22  -1
M  END
>  <UniqueID>  (93) 
83

>  <SMILES>  (93) 
O=C([O-])c1cccc([N-]S(=O)(=O)c2cccc(C(=O)N=c3[n-]cccc3O)c2)c1

>  <Energy>  (93) 
59.50438834524227

>  <Genealogy>  (93) 
O=C([O-])c1cccc([N-]S(=O)(=O)c2cccc(C(=O)N=c3[n-]cccc3O)c2)c1 (protonated)
O=C([O-])c1cccc([N-]S(=O)(=O)c2cccc(C(=O)N=c3[n-]cccc3O)c2)c1 (3D coordinates assigned)
O=C([O-])c1cccc([N-]S(=O)(=O)c2cccc(C(=O)N=c3[n-]cccc3O)c2)c1 (optimized conformer: 59.50438834524227 kcal/mol)

>  <smiles>  (93) 
O=C(O)c1cccc(NS(=O)(=O)c2cccc(C(=O)N=c3[nH]cccc3O)c2)c1

>  <score_type>  (93) 
oracle

>  <origin>  (93) 
adg

>  <m_score__min__energy>  (93) 
-15.210000000000001

>  <m_primary>  (93) 
energy

$$$$
93:0
     RDKit          3D

 36 38  0  0  0  0  0  0  0  0999 V2000
   55.3640   29.3740   44.8630 O   0  0  0  0  0  0  0  0  0  0  0  0
   56.5880   29.6770   44.8780 C   0  0  0  0  0  0  0  0  0  0  0  0
   56.9930   31.0510   44.8700 N   0  0  0  0  0  0  0  0  0  0  0  0
   57.9960   31.6500   45.7040 C   0  0  0  0  0  0  0  0  0  0  0  0
   58.6250   30.9400   46.7430 C   0  0  0  0  0  0  0  0  0  0  0  0
   59.5810   31.5690   47.5470 C   0  0  0  0  0  0  0  0  0  0  0  0
   59.9060   32.9100   47.3310 C   0  0  0  0  0  0  0  0  0  0  0  0
   59.2680   33.6300   46.3160 C   0  0  0  0  0  0  0  0  0  0  0  0
   59.6640   35.3190   46.0540 Cl  0  0  0  0  0  0  0  0  0  0  0  0
   58.3100   33.0030   45.5110 C   0  0  0  0  0  0  0  0  0  0  0  0
   57.5860   28.6550   45.0010 N   0  0  0  0  0  0  0  0  0  0  0  0
   57.3300   27.2490   44.8410 C   0  0  0  0  0  0  0  0  0  0  0  0
   56.6620   26.5530   45.8580 C   0  0  0  0  0  0  0  0  0  0  0  0
   56.4150   25.1820   45.7360 C   0  0  0  0  0  0  0  0  0  0  0  0
   56.8390   24.4820   44.5950 C   0  0  0  0  0  0  0  0  0  0  0  0
   56.5810   23.0260   44.4750 C   0  0  0  0  0  0  0  0  0  0  0  0
   56.0280   22.5800   43.4350 O   0  0  0  0  0  0  0  0  0  0  0  0
   56.8810   22.1100   45.5390 N   0  0  0  0  0  0  0  0  0  0  0  0
   56.4300   22.1890   46.7560 C   0  0  0  0  0  0  0  0  0  0  0  0
   57.2410   22.0880   47.8300 N   0  0  0  0  0  0  0  0  0  0  0  0
   56.5550   22.2390   48.9940 C   0  0  0  0  0  0  0  0  0  0  0  0
   55.1920   22.4720   48.8530 C   0  0  0  0  0  0  0  0  0  0  0  0
   54.8320   22.4920   47.2100 S   0  0  0  0  0  0  0  0  0  0  0  0
   57.5440   25.1720   43.5950 C   0  0  0  0  0  0  0  0  0  0  0  0
   57.7880   26.5430   43.7170 C   0  0  0  0  0  0  0  0  0  0  0  0
   58.3641   29.8868   46.9236 H   0  0  0  0  0  0  0  0  0  0  0  0
   60.0779   31.0064   48.3511 H   0  0  0  0  0  0  0  0  0  0  0  0
   60.6641   33.4001   47.9595 H   0  0  0  0  0  0  0  0  0  0  0  0
   57.8001   33.5752   44.7219 H   0  0  0  0  0  0  0  0  0  0  0  0
   58.5430   28.9520   45.3020 H   0  0  0  0  0  0  0  0  0  0  0  0
   56.3295   27.0894   46.7590 H   0  0  0  0  0  0  0  0  0  0  0  0
   55.8852   24.6486   46.5390 H   0  0  0  0  0  0  0  0  0  0  0  0
   57.0440   22.1809   49.9776 H   0  0  0  0  0  0  0  0  0  0  0  0
   54.4737   22.6179   49.6732 H   0  0  0  0  0  0  0  0  0  0  0  0
   57.9067   24.6295   42.7095 H   0  0  0  0  0  0  0  0  0  0  0  0
   58.3422   27.0720   42.9277 H   0  0  0  0  0  0  0  0  0  0  0  0
  1  2  2  0
  2  3  1  0
  3  4  1  0
  4  5  2  0
  5  6  1  0
  6  7  2  0
  7  8  1  0
  8  9  1  0
  8 10  2  0
  2 11  1  0
 11 12  1  0
 12 13  2  0
 13 14  1  0
 14 15  2  0
 15 16  1  0
 16 17  2  0
 16 18  1  0
 18 19  2  3
 19 20  1  0
 20 21  1  0
 21 22  2  0
 22 23  1  0
 15 24  1  0
 24 25  2  0
 10  4  1  0
 25 12  1  0
 23 19  1  0
  5 26  1  0
  6 27  1  0
  7 28  1  0
 10 29  1  0
 11 30  1  0
 13 31  1  0
 14 32  1  0
 21 33  1  0
 22 34  1  0
 24 35  1  0
 25 36  1  0
M  CHG  2   3  -1  20  -1
M  END
>  <UniqueID>  (94) 
84

>  <SMILES>  (94) 
O=C([N-]c1cccc(Cl)c1)Nc1ccc(C(=O)N=c2[n-]ccs2)cc1

>  <Energy>  (94) 
83.91481414085469

>  <Genealogy>  (94) 
O=C([N-]c1cccc(Cl)c1)Nc1ccc(C(=O)N=c2[n-]ccs2)cc1 (protonated)
O=C([N-]c1cccc(Cl)c1)Nc1ccc(C(=O)N=c2[n-]ccs2)cc1 (3D coordinates assigned)
O=C([N-]c1cccc(Cl)c1)Nc1ccc(C(=O)N=c2[n-]ccs2)cc1 (optimized conformer: 83.91481414085469 kcal/mol)

>  <smiles>  (94) 
O=C(Nc1ccc(C(=O)N=c2[nH]ccs2)cc1)Nc1cccc(Cl)c1

>  <score_type>  (94) 
oracle

>  <origin>  (94) 
adg

>  <m_score__min__energy>  (94) 
-10.92

>  <m_primary>  (94) 
energy

$$$$
