0:0
     RDKit          3D

 37 38  0  0  0  0  0  0  0  0999 V2000
   57.4150   31.8580   42.1750 C   0  0  0  0  0  0  0  0  0  0  0  0
   57.9530   31.0940   43.3880 C   0  0  0  0  0  0  0  0  0  0  0  0
   57.3240   31.5270   44.7250 C   0  0  1  0  0  0  0  0  0  0  0  0
   57.2750   30.3950   45.6500 N   0  0  0  0  0  0  0  0  0  0  0  0
   56.6750   29.1370   45.3260 C   0  0  0  0  0  0  0  0  0  0  0  0
   55.5020   29.0950   44.8650 O   0  0  0  0  0  0  0  0  0  0  0  0
   57.4420   27.9400   45.4870 N   0  0  0  0  0  0  0  0  0  0  0  0
   56.9920   26.6010   45.2270 C   0  0  0  0  0  0  0  0  0  0  0  0
   57.5720   25.7990   44.2290 C   0  0  0  0  0  0  0  0  0  0  0  0
   57.0890   24.5090   43.9920 C   0  0  0  0  0  0  0  0  0  0  0  0
   56.0090   24.0030   44.7350 C   0  0  0  0  0  0  0  0  0  0  0  0
   55.5020   22.6360   44.4810 C   0  0  0  0  0  0  0  0  0  0  0  0
   54.6520   22.1140   45.2520 O   0  0  0  0  0  0  0  0  0  0  0  0
   55.9540   21.9090   43.3850 O   0  0  0  0  0  0  0  0  0  0  0  0
   55.4170   24.8170   45.7150 C   0  0  0  0  0  0  0  0  0  0  0  0
   55.9010   26.1080   45.9510 C   0  0  0  0  0  0  0  0  0  0  0  0
   58.0490   32.7160   45.3310 C   0  0  0  0  0  0  0  0  0  0  0  0
   58.5710   33.7480   44.5240 C   0  0  0  0  0  0  0  0  0  0  0  0
   59.2110   34.8460   45.1080 C   0  0  0  0  0  0  0  0  0  0  0  0
   59.3280   34.9310   46.4980 C   0  0  0  0  0  0  0  0  0  0  0  0
   58.7990   33.9230   47.3060 C   0  0  0  0  0  0  0  0  0  0  0  0
   58.1560   32.8240   46.7280 C   0  0  0  0  0  0  0  0  0  0  0  0
   56.8131   32.7127   42.5174 H   0  0  0  0  0  0  0  0  0  0  0  0
   58.2570   32.2222   41.5681 H   0  0  0  0  0  0  0  0  0  0  0  0
   56.7883   31.1880   41.5681 H   0  0  0  0  0  0  0  0  0  0  0  0
   57.7509   30.0228   43.2406 H   0  0  0  0  0  0  0  0  0  0  0  0
   59.0286   31.3147   43.4540 H   0  0  0  0  0  0  0  0  0  0  0  0
   56.2931   31.8563   44.5278 H   0  0  0  0  0  0  0  0  0  0  0  0
   58.4097   26.1883   43.6318 H   0  0  0  0  0  0  0  0  0  0  0  0
   57.5582   23.8847   43.2174 H   0  0  0  0  0  0  0  0  0  0  0  0
   54.5671   24.4366   46.3007 H   0  0  0  0  0  0  0  0  0  0  0  0
   55.4201   26.7405   46.7117 H   0  0  0  0  0  0  0  0  0  0  0  0
   58.4744   33.6891   43.4298 H   0  0  0  0  0  0  0  0  0  0  0  0
   59.6228   35.6437   44.4723 H   0  0  0  0  0  0  0  0  0  0  0  0
   59.8370   35.7922   46.9554 H   0  0  0  0  0  0  0  0  0  0  0  0
   58.8882   33.9934   48.4001 H   0  0  0  0  0  0  0  0  0  0  0  0
   57.7312   32.0390   47.3709 H   0  0  0  0  0  0  0  0  0  0  0  0
  1  2  1  0
  2  3  1  0
  3  4  1  0
  4  5  1  0
  5  6  2  0
  5  7  1  0
  7  8  1  0
  8  9  2  0
  9 10  1  0
 10 11  2  0
 11 12  1  0
 12 13  2  0
 12 14  1  0
 11 15  1  0
 15 16  2  0
  3 17  1  0
 17 18  2  0
 18 19  1  0
 19 20  2  0
 20 21  1  0
 21 22  2  0
 16  8  1  0
 22 17  1  0
  1 23  1  0
  1 24  1  0
  1 25  1  0
  2 26  1  0
  2 27  1  0
  3 28  1  6
  9 29  1  0
 10 30  1  0
 15 31  1  0
 16 32  1  0
 18 33  1  0
 19 34  1  0
 20 35  1  0
 21 36  1  0
 22 37  1  0
M  CHG  3   4  -1   7  -1  14  -1
M  END
>  <UniqueID>  (1) 
1

>  <SMILES>  (1) 
CC[C@@H]([N-]C(=O)[N-]c1ccc(C(=O)[O-])cc1)c1ccccc1

>  <Energy>  (1) 
36.8951643457618

>  <Genealogy>  (1) 
CCC([N-]C(=O)[N-]c1ccc(C(=O)[O-])cc1)c1ccccc1 (protonated)
CC[C@@H]([N-]C(=O)[N-]c1ccc(C(=O)[O-])cc1)c1ccccc1 (chirality)
CC[C@@H]([N-]C(=O)[N-]c1ccc(C(=O)[O-])cc1)c1ccccc1 (3D coordinates assigned)
CC[C@@H]([N-]C(=O)[N-]c1ccc(C(=O)[O-])cc1)c1ccccc1 (optimized conformer: 36.8951643457618 kcal/mol)

>  <smiles>  (1) 
CCC(NC(=O)Nc1ccc(C(=O)O)cc1)c1ccccc1

>  <score_type>  (1) 
oracle

>  <origin>  (1) 
adg

>  <m_score__min__energy>  (1) 
-12.43

>  <m_primary>  (1) 
energy

$$$$
1:0
     RDKit          3D

 38 39  0  0  0  0  0  0  0  0999 V2000
   58.1890   27.4250   43.4590 C   0  0  0  0  0  0  0  0  0  0  0  0
   58.8430   28.4500   44.3470 C   0  0  0  0  0  0  0  0  0  0  0  0
   60.1450   28.2110   44.8170 C   0  0  0  0  0  0  0  0  0  0  0  0
   60.7900   29.1380   45.6330 C   0  0  0  0  0  0  0  0  0  0  0  0
   60.1570   30.3360   45.9850 C   0  0  0  0  0  0  0  0  0  0  0  0
   60.8350   31.2630   46.8490 N   0  0  0  0  0  0  0  0  0  0  0  0
   61.1370   31.0020   48.2290 C   0  0  0  0  0  0  0  0  0  0  0  0
   60.6460   29.9990   48.8160 O   0  0  0  0  0  0  0  0  0  0  0  0
   61.9850   31.9590   49.0110 C   0  0  0  0  0  0  0  0  0  0  0  0
   61.7700   33.2950   48.5600 O   0  0  0  0  0  0  0  0  0  0  0  0
   60.5320   33.9460   48.6390 C   0  0  0  0  0  0  0  0  0  0  0  0
   60.1630   34.4750   49.7240 O   0  0  0  0  0  0  0  0  0  0  0  0
   59.6580   34.0090   47.4470 C   0  0  0  0  0  0  0  0  0  0  0  0
   58.3700   33.4470   47.4700 C   0  0  0  0  0  0  0  0  0  0  0  0
   57.5640   33.5210   46.3300 C   0  0  0  0  0  0  0  0  0  0  0  0
   58.0230   34.1340   45.2080 N   0  0  0  0  0  0  0  0  0  0  0  0
   59.2630   34.6880   45.1560 C   0  0  0  0  0  0  0  0  0  0  0  0
   60.1030   34.6360   46.2720 C   0  0  0  0  0  0  0  0  0  0  0  0
   58.8500   30.5780   45.5320 C   0  0  0  0  0  0  0  0  0  0  0  0
   58.1910   29.6590   44.6990 C   0  0  0  0  0  0  0  0  0  0  0  0
   56.5490   30.0290   44.1440 S   0  0  0  0  0  0  0  0  0  0  0  0
   55.4010   28.9650   44.8790 N   0  0  0  0  0  0  0  0  0  0  0  0
   56.1890   31.4410   44.5120 O   0  0  0  0  0  0  0  0  0  0  0  0
   56.4770   29.8630   42.6520 O   0  0  0  0  0  0  0  0  0  0  0  0
   57.7007   26.6597   44.0803 H   0  0  0  0  0  0  0  0  0  0  0  0
   57.4371   27.9163   42.8240 H   0  0  0  0  0  0  0  0  0  0  0  0
   58.9514   26.9501   42.8240 H   0  0  0  0  0  0  0  0  0  0  0  0
   60.6615   27.2809   44.5375 H   0  0  0  0  0  0  0  0  0  0  0  0
   61.8041   28.9270   46.0034 H   0  0  0  0  0  0  0  0  0  0  0  0
   61.0340   32.2200   46.4780 H   0  0  0  0  0  0  0  0  0  0  0  0
   61.7219   31.8892   50.0768 H   0  0  0  0  0  0  0  0  0  0  0  0
   63.0439   31.6989   48.8659 H   0  0  0  0  0  0  0  0  0  0  0  0
   57.9984   32.9520   48.3793 H   0  0  0  0  0  0  0  0  0  0  0  0
   56.5556   33.0817   46.3417 H   0  0  0  0  0  0  0  0  0  0  0  0
   59.6064   35.1786   44.2333 H   0  0  0  0  0  0  0  0  0  0  0  0
   61.1069   35.0837   46.2300 H   0  0  0  0  0  0  0  0  0  0  0  0
   58.3344   31.5015   45.8342 H   0  0  0  0  0  0  0  0  0  0  0  0
   54.4640   29.4190   44.7950 H   0  0  0  0  0  0  0  0  0  0  0  0
  1  2  1  0
  2  3  2  0
  3  4  1  0
  4  5  2  0
  5  6  1  0
  6  7  1  0
  7  8  2  0
  7  9  1  0
  9 10  1  0
 10 11  1  0
 11 12  2  0
 11 13  1  0
 13 14  2  0
 14 15  1  0
 15 16  2  0
 16 17  1  0
 17 18  2  0
  5 19  1  0
 19 20  2  0
 20 21  1  0
 21 22  1  0
 21 23  2  0
 21 24  2  0
 20  2  1  0
 18 13  1  0
  1 25  1  0
  1 26  1  0
  1 27  1  0
  3 28  1  0
  4 29  1  0
  6 30  1  0
  9 31  1  0
  9 32  1  0
 14 33  1  0
 15 34  1  0
 17 35  1  0
 18 36  1  0
 19 37  1  0
 22 38  1  0
M  CHG  1  22  -1
M  END
>  <UniqueID>  (2) 
2

>  <SMILES>  (2) 
Cc1ccc(NC(=O)COC(=O)c2ccncc2)cc1S([NH-])(=O)=O

>  <Energy>  (2) 
41.90063484990301

>  <Genealogy>  (2) 
Cc1ccc(NC(=O)COC(=O)c2ccncc2)cc1S([NH-])(=O)=O (protonated)
Cc1ccc(NC(=O)COC(=O)c2ccncc2)cc1S([NH-])(=O)=O (3D coordinates assigned)
Cc1ccc(NC(=O)COC(=O)c2ccncc2)cc1S([NH-])(=O)=O (optimized conformer: 41.90063484990301 kcal/mol)

>  <smiles>  (2) 
Cc1ccc(NC(=O)COC(=O)c2ccncc2)cc1S(N)(=O)=O

>  <score_type>  (2) 
oracle

>  <origin>  (2) 
adg

>  <m_score__min__energy>  (2) 
-10.52

>  <m_primary>  (2) 
energy

$$$$
2:0
     RDKit          3D

 29 30  0  0  0  0  0  0  0  0999 V2000
   60.2550   34.6140   47.6400 C   0  0  0  0  0  0  0  0  0  0  0  0
   59.5870   34.6490   46.2970 C   0  0  0  0  0  0  0  0  0  0  0  0
   59.6460   35.7150   45.6270 O   0  0  0  0  0  0  0  0  0  0  0  0
   58.8660   33.4690   45.7470 C   0  0  0  0  0  0  0  0  0  0  0  0
   58.7890   32.2790   46.4950 C   0  0  0  0  0  0  0  0  0  0  0  0
   58.1170   31.1620   45.9920 C   0  0  0  0  0  0  0  0  0  0  0  0
   57.5010   31.2070   44.7290 C   0  0  0  0  0  0  0  0  0  0  0  0
   56.7910   30.0200   44.1960 C   0  0  0  0  0  0  0  0  0  0  0  0
   56.7240   29.8340   42.9500 O   0  0  0  0  0  0  0  0  0  0  0  0
   56.2820   29.0230   45.0940 N   0  0  0  0  0  0  0  0  0  0  0  0
   56.8670   27.9470   45.5480 C   0  0  0  0  0  0  0  0  0  0  0  0
   58.2640   27.9710   45.6650 C   0  0  0  0  0  0  0  0  0  0  0  0
   58.9490   26.8450   46.1220 C   0  0  0  0  0  0  0  0  0  0  0  0
   58.2650   25.7270   46.4750 N   0  0  0  0  0  0  0  0  0  0  0  0
   56.9100   25.6720   46.4050 C   0  0  0  0  0  0  0  0  0  0  0  0
   56.1770   26.7780   45.9620 C   0  0  0  0  0  0  0  0  0  0  0  0
   54.7900   26.7040   45.9960 O   0  0  0  0  0  0  0  0  0  0  0  0
   57.5780   32.3920   43.9800 C   0  0  0  0  0  0  0  0  0  0  0  0
   58.2510   33.5100   44.4820 C   0  0  0  0  0  0  0  0  0  0  0  0
   59.4912   34.6540   48.4306 H   0  0  0  0  0  0  0  0  0  0  0  0
   60.8348   33.6842   47.7370 H   0  0  0  0  0  0  0  0  0  0  0  0
   60.9288   35.4781   47.7370 H   0  0  0  0  0  0  0  0  0  0  0  0
   59.2630   32.2279   47.4863 H   0  0  0  0  0  0  0  0  0  0  0  0
   58.0695   30.2395   46.5893 H   0  0  0  0  0  0  0  0  0  0  0  0
   58.8214   28.8803   45.3957 H   0  0  0  0  0  0  0  0  0  0  0  0
   60.0463   26.8632   46.1965 H   0  0  0  0  0  0  0  0  0  0  0  0
   56.3850   24.7511   46.6988 H   0  0  0  0  0  0  0  0  0  0  0  0
   57.1042   32.4413   42.9885 H   0  0  0  0  0  0  0  0  0  0  0  0
   58.3002   34.4307   43.8821 H   0  0  0  0  0  0  0  0  0  0  0  0
  1  2  1  0
  2  3  2  0
  2  4  1  0
  4  5  2  0
  5  6  1  0
  6  7  2  0
  7  8  1  0
  8  9  2  0
  8 10  1  0
 10 11  2  3
 11 12  1  0
 12 13  2  0
 13 14  1  0
 14 15  1  0
 15 16  2  0
 16 17  1  0
  7 18  1  0
 18 19  2  0
 19  4  1  0
 16 11  1  0
  1 20  1  0
  1 21  1  0
  1 22  1  0
  5 23  1  0
  6 24  1  0
 12 25  1  0
 13 26  1  0
 15 27  1  0
 18 28  1  0
 19 29  1  0
M  CHG  2  14  -1  17  -1
M  END
>  <UniqueID>  (3) 
3

>  <SMILES>  (3) 
CC(=O)c1ccc(C(=O)N=c2cc[n-]cc2[O-])cc1

>  <Energy>  (3) 
43.87382788722569

>  <Genealogy>  (3) 
CC(=O)c1ccc(C(=O)N=c2cc[n-]cc2[O-])cc1 (protonated)
CC(=O)c1ccc(C(=O)N=c2cc[n-]cc2[O-])cc1 (3D coordinates assigned)
CC(=O)c1ccc(C(=O)N=c2cc[n-]cc2[O-])cc1 (optimized conformer: 43.87382788722569 kcal/mol)

>  <smiles>  (3) 
CC(=O)c1ccc(C(=O)N=c2cc[nH]cc2O)cc1

>  <score_type>  (3) 
oracle

>  <origin>  (3) 
adg

>  <m_score__min__energy>  (3) 
-12.35

>  <m_primary>  (3) 
energy

$$$$
3:0
     RDKit          3D

 65 68  0  0  0  0  0  0  0  0999 V2000
   59.1927   35.7265   46.0293 H   0  0  0  0  0  0  0  0  0  0  0  0
   59.3780   34.7440   46.4880 C   0  0  0  0  0  0  0  0  0  0  0  0
   60.6570   34.1810   46.4400 C   0  0  0  0  0  0  0  0  0  0  0  0
   61.4782   34.7237   45.9490 H   0  0  0  0  0  0  0  0  0  0  0  0
   60.8930   32.9300   47.0150 C   0  0  0  0  0  0  0  0  0  0  0  0
   61.9042   32.4977   46.9896 H   0  0  0  0  0  0  0  0  0  0  0  0
   59.8440   32.2210   47.6260 C   0  0  0  0  0  0  0  0  0  0  0  0
   60.1040   30.9040   48.2400 C   0  0  0  0  0  0  0  0  0  0  0  0
   59.5750   29.7710   47.7010 N   0  0  0  0  0  0  0  0  0  0  0  0
   59.9800   28.6650   48.3630 C   0  0  0  0  0  0  0  0  0  0  0  0
   59.6660   27.4490   48.0260 N   0  0  0  0  0  0  0  0  0  0  0  0
   59.8440   26.8430   46.7360 C   0  0  0  0  0  0  0  0  0  0  0  0
   60.9330   26.2860   46.4320 O   0  0  0  0  0  0  0  0  0  0  0  0
   58.6890   26.8110   45.7590 C   0  0  1  0  0  0  0  0  0  0  0  0
   58.5138   25.7594   45.4880 H   0  0  0  0  0  0  0  0  0  0  0  0
   57.3990   27.3550   46.4160 C   0  0  0  0  0  0  0  0  0  0  0  0
   57.0659   28.2393   45.8529 H   0  0  0  0  0  0  0  0  0  0  0  0
   57.6417   27.5981   47.4610 H   0  0  0  0  0  0  0  0  0  0  0  0
   56.2740   26.3490   46.4390 C   0  0  0  0  0  0  0  0  0  0  0  0
   55.1450   26.6910   45.9960 O   0  0  0  0  0  0  0  0  0  0  0  0
   56.4860   24.9850   46.9890 C   0  0  0  0  0  0  0  0  0  0  0  0
   57.5860   24.7140   47.5450 O   0  0  0  0  0  0  0  0  0  0  0  0
   55.4910   23.9520   46.9180 N   0  0  0  0  0  0  0  0  0  0  0  0
   54.6800   23.6290   45.7520 C   0  0  0  0  0  0  0  0  0  0  0  0
   53.7046   23.2405   46.0800 H   0  0  0  0  0  0  0  0  0  0  0  0
   54.5292   24.5357   45.1477 H   0  0  0  0  0  0  0  0  0  0  0  0
   55.1938   22.8669   45.1477 H   0  0  0  0  0  0  0  0  0  0  0  0
   59.0190   27.5560   44.4420 C   0  0  0  0  0  0  0  0  0  0  0  0
   60.1030   27.7372   44.3972 H   0  0  0  0  0  0  0  0  0  0  0  0
   58.6887   26.9281   43.6014 H   0  0  0  0  0  0  0  0  0  0  0  0
   58.2980   28.8790   44.3520 C   0  0  0  0  0  0  0  0  0  0  0  0
   57.0400   28.9500   43.7320 C   0  0  0  0  0  0  0  0  0  0  0  0
   56.5784   28.0390   43.3234 H   0  0  0  0  0  0  0  0  0  0  0  0
   56.3720   30.1740   43.6320 C   0  0  0  0  0  0  0  0  0  0  0  0
   55.3823   30.2213   43.1543 H   0  0  0  0  0  0  0  0  0  0  0  0
   56.9580   31.3370   44.1370 C   0  0  0  0  0  0  0  0  0  0  0  0
   56.4294   32.2984   44.0578 H   0  0  0  0  0  0  0  0  0  0  0  0
   58.2140   31.2790   44.7420 C   0  0  0  0  0  0  0  0  0  0  0  0
   58.6786   32.1963   45.1328 H   0  0  0  0  0  0  0  0  0  0  0  0
   58.8830   30.0550   44.8520 C   0  0  0  0  0  0  0  0  0  0  0  0
   59.8717   30.0130   45.3322 H   0  0  0  0  0  0  0  0  0  0  0  0
   61.0010   29.0290   49.6410 S   0  0  0  0  0  0  0  0  0  0  0  0
   60.9380   30.6860   49.3520 C   0  0  0  0  0  0  0  0  0  0  0  0
   61.5880   31.7020   50.2000 C   0  0  0  0  0  0  0  0  0  0  0  0
   61.2400   31.8220   51.4060 O   0  0  0  0  0  0  0  0  0  0  0  0
   62.6200   32.5430   49.6650 N   0  0  0  0  0  0  0  0  0  0  0  0
   62.9250   32.4070   48.6750 H   0  0  0  0  0  0  0  0  0  0  0  0
   63.0550   33.7630   50.3420 C   0  0  0  0  0  0  0  0  0  0  0  0
   62.8433   34.6317   49.7012 H   0  0  0  0  0  0  0  0  0  0  0  0
   62.5125   33.8639   51.2936 H   0  0  0  0  0  0  0  0  0  0  0  0
   64.5330   33.6930   50.6170 C   0  0  0  0  0  0  0  0  0  0  0  0
   65.0930   34.4280   51.6750 C   0  0  0  0  0  0  0  0  0  0  0  0
   64.4560   35.0900   52.2799 H   0  0  0  0  0  0  0  0  0  0  0  0
   66.4580   34.3210   51.9620 C   0  0  0  0  0  0  0  0  0  0  0  0
   66.8945   34.9085   52.7832 H   0  0  0  0  0  0  0  0  0  0  0  0
   67.2680   33.4680   51.2060 C   0  0  0  0  0  0  0  0  0  0  0  0
   68.3410   33.3847   51.4333 H   0  0  0  0  0  0  0  0  0  0  0  0
   66.7160   32.7220   50.1630 C   0  0  0  0  0  0  0  0  0  0  0  0
   67.3538   32.0474   49.5730 H   0  0  0  0  0  0  0  0  0  0  0  0
   65.3530   32.8310   49.8670 C   0  0  0  0  0  0  0  0  0  0  0  0
   64.9214   32.2407   49.0452 H   0  0  0  0  0  0  0  0  0  0  0  0
   58.5670   32.8060   47.6920 C   0  0  0  0  0  0  0  0  0  0  0  0
   57.7469   32.2749   48.1974 H   0  0  0  0  0  0  0  0  0  0  0  0
   58.3350   34.0600   47.1180 C   0  0  0  0  0  0  0  0  0  0  0  0
   57.3313   34.5080   47.1625 H   0  0  0  0  0  0  0  0  0  0  0  0
  1  2  1  0
  2  3  2  0
  3  4  1  0
  3  5  1  0
  5  6  1  0
  5  7  2  0
  7  8  1  0
  8  9  1  0
  9 10  1  0
 10 11  2  0
 11 12  1  0
 12 13  2  0
 12 14  1  0
 14 15  1  6
 14 16  1  0
 16 17  1  0
 16 18  1  0
 16 19  1  0
 19 20  2  0
 19 21  1  0
 21 22  2  0
 21 23  1  0
 23 24  1  0
 24 25  1  0
 24 26  1  0
 24 27  1  0
 14 28  1  0
 28 29  1  0
 28 30  1  0
 28 31  1  0
 31 32  2  0
 32 33  1  0
 32 34  1  0
 34 35  1  0
 34 36  2  0
 36 37  1  0
 36 38  1  0
 38 39  1  0
 38 40  2  0
 40 41  1  0
 10 42  1  0
 42 43  1  0
 43 44  1  0
 44 45  2  0
 44 46  1  0
 46 47  1  0
 46 48  1  0
 48 49  1  0
 48 50  1  0
 48 51  1  0
 51 52  2  0
 52 53  1  0
 52 54  1  0
 54 55  1  0
 54 56  2  0
 56 57  1  0
 56 58  1  0
 58 59  1  0
 58 60  2  0
 60 61  1  0
  7 62  1  0
 62 63  1  0
 62 64  2  0
 64 65  1  0
 64  2  1  0
 43  8  2  0
 60 51  1  0
 40 31  1  0
M  CHG  2   9  -1  23  -1
M  END
>  <UniqueID>  (4) 
4

>  <SMILES>  (4) 
C[N-]C(=O)C(=O)C[C@@H](Cc1ccccc1)C(=O)/N=c1\[n-]c(-c2ccccc2)c(C(=O)NCc2ccccc2)s1

>  <Energy>  (4) 
100.21869502916297

>  <Genealogy>  (4) 
C[N-]C(=O)C(=O)CC(Cc1ccccc1)C(=O)N=c1[n-]c(-c2ccccc2)c(C(=O)NCc2ccccc2)s1 (protonated)
C[N-]C(=O)C(=O)C[C@@H](Cc1ccccc1)C(=O)N=c1[n-]c(-c2ccccc2)c(C(=O)NCc2ccccc2)s1 (chirality)
C[N-]C(=O)C(=O)C[C@@H](Cc1ccccc1)C(=O)/N=c1\[n-]c(-c2ccccc2)c(C(=O)NCc2ccccc2)s1 (cis-trans isomerization)
C[N-]C(=O)C(=O)C[C@@H](Cc1ccccc1)C(=O)/N=c1\[n-]c(-c2ccccc2)c(C(=O)NCc2ccccc2)s1 (3D coordinates assigned)
C[N-]C(=O)C(=O)C[C@@H](Cc1ccccc1)C(=O)/N=c1\[n-]c(-c2ccccc2)c(C(=O)NCc2ccccc2)s1 (optimized conformer: 100.21869502916297 kcal/mol)

>  <smiles>  (4) 
CNC(=O)C(=O)CC(Cc1ccccc1)C(=O)N=c1[nH]c(-c2ccccc2)c(C(=O)NCc2ccccc2)s1

>  <score_type>  (4) 
oracle

>  <origin>  (4) 
adg

>  <m_score__min__energy>  (4) 
-12.960000000000001

>  <m_primary>  (4) 
energy

$$$$
4:0
     RDKit          3D

 34 36  0  0  0  0  0  0  0  0999 V2000
   60.0050   34.3160   49.2990 C   0  0  0  0  0  0  0  0  0  0  0  0
   59.4340   34.9210   48.1440 O   0  0  0  0  0  0  0  0  0  0  0  0
   59.0250   34.2150   47.0040 C   0  0  0  0  0  0  0  0  0  0  0  0
   59.2680   34.7950   45.7340 C   0  0  0  0  0  0  0  0  0  0  0  0
   58.8820   34.1380   44.5500 C   0  0  0  0  0  0  0  0  0  0  0  0
   58.2580   32.9020   44.6810 C   0  0  0  0  0  0  0  0  0  0  0  0
   57.7560   32.0020   43.7740 C   0  0  0  0  0  0  0  0  0  0  0  0
   57.7510   32.1410   42.5230 O   0  0  0  0  0  0  0  0  0  0  0  0
   57.2460   30.9430   44.4540 N   0  0  0  0  0  0  0  0  0  0  0  0
   56.6150   29.7540   43.9520 C   0  0  0  0  0  0  0  0  0  0  0  0
   55.3620   29.6420   44.0470 O   0  0  0  0  0  0  0  0  0  0  0  0
   57.3940   28.6090   43.3610 C   0  0  0  0  0  0  0  0  0  0  0  0
   58.4430   28.1070   44.3220 C   0  0  0  0  0  0  0  0  0  0  0  0
   59.6210   28.8450   44.5360 C   0  0  0  0  0  0  0  0  0  0  0  0
   60.5860   28.3890   45.4400 C   0  0  0  0  0  0  0  0  0  0  0  0
   60.3790   27.2010   46.1450 C   0  0  0  0  0  0  0  0  0  0  0  0
   59.2040   26.4710   45.9530 C   0  0  0  0  0  0  0  0  0  0  0  0
   58.2350   26.9230   45.0520 C   0  0  0  0  0  0  0  0  0  0  0  0
   57.4140   31.1740   45.7300 O   0  0  0  0  0  0  0  0  0  0  0  0
   58.0160   32.3300   45.8990 C   0  0  0  0  0  0  0  0  0  0  0  0
   58.3830   32.9520   47.0880 C   0  0  0  0  0  0  0  0  0  0  0  0
   59.5745   34.7722   50.2026 H   0  0  0  0  0  0  0  0  0  0  0  0
   59.7877   33.2377   49.2935 H   0  0  0  0  0  0  0  0  0  0  0  0
   61.0941   34.4706   49.2935 H   0  0  0  0  0  0  0  0  0  0  0  0
   59.7660   35.7739   45.6722 H   0  0  0  0  0  0  0  0  0  0  0  0
   59.0665   34.5842   43.5616 H   0  0  0  0  0  0  0  0  0  0  0  0
   56.7011   27.7877   43.1255 H   0  0  0  0  0  0  0  0  0  0  0  0
   57.8985   28.9650   42.4507 H   0  0  0  0  0  0  0  0  0  0  0  0
   59.7842   29.7856   43.9896 H   0  0  0  0  0  0  0  0  0  0  0  0
   61.5091   28.9666   45.5960 H   0  0  0  0  0  0  0  0  0  0  0  0
   61.1414   26.8405   46.8513 H   0  0  0  0  0  0  0  0  0  0  0  0
   59.0404   25.5379   46.5121 H   0  0  0  0  0  0  0  0  0  0  0  0
   57.3062   26.3502   44.9136 H   0  0  0  0  0  0  0  0  0  0  0  0
   58.1822   32.4804   48.0613 H   0  0  0  0  0  0  0  0  0  0  0  0
  1  2  1  0
  2  3  1  0
  3  4  2  0
  4  5  1  0
  5  6  2  0
  6  7  1  0
  7  8  2  0
  7  9  1  0
  9 10  1  0
 10 11  2  0
 10 12  1  0
 12 13  1  0
 13 14  2  0
 14 15  1  0
 15 16  2  0
 16 17  1  0
 17 18  2  0
  9 19  1  0
 19 20  1  0
 20 21  2  0
 21  3  1  0
 20  6  1  0
 18 13  1  0
  1 22  1  0
  1 23  1  0
  1 24  1  0
  4 25  1  0
  5 26  1  0
 12 27  1  0
 12 28  1  0
 14 29  1  0
 15 30  1  0
 16 31  1  0
 17 32  1  0
 18 33  1  0
 21 34  1  0
M  END
>  <UniqueID>  (5) 
5

>  <SMILES>  (5) 
COc1ccc2c(=O)n(C(=O)Cc3ccccc3)oc2c1

>  <Energy>  (5) 
78.84546140129683

>  <Genealogy>  (5) 
COc1ccc2c(=O)n(C(=O)Cc3ccccc3)oc2c1 (3D coordinates assigned)
COc1ccc2c(=O)n(C(=O)Cc3ccccc3)oc2c1 (optimized conformer: 78.84546140129683 kcal/mol)

>  <smiles>  (5) 
COc1ccc2c(=O)n(C(=O)Cc3ccccc3)oc2c1

>  <score_type>  (5) 
oracle

>  <origin>  (5) 
adg

>  <m_score__min__energy>  (5) 
-7.6100000000000003

>  <m_primary>  (5) 
energy

$$$$
5:0
     RDKit          3D

 36 37  0  0  0  0  0  0  0  0999 V2000
   57.4010   24.5040   47.7790 C   0  0  0  0  0  0  0  0  0  0  0  0
   56.1630   24.9040   47.1290 N   0  0  0  0  0  0  0  0  0  0  0  0
   55.9370   26.0250   46.2590 C   0  0  0  0  0  0  0  0  0  0  0  0
   54.7430   26.3260   45.9950 O   0  0  0  0  0  0  0  0  0  0  0  0
   57.0300   26.9220   45.7010 C   0  0  2  0  0  0  0  0  0  0  0  0
   58.0040   26.2160   44.7600 C   0  0  0  0  0  0  0  0  0  0  0  0
   58.8870   27.2540   44.0810 C   0  0  0  0  0  0  0  0  0  0  0  0
   59.5130   28.1930   45.0880 C   0  0  0  0  0  0  0  0  0  0  0  0
   60.6080   28.6700   44.8230 O   0  0  0  0  0  0  0  0  0  0  0  0
   58.8400   28.5940   46.3170 N   0  0  1  0  0  0  0  0  0  0  0  0
   58.3780   30.0040   46.2600 C   0  0  0  0  0  0  0  0  0  0  0  0
   57.8680   30.4330   44.9010 C   0  0  0  0  0  0  0  0  0  0  0  0
   56.8030   29.7460   44.2910 C   0  0  0  0  0  0  0  0  0  0  0  0
   56.3410   30.1370   43.0320 C   0  0  0  0  0  0  0  0  0  0  0  0
   56.9270   31.2240   42.3770 C   0  0  0  0  0  0  0  0  0  0  0  0
   57.9720   31.9250   42.9830 C   0  0  0  0  0  0  0  0  0  0  0  0
   58.5350   32.9830   42.3500 F   0  0  0  0  0  0  0  0  0  0  0  0
   58.4380   31.5360   44.2430 C   0  0  0  0  0  0  0  0  0  0  0  0
   57.8070   27.6450   46.8190 C   0  0  0  0  0  0  0  0  0  0  0  0
   57.2721   24.5457   48.8706 H   0  0  0  0  0  0  0  0  0  0  0  0
   57.6575   23.4773   47.4790 H   0  0  0  0  0  0  0  0  0  0  0  0
   58.2098   25.1865   47.4790 H   0  0  0  0  0  0  0  0  0  0  0  0
   56.4915   27.6651   45.0944 H   0  0  0  0  0  0  0  0  0  0  0  0
   58.6314   25.5192   45.3353 H   0  0  0  0  0  0  0  0  0  0  0  0
   57.4413   25.6554   43.9990 H   0  0  0  0  0  0  0  0  0  0  0  0
   59.6861   26.7375   43.5290 H   0  0  0  0  0  0  0  0  0  0  0  0
   58.2603   27.8473   43.3989 H   0  0  0  0  0  0  0  0  0  0  0  0
   59.5890   28.5910   47.0520 H   0  0  0  0  0  0  0  0  0  0  0  0
   57.5649   30.1308   46.9899 H   0  0  0  0  0  0  0  0  0  0  0  0
   59.2520   30.6333   46.4838 H   0  0  0  0  0  0  0  0  0  0  0  0
   56.3317   28.8969   44.8077 H   0  0  0  0  0  0  0  0  0  0  0  0
   55.5150   29.5888   42.5554 H   0  0  0  0  0  0  0  0  0  0  0  0
   56.5649   31.5275   41.3836 H   0  0  0  0  0  0  0  0  0  0  0  0
   59.2548   32.0963   44.7213 H   0  0  0  0  0  0  0  0  0  0  0  0
   58.3056   26.8869   47.4408 H   0  0  0  0  0  0  0  0  0  0  0  0
   57.0746   28.2391   47.3853 H   0  0  0  0  0  0  0  0  0  0  0  0
  1  2  1  0
  2  3  1  0
  3  4  2  0
  3  5  1  0
  5  6  1  0
  6  7  1  0
  7  8  1  0
  8  9  2  0
  8 10  1  0
 10 11  1  0
 11 12  1  0
 12 13  2  0
 13 14  1  0
 14 15  2  0
 15 16  1  0
 16 17  1  0
 16 18  2  0
 10 19  1  0
 19  5  1  0
 18 12  1  0
  1 20  1  0
  1 21  1  0
  1 22  1  0
  5 23  1  6
  6 24  1  0
  6 25  1  0
  7 26  1  0
  7 27  1  0
 10 28  1  1
 11 29  1  0
 11 30  1  0
 13 31  1  0
 14 32  1  0
 15 33  1  0
 18 34  1  0
 19 35  1  0
 19 36  1  0
M  CHG  2   2  -1  10   1
M  END
>  <UniqueID>  (6) 
6

>  <SMILES>  (6) 
C[N-]C(=O)[C@@H]1CCC(=O)[N@@H+](Cc2cccc(F)c2)C1

>  <Energy>  (6) 
43.61772685970569

>  <Genealogy>  (6) 
C[N-]C(=O)C1CCC(=O)[NH+](Cc2cccc(F)c2)C1 (protonated)
C[N-]C(=O)[C@@H]1CCC(=O)[N@@H+](Cc2cccc(F)c2)C1 (chirality)
C[N-]C(=O)[C@@H]1CCC(=O)[N@@H+](Cc2cccc(F)c2)C1 (3D coordinates assigned)
C[N-]C(=O)[C@@H]1CCC(=O)[N@@H+](Cc2cccc(F)c2)C1 (nonaromatic ring conformer: 43.61772685970569 kcal/mol)

>  <smiles>  (6) 
CNC(=O)C1CCC(=O)N(Cc2cccc(F)c2)C1

>  <score_type>  (6) 
oracle

>  <origin>  (6) 
adg

>  <m_score__min__energy>  (6) 
-7.2599999999999998

>  <m_primary>  (6) 
energy

$$$$
6:0
     RDKit          3D

 55 57  0  0  0  0  0  0  0  0999 V2000
   59.2410   28.9690   48.9740 C   0  0  0  0  0  0  0  0  0  0  0  0
   60.2630   27.8330   48.8590 C   0  0  0  0  0  0  0  0  0  0  0  0
   60.8040   27.4590   50.2380 C   0  0  0  0  0  0  0  0  0  0  0  0
   59.6560   26.6810   48.2740 O   0  0  0  0  0  0  0  0  0  0  0  0
   59.4610   26.5210   46.8960 C   0  0  0  0  0  0  0  0  0  0  0  0
   59.7060   25.4120   46.3450 O   0  0  0  0  0  0  0  0  0  0  0  0
   58.9610   27.6560   46.0890 C   0  0  0  0  0  0  0  0  0  0  0  0
   59.8600   28.4790   45.3890 C   0  0  0  0  0  0  0  0  0  0  0  0
   59.3920   29.5530   44.6260 C   0  0  0  0  0  0  0  0  0  0  0  0
   58.0140   29.8130   44.5370 C   0  0  0  0  0  0  0  0  0  0  0  0
   57.4940   30.9190   43.7840 N   0  0  0  0  0  0  0  0  0  0  0  0
   57.8690   32.2960   43.9150 C   0  0  0  0  0  0  0  0  0  0  0  0
   57.8040   33.0670   42.9190 O   0  0  0  0  0  0  0  0  0  0  0  0
   58.2810   32.8310   45.2350 C   0  0  0  0  0  0  0  0  0  0  0  0
   59.1540   33.9280   45.3240 C   0  0  0  0  0  0  0  0  0  0  0  0
   59.5430   34.4300   46.5690 C   0  0  0  0  0  0  0  0  0  0  0  0
   59.0700   33.8430   47.7560 C   0  0  0  0  0  0  0  0  0  0  0  0
   59.4510   34.3280   49.0560 N   0  0  0  0  0  0  0  0  0  0  0  0
   59.5970   33.3340   50.4720 S   0  0  0  0  0  0  0  0  0  0  0  0
   60.0040   34.1770   51.6490 O   0  0  0  0  0  0  0  0  0  0  0  0
   58.2620   32.7110   50.7660 O   0  0  0  0  0  0  0  0  0  0  0  0
   60.7860   32.0310   50.1800 C   0  0  0  0  0  0  0  0  0  0  0  0
   61.8220   32.4800   49.1850 C   0  0  0  0  0  0  0  0  0  0  0  0
   62.4530   33.7260   49.3430 C   0  0  0  0  0  0  0  0  0  0  0  0
   63.3950   34.1630   48.4070 C   0  0  0  0  0  0  0  0  0  0  0  0
   63.7070   33.3670   47.3020 C   0  0  0  0  0  0  0  0  0  0  0  0
   63.0750   32.1320   47.1300 C   0  0  0  0  0  0  0  0  0  0  0  0
   62.1320   31.6880   48.0630 C   0  0  0  0  0  0  0  0  0  0  0  0
   61.5230   30.4910   47.8710 F   0  0  0  0  0  0  0  0  0  0  0  0
   58.1910   32.7530   47.6660 C   0  0  0  0  0  0  0  0  0  0  0  0
   57.8000   32.2510   46.4230 C   0  0  0  0  0  0  0  0  0  0  0  0
   57.1200   29.0090   45.2530 C   0  0  0  0  0  0  0  0  0  0  0  0
   57.5850   27.9350   46.0170 C   0  0  0  0  0  0  0  0  0  0  0  0
   59.0485   29.1830   50.0357 H   0  0  0  0  0  0  0  0  0  0  0  0
   59.6381   29.8704   48.4844 H   0  0  0  0  0  0  0  0  0  0  0  0
   58.3027   28.6691   48.4844 H   0  0  0  0  0  0  0  0  0  0  0  0
   61.0901   28.1809   48.2227 H   0  0  0  0  0  0  0  0  0  0  0  0
   60.1638   27.9015   51.0154 H   0  0  0  0  0  0  0  0  0  0  0  0
   60.8081   26.3643   50.3457 H   0  0  0  0  0  0  0  0  0  0  0  0
   61.8296   27.8419   50.3457 H   0  0  0  0  0  0  0  0  0  0  0  0
   60.9399   28.2766   45.4419 H   0  0  0  0  0  0  0  0  0  0  0  0
   60.1061   30.1977   44.0927 H   0  0  0  0  0  0  0  0  0  0  0  0
   59.5352   34.3965   44.4047 H   0  0  0  0  0  0  0  0  0  0  0  0
   60.2249   35.2916   46.6208 H   0  0  0  0  0  0  0  0  0  0  0  0
   59.5950   35.3540   49.1890 H   0  0  0  0  0  0  0  0  0  0  0  0
   61.2813   31.7732   51.1277 H   0  0  0  0  0  0  0  0  0  0  0  0
   60.2610   31.1524   49.7769 H   0  0  0  0  0  0  0  0  0  0  0  0
   62.2045   34.3600   50.2069 H   0  0  0  0  0  0  0  0  0  0  0  0
   63.8915   35.1354   48.5408 H   0  0  0  0  0  0  0  0  0  0  0  0
   64.4497   33.7120   46.5676 H   0  0  0  0  0  0  0  0  0  0  0  0
   63.3200   31.5074   46.2583 H   0  0  0  0  0  0  0  0  0  0  0  0
   57.8054   32.2884   48.5855 H   0  0  0  0  0  0  0  0  0  0  0  0
   57.1105   31.3954   46.3724 H   0  0  0  0  0  0  0  0  0  0  0  0
   56.0419   29.2242   45.2142 H   0  0  0  0  0  0  0  0  0  0  0  0
   56.8699   27.3041   46.5653 H   0  0  0  0  0  0  0  0  0  0  0  0
  1  2  1  0
  2  3  1  0
  2  4  1  0
  4  5  1  0
  5  6  2  0
  5  7  1  0
  7  8  2  0
  8  9  1  0
  9 10  2  0
 10 11  1  0
 11 12  1  0
 12 13  2  0
 12 14  1  0
 14 15  2  0
 15 16  1  0
 16 17  2  0
 17 18  1  0
 18 19  1  0
 19 20  2  0
 19 21  2  0
 19 22  1  0
 22 23  1  0
 23 24  2  0
 24 25  1  0
 25 26  2  0
 26 27  1  0
 27 28  2  0
 28 29  1  0
 17 30  1  0
 30 31  2  0
 10 32  1  0
 32 33  2  0
 33  7  1  0
 31 14  1  0
 28 23  1  0
  1 34  1  0
  1 35  1  0
  1 36  1  0
  2 37  1  0
  3 38  1  0
  3 39  1  0
  3 40  1  0
  8 41  1  0
  9 42  1  0
 15 43  1  0
 16 44  1  0
 18 45  1  0
 22 46  1  0
 22 47  1  0
 24 48  1  0
 25 49  1  0
 26 50  1  0
 27 51  1  0
 30 52  1  0
 31 53  1  0
 32 54  1  0
 33 55  1  0
M  CHG  1  11  -1
M  END
>  <UniqueID>  (7) 
7

>  <SMILES>  (7) 
CC(C)OC(=O)c1ccc([N-]C(=O)c2ccc(NS(=O)(=O)Cc3ccccc3F)cc2)cc1

>  <Energy>  (7) 
54.72943148336516

>  <Genealogy>  (7) 
CC(C)OC(=O)c1ccc([N-]C(=O)c2ccc(NS(=O)(=O)Cc3ccccc3F)cc2)cc1 (protonated)
CC(C)OC(=O)c1ccc([N-]C(=O)c2ccc(NS(=O)(=O)Cc3ccccc3F)cc2)cc1 (3D coordinates assigned)
CC(C)OC(=O)c1ccc([N-]C(=O)c2ccc(NS(=O)(=O)Cc3ccccc3F)cc2)cc1 (optimized conformer: 54.72943148336516 kcal/mol)

>  <smiles>  (7) 
CC(C)OC(=O)c1ccc(NC(=O)c2ccc(NS(=O)(=O)Cc3ccccc3F)cc2)cc1

>  <score_type>  (7) 
oracle

>  <origin>  (7) 
adg

>  <m_score__min__energy>  (7) 
-10.02

>  <m_primary>  (7) 
energy

$$$$
7:0
     RDKit          3D

 52 54  0  0  0  0  0  0  0  0999 V2000
   49.4118   24.8100   42.8163 H   0  0  0  0  0  0  0  0  0  0  0  0
   50.2720   25.0070   43.4730 C   0  0  0  0  0  0  0  0  0  0  0  0
   50.6159   26.0394   43.6341 H   0  0  0  0  0  0  0  0  0  0  0  0
   50.8980   23.9940   44.0740 C   0  0  0  0  0  0  0  0  0  0  0  0
   50.5396   22.9686   43.9008 H   0  0  0  0  0  0  0  0  0  0  0  0
   52.0770   24.2090   44.9800 C   0  0  0  0  0  0  0  0  0  0  0  0
   52.6218   25.1084   44.6572 H   0  0  0  0  0  0  0  0  0  0  0  0
   51.7143   24.3337   46.0110 H   0  0  0  0  0  0  0  0  0  0  0  0
   52.9760   23.0610   44.9330 N   0  0  0  0  0  0  0  0  0  0  0  0
   53.1100   22.1150   45.9980 C   0  0  0  0  0  0  0  0  0  0  0  0
   52.2810   21.1730   46.1090 O   0  0  0  0  0  0  0  0  0  0  0  0
   54.1880   22.3130   46.9920 C   0  0  0  0  0  0  0  0  0  0  0  0
   53.8905   22.4320   48.0443 H   0  0  0  0  0  0  0  0  0  0  0  0
   55.5010   22.3590   46.7120 C   0  0  0  0  0  0  0  0  0  0  0  0
   56.2009   21.9481   47.4546 H   0  0  0  0  0  0  0  0  0  0  0  0
   56.0640   22.9260   45.4710 C   0  0  0  0  0  0  0  0  0  0  0  0
   56.1440   22.1060   44.3330 C   0  0  0  0  0  0  0  0  0  0  0  0
   55.8322   21.0529   44.3948 H   0  0  0  0  0  0  0  0  0  0  0  0
   56.6170   22.6200   43.1240 C   0  0  0  0  0  0  0  0  0  0  0  0
   56.6781   21.9721   42.2371 H   0  0  0  0  0  0  0  0  0  0  0  0
   57.0120   23.9550   43.0410 C   0  0  0  0  0  0  0  0  0  0  0  0
   57.3791   24.3610   42.0868 H   0  0  0  0  0  0  0  0  0  0  0  0
   56.9420   24.7770   44.1680 C   0  0  0  0  0  0  0  0  0  0  0  0
   57.2600   25.8276   44.0970 H   0  0  0  0  0  0  0  0  0  0  0  0
   56.4700   24.2750   45.3890 C   0  0  0  0  0  0  0  0  0  0  0  0
   56.3100   25.4180   46.7740 S   0  0  0  0  0  0  0  0  0  0  0  0
   57.7960   26.3770   46.4180 C   0  0  0  0  0  0  0  0  0  0  0  0
   58.9820   25.9790   47.0500 C   0  0  0  0  0  0  0  0  0  0  0  0
   58.9829   25.0827   47.6877 H   0  0  0  0  0  0  0  0  0  0  0  0
   60.1600   26.7040   46.8810 C   0  0  0  0  0  0  0  0  0  0  0  0
   61.0922   26.3569   47.3506 H   0  0  0  0  0  0  0  0  0  0  0  0
   60.1560   27.8670   46.1180 C   0  0  0  0  0  0  0  0  0  0  0  0
   61.0849   28.4415   45.9871 H   0  0  0  0  0  0  0  0  0  0  0  0
   58.9740   28.3060   45.5180 C   0  0  0  0  0  0  0  0  0  0  0  0
   58.9720   29.2464   44.9473 H   0  0  0  0  0  0  0  0  0  0  0  0
   57.7810   27.5590   45.6340 C   0  0  0  0  0  0  0  0  0  0  0  0
   56.5550   28.0360   45.0450 N   0  0  0  0  0  0  0  0  0  0  0  0
   55.7320   27.3960   45.0210 H   0  0  0  0  0  0  0  0  0  0  0  0
   56.3040   29.4000   44.6680 C   0  0  0  0  0  0  0  0  0  0  0  0
   55.1640   29.8940   44.8720 O   0  0  0  0  0  0  0  0  0  0  0  0
   57.3310   30.2330   44.1160 N   0  0  0  0  0  0  0  0  0  0  0  0
   57.7130   31.5160   44.6240 C   0  0  0  0  0  0  0  0  0  0  0  0
   57.8930   31.7140   46.0010 C   0  0  0  0  0  0  0  0  0  0  0  0
   57.6806   30.8949   46.7038 H   0  0  0  0  0  0  0  0  0  0  0  0
   58.3410   32.9470   46.4850 C   0  0  0  0  0  0  0  0  0  0  0  0
   58.4871   33.0930   47.5654 H   0  0  0  0  0  0  0  0  0  0  0  0
   58.6030   33.9930   45.5980 C   0  0  0  0  0  0  0  0  0  0  0  0
   58.9527   34.9635   45.9800 H   0  0  0  0  0  0  0  0  0  0  0  0
   58.4210   33.8070   44.2250 C   0  0  0  0  0  0  0  0  0  0  0  0
   58.6145   34.6361   43.5285 H   0  0  0  0  0  0  0  0  0  0  0  0
   57.9930   32.5680   43.7340 C   0  0  0  0  0  0  0  0  0  0  0  0
   57.7820   32.3400   41.8430 Br  0  0  0  0  0  0  0  0  0  0  0  0
  1  2  1  0
  2  3  1  0
  2  4  2  0
  4  5  1  0
  4  6  1  0
  6  7  1  0
  6  8  1  0
  6  9  1  0
  9 10  1  0
 10 11  2  0
 10 12  1  0
 12 13  1  0
 12 14  2  0
 14 15  1  0
 14 16  1  0
 16 17  2  0
 17 18  1  0
 17 19  1  0
 19 20  1  0
 19 21  2  0
 21 22  1  0
 21 23  1  0
 23 24  1  0
 23 25  2  0
 25 26  1  0
 26 27  1  0
 27 28  2  0
 28 29  1  0
 28 30  1  0
 30 31  1  0
 30 32  2  0
 32 33  1  0
 32 34  1  0
 34 35  1  0
 34 36  2  0
 36 37  1  0
 37 38  1  0
 37 39  1  0
 39 40  2  0
 39 41  1  0
 41 42  1  0
 42 43  2  0
 43 44  1  0
 43 45  1  0
 45 46  1  0
 45 47  2  0
 47 48  1  0
 47 49  1  0
 49 50  1  0
 49 51  2  0
 51 52  1  0
 25 16  1  0
 36 27  1  0
 51 42  1  0
M  CHG  2   9  -1  41  -1
M  END
>  <UniqueID>  (8) 
8

>  <SMILES>  (8) 
C=CC[N-]C(=O)/C=C\c1ccccc1Sc1ccccc1NC(=O)[N-]c1ccccc1Br

>  <Energy>  (8) 
59.89642093942175

>  <Genealogy>  (8) 
C=CC[N-]C(=O)C=Cc1ccccc1Sc1ccccc1NC(=O)[N-]c1ccccc1Br (protonated)
C=CC[N-]C(=O)/C=C\c1ccccc1Sc1ccccc1NC(=O)[N-]c1ccccc1Br (cis-trans isomerization)
C=CC[N-]C(=O)/C=C\c1ccccc1Sc1ccccc1NC(=O)[N-]c1ccccc1Br (3D coordinates assigned)
C=CC[N-]C(=O)/C=C\c1ccccc1Sc1ccccc1NC(=O)[N-]c1ccccc1Br (optimized conformer: 59.89642093942175 kcal/mol)

>  <smiles>  (8) 
C=CCNC(=O)C=Cc1ccccc1Sc1ccccc1NC(=O)Nc1ccccc1Br

>  <score_type>  (8) 
oracle

>  <origin>  (8) 
adg

>  <m_score__min__energy>  (8) 
-12.74

>  <m_primary>  (8) 
energy

$$$$
8:0
     RDKit          3D

 42 45  0  0  0  0  0  0  0  0999 V2000
   57.0240   31.1320   42.4240 O   0  0  0  0  0  0  0  0  0  0  0  0
   57.5270   31.5040   43.5220 C   0  0  0  0  0  0  0  0  0  0  0  0
   57.7090   32.8250   43.7460 N   0  0  0  0  0  0  0  0  0  0  0  0
   58.2280   33.2870   44.9110 C   0  0  0  0  0  0  0  0  0  0  0  0
   58.3380   34.5360   45.0650 O   0  0  0  0  0  0  0  0  0  0  0  0
   58.6220   32.4160   45.9020 N   0  0  0  0  0  0  0  0  0  0  0  0
   59.1780   32.9780   47.1600 C   0  0  0  0  0  0  0  0  0  0  0  0
   60.6880   32.9410   47.1550 C   0  0  0  0  0  0  0  0  0  0  0  0
   61.4220   33.8750   46.4030 C   0  0  0  0  0  0  0  0  0  0  0  0
   62.8190   33.8280   46.3890 C   0  0  0  0  0  0  0  0  0  0  0  0
   63.4940   32.8420   47.1130 C   0  0  0  0  0  0  0  0  0  0  0  0
   62.7730   31.8970   47.8470 C   0  0  0  0  0  0  0  0  0  0  0  0
   61.3760   31.9400   47.8640 C   0  0  0  0  0  0  0  0  0  0  0  0
   58.4750   31.0480   45.7090 C   0  0  0  0  0  0  0  0  0  0  0  0
   57.8890   30.5690   44.5050 C   0  0  0  0  0  0  0  0  0  0  0  0
   57.6480   29.2550   44.3180 C   0  0  0  0  0  0  0  0  0  0  0  0
   57.9560   28.2940   45.3390 N   0  0  0  0  0  0  0  0  0  0  0  0
   57.4720   26.9380   45.2270 C   0  0  0  0  0  0  0  0  0  0  0  0
   56.6530   26.3810   46.2270 C   0  0  0  0  0  0  0  0  0  0  0  0
   56.1810   25.0700   46.1080 C   0  0  0  0  0  0  0  0  0  0  0  0
   56.5180   24.3030   44.9900 C   0  0  0  0  0  0  0  0  0  0  0  0
   57.3260   24.8460   43.9880 C   0  0  0  0  0  0  0  0  0  0  0  0
   57.8000   26.1560   44.1030 C   0  0  0  0  0  0  0  0  0  0  0  0
   58.8730   28.6690   46.4170 C   0  0  0  0  0  0  0  0  0  0  0  0
   58.8810   30.1530   46.6470 C   0  0  0  0  0  0  0  0  0  0  0  0
   57.4260   33.5100   43.0070 H   0  0  0  0  0  0  0  0  0  0  0  0
   58.8451   34.0212   47.2647 H   0  0  0  0  0  0  0  0  0  0  0  0
   58.8177   32.3691   48.0023 H   0  0  0  0  0  0  0  0  0  0  0  0
   60.8944   34.6464   45.8229 H   0  0  0  0  0  0  0  0  0  0  0  0
   63.3877   34.5683   45.8072 H   0  0  0  0  0  0  0  0  0  0  0  0
   64.5935   32.8098   47.1051 H   0  0  0  0  0  0  0  0  0  0  0  0
   63.3054   31.1180   48.4124 H   0  0  0  0  0  0  0  0  0  0  0  0
   60.8121   31.1874   48.4346 H   0  0  0  0  0  0  0  0  0  0  0  0
   57.2088   28.9147   43.3687 H   0  0  0  0  0  0  0  0  0  0  0  0
   56.3823   26.9811   47.1083 H   0  0  0  0  0  0  0  0  0  0  0  0
   55.5435   24.6421   46.8957 H   0  0  0  0  0  0  0  0  0  0  0  0
   56.1471   23.2714   44.8987 H   0  0  0  0  0  0  0  0  0  0  0  0
   57.5896   24.2419   43.1073 H   0  0  0  0  0  0  0  0  0  0  0  0
   58.4338   26.5790   43.3097 H   0  0  0  0  0  0  0  0  0  0  0  0
   58.5589   28.1662   47.3435 H   0  0  0  0  0  0  0  0  0  0  0  0
   59.8883   28.3611   46.1267 H   0  0  0  0  0  0  0  0  0  0  0  0
   59.2312   30.5323   47.6183 H   0  0  0  0  0  0  0  0  0  0  0  0
  1  2  2  0
  2  3  1  0
  3  4  1  0
  4  5  2  0
  4  6  1  0
  6  7  1  0
  7  8  1  0
  8  9  2  0
  9 10  1  0
 10 11  2  0
 11 12  1  0
 12 13  2  0
  6 14  1  0
 14 15  1  0
 15 16  2  0
 16 17  1  0
 17 18  1  0
 18 19  2  0
 19 20  1  0
 20 21  2  0
 21 22  1  0
 22 23  2  0
 17 24  1  0
 24 25  1  0
 15  2  1  0
 23 18  1  0
 13  8  1  0
 25 14  2  0
  3 26  1  0
  7 27  1  0
  7 28  1  0
  9 29  1  0
 10 30  1  0
 11 31  1  0
 12 32  1  0
 13 33  1  0
 16 34  1  0
 19 35  1  0
 20 36  1  0
 21 37  1  0
 22 38  1  0
 23 39  1  0
 24 40  1  0
 24 41  1  0
 25 42  1  0
M  END
>  <UniqueID>  (9) 
9

>  <SMILES>  (9) 
O=c1[nH]c(=O)n(Cc2ccccc2)c2c1=CN(c1ccccc1)CC=2

>  <Energy>  (9) 
66.09085223439335

>  <Genealogy>  (9) 
O=c1[nH]c(=O)n(Cc2ccccc2)c2c1=CN(c1ccccc1)CC=2 (3D coordinates assigned)
O=c1[nH]c(=O)n(Cc2ccccc2)c2c1=CN(c1ccccc1)CC=2 (nonaromatic ring conformer: 66.09085223439335 kcal/mol)

>  <smiles>  (9) 
O=c1[nH]c(=O)n(Cc2ccccc2)c2c1=CN(c1ccccc1)CC=2

>  <score_type>  (9) 
oracle

>  <origin>  (9) 
adg

>  <m_score__min__energy>  (9) 
-7.8300000000000001

>  <m_primary>  (9) 
energy

$$$$
9:0
     RDKit          3D

 39 41  0  0  0  0  0  0  0  0999 V2000
   59.2350   33.5340   49.3950 O   0  0  0  0  0  0  0  0  0  0  0  0
   59.8820   33.6020   48.3140 C   0  0  0  0  0  0  0  0  0  0  0  0
   61.3630   33.5610   48.3480 C   0  0  0  0  0  0  0  0  0  0  0  0
   62.0970   33.1670   47.2150 C   0  0  0  0  0  0  0  0  0  0  0  0
   63.4930   33.1180   47.2590 C   0  0  0  0  0  0  0  0  0  0  0  0
   64.1700   33.4540   48.4340 C   0  0  0  0  0  0  0  0  0  0  0  0
   63.4500   33.8330   49.5700 C   0  0  0  0  0  0  0  0  0  0  0  0
   62.0530   33.8830   49.5310 C   0  0  0  0  0  0  0  0  0  0  0  0
   59.1660   33.6970   47.0710 N   0  0  0  0  0  0  0  0  0  0  0  0
   59.4740   34.7570   46.1070 C   0  0  0  0  0  0  0  0  0  0  0  0
   59.2210   34.2260   44.6930 C   0  0  0  0  0  0  0  0  0  0  0  0
   57.8110   33.7840   44.4870 N   0  0  0  0  0  0  0  0  0  0  0  0
   57.7680   32.6910   43.4840 C   0  0  0  0  0  0  0  0  0  0  0  0
   57.6090   31.3430   44.1300 C   0  0  0  0  0  0  0  0  0  0  0  0
   58.6310   30.4650   44.4330 C   0  0  0  0  0  0  0  0  0  0  0  0
   58.0210   29.3740   45.0130 C   0  0  0  0  0  0  0  0  0  0  0  0
   56.6690   29.6530   45.0250 C   0  0  0  0  0  0  0  0  0  0  0  0
   56.4550   30.8330   44.4920 O   0  0  0  0  0  0  0  0  0  0  0  0
   57.1010   33.4070   45.7450 C   0  0  0  0  0  0  0  0  0  0  0  0
   58.0290   32.8070   46.8130 C   0  0  0  0  0  0  0  0  0  0  0  0
   61.5693   32.8958   46.2887 H   0  0  0  0  0  0  0  0  0  0  0  0
   64.0599   32.8142   46.3666 H   0  0  0  0  0  0  0  0  0  0  0  0
   65.2690   33.4202   48.4648 H   0  0  0  0  0  0  0  0  0  0  0  0
   63.9830   34.0925   50.4966 H   0  0  0  0  0  0  0  0  0  0  0  0
   61.4907   34.1756   50.4300 H   0  0  0  0  0  0  0  0  0  0  0  0
   58.8288   35.6277   46.2960 H   0  0  0  0  0  0  0  0  0  0  0  0
   60.5260   35.0616   46.2095 H   0  0  0  0  0  0  0  0  0  0  0  0
   59.4483   35.0245   43.9714 H   0  0  0  0  0  0  0  0  0  0  0  0
   59.8686   33.3489   44.5470 H   0  0  0  0  0  0  0  0  0  0  0  0
   57.2990   34.6050   44.0820 H   0  0  0  0  0  0  0  0  0  0  0  0
   56.9185   32.8631   42.8067 H   0  0  0  0  0  0  0  0  0  0  0  0
   58.7208   32.6952   42.9343 H   0  0  0  0  0  0  0  0  0  0  0  0
   59.7063   30.6068   44.2498 H   0  0  0  0  0  0  0  0  0  0  0  0
   58.5120   28.4648   45.3901 H   0  0  0  0  0  0  0  0  0  0  0  0
   55.8887   28.9867   45.4215 H   0  0  0  0  0  0  0  0  0  0  0  0
   56.6270   34.3081   46.1613 H   0  0  0  0  0  0  0  0  0  0  0  0
   56.3644   32.6332   45.4829 H   0  0  0  0  0  0  0  0  0  0  0  0
   57.4625   32.6653   47.7452 H   0  0  0  0  0  0  0  0  0  0  0  0
   58.4108   31.8421   46.4481 H   0  0  0  0  0  0  0  0  0  0  0  0
  1  2  2  0
  2  3  1  0
  3  4  2  0
  4  5  1  0
  5  6  2  0
  6  7  1  0
  7  8  2  0
  2  9  1  0
  9 10  1  0
 10 11  1  0
 11 12  1  0
 12 13  1  0
 13 14  1  0
 14 15  2  0
 15 16  1  0
 16 17  2  0
 17 18  1  0
 12 19  1  0
 19 20  1  0
  8  3  1  0
 20  9  1  0
 18 14  1  0
  4 21  1  0
  5 22  1  0
  6 23  1  0
  7 24  1  0
  8 25  1  0
 10 26  1  0
 10 27  1  0
 11 28  1  0
 11 29  1  0
 12 30  1  0
 13 31  1  0
 13 32  1  0
 15 33  1  0
 16 34  1  0
 17 35  1  0
 19 36  1  0
 19 37  1  0
 20 38  1  0
 20 39  1  0
M  CHG  1  12   1
M  END
>  <UniqueID>  (10) 
10

>  <SMILES>  (10) 
O=C(c1ccccc1)N1CC[NH+](Cc2ccco2)CC1

>  <Energy>  (10) 
79.82178101176459

>  <Genealogy>  (10) 
O=C(c1ccccc1)N1CC[NH+](Cc2ccco2)CC1 (protonated)
O=C(c1ccccc1)N1CC[NH+](Cc2ccco2)CC1 (3D coordinates assigned)
O=C(c1ccccc1)N1CC[NH+](Cc2ccco2)CC1 (nonaromatic ring conformer: 79.82178101176459 kcal/mol)

>  <smiles>  (10) 
O=C(c1ccccc1)N1CCN(Cc2ccco2)CC1

>  <score_type>  (10) 
oracle

>  <origin>  (10) 
adg

>  <m_score__min__energy>  (10) 
-5.6299999999999999

>  <m_primary>  (10) 
energy

$$$$
10:0
     RDKit          3D

 47 50  0  0  0  0  0  0  0  0999 V2000
   57.7410   32.2660   41.7580 C   0  0  0  0  0  0  0  0  0  0  0  0
   58.1010   31.9670   43.1030 O   0  0  0  0  0  0  0  0  0  0  0  0
   57.7890   30.7660   43.7580 C   0  0  0  0  0  0  0  0  0  0  0  0
   56.4640   30.3800   44.0380 C   0  0  0  0  0  0  0  0  0  0  0  0
   56.2060   29.1730   44.6940 C   0  0  0  0  0  0  0  0  0  0  0  0
   57.2640   28.3370   45.0760 C   0  0  0  0  0  0  0  0  0  0  0  0
   56.9560   26.8170   45.9120 S   0  0  0  0  0  0  0  0  0  0  0  0
   57.5950   25.6990   45.1380 O   0  0  0  0  0  0  0  0  0  0  0  0
   55.4780   26.5580   46.0020 O   0  0  0  0  0  0  0  0  0  0  0  0
   57.6430   26.8710   47.5090 N   0  0  0  0  0  0  0  0  0  0  0  0
   59.0430   27.3040   47.4730 C   0  0  0  0  0  0  0  0  0  0  0  0
   59.3540   28.2430   48.6400 C   0  0  0  0  0  0  0  0  0  0  0  0
   59.7090   29.5720   48.1510 N   0  0  0  0  0  0  0  0  0  0  0  0
   60.9050   30.1820   48.3160 C   0  0  0  0  0  0  0  0  0  0  0  0
   60.8440   31.3900   47.6610 C   0  0  0  0  0  0  0  0  0  0  0  0
   59.5800   31.4580   47.1450 C   0  0  0  0  0  0  0  0  0  0  0  0
   58.8930   30.3380   47.4380 N   0  0  0  0  0  0  0  0  0  0  0  0
   59.1010   32.6410   46.4250 C   0  0  0  0  0  0  0  0  0  0  0  0
   57.7570   32.7900   46.0560 C   0  0  0  0  0  0  0  0  0  0  0  0
   57.3400   33.9510   45.4010 C   0  0  0  0  0  0  0  0  0  0  0  0
   58.2600   34.9630   45.1090 C   0  0  0  0  0  0  0  0  0  0  0  0
   59.6040   34.8180   45.4700 C   0  0  0  0  0  0  0  0  0  0  0  0
   60.0370   33.6650   46.1440 C   0  0  0  0  0  0  0  0  0  0  0  0
   61.5200   33.4650   46.4380 C   0  0  0  0  0  0  0  0  0  0  0  0
   61.8000   32.5420   47.6490 C   0  0  0  0  0  0  0  0  0  0  0  0
   58.5810   28.7180   44.7990 C   0  0  0  0  0  0  0  0  0  0  0  0
   58.8410   29.9260   44.1440 C   0  0  0  0  0  0  0  0  0  0  0  0
   56.8948   32.9688   41.7525 H   0  0  0  0  0  0  0  0  0  0  0  0
   58.5989   32.7210   41.2413 H   0  0  0  0  0  0  0  0  0  0  0  0
   57.4512   31.3392   41.2413 H   0  0  0  0  0  0  0  0  0  0  0  0
   55.6289   31.0308   43.7394 H   0  0  0  0  0  0  0  0  0  0  0  0
   55.1687   28.8782   44.9112 H   0  0  0  0  0  0  0  0  0  0  0  0
   59.6951   26.4205   47.5380 H   0  0  0  0  0  0  0  0  0  0  0  0
   59.2200   27.8436   46.5309 H   0  0  0  0  0  0  0  0  0  0  0  0
   58.4679   28.3209   49.2871 H   0  0  0  0  0  0  0  0  0  0  0  0
   60.2045   27.8350   49.2059 H   0  0  0  0  0  0  0  0  0  0  0  0
   61.7674   29.7851   48.8716 H   0  0  0  0  0  0  0  0  0  0  0  0
   57.0321   31.9941   46.2818 H   0  0  0  0  0  0  0  0  0  0  0  0
   56.2848   34.0697   45.1140 H   0  0  0  0  0  0  0  0  0  0  0  0
   57.9260   35.8758   44.5939 H   0  0  0  0  0  0  0  0  0  0  0  0
   60.3251   35.6115   45.2245 H   0  0  0  0  0  0  0  0  0  0  0  0
   61.9929   33.0228   45.5487 H   0  0  0  0  0  0  0  0  0  0  0  0
   61.9324   34.4537   46.6877 H   0  0  0  0  0  0  0  0  0  0  0  0
   62.8287   32.1583   47.5817 H   0  0  0  0  0  0  0  0  0  0  0  0
   61.6716   33.1211   48.5754 H   0  0  0  0  0  0  0  0  0  0  0  0
   59.4148   28.0655   45.0973 H   0  0  0  0  0  0  0  0  0  0  0  0
   59.8796   30.2186   43.9304 H   0  0  0  0  0  0  0  0  0  0  0  0
  1  2  1  0
  2  3  1  0
  3  4  2  0
  4  5  1  0
  5  6  2  0
  6  7  1  0
  7  8  2  0
  7  9  2  0
  7 10  1  0
 10 11  1  0
 11 12  1  0
 12 13  1  0
 13 14  1  0
 14 15  2  0
 15 16  1  0
 16 17  2  0
 16 18  1  0
 18 19  2  0
 19 20  1  0
 20 21  2  0
 21 22  1  0
 22 23  2  0
 23 24  1  0
 24 25  1  0
  6 26  1  0
 26 27  2  0
 27  3  1  0
 17 13  1  0
 23 18  1  0
 25 15  1  0
  1 28  1  0
  1 29  1  0
  1 30  1  0
  4 31  1  0
  5 32  1  0
 11 33  1  0
 11 34  1  0
 12 35  1  0
 12 36  1  0
 14 37  1  0
 19 38  1  0
 20 39  1  0
 21 40  1  0
 22 41  1  0
 24 42  1  0
 24 43  1  0
 25 44  1  0
 25 45  1  0
 26 46  1  0
 27 47  1  0
M  CHG  1  10  -1
M  END
>  <UniqueID>  (11) 
11

>  <SMILES>  (11) 
COc1ccc(S(=O)(=O)[N-]CCn2cc3c(n2)-c2ccccc2CC3)cc1

>  <Energy>  (11) 
83.04757682593484

>  <Genealogy>  (11) 
COc1ccc(S(=O)(=O)[N-]CCn2cc3c(n2)-c2ccccc2CC3)cc1 (protonated)
COc1ccc(S(=O)(=O)[N-]CCn2cc3c(n2)-c2ccccc2CC3)cc1 (3D coordinates assigned)
COc1ccc(S(=O)(=O)[N-]CCn2cc3c(n2)-c2ccccc2CC3)cc1 (nonaromatic ring conformer: 83.04757682593484 kcal/mol)

>  <smiles>  (11) 
COc1ccc(S(=O)(=O)NCCn2cc3c(n2)-c2ccccc2CC3)cc1

>  <score_type>  (11) 
oracle

>  <origin>  (11) 
adg

>  <m_score__min__energy>  (11) 
-10.84

>  <m_primary>  (11) 
energy

$$$$
11:0
     RDKit          3D

 35 37  0  0  0  0  0  0  0  0999 V2000
   60.0390   28.9940   44.8520 C   0  0  0  0  0  0  0  0  0  0  0  0
   58.6210   28.6060   45.1440 C   0  0  0  0  0  0  0  0  0  0  0  0
   58.2360   27.4370   45.7790 C   0  0  0  0  0  0  0  0  0  0  0  0
   56.8540   27.4310   45.7940 C   0  0  0  0  0  0  0  0  0  0  0  0
   56.4630   28.5920   45.1630 C   0  0  0  0  0  0  0  0  0  0  0  0
   55.1440   28.9670   44.9380 O   0  0  0  0  0  0  0  0  0  0  0  0
   57.5310   29.3170   44.7760 N   0  0  0  0  0  0  0  0  0  0  0  0
   57.4980   30.5590   44.0010 C   0  0  0  0  0  0  0  0  0  0  0  0
   57.8740   31.7190   44.8760 C   0  0  0  0  0  0  0  0  0  0  0  0
   56.9930   32.7900   45.0760 C   0  0  0  0  0  0  0  0  0  0  0  0
   57.3670   33.8290   45.9290 C   0  0  0  0  0  0  0  0  0  0  0  0
   58.6060   33.7990   46.5700 C   0  0  0  0  0  0  0  0  0  0  0  0
   58.9230   34.7880   47.4430 F   0  0  0  0  0  0  0  0  0  0  0  0
   59.4760   32.7150   46.3410 C   0  0  0  0  0  0  0  0  0  0  0  0
   60.8000   32.6150   46.9980 C   0  0  0  0  0  0  0  0  0  0  0  0
   61.8200   33.5470   46.7440 C   0  0  0  0  0  0  0  0  0  0  0  0
   63.0620   33.4120   47.3660 C   0  0  0  0  0  0  0  0  0  0  0  0
   63.2830   32.3400   48.2300 C   0  0  0  0  0  0  0  0  0  0  0  0
   64.4870   32.1980   48.8380 F   0  0  0  0  0  0  0  0  0  0  0  0
   62.2950   31.4320   48.4570 N   0  0  0  0  0  0  0  0  0  0  0  0
   61.0770   31.5420   47.8620 C   0  0  0  0  0  0  0  0  0  0  0  0
   59.0760   31.7100   45.5120 N   0  0  0  0  0  0  0  0  0  0  0  0
   60.5808   29.1422   45.7978 H   0  0  0  0  0  0  0  0  0  0  0  0
   60.5255   28.1960   44.2720 H   0  0  0  0  0  0  0  0  0  0  0  0
   60.0514   29.9286   44.2720 H   0  0  0  0  0  0  0  0  0  0  0  0
   58.9008   26.6637   46.1912 H   0  0  0  0  0  0  0  0  0  0  0  0
   56.1997   26.6574   46.2222 H   0  0  0  0  0  0  0  0  0  0  0  0
   58.2103   30.4865   43.1659 H   0  0  0  0  0  0  0  0  0  0  0  0
   56.4813   30.7149   43.6111 H   0  0  0  0  0  0  0  0  0  0  0  0
   56.0182   32.8115   44.5667 H   0  0  0  0  0  0  0  0  0  0  0  0
   56.6831   34.6741   46.0966 H   0  0  0  0  0  0  0  0  0  0  0  0
   61.6395   34.3844   46.0539 H   0  0  0  0  0  0  0  0  0  0  0  0
   63.8599   34.1451   47.1763 H   0  0  0  0  0  0  0  0  0  0  0  0
   62.4770   30.6300   49.1030 H   0  0  0  0  0  0  0  0  0  0  0  0
   60.3030   30.7855   48.0585 H   0  0  0  0  0  0  0  0  0  0  0  0
  1  2  1  0
  2  3  2  0
  3  4  1  0
  4  5  2  0
  5  6  1  0
  5  7  1  0
  7  8  1  0
  8  9  1  0
  9 10  2  0
 10 11  1  0
 11 12  2  0
 12 13  1  0
 12 14  1  0
 14 15  1  0
 15 16  2  0
 16 17  1  0
 17 18  2  0
 18 19  1  0
 18 20  1  0
 20 21  2  0
 14 22  2  0
  7  2  1  0
 22  9  1  0
 21 15  1  0
  1 23  1  0
  1 24  1  0
  1 25  1  0
  3 26  1  0
  4 27  1  0
  8 28  1  0
  8 29  1  0
 10 30  1  0
 11 31  1  0
 16 32  1  0
 17 33  1  0
 20 34  1  0
 21 35  1  0
M  CHG  2   6  -1  20   1
M  END
>  <UniqueID>  (12) 
12

>  <SMILES>  (12) 
Cc1ccc([O-])n1Cc1ccc(F)c(-c2ccc(F)[nH+]c2)n1

>  <Energy>  (12) 
67.17940521403686

>  <Genealogy>  (12) 
Cc1ccc([O-])n1Cc1ccc(F)c(-c2ccc(F)[nH+]c2)n1 (protonated)
Cc1ccc([O-])n1Cc1ccc(F)c(-c2ccc(F)[nH+]c2)n1 (3D coordinates assigned)
Cc1ccc([O-])n1Cc1ccc(F)c(-c2ccc(F)[nH+]c2)n1 (optimized conformer: 67.17940521403686 kcal/mol)

>  <smiles>  (12) 
Cc1ccc(O)n1Cc1ccc(F)c(-c2ccc(F)nc2)n1

>  <score_type>  (12) 
oracle

>  <origin>  (12) 
adg

>  <m_score__min__energy>  (12) 
-9.5800000000000001

>  <m_primary>  (12) 
energy

$$$$
12:0
     RDKit          3D

 38 39  0  0  0  0  0  0  0  0999 V2000
   60.9120   32.1920   47.8880 C   0  0  0  0  0  0  0  0  0  0  0  0
   61.0850   33.2240   48.9490 N   0  0  1  0  0  0  0  0  0  0  0  0
   62.3630   33.9810   48.7440 C   0  0  0  0  0  0  0  0  0  0  0  0
   62.9790   33.8030   47.4140 C   0  0  0  0  0  0  0  0  0  0  0  0
   63.4610   33.6580   46.3710 N   0  0  0  0  0  0  0  0  0  0  0  0
   59.9300   34.1730   48.7920 C   0  0  0  0  0  0  0  0  0  0  0  0
   59.2860   34.1820   47.4140 C   0  0  0  0  0  0  0  0  0  0  0  0
   59.8500   34.9360   46.3680 C   0  0  0  0  0  0  0  0  0  0  0  0
   59.2530   34.9520   45.1060 C   0  0  0  0  0  0  0  0  0  0  0  0
   58.0800   34.2290   44.8760 C   0  0  0  0  0  0  0  0  0  0  0  0
   57.4990   33.4930   45.9120 C   0  0  0  0  0  0  0  0  0  0  0  0
   58.0940   33.4740   47.1780 C   0  0  0  0  0  0  0  0  0  0  0  0
   61.0090   32.5980   50.3140 C   0  0  0  0  0  0  0  0  0  0  0  0
   59.6480   32.6430   50.9890 C   0  0  0  0  0  0  0  0  0  0  0  0
   59.3990   33.5760   52.0130 C   0  0  0  0  0  0  0  0  0  0  0  0
   58.1610   33.6040   52.6610 C   0  0  0  0  0  0  0  0  0  0  0  0
   57.1660   32.6910   52.3100 C   0  0  0  0  0  0  0  0  0  0  0  0
   57.4100   31.7390   51.3180 C   0  0  0  0  0  0  0  0  0  0  0  0
   58.6470   31.7040   50.6660 C   0  0  0  0  0  0  0  0  0  0  0  0
   58.8640   30.7560   49.7190 F   0  0  0  0  0  0  0  0  0  0  0  0
   60.7474   31.2098   48.3552 H   0  0  0  0  0  0  0  0  0  0  0  0
   60.0447   32.4507   47.2628 H   0  0  0  0  0  0  0  0  0  0  0  0
   61.8163   32.1537   47.2628 H   0  0  0  0  0  0  0  0  0  0  0  0
   62.1532   35.0517   48.8839 H   0  0  0  0  0  0  0  0  0  0  0  0
   63.0814   33.5816   49.4750 H   0  0  0  0  0  0  0  0  0  0  0  0
   59.1594   33.8966   49.5267 H   0  0  0  0  0  0  0  0  0  0  0  0
   60.3393   35.1824   48.9458 H   0  0  0  0  0  0  0  0  0  0  0  0
   60.7672   35.5166   46.5459 H   0  0  0  0  0  0  0  0  0  0  0  0
   59.7072   35.5350   44.2912 H   0  0  0  0  0  0  0  0  0  0  0  0
   57.6139   34.2391   43.8797 H   0  0  0  0  0  0  0  0  0  0  0  0
   56.5726   32.9278   45.7319 H   0  0  0  0  0  0  0  0  0  0  0  0
   57.6269   32.9021   47.9934 H   0  0  0  0  0  0  0  0  0  0  0  0
   61.3029   31.5424   50.2177 H   0  0  0  0  0  0  0  0  0  0  0  0
   61.6783   33.1932   50.9526 H   0  0  0  0  0  0  0  0  0  0  0  0
   60.1845   34.2883   52.3054 H   0  0  0  0  0  0  0  0  0  0  0  0
   57.9707   34.3473   53.4493 H   0  0  0  0  0  0  0  0  0  0  0  0
   56.1892   32.7212   52.8148 H   0  0  0  0  0  0  0  0  0  0  0  0
   56.6273   31.0146   51.0486 H   0  0  0  0  0  0  0  0  0  0  0  0
  2  1  1  6
  2  3  1  0
  3  4  1  0
  4  5  3  0
  2  6  1  0
  6  7  1  0
  7  8  2  0
  8  9  1  0
  9 10  2  0
 10 11  1  0
 11 12  2  0
  2 13  1  0
 13 14  1  0
 14 15  2  0
 15 16  1  0
 16 17  2  0
 17 18  1  0
 18 19  2  0
 19 20  1  0
 12  7  1  0
 19 14  1  0
  1 21  1  0
  1 22  1  0
  1 23  1  0
  3 24  1  0
  3 25  1  0
  6 26  1  0
  6 27  1  0
  8 28  1  0
  9 29  1  0
 10 30  1  0
 11 31  1  0
 12 32  1  0
 13 33  1  0
 13 34  1  0
 15 35  1  0
 16 36  1  0
 17 37  1  0
 18 38  1  0
M  CHG  1   2   1
M  END
>  <UniqueID>  (13) 
13

>  <SMILES>  (13) 
C[N@@+](CC#N)(Cc1ccccc1)Cc1ccccc1F

>  <Energy>  (13) 
54.45824913304467

>  <Genealogy>  (13) 
C[N@@+](CC#N)(Cc1ccccc1)Cc1ccccc1F (chirality)
C[N@@+](CC#N)(Cc1ccccc1)Cc1ccccc1F (3D coordinates assigned)
C[N@@+](CC#N)(Cc1ccccc1)Cc1ccccc1F (optimized conformer: 54.45824913304467 kcal/mol)

>  <smiles>  (13) 
C[N+](CC#N)(Cc1ccccc1)Cc1ccccc1F

>  <score_type>  (13) 
oracle

>  <origin>  (13) 
adg

>  <m_score__min__energy>  (13) 
-4.8300000000000001

>  <m_primary>  (13) 
energy

$$$$
13:0
     RDKit          3D

 41 43  0  0  0  0  0  0  0  0999 V2000
   56.8100   23.3760   45.1840 C   0  0  0  0  0  0  0  0  0  0  0  0
   56.6740   24.8370   45.4410 C   0  0  0  0  0  0  0  0  0  0  0  0
   55.5780   25.3950   46.0010 N   0  0  0  0  0  0  0  0  0  0  0  0
   55.6460   26.7230   46.0820 N   0  0  0  0  0  0  0  0  0  0  0  0
   56.7920   27.2230   45.5640 C   0  0  0  0  0  0  0  0  0  0  0  0
   57.0940   28.4870   45.5350 N   0  0  0  0  0  0  0  0  0  0  0  0
   56.3370   29.5180   44.8780 C   0  0  0  0  0  0  0  0  0  0  0  0
   55.0920   29.5520   45.0570 O   0  0  0  0  0  0  0  0  0  0  0  0
   56.9770   30.5690   44.0470 C   0  0  0  0  0  0  0  0  0  0  0  0
   56.7970   30.5730   42.6530 C   0  0  0  0  0  0  0  0  0  0  0  0
   57.3940   31.5600   41.8650 C   0  0  0  0  0  0  0  0  0  0  0  0
   58.1760   32.5550   42.4570 C   0  0  0  0  0  0  0  0  0  0  0  0
   58.3580   32.5730   43.8470 C   0  0  0  0  0  0  0  0  0  0  0  0
   59.2150   33.6180   44.5010 C   0  0  0  0  0  0  0  0  0  0  0  0
   58.3980   34.4080   45.4270 N   0  0  0  0  0  0  0  0  0  0  0  0
   58.8030   34.0180   47.0700 S   0  0  0  0  0  0  0  0  0  0  0  0
   58.9180   35.2820   47.8780 O   0  0  0  0  0  0  0  0  0  0  0  0
   57.7250   33.1560   47.6640 O   0  0  0  0  0  0  0  0  0  0  0  0
   60.3250   33.1280   47.0870 C   0  0  0  0  0  0  0  0  0  0  0  0
   60.3400   31.7270   47.1370 C   0  0  0  0  0  0  0  0  0  0  0  0
   61.5590   31.0380   47.1840 C   0  0  0  0  0  0  0  0  0  0  0  0
   62.7630   31.7470   47.1790 C   0  0  0  0  0  0  0  0  0  0  0  0
   62.7520   33.1450   47.1310 C   0  0  0  0  0  0  0  0  0  0  0  0
   63.9210   33.8320   47.1270 F   0  0  0  0  0  0  0  0  0  0  0  0
   61.5360   33.8340   47.0890 C   0  0  0  0  0  0  0  0  0  0  0  0
   57.7390   31.5920   44.6380 C   0  0  0  0  0  0  0  0  0  0  0  0
   57.8030   26.0080   44.9920 S   0  0  0  0  0  0  0  0  0  0  0  0
   56.8601   22.8382   46.1423 H   0  0  0  0  0  0  0  0  0  0  0  0
   55.9409   23.0222   44.6100 H   0  0  0  0  0  0  0  0  0  0  0  0
   57.7295   23.1887   44.6100 H   0  0  0  0  0  0  0  0  0  0  0  0
   56.1819   29.7937   42.1794 H   0  0  0  0  0  0  0  0  0  0  0  0
   57.2479   31.5538   40.7748 H   0  0  0  0  0  0  0  0  0  0  0  0
   58.6498   33.3257   41.8313 H   0  0  0  0  0  0  0  0  0  0  0  0
   60.0300   33.1299   45.0555 H   0  0  0  0  0  0  0  0  0  0  0  0
   59.6407   34.2786   43.7313 H   0  0  0  0  0  0  0  0  0  0  0  0
   58.6120   35.4200   45.2790 H   0  0  0  0  0  0  0  0  0  0  0  0
   59.3928   31.1676   47.1393 H   0  0  0  0  0  0  0  0  0  0  0  0
   61.5682   29.9388   47.2248 H   0  0  0  0  0  0  0  0  0  0  0  0
   63.7199   31.2056   47.2128 H   0  0  0  0  0  0  0  0  0  0  0  0
   61.5297   34.9335   47.0574 H   0  0  0  0  0  0  0  0  0  0  0  0
   57.8514   31.6242   45.7318 H   0  0  0  0  0  0  0  0  0  0  0  0
  1  2  1  0
  2  3  2  0
  3  4  1  0
  4  5  1  0
  5  6  2  3
  6  7  1  0
  7  8  2  0
  7  9  1  0
  9 10  2  0
 10 11  1  0
 11 12  2  0
 12 13  1  0
 13 14  1  0
 14 15  1  0
 15 16  1  0
 16 17  2  0
 16 18  2  0
 16 19  1  0
 19 20  2  0
 20 21  1  0
 21 22  2  0
 22 23  1  0
 23 24  1  0
 23 25  2  0
 13 26  2  0
  5 27  1  0
 27  2  1  0
 26  9  1  0
 25 19  1  0
  1 28  1  0
  1 29  1  0
  1 30  1  0
 10 31  1  0
 11 32  1  0
 12 33  1  0
 14 34  1  0
 14 35  1  0
 15 36  1  0
 20 37  1  0
 21 38  1  0
 22 39  1  0
 25 40  1  0
 26 41  1  0
M  CHG  1   4  -1
M  END
>  <UniqueID>  (14) 
14

>  <SMILES>  (14) 
Cc1n[n-]c(=NC(=O)c2cccc(CNS(=O)(=O)c3cccc(F)c3)c2)s1

>  <Energy>  (14) 
78.06090217086137

>  <Genealogy>  (14) 
Cc1n[n-]c(=NC(=O)c2cccc(CNS(=O)(=O)c3cccc(F)c3)c2)s1 (protonated)
Cc1n[n-]c(=NC(=O)c2cccc(CNS(=O)(=O)c3cccc(F)c3)c2)s1 (3D coordinates assigned)
Cc1n[n-]c(=NC(=O)c2cccc(CNS(=O)(=O)c3cccc(F)c3)c2)s1 (optimized conformer: 78.06090217086137 kcal/mol)

>  <smiles>  (14) 
Cc1n[nH]c(=NC(=O)c2cccc(CNS(=O)(=O)c3cccc(F)c3)c2)s1

>  <score_type>  (14) 
oracle

>  <origin>  (14) 
adg

>  <m_score__min__energy>  (14) 
-11.27

>  <m_primary>  (14) 
energy

$$$$
14:0
     RDKit          3D

 43 45  0  0  0  0  0  0  0  0999 V2000
   57.8890   27.6010   47.5410 O   0  0  0  0  0  0  0  0  0  0  0  0
   57.1290   27.1550   46.6410 C   0  0  0  0  0  0  0  0  0  0  0  0
   56.6980   25.7910   46.7210 N   0  0  0  0  0  0  0  0  0  0  0  0
   56.3820   24.9430   45.6090 C   0  0  0  0  0  0  0  0  0  0  0  0
   55.1710   24.2310   45.5460 C   0  0  0  0  0  0  0  0  0  0  0  0
   54.8780   23.4390   44.4300 C   0  0  0  0  0  0  0  0  0  0  0  0
   55.7800   23.3690   43.3650 C   0  0  0  0  0  0  0  0  0  0  0  0
   55.4930   22.6030   42.2830 F   0  0  0  0  0  0  0  0  0  0  0  0
   56.9720   24.0970   43.4100 C   0  0  0  0  0  0  0  0  0  0  0  0
   57.2680   24.8890   44.5250 C   0  0  0  0  0  0  0  0  0  0  0  0
   56.6810   28.0080   45.5720 N   0  0  0  0  0  0  0  0  0  0  0  0
   57.0940   29.3740   45.4050 C   0  0  0  0  0  0  0  0  0  0  0  0
   56.5620   30.1840   44.3870 C   0  0  0  0  0  0  0  0  0  0  0  0
   57.0010   31.5020   44.2300 C   0  0  0  0  0  0  0  0  0  0  0  0
   57.9900   32.0310   45.0790 C   0  0  0  0  0  0  0  0  0  0  0  0
   58.4590   33.4250   44.9160 C   0  0  0  0  0  0  0  0  0  0  0  0
   57.6630   34.3210   44.5210 O   0  0  0  0  0  0  0  0  0  0  0  0
   59.7890   33.7470   45.2030 O   0  0  0  0  0  0  0  0  0  0  0  0
   60.1740   34.4820   46.3610 C   0  0  0  0  0  0  0  0  0  0  0  0
   61.3530   33.8090   47.0080 C   0  0  0  0  0  0  0  0  0  0  0  0
   62.6080   33.8500   46.3760 C   0  0  0  0  0  0  0  0  0  0  0  0
   63.7200   33.2470   46.9730 C   0  0  0  0  0  0  0  0  0  0  0  0
   63.5920   32.6080   48.2060 C   0  0  0  0  0  0  0  0  0  0  0  0
   62.3530   32.5710   48.8500 C   0  0  0  0  0  0  0  0  0  0  0  0
   61.2330   33.1710   48.2620 C   0  0  0  0  0  0  0  0  0  0  0  0
   59.5670   33.1020   49.2120 Br  0  0  0  0  0  0  0  0  0  0  0  0
   58.5380   31.2100   46.0790 C   0  0  0  0  0  0  0  0  0  0  0  0
   58.0990   29.8930   46.2340 C   0  0  0  0  0  0  0  0  0  0  0  0
   54.4522   24.2967   46.3760 H   0  0  0  0  0  0  0  0  0  0  0  0
   53.9368   22.8710   44.3911 H   0  0  0  0  0  0  0  0  0  0  0  0
   57.6783   24.0474   42.5681 H   0  0  0  0  0  0  0  0  0  0  0  0
   58.2005   25.4718   44.5505 H   0  0  0  0  0  0  0  0  0  0  0  0
   56.0730   27.5990   44.8290 H   0  0  0  0  0  0  0  0  0  0  0  0
   55.7958   29.7785   43.7099 H   0  0  0  0  0  0  0  0  0  0  0  0
   56.5698   32.1301   43.4366 H   0  0  0  0  0  0  0  0  0  0  0  0
   60.4495   35.5067   46.0710 H   0  0  0  0  0  0  0  0  0  0  0  0
   59.3345   34.5171   47.0710 H   0  0  0  0  0  0  0  0  0  0  0  0
   62.7161   34.3590   45.4068 H   0  0  0  0  0  0  0  0  0  0  0  0
   64.6973   33.2769   46.4690 H   0  0  0  0  0  0  0  0  0  0  0  0
   64.4677   32.1326   48.6719 H   0  0  0  0  0  0  0  0  0  0  0  0
   62.2568   32.0681   49.8236 H   0  0  0  0  0  0  0  0  0  0  0  0
   59.3184   31.6073   46.7447 H   0  0  0  0  0  0  0  0  0  0  0  0
   58.5454   29.2575   47.0130 H   0  0  0  0  0  0  0  0  0  0  0  0
  1  2  2  0
  2  3  1  0
  3  4  1  0
  4  5  2  0
  5  6  1  0
  6  7  2  0
  7  8  1  0
  7  9  1  0
  9 10  2  0
  2 11  1  0
 11 12  1  0
 12 13  2  0
 13 14  1  0
 14 15  2  0
 15 16  1  0
 16 17  2  0
 16 18  1  0
 18 19  1  0
 19 20  1  0
 20 21  2  0
 21 22  1  0
 22 23  2  0
 23 24  1  0
 24 25  2  0
 25 26  1  0
 15 27  1  0
 27 28  2  0
 10  4  1  0
 28 12  1  0
 25 20  1  0
  5 29  1  0
  6 30  1  0
  9 31  1  0
 10 32  1  0
 11 33  1  0
 13 34  1  0
 14 35  1  0
 19 36  1  0
 19 37  1  0
 21 38  1  0
 22 39  1  0
 23 40  1  0
 24 41  1  0
 27 42  1  0
 28 43  1  0
M  CHG  1   3  -1
M  END
>  <UniqueID>  (15) 
15

>  <SMILES>  (15) 
O=C([N-]c1ccc(F)cc1)Nc1ccc(C(=O)OCc2ccccc2Br)cc1

>  <Energy>  (15) 
53.326753109202095

>  <Genealogy>  (15) 
O=C([N-]c1ccc(F)cc1)Nc1ccc(C(=O)OCc2ccccc2Br)cc1 (protonated)
O=C([N-]c1ccc(F)cc1)Nc1ccc(C(=O)OCc2ccccc2Br)cc1 (3D coordinates assigned)
O=C([N-]c1ccc(F)cc1)Nc1ccc(C(=O)OCc2ccccc2Br)cc1 (optimized conformer: 53.326753109202095 kcal/mol)

>  <smiles>  (15) 
O=C(Nc1ccc(F)cc1)Nc1ccc(C(=O)OCc2ccccc2Br)cc1

>  <score_type>  (15) 
oracle

>  <origin>  (15) 
adg

>  <m_score__min__energy>  (15) 
-10.43

>  <m_primary>  (15) 
energy

$$$$
15:0
     RDKit          3D

 39 40  0  0  0  0  0  0  0  0999 V2000
   58.5591   29.2076   49.4758 H   0  0  0  0  0  0  0  0  0  0  0  0
   58.4860   30.0650   50.1610 C   0  0  0  0  0  0  0  0  0  0  0  0
   57.4770   30.0510   51.1310 O   0  0  0  0  0  0  0  0  0  0  0  0
   57.5630   30.7600   52.3680 C   0  0  0  0  0  0  0  0  0  0  0  0
   57.9826   31.7598   52.1828 H   0  0  0  0  0  0  0  0  0  0  0  0
   58.2108   30.1956   53.0549 H   0  0  0  0  0  0  0  0  0  0  0  0
   56.1790   30.9060   53.0050 C   0  0  0  0  0  0  0  0  0  0  0  0
   55.5660   31.5668   52.3744 H   0  0  0  0  0  0  0  0  0  0  0  0
   56.3120   31.3272   54.0124 H   0  0  0  0  0  0  0  0  0  0  0  0
   55.4620   29.5500   53.1480 C   0  0  0  0  0  0  0  0  0  0  0  0
   54.8859   29.5504   54.0851 H   0  0  0  0  0  0  0  0  0  0  0  0
   56.2278   28.7603   53.1509 H   0  0  0  0  0  0  0  0  0  0  0  0
   54.5440   29.2880   52.0260 N   0  0  0  0  0  0  0  0  0  0  0  0
   55.0740   29.3930   51.1300 H   0  0  0  0  0  0  0  0  0  0  0  0
   54.2040   28.2980   52.0670 H   0  0  0  0  0  0  0  0  0  0  0  0
   53.4340   30.2130   52.0170 C   0  0  0  0  0  0  0  0  0  0  0  0
   53.1950   31.0270   50.8950 C   0  0  0  0  0  0  0  0  0  0  0  0
   53.8511   30.9516   50.0153 H   0  0  0  0  0  0  0  0  0  0  0  0
   52.1290   31.9310   50.8910 C   0  0  0  0  0  0  0  0  0  0  0  0
   51.9485   32.5637   50.0094 H   0  0  0  0  0  0  0  0  0  0  0  0
   51.2920   32.0320   52.0060 C   0  0  0  0  0  0  0  0  0  0  0  0
   50.2340   32.9320   52.0010 O   0  0  0  0  0  0  0  0  0  0  0  0
   51.5210   31.2280   53.1270 C   0  0  0  0  0  0  0  0  0  0  0  0
   50.8627   31.3088   54.0045 H   0  0  0  0  0  0  0  0  0  0  0  0
   52.5850   30.3220   53.1340 C   0  0  0  0  0  0  0  0  0  0  0  0
   52.7598   29.6905   54.0176 H   0  0  0  0  0  0  0  0  0  0  0  0
   59.3680   31.0640   50.0200 C   0  0  0  0  0  0  0  0  0  0  0  0
   60.2512   31.0598   50.6757 H   0  0  0  0  0  0  0  0  0  0  0  0
   59.2420   32.1720   49.0480 C   0  0  0  0  0  0  0  0  0  0  0  0
   58.5350   32.0200   47.8400 C   0  0  0  0  0  0  0  0  0  0  0  0
   58.0747   31.0521   47.5924 H   0  0  0  0  0  0  0  0  0  0  0  0
   58.4160   33.0950   46.9540 C   0  0  0  0  0  0  0  0  0  0  0  0
   57.8750   32.9668   46.0048 H   0  0  0  0  0  0  0  0  0  0  0  0
   58.9830   34.3320   47.2720 C   0  0  0  0  0  0  0  0  0  0  0  0
   58.8943   35.1747   46.5705 H   0  0  0  0  0  0  0  0  0  0  0  0
   59.6630   34.4980   48.4820 C   0  0  0  0  0  0  0  0  0  0  0  0
   60.1033   35.4737   48.7354 H   0  0  0  0  0  0  0  0  0  0  0  0
   59.7840   33.4260   49.3700 C   0  0  0  0  0  0  0  0  0  0  0  0
   60.3073   33.5657   50.3274 H   0  0  0  0  0  0  0  0  0  0  0  0
  1  2  1  0
  2  3  1  0
  3  4  1  0
  4  5  1  0
  4  6  1  0
  4  7  1  0
  7  8  1  0
  7  9  1  0
  7 10  1  0
 10 11  1  0
 10 12  1  0
 10 13  1  0
 13 14  1  0
 13 15  1  0
 13 16  1  0
 16 17  2  0
 17 18  1  0
 17 19  1  0
 19 20  1  0
 19 21  2  0
 21 22  1  0
 21 23  1  0
 23 24  1  0
 23 25  2  0
 25 26  1  0
  2 27  2  0
 27 28  1  0
 27 29  1  0
 29 30  2  0
 30 31  1  0
 30 32  1  0
 32 33  1  0
 32 34  2  0
 34 35  1  0
 34 36  1  0
 36 37  1  0
 36 38  2  0
 38 39  1  0
 25 16  1  0
 38 29  1  0
M  CHG  2  13   1  22  -1
M  END
>  <UniqueID>  (16) 
16

>  <SMILES>  (16) 
[O-]c1ccc([NH2+]CCCO/C=C\c2ccccc2)cc1

>  <Energy>  (16) 
47.583426687715416

>  <Genealogy>  (16) 
[O-]c1ccc([NH2+]CCCOC=Cc2ccccc2)cc1 (protonated)
[O-]c1ccc([NH2+]CCCO/C=C\c2ccccc2)cc1 (cis-trans isomerization)
[O-]c1ccc([NH2+]CCCO/C=C\c2ccccc2)cc1 (3D coordinates assigned)
[O-]c1ccc([NH2+]CCCO/C=C\c2ccccc2)cc1 (optimized conformer: 47.583426687715416 kcal/mol)

>  <smiles>  (16) 
Oc1ccc(NCCCOC=Cc2ccccc2)cc1

>  <score_type>  (16) 
oracle

>  <origin>  (16) 
adg

>  <m_score__min__energy>  (16) 
-9.5600000000000005

>  <m_primary>  (16) 
energy

$$$$
16:0
     RDKit          3D

 52 56  0  0  0  0  0  0  0  0999 V2000
   56.2710   29.7670   42.3060 C   0  0  0  0  0  0  0  0  0  0  0  0
   57.1870   29.3900   43.4270 C   0  0  0  0  0  0  0  0  0  0  0  0
   57.4220   28.1090   43.7970 N   0  0  0  0  0  0  0  0  0  0  0  0
   58.2700   28.1740   44.8370 C   0  0  0  0  0  0  0  0  0  0  0  0
   58.7840   27.1060   45.5680 C   0  0  0  0  0  0  0  0  0  0  0  0
   59.6380   27.3940   46.6470 C   0  0  0  0  0  0  0  0  0  0  0  0
   59.9470   28.7330   46.9840 C   0  0  0  0  0  0  0  0  0  0  0  0
   60.8090   29.0150   48.0890 N   0  0  0  0  0  0  0  0  0  0  0  0
   59.4020   29.7930   46.2290 C   0  0  0  0  0  0  0  0  0  0  0  0
   58.5800   29.4760   45.1430 C   0  0  0  0  0  0  0  0  0  0  0  0
   57.8980   30.2770   44.2400 C   0  0  0  0  0  0  0  0  0  0  0  0
   57.8920   31.7550   44.1610 C   0  0  0  0  0  0  0  0  0  0  0  0
   57.5230   32.3080   43.0900 O   0  0  0  0  0  0  0  0  0  0  0  0
   58.3040   32.5960   45.3050 C   0  0  0  0  0  0  0  0  0  0  0  0
   57.7720   32.3600   46.5830 C   0  0  0  0  0  0  0  0  0  0  0  0
   58.1990   33.1170   47.6770 C   0  0  0  0  0  0  0  0  0  0  0  0
   59.1560   34.1300   47.5100 C   0  0  0  0  0  0  0  0  0  0  0  0
   59.6710   34.8870   48.7020 C   0  0  0  0  0  0  0  0  0  0  0  0
   60.5970   34.0500   49.4730 N   0  0  0  0  0  0  0  0  0  0  0  0
   60.4440   33.5910   50.7470 C   0  0  0  0  0  0  0  0  0  0  0  0
   59.2510   33.8700   51.6070 C   0  0  0  0  0  0  0  0  0  0  0  0
   61.5250   32.9130   51.2100 N   0  0  0  0  0  0  0  0  0  0  0  0
   62.3770   32.9520   50.1700 C   0  0  0  0  0  0  0  0  0  0  0  0
   63.6610   32.4140   50.1080 C   0  0  0  0  0  0  0  0  0  0  0  0
   64.3930   32.5990   48.9210 C   0  0  0  0  0  0  0  0  0  0  0  0
   63.8310   33.3130   47.8390 C   0  0  0  0  0  0  0  0  0  0  0  0
   62.5330   33.8460   47.9340 C   0  0  0  0  0  0  0  0  0  0  0  0
   61.8300   33.6390   49.1250 C   0  0  0  0  0  0  0  0  0  0  0  0
   59.6580   34.3940   46.2260 C   0  0  0  0  0  0  0  0  0  0  0  0
   59.2330   33.6380   45.1330 C   0  0  0  0  0  0  0  0  0  0  0  0
   55.3278   30.1552   42.7180 H   0  0  0  0  0  0  0  0  0  0  0  0
   56.7476   30.5421   41.6879 H   0  0  0  0  0  0  0  0  0  0  0  0
   56.0640   28.8810   41.6879 H   0  0  0  0  0  0  0  0  0  0  0  0
   57.0180   27.2460   43.3690 H   0  0  0  0  0  0  0  0  0  0  0  0
   58.5294   26.0677   45.3089 H   0  0  0  0  0  0  0  0  0  0  0  0
   60.0700   26.5706   47.2347 H   0  0  0  0  0  0  0  0  0  0  0  0
   61.3150   29.9260   48.1530 H   0  0  0  0  0  0  0  0  0  0  0  0
   60.9500   28.3110   48.8480 H   0  0  0  0  0  0  0  0  0  0  0  0
   59.6178   30.8402   46.4876 H   0  0  0  0  0  0  0  0  0  0  0  0
   57.0147   31.5746   46.7236 H   0  0  0  0  0  0  0  0  0  0  0  0
   57.7825   32.9178   48.6754 H   0  0  0  0  0  0  0  0  0  0  0  0
   60.1972   35.7901   48.3592 H   0  0  0  0  0  0  0  0  0  0  0  0
   58.8222   35.1672   49.3431 H   0  0  0  0  0  0  0  0  0  0  0  0
   59.5390   33.8027   52.6665 H   0  0  0  0  0  0  0  0  0  0  0  0
   58.8732   34.8807   51.3932 H   0  0  0  0  0  0  0  0  0  0  0  0
   58.4642   33.1316   51.3932 H   0  0  0  0  0  0  0  0  0  0  0  0
   64.0880   31.8630   50.9589 H   0  0  0  0  0  0  0  0  0  0  0  0
   65.4086   32.1854   48.8347 H   0  0  0  0  0  0  0  0  0  0  0  0
   64.4127   33.4529   46.9160 H   0  0  0  0  0  0  0  0  0  0  0  0
   62.0860   34.4066   47.0998 H   0  0  0  0  0  0  0  0  0  0  0  0
   60.3907   35.2015   46.0807 H   0  0  0  0  0  0  0  0  0  0  0  0
   59.6272   33.8584   44.1300 H   0  0  0  0  0  0  0  0  0  0  0  0
  1  2  1  0
  2  3  1  0
  3  4  1  0
  4  5  2  0
  5  6  1  0
  6  7  2  0
  7  8  1  0
  7  9  1  0
  9 10  2  0
 10 11  1  0
 11 12  1  0
 12 13  2  0
 12 14  1  0
 14 15  2  0
 15 16  1  0
 16 17  2  0
 17 18  1  0
 18 19  1  0
 19 20  1  0
 20 21  1  0
 20 22  2  0
 22 23  1  0
 23 24  2  0
 24 25  1  0
 25 26  2  0
 26 27  1  0
 27 28  2  0
 17 29  1  0
 29 30  2  0
 11  2  2  0
 30 14  1  0
 10  4  1  0
 28 19  1  0
 28 23  1  0
  1 31  1  0
  1 32  1  0
  1 33  1  0
  3 34  1  0
  5 35  1  0
  6 36  1  0
  8 37  1  0
  8 38  1  0
  9 39  1  0
 15 40  1  0
 16 41  1  0
 18 42  1  0
 18 43  1  0
 21 44  1  0
 21 45  1  0
 21 46  1  0
 24 47  1  0
 25 48  1  0
 26 49  1  0
 27 50  1  0
 29 51  1  0
 30 52  1  0
M  END
>  <UniqueID>  (17) 
17

>  <SMILES>  (17) 
Cc1[nH]c2ccc(N)cc2c1C(=O)c1ccc(Cn2c(C)nc3ccccc32)cc1

>  <Energy>  (17) 
129.24808475421847

>  <Genealogy>  (17) 
Cc1[nH]c2ccc(N)cc2c1C(=O)c1ccc(Cn2c(C)nc3ccccc32)cc1 (3D coordinates assigned)
Cc1[nH]c2ccc(N)cc2c1C(=O)c1ccc(Cn2c(C)nc3ccccc32)cc1 (optimized conformer: 129.24808475421847 kcal/mol)

>  <smiles>  (17) 
Cc1[nH]c2ccc(N)cc2c1C(=O)c1ccc(Cn2c(C)nc3ccccc32)cc1

>  <score_type>  (17) 
oracle

>  <origin>  (17) 
adg

>  <m_score__min__energy>  (17) 
-9.4499999999999993

>  <m_primary>  (17) 
energy

$$$$
17:0
     RDKit          3D

 51 53  0  0  0  0  0  0  0  0999 V2000
   57.8200   31.7680   53.7680 C   0  0  0  0  0  0  0  0  0  0  0  0
   58.2900   32.5470   52.6150 N   0  0  0  0  0  0  0  0  0  0  0  0
   58.5390   33.9830   52.7840 C   0  0  0  0  0  0  0  0  0  0  0  0
   58.5060   31.9060   51.3310 C   0  0  0  0  0  0  0  0  0  0  0  0
   58.3580   30.5110   51.1820 C   0  0  0  0  0  0  0  0  0  0  0  0
   58.5650   29.8980   49.9440 C   0  0  0  0  0  0  0  0  0  0  0  0
   58.9430   30.6520   48.8300 C   0  0  0  0  0  0  0  0  0  0  0  0
   59.1320   29.9780   47.5770 N   0  0  0  0  0  0  0  0  0  0  0  0
   59.7560   30.5080   46.4000 C   0  0  0  0  0  0  0  0  0  0  0  0
   60.3790   31.6030   46.4340 O   0  0  0  0  0  0  0  0  0  0  0  0
   59.7430   29.7080   45.1370 C   0  0  0  0  0  0  0  0  0  0  0  0
   58.3690   29.3340   44.7810 N   0  0  0  0  0  0  0  0  0  0  0  0
   57.9540   27.9570   44.8100 C   0  0  0  0  0  0  0  0  0  0  0  0
   58.1730   27.1250   43.7000 C   0  0  0  0  0  0  0  0  0  0  0  0
   57.7640   25.7880   43.7280 C   0  0  0  0  0  0  0  0  0  0  0  0
   57.1310   25.2720   44.8640 C   0  0  0  0  0  0  0  0  0  0  0  0
   56.5720   23.4460   44.9010 Br  0  0  0  0  0  0  0  0  0  0  0  0
   56.9080   26.0950   45.9720 C   0  0  0  0  0  0  0  0  0  0  0  0
   57.3160   27.4330   45.9460 C   0  0  0  0  0  0  0  0  0  0  0  0
   57.2360   30.5600   44.2840 S   0  0  0  0  0  0  0  0  0  0  0  0
   55.8740   30.2190   44.8210 O   0  0  0  0  0  0  0  0  0  0  0  0
   57.1680   30.6190   42.7830 O   0  0  0  0  0  0  0  0  0  0  0  0
   57.7510   32.1390   44.8710 C   0  0  0  0  0  0  0  0  0  0  0  0
   57.4030   32.5740   46.1600 C   0  0  0  0  0  0  0  0  0  0  0  0
   57.8300   33.8250   46.6160 C   0  0  0  0  0  0  0  0  0  0  0  0
   58.6030   34.6460   45.7900 C   0  0  0  0  0  0  0  0  0  0  0  0
   58.9490   34.2180   44.5050 C   0  0  0  0  0  0  0  0  0  0  0  0
   58.5220   32.9680   44.0450 C   0  0  0  0  0  0  0  0  0  0  0  0
   59.0700   32.0440   48.9580 C   0  0  0  0  0  0  0  0  0  0  0  0
   58.8610   32.6620   50.1940 C   0  0  0  0  0  0  0  0  0  0  0  0
   58.1233   32.2706   54.6983 H   0  0  0  0  0  0  0  0  0  0  0  0
   56.7234   31.6889   53.7346 H   0  0  0  0  0  0  0  0  0  0  0  0
   58.2614   30.7610   53.7346 H   0  0  0  0  0  0  0  0  0  0  0  0
   58.5808   34.2242   53.8564 H   0  0  0  0  0  0  0  0  0  0  0  0
   59.4964   34.2473   52.3111 H   0  0  0  0  0  0  0  0  0  0  0  0
   57.7265   34.5542   52.3111 H   0  0  0  0  0  0  0  0  0  0  0  0
   58.0762   29.8986   52.0512 H   0  0  0  0  0  0  0  0  0  0  0  0
   58.4291   28.8109   49.8451 H   0  0  0  0  0  0  0  0  0  0  0  0
   60.1774   30.3079   44.3237 H   0  0  0  0  0  0  0  0  0  0  0  0
   60.3335   28.7924   45.2890 H   0  0  0  0  0  0  0  0  0  0  0  0
   58.6687   27.5270   42.8041 H   0  0  0  0  0  0  0  0  0  0  0  0
   57.9402   25.1413   42.8558 H   0  0  0  0  0  0  0  0  0  0  0  0
   56.4109   25.6898   46.8657 H   0  0  0  0  0  0  0  0  0  0  0  0
   57.1363   28.0774   46.8192 H   0  0  0  0  0  0  0  0  0  0  0  0
   56.7940   31.9301   46.8116 H   0  0  0  0  0  0  0  0  0  0  0  0
   57.5571   34.1636   47.6264 H   0  0  0  0  0  0  0  0  0  0  0  0
   58.9391   35.6291   46.1512 H   0  0  0  0  0  0  0  0  0  0  0  0
   59.5573   34.8645   43.8554 H   0  0  0  0  0  0  0  0  0  0  0  0
   58.7921   32.6347   43.0321 H   0  0  0  0  0  0  0  0  0  0  0  0
   59.3355   32.6519   48.0805 H   0  0  0  0  0  0  0  0  0  0  0  0
   58.9748   33.7526   50.2815 H   0  0  0  0  0  0  0  0  0  0  0  0
  1  2  1  0
  2  3  1  0
  2  4  1  0
  4  5  2  0
  5  6  1  0
  6  7  2  0
  7  8  1  0
  8  9  1  0
  9 10  2  0
  9 11  1  0
 11 12  1  0
 12 13  1  0
 13 14  2  0
 14 15  1  0
 15 16  2  0
 16 17  1  0
 16 18  1  0
 18 19  2  0
 12 20  1  0
 20 21  2  0
 20 22  2  0
 20 23  1  0
 23 24  2  0
 24 25  1  0
 25 26  2  0
 26 27  1  0
 27 28  2  0
  7 29  1  0
 29 30  2  0
 30  4  1  0
 19 13  1  0
 28 23  1  0
  1 31  1  0
  1 32  1  0
  1 33  1  0
  3 34  1  0
  3 35  1  0
  3 36  1  0
  5 37  1  0
  6 38  1  0
 11 39  1  0
 11 40  1  0
 14 41  1  0
 15 42  1  0
 18 43  1  0
 19 44  1  0
 24 45  1  0
 25 46  1  0
 26 47  1  0
 27 48  1  0
 28 49  1  0
 29 50  1  0
 30 51  1  0
M  CHG  1   8  -1
M  END
>  <UniqueID>  (18) 
18

>  <SMILES>  (18) 
CN(C)c1ccc([N-]C(=O)CN(c2ccc(Br)cc2)S(=O)(=O)c2ccccc2)cc1

>  <Energy>  (18) 
60.76845868049978

>  <Genealogy>  (18) 
CN(C)c1ccc([N-]C(=O)CN(c2ccc(Br)cc2)S(=O)(=O)c2ccccc2)cc1 (protonated)
CN(C)c1ccc([N-]C(=O)CN(c2ccc(Br)cc2)S(=O)(=O)c2ccccc2)cc1 (3D coordinates assigned)
CN(C)c1ccc([N-]C(=O)CN(c2ccc(Br)cc2)S(=O)(=O)c2ccccc2)cc1 (optimized conformer: 60.76845868049978 kcal/mol)

>  <smiles>  (18) 
CN(C)c1ccc(NC(=O)CN(c2ccc(Br)cc2)S(=O)(=O)c2ccccc2)cc1

>  <score_type>  (18) 
oracle

>  <origin>  (18) 
adg

>  <m_score__min__energy>  (18) 
-10.69

>  <m_primary>  (18) 
energy

$$$$
18:0
     RDKit          3D

 32 33  0  0  0  0  0  0  0  0999 V2000
   57.6890   20.6330   46.2830 C   0  0  0  0  0  0  0  0  0  0  0  0
   57.6270   21.8530   47.0140 O   0  0  0  0  0  0  0  0  0  0  0  0
   56.8250   22.9480   46.6600 C   0  0  0  0  0  0  0  0  0  0  0  0
   55.4880   22.8030   46.2470 C   0  0  0  0  0  0  0  0  0  0  0  0
   54.7300   23.9260   45.9120 C   0  0  0  0  0  0  0  0  0  0  0  0
   55.2910   25.2080   45.9760 C   0  0  0  0  0  0  0  0  0  0  0  0
   54.5150   26.3200   45.6520 O   0  0  0  0  0  0  0  0  0  0  0  0
   56.6350   25.3650   46.3690 C   0  0  0  0  0  0  0  0  0  0  0  0
   57.2740   26.7320   46.4600 C   0  0  0  0  0  0  0  0  0  0  0  0
   56.8860   27.5660   45.3220 N   0  0  0  0  0  0  0  0  0  0  0  0
   57.2350   28.9560   45.1740 C   0  0  0  0  0  0  0  0  0  0  0  0
   58.2610   29.5530   45.9340 C   0  0  0  0  0  0  0  0  0  0  0  0
   58.5690   30.9060   45.7680 C   0  0  0  0  0  0  0  0  0  0  0  0
   57.8620   31.6790   44.8420 C   0  0  0  0  0  0  0  0  0  0  0  0
   58.2510   33.3770   44.6360 Cl  0  0  0  0  0  0  0  0  0  0  0  0
   56.8470   31.0960   44.0790 C   0  0  0  0  0  0  0  0  0  0  0  0
   56.5370   29.7430   44.2420 C   0  0  0  0  0  0  0  0  0  0  0  0
   57.3840   24.2290   46.7220 C   0  0  0  0  0  0  0  0  0  0  0  0
   57.7320   19.7869   46.9846 H   0  0  0  0  0  0  0  0  0  0  0  0
   56.7945   20.5391   45.6498 H   0  0  0  0  0  0  0  0  0  0  0  0
   58.5884   20.6303   45.6498 H   0  0  0  0  0  0  0  0  0  0  0  0
   55.0384   21.8008   46.1879 H   0  0  0  0  0  0  0  0  0  0  0  0
   53.6838   23.8034   45.5952 H   0  0  0  0  0  0  0  0  0  0  0  0
   54.3950   27.0930   46.2970 H   0  0  0  0  0  0  0  0  0  0  0  0
   56.9500   27.2198   47.3912 H   0  0  0  0  0  0  0  0  0  0  0  0
   58.3672   26.6105   46.4504 H   0  0  0  0  0  0  0  0  0  0  0  0
   56.2850   27.1240   44.5900 H   0  0  0  0  0  0  0  0  0  0  0  0
   58.8229   28.9500   46.6625 H   0  0  0  0  0  0  0  0  0  0  0  0
   59.3697   31.3640   46.3674 H   0  0  0  0  0  0  0  0  0  0  0  0
   56.2912   31.7028   43.3490 H   0  0  0  0  0  0  0  0  0  0  0  0
   55.7392   29.2898   43.6352 H   0  0  0  0  0  0  0  0  0  0  0  0
   58.4263   24.3492   47.0523 H   0  0  0  0  0  0  0  0  0  0  0  0
  1  2  1  0
  2  3  1  0
  3  4  2  0
  4  5  1  0
  5  6  2  0
  6  7  1  0
  6  8  1  0
  8  9  1  0
  9 10  1  0
 10 11  1  0
 11 12  2  0
 12 13  1  0
 13 14  2  0
 14 15  1  0
 14 16  1  0
 16 17  2  0
  8 18  2  0
 18  3  1  0
 17 11  1  0
  1 19  1  0
  1 20  1  0
  1 21  1  0
  4 22  1  0
  5 23  1  0
  7 24  1  0
  9 25  1  0
  9 26  1  0
 10 27  1  0
 12 28  1  0
 13 29  1  0
 16 30  1  0
 17 31  1  0
 18 32  1  0
M  END
>  <UniqueID>  (19) 
19

>  <SMILES>  (19) 
COc1ccc(O)c(CNc2ccc(Cl)cc2)c1

>  <Energy>  (19) 
31.467185785264185

>  <Genealogy>  (19) 
COc1ccc(O)c(CNc2ccc(Cl)cc2)c1 (3D coordinates assigned)
COc1ccc(O)c(CNc2ccc(Cl)cc2)c1 (optimized conformer: 31.467185785264185 kcal/mol)

>  <smiles>  (19) 
COc1ccc(O)c(CNc2ccc(Cl)cc2)c1

>  <score_type>  (19) 
oracle

>  <origin>  (19) 
adg

>  <m_score__min__energy>  (19) 
-7.9500000000000002

>  <m_primary>  (19) 
energy

$$$$
19:0
     RDKit          3D

 46 48  0  0  0  0  0  0  0  0999 V2000
   56.3820   30.2450   43.5240 C   0  0  0  0  0  0  0  0  0  0  0  0
   56.5910   30.8420   44.8000 O   0  0  0  0  0  0  0  0  0  0  0  0
   57.4300   31.9430   45.0310 C   0  0  0  0  0  0  0  0  0  0  0  0
   57.9390   32.7360   43.9860 C   0  0  0  0  0  0  0  0  0  0  0  0
   58.7640   33.8280   44.2690 C   0  0  0  0  0  0  0  0  0  0  0  0
   59.0930   34.1360   45.5910 C   0  0  0  0  0  0  0  0  0  0  0  0
   58.6060   33.3440   46.6420 C   0  0  0  0  0  0  0  0  0  0  0  0
   58.9250   33.6970   48.0710 C   0  0  0  0  0  0  0  0  0  0  0  0
   59.6590   32.6010   48.7180 N   0  0  0  0  0  0  0  0  0  0  0  0
   61.0550   32.6510   48.3520 C   0  0  0  0  0  0  0  0  0  0  0  0
   61.8250   33.7800   48.6860 C   0  0  0  0  0  0  0  0  0  0  0  0
   63.1710   33.8530   48.3230 C   0  0  0  0  0  0  0  0  0  0  0  0
   63.7610   32.8060   47.6160 C   0  0  0  0  0  0  0  0  0  0  0  0
   63.0070   31.6850   47.2630 C   0  0  0  0  0  0  0  0  0  0  0  0
   61.6480   31.5960   47.6220 C   0  0  0  0  0  0  0  0  0  0  0  0
   60.8540   30.4900   47.2710 O   0  0  0  0  0  0  0  0  0  0  0  0
   60.8010   29.8820   45.9800 C   0  0  0  0  0  0  0  0  0  0  0  0
   59.6140   28.9630   45.8710 C   0  0  0  0  0  0  0  0  0  0  0  0
   59.2640   28.4120   44.6280 C   0  0  0  0  0  0  0  0  0  0  0  0
   58.1670   27.5500   44.5220 C   0  0  0  0  0  0  0  0  0  0  0  0
   57.4190   27.2270   45.6570 C   0  0  0  0  0  0  0  0  0  0  0  0
   57.7690   27.7620   46.9010 C   0  0  0  0  0  0  0  0  0  0  0  0
   58.8650   28.6240   47.0110 C   0  0  0  0  0  0  0  0  0  0  0  0
   57.7640   32.2580   46.3540 C   0  0  0  0  0  0  0  0  0  0  0  0
   56.0212   29.2143   43.6561 H   0  0  0  0  0  0  0  0  0  0  0  0
   55.6340   30.8266   42.9652 H   0  0  0  0  0  0  0  0  0  0  0  0
   57.3294   30.2330   42.9652 H   0  0  0  0  0  0  0  0  0  0  0  0
   57.6867   32.4956   42.9427 H   0  0  0  0  0  0  0  0  0  0  0  0
   59.1554   34.4468   43.4481 H   0  0  0  0  0  0  0  0  0  0  0  0
   59.7356   35.0018   45.8089 H   0  0  0  0  0  0  0  0  0  0  0  0
   59.5420   34.6074   48.0903 H   0  0  0  0  0  0  0  0  0  0  0  0
   57.9841   33.8663   48.6152 H   0  0  0  0  0  0  0  0  0  0  0  0
   59.5610   32.6820   49.7580 H   0  0  0  0  0  0  0  0  0  0  0  0
   59.2490   31.6790   48.4370 H   0  0  0  0  0  0  0  0  0  0  0  0
   61.3628   34.6119   49.2376 H   0  0  0  0  0  0  0  0  0  0  0  0
   63.7665   34.7370   48.5949 H   0  0  0  0  0  0  0  0  0  0  0  0
   64.8231   32.8633   47.3356 H   0  0  0  0  0  0  0  0  0  0  0  0
   63.4779   30.8654   46.7004 H   0  0  0  0  0  0  0  0  0  0  0  0
   60.7205   30.6676   45.2143 H   0  0  0  0  0  0  0  0  0  0  0  0
   61.7180   29.2934   45.8293 H   0  0  0  0  0  0  0  0  0  0  0  0
   59.8548   28.6591   43.7336 H   0  0  0  0  0  0  0  0  0  0  0  0
   57.8933   27.1263   43.5444 H   0  0  0  0  0  0  0  0  0  0  0  0
   56.5547   26.5519   45.5722 H   0  0  0  0  0  0  0  0  0  0  0  0
   57.1813   27.5044   47.7944 H   0  0  0  0  0  0  0  0  0  0  0  0
   59.1414   29.0376   47.9921 H   0  0  0  0  0  0  0  0  0  0  0  0
   57.3623   31.6480   47.1765 H   0  0  0  0  0  0  0  0  0  0  0  0
  1  2  1  0
  2  3  1  0
  3  4  2  0
  4  5  1  0
  5  6  2  0
  6  7  1  0
  7  8  1  0
  8  9  1  0
  9 10  1  0
 10 11  2  0
 11 12  1  0
 12 13  2  0
 13 14  1  0
 14 15  2  0
 15 16  1  0
 16 17  1  0
 17 18  1  0
 18 19  2  0
 19 20  1  0
 20 21  2  0
 21 22  1  0
 22 23  2  0
  7 24  2  0
 24  3  1  0
 15 10  1  0
 23 18  1  0
  1 25  1  0
  1 26  1  0
  1 27  1  0
  4 28  1  0
  5 29  1  0
  6 30  1  0
  8 31  1  0
  8 32  1  0
  9 33  1  0
  9 34  1  0
 11 35  1  0
 12 36  1  0
 13 37  1  0
 14 38  1  0
 17 39  1  0
 17 40  1  0
 19 41  1  0
 20 42  1  0
 21 43  1  0
 22 44  1  0
 23 45  1  0
 24 46  1  0
M  CHG  1   9   1
M  END
>  <UniqueID>  (20) 
20

>  <SMILES>  (20) 
COc1cccc(C[NH2+]c2ccccc2OCc2ccccc2)c1

>  <Energy>  (20) 
47.64685330931936

>  <Genealogy>  (20) 
COc1cccc(C[NH2+]c2ccccc2OCc2ccccc2)c1 (protonated)
COc1cccc(C[NH2+]c2ccccc2OCc2ccccc2)c1 (3D coordinates assigned)
COc1cccc(C[NH2+]c2ccccc2OCc2ccccc2)c1 (optimized conformer: 47.64685330931936 kcal/mol)

>  <smiles>  (20) 
COc1cccc(CNc2ccccc2OCc2ccccc2)c1

>  <score_type>  (20) 
oracle

>  <origin>  (20) 
adg

>  <m_score__min__energy>  (20) 
-6.1799999999999997

>  <m_primary>  (20) 
energy

$$$$
20:0
     RDKit          3D

 85 89  0  0  0  0  0  0  0  0999 V2000
   57.4320   32.9950   44.5090 C   0  0  0  0  0  0  0  0  0  0  0  0
   58.0280   31.5830   44.4050 C   0  0  0  0  0  0  0  0  0  0  0  0
   56.9050   30.5600   44.1920 C   0  0  0  0  0  0  0  0  0  0  0  0
   58.8550   31.2130   45.6560 C   0  0  0  0  0  0  0  0  0  0  0  0
   59.5150   29.8320   45.5440 C   0  0  0  0  0  0  0  0  0  0  0  0
   59.9820   29.3540   46.8900 C   0  0  0  0  0  0  0  0  0  0  0  0
   60.8280   30.0820   47.6600 N   0  0  0  0  0  0  0  0  0  0  0  0
   61.0010   29.3100   48.7510 C   0  0  0  0  0  0  0  0  0  0  0  0
   60.3120   28.1400   48.6200 C   0  0  0  0  0  0  0  0  0  0  0  0
   59.6360   28.1690   47.4580 N   0  0  0  0  0  0  0  0  0  0  0  0
   58.7170   27.1800   46.9640 C   0  0  0  0  0  0  0  0  0  0  0  0
   59.1440   25.8650   46.7510 C   0  0  0  0  0  0  0  0  0  0  0  0
   58.2520   24.9040   46.2680 C   0  0  0  0  0  0  0  0  0  0  0  0
   56.9150   25.2410   45.9840 C   0  0  0  0  0  0  0  0  0  0  0  0
   55.9890   24.2010   45.4670 C   0  0  0  0  0  0  0  0  0  0  0  0
   56.3490   23.4400   44.5280 O   0  0  0  0  0  0  0  0  0  0  0  0
   54.7150   24.0420   46.0020 O   0  0  0  0  0  0  0  0  0  0  0  0
   56.4910   26.5720   46.1980 C   0  0  0  0  0  0  0  0  0  0  0  0
   55.1850   26.9650   45.9320 O   0  0  0  0  0  0  0  0  0  0  0  0
   57.3910   27.5280   46.6850 C   0  0  0  0  0  0  0  0  0  0  0  0
   60.1980   27.1420   49.7330 C   0  0  0  0  0  0  0  0  0  0  0  0
   61.3320   27.3130   50.6770 N   0  0  0  0  0  0  0  0  0  0  0  0
   61.2050   26.3960   51.8340 C   0  0  0  0  0  0  0  0  0  0  0  0
   61.1020   27.1850   53.1440 C   0  0  0  0  0  0  0  0  0  0  0  0
   59.7150   27.6020   53.3910 C   0  0  0  0  0  0  0  0  0  0  0  0
   58.5690   27.9290   53.5730 C   0  0  0  0  0  0  0  0  0  0  0  0
   57.1920   28.3100   53.7750 C   0  0  0  0  0  0  0  0  0  0  0  0
   56.4080   27.5700   54.6720 C   0  0  0  0  0  0  0  0  0  0  0  0
   55.0700   27.9110   54.8860 C   0  0  0  0  0  0  0  0  0  0  0  0
   54.5080   28.9930   54.2070 C   0  0  0  0  0  0  0  0  0  0  0  0
   55.2820   29.7390   53.3130 C   0  0  0  0  0  0  0  0  0  0  0  0
   56.6240   29.4060   53.0920 C   0  0  0  0  0  0  0  0  0  0  0  0
   57.3950   30.2010   52.1660 C   0  0  0  0  0  0  0  0  0  0  0  0
   58.0360   30.8830   51.4060 C   0  0  0  0  0  0  0  0  0  0  0  0
   58.8230   31.6800   50.5050 C   0  0  0  0  0  0  0  0  0  0  0  0
   58.5020   31.7280   49.1440 C   0  0  0  0  0  0  0  0  0  0  0  0
   59.2380   32.5410   48.2760 C   0  0  0  0  0  0  0  0  0  0  0  0
   60.3120   33.3110   48.7600 C   0  0  0  0  0  0  0  0  0  0  0  0
   61.0650   34.2160   47.8570 C   0  0  0  0  0  0  0  0  0  0  0  0
   60.4460   35.1300   47.2440 O   0  0  0  0  0  0  0  0  0  0  0  0
   62.4770   34.0560   47.6350 N   0  0  0  0  0  0  0  0  0  0  0  0
   63.0110   34.2240   46.2820 C   0  0  0  0  0  0  0  0  0  0  0  0
   63.4010   33.8460   48.7500 C   0  0  0  0  0  0  0  0  0  0  0  0
   60.6290   33.2540   50.1280 C   0  0  0  0  0  0  0  0  0  0  0  0
   59.8910   32.4410   50.9940 C   0  0  0  0  0  0  0  0  0  0  0  0
   61.4540   28.7250   51.1200 C   0  0  0  0  0  0  0  0  0  0  0  0
   61.8450   29.6360   49.9390 C   0  0  0  0  0  0  0  0  0  0  0  0
   57.3170   33.2673   45.5685 H   0  0  0  0  0  0  0  0  0  0  0  0
   58.1035   33.7136   44.0165 H   0  0  0  0  0  0  0  0  0  0  0  0
   56.4486   33.0151   44.0165 H   0  0  0  0  0  0  0  0  0  0  0  0
   58.7106   31.5681   43.5425 H   0  0  0  0  0  0  0  0  0  0  0  0
   56.5301   30.2185   45.1681 H   0  0  0  0  0  0  0  0  0  0  0  0
   56.0850   31.0279   43.6276 H   0  0  0  0  0  0  0  0  0  0  0  0
   57.2946   29.7000   43.6276 H   0  0  0  0  0  0  0  0  0  0  0  0
   59.6422   31.9689   45.7934 H   0  0  0  0  0  0  0  0  0  0  0  0
   58.1654   31.1826   46.5125 H   0  0  0  0  0  0  0  0  0  0  0  0
   58.7852   29.1151   45.1398 H   0  0  0  0  0  0  0  0  0  0  0  0
   60.3852   29.9098   44.8756 H   0  0  0  0  0  0  0  0  0  0  0  0
   60.1864   25.5863   46.9647 H   0  0  0  0  0  0  0  0  0  0  0  0
   58.5985   23.8723   46.1079 H   0  0  0  0  0  0  0  0  0  0  0  0
   57.0524   28.5616   46.8496 H   0  0  0  0  0  0  0  0  0  0  0  0
   59.2499   27.2981   50.2684 H   0  0  0  0  0  0  0  0  0  0  0  0
   60.2228   26.1251   49.3143 H   0  0  0  0  0  0  0  0  0  0  0  0
   60.3005   25.7823   51.7104 H   0  0  0  0  0  0  0  0  0  0  0  0
   62.0986   25.7559   51.8768 H   0  0  0  0  0  0  0  0  0  0  0  0
   61.4418   26.5502   53.9756 H   0  0  0  0  0  0  0  0  0  0  0  0
   61.7330   28.0827   53.0669 H   0  0  0  0  0  0  0  0  0  0  0  0
   56.8484   26.7173   55.2095 H   0  0  0  0  0  0  0  0  0  0  0  0
   54.4594   27.3264   55.5899 H   0  0  0  0  0  0  0  0  0  0  0  0
   53.4541   29.2594   54.3755 H   0  0  0  0  0  0  0  0  0  0  0  0
   54.8346   30.5914   52.7808 H   0  0  0  0  0  0  0  0  0  0  0  0
   57.6683   31.1246   48.7556 H   0  0  0  0  0  0  0  0  0  0  0  0
   58.9758   32.5788   47.2084 H   0  0  0  0  0  0  0  0  0  0  0  0
   64.0589   34.5537   46.3397 H   0  0  0  0  0  0  0  0  0  0  0  0
   62.9572   33.2655   45.7449 H   0  0  0  0  0  0  0  0  0  0  0  0
   62.4181   34.9790   45.7449 H   0  0  0  0  0  0  0  0  0  0  0  0
   62.8619   33.9685   49.7010 H   0  0  0  0  0  0  0  0  0  0  0  0
   63.8188   32.8300   48.6936 H   0  0  0  0  0  0  0  0  0  0  0  0
   64.2169   34.5816   48.6936 H   0  0  0  0  0  0  0  0  0  0  0  0
   61.4638   33.8533   50.5204 H   0  0  0  0  0  0  0  0  0  0  0  0
   60.1505   32.3995   52.0621 H   0  0  0  0  0  0  0  0  0  0  0  0
   60.4895   29.0593   51.5297 H   0  0  0  0  0  0  0  0  0  0  0  0
   62.2381   28.7874   51.8889 H   0  0  0  0  0  0  0  0  0  0  0  0
   61.6887   30.6877   50.2211 H   0  0  0  0  0  0  0  0  0  0  0  0
   62.9039   29.4741   49.6890 H   0  0  0  0  0  0  0  0  0  0  0  0
  1  2  1  0
  2  3  1  0
  2  4  1  0
  4  5  1  0
  5  6  1  0
  6  7  2  0
  7  8  1  0
  8  9  2  0
  9 10  1  0
 10 11  1  0
 11 12  2  0
 12 13  1  0
 13 14  2  0
 14 15  1  0
 15 16  2  0
 15 17  1  0
 14 18  1  0
 18 19  1  0
 18 20  2  0
  9 21  1  0
 21 22  1  0
 22 23  1  0
 23 24  1  0
 24 25  1  0
 25 26  3  0
 26 27  1  0
 27 28  2  0
 28 29  1  0
 29 30  2  0
 30 31  1  0
 31 32  2  0
 32 33  1  0
 33 34  3  0
 34 35  1  0
 35 36  2  0
 36 37  1  0
 37 38  2  0
 38 39  1  0
 39 40  2  0
 39 41  1  0
 41 42  1  0
 41 43  1  0
 38 44  1  0
 44 45  2  0
 22 46  1  0
 46 47  1  0
 10  6  1  0
 20 11  1  0
 32 27  1  0
 45 35  1  0
 47  8  1  0
  1 48  1  0
  1 49  1  0
  1 50  1  0
  2 51  1  0
  3 52  1  0
  3 53  1  0
  3 54  1  0
  4 55  1  0
  4 56  1  0
  5 57  1  0
  5 58  1  0
 12 59  1  0
 13 60  1  0
 20 61  1  0
 21 62  1  0
 21 63  1  0
 23 64  1  0
 23 65  1  0
 24 66  1  0
 24 67  1  0
 28 68  1  0
 29 69  1  0
 30 70  1  0
 31 71  1  0
 36 72  1  0
 37 73  1  0
 42 74  1  0
 42 75  1  0
 42 76  1  0
 43 77  1  0
 43 78  1  0
 43 79  1  0
 44 80  1  0
 45 81  1  0
 46 82  1  0
 46 83  1  0
 47 84  1  0
 47 85  1  0
M  CHG  2  17  -1  19  -1
M  END
>  <UniqueID>  (21) 
21

>  <SMILES>  (21) 
CC(C)CCc1nc2c(n1-c1ccc(C(=O)[O-])c([O-])c1)CN(CCC#Cc1ccccc1C#Cc1ccc(C(=O)N(C)C)cc1)CC2

>  <Energy>  (21) 
119.42361731389266

>  <Genealogy>  (21) 
CC(C)CCc1nc2c(n1-c1ccc(C(=O)[O-])c([O-])c1)CN(CCC#Cc1ccccc1C#Cc1ccc(C(=O)N(C)C)cc1)CC2 (protonated)
CC(C)CCc1nc2c(n1-c1ccc(C(=O)[O-])c([O-])c1)CN(CCC#Cc1ccccc1C#Cc1ccc(C(=O)N(C)C)cc1)CC2 (3D coordinates assigned)
CC(C)CCc1nc2c(n1-c1ccc(C(=O)[O-])c([O-])c1)CN(CCC#Cc1ccccc1C#Cc1ccc(C(=O)N(C)C)cc1)CC2 (nonaromatic ring conformer: 119.42361731389266 kcal/mol)

>  <smiles>  (21) 
CC(C)CCc1nc2c(n1-c1ccc(C(=O)O)c(O)c1)CN(CCC#Cc1ccccc1C#Cc1ccc(C(=O)N(C)C)cc1)CC2

>  <score_type>  (21) 
oracle

>  <origin>  (21) 
adg

>  <m_score__min__energy>  (21) 
-14.640000000000001

>  <m_primary>  (21) 
energy

$$$$
21:0
     RDKit          3D

 63 65  0  0  0  0  0  0  0  0999 V2000
   59.1906   33.9984   44.2290 H   0  0  0  0  0  0  0  0  0  0  0  0
   58.6240   33.5550   45.0610 C   0  0  0  0  0  0  0  0  0  0  0  0
   57.4220   33.1220   44.8340 N   0  0  0  0  0  0  0  0  0  0  0  0
   57.0200   31.8500   45.1850 O   0  0  0  0  0  0  0  0  0  0  0  0
   56.9170   30.8260   44.2100 C   0  0  0  0  0  0  0  0  0  0  0  0
   56.2305   31.1446   43.4117 H   0  0  0  0  0  0  0  0  0  0  0  0
   57.9076   30.6255   43.7757 H   0  0  0  0  0  0  0  0  0  0  0  0
   56.3910   29.5890   44.8580 C   0  0  0  0  0  0  0  0  0  0  0  0
   55.1530   29.3490   44.8340 O   0  0  0  0  0  0  0  0  0  0  0  0
   57.2970   28.7100   45.5370 N   0  0  0  0  0  0  0  0  0  0  0  0
   58.4740   29.1140   46.2480 C   0  0  0  0  0  0  0  0  0  0  0  0
   59.5920   29.5380   45.5170 C   0  0  0  0  0  0  0  0  0  0  0  0
   59.5649   29.5233   44.4174 H   0  0  0  0  0  0  0  0  0  0  0  0
   60.7400   29.9790   46.1780 C   0  0  0  0  0  0  0  0  0  0  0  0
   61.6203   30.2940   45.5984 H   0  0  0  0  0  0  0  0  0  0  0  0
   60.7730   30.0210   47.5760 C   0  0  0  0  0  0  0  0  0  0  0  0
   61.6843   30.3599   48.0906 H   0  0  0  0  0  0  0  0  0  0  0  0
   59.6550   29.6350   48.3250 C   0  0  0  0  0  0  0  0  0  0  0  0
   59.7270   29.7310   49.7220 O   0  0  0  0  0  0  0  0  0  0  0  0
   58.6000   29.9240   50.5720 C   0  0  0  0  0  0  0  0  0  0  0  0
   58.9198   29.8692   51.6231 H   0  0  0  0  0  0  0  0  0  0  0  0
   58.1566   30.9111   50.3746 H   0  0  0  0  0  0  0  0  0  0  0  0
   57.8534   29.1406   50.3746 H   0  0  0  0  0  0  0  0  0  0  0  0
   58.5030   29.1790   47.6550 C   0  0  0  0  0  0  0  0  0  0  0  0
   57.6199   28.8715   48.2343 H   0  0  0  0  0  0  0  0  0  0  0  0
   59.2630   33.4770   46.3910 C   0  0  0  0  0  0  0  0  0  0  0  0
   58.4780   33.1970   47.5150 C   0  0  0  0  0  0  0  0  0  0  0  0
   57.3935   33.0517   47.4020 H   0  0  0  0  0  0  0  0  0  0  0  0
   59.0630   33.1010   48.7790 C   0  0  0  0  0  0  0  0  0  0  0  0
   58.4342   32.8992   49.6587 H   0  0  0  0  0  0  0  0  0  0  0  0
   60.4530   33.2610   48.9340 C   0  0  0  0  0  0  0  0  0  0  0  0
   61.0770   33.1810   50.1880 O   0  0  0  0  0  0  0  0  0  0  0  0
   61.2220   31.9840   50.9450 C   0  0  0  0  0  0  0  0  0  0  0  0
   60.6427   31.1769   50.4728 H   0  0  0  0  0  0  0  0  0  0  0  0
   60.8511   32.1449   51.9680 H   0  0  0  0  0  0  0  0  0  0  0  0
   62.6730   31.6030   50.9870 C   0  0  0  0  0  0  0  0  0  0  0  0
   63.0770   30.4580   51.6780 C   0  0  0  0  0  0  0  0  0  0  0  0
   62.3309   29.8149   52.1676 H   0  0  0  0  0  0  0  0  0  0  0  0
   64.4300   30.1360   51.7430 C   0  0  0  0  0  0  0  0  0  0  0  0
   64.7513   29.2319   52.2809 H   0  0  0  0  0  0  0  0  0  0  0  0
   65.3860   30.9570   51.1270 C   0  0  0  0  0  0  0  0  0  0  0  0
   66.8480   30.5850   51.2440 C   0  0  0  0  0  0  0  0  0  0  0  0
   67.2547   31.0108   52.1732 H   0  0  0  0  0  0  0  0  0  0  0  0
   67.3836   30.9860   50.3709 H   0  0  0  0  0  0  0  0  0  0  0  0
   67.0240   29.0700   51.2700 C   0  0  0  0  0  0  0  0  0  0  0  0
   67.0643   28.7234   52.3132 H   0  0  0  0  0  0  0  0  0  0  0  0
   66.1752   28.5934   50.7578 H   0  0  0  0  0  0  0  0  0  0  0  0
   67.9595   28.8007   50.7578 H   0  0  0  0  0  0  0  0  0  0  0  0
   64.9450   32.1310   50.4670 C   0  0  0  0  0  0  0  0  0  0  0  0
   65.9160   33.0630   49.7920 C   0  0  0  0  0  0  0  0  0  0  0  0
   66.4879   33.6119   50.5547 H   0  0  0  0  0  0  0  0  0  0  0  0
   66.6067   32.4810   49.1641 H   0  0  0  0  0  0  0  0  0  0  0  0
   65.3628   33.7770   49.1641 H   0  0  0  0  0  0  0  0  0  0  0  0
   63.6090   32.4140   50.4140 N   0  0  0  0  0  0  0  0  0  0  0  0
   63.2870   33.2780   49.9250 H   0  0  0  0  0  0  0  0  0  0  0  0
   61.2540   33.5020   47.8060 C   0  0  0  0  0  0  0  0  0  0  0  0
   62.6410   33.6280   47.9870 O   0  0  0  0  0  0  0  0  0  0  0  0
   63.6220   33.1020   47.0990 C   0  0  0  0  0  0  0  0  0  0  0  0
   64.4446   32.6609   47.6811 H   0  0  0  0  0  0  0  0  0  0  0  0
   63.1652   32.3278   46.4650 H   0  0  0  0  0  0  0  0  0  0  0  0
   64.0140   33.9109   46.4650 H   0  0  0  0  0  0  0  0  0  0  0  0
   60.6540   33.6060   46.5360 C   0  0  0  0  0  0  0  0  0  0  0  0
   61.2800   33.7898   45.6504 H   0  0  0  0  0  0  0  0  0  0  0  0
  1  2  1  0
  2  3  2  0
  3  4  1  0
  4  5  1  0
  5  6  1  0
  5  7  1  0
  5  8  1  0
  8  9  2  0
  8 10  1  0
 10 11  1  0
 11 12  2  0
 12 13  1  0
 12 14  1  0
 14 15  1  0
 14 16  2  0
 16 17  1  0
 16 18  1  0
 18 19  1  0
 19 20  1  0
 20 21  1  0
 20 22  1  0
 20 23  1  0
 18 24  2  0
 24 25  1  0
  2 26  1  0
 26 27  2  0
 27 28  1  0
 27 29  1  0
 29 30  1  0
 29 31  2  0
 31 32  1  0
 32 33  1  0
 33 34  1  0
 33 35  1  0
 33 36  1  0
 36 37  2  0
 37 38  1  0
 37 39  1  0
 39 40  1  0
 39 41  2  0
 41 42  1  0
 42 43  1  0
 42 44  1  0
 42 45  1  0
 45 46  1  0
 45 47  1  0
 45 48  1  0
 41 49  1  0
 49 50  1  0
 50 51  1  0
 50 52  1  0
 50 53  1  0
 49 54  2  0
 54 55  1  0
 31 56  1  0
 56 57  1  0
 57 58  1  0
 58 59  1  0
 58 60  1  0
 58 61  1  0
 56 62  2  0
 62 63  1  0
 24 11  1  0
 62 26  1  0
 54 36  1  0
M  CHG  2  10  -1  54   1
M  END
>  <UniqueID>  (22) 
22

>  <SMILES>  (22) 
CCc1ccc(COc2ccc(/C=N\OCC(=O)[N-]c3cccc(OC)c3)cc2OC)[nH+]c1C

>  <Energy>  (22) 
62.420286558686875

>  <Genealogy>  (22) 
CCc1ccc(COc2ccc(C=NOCC(=O)[N-]c3cccc(OC)c3)cc2OC)[nH+]c1C (protonated)
CCc1ccc(COc2ccc(/C=N\OCC(=O)[N-]c3cccc(OC)c3)cc2OC)[nH+]c1C (cis-trans isomerization)
CCc1ccc(COc2ccc(/C=N\OCC(=O)[N-]c3cccc(OC)c3)cc2OC)[nH+]c1C (3D coordinates assigned)
CCc1ccc(COc2ccc(/C=N\OCC(=O)[N-]c3cccc(OC)c3)cc2OC)[nH+]c1C (optimized conformer: 62.420286558686875 kcal/mol)

>  <smiles>  (22) 
CCc1ccc(COc2ccc(C=NOCC(=O)Nc3cccc(OC)c3)cc2OC)nc1C

>  <score_type>  (22) 
oracle

>  <origin>  (22) 
adg

>  <m_score__min__energy>  (22) 
-8.1999999999999993

>  <m_primary>  (22) 
energy

$$$$
22:0
     RDKit          3D

 47 48  0  0  0  0  0  0  0  0999 V2000
   63.4720   32.5650   47.6810 C   0  0  0  0  0  0  0  0  0  0  0  0
   62.0870   32.1940   47.1570 C   0  0  0  0  0  0  0  0  0  0  0  0
   61.5940   30.8790   47.7790 C   0  0  0  0  0  0  0  0  0  0  0  0
   60.7490   30.0550   46.7950 C   0  0  0  0  0  0  0  0  0  0  0  0
   59.6120   30.8280   46.1720 C   0  0  0  0  0  0  0  0  0  0  0  0
   59.1970   32.0340   46.6230 N   0  0  0  0  0  0  0  0  0  0  0  0
   58.1830   32.3720   45.8030 C   0  0  0  0  0  0  0  0  0  0  0  0
   57.3060   33.8860   45.9190 Cl  0  0  0  0  0  0  0  0  0  0  0  0
   57.9750   31.3720   44.8740 C   0  0  0  0  0  0  0  0  0  0  0  0
   57.0080   31.4180   43.7260 C   0  0  0  0  0  0  0  0  0  0  0  0
   56.2200   30.1490   43.6660 C   0  0  0  0  0  0  0  0  0  0  0  0
   55.2720   29.9540   44.4710 O   0  0  0  0  0  0  0  0  0  0  0  0
   56.5040   29.1980   42.6930 O   0  0  0  0  0  0  0  0  0  0  0  0
   58.8770   30.3970   45.1160 N   0  0  0  0  0  0  0  0  0  0  0  0
   59.0110   29.1700   44.4200 N   0  0  0  0  0  0  0  0  0  0  0  0
   58.4760   28.0860   45.2110 C   0  0  0  0  0  0  0  0  0  0  0  0
   59.3210   27.3430   46.0520 C   0  0  0  0  0  0  0  0  0  0  0  0
   58.8090   26.3140   46.8420 C   0  0  0  0  0  0  0  0  0  0  0  0
   57.4350   26.0130   46.8210 C   0  0  0  0  0  0  0  0  0  0  0  0
   56.8840   24.9810   47.5960 O   0  0  0  0  0  0  0  0  0  0  0  0
   57.0070   23.5940   47.2960 C   0  0  0  0  0  0  0  0  0  0  0  0
   56.5750   26.7640   46.0040 C   0  0  0  0  0  0  0  0  0  0  0  0
   55.2070   26.4510   46.0110 O   0  0  0  0  0  0  0  0  0  0  0  0
   54.6630   25.1960   45.6150 C   0  0  0  0  0  0  0  0  0  0  0  0
   57.1000   27.8020   45.2100 C   0  0  0  0  0  0  0  0  0  0  0  0
   63.4608   32.5620   48.7809 H   0  0  0  0  0  0  0  0  0  0  0  0
   64.2090   31.8326   47.3198 H   0  0  0  0  0  0  0  0  0  0  0  0
   63.7442   33.5677   47.3198 H   0  0  0  0  0  0  0  0  0  0  0  0
   61.3801   32.9981   47.4097 H   0  0  0  0  0  0  0  0  0  0  0  0
   62.1498   32.0626   46.0667 H   0  0  0  0  0  0  0  0  0  0  0  0
   62.4661   30.2820   48.0839 H   0  0  0  0  0  0  0  0  0  0  0  0
   60.9602   31.1295   48.6424 H   0  0  0  0  0  0  0  0  0  0  0  0
   61.4065   29.6960   45.9895 H   0  0  0  0  0  0  0  0  0  0  0  0
   60.2995   29.2321   47.3701 H   0  0  0  0  0  0  0  0  0  0  0  0
   56.3213   32.2664   43.8627 H   0  0  0  0  0  0  0  0  0  0  0  0
   57.5692   31.5377   42.7875 H   0  0  0  0  0  0  0  0  0  0  0  0
   60.0150   28.9690   44.2190 H   0  0  0  0  0  0  0  0  0  0  0  0
   58.5130   29.2560   43.5040 H   0  0  0  0  0  0  0  0  0  0  0  0
   60.3957   27.5748   46.0878 H   0  0  0  0  0  0  0  0  0  0  0  0
   59.4850   25.7331   47.4867 H   0  0  0  0  0  0  0  0  0  0  0  0
   57.0580   23.0194   48.2326 H   0  0  0  0  0  0  0  0  0  0  0  0
   56.1344   23.2664   46.7119 H   0  0  0  0  0  0  0  0  0  0  0  0
   57.9236   23.4251   46.7119 H   0  0  0  0  0  0  0  0  0  0  0  0
   54.4082   24.6082   46.5092 H   0  0  0  0  0  0  0  0  0  0  0  0
   53.7562   25.3624   45.0149 H   0  0  0  0  0  0  0  0  0  0  0  0
   55.4043   24.6480   45.0149 H   0  0  0  0  0  0  0  0  0  0  0  0
   56.4235   28.3986   44.5804 H   0  0  0  0  0  0  0  0  0  0  0  0
  1  2  1  0
  2  3  1  0
  3  4  1  0
  4  5  1  0
  5  6  2  0
  6  7  1  0
  7  8  1  0
  7  9  2  0
  9 10  1  0
 10 11  1  0
 11 12  2  0
 11 13  1  0
  9 14  1  0
 14 15  1  0
 15 16  1  0
 16 17  2  0
 17 18  1  0
 18 19  2  0
 19 20  1  0
 20 21  1  0
 19 22  1  0
 22 23  1  0
 23 24  1  0
 22 25  2  0
 14  5  1  0
 25 16  1  0
  1 26  1  0
  1 27  1  0
  1 28  1  0
  2 29  1  0
  2 30  1  0
  3 31  1  0
  3 32  1  0
  4 33  1  0
  4 34  1  0
 10 35  1  0
 10 36  1  0
 15 37  1  0
 15 38  1  0
 17 39  1  0
 18 40  1  0
 21 41  1  0
 21 42  1  0
 21 43  1  0
 24 44  1  0
 24 45  1  0
 24 46  1  0
 25 47  1  0
M  CHG  2  13  -1  15   1
M  END
>  <UniqueID>  (23) 
23

>  <SMILES>  (23) 
CCCCc1nc(Cl)c(CC(=O)[O-])n1[NH2+]c1ccc(OC)c(OC)c1

>  <Energy>  (23) 
71.56820219925889

>  <Genealogy>  (23) 
CCCCc1nc(Cl)c(CC(=O)[O-])n1[NH2+]c1ccc(OC)c(OC)c1 (protonated)
CCCCc1nc(Cl)c(CC(=O)[O-])n1[NH2+]c1ccc(OC)c(OC)c1 (3D coordinates assigned)
CCCCc1nc(Cl)c(CC(=O)[O-])n1[NH2+]c1ccc(OC)c(OC)c1 (optimized conformer: 71.56820219925889 kcal/mol)

>  <smiles>  (23) 
CCCCc1nc(Cl)c(CC(=O)O)n1Nc1ccc(OC)c(OC)c1

>  <score_type>  (23) 
oracle

>  <origin>  (23) 
adg

>  <m_score__min__energy>  (23) 
-7.8399999999999999

>  <m_primary>  (23) 
energy

$$$$
23:0
     RDKit          3D

 48 50  0  0  0  0  0  0  0  0999 V2000
   63.2120   33.1000   47.7020 C   0  0  0  0  0  0  0  0  0  0  0  0
   62.1610   33.8340   46.8770 C   0  0  0  0  0  0  0  0  0  0  0  0
   60.9090   33.9760   47.6390 N   0  0  0  0  0  0  0  0  0  0  0  0
   59.7220   34.5490   46.9810 C   0  0  0  0  0  0  0  0  0  0  0  0
   58.9870   33.4850   46.2080 C   0  0  0  0  0  0  0  0  0  0  0  0
   57.7110   33.7510   45.6890 C   0  0  0  0  0  0  0  0  0  0  0  0
   57.0100   32.7590   44.9970 C   0  0  0  0  0  0  0  0  0  0  0  0
   57.5710   31.4890   44.8200 C   0  0  0  0  0  0  0  0  0  0  0  0
   56.6650   30.2490   43.9580 S   0  0  0  0  0  0  0  0  0  0  0  0
   57.6240   28.8160   43.8160 N   0  0  0  0  0  0  0  0  0  0  0  0
   55.4030   29.9380   44.7140 O   0  0  0  0  0  0  0  0  0  0  0  0
   56.2980   30.7360   42.5830 O   0  0  0  0  0  0  0  0  0  0  0  0
   58.8450   31.2170   45.3400 C   0  0  0  0  0  0  0  0  0  0  0  0
   59.5510   32.2100   46.0270 C   0  0  0  0  0  0  0  0  0  0  0  0
   60.9050   33.7030   49.0600 C   0  0  0  0  0  0  0  0  0  0  0  0
   61.6530   34.3640   49.8310 O   0  0  0  0  0  0  0  0  0  0  0  0
   60.0050   32.6940   49.6510 C   0  0  0  0  0  0  0  0  0  0  0  0
   59.1580   33.0950   50.6340 N   0  0  0  0  0  0  0  0  0  0  0  0
   58.2730   32.2750   51.2040 N   0  0  0  0  0  0  0  0  0  0  0  0
   57.3720   32.8190   52.2210 C   0  0  0  0  0  0  0  0  0  0  0  0
   58.1830   30.9660   50.8170 C   0  0  0  0  0  0  0  0  0  0  0  0
   57.3290   30.2040   51.3520 O   0  0  0  0  0  0  0  0  0  0  0  0
   59.0480   30.4710   49.8220 C   0  0  0  0  0  0  0  0  0  0  0  0
   58.9970   29.1250   49.4080 C   0  0  0  0  0  0  0  0  0  0  0  0
   59.8670   28.6560   48.4240 C   0  0  0  0  0  0  0  0  0  0  0  0
   60.8020   29.5150   47.8490 C   0  0  0  0  0  0  0  0  0  0  0  0
   60.8700   30.8500   48.2530 C   0  0  0  0  0  0  0  0  0  0  0  0
   59.9840   31.3480   49.2310 C   0  0  0  0  0  0  0  0  0  0  0  0
   63.0046   33.2448   48.7725 H   0  0  0  0  0  0  0  0  0  0  0  0
   63.1806   32.0264   47.4644 H   0  0  0  0  0  0  0  0  0  0  0  0
   64.2091   33.4991   47.4644 H   0  0  0  0  0  0  0  0  0  0  0  0
   62.5400   34.8329   46.6153 H   0  0  0  0  0  0  0  0  0  0  0  0
   61.9570   33.2530   45.9655 H   0  0  0  0  0  0  0  0  0  0  0  0
   59.0520   34.9706   47.7447 H   0  0  0  0  0  0  0  0  0  0  0  0
   60.0446   35.3377   46.2854 H   0  0  0  0  0  0  0  0  0  0  0  0
   57.2600   34.7447   45.8272 H   0  0  0  0  0  0  0  0  0  0  0  0
   56.0120   32.9778   44.5894 H   0  0  0  0  0  0  0  0  0  0  0  0
   58.2880   28.9660   43.0260 H   0  0  0  0  0  0  0  0  0  0  0  0
   56.9800   28.0490   43.5270 H   0  0  0  0  0  0  0  0  0  0  0  0
   59.2902   30.2199   45.2071 H   0  0  0  0  0  0  0  0  0  0  0  0
   60.5521   31.9923   46.4275 H   0  0  0  0  0  0  0  0  0  0  0  0
   57.7632   32.5828   53.2216 H   0  0  0  0  0  0  0  0  0  0  0  0
   57.3020   33.9104   52.1029 H   0  0  0  0  0  0  0  0  0  0  0  0
   56.3736   32.3727   52.1029 H   0  0  0  0  0  0  0  0  0  0  0  0
   58.2667   28.4401   49.8636 H   0  0  0  0  0  0  0  0  0  0  0  0
   59.8152   27.6058   48.1010 H   0  0  0  0  0  0  0  0  0  0  0  0
   61.4880   29.1404   47.0750 H   0  0  0  0  0  0  0  0  0  0  0  0
   61.6202   31.5183   47.8051 H   0  0  0  0  0  0  0  0  0  0  0  0
  1  2  1  0
  2  3  1  0
  3  4  1  0
  4  5  1  0
  5  6  2  0
  6  7  1  0
  7  8  2  0
  8  9  1  0
  9 10  1  0
  9 11  2  0
  9 12  2  0
  8 13  1  0
 13 14  2  0
  3 15  1  0
 15 16  2  0
 15 17  1  0
 17 18  2  0
 18 19  1  0
 19 20  1  0
 19 21  1  0
 21 22  2  0
 21 23  1  0
 23 24  2  0
 24 25  1  0
 25 26  2  0
 26 27  1  0
 27 28  2  0
 14  5  1  0
 28 17  1  0
 28 23  1  0
  1 29  1  0
  1 30  1  0
  1 31  1  0
  2 32  1  0
  2 33  1  0
  4 34  1  0
  4 35  1  0
  6 36  1  0
  7 37  1  0
 10 38  1  0
 10 39  1  0
 13 40  1  0
 14 41  1  0
 20 42  1  0
 20 43  1  0
 20 44  1  0
 24 45  1  0
 25 46  1  0
 26 47  1  0
 27 48  1  0
M  END
>  <UniqueID>  (24) 
24

>  <SMILES>  (24) 
CCN(Cc1ccc(S(N)(=O)=O)cc1)C(=O)c1nn(C)c(=O)c2ccccc12

>  <Energy>  (24) 
55.018522665007104

>  <Genealogy>  (24) 
CCN(Cc1ccc(S(N)(=O)=O)cc1)C(=O)c1nn(C)c(=O)c2ccccc12 (3D coordinates assigned)
CCN(Cc1ccc(S(N)(=O)=O)cc1)C(=O)c1nn(C)c(=O)c2ccccc12 (optimized conformer: 55.018522665007104 kcal/mol)

>  <smiles>  (24) 
CCN(Cc1ccc(S(N)(=O)=O)cc1)C(=O)c1nn(C)c(=O)c2ccccc12

>  <score_type>  (24) 
oracle

>  <origin>  (24) 
adg

>  <m_score__min__energy>  (24) 
-9.4100000000000001

>  <m_primary>  (24) 
energy

$$$$
24:0
     RDKit          3D

 42 44  0  0  0  0  0  0  0  0999 V2000
   59.5970   35.5220   45.8430 O   0  0  0  0  0  0  0  0  0  0  0  0
   59.6670   34.3740   46.3590 C   0  0  0  0  0  0  0  0  0  0  0  0
   58.5530   33.4730   46.2840 N   0  0  0  0  0  0  0  0  0  0  0  0
   58.1340   32.7100   45.1430 C   0  0  0  0  0  0  0  0  0  0  0  0
   58.2700   33.1940   43.8300 C   0  0  0  0  0  0  0  0  0  0  0  0
   57.8540   32.4130   42.7490 C   0  0  0  0  0  0  0  0  0  0  0  0
   57.3220   31.1400   42.9650 C   0  0  0  0  0  0  0  0  0  0  0  0
   57.2280   30.6210   44.2660 C   0  0  0  0  0  0  0  0  0  0  0  0
   56.6200   29.2610   44.5060 C   0  0  0  0  0  0  0  0  0  0  0  0
   56.9790   28.7790   45.7520 F   0  0  0  0  0  0  0  0  0  0  0  0
   57.0510   28.3560   43.5510 F   0  0  0  0  0  0  0  0  0  0  0  0
   55.2430   29.3610   44.4410 F   0  0  0  0  0  0  0  0  0  0  0  0
   57.6230   31.4230   45.3520 C   0  0  0  0  0  0  0  0  0  0  0  0
   60.9120   33.9550   47.0430 C   0  0  0  0  0  0  0  0  0  0  0  0
   62.1320   34.1300   46.3670 C   0  0  0  0  0  0  0  0  0  0  0  0
   63.3250   33.6580   46.9120 C   0  0  0  0  0  0  0  0  0  0  0  0
   63.3240   33.0040   48.1440 C   0  0  0  0  0  0  0  0  0  0  0  0
   64.5240   32.5280   48.6690 O   0  0  0  0  0  0  0  0  0  0  0  0
   62.1230   32.8380   48.8430 C   0  0  0  0  0  0  0  0  0  0  0  0
   60.9120   33.3260   48.3190 C   0  0  0  0  0  0  0  0  0  0  0  0
   59.6990   33.2200   49.1590 C   0  0  0  0  0  0  0  0  0  0  0  0
   59.3560   34.1850   49.8940 O   0  0  0  0  0  0  0  0  0  0  0  0
   58.9130   32.0220   49.1190 N   0  0  0  0  0  0  0  0  0  0  0  0
   59.2670   30.7880   48.4760 C   0  0  0  0  0  0  0  0  0  0  0  0
   59.9400   30.7540   47.2410 C   0  0  0  0  0  0  0  0  0  0  0  0
   60.2480   29.5290   46.6410 C   0  0  0  0  0  0  0  0  0  0  0  0
   59.8760   28.3310   47.2580 C   0  0  0  0  0  0  0  0  0  0  0  0
   60.2970   26.6590   46.4360 Br  0  0  0  0  0  0  0  0  0  0  0  0
   59.1850   28.3600   48.4740 C   0  0  0  0  0  0  0  0  0  0  0  0
   58.8760   29.5830   49.0750 C   0  0  0  0  0  0  0  0  0  0  0  0
   58.7046   34.1890   43.6537 H   0  0  0  0  0  0  0  0  0  0  0  0
   57.9458   32.8021   41.7242 H   0  0  0  0  0  0  0  0  0  0  0  0
   56.9746   30.5404   42.1107 H   0  0  0  0  0  0  0  0  0  0  0  0
   57.5295   31.0349   46.3770 H   0  0  0  0  0  0  0  0  0  0  0  0
   62.1454   34.6460   45.3956 H   0  0  0  0  0  0  0  0  0  0  0  0
   64.2705   33.8018   46.3686 H   0  0  0  0  0  0  0  0  0  0  0  0
   65.4150   32.7460   48.2370 H   0  0  0  0  0  0  0  0  0  0  0  0
   62.1259   32.3200   49.8134 H   0  0  0  0  0  0  0  0  0  0  0  0
   60.2248   31.6940   46.7458 H   0  0  0  0  0  0  0  0  0  0  0  0
   60.7845   29.5080   45.6809 H   0  0  0  0  0  0  0  0  0  0  0  0
   58.8845   27.4188   48.9576 H   0  0  0  0  0  0  0  0  0  0  0  0
   58.3219   29.6000   50.0251 H   0  0  0  0  0  0  0  0  0  0  0  0
  1  2  2  0
  2  3  1  0
  3  4  1  0
  4  5  2  0
  5  6  1  0
  6  7  2  0
  7  8  1  0
  8  9  1  0
  9 10  1  0
  9 11  1  0
  9 12  1  0
  8 13  2  0
  2 14  1  0
 14 15  2  0
 15 16  1  0
 16 17  2  0
 17 18  1  0
 17 19  1  0
 19 20  2  0
 20 21  1  0
 21 22  2  0
 21 23  1  0
 23 24  1  0
 24 25  2  0
 25 26  1  0
 26 27  2  0
 27 28  1  0
 27 29  1  0
 29 30  2  0
 13  4  1  0
 20 14  1  0
 30 24  1  0
  5 31  1  0
  6 32  1  0
  7 33  1  0
 13 34  1  0
 15 35  1  0
 16 36  1  0
 18 37  1  0
 19 38  1  0
 25 39  1  0
 26 40  1  0
 29 41  1  0
 30 42  1  0
M  CHG  2   3  -1  23  -1
M  END
>  <UniqueID>  (25) 
25

>  <SMILES>  (25) 
O=C([N-]c1cccc(C(F)(F)F)c1)c1ccc(O)cc1C(=O)[N-]c1ccc(Br)cc1

>  <Energy>  (25) 
61.043220281242355

>  <Genealogy>  (25) 
O=C([N-]c1cccc(C(F)(F)F)c1)c1ccc(O)cc1C(=O)[N-]c1ccc(Br)cc1 (protonated)
O=C([N-]c1cccc(C(F)(F)F)c1)c1ccc(O)cc1C(=O)[N-]c1ccc(Br)cc1 (3D coordinates assigned)
O=C([N-]c1cccc(C(F)(F)F)c1)c1ccc(O)cc1C(=O)[N-]c1ccc(Br)cc1 (optimized conformer: 61.043220281242355 kcal/mol)

>  <smiles>  (25) 
O=C(Nc1cccc(C(F)(F)F)c1)c1ccc(O)cc1C(=O)Nc1ccc(Br)cc1

>  <score_type>  (25) 
oracle

>  <origin>  (25) 
adg

>  <m_score__min__energy>  (25) 
-11.34

>  <m_primary>  (25) 
energy

$$$$
25:0
     RDKit          3D

 44 46  0  0  0  0  0  0  0  0999 V2000
   54.2820   30.7910   51.6420 C   0  0  0  0  0  0  0  0  0  0  0  0
   55.4440   30.2650   52.4690 C   0  0  0  0  0  0  0  0  0  0  0  0
   56.5830   30.0910   51.6300 O   0  0  0  0  0  0  0  0  0  0  0  0
   57.5630   31.0710   51.4110 C   0  0  0  0  0  0  0  0  0  0  0  0
   58.5220   30.8410   50.4190 C   0  0  0  0  0  0  0  0  0  0  0  0
   59.5220   31.7850   50.1670 C   0  0  0  0  0  0  0  0  0  0  0  0
   59.5850   32.9670   50.9100 C   0  0  0  0  0  0  0  0  0  0  0  0
   60.6100   33.8830   50.6250 O   0  0  0  0  0  0  0  0  0  0  0  0
   61.9670   33.6850   50.9150 C   0  0  0  0  0  0  0  0  0  0  0  0
   62.3210   33.3730   52.1940 N   0  0  0  0  0  0  0  0  0  0  0  0
   63.6100   33.1010   52.5360 C   0  0  0  0  0  0  0  0  0  0  0  0
   64.6150   33.1440   51.5700 C   0  0  0  0  0  0  0  0  0  0  0  0
   64.2890   33.4920   50.2600 C   0  0  0  0  0  0  0  0  0  0  0  0
   62.9680   33.8010   49.9240 C   0  0  0  0  0  0  0  0  0  0  0  0
   62.6820   34.2200   48.5860 N   0  0  0  0  0  0  0  0  0  0  0  0
   62.6990   33.1550   47.2160 S   0  0  0  0  0  0  0  0  0  0  0  0
   63.7230   32.0750   47.4210 O   0  0  0  0  0  0  0  0  0  0  0  0
   63.0440   33.9500   45.9890 O   0  0  0  0  0  0  0  0  0  0  0  0
   61.1120   32.4010   47.0090 C   0  0  0  0  0  0  0  0  0  0  0  0
   60.9970   31.0050   47.0990 C   0  0  0  0  0  0  0  0  0  0  0  0
   59.7580   30.3850   46.9360 C   0  0  0  0  0  0  0  0  0  0  0  0
   58.6210   31.1500   46.6810 C   0  0  0  0  0  0  0  0  0  0  0  0
   58.7150   32.5420   46.5850 C   0  0  0  0  0  0  0  0  0  0  0  0
   57.2520   33.4640   46.2590 Cl  0  0  0  0  0  0  0  0  0  0  0  0
   59.9620   33.1770   46.7460 C   0  0  0  0  0  0  0  0  0  0  0  0
   60.0640   34.9350   46.6130 Cl  0  0  0  0  0  0  0  0  0  0  0  0
   58.6120   33.2110   51.8970 C   0  0  0  0  0  0  0  0  0  0  0  0
   57.6120   32.2680   52.1500 C   0  0  0  0  0  0  0  0  0  0  0  0
   53.4877   31.1505   52.3127 H   0  0  0  0  0  0  0  0  0  0  0  0
   54.6291   31.6198   51.0074 H   0  0  0  0  0  0  0  0  0  0  0  0
   53.8883   29.9833   51.0074 H   0  0  0  0  0  0  0  0  0  0  0  0
   55.6822   30.9845   53.2662 H   0  0  0  0  0  0  0  0  0  0  0  0
   55.1677   29.2994   52.9176 H   0  0  0  0  0  0  0  0  0  0  0  0
   58.4891   29.9107   49.8329 H   0  0  0  0  0  0  0  0  0  0  0  0
   60.2648   31.5960   49.3780 H   0  0  0  0  0  0  0  0  0  0  0  0
   61.5810   33.3130   52.9290 H   0  0  0  0  0  0  0  0  0  0  0  0
   63.8597   32.8467   53.5767 H   0  0  0  0  0  0  0  0  0  0  0  0
   65.6546   32.9057   51.8391 H   0  0  0  0  0  0  0  0  0  0  0  0
   65.0731   33.5235   49.4892 H   0  0  0  0  0  0  0  0  0  0  0  0
   61.8904   30.3954   47.2995 H   0  0  0  0  0  0  0  0  0  0  0  0
   59.6781   29.2903   47.0088 H   0  0  0  0  0  0  0  0  0  0  0  0
   57.6459   30.6568   46.5548 H   0  0  0  0  0  0  0  0  0  0  0  0
   58.6386   34.1483   52.4721 H   0  0  0  0  0  0  0  0  0  0  0  0
   56.8605   32.4619   52.9295 H   0  0  0  0  0  0  0  0  0  0  0  0
  1  2  1  0
  2  3  1  0
  3  4  1  0
  4  5  2  0
  5  6  1  0
  6  7  2  0
  7  8  1  0
  8  9  1  0
  9 10  2  0
 10 11  1  0
 11 12  2  0
 12 13  1  0
 13 14  2  0
 14 15  1  0
 15 16  1  0
 16 17  2  0
 16 18  2  0
 16 19  1  0
 19 20  2  0
 20 21  1  0
 21 22  2  0
 22 23  1  0
 23 24  1  0
 23 25  2  0
 25 26  1  0
  7 27  1  0
 27 28  2  0
 28  4  1  0
 14  9  1  0
 25 19  1  0
  1 29  1  0
  1 30  1  0
  1 31  1  0
  2 32  1  0
  2 33  1  0
  5 34  1  0
  6 35  1  0
 10 36  1  0
 11 37  1  0
 12 38  1  0
 13 39  1  0
 20 40  1  0
 21 41  1  0
 22 42  1  0
 27 43  1  0
 28 44  1  0
M  CHG  2  10   1  15  -1
M  END
>  <UniqueID>  (26) 
26

>  <SMILES>  (26) 
CCOc1ccc(Oc2[nH+]cccc2[N-]S(=O)(=O)c2cccc(Cl)c2Cl)cc1

>  <Energy>  (26) 
61.863191935633985

>  <Genealogy>  (26) 
CCOc1ccc(Oc2[nH+]cccc2[N-]S(=O)(=O)c2cccc(Cl)c2Cl)cc1 (protonated)
CCOc1ccc(Oc2[nH+]cccc2[N-]S(=O)(=O)c2cccc(Cl)c2Cl)cc1 (3D coordinates assigned)
CCOc1ccc(Oc2[nH+]cccc2[N-]S(=O)(=O)c2cccc(Cl)c2Cl)cc1 (optimized conformer: 61.863191935633985 kcal/mol)

>  <smiles>  (26) 
CCOc1ccc(Oc2ncccc2NS(=O)(=O)c2cccc(Cl)c2Cl)cc1

>  <score_type>  (26) 
oracle

>  <origin>  (26) 
adg

>  <m_score__min__energy>  (26) 
-7.79

>  <m_primary>  (26) 
energy

$$$$
26:0
     RDKit          3D

 17 17  0  0  0  0  0  0  0  0999 V2000
   56.7400   21.4320   43.0210 C   0  0  0  0  0  0  0  0  0  0  0  0
   55.8820   22.4150   43.5910 O   0  0  0  0  0  0  0  0  0  0  0  0
   56.3160   23.4530   44.4310 C   0  0  0  0  0  0  0  0  0  0  0  0
   57.6600   23.5930   44.8270 C   0  0  0  0  0  0  0  0  0  0  0  0
   58.0400   24.6450   45.6640 C   0  0  0  0  0  0  0  0  0  0  0  0
   57.0890   25.5640   46.1130 C   0  0  0  0  0  0  0  0  0  0  0  0
   55.7490   25.4340   45.7240 C   0  0  0  0  0  0  0  0  0  0  0  0
   54.7900   26.3430   46.1650 O   0  0  0  0  0  0  0  0  0  0  0  0
   55.3690   24.3800   44.8860 C   0  0  0  0  0  0  0  0  0  0  0  0
   57.2340   20.8661   43.8246 H   0  0  0  0  0  0  0  0  0  0  0  0
   56.1478   20.7446   42.3990 H   0  0  0  0  0  0  0  0  0  0  0  0
   57.5011   21.9259   42.3990 H   0  0  0  0  0  0  0  0  0  0  0  0
   58.4130   22.8719   44.4763 H   0  0  0  0  0  0  0  0  0  0  0  0
   59.0913   24.7498   45.9703 H   0  0  0  0  0  0  0  0  0  0  0  0
   57.3921   26.3905   46.7725 H   0  0  0  0  0  0  0  0  0  0  0  0
   54.7670   26.6650   47.1250 H   0  0  0  0  0  0  0  0  0  0  0  0
   54.3169   24.2782   44.5815 H   0  0  0  0  0  0  0  0  0  0  0  0
  1  2  1  0
  2  3  1  0
  3  4  2  0
  4  5  1  0
  5  6  2  0
  6  7  1  0
  7  8  1  0
  7  9  2  0
  9  3  1  0
  1 10  1  0
  1 11  1  0
  1 12  1  0
  4 13  1  0
  5 14  1  0
  6 15  1  0
  8 16  1  0
  9 17  1  0
M  END
>  <UniqueID>  (27) 
27

>  <SMILES>  (27) 
COc1cccc(O)c1

>  <Energy>  (27) 
14.390518515929825

>  <Genealogy>  (27) 
COc1cccc(O)c1 (3D coordinates assigned)
COc1cccc(O)c1 (optimized conformer: 14.390518515929825 kcal/mol)

>  <smiles>  (27) 
COc1cccc(O)c1

>  <score_type>  (27) 
oracle

>  <origin>  (27) 
adg

>  <m_score__min__energy>  (27) 
-4.9500000000000002

>  <m_primary>  (27) 
energy

$$$$
27:0
     RDKit          3D

 48 50  0  0  0  0  0  0  0  0999 V2000
   60.7970   29.2830   49.7440 C   0  0  0  0  0  0  0  0  0  0  0  0
   61.0430   29.7230   48.4090 O   0  0  0  0  0  0  0  0  0  0  0  0
   60.1830   29.4970   47.3240 C   0  0  0  0  0  0  0  0  0  0  0  0
   58.8840   29.0460   47.5920 C   0  0  0  0  0  0  0  0  0  0  0  0
   57.9780   28.8280   46.5510 C   0  0  0  0  0  0  0  0  0  0  0  0
   58.3650   29.0450   45.2180 C   0  0  0  0  0  0  0  0  0  0  0  0
   57.3570   28.9220   44.1080 C   0  0  0  0  0  0  0  0  0  0  0  0
   56.8130   30.2770   43.8000 C   0  0  0  0  0  0  0  0  0  0  0  0
   56.6850   30.6490   42.6010 O   0  0  0  0  0  0  0  0  0  0  0  0
   56.5210   31.1840   44.8680 N   0  0  0  0  0  0  0  0  0  0  0  0
   57.3980   32.2470   45.2610 C   0  0  0  0  0  0  0  0  0  0  0  0
   57.4490   33.4130   44.4920 C   0  0  0  0  0  0  0  0  0  0  0  0
   58.2730   34.4700   44.8810 C   0  0  0  0  0  0  0  0  0  0  0  0
   59.0240   34.3820   46.0560 C   0  0  0  0  0  0  0  0  0  0  0  0
   58.9530   33.2360   46.8680 C   0  0  0  0  0  0  0  0  0  0  0  0
   59.7380   33.1690   48.1320 C   0  0  0  0  0  0  0  0  0  0  0  0
   59.2630   33.7170   49.1670 O   0  0  0  0  0  0  0  0  0  0  0  0
   61.0500   32.5450   48.1900 N   0  0  0  0  0  0  0  0  0  0  0  0
   61.8010   32.8480   46.9470 C   0  0  0  0  0  0  0  0  0  0  0  0
   63.3200   32.7690   47.1820 C   0  0  0  0  0  0  0  0  0  0  0  0
   63.8020   33.6740   48.1700 O   0  0  0  0  0  0  0  0  0  0  0  0
   62.8180   34.0550   49.1250 C   0  0  0  0  0  0  0  0  0  0  0  0
   61.7920   32.9450   49.4160 C   0  0  0  0  0  0  0  0  0  0  0  0
   58.1470   32.1630   46.4480 C   0  0  0  0  0  0  0  0  0  0  0  0
   59.6690   29.4940   44.9460 C   0  0  0  0  0  0  0  0  0  0  0  0
   60.5740   29.7150   45.9890 C   0  0  0  0  0  0  0  0  0  0  0  0
   61.2073   30.0168   50.4534 H   0  0  0  0  0  0  0  0  0  0  0  0
   59.7131   29.1848   49.9038 H   0  0  0  0  0  0  0  0  0  0  0  0
   61.2810   28.3082   49.9038 H   0  0  0  0  0  0  0  0  0  0  0  0
   58.5746   28.8619   48.6314 H   0  0  0  0  0  0  0  0  0  0  0  0
   56.9574   28.4850   46.7761 H   0  0  0  0  0  0  0  0  0  0  0  0
   57.8420   28.5061   43.2126 H   0  0  0  0  0  0  0  0  0  0  0  0
   56.5405   28.2529   44.4171 H   0  0  0  0  0  0  0  0  0  0  0  0
   56.8396   33.4975   43.5801 H   0  0  0  0  0  0  0  0  0  0  0  0
   58.3315   35.3761   44.2601 H   0  0  0  0  0  0  0  0  0  0  0  0
   59.6771   35.2173   46.3487 H   0  0  0  0  0  0  0  0  0  0  0  0
   60.9290   31.5080   48.2550 H   0  0  0  0  0  0  0  0  0  0  0  0
   61.5195   32.1207   46.1713 H   0  0  0  0  0  0  0  0  0  0  0  0
   61.5502   33.8706   46.6287 H   0  0  0  0  0  0  0  0  0  0  0  0
   63.5678   31.7456   47.5003 H   0  0  0  0  0  0  0  0  0  0  0  0
   63.8032   33.0470   46.2337 H   0  0  0  0  0  0  0  0  0  0  0  0
   63.3261   34.3163   50.0650 H   0  0  0  0  0  0  0  0  0  0  0  0
   62.2658   34.9073   48.7024 H   0  0  0  0  0  0  0  0  0  0  0  0
   62.3207   32.0668   49.8149 H   0  0  0  0  0  0  0  0  0  0  0  0
   61.0652   33.3329   50.1449 H   0  0  0  0  0  0  0  0  0  0  0  0
   58.1019   31.2470   47.0553 H   0  0  0  0  0  0  0  0  0  0  0  0
   59.9796   29.6727   43.9060 H   0  0  0  0  0  0  0  0  0  0  0  0
   61.5943   30.0602   45.7658 H   0  0  0  0  0  0  0  0  0  0  0  0
  1  2  1  0
  2  3  1  0
  3  4  2  0
  4  5  1  0
  5  6  2  0
  6  7  1  0
  7  8  1  0
  8  9  2  0
  8 10  1  0
 10 11  1  0
 11 12  2  0
 12 13  1  0
 13 14  2  0
 14 15  1  0
 15 16  1  0
 16 17  2  0
 16 18  1  0
 18 19  1  0
 19 20  1  0
 20 21  1  0
 21 22  1  0
 22 23  1  0
 15 24  2  0
  6 25  1  0
 25 26  2  0
 26  3  1  0
 24 11  1  0
 23 18  1  0
  1 27  1  0
  1 28  1  0
  1 29  1  0
  4 30  1  0
  5 31  1  0
  7 32  1  0
  7 33  1  0
 12 34  1  0
 13 35  1  0
 14 36  1  0
 18 37  1  0
 19 38  1  0
 19 39  1  0
 20 40  1  0
 20 41  1  0
 22 42  1  0
 22 43  1  0
 23 44  1  0
 23 45  1  0
 24 46  1  0
 25 47  1  0
 26 48  1  0
M  CHG  2  10  -1  18   1
M  END
>  <UniqueID>  (28) 
28

>  <SMILES>  (28) 
COc1ccc(CC(=O)[N-]c2cccc(C(=O)[NH+]3CCOCC3)c2)cc1

>  <Energy>  (28) 
67.98280031819318

>  <Genealogy>  (28) 
COc1ccc(CC(=O)[N-]c2cccc(C(=O)[NH+]3CCOCC3)c2)cc1 (protonated)
COc1ccc(CC(=O)[N-]c2cccc(C(=O)[NH+]3CCOCC3)c2)cc1 (3D coordinates assigned)
COc1ccc(CC(=O)[N-]c2cccc(C(=O)[NH+]3CCOCC3)c2)cc1 (nonaromatic ring conformer: 67.98280031819318 kcal/mol)

>  <smiles>  (28) 
COc1ccc(CC(=O)Nc2cccc(C(=O)N3CCOCC3)c2)cc1

>  <score_type>  (28) 
oracle

>  <origin>  (28) 
adg

>  <m_score__min__energy>  (28) 
-9.3800000000000008

>  <m_primary>  (28) 
energy

$$$$
28:0
     RDKit          3D

 55 58  0  0  0  0  0  0  0  0999 V2000
   63.4300   33.5280   46.8320 C   0  0  0  0  0  0  0  0  0  0  0  0
   63.0630   32.4690   47.7100 O   0  0  0  0  0  0  0  0  0  0  0  0
   63.5050   32.3470   49.0370 C   0  0  0  0  0  0  0  0  0  0  0  0
   64.8730   32.3130   49.3710 C   0  0  0  0  0  0  0  0  0  0  0  0
   65.2700   32.1810   50.7050 C   0  0  0  0  0  0  0  0  0  0  0  0
   64.3120   32.0830   51.7160 C   0  0  0  0  0  0  0  0  0  0  0  0
   62.9520   32.1200   51.3960 C   0  0  0  0  0  0  0  0  0  0  0  0
   62.5470   32.2590   50.0630 C   0  0  0  0  0  0  0  0  0  0  0  0
   61.1530   32.3190   49.7570 N   0  0  0  0  0  0  0  0  0  0  0  0
   60.4290   33.7980   49.2320 S   0  0  0  0  0  0  0  0  0  0  0  0
   59.4380   34.2560   50.2650 O   0  0  0  0  0  0  0  0  0  0  0  0
   61.4870   34.8550   49.0840 O   0  0  0  0  0  0  0  0  0  0  0  0
   59.6050   33.5500   47.6970 C   0  0  0  0  0  0  0  0  0  0  0  0
   60.0030   34.2610   46.5560 C   0  0  0  0  0  0  0  0  0  0  0  0
   59.3090   34.1060   45.3530 C   0  0  0  0  0  0  0  0  0  0  0  0
   58.2150   33.2270   45.2750 C   0  0  0  0  0  0  0  0  0  0  0  0
   57.4570   33.0770   44.0650 N   0  0  0  0  0  0  0  0  0  0  0  0
   57.7720   32.2110   42.9680 C   0  0  0  0  0  0  0  0  0  0  0  0
   58.4230   32.6770   41.9950 O   0  0  0  0  0  0  0  0  0  0  0  0
   57.3090   30.7800   42.9280 C   0  0  0  0  0  0  0  0  0  0  0  0
   57.6510   30.0780   44.2060 C   0  0  0  0  0  0  0  0  0  0  0  0
   59.1940   29.9690   44.8690 S   0  0  0  0  0  0  0  0  0  0  0  0
   58.6500   29.1470   46.2370 C   0  0  0  0  0  0  0  0  0  0  0  0
   59.4860   28.6990   47.3120 N   0  0  0  0  0  0  0  0  0  0  0  0
   60.2540   29.6010   48.1490 C   0  0  0  0  0  0  0  0  0  0  0  0
   60.8550   28.7280   49.2440 C   0  0  0  0  0  0  0  0  0  0  0  0
   60.7360   27.2880   48.7470 C   0  0  0  0  0  0  0  0  0  0  0  0
   59.6550   27.3020   47.6720 C   0  0  0  0  0  0  0  0  0  0  0  0
   57.3110   28.9590   46.2150 N   0  0  0  0  0  0  0  0  0  0  0  0
   56.7540   29.4820   45.0900 C   0  0  0  0  0  0  0  0  0  0  0  0
   55.3860   29.4250   44.8520 O   0  0  0  0  0  0  0  0  0  0  0  0
   57.8010   32.5430   46.4230 C   0  0  0  0  0  0  0  0  0  0  0  0
   58.4960   32.6960   47.6260 C   0  0  0  0  0  0  0  0  0  0  0  0
   63.7339   34.4050   47.4223 H   0  0  0  0  0  0  0  0  0  0  0  0
   64.2684   33.2045   46.1977 H   0  0  0  0  0  0  0  0  0  0  0  0
   62.5712   33.7927   46.1977 H   0  0  0  0  0  0  0  0  0  0  0  0
   65.6322   32.3906   48.5788 H   0  0  0  0  0  0  0  0  0  0  0  0
   66.3400   32.1543   50.9588 H   0  0  0  0  0  0  0  0  0  0  0  0
   64.6276   31.9767   52.7644 H   0  0  0  0  0  0  0  0  0  0  0  0
   62.1982   32.0397   52.1931 H   0  0  0  0  0  0  0  0  0  0  0  0
   60.8644   34.9431   46.6079 H   0  0  0  0  0  0  0  0  0  0  0  0
   59.6200   34.6740   44.4638 H   0  0  0  0  0  0  0  0  0  0  0  0
   56.2187   30.7570   42.7837 H   0  0  0  0  0  0  0  0  0  0  0  0
   57.8145   30.2674   42.0963 H   0  0  0  0  0  0  0  0  0  0  0  0
   61.0494   30.0853   47.5635 H   0  0  0  0  0  0  0  0  0  0  0  0
   59.6280   30.4042   48.5650 H   0  0  0  0  0  0  0  0  0  0  0  0
   61.9109   28.9905   49.4058 H   0  0  0  0  0  0  0  0  0  0  0  0
   60.3338   28.8679   50.2025 H   0  0  0  0  0  0  0  0  0  0  0  0
   61.6928   26.9500   48.3224 H   0  0  0  0  0  0  0  0  0  0  0  0
   60.4808   26.5992   49.5658 H   0  0  0  0  0  0  0  0  0  0  0  0
   59.9741   26.7153   46.7979 H   0  0  0  0  0  0  0  0  0  0  0  0
   58.7158   26.8559   48.0310 H   0  0  0  0  0  0  0  0  0  0  0  0
   54.7660   28.9550   45.5010 H   0  0  0  0  0  0  0  0  0  0  0  0
   56.9236   31.8810   46.3787 H   0  0  0  0  0  0  0  0  0  0  0  0
   58.1713   32.1441   48.5204 H   0  0  0  0  0  0  0  0  0  0  0  0
  1  2  1  0
  2  3  1  0
  3  4  2  0
  4  5  1  0
  5  6  2  0
  6  7  1  0
  7  8  2  0
  8  9  1  0
  9 10  1  0
 10 11  2  0
 10 12  2  0
 10 13  1  0
 13 14  2  0
 14 15  1  0
 15 16  2  0
 16 17  1  0
 17 18  1  0
 18 19  2  0
 18 20  1  0
 20 21  1  0
 21 22  1  0
 22 23  1  0
 23 24  1  0
 24 25  1  0
 25 26  1  0
 26 27  1  0
 27 28  1  0
 23 29  2  0
 29 30  1  0
 30 31  1  0
 16 32  1  0
 32 33  2  0
  8  3  1  0
 33 13  1  0
 30 21  2  0
 28 24  1  0
  1 34  1  0
  1 35  1  0
  1 36  1  0
  4 37  1  0
  5 38  1  0
  6 39  1  0
  7 40  1  0
 14 41  1  0
 15 42  1  0
 20 43  1  0
 20 44  1  0
 25 45  1  0
 25 46  1  0
 26 47  1  0
 26 48  1  0
 27 49  1  0
 27 50  1  0
 28 51  1  0
 28 52  1  0
 31 53  1  0
 32 54  1  0
 33 55  1  0
M  CHG  2   9  -1  17  -1
M  END
>  <UniqueID>  (29) 
29

>  <SMILES>  (29) 
COc1ccccc1[N-]S(=O)(=O)c1ccc([N-]C(=O)Cc2sc(N3CCCC3)nc2O)cc1

>  <Energy>  (29) 
96.79675534062973

>  <Genealogy>  (29) 
COc1ccccc1[N-]S(=O)(=O)c1ccc([N-]C(=O)Cc2sc(N3CCCC3)nc2O)cc1 (protonated)
COc1ccccc1[N-]S(=O)(=O)c1ccc([N-]C(=O)Cc2sc(N3CCCC3)nc2O)cc1 (3D coordinates assigned)
COc1ccccc1[N-]S(=O)(=O)c1ccc([N-]C(=O)Cc2sc(N3CCCC3)nc2O)cc1 (nonaromatic ring conformer: 96.79675534062973 kcal/mol)

>  <smiles>  (29) 
COc1ccccc1NS(=O)(=O)c1ccc(NC(=O)Cc2sc(N3CCCC3)nc2O)cc1

>  <score_type>  (29) 
oracle

>  <origin>  (29) 
adg

>  <m_score__min__energy>  (29) 
-11.92

>  <m_primary>  (29) 
energy

$$$$
29:0
     RDKit          3D

 26 28  0  0  0  0  0  0  0  0999 V2000
   56.2948   30.5123   41.2062 H   0  0  0  0  0  0  0  0  0  0  0  0
   56.6060   30.4610   42.2600 C   0  0  0  0  0  0  0  0  0  0  0  0
   56.0970   29.4580   43.0900 C   0  0  0  0  0  0  0  0  0  0  0  0
   55.3988   28.7128   42.6810 H   0  0  0  0  0  0  0  0  0  0  0  0
   56.4700   29.3950   44.4400 C   0  0  0  0  0  0  0  0  0  0  0  0
   55.9480   28.3290   45.2490 N   0  0  0  0  0  0  0  0  0  0  0  0
   56.6330   27.3950   45.8460 C   0  0  0  0  0  0  0  0  0  0  0  0
   57.9160   27.5970   46.2760 N   0  0  0  0  0  0  0  0  0  0  0  0
   58.6150   26.6120   46.9220 C   0  0  0  0  0  0  0  0  0  0  0  0
   60.1470   26.8850   47.4130 S   0  0  0  0  0  0  0  0  0  0  0  0
   58.0260   25.4040   47.1600 N   0  0  0  0  0  0  0  0  0  0  0  0
   56.7740   25.2310   46.7470 N   0  0  0  0  0  0  0  0  0  0  0  0
   55.9570   24.1750   46.8400 C   0  0  0  0  0  0  0  0  0  0  0  0
   56.3240   22.8520   47.4250 C   0  0  0  0  0  0  0  0  0  0  0  0
   56.3055   22.9187   48.5228 H   0  0  0  0  0  0  0  0  0  0  0  0
   55.6030   22.0910   47.0917 H   0  0  0  0  0  0  0  0  0  0  0  0
   57.3340   22.5712   47.0917 H   0  0  0  0  0  0  0  0  0  0  0  0
   54.7690   24.4570   46.2530 N   0  0  0  0  0  0  0  0  0  0  0  0
   54.8320   25.7100   45.8000 N   0  0  0  0  0  0  0  0  0  0  0  0
   56.0630   26.1580   46.1130 C   0  0  0  0  0  0  0  0  0  0  0  0
   57.4040   30.3240   44.9370 C   0  0  0  0  0  0  0  0  0  0  0  0
   57.7347   30.2613   45.9842 H   0  0  0  0  0  0  0  0  0  0  0  0
   57.9130   31.3260   44.1050 C   0  0  0  0  0  0  0  0  0  0  0  0
   58.6313   32.0577   44.5033 H   0  0  0  0  0  0  0  0  0  0  0  0
   57.5110   31.4000   42.7680 C   0  0  0  0  0  0  0  0  0  0  0  0
   58.1520   32.6550   41.7250 Cl  0  0  0  0  0  0  0  0  0  0  0  0
  1  2  1  0
  2  3  2  0
  3  4  1  0
  3  5  1  0
  5  6  1  0
  6  7  2  0
  7  8  1  0
  8  9  1  0
  9 10  2  0
  9 11  1  0
 11 12  1  0
 12 13  1  0
 13 14  1  0
 14 15  1  0
 14 16  1  0
 14 17  1  0
 13 18  2  0
 18 19  1  0
 19 20  2  0
  5 21  2  0
 21 22  1  0
 21 23  1  0
 23 24  1  0
 23 25  2  0
 25 26  1  0
 25  2  1  0
 20  7  1  0
 20 12  1  0
M  CHG  2   8  -1  11  -1
M  END
>  <UniqueID>  (30) 
30

>  <SMILES>  (30) 
Cc1nnc2/c(=N/c3ccc(Cl)cc3)[n-]c(=S)[n-]n12

>  <Energy>  (30) 
78.44039265769386

>  <Genealogy>  (30) 
Cc1nnc2c(=Nc3ccc(Cl)cc3)[n-]c(=S)[n-]n12 (protonated)
Cc1nnc2/c(=N/c3ccc(Cl)cc3)[n-]c(=S)[n-]n12 (cis-trans isomerization)
Cc1nnc2/c(=N/c3ccc(Cl)cc3)[n-]c(=S)[n-]n12 (3D coordinates assigned)
Cc1nnc2/c(=N/c3ccc(Cl)cc3)[n-]c(=S)[n-]n12 (optimized conformer: 78.44039265769386 kcal/mol)

>  <smiles>  (30) 
Cc1nnc2c(=Nc3ccc(Cl)cc3)[nH]c(=S)[nH]n12

>  <score_type>  (30) 
oracle

>  <origin>  (30) 
adg

>  <m_score__min__energy>  (30) 
-10.02

>  <m_primary>  (30) 
energy

$$$$
30:0
     RDKit          3D

 48 51  0  0  0  0  0  0  0  0999 V2000
   59.8049   29.3689   48.6468 H   0  0  0  0  0  0  0  0  0  0  0  0
   59.2470   29.8780   47.8470 C   0  0  0  0  0  0  0  0  0  0  0  0
   59.1000   31.2170   47.7330 N   0  0  0  0  0  0  0  0  0  0  0  0
   58.3610   31.3710   46.6120 C   0  0  0  0  0  0  0  0  0  0  0  0
   57.9440   32.5840   46.0250 C   0  0  0  0  0  0  0  0  0  0  0  0
   58.1920   33.7630   46.5230 N   0  0  0  0  0  0  0  0  0  0  0  0
   59.3620   34.6040   46.2840 C   0  0  0  0  0  0  0  0  0  0  0  0
   59.6085   34.5951   45.2120 H   0  0  0  0  0  0  0  0  0  0  0  0
   59.1458   35.6355   46.5991 H   0  0  0  0  0  0  0  0  0  0  0  0
   60.5260   34.0690   47.0720 C   0  0  0  0  0  0  0  0  0  0  0  0
   61.6410   33.5370   46.4040 C   0  0  0  0  0  0  0  0  0  0  0  0
   61.6495   33.4907   45.3050 H   0  0  0  0  0  0  0  0  0  0  0  0
   62.7400   33.0660   47.1280 C   0  0  0  0  0  0  0  0  0  0  0  0
   63.6067   32.6437   46.5983 H   0  0  0  0  0  0  0  0  0  0  0  0
   62.7390   33.1310   48.5230 C   0  0  0  0  0  0  0  0  0  0  0  0
   63.6030   32.7558   49.0910 H   0  0  0  0  0  0  0  0  0  0  0  0
   61.6420   33.6720   49.1980 C   0  0  0  0  0  0  0  0  0  0  0  0
   61.6456   33.7254   50.2967 H   0  0  0  0  0  0  0  0  0  0  0  0
   60.5390   34.1460   48.4800 C   0  0  0  0  0  0  0  0  0  0  0  0
   59.4630   34.6970   49.1690 O   0  0  0  0  0  0  0  0  0  0  0  0
   57.2400   32.5040   44.8590 N   0  0  0  0  0  0  0  0  0  0  0  0
   56.9440   31.3110   44.2630 C   0  0  0  0  0  0  0  0  0  0  0  0
   56.3782   31.2895   43.3199 H   0  0  0  0  0  0  0  0  0  0  0  0
   57.3640   30.1170   44.8580 C   0  0  0  0  0  0  0  0  0  0  0  0
   57.1498   29.1438   44.3921 H   0  0  0  0  0  0  0  0  0  0  0  0
   58.0450   30.1990   46.0300 N   0  0  0  0  0  0  0  0  0  0  0  0
   58.5900   29.2430   46.8060 C   0  0  0  0  0  0  0  0  0  0  0  0
   58.5060   27.7810   46.6000 C   0  0  0  0  0  0  0  0  0  0  0  0
   59.6450   27.0400   46.2460 C   0  0  0  0  0  0  0  0  0  0  0  0
   60.6127   27.5480   46.1218 H   0  0  0  0  0  0  0  0  0  0  0  0
   59.5530   25.6590   46.0510 C   0  0  0  0  0  0  0  0  0  0  0  0
   60.4520   25.0799   45.7931 H   0  0  0  0  0  0  0  0  0  0  0  0
   58.3220   25.0130   46.1830 C   0  0  0  0  0  0  0  0  0  0  0  0
   58.2593   23.9232   46.0471 H   0  0  0  0  0  0  0  0  0  0  0  0
   57.1680   25.7430   46.4870 C   0  0  0  0  0  0  0  0  0  0  0  0
   55.9230   25.0420   46.6210 N   0  0  0  0  0  0  0  0  0  0  0  0
   54.8620   25.0140   45.6610 C   0  0  0  0  0  0  0  0  0  0  0  0
   54.0390   25.9670   45.6310 O   0  0  0  0  0  0  0  0  0  0  0  0
   54.7030   23.8970   44.7790 N   0  0  0  0  0  0  0  0  0  0  0  0
   55.7940   23.0140   44.3840 C   0  0  0  0  0  0  0  0  0  0  0  0
   55.3796   22.0425   44.0766 H   0  0  0  0  0  0  0  0  0  0  0  0
   56.4729   22.8845   45.2397 H   0  0  0  0  0  0  0  0  0  0  0  0
   56.5770   23.6150   43.2220 C   0  0  0  0  0  0  0  0  0  0  0  0
   57.3923   24.2408   43.6140 H   0  0  0  0  0  0  0  0  0  0  0  0
   56.9987   22.8064   42.6068 H   0  0  0  0  0  0  0  0  0  0  0  0
   55.9049   24.2314   42.6068 H   0  0  0  0  0  0  0  0  0  0  0  0
   57.2680   27.1280   46.7140 C   0  0  0  0  0  0  0  0  0  0  0  0
   56.3699   27.7035   46.9827 H   0  0  0  0  0  0  0  0  0  0  0  0
  1  2  1  0
  2  3  1  0
  3  4  2  0
  4  5  1  0
  5  6  2  0
  6  7  1  0
  7  8  1  0
  7  9  1  0
  7 10  1  0
 10 11  2  0
 11 12  1  0
 11 13  1  0
 13 14  1  0
 13 15  2  0
 15 16  1  0
 15 17  1  0
 17 18  1  0
 17 19  2  0
 19 20  1  0
  5 21  1  0
 21 22  1  0
 22 23  1  0
 22 24  2  0
 24 25  1  0
 24 26  1  0
 26 27  1  0
 27 28  1  0
 28 29  2  0
 29 30  1  0
 29 31  1  0
 31 32  1  0
 31 33  2  0
 33 34  1  0
 33 35  1  0
 35 36  1  0
 36 37  1  0
 37 38  2  0
 37 39  1  0
 39 40  1  0
 40 41  1  0
 40 42  1  0
 40 43  1  0
 43 44  1  0
 43 45  1  0
 43 46  1  0
 35 47  2  0
 47 48  1  0
 27  2  2  0
 47 28  1  0
 26  4  1  0
 19 10  1  0
M  CHG  4  20  -1  21  -1  36  -1  39  -1
M  END
>  <UniqueID>  (31) 
31

>  <SMILES>  (31) 
CC[N-]C(=O)[N-]c1cccc(-c2cnc3/c(=N\Cc4ccccc4[O-])[n-]ccn23)c1

>  <Energy>  (31) 
96.17523961709652

>  <Genealogy>  (31) 
CC[N-]C(=O)[N-]c1cccc(-c2cnc3c(=NCc4ccccc4[O-])[n-]ccn23)c1 (protonated)
CC[N-]C(=O)[N-]c1cccc(-c2cnc3/c(=N\Cc4ccccc4[O-])[n-]ccn23)c1 (cis-trans isomerization)
CC[N-]C(=O)[N-]c1cccc(-c2cnc3/c(=N\Cc4ccccc4[O-])[n-]ccn23)c1 (3D coordinates assigned)
CC[N-]C(=O)[N-]c1cccc(-c2cnc3/c(=N\Cc4ccccc4[O-])[n-]ccn23)c1 (optimized conformer: 96.17523961709652 kcal/mol)

>  <smiles>  (31) 
CCNC(=O)Nc1cccc(-c2cnc3c(=NCc4ccccc4O)[nH]ccn23)c1

>  <score_type>  (31) 
oracle

>  <origin>  (31) 
adg

>  <m_score__min__energy>  (31) 
-14.869999999999999

>  <m_primary>  (31) 
energy

$$$$
31:0
     RDKit          3D

 39 41  0  0  0  0  0  0  0  0999 V2000
   57.1643   23.6060   45.6736 H   0  0  0  0  0  0  0  0  0  0  0  0
   57.2470   24.6930   45.5270 C   0  0  0  0  0  0  0  0  0  0  0  0
   56.9140   25.5650   46.5660 C   0  0  0  0  0  0  0  0  0  0  0  0
   56.5776   25.1641   47.5335 H   0  0  0  0  0  0  0  0  0  0  0  0
   57.0080   26.9480   46.3770 C   0  0  0  0  0  0  0  0  0  0  0  0
   56.7568   27.6310   47.2019 H   0  0  0  0  0  0  0  0  0  0  0  0
   57.4210   27.4690   45.1410 C   0  0  0  0  0  0  0  0  0  0  0  0
   57.5340   28.8940   44.9830 N   0  0  0  0  0  0  0  0  0  0  0  0
   58.4960   29.2980   45.0020 H   0  0  0  0  0  0  0  0  0  0  0  0
   56.4070   29.7840   44.8720 C   0  0  0  0  0  0  0  0  0  0  0  0
   55.2350   29.3250   44.8360 O   0  0  0  0  0  0  0  0  0  0  0  0
   56.5890   31.2030   44.7610 N   0  0  0  0  0  0  0  0  0  0  0  0
   57.5930   31.8830   45.2260 C   0  0  0  0  0  0  0  0  0  0  0  0
   58.7880   31.3470   45.5670 N   0  0  0  0  0  0  0  0  0  0  0  0
   59.6350   32.2440   46.0680 N   0  0  0  0  0  0  0  0  0  0  0  0
   59.1180   33.4930   46.1240 C   0  0  0  0  0  0  0  0  0  0  0  0
   59.8420   34.6600   46.7110 C   0  0  0  0  0  0  0  0  0  0  0  0
   59.2181   35.1208   47.4910 H   0  0  0  0  0  0  0  0  0  0  0  0
   60.0489   35.3927   45.9171 H   0  0  0  0  0  0  0  0  0  0  0  0
   61.1420   34.2080   47.3160 C   0  0  0  0  0  0  0  0  0  0  0  0
   62.2180   33.8440   46.4920 C   0  0  0  0  0  0  0  0  0  0  0  0
   62.0995   33.8624   45.3986 H   0  0  0  0  0  0  0  0  0  0  0  0
   63.4400   33.4580   47.0520 C   0  0  0  0  0  0  0  0  0  0  0  0
   64.2744   33.1651   46.3979 H   0  0  0  0  0  0  0  0  0  0  0  0
   63.6060   33.4430   48.4500 C   0  0  0  0  0  0  0  0  0  0  0  0
   64.8100   33.0640   49.0610 O   0  0  0  0  0  0  0  0  0  0  0  0
   64.9120   32.1120   50.1160 C   0  0  0  0  0  0  0  0  0  0  0  0
   64.8564   32.6306   51.0845 H   0  0  0  0  0  0  0  0  0  0  0  0
   64.0861   31.3895   50.0390 H   0  0  0  0  0  0  0  0  0  0  0  0
   65.8722   31.5809   50.0390 H   0  0  0  0  0  0  0  0  0  0  0  0
   62.5350   33.8190   49.2690 C   0  0  0  0  0  0  0  0  0  0  0  0
   62.6555   33.8108   50.3624 H   0  0  0  0  0  0  0  0  0  0  0  0
   61.3130   34.2050   48.7090 C   0  0  0  0  0  0  0  0  0  0  0  0
   60.4821   34.5076   49.3633 H   0  0  0  0  0  0  0  0  0  0  0  0
   57.5280   33.5280   45.5630 S   0  0  0  0  0  0  0  0  0  0  0  0
   57.7800   26.5830   44.1080 C   0  0  0  0  0  0  0  0  0  0  0  0
   58.1363   26.9785   43.1454 H   0  0  0  0  0  0  0  0  0  0  0  0
   57.6850   25.2010   44.3020 C   0  0  0  0  0  0  0  0  0  0  0  0
   57.9559   24.5127   43.4878 H   0  0  0  0  0  0  0  0  0  0  0  0
  1  2  1  0
  2  3  2  0
  3  4  1  0
  3  5  1  0
  5  6  1  0
  5  7  2  0
  7  8  1  0
  8  9  1  0
  8 10  1  0
 10 11  2  0
 10 12  1  0
 12 13  2  0
 13 14  1  0
 14 15  1  0
 15 16  2  0
 16 17  1  0
 17 18  1  0
 17 19  1  0
 17 20  1  0
 20 21  2  0
 21 22  1  0
 21 23  1  0
 23 24  1  0
 23 25  2  0
 25 26  1  0
 26 27  1  0
 27 28  1  0
 27 29  1  0
 27 30  1  0
 25 31  1  0
 31 32  1  0
 31 33  2  0
 33 34  1  0
 16 35  1  0
  7 36  1  0
 36 37  1  0
 36 38  2  0
 38 39  1  0
 38  2  1  0
 35 13  1  0
 33 20  1  0
M  CHG  1  14  -1
M  END
>  <UniqueID>  (32) 
32

>  <SMILES>  (32) 
COc1ccc(Cc2n[n-]/c(=N\C(=O)Nc3ccccc3)s2)cc1

>  <Energy>  (32) 
81.78598590803459

>  <Genealogy>  (32) 
COc1ccc(Cc2n[n-]c(=NC(=O)Nc3ccccc3)s2)cc1 (protonated)
COc1ccc(Cc2n[n-]/c(=N\C(=O)Nc3ccccc3)s2)cc1 (cis-trans isomerization)
COc1ccc(Cc2n[n-]/c(=N\C(=O)Nc3ccccc3)s2)cc1 (3D coordinates assigned)
COc1ccc(Cc2n[n-]/c(=N\C(=O)Nc3ccccc3)s2)cc1 (optimized conformer: 81.78598590803459 kcal/mol)

>  <smiles>  (32) 
COc1ccc(Cc2n[nH]c(=NC(=O)Nc3ccccc3)s2)cc1

>  <score_type>  (32) 
oracle

>  <origin>  (32) 
adg

>  <m_score__min__energy>  (32) 
-10.039999999999999

>  <m_primary>  (32) 
energy

$$$$
32:0
     RDKit          3D

 59 62  0  0  0  0  0  0  0  0999 V2000
   66.5610   33.0180   50.2910 C   0  0  0  0  0  0  0  0  0  0  0  0
   65.4240   33.4400   49.5450 O   0  0  0  0  0  0  0  0  0  0  0  0
   64.3000   32.6410   49.2920 C   0  0  0  0  0  0  0  0  0  0  0  0
   63.8390   31.8000   50.3090 C   0  0  0  0  0  0  0  0  0  0  0  0
   62.7280   30.9780   50.1030 C   0  0  0  0  0  0  0  0  0  0  0  0
   62.0650   30.9760   48.8660 C   0  0  0  0  0  0  0  0  0  0  0  0
   60.9060   30.0850   48.6600 C   0  0  0  0  0  0  0  0  0  0  0  0
   60.3500   29.8580   47.4530 N   0  0  0  0  0  0  0  0  0  0  0  0
   59.3100   29.0430   47.7330 C   0  0  0  0  0  0  0  0  0  0  0  0
   58.4060   28.4910   46.7180 C   0  0  0  0  0  0  0  0  0  0  0  0
   58.4490   27.2570   46.4620 O   0  0  0  0  0  0  0  0  0  0  0  0
   57.5000   29.3410   46.0020 N   0  0  0  0  0  0  0  0  0  0  0  0
   56.7500   28.8420   44.8530 C   0  0  0  0  0  0  0  0  0  0  0  0
   56.1770   29.9670   44.0480 C   0  0  0  0  0  0  0  0  0  0  0  0
   55.5250   29.7190   42.9980 O   0  0  0  0  0  0  0  0  0  0  0  0
   56.3100   31.3120   44.5130 N   0  0  0  0  0  0  0  0  0  0  0  0
   57.5390   32.0860   44.3850 C   0  0  0  0  0  0  0  0  0  0  0  0
   57.3870   33.4480   45.0550 C   0  0  0  0  0  0  0  0  0  0  0  0
   58.2750   33.5480   46.2670 C   0  0  0  0  0  0  0  0  0  0  0  0
   59.2840   34.5210   46.3300 C   0  0  0  0  0  0  0  0  0  0  0  0
   60.0920   34.6290   47.4660 C   0  0  0  0  0  0  0  0  0  0  0  0
   59.8940   33.7740   48.5490 C   0  0  0  0  0  0  0  0  0  0  0  0
   58.8840   32.8110   48.5000 C   0  0  0  0  0  0  0  0  0  0  0  0
   58.0730   32.6990   47.3650 C   0  0  0  0  0  0  0  0  0  0  0  0
   59.1970   28.7820   49.0170 O   0  0  0  0  0  0  0  0  0  0  0  0
   60.1690   29.4150   49.6210 C   0  0  0  0  0  0  0  0  0  0  0  0
   60.4060   29.4100   51.3980 S   0  0  0  0  0  0  0  0  0  0  0  0
   59.3800   30.8620   51.6300 C   0  0  0  0  0  0  0  0  0  0  0  0
   57.9840   30.7520   51.5740 C   0  0  0  0  0  0  0  0  0  0  0  0
   57.1850   31.8860   51.7530 C   0  0  0  0  0  0  0  0  0  0  0  0
   57.7760   33.1300   51.9890 C   0  0  0  0  0  0  0  0  0  0  0  0
   59.1700   33.2430   52.0410 C   0  0  0  0  0  0  0  0  0  0  0  0
   59.9720   32.1100   51.8620 C   0  0  0  0  0  0  0  0  0  0  0  0
   62.5120   31.8380   47.8510 C   0  0  0  0  0  0  0  0  0  0  0  0
   63.6230   32.6600   48.0580 C   0  0  0  0  0  0  0  0  0  0  0  0
   66.3444   33.0984   51.3665 H   0  0  0  0  0  0  0  0  0  0  0  0
   66.7960   31.9728   50.0414 H   0  0  0  0  0  0  0  0  0  0  0  0
   67.4210   33.6568   50.0414 H   0  0  0  0  0  0  0  0  0  0  0  0
   64.3555   31.7852   51.2801 H   0  0  0  0  0  0  0  0  0  0  0  0
   62.3707   30.3283   50.9156 H   0  0  0  0  0  0  0  0  0  0  0  0
   57.4280   30.3460   46.2780 H   0  0  0  0  0  0  0  0  0  0  0  0
   57.4233   28.2511   44.2147 H   0  0  0  0  0  0  0  0  0  0  0  0
   55.9204   28.2214   45.2225 H   0  0  0  0  0  0  0  0  0  0  0  0
   58.3634   31.5374   44.8639 H   0  0  0  0  0  0  0  0  0  0  0  0
   57.7533   32.2378   43.3168 H   0  0  0  0  0  0  0  0  0  0  0  0
   57.6639   34.2355   44.3387 H   0  0  0  0  0  0  0  0  0  0  0  0
   56.3410   33.5708   45.3724 H   0  0  0  0  0  0  0  0  0  0  0  0
   59.4402   35.2027   45.4809 H   0  0  0  0  0  0  0  0  0  0  0  0
   60.8853   35.3900   47.5052 H   0  0  0  0  0  0  0  0  0  0  0  0
   60.5324   33.8578   49.4409 H   0  0  0  0  0  0  0  0  0  0  0  0
   58.7254   32.1385   49.3559 H   0  0  0  0  0  0  0  0  0  0  0  0
   57.2747   31.9428   47.3339 H   0  0  0  0  0  0  0  0  0  0  0  0
   57.5165   29.7736   51.3892 H   0  0  0  0  0  0  0  0  0  0  0  0
   56.0894   31.7984   51.7079 H   0  0  0  0  0  0  0  0  0  0  0  0
   57.1460   34.0200   52.1338 H   0  0  0  0  0  0  0  0  0  0  0  0
   59.6356   34.2229   52.2227 H   0  0  0  0  0  0  0  0  0  0  0  0
   61.0676   32.1997   51.9035 H   0  0  0  0  0  0  0  0  0  0  0  0
   61.9839   31.8662   46.8865 H   0  0  0  0  0  0  0  0  0  0  0  0
   63.9700   33.3247   47.2532 H   0  0  0  0  0  0  0  0  0  0  0  0
  1  2  1  0
  2  3  1  0
  3  4  2  0
  4  5  1  0
  5  6  2  0
  6  7  1  0
  7  8  1  0
  8  9  2  0
  9 10  1  0
 10 11  2  0
 10 12  1  0
 12 13  1  0
 13 14  1  0
 14 15  2  0
 14 16  1  0
 16 17  1  0
 17 18  1  0
 18 19  1  0
 19 20  2  0
 20 21  1  0
 21 22  2  0
 22 23  1  0
 23 24  2  0
  9 25  1  0
 25 26  1  0
 26 27  1  0
 27 28  1  0
 28 29  2  0
 29 30  1  0
 30 31  2  0
 31 32  1  0
 32 33  2  0
  6 34  1  0
 34 35  2  0
 35  3  1  0
 26  7  2  0
 33 28  1  0
 24 19  1  0
  1 36  1  0
  1 37  1  0
  1 38  1  0
  4 39  1  0
  5 40  1  0
 12 41  1  0
 13 42  1  0
 13 43  1  0
 17 44  1  0
 17 45  1  0
 18 46  1  0
 18 47  1  0
 20 48  1  0
 21 49  1  0
 22 50  1  0
 23 51  1  0
 24 52  1  0
 29 53  1  0
 30 54  1  0
 31 55  1  0
 32 56  1  0
 33 57  1  0
 34 58  1  0
 35 59  1  0
M  CHG  1  16  -1
M  END
>  <UniqueID>  (33) 
33

>  <SMILES>  (33) 
COc1ccc(-c2nc(C(=O)NCC(=O)[N-]CCc3ccccc3)oc2Sc2ccccc2)cc1

>  <Energy>  (33) 
83.73570894145645

>  <Genealogy>  (33) 
COc1ccc(-c2nc(C(=O)NCC(=O)[N-]CCc3ccccc3)oc2Sc2ccccc2)cc1 (protonated)
COc1ccc(-c2nc(C(=O)NCC(=O)[N-]CCc3ccccc3)oc2Sc2ccccc2)cc1 (3D coordinates assigned)
COc1ccc(-c2nc(C(=O)NCC(=O)[N-]CCc3ccccc3)oc2Sc2ccccc2)cc1 (optimized conformer: 83.73570894145645 kcal/mol)

>  <smiles>  (33) 
COc1ccc(-c2nc(C(=O)NCC(=O)NCCc3ccccc3)oc2Sc2ccccc2)cc1

>  <score_type>  (33) 
oracle

>  <origin>  (33) 
adg

>  <m_score__min__energy>  (33) 
-10.800000000000001

>  <m_primary>  (33) 
energy

$$$$
33:0
     RDKit          3D

 42 43  0  0  0  0  0  0  0  0999 V2000
   57.5035   31.5078   42.3941 H   0  0  0  0  0  0  0  0  0  0  0  0
   57.7650   31.8420   43.4090 C   0  0  0  0  0  0  0  0  0  0  0  0
   58.3390   33.1010   43.5990 C   0  0  0  0  0  0  0  0  0  0  0  0
   58.5307   33.7497   42.7316 H   0  0  0  0  0  0  0  0  0  0  0  0
   58.6730   33.5450   44.8870 C   0  0  0  0  0  0  0  0  0  0  0  0
   59.2890   34.9050   45.0620 C   0  0  0  0  0  0  0  0  0  0  0  0
   59.3894   35.1267   46.1347 H   0  0  0  0  0  0  0  0  0  0  0  0
   60.2823   34.9212   44.5897 H   0  0  0  0  0  0  0  0  0  0  0  0
   58.6460   35.6623   44.5897 H   0  0  0  0  0  0  0  0  0  0  0  0
   58.3850   32.7220   45.9960 C   0  0  0  0  0  0  0  0  0  0  0  0
   58.6610   33.1410   47.3000 O   0  0  0  0  0  0  0  0  0  0  0  0
   59.9140   32.8770   47.9290 C   0  0  0  0  0  0  0  0  0  0  0  0
   59.6725   32.4388   48.9086 H   0  0  0  0  0  0  0  0  0  0  0  0
   60.7730   31.9400   47.0940 C   0  0  0  0  0  0  0  0  0  0  0  0
   60.5655   30.8921   47.3562 H   0  0  0  0  0  0  0  0  0  0  0  0
   60.5680   32.0479   46.0187 H   0  0  0  0  0  0  0  0  0  0  0  0
   62.2130   32.2980   47.4330 C   0  0  0  0  0  0  0  0  0  0  0  0
   62.6159   31.5891   48.1714 H   0  0  0  0  0  0  0  0  0  0  0  0
   62.8529   32.2503   46.5395 H   0  0  0  0  0  0  0  0  0  0  0  0
   62.1900   33.7100   48.0170 C   0  0  0  0  0  0  0  0  0  0  0  0
   62.6049   33.7050   49.0357 H   0  0  0  0  0  0  0  0  0  0  0  0
   62.7977   34.3974   47.4102 H   0  0  0  0  0  0  0  0  0  0  0  0
   60.7320   34.1520   48.0470 C   0  0  0  0  0  0  0  0  0  0  0  0
   60.5064   34.6664   48.9928 H   0  0  0  0  0  0  0  0  0  0  0  0
   60.5045   34.8573   47.2341 H   0  0  0  0  0  0  0  0  0  0  0  0
   57.8270   31.4530   45.7970 C   0  0  0  0  0  0  0  0  0  0  0  0
   57.6274   30.8042   46.6626 H   0  0  0  0  0  0  0  0  0  0  0  0
   57.5200   31.0010   44.5050 C   0  0  0  0  0  0  0  0  0  0  0  0
   56.9010   29.6660   44.3170 C   0  0  0  0  0  0  0  0  0  0  0  0
   57.0980   28.9760   43.0760 N   0  0  0  0  0  0  0  0  0  0  0  0
   57.7130   29.3750   42.3340 H   0  0  0  0  0  0  0  0  0  0  0  0
   56.6490   28.0490   42.9010 H   0  0  0  0  0  0  0  0  0  0  0  0
   56.1720   29.1180   45.2470 N   0  0  0  0  0  0  0  0  0  0  0  0
   55.7600   29.7180   45.9980 H   0  0  0  0  0  0  0  0  0  0  0  0
   55.9730   27.7530   45.2960 O   0  0  0  0  0  0  0  0  0  0  0  0
   56.9120   26.8950   45.9290 C   0  0  0  0  0  0  0  0  0  0  0  0
   56.3760   26.1051   46.4756 H   0  0  0  0  0  0  0  0  0  0  0  0
   57.5242   27.4782   46.6326 H   0  0  0  0  0  0  0  0  0  0  0  0
   57.8120   26.2630   44.8790 C   0  0  0  0  0  0  0  0  0  0  0  0
   58.6151   25.6990   45.3759 H   0  0  0  0  0  0  0  0  0  0  0  0
   57.2198   25.5814   44.2507 H   0  0  0  0  0  0  0  0  0  0  0  0
   58.2521   27.0514   44.2507 H   0  0  0  0  0  0  0  0  0  0  0  0
  1  2  1  0
  2  3  2  0
  3  4  1  0
  3  5  1  0
  5  6  1  0
  6  7  1  0
  6  8  1  0
  6  9  1  0
  5 10  2  0
 10 11  1  0
 11 12  1  0
 12 13  1  0
 12 14  1  0
 14 15  1  0
 14 16  1  0
 14 17  1  0
 17 18  1  0
 17 19  1  0
 17 20  1  0
 20 21  1  0
 20 22  1  0
 20 23  1  0
 23 24  1  0
 23 25  1  0
 10 26  1  0
 26 27  1  0
 26 28  2  0
 28 29  1  0
 29 30  1  0
 30 31  1  0
 30 32  1  0
 29 33  2  0
 33 34  1  0
 33 35  1  0
 35 36  1  0
 36 37  1  0
 36 38  1  0
 36 39  1  0
 39 40  1  0
 39 41  1  0
 39 42  1  0
 28  2  1  0
 23 12  1  0
M  CHG  1  33   1
M  END
>  <UniqueID>  (34) 
34

>  <SMILES>  (34) 
CCO/[NH+]=C(/N)c1ccc(C)c(OC2CCCC2)c1

>  <Energy>  (34) 
43.22558358775569

>  <Genealogy>  (34) 
CCO[NH+]=C(N)c1ccc(C)c(OC2CCCC2)c1 (protonated)
CCO/[NH+]=C(/N)c1ccc(C)c(OC2CCCC2)c1 (cis-trans isomerization)
CCO/[NH+]=C(/N)c1ccc(C)c(OC2CCCC2)c1 (3D coordinates assigned)
CCO/[NH+]=C(/N)c1ccc(C)c(OC2CCCC2)c1 (nonaromatic ring conformer: 43.22558358775569 kcal/mol)

>  <smiles>  (34) 
CCON=C(N)c1ccc(C)c(OC2CCCC2)c1

>  <score_type>  (34) 
oracle

>  <origin>  (34) 
adg

>  <m_score__min__energy>  (34) 
-6.2999999999999998

>  <m_primary>  (34) 
energy

$$$$
34:0
     RDKit          3D

 40 42  0  0  0  0  0  0  0  0999 V2000
   56.9892   21.7746   42.2735 H   0  0  0  0  0  0  0  0  0  0  0  0
   56.9810   22.4120   43.1700 C   0  0  0  0  0  0  0  0  0  0  0  0
   55.8400   23.5960   43.5240 S   0  0  0  0  0  0  0  0  0  0  0  0
   56.5290   24.0690   44.9820 C   0  0  0  0  0  0  0  0  0  0  0  0
   55.8730   25.2940   46.0540 S   0  0  0  0  0  0  0  0  0  0  0  0
   55.8930   24.7710   47.4620 O   0  0  0  0  0  0  0  0  0  0  0  0
   54.4500   25.5900   45.6710 O   0  0  0  0  0  0  0  0  0  0  0  0
   56.8200   26.7490   45.9670 N   0  0  0  0  0  0  0  0  0  0  0  0
   56.5550   27.3310   46.7940 H   0  0  0  0  0  0  0  0  0  0  0  0
   58.2430   26.4200   46.0790 C   0  0  0  0  0  0  0  0  0  0  0  0
   58.4382   25.4665   45.5665 H   0  0  0  0  0  0  0  0  0  0  0  0
   58.5116   26.3330   47.1421 H   0  0  0  0  0  0  0  0  0  0  0  0
   59.0840   27.5210   45.4370 C   0  0  0  0  0  0  0  0  0  0  0  0
   59.8305   27.0659   44.7694 H   0  0  0  0  0  0  0  0  0  0  0  0
   59.5890   28.0951   46.2278 H   0  0  0  0  0  0  0  0  0  0  0  0
   58.2260   28.4250   44.6610 N   0  0  0  0  0  0  0  0  0  0  0  0
   57.8510   29.5760   45.2270 N   0  0  0  0  0  0  0  0  0  0  0  0
   57.0220   30.4580   44.6060 C   0  0  0  0  0  0  0  0  0  0  0  0
   56.6850   31.5830   45.1670 N   0  0  0  0  0  0  0  0  0  0  0  0
   57.5630   32.6660   45.5200 C   0  0  0  0  0  0  0  0  0  0  0  0
   57.8090   33.0230   46.8610 C   0  0  0  0  0  0  0  0  0  0  0  0
   57.3439   32.4485   47.6757 H   0  0  0  0  0  0  0  0  0  0  0  0
   58.6430   34.1060   47.1590 C   0  0  0  0  0  0  0  0  0  0  0  0
   58.8433   34.3723   48.2073 H   0  0  0  0  0  0  0  0  0  0  0  0
   59.2220   34.8500   46.1280 C   0  0  0  0  0  0  0  0  0  0  0  0
   60.0290   35.9000   46.4200 F   0  0  0  0  0  0  0  0  0  0  0  0
   58.9570   34.5200   44.7960 C   0  0  0  0  0  0  0  0  0  0  0  0
   59.4060   35.1108   43.9840 H   0  0  0  0  0  0  0  0  0  0  0  0
   58.1220   33.4400   44.4940 C   0  0  0  0  0  0  0  0  0  0  0  0
   57.9023   33.1962   43.4441 H   0  0  0  0  0  0  0  0  0  0  0  0
   56.5600   30.1640   43.3240 C   0  0  0  0  0  0  0  0  0  0  0  0
   55.9096   30.8731   42.7910 H   0  0  0  0  0  0  0  0  0  0  0  0
   56.9310   28.9630   42.7260 C   0  0  0  0  0  0  0  0  0  0  0  0
   56.5669   28.7079   41.7198 H   0  0  0  0  0  0  0  0  0  0  0  0
   57.7690   28.0860   43.4150 C   0  0  0  0  0  0  0  0  0  0  0  0
   58.0930   26.9900   42.8810 O   0  0  0  0  0  0  0  0  0  0  0  0
   57.6580   23.3010   45.2210 C   0  0  0  0  0  0  0  0  0  0  0  0
   58.2878   23.4078   46.1165 H   0  0  0  0  0  0  0  0  0  0  0  0
   57.9120   22.3750   44.2020 C   0  0  0  0  0  0  0  0  0  0  0  0
   58.7674   21.6835   44.2165 H   0  0  0  0  0  0  0  0  0  0  0  0
  1  2  1  0
  2  3  1  0
  3  4  1  0
  4  5  1  0
  5  6  2  0
  5  7  2  0
  5  8  1  0
  8  9  1  0
  8 10  1  0
 10 11  1  0
 10 12  1  0
 10 13  1  0
 13 14  1  0
 13 15  1  0
 13 16  1  0
 16 17  1  0
 17 18  1  0
 18 19  2  0
 19 20  1  0
 20 21  2  0
 21 22  1  0
 21 23  1  0
 23 24  1  0
 23 25  2  0
 25 26  1  0
 25 27  1  0
 27 28  1  0
 27 29  2  0
 29 30  1  0
 18 31  1  0
 31 32  1  0
 31 33  2  0
 33 34  1  0
 33 35  1  0
 35 36  2  0
  4 37  2  0
 37 38  1  0
 37 39  1  0
 39 40  1  0
 39  2  2  0
 35 16  1  0
 29 20  1  0
M  CHG  1  17  -1
M  END
>  <UniqueID>  (35) 
35

>  <SMILES>  (35) 
O=c1cc/c(=N/c2ccc(F)cc2)[n-]n1CCNS(=O)(=O)c1cccs1

>  <Energy>  (35) 
70.8523048708708

>  <Genealogy>  (35) 
O=c1ccc(=Nc2ccc(F)cc2)[n-]n1CCNS(=O)(=O)c1cccs1 (protonated)
O=c1cc/c(=N/c2ccc(F)cc2)[n-]n1CCNS(=O)(=O)c1cccs1 (cis-trans isomerization)
O=c1cc/c(=N/c2ccc(F)cc2)[n-]n1CCNS(=O)(=O)c1cccs1 (3D coordinates assigned)
O=c1cc/c(=N/c2ccc(F)cc2)[n-]n1CCNS(=O)(=O)c1cccs1 (optimized conformer: 70.8523048708708 kcal/mol)

>  <smiles>  (35) 
O=c1ccc(=Nc2ccc(F)cc2)[nH]n1CCNS(=O)(=O)c1cccs1

>  <score_type>  (35) 
oracle

>  <origin>  (35) 
adg

>  <m_score__min__energy>  (35) 
-9.8699999999999992

>  <m_primary>  (35) 
energy

$$$$
35:0
     RDKit          3D

 44 46  0  0  0  0  0  0  0  0999 V2000
   56.3440   23.0010   42.9980 C   0  0  0  0  0  0  0  0  0  0  0  0
   56.5380   24.1450   43.7990 O   0  0  0  0  0  0  0  0  0  0  0  0
   57.6400   23.9580   44.6700 C   0  0  0  0  0  0  0  0  0  0  0  0
   58.1580   25.3060   45.1840 C   0  0  0  0  0  0  0  0  0  0  0  0
   57.6380   26.4190   44.3840 N   0  0  0  0  0  0  0  0  0  0  0  0
   57.9420   27.7980   44.6660 C   0  0  0  0  0  0  0  0  0  0  0  0
   59.2310   28.1360   45.1540 C   0  0  0  0  0  0  0  0  0  0  0  0
   59.5650   29.4700   45.4480 C   0  0  0  0  0  0  0  0  0  0  0  0
   58.5910   30.4410   45.2440 C   0  0  0  0  0  0  0  0  0  0  0  0
   58.6840   31.7590   45.4730 N   0  0  0  0  0  0  0  0  0  0  0  0
   57.4500   32.2010   45.1220 C   0  0  0  0  0  0  0  0  0  0  0  0
   56.9610   33.9170   45.2670 S   0  0  0  0  0  0  0  0  0  0  0  0
   58.6430   34.5750   44.9870 C   0  0  0  0  0  0  0  0  0  0  0  0
   59.5200   34.3530   46.1900 C   0  0  0  0  0  0  0  0  0  0  0  0
   59.0150   34.5620   47.4830 C   0  0  0  0  0  0  0  0  0  0  0  0
   59.8390   34.3860   48.5960 C   0  0  0  0  0  0  0  0  0  0  0  0
   61.1730   34.0060   48.4300 C   0  0  0  0  0  0  0  0  0  0  0  0
   61.7030   33.8050   47.1420 C   0  0  0  0  0  0  0  0  0  0  0  0
   63.1170   33.4020   46.9480 C   0  0  0  0  0  0  0  0  0  0  0  0
   63.7560   32.4730   47.8270 N   0  0  0  0  0  0  0  0  0  0  0  0
   63.7820   33.8970   45.9980 O   0  0  0  0  0  0  0  0  0  0  0  0
   60.8610   33.9740   46.0260 C   0  0  0  0  0  0  0  0  0  0  0  0
   56.6000   31.2350   44.6870 N   0  0  0  0  0  0  0  0  0  0  0  0
   57.3520   30.1300   44.7770 C   0  0  0  0  0  0  0  0  0  0  0  0
   56.9820   28.8230   44.4740 C   0  0  0  0  0  0  0  0  0  0  0  0
   56.1950   22.1226   43.6432 H   0  0  0  0  0  0  0  0  0  0  0  0
   55.4573   23.1441   42.3630 H   0  0  0  0  0  0  0  0  0  0  0  0
   57.2283   22.8438   42.3630 H   0  0  0  0  0  0  0  0  0  0  0  0
   57.3241   23.3425   45.5252 H   0  0  0  0  0  0  0  0  0  0  0  0
   58.4474   23.4561   44.1167 H   0  0  0  0  0  0  0  0  0  0  0  0
   57.8398   25.4369   46.2288 H   0  0  0  0  0  0  0  0  0  0  0  0
   59.2553   25.3074   45.1071 H   0  0  0  0  0  0  0  0  0  0  0  0
   57.0100   26.2100   43.5750 H   0  0  0  0  0  0  0  0  0  0  0  0
   59.9791   27.3437   45.3043 H   0  0  0  0  0  0  0  0  0  0  0  0
   60.5629   29.7362   45.8265 H   0  0  0  0  0  0  0  0  0  0  0  0
   59.0879   34.0658   44.1194 H   0  0  0  0  0  0  0  0  0  0  0  0
   58.5684   35.6572   44.8045 H   0  0  0  0  0  0  0  0  0  0  0  0
   57.9665   34.8655   47.6196 H   0  0  0  0  0  0  0  0  0  0  0  0
   59.4366   34.5471   49.6070 H   0  0  0  0  0  0  0  0  0  0  0  0
   61.8138   33.8629   49.3125 H   0  0  0  0  0  0  0  0  0  0  0  0
   64.7360   32.1650   47.6360 H   0  0  0  0  0  0  0  0  0  0  0  0
   63.3030   32.1480   48.7090 H   0  0  0  0  0  0  0  0  0  0  0  0
   61.2591   33.8070   45.0142 H   0  0  0  0  0  0  0  0  0  0  0  0
   55.9748   28.5924   44.0968 H   0  0  0  0  0  0  0  0  0  0  0  0
  1  2  1  0
  2  3  1  0
  3  4  1  0
  4  5  1  0
  5  6  1  0
  6  7  2  0
  7  8  1  0
  8  9  2  0
  9 10  1  0
 10 11  1  0
 11 12  1  0
 12 13  1  0
 13 14  1  0
 14 15  2  0
 15 16  1  0
 16 17  2  0
 17 18  1  0
 18 19  1  0
 19 20  1  0
 19 21  2  0
 18 22  2  0
 11 23  2  0
 23 24  1  0
 24 25  2  0
 25  6  1  0
 24  9  1  0
 22 14  1  0
  1 26  1  0
  1 27  1  0
  1 28  1  0
  3 29  1  0
  3 30  1  0
  4 31  1  0
  4 32  1  0
  5 33  1  0
  7 34  1  0
  8 35  1  0
 13 36  1  0
 13 37  1  0
 15 38  1  0
 16 39  1  0
 17 40  1  0
 20 41  1  0
 20 42  1  0
 22 43  1  0
 25 44  1  0
M  CHG  1  10  -1
M  END
>  <UniqueID>  (36) 
36

>  <SMILES>  (36) 
COCCNc1ccc2[n-]c(SCc3cccc(C(N)=O)c3)nc2c1

>  <Energy>  (36) 
76.4584249963352

>  <Genealogy>  (36) 
COCCNc1ccc2[n-]c(SCc3cccc(C(N)=O)c3)nc2c1 (protonated)
COCCNc1ccc2[n-]c(SCc3cccc(C(N)=O)c3)nc2c1 (3D coordinates assigned)
COCCNc1ccc2[n-]c(SCc3cccc(C(N)=O)c3)nc2c1 (optimized conformer: 76.4584249963352 kcal/mol)

>  <smiles>  (36) 
COCCNc1ccc2[nH]c(SCc3cccc(C(N)=O)c3)nc2c1

>  <score_type>  (36) 
oracle

>  <origin>  (36) 
adg

>  <m_score__min__energy>  (36) 
-10.26

>  <m_primary>  (36) 
energy

$$$$
36:0
     RDKit          3D

 55 58  0  0  0  0  0  0  0  0999 V2000
   59.2710   34.8880   45.0610 C   0  0  0  0  0  0  0  0  0  0  0  0
   59.6200   35.0190   46.5410 C   0  0  0  0  0  0  0  0  0  0  0  0
   58.8010   34.0740   47.4520 C   0  0  0  0  0  0  0  0  0  0  0  0
   58.9100   32.5180   47.2150 C   0  0  1  0  0  0  0  0  0  0  0  0
   57.8460   31.9860   46.2480 C   0  0  0  0  0  0  0  0  0  0  0  0
   56.9680   32.7750   45.8090 O   0  0  0  0  0  0  0  0  0  0  0  0
   57.7620   30.6160   45.8230 N   0  0  0  0  0  0  0  0  0  0  0  0
   56.7850   29.8610   44.5940 S   0  0  0  0  0  0  0  0  0  0  0  0
   55.9250   28.8070   45.2460 O   0  0  0  0  0  0  0  0  0  0  0  0
   55.8720   30.8470   43.9190 O   0  0  0  0  0  0  0  0  0  0  0  0
   57.8220   29.1400   43.3920 N   0  0  0  0  0  0  0  0  0  0  0  0
   57.9730   27.6880   43.5890 C   0  0  0  0  0  0  0  0  0  0  0  0
   58.5340   27.3580   44.9520 C   0  0  0  0  0  0  0  0  0  0  0  0
   59.8300   27.7750   45.3050 C   0  0  0  0  0  0  0  0  0  0  0  0
   60.3350   27.5060   46.5820 C   0  0  0  0  0  0  0  0  0  0  0  0
   59.5500   26.8260   47.5140 C   0  0  0  0  0  0  0  0  0  0  0  0
   58.2610   26.4050   47.1690 C   0  0  0  0  0  0  0  0  0  0  0  0
   57.7550   26.6640   45.8920 C   0  0  0  0  0  0  0  0  0  0  0  0
   60.2210   32.2520   46.6910 O   0  0  0  0  0  0  0  0  0  0  0  0
   60.5570   30.8650   46.6600 C   0  0  0  0  0  0  0  0  0  0  0  0
   60.7490   30.3060   48.0820 C   0  0  0  0  0  0  0  0  0  0  0  0
   59.6140   30.7740   48.9240 C   0  0  0  0  0  0  0  0  0  0  0  0
   58.7830   31.8120   48.5630 C   0  0  0  0  0  0  0  0  0  0  0  0
   57.8520   32.0390   49.5240 N   0  0  0  0  0  0  0  0  0  0  0  0
   58.1250   31.1550   50.5030 C   0  0  0  0  0  0  0  0  0  0  0  0
   57.4580   31.0080   51.7200 C   0  0  0  0  0  0  0  0  0  0  0  0
   57.9270   30.0260   52.6140 C   0  0  0  0  0  0  0  0  0  0  0  0
   59.0410   29.2220   52.2760 C   0  0  0  0  0  0  0  0  0  0  0  0
   59.6950   29.3900   51.0390 C   0  0  0  0  0  0  0  0  0  0  0  0
   59.2030   30.3670   50.1750 C   0  0  0  0  0  0  0  0  0  0  0  0
   58.2456   34.5031   44.9587 H   0  0  0  0  0  0  0  0  0  0  0  0
   59.3423   35.8741   44.5788 H   0  0  0  0  0  0  0  0  0  0  0  0
   59.9735   34.1924   44.5788 H   0  0  0  0  0  0  0  0  0  0  0  0
   60.6878   34.7878   46.6691 H   0  0  0  0  0  0  0  0  0  0  0  0
   59.3784   36.0492   46.8414 H   0  0  0  0  0  0  0  0  0  0  0  0
   59.1166   34.2675   48.4878 H   0  0  0  0  0  0  0  0  0  0  0  0
   57.7537   34.3100   47.2123 H   0  0  0  0  0  0  0  0  0  0  0  0
   57.3910   29.3070   42.4540 H   0  0  0  0  0  0  0  0  0  0  0  0
   58.7560   29.6140   43.4120 H   0  0  0  0  0  0  0  0  0  0  0  0
   56.9872   27.2110   43.4856 H   0  0  0  0  0  0  0  0  0  0  0  0
   58.6773   27.3134   42.8316 H   0  0  0  0  0  0  0  0  0  0  0  0
   60.4495   28.3151   44.5739 H   0  0  0  0  0  0  0  0  0  0  0  0
   61.3509   27.8306   46.8512 H   0  0  0  0  0  0  0  0  0  0  0  0
   59.9446   26.6209   48.5201 H   0  0  0  0  0  0  0  0  0  0  0  0
   57.6440   25.8686   47.9049 H   0  0  0  0  0  0  0  0  0  0  0  0
   56.7443   26.3234   45.6228 H   0  0  0  0  0  0  0  0  0  0  0  0
   59.7472   30.3108   46.1630 H   0  0  0  0  0  0  0  0  0  0  0  0
   61.5021   30.7480   46.1095 H   0  0  0  0  0  0  0  0  0  0  0  0
   60.7610   29.2065   48.0512 H   0  0  0  0  0  0  0  0  0  0  0  0
   61.7032   30.6568   48.5021 H   0  0  0  0  0  0  0  0  0  0  0  0
   57.0970   32.7630   49.5290 H   0  0  0  0  0  0  0  0  0  0  0  0
   56.5933   31.6391   51.9730 H   0  0  0  0  0  0  0  0  0  0  0  0
   57.4237   29.8831   53.5816 H   0  0  0  0  0  0  0  0  0  0  0  0
   59.3993   28.4601   52.9840 H   0  0  0  0  0  0  0  0  0  0  0  0
   60.5629   28.7721   50.7650 H   0  0  0  0  0  0  0  0  0  0  0  0
  1  2  1  0
  2  3  1  0
  4  3  1  1
  4  5  1  0
  5  6  2  0
  5  7  1  0
  7  8  1  0
  8  9  2  0
  8 10  2  0
  8 11  1  0
 11 12  1  0
 12 13  1  0
 13 14  2  0
 14 15  1  0
 15 16  2  0
 16 17  1  0
 17 18  2  0
  4 19  1  0
 19 20  1  0
 20 21  1  0
 21 22  1  0
 22 23  2  0
 23 24  1  0
 24 25  1  0
 25 26  2  0
 26 27  1  0
 27 28  2  0
 28 29  1  0
 29 30  2  0
 23  4  1  0
 30 25  1  0
 18 13  1  0
 30 22  1  0
  1 31  1  0
  1 32  1  0
  1 33  1  0
  2 34  1  0
  2 35  1  0
  3 36  1  0
  3 37  1  0
 11 38  1  0
 11 39  1  0
 12 40  1  0
 12 41  1  0
 14 42  1  0
 15 43  1  0
 16 44  1  0
 17 45  1  0
 18 46  1  0
 20 47  1  0
 20 48  1  0
 21 49  1  0
 21 50  1  0
 24 51  1  0
 26 52  1  0
 27 53  1  0
 28 54  1  0
 29 55  1  0
M  CHG  2   7  -1  11   1
M  END
>  <UniqueID>  (37) 
37

>  <SMILES>  (37) 
CCC[C@@]1(C(=O)[N-]S(=O)(=O)[NH2+]Cc2ccccc2)OCCc2c1[nH]c1ccccc21

>  <Energy>  (37) 
109.1588796533841

>  <Genealogy>  (37) 
CCCC1(C(=O)[N-]S(=O)(=O)[NH2+]Cc2ccccc2)OCCc2c1[nH]c1ccccc21 (protonated)
CCC[C@@]1(C(=O)[N-]S(=O)(=O)[NH2+]Cc2ccccc2)OCCc2c1[nH]c1ccccc21 (chirality)
CCC[C@@]1(C(=O)[N-]S(=O)(=O)[NH2+]Cc2ccccc2)OCCc2c1[nH]c1ccccc21 (3D coordinates assigned)
CCC[C@@]1(C(=O)[N-]S(=O)(=O)[NH2+]Cc2ccccc2)OCCc2c1[nH]c1ccccc21 (nonaromatic ring conformer: 109.1588796533841 kcal/mol)

>  <smiles>  (37) 
CCCC1(C(=O)NS(=O)(=O)NCc2ccccc2)OCCc2c1[nH]c1ccccc21

>  <score_type>  (37) 
oracle

>  <origin>  (37) 
adg

>  <m_score__min__energy>  (37) 
-9.5

>  <m_primary>  (37) 
energy

$$$$
37:0
     RDKit          3D

 37 39  0  0  0  0  0  0  0  0999 V2000
   56.1578   25.2205   47.0214 H   0  0  0  0  0  0  0  0  0  0  0  0
   56.7070   26.1350   46.7530 C   0  0  0  0  0  0  0  0  0  0  0  0
   56.1030   27.0890   46.0020 N   0  0  0  0  0  0  0  0  0  0  0  0
   56.7420   28.2340   45.6440 C   0  0  0  0  0  0  0  0  0  0  0  0
   56.0790   29.1870   44.8560 C   0  0  0  0  0  0  0  0  0  0  0  0
   54.7690   28.9710   44.4470 O   0  0  0  0  0  0  0  0  0  0  0  0
   56.7350   30.3620   44.4790 C   0  0  0  0  0  0  0  0  0  0  0  0
   56.2119   31.1087   43.8636 H   0  0  0  0  0  0  0  0  0  0  0  0
   58.0520   30.5910   44.8810 C   0  0  0  0  0  0  0  0  0  0  0  0
   58.5639   31.5161   44.5774 H   0  0  0  0  0  0  0  0  0  0  0  0
   58.7230   29.6510   45.6670 C   0  0  0  0  0  0  0  0  0  0  0  0
   59.7600   29.8408   45.9810 H   0  0  0  0  0  0  0  0  0  0  0  0
   58.0780   28.4600   46.0600 C   0  0  0  0  0  0  0  0  0  0  0  0
   58.7230   27.4860   46.8590 C   0  0  0  0  0  0  0  0  0  0  0  0
   59.9590   27.6810   47.2360 N   0  0  0  0  0  0  0  0  0  0  0  0
   60.4480   27.9160   48.5660 C   0  0  0  0  0  0  0  0  0  0  0  0
   60.8750   26.6400   49.5050 S   0  0  0  0  0  0  0  0  0  0  0  0
   60.1730   29.1720   49.2030 N   0  0  0  0  0  0  0  0  0  0  0  0
   60.1080   29.1960   50.2460 H   0  0  0  0  0  0  0  0  0  0  0  0
   59.8970   30.3840   48.4800 C   0  0  0  0  0  0  0  0  0  0  0  0
   58.6660   31.0310   48.6660 C   0  0  0  0  0  0  0  0  0  0  0  0
   57.9226   30.6036   49.3550 H   0  0  0  0  0  0  0  0  0  0  0  0
   58.3780   32.2160   47.9810 C   0  0  0  0  0  0  0  0  0  0  0  0
   57.4039   32.7074   48.1212 H   0  0  0  0  0  0  0  0  0  0  0  0
   59.3260   32.7790   47.1170 C   0  0  0  0  0  0  0  0  0  0  0  0
   58.9570   34.2590   46.2380 S   0  0  0  0  0  0  0  0  0  0  0  0
   59.8460   34.3690   45.0310 O   0  0  0  0  0  0  0  0  0  0  0  0
   59.1960   35.4500   47.1220 O   0  0  0  0  0  0  0  0  0  0  0  0
   57.3030   34.2390   45.7350 N   0  0  0  0  0  0  0  0  0  0  0  0
   56.7210   34.1850   46.6020 H   0  0  0  0  0  0  0  0  0  0  0  0
   57.1530   33.3430   45.2170 H   0  0  0  0  0  0  0  0  0  0  0  0
   60.5630   32.1450   46.9410 C   0  0  0  0  0  0  0  0  0  0  0  0
   61.3099   32.5809   46.2611 H   0  0  0  0  0  0  0  0  0  0  0  0
   60.8520   30.9620   47.6250 C   0  0  0  0  0  0  0  0  0  0  0  0
   61.8320   30.4799   47.4941 H   0  0  0  0  0  0  0  0  0  0  0  0
   58.0220   26.3080   47.1870 C   0  0  0  0  0  0  0  0  0  0  0  0
   58.5114   25.5251   47.7850 H   0  0  0  0  0  0  0  0  0  0  0  0
  1  2  1  0
  2  3  1  0
  3  4  1  0
  4  5  2  0
  5  6  1  0
  5  7  1  0
  7  8  1  0
  7  9  2  0
  9 10  1  0
  9 11  1  0
 11 12  1  0
 11 13  2  0
 13 14  1  0
 14 15  2  0
 15 16  1  0
 16 17  2  0
 16 18  1  0
 18 19  1  0
 18 20  1  0
 20 21  2  0
 21 22  1  0
 21 23  1  0
 23 24  1  0
 23 25  2  0
 25 26  1  0
 26 27  2  0
 26 28  2  0
 26 29  1  0
 29 30  1  0
 29 31  1  0
 25 32  1  0
 32 33  1  0
 32 34  2  0
 34 35  1  0
 14 36  1  0
 36 37  1  0
 36  2  2  0
 13  4  1  0
 34 20  1  0
M  CHG  2   3  -1   6  -1
M  END
>  <UniqueID>  (38) 
38

>  <SMILES>  (38) 
NS(=O)(=O)c1ccc(NC(=S)/N=c2\cc[n-]c3c([O-])cccc23)cc1

>  <Energy>  (38) 
55.22471194646346

>  <Genealogy>  (38) 
NS(=O)(=O)c1ccc(NC(=S)N=c2cc[n-]c3c([O-])cccc23)cc1 (protonated)
NS(=O)(=O)c1ccc(NC(=S)/N=c2\cc[n-]c3c([O-])cccc23)cc1 (cis-trans isomerization)
NS(=O)(=O)c1ccc(NC(=S)/N=c2\cc[n-]c3c([O-])cccc23)cc1 (3D coordinates assigned)
NS(=O)(=O)c1ccc(NC(=S)/N=c2\cc[n-]c3c([O-])cccc23)cc1 (optimized conformer: 55.22471194646346 kcal/mol)

>  <smiles>  (38) 
NS(=O)(=O)c1ccc(NC(=S)N=c2cc[nH]c3c(O)cccc23)cc1

>  <score_type>  (38) 
oracle

>  <origin>  (38) 
adg

>  <m_score__min__energy>  (38) 
-13.6

>  <m_primary>  (38) 
energy

$$$$
38:0
     RDKit          3D

 24 25  0  0  0  0  0  0  0  0999 V2000
   55.1530   29.3290   44.8630 N   0  0  0  0  0  0  0  0  0  0  0  0
   56.3260   30.0820   44.5660 C   0  0  0  0  0  0  0  0  0  0  0  0
   56.2640   31.3370   44.4910 O   0  0  0  0  0  0  0  0  0  0  0  0
   57.6260   29.3770   44.3170 C   0  0  0  0  0  0  0  0  0  0  0  0
   58.1160   28.7330   45.5570 N   0  0  0  0  0  0  0  0  0  0  0  0
   57.5560   27.5400   45.9570 C   0  0  0  0  0  0  0  0  0  0  0  0
   56.6230   27.0090   45.2900 O   0  0  0  0  0  0  0  0  0  0  0  0
   58.0100   26.8960   47.1120 C   0  0  0  0  0  0  0  0  0  0  0  0
   57.5030   25.7970   47.4700 O   0  0  0  0  0  0  0  0  0  0  0  0
   59.0000   27.4540   47.8530 N   0  0  0  0  0  0  0  0  0  0  0  0
   59.5520   28.6430   47.5020 C   0  0  0  0  0  0  0  0  0  0  0  0
   60.5610   29.2080   48.3000 C   0  0  0  0  0  0  0  0  0  0  0  0
   61.1230   30.4370   47.9600 C   0  0  0  0  0  0  0  0  0  0  0  0
   60.6820   31.1160   46.8260 C   0  0  0  0  0  0  0  0  0  0  0  0
   59.6820   30.5680   46.0190 C   0  0  0  0  0  0  0  0  0  0  0  0
   59.1020   29.3140   46.3340 C   0  0  0  0  0  0  0  0  0  0  0  0
   55.1560   28.6100   45.6210 H   0  0  0  0  0  0  0  0  0  0  0  0
   57.4779   28.6080   43.5445 H   0  0  0  0  0  0  0  0  0  0  0  0
   58.3706   30.1143   43.9825 H   0  0  0  0  0  0  0  0  0  0  0  0
   59.3280   26.9550   48.7120 H   0  0  0  0  0  0  0  0  0  0  0  0
   60.9093   28.6772   49.1983 H   0  0  0  0  0  0  0  0  0  0  0  0
   61.9153   30.8714   48.5873 H   0  0  0  0  0  0  0  0  0  0  0  0
   61.1237   32.0889   46.5647 H   0  0  0  0  0  0  0  0  0  0  0  0
   59.3408   31.1164   45.1286 H   0  0  0  0  0  0  0  0  0  0  0  0
  1  2  1  0
  2  3  2  0
  2  4  1  0
  4  5  1  0
  5  6  1  0
  6  7  2  0
  6  8  1  0
  8  9  2  0
  8 10  1  0
 10 11  1  0
 11 12  2  0
 12 13  1  0
 13 14  2  0
 14 15  1  0
 15 16  2  0
 16  5  1  0
 16 11  1  0
  1 17  1  0
  4 18  1  0
  4 19  1  0
 10 20  1  0
 12 21  1  0
 13 22  1  0
 14 23  1  0
 15 24  1  0
M  CHG  1   1  -1
M  END
>  <UniqueID>  (39) 
39

>  <SMILES>  (39) 
[NH-]C(=O)Cn1c(=O)c(=O)[nH]c2ccccc21

>  <Energy>  (39) 
34.55894382401472

>  <Genealogy>  (39) 
[NH-]C(=O)Cn1c(=O)c(=O)[nH]c2ccccc21 (protonated)
[NH-]C(=O)Cn1c(=O)c(=O)[nH]c2ccccc21 (3D coordinates assigned)
[NH-]C(=O)Cn1c(=O)c(=O)[nH]c2ccccc21 (optimized conformer: 34.55894382401472 kcal/mol)

>  <smiles>  (39) 
NC(=O)Cn1c(=O)c(=O)[nH]c2ccccc21

>  <score_type>  (39) 
oracle

>  <origin>  (39) 
adg

>  <m_score__min__energy>  (39) 
-8.8399999999999999

>  <m_primary>  (39) 
energy

$$$$
39:0
     RDKit          3D

 60 63  0  0  0  0  0  0  0  0999 V2000
   59.1800   22.2400   44.9050 C   0  0  0  0  0  0  0  0  0  0  0  0
   57.8500   21.9780   45.6080 C   0  0  0  0  0  0  0  0  0  0  0  0
   57.6680   22.8920   46.6890 O   0  0  0  0  0  0  0  0  0  0  0  0
   56.7290   23.9310   46.6710 C   0  0  0  0  0  0  0  0  0  0  0  0
   55.6150   23.7900   47.2480 O   0  0  0  0  0  0  0  0  0  0  0  0
   57.0400   25.1890   45.9550 C   0  0  0  0  0  0  0  0  0  0  0  0
   57.5460   25.1550   44.6440 C   0  0  0  0  0  0  0  0  0  0  0  0
   57.7810   26.3420   43.9420 C   0  0  0  0  0  0  0  0  0  0  0  0
   57.5070   27.5870   44.5350 C   0  0  0  0  0  0  0  0  0  0  0  0
   57.7140   28.8180   43.8230 N   0  0  0  0  0  0  0  0  0  0  0  0
   56.7680   29.8990   43.8190 C   0  0  0  0  0  0  0  0  0  0  0  0
   55.8260   29.9260   44.6570 O   0  0  0  0  0  0  0  0  0  0  0  0
   56.8930   31.0170   42.8260 C   0  0  0  0  0  0  0  0  0  0  0  0
   58.1020   32.2980   43.3280 S   0  0  0  0  0  0  0  0  0  0  0  0
   58.5340   31.5760   44.9250 C   0  0  0  0  0  0  0  0  0  0  0  0
   59.2400   30.4160   44.9240 N   0  0  0  0  0  0  0  0  0  0  0  0
   59.5740   29.7870   46.0730 C   0  0  0  0  0  0  0  0  0  0  0  0
   60.2870   28.5820   46.0320 C   0  0  0  0  0  0  0  0  0  0  0  0
   60.6360   27.9360   47.2220 C   0  0  0  0  0  0  0  0  0  0  0  0
   60.2670   28.4820   48.4550 C   0  0  0  0  0  0  0  0  0  0  0  0
   59.5580   29.6870   48.5030 C   0  0  0  0  0  0  0  0  0  0  0  0
   59.2040   30.3470   47.3090 C   0  0  0  0  0  0  0  0  0  0  0  0
   58.4950   31.5580   47.3020 C   0  0  0  0  0  0  0  0  0  0  0  0
   58.1790   32.0980   48.4000 O   0  0  0  0  0  0  0  0  0  0  0  0
   58.1530   32.1550   46.1120 N   0  0  0  0  0  0  0  0  0  0  0  0
   57.4450   33.4530   46.1240 C   0  0  0  0  0  0  0  0  0  0  0  0
   58.4400   34.6060   45.9450 C   0  0  0  0  0  0  0  0  0  0  0  0
   59.7030   34.3430   46.7210 C   0  0  0  0  0  0  0  0  0  0  0  0
   59.7260   34.5360   48.1130 C   0  0  0  0  0  0  0  0  0  0  0  0
   60.8950   34.2810   48.8390 C   0  0  0  0  0  0  0  0  0  0  0  0
   62.0430   33.8210   48.1840 C   0  0  0  0  0  0  0  0  0  0  0  0
   62.0230   33.6110   46.8040 C   0  0  0  0  0  0  0  0  0  0  0  0
   60.8570   33.8680   46.0720 C   0  0  0  0  0  0  0  0  0  0  0  0
   57.0510   27.6200   45.8610 C   0  0  0  0  0  0  0  0  0  0  0  0
   56.8050   26.4340   46.5610 C   0  0  0  0  0  0  0  0  0  0  0  0
   59.9678   22.3952   45.6568 H   0  0  0  0  0  0  0  0  0  0  0  0
   59.4387   21.3756   44.2759 H   0  0  0  0  0  0  0  0  0  0  0  0
   59.0915   23.1380   44.2759 H   0  0  0  0  0  0  0  0  0  0  0  0
   57.0287   22.1019   44.8868 H   0  0  0  0  0  0  0  0  0  0  0  0
   57.8535   20.9524   46.0057 H   0  0  0  0  0  0  0  0  0  0  0  0
   57.7589   24.1873   44.1663 H   0  0  0  0  0  0  0  0  0  0  0  0
   58.1830   26.3010   42.9189 H   0  0  0  0  0  0  0  0  0  0  0  0
   58.6350   28.9710   43.3530 H   0  0  0  0  0  0  0  0  0  0  0  0
   57.2121   30.5940   41.8620 H   0  0  0  0  0  0  0  0  0  0  0  0
   55.9095   31.5050   42.7585 H   0  0  0  0  0  0  0  0  0  0  0  0
   60.5722   28.1441   45.0641 H   0  0  0  0  0  0  0  0  0  0  0  0
   61.2033   26.9942   47.1879 H   0  0  0  0  0  0  0  0  0  0  0  0
   60.5343   27.9639   49.3878 H   0  0  0  0  0  0  0  0  0  0  0  0
   59.2763   30.1201   49.4741 H   0  0  0  0  0  0  0  0  0  0  0  0
   56.7136   33.4746   45.3027 H   0  0  0  0  0  0  0  0  0  0  0  0
   56.9321   33.5709   47.0899 H   0  0  0  0  0  0  0  0  0  0  0  0
   58.6863   34.7082   44.8778 H   0  0  0  0  0  0  0  0  0  0  0  0
   57.9801   35.5320   46.3204 H   0  0  0  0  0  0  0  0  0  0  0  0
   58.8230   34.8883   48.6331 H   0  0  0  0  0  0  0  0  0  0  0  0
   60.9115   34.4425   49.9270 H   0  0  0  0  0  0  0  0  0  0  0  0
   62.9614   33.6248   48.7567 H   0  0  0  0  0  0  0  0  0  0  0  0
   62.9239   33.2433   46.2911 H   0  0  0  0  0  0  0  0  0  0  0  0
   60.8436   33.6977   44.9853 H   0  0  0  0  0  0  0  0  0  0  0  0
   56.8851   28.5884   46.3556 H   0  0  0  0  0  0  0  0  0  0  0  0
   56.4252   26.4768   47.5924 H   0  0  0  0  0  0  0  0  0  0  0  0
  1  2  1  0
  2  3  1  0
  3  4  1  0
  4  5  2  0
  4  6  1  0
  6  7  2  0
  7  8  1  0
  8  9  2  0
  9 10  1  0
 10 11  1  0
 11 12  2  0
 11 13  1  0
 13 14  1  0
 14 15  1  0
 15 16  2  0
 16 17  1  0
 17 18  2  0
 18 19  1  0
 19 20  2  0
 20 21  1  0
 21 22  2  0
 22 23  1  0
 23 24  2  0
 23 25  1  0
 25 26  1  0
 26 27  1  0
 27 28  1  0
 28 29  2  0
 29 30  1  0
 30 31  2  0
 31 32  1  0
 32 33  2  0
  9 34  1  0
 34 35  2  0
 35  6  1  0
 25 15  1  0
 33 28  1  0
 22 17  1  0
  1 36  1  0
  1 37  1  0
  1 38  1  0
  2 39  1  0
  2 40  1  0
  7 41  1  0
  8 42  1  0
 10 43  1  0
 13 44  1  0
 13 45  1  0
 18 46  1  0
 19 47  1  0
 20 48  1  0
 21 49  1  0
 26 50  1  0
 26 51  1  0
 27 52  1  0
 27 53  1  0
 29 54  1  0
 30 55  1  0
 31 56  1  0
 32 57  1  0
 33 58  1  0
 34 59  1  0
 35 60  1  0
M  END
>  <UniqueID>  (40) 
40

>  <SMILES>  (40) 
CCOC(=O)c1ccc(NC(=O)CSc2nc3ccccc3c(=O)n2CCc2ccccc2)cc1

>  <Energy>  (40) 
64.22920466561735

>  <Genealogy>  (40) 
CCOC(=O)c1ccc(NC(=O)CSc2nc3ccccc3c(=O)n2CCc2ccccc2)cc1 (3D coordinates assigned)
CCOC(=O)c1ccc(NC(=O)CSc2nc3ccccc3c(=O)n2CCc2ccccc2)cc1 (optimized conformer: 64.22920466561735 kcal/mol)

>  <smiles>  (40) 
CCOC(=O)c1ccc(NC(=O)CSc2nc3ccccc3c(=O)n2CCc2ccccc2)cc1

>  <score_type>  (40) 
oracle

>  <origin>  (40) 
adg

>  <m_score__min__energy>  (40) 
-9.9000000000000004

>  <m_primary>  (40) 
energy

$$$$
40:0
     RDKit          3D

 43 45  0  0  0  0  0  0  0  0999 V2000
   60.0760   30.4300   48.5090 O   0  0  0  0  0  0  0  0  0  0  0  0
   59.5030   31.1200   47.6140 C   0  0  0  0  0  0  0  0  0  0  0  0
   58.9900   30.4170   46.5000 N   0  0  0  0  0  0  0  0  0  0  0  0
   59.1440   29.0050   46.4500 C   0  0  0  0  0  0  0  0  0  0  0  0
   60.3320   28.4010   46.0770 C   0  0  0  0  0  0  0  0  0  0  0  0
   60.4960   27.0330   46.0240 C   0  0  0  0  0  0  0  0  0  0  0  0
   59.4510   26.2000   46.3490 C   0  0  0  0  0  0  0  0  0  0  0  0
   59.6090   24.8550   46.2970 F   0  0  0  0  0  0  0  0  0  0  0  0
   58.2430   26.7800   46.7270 C   0  0  0  0  0  0  0  0  0  0  0  0
   58.0880   28.1500   46.7780 C   0  0  0  0  0  0  0  0  0  0  0  0
   59.3740   32.5130   47.7060 N   0  0  0  0  0  0  0  0  0  0  0  0
   60.6000   33.2760   47.5670 C   0  0  0  0  0  0  0  0  0  0  0  0
   60.8110   33.7570   46.1580 C   0  0  0  0  0  0  0  0  0  0  0  0
   59.5510   34.2370   45.5050 C   0  0  0  0  0  0  0  0  0  0  0  0
   58.4640   33.3240   45.5050 N   0  0  0  0  0  0  0  0  0  0  0  0
   57.8440   33.1050   44.2320 C   0  0  0  0  0  0  0  0  0  0  0  0
   57.3390   31.7240   44.0660 C   0  0  0  0  0  0  0  0  0  0  0  0
   56.5590   30.9810   44.8680 N   0  0  0  0  0  0  0  0  0  0  0  0
   56.3550   29.7650   44.3000 C   0  0  0  0  0  0  0  0  0  0  0  0
   57.0470   29.7790   43.0980 C   0  0  0  0  0  0  0  0  0  0  0  0
   57.6430   30.9760   42.9660 N   0  0  0  0  0  0  0  0  0  0  0  0
   57.5280   33.4670   46.5670 C   0  0  0  0  0  0  0  0  0  0  0  0
   58.0470   33.0530   47.9280 C   0  0  0  0  0  0  0  0  0  0  0  0
   58.5170   30.9730   45.7570 H   0  0  0  0  0  0  0  0  0  0  0  0
   61.1851   29.0421   45.8104 H   0  0  0  0  0  0  0  0  0  0  0  0
   61.4641   26.6072   45.7213 H   0  0  0  0  0  0  0  0  0  0  0  0
   57.3940   26.1321   46.9906 H   0  0  0  0  0  0  0  0  0  0  0  0
   57.1199   28.5754   47.0810 H   0  0  0  0  0  0  0  0  0  0  0  0
   60.5528   34.1479   48.2360 H   0  0  0  0  0  0  0  0  0  0  0  0
   61.4406   32.6166   47.8290 H   0  0  0  0  0  0  0  0  0  0  0  0
   61.5337   34.5861   46.1758 H   0  0  0  0  0  0  0  0  0  0  0  0
   61.1787   32.9021   45.5716 H   0  0  0  0  0  0  0  0  0  0  0  0
   59.2258   35.1476   46.0294 H   0  0  0  0  0  0  0  0  0  0  0  0
   59.8065   34.3944   44.4467 H   0  0  0  0  0  0  0  0  0  0  0  0
   56.9994   33.8021   44.1287 H   0  0  0  0  0  0  0  0  0  0  0  0
   58.6095   33.2710   43.4597 H   0  0  0  0  0  0  0  0  0  0  0  0
   55.7605   28.9355   44.7104 H   0  0  0  0  0  0  0  0  0  0  0  0
   57.0990   28.9510   42.3757 H   0  0  0  0  0  0  0  0  0  0  0  0
   58.2270   31.2440   42.1440 H   0  0  0  0  0  0  0  0  0  0  0  0
   57.2301   34.5245   46.6211 H   0  0  0  0  0  0  0  0  0  0  0  0
   56.6903   32.7926   46.3357 H   0  0  0  0  0  0  0  0  0  0  0  0
   58.0965   33.9236   48.5985 H   0  0  0  0  0  0  0  0  0  0  0  0
   57.3860   32.3120   48.4014 H   0  0  0  0  0  0  0  0  0  0  0  0
  1  2  2  0
  2  3  1  0
  3  4  1  0
  4  5  2  0
  5  6  1  0
  6  7  2  0
  7  8  1  0
  7  9  1  0
  9 10  2  0
  2 11  1  0
 11 12  1  0
 12 13  1  0
 13 14  1  0
 14 15  1  0
 15 16  1  0
 16 17  1  0
 17 18  2  0
 18 19  1  0
 19 20  2  0
 20 21  1  0
 15 22  1  0
 22 23  1  0
 10  4  1  0
 23 11  1  0
 21 17  1  0
  3 24  1  0
  5 25  1  0
  6 26  1  0
  9 27  1  0
 10 28  1  0
 12 29  1  0
 12 30  1  0
 13 31  1  0
 13 32  1  0
 14 33  1  0
 14 34  1  0
 16 35  1  0
 16 36  1  0
 19 37  1  0
 20 38  1  0
 21 39  1  0
 22 40  1  0
 22 41  1  0
 23 42  1  0
 23 43  1  0
M  END
>  <smiles>  (41) 
O=C(Nc1ccc(F)cc1)N1CCCN(Cc2ncc[nH]2)CC1

>  <score_type>  (41) 
oracle

>  <origin>  (41) 
adg

>  <m_score__min__energy>  (41) 
-4.9500000000000002

>  <m_primary>  (41) 
energy

$$$$
41:0
     RDKit          3D

 47 50  0  0  0  0  0  0  0  0999 V2000
   57.0060   33.9780   45.2520 C   0  0  0  0  0  0  0  0  0  0  0  0
   58.3080   33.7380   45.9570 C   0  0  0  0  0  0  0  0  0  0  0  0
   59.0010   34.8020   46.5530 C   0  0  0  0  0  0  0  0  0  0  0  0
   60.1950   34.5690   47.2390 C   0  0  0  0  0  0  0  0  0  0  0  0
   60.7070   33.2680   47.3470 C   0  0  0  0  0  0  0  0  0  0  0  0
   61.9250   33.0400   48.0840 N   0  0  0  0  0  0  0  0  0  0  0  0
   63.1310   33.3400   47.5100 C   0  0  0  0  0  0  0  0  0  0  0  0
   63.1850   33.8030   46.3360 O   0  0  0  0  0  0  0  0  0  0  0  0
   64.3200   33.1350   48.2110 C   0  0  0  0  0  0  0  0  0  0  0  0
   64.2930   32.6200   49.5130 C   0  0  0  0  0  0  0  0  0  0  0  0
   65.5920   32.4070   50.2480 C   0  0  0  0  0  0  0  0  0  0  0  0
   63.0450   32.3170   50.0990 C   0  0  0  0  0  0  0  0  0  0  0  0
   62.9140   31.8020   51.3990 C   0  0  0  0  0  0  0  0  0  0  0  0
   61.6850   31.5300   51.9120 N   0  0  0  0  0  0  0  0  0  0  0  0
   60.5500   31.7500   51.1840 C   0  0  0  0  0  0  0  0  0  0  0  0
   59.2390   31.4630   51.7270 N   0  0  0  0  0  0  0  0  0  0  0  0
   58.0400   32.1220   51.1900 C   0  0  0  0  0  0  0  0  0  0  0  0
   56.7620   31.5250   51.7920 C   0  0  0  0  0  0  0  0  0  0  0  0
   56.8540   30.0610   51.8330 N   0  0  0  0  0  0  0  0  0  0  0  0
   57.9400   29.5830   52.7110 C   0  0  0  0  0  0  0  0  0  0  0  0
   59.0890   30.5940   52.9060 C   0  0  0  0  0  0  0  0  0  0  0  0
   60.6620   32.2520   49.9270 N   0  0  0  0  0  0  0  0  0  0  0  0
   61.8650   32.5390   49.3600 C   0  0  0  0  0  0  0  0  0  0  0  0
   60.0070   32.1950   46.7620 C   0  0  0  0  0  0  0  0  0  0  0  0
   60.6170   30.5490   46.8680 Cl  0  0  0  0  0  0  0  0  0  0  0  0
   58.8110   32.4340   46.0760 C   0  0  0  0  0  0  0  0  0  0  0  0
   56.2083   34.1250   45.9951 H   0  0  0  0  0  0  0  0  0  0  0  0
   57.0902   34.8758   44.6220 H   0  0  0  0  0  0  0  0  0  0  0  0
   56.7646   33.1092   44.6220 H   0  0  0  0  0  0  0  0  0  0  0  0
   58.6022   35.8245   46.4797 H   0  0  0  0  0  0  0  0  0  0  0  0
   60.7364   35.4100   47.6968 H   0  0  0  0  0  0  0  0  0  0  0  0
   65.2830   33.3791   47.7387 H   0  0  0  0  0  0  0  0  0  0  0  0
   65.4090   32.4370   51.3323 H   0  0  0  0  0  0  0  0  0  0  0  0
   66.0121   31.4280   49.9740 H   0  0  0  0  0  0  0  0  0  0  0  0
   66.3027   33.2006   49.9740 H   0  0  0  0  0  0  0  0  0  0  0  0
   63.8124   31.6174   52.0064 H   0  0  0  0  0  0  0  0  0  0  0  0
   61.6410   31.1400   52.8790 H   0  0  0  0  0  0  0  0  0  0  0  0
   58.0824   33.1947   51.4298 H   0  0  0  0  0  0  0  0  0  0  0  0
   58.0166   31.9685   50.1010 H   0  0  0  0  0  0  0  0  0  0  0  0
   56.6287   31.9090   52.8141 H   0  0  0  0  0  0  0  0  0  0  0  0
   55.9039   31.8122   51.1666 H   0  0  0  0  0  0  0  0  0  0  0  0
   57.0280   29.7150   50.8590 H   0  0  0  0  0  0  0  0  0  0  0  0
   57.5104   29.3549   53.6976 H   0  0  0  0  0  0  0  0  0  0  0  0
   58.3764   28.7002   52.2209 H   0  0  0  0  0  0  0  0  0  0  0  0
   58.8729   31.2174   53.7861 H   0  0  0  0  0  0  0  0  0  0  0  0
   60.0253   30.0343   53.0477 H   0  0  0  0  0  0  0  0  0  0  0  0
   58.2615   31.5935   45.6270 H   0  0  0  0  0  0  0  0  0  0  0  0
  1  2  1  0
  2  3  2  0
  3  4  1  0
  4  5  2  0
  5  6  1  0
  6  7  1  0
  7  8  2  0
  7  9  1  0
  9 10  2  0
 10 11  1  0
 10 12  1  0
 12 13  2  0
 13 14  1  0
 14 15  2  0
 15 16  1  0
 16 17  1  0
 17 18  1  0
 18 19  1  0
 19 20  1  0
 20 21  1  0
 15 22  1  0
 22 23  2  0
  5 24  1  0
 24 25  1  0
 24 26  2  0
 26  2  1  0
 23  6  1  0
 23 12  1  0
 21 16  1  0
  1 27  1  0
  1 28  1  0
  1 29  1  0
  3 30  1  0
  4 31  1  0
  9 32  1  0
 11 33  1  0
 11 34  1  0
 11 35  1  0
 13 36  1  0
 14 37  1  0
 17 38  1  0
 17 39  1  0
 18 40  1  0
 18 41  1  0
 19 42  1  0
 20 43  1  0
 20 44  1  0
 21 45  1  0
 21 46  1  0
 26 47  1  0
M  CHG  1  14   1
M  END
>  <UniqueID>  (42) 
41

>  <SMILES>  (42) 
Cc1ccc(-n2c(=O)cc(C)c3c[nH+]c(N4CCNCC4)nc32)c(Cl)c1

>  <Energy>  (42) 
69.66422248850193

>  <Genealogy>  (42) 
Cc1ccc(-n2c(=O)cc(C)c3c[nH+]c(N4CCNCC4)nc32)c(Cl)c1 (protonated)
Cc1ccc(-n2c(=O)cc(C)c3c[nH+]c(N4CCNCC4)nc32)c(Cl)c1 (3D coordinates assigned)
Cc1ccc(-n2c(=O)cc(C)c3c[nH+]c(N4CCNCC4)nc32)c(Cl)c1 (nonaromatic ring conformer: 69.66422248850193 kcal/mol)

>  <smiles>  (42) 
Cc1ccc(-n2c(=O)cc(C)c3cnc(N4CCNCC4)nc32)c(Cl)c1

>  <score_type>  (42) 
oracle

>  <origin>  (42) 
adg

>  <m_score__min__energy>  (42) 
-6.7699999999999996

>  <m_primary>  (42) 
energy

$$$$
42:0
     RDKit          3D

 37 40  0  0  0  0  0  0  0  0999 V2000
   59.4060   35.0540   45.1940 C   0  0  0  0  0  0  0  0  0  0  0  0
   59.6350   35.3030   46.5470 C   0  0  0  0  0  0  0  0  0  0  0  0
   59.2800   34.3490   47.5150 C   0  0  0  0  0  0  0  0  0  0  0  0
   59.5520   34.5900   48.9090 N   0  0  0  0  0  0  0  0  0  0  0  0
   60.8930   34.1800   49.2080 C   0  0  0  0  0  0  0  0  0  0  0  0
   61.3660   33.8440   50.4670 C   0  0  0  0  0  0  0  0  0  0  0  0
   62.6340   33.4450   50.3010 N   0  0  0  0  0  0  0  0  0  0  0  0
   63.5370   33.0120   51.2150 C   0  0  0  0  0  0  0  0  0  0  0  0
   64.8110   32.6400   50.7610 C   0  0  0  0  0  0  0  0  0  0  0  0
   65.1090   32.7240   49.3870 C   0  0  0  0  0  0  0  0  0  0  0  0
   64.1390   33.1760   48.4760 C   0  0  0  0  0  0  0  0  0  0  0  0
   62.8930   33.5340   48.9840 C   0  0  0  0  0  0  0  0  0  0  0  0
   61.8430   33.9770   48.2600 N   0  0  0  0  0  0  0  0  0  0  0  0
   58.7110   33.1320   47.1030 C   0  0  0  0  0  0  0  0  0  0  0  0
   58.4790   32.8710   45.7380 C   0  0  0  0  0  0  0  0  0  0  0  0
   57.8770   31.5820   45.3090 C   0  0  0  0  0  0  0  0  0  0  0  0
   58.1430   30.3970   46.0160 C   0  0  0  0  0  0  0  0  0  0  0  0
   57.5660   29.1950   45.5950 C   0  0  0  0  0  0  0  0  0  0  0  0
   56.7530   29.1730   44.5060 N   0  0  0  0  0  0  0  0  0  0  0  0
   56.4780   30.3020   43.8010 C   0  0  0  0  0  0  0  0  0  0  0  0
   57.0320   31.5240   44.1870 C   0  0  0  0  0  0  0  0  0  0  0  0
   58.8320   33.8460   44.7890 C   0  0  0  0  0  0  0  0  0  0  0  0
   59.6780   35.8107   44.4434 H   0  0  0  0  0  0  0  0  0  0  0  0
   60.0963   36.2520   46.8579 H   0  0  0  0  0  0  0  0  0  0  0  0
   58.8780   34.0600   49.5100 H   0  0  0  0  0  0  0  0  0  0  0  0
   59.4450   35.6080   49.1310 H   0  0  0  0  0  0  0  0  0  0  0  0
   60.8101   33.8949   51.4148 H   0  0  0  0  0  0  0  0  0  0  0  0
   63.2778   32.9541   52.2825 H   0  0  0  0  0  0  0  0  0  0  0  0
   65.5713   32.2855   51.4725 H   0  0  0  0  0  0  0  0  0  0  0  0
   66.1065   32.4342   49.0249 H   0  0  0  0  0  0  0  0  0  0  0  0
   64.3564   33.2445   47.3999 H   0  0  0  0  0  0  0  0  0  0  0  0
   58.4437   32.3746   47.8546 H   0  0  0  0  0  0  0  0  0  0  0  0
   58.8021   30.4150   46.8965 H   0  0  0  0  0  0  0  0  0  0  0  0
   57.7704   28.2653   46.1462 H   0  0  0  0  0  0  0  0  0  0  0  0
   55.8167   30.2528   42.9233 H   0  0  0  0  0  0  0  0  0  0  0  0
   56.8084   32.4371   43.6159 H   0  0  0  0  0  0  0  0  0  0  0  0
   58.6552   33.6567   43.7199 H   0  0  0  0  0  0  0  0  0  0  0  0
  1  2  2  0
  2  3  1  0
  3  4  1  0
  4  5  1  0
  5  6  2  0
  6  7  1  0
  7  8  1  0
  8  9  2  0
  9 10  1  0
 10 11  2  0
 11 12  1  0
 12 13  2  0
  3 14  2  0
 14 15  1  0
 15 16  1  0
 16 17  2  0
 17 18  1  0
 18 19  2  0
 19 20  1  0
 20 21  2  0
 15 22  2  0
 22  1  1  0
 13  5  1  0
 21 16  1  0
 12  7  1  0
  1 23  1  0
  2 24  1  0
  4 25  1  0
  4 26  1  0
  6 27  1  0
  8 28  1  0
  9 29  1  0
 10 30  1  0
 11 31  1  0
 14 32  1  0
 17 33  1  0
 18 34  1  0
 20 35  1  0
 21 36  1  0
 22 37  1  0
M  CHG  1   4   1
M  END
>  <UniqueID>  (43) 
42

>  <SMILES>  (43) 
c1cc([NH2+]c2cn3ccccc3n2)cc(-c2ccncc2)c1

>  <Energy>  (43) 
83.66623544779117

>  <Genealogy>  (43) 
c1cc([NH2+]c2cn3ccccc3n2)cc(-c2ccncc2)c1 (protonated)
c1cc([NH2+]c2cn3ccccc3n2)cc(-c2ccncc2)c1 (3D coordinates assigned)
c1cc([NH2+]c2cn3ccccc3n2)cc(-c2ccncc2)c1 (optimized conformer: 83.66623544779117 kcal/mol)

>  <smiles>  (43) 
c1cc(Nc2cn3ccccc3n2)cc(-c2ccncc2)c1

>  <score_type>  (43) 
oracle

>  <origin>  (43) 
adg

>  <m_score__min__energy>  (43) 
-5.9500000000000002

>  <m_primary>  (43) 
energy

$$$$
43:0
     RDKit          3D

 29 30  0  0  0  0  0  0  0  0999 V2000
   57.4610   31.6240   42.8570 O   0  0  0  0  0  0  0  0  0  0  0  0
   56.9360   31.0850   43.8690 C   0  0  0  0  0  0  0  0  0  0  0  0
   55.9010   30.0170   43.6730 C   0  0  0  0  0  0  0  0  0  0  0  0
   55.6760   29.2890   44.9170 N   0  0  0  0  0  0  0  0  0  0  0  0
   56.3650   28.1060   45.3500 C   0  0  0  0  0  0  0  0  0  0  0  0
   55.6810   27.0920   45.6500 O   0  0  0  0  0  0  0  0  0  0  0  0
   57.8340   28.0270   45.4570 C   0  0  0  0  0  0  0  0  0  0  0  0
   58.5310   27.6240   46.5930 C   0  0  0  0  0  0  0  0  0  0  0  0
   59.9200   27.7460   46.4670 C   0  0  0  0  0  0  0  0  0  0  0  0
   60.3270   28.2640   45.2450 C   0  0  0  0  0  0  0  0  0  0  0  0
   58.9550   28.5710   44.3250 S   0  0  0  0  0  0  0  0  0  0  0  0
   57.3380   31.4760   45.1910 N   0  0  0  0  0  0  0  0  0  0  0  0
   58.1830   32.6080   45.4600 C   0  0  0  0  0  0  0  0  0  0  0  0
   58.0950   33.7690   44.6690 C   0  0  0  0  0  0  0  0  0  0  0  0
   58.8960   34.8790   44.9470 C   0  0  0  0  0  0  0  0  0  0  0  0
   59.7860   34.8480   46.0210 C   0  0  0  0  0  0  0  0  0  0  0  0
   59.8730   33.7090   46.8240 C   0  0  0  0  0  0  0  0  0  0  0  0
   59.0730   32.5910   46.5540 C   0  0  0  0  0  0  0  0  0  0  0  0
   59.2560   31.0500   47.6770 Br  0  0  0  0  0  0  0  0  0  0  0  0
   54.9578   30.4819   43.3500 H   0  0  0  0  0  0  0  0  0  0  0  0
   56.2579   29.3119   42.9078 H   0  0  0  0  0  0  0  0  0  0  0  0
   58.0382   27.2465   47.5011 H   0  0  0  0  0  0  0  0  0  0  0  0
   60.6234   27.4582   47.2623 H   0  0  0  0  0  0  0  0  0  0  0  0
   61.3667   28.4424   44.9333 H   0  0  0  0  0  0  0  0  0  0  0  0
   57.0340   30.8820   45.9950 H   0  0  0  0  0  0  0  0  0  0  0  0
   57.3899   33.8024   43.8253 H   0  0  0  0  0  0  0  0  0  0  0  0
   58.8250   35.7788   44.3183 H   0  0  0  0  0  0  0  0  0  0  0  0
   60.4195   35.7213   46.2353 H   0  0  0  0  0  0  0  0  0  0  0  0
   60.5728   33.6894   47.6724 H   0  0  0  0  0  0  0  0  0  0  0  0
  1  2  2  0
  2  3  1  0
  3  4  1  0
  4  5  1  0
  5  6  2  0
  5  7  1  0
  7  8  2  0
  8  9  1  0
  9 10  2  0
 10 11  1  0
  2 12  1  0
 12 13  1  0
 13 14  2  0
 14 15  1  0
 15 16  2  0
 16 17  1  0
 17 18  2  0
 18 19  1  0
 11  7  1  0
 18 13  1  0
  3 20  1  0
  3 21  1  0
  8 22  1  0
  9 23  1  0
 10 24  1  0
 12 25  1  0
 14 26  1  0
 15 27  1  0
 16 28  1  0
 17 29  1  0
M  CHG  1   4  -1
M  END
>  <UniqueID>  (44) 
43

>  <SMILES>  (44) 
O=C(C[N-]C(=O)c1cccs1)Nc1ccccc1Br

>  <Energy>  (44) 
59.808204173450285

>  <Genealogy>  (44) 
O=C(C[N-]C(=O)c1cccs1)Nc1ccccc1Br (protonated)
O=C(C[N-]C(=O)c1cccs1)Nc1ccccc1Br (3D coordinates assigned)
O=C(C[N-]C(=O)c1cccs1)Nc1ccccc1Br (optimized conformer: 59.808204173450285 kcal/mol)

>  <smiles>  (44) 
O=C(CNC(=O)c1cccs1)Nc1ccccc1Br

>  <score_type>  (44) 
oracle

>  <origin>  (44) 
adg

>  <m_score__min__energy>  (44) 
-9.6799999999999997

>  <m_primary>  (44) 
energy

$$$$
44:0
     RDKit          3D

 60 63  0  0  0  0  0  0  0  0999 V2000
   62.5640   31.1690   50.3240 C   0  0  0  0  0  0  0  0  0  0  0  0
   61.1650   30.9770   50.1450 O   0  0  0  0  0  0  0  0  0  0  0  0
   60.5460   30.7510   48.9070 C   0  0  0  0  0  0  0  0  0  0  0  0
   61.3550   30.5110   47.7930 C   0  0  0  0  0  0  0  0  0  0  0  0
   60.7880   30.2900   46.5360 C   0  0  0  0  0  0  0  0  0  0  0  0
   59.3930   30.3200   46.3610 C   0  0  0  0  0  0  0  0  0  0  0  0
   58.8230   30.0460   44.9750 C   0  0  2  0  0  0  0  0  0  0  0  0
   58.1470   31.2730   44.3080 C   0  0  0  0  0  0  0  0  0  0  0  0
   57.1830   31.8660   45.2300 N   0  0  0  0  0  0  0  0  0  0  0  0
   57.4090   33.1090   45.8990 C   0  0  0  0  0  0  0  0  0  0  0  0
   56.6600   33.4620   46.8500 O   0  0  0  0  0  0  0  0  0  0  0  0
   58.5970   33.9360   45.5150 C   0  0  0  0  0  0  0  0  0  0  0  0
   59.6400   33.9560   46.6030 C   0  0  0  0  0  0  0  0  0  0  0  0
   60.9930   33.7480   46.2910 C   0  0  0  0  0  0  0  0  0  0  0  0
   61.9660   33.7940   47.2970 C   0  0  0  0  0  0  0  0  0  0  0  0
   61.5910   34.0630   48.6180 C   0  0  0  0  0  0  0  0  0  0  0  0
   60.2470   34.2810   48.9330 C   0  0  0  0  0  0  0  0  0  0  0  0
   59.2740   34.2370   47.9310 C   0  0  0  0  0  0  0  0  0  0  0  0
   57.9570   28.8390   45.0170 N   0  0  0  0  0  0  0  0  0  0  0  0
   57.5200   28.3110   43.6970 C   0  0  0  0  0  0  0  0  0  0  0  0
   58.0920   26.9220   43.3860 C   0  0  0  0  0  0  0  0  0  0  0  0
   57.7680   25.9900   44.4750 N   0  0  0  0  0  0  0  0  0  0  0  0
   57.5700   24.5870   44.2080 C   0  0  0  0  0  0  0  0  0  0  0  0
   56.6410   24.1870   43.2980 N   0  0  0  0  0  0  0  0  0  0  0  0
   56.4360   22.8710   43.0310 C   0  0  0  0  0  0  0  0  0  0  0  0
   57.1850   21.9030   43.6960 C   0  0  0  0  0  0  0  0  0  0  0  0
   58.1320   22.3230   44.6280 C   0  0  0  0  0  0  0  0  0  0  0  0
   58.3050   23.6490   44.8660 N   0  0  0  0  0  0  0  0  0  0  0  0
   57.6730   26.5000   45.8500 C   0  0  0  0  0  0  0  0  0  0  0  0
   58.4310   27.8230   45.9870 C   0  0  0  0  0  0  0  0  0  0  0  0
   58.5800   30.5460   47.4900 C   0  0  0  0  0  0  0  0  0  0  0  0
   59.1510   30.7620   48.7480 C   0  0  0  0  0  0  0  0  0  0  0  0
   62.7952   31.2007   51.3990 H   0  0  0  0  0  0  0  0  0  0  0  0
   63.1111   30.3375   49.8557 H   0  0  0  0  0  0  0  0  0  0  0  0
   62.8669   32.1171   49.8557 H   0  0  0  0  0  0  0  0  0  0  0  0
   62.4489   30.4960   47.9073 H   0  0  0  0  0  0  0  0  0  0  0  0
   61.4401   30.0902   45.6729 H   0  0  0  0  0  0  0  0  0  0  0  0
   59.6710   29.8374   44.3062 H   0  0  0  0  0  0  0  0  0  0  0  0
   58.9141   32.0186   44.0518 H   0  0  0  0  0  0  0  0  0  0  0  0
   57.6260   30.9498   43.3947 H   0  0  0  0  0  0  0  0  0  0  0  0
   59.0432   33.5158   44.6016 H   0  0  0  0  0  0  0  0  0  0  0  0
   58.2558   34.9685   45.3492 H   0  0  0  0  0  0  0  0  0  0  0  0
   61.2902   33.5479   45.2510 H   0  0  0  0  0  0  0  0  0  0  0  0
   63.0233   33.6190   47.0492 H   0  0  0  0  0  0  0  0  0  0  0  0
   62.3545   34.1029   49.4089 H   0  0  0  0  0  0  0  0  0  0  0  0
   59.9542   34.4879   49.9729 H   0  0  0  0  0  0  0  0  0  0  0  0
   58.2192   34.4227   48.1819 H   0  0  0  0  0  0  0  0  0  0  0  0
   56.4219   28.2468   43.6916 H   0  0  0  0  0  0  0  0  0  0  0  0
   57.8956   29.0007   42.9268 H   0  0  0  0  0  0  0  0  0  0  0  0
   57.6563   26.5505   42.4468 H   0  0  0  0  0  0  0  0  0  0  0  0
   59.1850   26.9954   43.2866 H   0  0  0  0  0  0  0  0  0  0  0  0
   55.6798   22.5703   42.2909 H   0  0  0  0  0  0  0  0  0  0  0  0
   57.0327   20.8332   43.4905 H   0  0  0  0  0  0  0  0  0  0  0  0
   58.7382   21.5821   45.1699 H   0  0  0  0  0  0  0  0  0  0  0  0
   56.6149   26.6616   46.1034 H   0  0  0  0  0  0  0  0  0  0  0  0
   58.1195   25.7628   46.5335 H   0  0  0  0  0  0  0  0  0  0  0  0
   58.2867   28.2108   47.0062 H   0  0  0  0  0  0  0  0  0  0  0  0
   59.4939   27.6278   45.7817 H   0  0  0  0  0  0  0  0  0  0  0  0
   57.4855   30.5525   47.3804 H   0  0  0  0  0  0  0  0  0  0  0  0
   58.5031   30.9417   49.6186 H   0  0  0  0  0  0  0  0  0  0  0  0
  1  2  1  0
  2  3  1  0
  3  4  2  0
  4  5  1  0
  5  6  2  0
  6  7  1  0
  7  8  1  0
  8  9  1  0
  9 10  1  0
 10 11  2  0
 10 12  1  0
 12 13  1  0
 13 14  2  0
 14 15  1  0
 15 16  2  0
 16 17  1  0
 17 18  2  0
  7 19  1  0
 19 20  1  0
 20 21  1  0
 21 22  1  0
 22 23  1  0
 23 24  2  0
 24 25  1  0
 25 26  2  0
 26 27  1  0
 27 28  2  0
 22 29  1  0
 29 30  1  0
  6 31  1  0
 31 32  2  0
 32  3  1  0
 18 13  1  0
 30 19  1  0
 28 23  1  0
  1 33  1  0
  1 34  1  0
  1 35  1  0
  4 36  1  0
  5 37  1  0
  7 38  1  6
  8 39  1  0
  8 40  1  0
 12 41  1  0
 12 42  1  0
 14 43  1  0
 15 44  1  0
 16 45  1  0
 17 46  1  0
 18 47  1  0
 20 48  1  0
 20 49  1  0
 21 50  1  0
 21 51  1  0
 25 52  1  0
 26 53  1  0
 27 54  1  0
 29 55  1  0
 29 56  1  0
 30 57  1  0
 30 58  1  0
 31 59  1  0
 32 60  1  0
M  CHG  1   9  -1
M  END
>  <UniqueID>  (45) 
44

>  <SMILES>  (45) 
COc1ccc([C@H](C[N-]C(=O)Cc2ccccc2)N2CCN(c3ncccn3)CC2)cc1

>  <Energy>  (45) 
73.56732780116288

>  <Genealogy>  (45) 
COc1ccc(C(C[N-]C(=O)Cc2ccccc2)N2CCN(c3ncccn3)CC2)cc1 (protonated)
COc1ccc([C@H](C[N-]C(=O)Cc2ccccc2)N2CCN(c3ncccn3)CC2)cc1 (chirality)
COc1ccc([C@H](C[N-]C(=O)Cc2ccccc2)N2CCN(c3ncccn3)CC2)cc1 (3D coordinates assigned)
COc1ccc([C@H](C[N-]C(=O)Cc2ccccc2)N2CCN(c3ncccn3)CC2)cc1 (nonaromatic ring conformer: 73.56732780116288 kcal/mol)

>  <smiles>  (45) 
COc1ccc(C(CNC(=O)Cc2ccccc2)N2CCN(c3ncccn3)CC2)cc1

>  <score_type>  (45) 
oracle

>  <origin>  (45) 
adg

>  <m_score__min__energy>  (45) 
-10.289999999999999

>  <m_primary>  (45) 
energy

$$$$
45:0
     RDKit          3D

 45 47  0  0  0  0  0  0  0  0999 V2000
   60.7530   28.8510   49.7990 C   0  0  0  0  0  0  0  0  0  0  0  0
   61.5020   30.0420   49.5780 O   0  0  0  0  0  0  0  0  0  0  0  0
   61.2390   30.9670   48.5570 C   0  0  0  0  0  0  0  0  0  0  0  0
   62.1650   31.9920   48.3320 C   0  0  0  0  0  0  0  0  0  0  0  0
   61.9420   32.9420   47.3310 C   0  0  0  0  0  0  0  0  0  0  0  0
   60.7900   32.8740   46.5450 C   0  0  0  0  0  0  0  0  0  0  0  0
   59.8550   31.8510   46.7520 C   0  0  0  0  0  0  0  0  0  0  0  0
   58.6850   31.7640   45.9220 N   0  0  0  0  0  0  0  0  0  0  0  0
   57.8740   32.7710   45.5150 C   0  0  0  0  0  0  0  0  0  0  0  0
   58.0780   34.2150   45.8490 C   0  0  0  0  0  0  0  0  0  0  0  0
   56.8210   32.3360   44.7830 N   0  0  0  0  0  0  0  0  0  0  0  0
   56.9960   31.0000   44.7160 C   0  0  0  0  0  0  0  0  0  0  0  0
   56.0500   30.1120   44.1090 N   0  0  0  0  0  0  0  0  0  0  0  0
   55.9440   30.0730   42.8640 O   0  0  0  0  0  0  0  0  0  0  0  0
   55.1810   29.3740   44.8790 O   0  0  0  0  0  0  0  0  0  0  0  0
   58.1430   30.6490   45.4000 C   0  0  0  0  0  0  0  0  0  0  0  0
   58.6420   29.3230   45.6220 N   0  0  0  0  0  0  0  0  0  0  0  0
   59.7480   28.8040   44.8140 C   0  0  0  0  0  0  0  0  0  0  0  0
   60.6720   27.9270   45.6770 C   0  0  0  0  0  0  0  0  0  0  0  0
   59.9520   26.9640   46.5590 N   0  0  0  0  0  0  0  0  0  0  0  0
   60.4180   25.5850   46.3370 C   0  0  0  0  0  0  0  0  0  0  0  0
   58.4790   27.0240   46.4680 C   0  0  0  0  0  0  0  0  0  0  0  0
   57.9860   28.4650   46.6090 C   0  0  0  0  0  0  0  0  0  0  0  0
   60.0820   30.8980   47.7570 C   0  0  0  0  0  0  0  0  0  0  0  0
   60.6458   28.6806   50.8804 H   0  0  0  0  0  0  0  0  0  0  0  0
   59.7570   28.9544   49.3436 H   0  0  0  0  0  0  0  0  0  0  0  0
   61.2776   27.9981   49.3436 H   0  0  0  0  0  0  0  0  0  0  0  0
   63.0749   32.0505   48.9473 H   0  0  0  0  0  0  0  0  0  0  0  0
   62.6753   33.7444   47.1623 H   0  0  0  0  0  0  0  0  0  0  0  0
   60.6159   33.6257   45.7610 H   0  0  0  0  0  0  0  0  0  0  0  0
   58.0956   34.3396   46.9418 H   0  0  0  0  0  0  0  0  0  0  0  0
   59.0335   34.5579   45.4254 H   0  0  0  0  0  0  0  0  0  0  0  0
   57.2549   34.8092   45.4254 H   0  0  0  0  0  0  0  0  0  0  0  0
   59.3426   28.2012   43.9879 H   0  0  0  0  0  0  0  0  0  0  0  0
   60.3271   29.6493   44.4138 H   0  0  0  0  0  0  0  0  0  0  0  0
   61.3300   27.3550   45.0063 H   0  0  0  0  0  0  0  0  0  0  0  0
   61.2267   28.6082   46.3391 H   0  0  0  0  0  0  0  0  0  0  0  0
   60.5841   25.0935   47.3070 H   0  0  0  0  0  0  0  0  0  0  0  0
   59.6581   25.0281   45.7691 H   0  0  0  0  0  0  0  0  0  0  0  0
   61.3599   25.6032   45.7691 H   0  0  0  0  0  0  0  0  0  0  0  0
   58.1612   26.6276   45.4923 H   0  0  0  0  0  0  0  0  0  0  0  0
   58.0499   26.4225   47.2829 H   0  0  0  0  0  0  0  0  0  0  0  0
   56.8980   28.4939   46.4495 H   0  0  0  0  0  0  0  0  0  0  0  0
   58.2277   28.8296   47.6183 H   0  0  0  0  0  0  0  0  0  0  0  0
   59.3516   30.0920   47.9209 H   0  0  0  0  0  0  0  0  0  0  0  0
  1  2  1  0
  2  3  1  0
  3  4  2  0
  4  5  1  0
  5  6  2  0
  6  7  1  0
  7  8  1  0
  8  9  1  0
  9 10  1  0
  9 11  2  0
 11 12  1  0
 12 13  1  0
 13 14  2  0
 13 15  1  0
 12 16  2  0
 16 17  1  0
 17 18  1  0
 18 19  1  0
 19 20  1  0
 20 21  1  0
 20 22  1  0
 22 23  1  0
  7 24  2  0
 24  3  1  0
 16  8  1  0
 23 17  1  0
  1 25  1  0
  1 26  1  0
  1 27  1  0
  4 28  1  0
  5 29  1  0
  6 30  1  0
 10 31  1  0
 10 32  1  0
 10 33  1  0
 18 34  1  0
 18 35  1  0
 19 36  1  0
 19 37  1  0
 21 38  1  0
 21 39  1  0
 21 40  1  0
 22 41  1  0
 22 42  1  0
 23 43  1  0
 23 44  1  0
 24 45  1  0
M  CHG  2  13   1  15  -1
M  END
>  <UniqueID>  (46) 
45

>  <SMILES>  (46) 
COc1cccc(-n2c(C)nc([N+](=O)[O-])c2N2CCN(C)CC2)c1

>  <Energy>  (46) 
91.40674165535121

>  <Genealogy>  (46) 
COc1cccc(-n2c(C)nc([N+](=O)[O-])c2N2CCN(C)CC2)c1 (3D coordinates assigned)
COc1cccc(-n2c(C)nc([N+](=O)[O-])c2N2CCN(C)CC2)c1 (nonaromatic ring conformer: 91.40674165535121 kcal/mol)

>  <smiles>  (46) 
COc1cccc(-n2c(C)nc([N+](=O)[O-])c2N2CCN(C)CC2)c1

>  <score_type>  (46) 
oracle

>  <origin>  (46) 
adg

>  <m_score__min__energy>  (46) 
-7.5700000000000003

>  <m_primary>  (46) 
energy

$$$$
46:0
     RDKit          3D

 44 45  0  0  0  0  0  0  0  0999 V2000
   59.5240   31.9810   50.1940 C   0  0  0  0  0  0  0  0  0  0  0  0
   59.6950   33.4600   50.5310 C   0  0  0  0  0  0  0  0  0  0  0  0
   61.0620   33.8500   50.4130 O   0  0  0  0  0  0  0  0  0  0  0  0
   61.9040   33.5580   49.3260 C   0  0  0  0  0  0  0  0  0  0  0  0
   63.1250   32.9640   49.4940 N   0  0  0  0  0  0  0  0  0  0  0  0
   63.9300   32.6780   48.4340 C   0  0  0  0  0  0  0  0  0  0  0  0
   63.5280   32.9990   47.1390 C   0  0  0  0  0  0  0  0  0  0  0  0
   62.2920   33.6110   46.9380 C   0  0  0  0  0  0  0  0  0  0  0  0
   61.4610   33.8850   48.0350 C   0  0  0  0  0  0  0  0  0  0  0  0
   60.1900   34.5290   47.8760 N   0  0  0  0  0  0  0  0  0  0  0  0
   59.5520   34.8500   46.6350 C   0  0  0  0  0  0  0  0  0  0  0  0
   59.9960   35.7890   45.9190 O   0  0  0  0  0  0  0  0  0  0  0  0
   58.4620   34.0400   46.1590 N   0  0  0  0  0  0  0  0  0  0  0  0
   57.8180   34.3460   44.8720 C   0  0  0  0  0  0  0  0  0  0  0  0
   57.5110   33.0770   44.0560 C   0  0  0  0  0  0  0  0  0  0  0  0
   58.4820   31.9160   44.3460 C   0  0  0  0  0  0  0  0  0  0  0  0
   58.1280   31.1330   45.5480 N   0  0  0  0  0  0  0  0  0  0  0  0
   57.5310   29.8310   45.3610 C   0  0  0  0  0  0  0  0  0  0  0  0
   56.3290   29.7460   44.9880 O   0  0  0  0  0  0  0  0  0  0  0  0
   58.3080   28.5670   45.5780 C   0  0  0  0  0  0  0  0  0  0  0  0
   57.6530   27.7520   46.4840 F   0  0  0  0  0  0  0  0  0  0  0  0
   58.3760   31.6670   46.9030 C   0  0  0  0  0  0  0  0  0  0  0  0
   57.8130   33.0930   47.0760 C   0  0  0  0  0  0  0  0  0  0  0  0
   59.4566   31.3983   51.1246 H   0  0  0  0  0  0  0  0  0  0  0  0
   58.6039   31.8426   49.6073 H   0  0  0  0  0  0  0  0  0  0  0  0
   60.3883   31.6363   49.6073 H   0  0  0  0  0  0  0  0  0  0  0  0
   59.0872   34.0606   49.8383 H   0  0  0  0  0  0  0  0  0  0  0  0
   59.3685   33.6261   51.5682 H   0  0  0  0  0  0  0  0  0  0  0  0
   63.4760   32.7180   50.4440 H   0  0  0  0  0  0  0  0  0  0  0  0
   64.9023   32.1913   48.6006 H   0  0  0  0  0  0  0  0  0  0  0  0
   64.1803   32.7714   46.2830 H   0  0  0  0  0  0  0  0  0  0  0  0
   61.9685   33.8787   45.9213 H   0  0  0  0  0  0  0  0  0  0  0  0
   56.8753   34.8786   45.0659 H   0  0  0  0  0  0  0  0  0  0  0  0
   58.5146   34.9630   44.2854 H   0  0  0  0  0  0  0  0  0  0  0  0
   56.4897   32.7462   44.2959 H   0  0  0  0  0  0  0  0  0  0  0  0
   57.6233   33.3379   42.9933 H   0  0  0  0  0  0  0  0  0  0  0  0
   58.4836   31.2395   43.4786 H   0  0  0  0  0  0  0  0  0  0  0  0
   59.4703   32.3617   44.5318 H   0  0  0  0  0  0  0  0  0  0  0  0
   58.4118   28.0356   44.6205 H   0  0  0  0  0  0  0  0  0  0  0  0
   59.3012   28.8207   45.9769 H   0  0  0  0  0  0  0  0  0  0  0  0
   57.8965   31.0045   47.6387 H   0  0  0  0  0  0  0  0  0  0  0  0
   59.4644   31.7113   47.0560 H   0  0  0  0  0  0  0  0  0  0  0  0
   56.7325   33.0787   46.8701 H   0  0  0  0  0  0  0  0  0  0  0  0
   58.0092   33.4201   48.1077 H   0  0  0  0  0  0  0  0  0  0  0  0
  1  2  1  0
  2  3  1  0
  3  4  1  0
  4  5  2  0
  5  6  1  0
  6  7  2  0
  7  8  1  0
  8  9  2  0
  9 10  1  0
 10 11  1  0
 11 12  2  0
 11 13  1  0
 13 14  1  0
 14 15  1  0
 15 16  1  0
 16 17  1  0
 17 18  1  0
 18 19  2  0
 18 20  1  0
 20 21  1  0
 17 22  1  0
 22 23  1  0
  9  4  1  0
 23 13  1  0
  1 24  1  0
  1 25  1  0
  1 26  1  0
  2 27  1  0
  2 28  1  0
  5 29  1  0
  6 30  1  0
  7 31  1  0
  8 32  1  0
 14 33  1  0
 14 34  1  0
 15 35  1  0
 15 36  1  0
 16 37  1  0
 16 38  1  0
 20 39  1  0
 20 40  1  0
 22 41  1  0
 22 42  1  0
 23 43  1  0
 23 44  1  0
M  CHG  2   5   1  10  -1
M  END
>  <UniqueID>  (47) 
46

>  <SMILES>  (47) 
CCOc1[nH+]cccc1[N-]C(=O)N1CCCN(C(=O)CF)CC1

>  <Energy>  (47) 
49.24760895131815

>  <Genealogy>  (47) 
CCOc1[nH+]cccc1[N-]C(=O)N1CCCN(C(=O)CF)CC1 (protonated)
CCOc1[nH+]cccc1[N-]C(=O)N1CCCN(C(=O)CF)CC1 (3D coordinates assigned)
CCOc1[nH+]cccc1[N-]C(=O)N1CCCN(C(=O)CF)CC1 (nonaromatic ring conformer: 49.24760895131815 kcal/mol)

>  <smiles>  (47) 
CCOc1ncccc1NC(=O)N1CCCN(C(=O)CF)CC1

>  <score_type>  (47) 
oracle

>  <origin>  (47) 
adg

>  <m_score__min__energy>  (47) 
-5.6600000000000001

>  <m_primary>  (47) 
energy

$$$$
47:0
     RDKit          3D

 52 55  0  0  0  0  0  0  0  0999 V2000
   64.4540   32.5820   49.2920 C   0  0  0  0  0  0  0  0  0  0  0  0
   63.5080   31.5700   48.7970 N   0  0  0  0  0  0  0  0  0  0  0  0
   62.5240   31.2110   49.8300 C   0  0  0  0  0  0  0  0  0  0  0  0
   62.8840   31.9390   47.5070 C   0  0  0  0  0  0  0  0  0  0  0  0
   62.8110   33.4600   47.2470 C   0  0  0  0  0  0  0  0  0  0  0  0
   61.8730   34.1820   48.2280 C   0  0  0  0  0  0  0  0  0  0  0  0
   60.4790   33.7310   48.0910 N   0  0  0  0  0  0  0  0  0  0  0  0
   59.7900   33.9470   46.8420 C   0  0  0  0  0  0  0  0  0  0  0  0
   59.8470   35.0780   46.2890 O   0  0  0  0  0  0  0  0  0  0  0  0
   59.0340   32.8590   46.1750 C   0  0  0  0  0  0  0  0  0  0  0  0
   59.4410   31.5190   46.3010 C   0  0  0  0  0  0  0  0  0  0  0  0
   58.7210   30.4990   45.6740 C   0  0  0  0  0  0  0  0  0  0  0  0
   57.5890   30.8010   44.9080 C   0  0  0  0  0  0  0  0  0  0  0  0
   56.6890   29.5160   44.1110 S   0  0  0  0  0  0  0  0  0  0  0  0
   55.1450   29.3440   44.8680 N   0  0  0  0  0  0  0  0  0  0  0  0
   57.4470   28.2220   44.2150 O   0  0  0  0  0  0  0  0  0  0  0  0
   56.5020   29.8510   42.6570 O   0  0  0  0  0  0  0  0  0  0  0  0
   57.1930   32.1370   44.7570 C   0  0  0  0  0  0  0  0  0  0  0  0
   57.9120   33.1590   45.3840 C   0  0  0  0  0  0  0  0  0  0  0  0
   59.7720   33.1650   49.2150 C   0  0  0  0  0  0  0  0  0  0  0  0
   59.1430   31.9630   49.1600 N   0  0  0  0  0  0  0  0  0  0  0  0
   58.5640   31.6570   50.3470 C   0  0  0  0  0  0  0  0  0  0  0  0
   57.8460   30.4770   50.5960 C   0  0  0  0  0  0  0  0  0  0  0  0
   57.3170   30.3260   51.8840 C   0  0  0  0  0  0  0  0  0  0  0  0
   57.4850   31.2720   52.8600 C   0  0  0  0  0  0  0  0  0  0  0  0
   58.1950   32.4560   52.6390 C   0  0  0  0  0  0  0  0  0  0  0  0
   58.7290   32.6170   51.3530 C   0  0  0  0  0  0  0  0  0  0  0  0
   59.6300   33.8930   50.7450 S   0  0  0  0  0  0  0  0  0  0  0  0
   56.8570   30.8510   54.0150 O   0  0  0  0  0  0  0  0  0  0  0  0
   56.2610   29.5710   53.7580 C   0  0  0  0  0  0  0  0  0  0  0  0
   56.5790   29.2750   52.3910 O   0  0  0  0  0  0  0  0  0  0  0  0
   64.4515   32.5793   50.3920 H   0  0  0  0  0  0  0  0  0  0  0  0
   65.4651   32.3484   48.9271 H   0  0  0  0  0  0  0  0  0  0  0  0
   64.1528   33.5750   48.9271 H   0  0  0  0  0  0  0  0  0  0  0  0
   62.9629   31.3711   50.8259 H   0  0  0  0  0  0  0  0  0  0  0  0
   61.6289   31.8405   49.7183 H   0  0  0  0  0  0  0  0  0  0  0  0
   62.2445   30.1530   49.7183 H   0  0  0  0  0  0  0  0  0  0  0  0
   63.4694   31.4790   46.6973 H   0  0  0  0  0  0  0  0  0  0  0  0
   61.8463   31.5761   47.5444 H   0  0  0  0  0  0  0  0  0  0  0  0
   63.8210   33.8838   47.3484 H   0  0  0  0  0  0  0  0  0  0  0  0
   62.4101   33.6063   46.2332 H   0  0  0  0  0  0  0  0  0  0  0  0
   62.2116   33.9822   49.2553 H   0  0  0  0  0  0  0  0  0  0  0  0
   61.9060   35.2577   48.0003 H   0  0  0  0  0  0  0  0  0  0  0  0
   60.3320   31.2722   46.8970 H   0  0  0  0  0  0  0  0  0  0  0  0
   59.0453   29.4535   45.7828 H   0  0  0  0  0  0  0  0  0  0  0  0
   55.2520   28.6260   45.6190 H   0  0  0  0  0  0  0  0  0  0  0  0
   56.3137   32.3822   44.1432 H   0  0  0  0  0  0  0  0  0  0  0  0
   57.5972   34.2053   45.2572 H   0  0  0  0  0  0  0  0  0  0  0  0
   57.7060   29.7104   49.8197 H   0  0  0  0  0  0  0  0  0  0  0  0
   58.3264   33.2139   53.4253 H   0  0  0  0  0  0  0  0  0  0  0  0
   56.6847   28.8071   54.4266 H   0  0  0  0  0  0  0  0  0  0  0  0
   55.1753   29.5804   53.9345 H   0  0  0  0  0  0  0  0  0  0  0  0
  1  2  1  0
  2  3  1  0
  2  4  1  0
  4  5  1  0
  5  6  1  0
  6  7  1  0
  7  8  1  0
  8  9  2  0
  8 10  1  0
 10 11  2  0
 11 12  1  0
 12 13  2  0
 13 14  1  0
 14 15  1  0
 14 16  2  0
 14 17  2  0
 13 18  1  0
 18 19  2  0
  7 20  1  0
 20 21  2  0
 21 22  1  0
 22 23  2  0
 23 24  1  0
 24 25  2  0
 25 26  1  0
 26 27  2  0
 27 28  1  0
 25 29  1  0
 29 30  1  0
 30 31  1  0
 19 10  1  0
 28 20  1  0
 27 22  1  0
 31 24  1  0
  1 32  1  0
  1 33  1  0
  1 34  1  0
  3 35  1  0
  3 36  1  0
  3 37  1  0
  4 38  1  0
  4 39  1  0
  5 40  1  0
  5 41  1  0
  6 42  1  0
  6 43  1  0
 11 44  1  0
 12 45  1  0
 15 46  1  0
 18 47  1  0
 19 48  1  0
 23 49  1  0
 26 50  1  0
 30 51  1  0
 30 52  1  0
M  CHG  1  15  -1
M  END
>  <UniqueID>  (48) 
47

>  <SMILES>  (48) 
CN(C)CCCN(C(=O)c1ccc(S([NH-])(=O)=O)cc1)c1nc2cc3c(cc2s1)OCO3

>  <Energy>  (48) 
122.80847998445125

>  <Genealogy>  (48) 
CN(C)CCCN(C(=O)c1ccc(S([NH-])(=O)=O)cc1)c1nc2cc3c(cc2s1)OCO3 (protonated)
CN(C)CCCN(C(=O)c1ccc(S([NH-])(=O)=O)cc1)c1nc2cc3c(cc2s1)OCO3 (3D coordinates assigned)
CN(C)CCCN(C(=O)c1ccc(S([NH-])(=O)=O)cc1)c1nc2cc3c(cc2s1)OCO3 (nonaromatic ring conformer: 122.80847998445125 kcal/mol)

>  <smiles>  (48) 
CN(C)CCCN(C(=O)c1ccc(S(N)(=O)=O)cc1)c1nc2cc3c(cc2s1)OCO3

>  <score_type>  (48) 
oracle

>  <origin>  (48) 
adg

>  <m_score__min__energy>  (48) 
-11.5

>  <m_primary>  (48) 
energy

$$$$
48:0
     RDKit          3D

 52 54  0  0  0  0  0  0  0  0999 V2000
   64.5140   33.1070   48.4290 N   0  0  0  0  0  0  0  0  0  0  0  0
   63.2760   32.5680   49.5080 S   0  0  0  0  0  0  0  0  0  0  0  0
   63.3930   31.0820   49.7060 O   0  0  0  0  0  0  0  0  0  0  0  0
   63.4480   33.2530   50.8350 O   0  0  0  0  0  0  0  0  0  0  0  0
   61.6980   32.9420   48.8230 C   0  0  0  0  0  0  0  0  0  0  0  0
   60.7620   31.9150   48.6400 C   0  0  0  0  0  0  0  0  0  0  0  0
   59.5100   32.1950   48.0830 C   0  0  0  0  0  0  0  0  0  0  0  0
   59.1720   33.5050   47.7200 C   0  0  0  0  0  0  0  0  0  0  0  0
   57.8980   33.7410   47.1030 N   0  0  0  0  0  0  0  0  0  0  0  0
   57.6770   34.0900   45.7310 C   0  0  0  0  0  0  0  0  0  0  0  0
   56.5460   34.4910   45.3450 O   0  0  0  0  0  0  0  0  0  0  0  0
   58.7830   33.9260   44.7350 C   0  0  0  0  0  0  0  0  0  0  0  0
   58.2360   32.9570   43.2850 S   0  0  0  0  0  0  0  0  0  0  0  0
   57.9400   31.4510   44.2070 C   0  0  0  0  0  0  0  0  0  0  0  0
   58.9020   30.9510   45.0230 N   0  0  0  0  0  0  0  0  0  0  0  0
   58.6820   29.8300   45.7570 C   0  0  0  0  0  0  0  0  0  0  0  0
   59.5910   29.3940   46.5100 O   0  0  0  0  0  0  0  0  0  0  0  0
   57.4430   29.1780   45.6900 C   0  0  0  0  0  0  0  0  0  0  0  0
   57.2090   28.0240   46.5120 N   0  0  0  0  0  0  0  0  0  0  0  0
   56.7560   26.7580   46.0190 C   0  0  0  0  0  0  0  0  0  0  0  0
   55.5410   26.4310   46.1080 O   0  0  0  0  0  0  0  0  0  0  0  0
   57.7460   25.7930   45.4390 C   0  0  0  0  0  0  0  0  0  0  0  0
   57.3920   25.3870   44.0020 C   0  0  0  0  0  0  0  0  0  0  0  0
   57.2780   23.8900   43.8340 C   0  0  0  0  0  0  0  0  0  0  0  0
   58.0750   23.0260   44.6040 C   0  0  0  0  0  0  0  0  0  0  0  0
   57.9570   21.6400   44.4590 C   0  0  0  0  0  0  0  0  0  0  0  0
   57.0510   21.1070   43.5380 C   0  0  0  0  0  0  0  0  0  0  0  0
   56.2680   21.9600   42.7550 C   0  0  0  0  0  0  0  0  0  0  0  0
   56.3820   23.3460   42.8970 C   0  0  0  0  0  0  0  0  0  0  0  0
   56.4750   29.6840   44.7970 C   0  0  0  0  0  0  0  0  0  0  0  0
   55.2330   29.0140   44.5730 N   0  0  0  0  0  0  0  0  0  0  0  0
   56.7490   30.8120   44.0900 N   0  0  0  0  0  0  0  0  0  0  0  0
   60.1170   34.5330   47.8940 C   0  0  0  0  0  0  0  0  0  0  0  0
   61.3720   34.2510   48.4440 C   0  0  0  0  0  0  0  0  0  0  0  0
   64.5520   32.4220   47.6410 H   0  0  0  0  0  0  0  0  0  0  0  0
   61.0128   30.8855   48.9354 H   0  0  0  0  0  0  0  0  0  0  0  0
   58.7861   31.3812   47.9290 H   0  0  0  0  0  0  0  0  0  0  0  0
   59.1114   34.9202   44.3979 H   0  0  0  0  0  0  0  0  0  0  0  0
   59.6092   33.3860   45.2207 H   0  0  0  0  0  0  0  0  0  0  0  0
   58.7401   26.2638   45.4386 H   0  0  0  0  0  0  0  0  0  0  0  0
   57.7316   24.8840   46.0583 H   0  0  0  0  0  0  0  0  0  0  0  0
   56.4294   25.8463   43.7329 H   0  0  0  0  0  0  0  0  0  0  0  0
   58.2042   25.7354   43.3471 H   0  0  0  0  0  0  0  0  0  0  0  0
   58.7951   23.4417   45.3242 H   0  0  0  0  0  0  0  0  0  0  0  0
   58.5779   20.9687   45.0705 H   0  0  0  0  0  0  0  0  0  0  0  0
   56.9541   20.0167   43.4293 H   0  0  0  0  0  0  0  0  0  0  0  0
   55.5604   21.5396   42.0253 H   0  0  0  0  0  0  0  0  0  0  0  0
   55.7687   24.0132   42.2736 H   0  0  0  0  0  0  0  0  0  0  0  0
   54.3840   29.5260   44.2540 H   0  0  0  0  0  0  0  0  0  0  0  0
   55.1320   28.0060   44.8240 H   0  0  0  0  0  0  0  0  0  0  0  0
   59.8680   35.5623   47.5964 H   0  0  0  0  0  0  0  0  0  0  0  0
   62.1054   35.0596   48.5794 H   0  0  0  0  0  0  0  0  0  0  0  0
  1  2  1  0
  2  3  2  0
  2  4  2  0
  2  5  1  0
  5  6  2  0
  6  7  1  0
  7  8  2  0
  8  9  1  0
  9 10  1  0
 10 11  2  0
 10 12  1  0
 12 13  1  0
 13 14  1  0
 14 15  2  0
 15 16  1  0
 16 17  2  0
 16 18  1  0
 18 19  1  0
 19 20  1  0
 20 21  2  0
 20 22  1  0
 22 23  1  0
 23 24  1  0
 24 25  2  0
 25 26  1  0
 26 27  2  0
 27 28  1  0
 28 29  2  0
 18 30  2  0
 30 31  1  0
 30 32  1  0
  8 33  1  0
 33 34  2  0
 34  5  1  0
 32 14  1  0
 29 24  1  0
  1 35  1  0
  6 36  1  0
  7 37  1  0
 12 38  1  0
 12 39  1  0
 22 40  1  0
 22 41  1  0
 23 42  1  0
 23 43  1  0
 25 44  1  0
 26 45  1  0
 27 46  1  0
 28 47  1  0
 29 48  1  0
 31 49  1  0
 31 50  1  0
 33 51  1  0
 34 52  1  0
M  CHG  4   1  -1   9  -1  19  -1  32  -1
M  END
>  <UniqueID>  (49) 
48

>  <SMILES>  (49) 
[NH-]S(=O)(=O)c1ccc([N-]C(=O)CSc2nc(=O)c([N-]C(=O)CCc3ccccc3)c(N)[n-]2)cc1

>  <Energy>  (49) 
54.99650232936096

>  <Genealogy>  (49) 
[NH-]S(=O)(=O)c1ccc([N-]C(=O)CSc2nc(=O)c([N-]C(=O)CCc3ccccc3)c(N)[n-]2)cc1 (protonated)
[NH-]S(=O)(=O)c1ccc([N-]C(=O)CSc2nc(=O)c([N-]C(=O)CCc3ccccc3)c(N)[n-]2)cc1 (3D coordinates assigned)
[NH-]S(=O)(=O)c1ccc([N-]C(=O)CSc2nc(=O)c([N-]C(=O)CCc3ccccc3)c(N)[n-]2)cc1 (optimized conformer: 54.99650232936096 kcal/mol)

>  <smiles>  (49) 
Nc1[nH]c(SCC(=O)Nc2ccc(S(N)(=O)=O)cc2)nc(=O)c1NC(=O)CCc1ccccc1

>  <score_type>  (49) 
oracle

>  <origin>  (49) 
adg

>  <m_score__min__energy>  (49) 
-14.279999999999999

>  <m_primary>  (49) 
energy

$$$$
49:0
     RDKit          3D

 53 56  0  0  0  0  0  0  0  0999 V2000
   56.6650   26.9640   45.7300 C   0  0  0  0  0  0  0  0  0  0  0  0
   57.9300   27.7260   45.4330 C   0  0  0  0  0  0  0  0  0  0  0  0
   59.1630   27.1710   45.8210 C   0  0  0  0  0  0  0  0  0  0  0  0
   60.3580   27.8410   45.5580 C   0  0  0  0  0  0  0  0  0  0  0  0
   60.3380   29.0730   44.9060 C   0  0  0  0  0  0  0  0  0  0  0  0
   59.1260   29.6330   44.4990 C   0  0  0  0  0  0  0  0  0  0  0  0
   57.9140   28.9640   44.7380 C   0  0  0  0  0  0  0  0  0  0  0  0
   56.4100   29.7030   44.1580 S   0  0  0  0  0  0  0  0  0  0  0  0
   56.2740   29.5090   42.6710 O   0  0  0  0  0  0  0  0  0  0  0  0
   55.2390   29.0620   44.8490 O   0  0  0  0  0  0  0  0  0  0  0  0
   56.4010   31.3990   44.5140 N   0  0  0  0  0  0  0  0  0  0  0  0
   57.4990   32.2800   44.2640 C   0  0  0  0  0  0  0  0  0  0  0  0
   57.6940   32.6750   43.0830 O   0  0  0  0  0  0  0  0  0  0  0  0
   58.3010   32.8650   45.3670 C   0  0  0  0  0  0  0  0  0  0  0  0
   59.2900   33.8350   45.1330 C   0  0  0  0  0  0  0  0  0  0  0  0
   60.0170   34.3810   46.1940 C   0  0  0  0  0  0  0  0  0  0  0  0
   59.7640   33.9770   47.5140 C   0  0  0  0  0  0  0  0  0  0  0  0
   60.5210   34.5990   48.6680 C   0  0  0  0  0  0  0  0  0  0  0  0
   61.7780   33.8990   49.0250 N   0  0  0  0  0  0  0  0  0  0  0  0
   62.0470   33.7250   50.4650 C   0  0  0  0  0  0  0  0  0  0  0  0
   61.3510   32.5000   51.0850 C   0  0  0  0  0  0  0  0  0  0  0  0
   61.1370   31.3550   50.1270 C   0  0  0  0  0  0  0  0  0  0  0  0
   60.5320   30.1810   50.6000 C   0  0  0  0  0  0  0  0  0  0  0  0
   60.2660   29.1220   49.7310 C   0  0  0  0  0  0  0  0  0  0  0  0
   60.6080   29.2220   48.3800 C   0  0  0  0  0  0  0  0  0  0  0  0
   61.2160   30.3820   47.8980 C   0  0  0  0  0  0  0  0  0  0  0  0
   61.4670   31.4620   48.7590 C   0  0  0  0  0  0  0  0  0  0  0  0
   62.1130   32.7110   48.2210 C   0  0  0  0  0  0  0  0  0  0  0  0
   58.8170   32.9650   47.7440 C   0  0  0  0  0  0  0  0  0  0  0  0
   58.0770   32.4330   46.6860 C   0  0  0  0  0  0  0  0  0  0  0  0
   56.5322   26.8840   46.8190 H   0  0  0  0  0  0  0  0  0  0  0  0
   55.8061   27.4951   45.2939 H   0  0  0  0  0  0  0  0  0  0  0  0
   56.7329   25.9564   45.2939 H   0  0  0  0  0  0  0  0  0  0  0  0
   59.1851   26.1996   46.3366 H   0  0  0  0  0  0  0  0  0  0  0  0
   61.3164   27.3970   45.8652 H   0  0  0  0  0  0  0  0  0  0  0  0
   61.2806   29.6056   44.7116 H   0  0  0  0  0  0  0  0  0  0  0  0
   59.1198   30.6064   43.9868 H   0  0  0  0  0  0  0  0  0  0  0  0
   59.4940   34.1678   44.1046 H   0  0  0  0  0  0  0  0  0  0  0  0
   60.7938   35.1335   45.9931 H   0  0  0  0  0  0  0  0  0  0  0  0
   60.7697   35.6357   48.3972 H   0  0  0  0  0  0  0  0  0  0  0  0
   59.8636   34.5310   49.5473 H   0  0  0  0  0  0  0  0  0  0  0  0
   63.1325   33.6139   50.6038 H   0  0  0  0  0  0  0  0  0  0  0  0
   61.6453   34.6130   50.9749 H   0  0  0  0  0  0  0  0  0  0  0  0
   61.9691   32.1390   51.9202 H   0  0  0  0  0  0  0  0  0  0  0  0
   60.3526   32.8337   51.4040 H   0  0  0  0  0  0  0  0  0  0  0  0
   60.2653   30.0946   51.6637 H   0  0  0  0  0  0  0  0  0  0  0  0
   59.7865   28.2075   50.1101 H   0  0  0  0  0  0  0  0  0  0  0  0
   60.3980   28.3863   47.6962 H   0  0  0  0  0  0  0  0  0  0  0  0
   61.5001   30.4504   46.8375 H   0  0  0  0  0  0  0  0  0  0  0  0
   63.2047   32.5759   48.2258 H   0  0  0  0  0  0  0  0  0  0  0  0
   61.7354   32.8750   47.2010 H   0  0  0  0  0  0  0  0  0  0  0  0
   58.6573   32.5889   48.7653 H   0  0  0  0  0  0  0  0  0  0  0  0
   57.3117   31.6688   46.8865 H   0  0  0  0  0  0  0  0  0  0  0  0
  1  2  1  0
  2  3  2  0
  3  4  1  0
  4  5  2  0
  5  6  1  0
  6  7  2  0
  7  8  1  0
  8  9  2  0
  8 10  2  0
  8 11  1  0
 11 12  1  0
 12 13  2  0
 12 14  1  0
 14 15  2  0
 15 16  1  0
 16 17  2  0
 17 18  1  0
 18 19  1  0
 19 20  1  0
 20 21  1  0
 21 22  1  0
 22 23  2  0
 23 24  1  0
 24 25  2  0
 25 26  1  0
 26 27  2  0
 27 28  1  0
 17 29  1  0
 29 30  2  0
  7  2  1  0
 30 14  1  0
 28 19  1  0
 27 22  1  0
  1 31  1  0
  1 32  1  0
  1 33  1  0
  3 34  1  0
  4 35  1  0
  5 36  1  0
  6 37  1  0
 15 38  1  0
 16 39  1  0
 18 40  1  0
 18 41  1  0
 20 42  1  0
 20 43  1  0
 21 44  1  0
 21 45  1  0
 23 46  1  0
 24 47  1  0
 25 48  1  0
 26 49  1  0
 28 50  1  0
 28 51  1  0
 29 52  1  0
 30 53  1  0
M  CHG  1  11  -1
M  END
>  <UniqueID>  (50) 
49

>  <SMILES>  (50) 
Cc1ccccc1S(=O)(=O)[N-]C(=O)c1ccc(CN2CCc3ccccc3C2)cc1

>  <Energy>  (50) 
81.23812091739102

>  <Genealogy>  (50) 
Cc1ccccc1S(=O)(=O)[N-]C(=O)c1ccc(CN2CCc3ccccc3C2)cc1 (protonated)
Cc1ccccc1S(=O)(=O)[N-]C(=O)c1ccc(CN2CCc3ccccc3C2)cc1 (3D coordinates assigned)
Cc1ccccc1S(=O)(=O)[N-]C(=O)c1ccc(CN2CCc3ccccc3C2)cc1 (nonaromatic ring conformer: 81.23812091739102 kcal/mol)

>  <smiles>  (50) 
Cc1ccccc1S(=O)(=O)NC(=O)c1ccc(CN2CCc3ccccc3C2)cc1

>  <score_type>  (50) 
oracle

>  <origin>  (50) 
adg

>  <m_score__min__energy>  (50) 
-11.9

>  <m_primary>  (50) 
energy

$$$$
50:0
     RDKit          3D

 68 73  0  0  0  0  0  0  0  0999 V2000
   57.0080   31.2050   43.3640 O   0  0  0  0  0  0  0  0  0  0  0  0
   57.4690   30.8260   44.4730 C   0  0  0  0  0  0  0  0  0  0  0  0
   57.9310   31.8000   45.4100 N   0  0  0  0  0  0  0  0  0  0  0  0
   57.9390   33.2330   45.1370 C   0  0  0  0  0  0  0  0  0  0  0  0
   58.8650   33.9270   46.1430 C   0  0  0  0  0  0  0  0  0  0  0  0
   60.3450   33.7850   45.7650 C   0  0  0  0  0  0  0  0  0  0  0  0
   61.1760   33.4300   46.9230 N   0  0  0  0  0  0  0  0  0  0  0  0
   60.5620   33.2420   48.2090 C   0  0  0  0  0  0  0  0  0  0  0  0
   59.9290   34.3560   48.7670 C   0  0  0  0  0  0  0  0  0  0  0  0
   59.3490   34.2890   50.0120 C   0  0  0  0  0  0  0  0  0  0  0  0
   59.4560   33.1350   50.7840 C   0  0  0  0  0  0  0  0  0  0  0  0
   60.1210   31.9750   50.2720 C   0  0  0  0  0  0  0  0  0  0  0  0
   60.4680   30.9530   51.2040 C   0  0  0  0  0  0  0  0  0  0  0  0
   61.2380   29.8350   50.8770 C   0  0  0  0  0  0  0  0  0  0  0  0
   62.2820   29.4370   51.7100 O   0  0  0  0  0  0  0  0  0  0  0  0
   60.8410   28.9850   49.8540 C   0  0  0  0  0  0  0  0  0  0  0  0
   60.7750   27.5930   50.1040 C   0  0  0  0  0  0  0  0  0  0  0  0
   61.0780   27.0720   51.3590 O   0  0  0  0  0  0  0  0  0  0  0  0
   60.3460   26.7150   49.1120 C   0  0  0  0  0  0  0  0  0  0  0  0
   59.9850   27.1960   47.8650 C   0  0  0  0  0  0  0  0  0  0  0  0
   60.1050   28.5520   47.5790 C   0  0  0  0  0  0  0  0  0  0  0  0
   60.5330   29.4740   48.5660 C   0  0  0  0  0  0  0  0  0  0  0  0
   60.8370   30.7850   48.1530 C   0  0  0  0  0  0  0  0  0  0  0  0
   61.3230   30.8830   46.9920 O   0  0  0  0  0  0  0  0  0  0  0  0
   60.5520   31.9780   48.8940 C   0  0  0  0  0  0  0  0  0  0  0  0
   59.9800   31.0160   52.6140 C   0  0  0  0  0  0  0  0  0  0  0  0
   60.2920   30.1140   53.4450 O   0  0  0  0  0  0  0  0  0  0  0  0
   59.0640   32.0440   53.0130 N   0  0  0  0  0  0  0  0  0  0  0  0
   58.1290   31.8020   54.1190 C   0  0  0  0  0  0  0  0  0  0  0  0
   56.9310   31.0490   53.6070 C   0  0  0  0  0  0  0  0  0  0  0  0
   56.6110   29.7910   54.1370 C   0  0  0  0  0  0  0  0  0  0  0  0
   55.5450   29.0600   53.6050 C   0  0  0  0  0  0  0  0  0  0  0  0
   54.8050   29.5720   52.5310 C   0  0  0  0  0  0  0  0  0  0  0  0
   55.1270   30.8200   51.9900 C   0  0  0  0  0  0  0  0  0  0  0  0
   56.1950   31.5520   52.5190 C   0  0  0  0  0  0  0  0  0  0  0  0
   58.8820   33.1610   52.1450 C   0  0  0  0  0  0  0  0  0  0  0  0
   58.2320   34.1680   52.5470 O   0  0  0  0  0  0  0  0  0  0  0  0
   57.4960   29.3820   44.8180 C   0  0  0  0  0  0  0  0  0  0  0  0
   56.3210   28.7490   45.2630 C   0  0  0  0  0  0  0  0  0  0  0  0
   56.3180   27.3850   45.5650 C   0  0  0  0  0  0  0  0  0  0  0  0
   55.1450   26.7720   45.9900 O   0  0  0  0  0  0  0  0  0  0  0  0
   57.4910   26.6370   45.4380 C   0  0  0  0  0  0  0  0  0  0  0  0
   58.6660   27.2480   45.0130 C   0  0  0  0  0  0  0  0  0  0  0  0
   58.6810   28.6120   44.7050 C   0  0  0  0  0  0  0  0  0  0  0  0
   59.8830   29.1890   44.3040 O   0  0  0  0  0  0  0  0  0  0  0  0
   58.3044   33.4118   44.1150 H   0  0  0  0  0  0  0  0  0  0  0  0
   56.9195   33.6352   45.2311 H   0  0  0  0  0  0  0  0  0  0  0  0
   58.6101   34.9964   46.1793 H   0  0  0  0  0  0  0  0  0  0  0  0
   58.7197   33.4463   47.1217 H   0  0  0  0  0  0  0  0  0  0  0  0
   60.4431   32.9981   45.0026 H   0  0  0  0  0  0  0  0  0  0  0  0
   60.6928   34.7555   45.3814 H   0  0  0  0  0  0  0  0  0  0  0  0
   62.1710   33.1370   46.7820 H   0  0  0  0  0  0  0  0  0  0  0  0
   59.8942   35.2995   48.2025 H   0  0  0  0  0  0  0  0  0  0  0  0
   58.7950   35.1556   50.4020 H   0  0  0  0  0  0  0  0  0  0  0  0
   62.1860   28.6520   52.3470 H   0  0  0  0  0  0  0  0  0  0  0  0
   60.2938   25.6361   49.3198 H   0  0  0  0  0  0  0  0  0  0  0  0
   59.6027   26.5049   47.0993 H   0  0  0  0  0  0  0  0  0  0  0  0
   59.8634   28.9148   46.5690 H   0  0  0  0  0  0  0  0  0  0  0  0
   58.6291   31.2089   54.8989 H   0  0  0  0  0  0  0  0  0  0  0  0
   57.8042   32.7641   54.5419 H   0  0  0  0  0  0  0  0  0  0  0  0
   57.1985   29.3796   54.9710 H   0  0  0  0  0  0  0  0  0  0  0  0
   55.2861   28.0794   54.0310 H   0  0  0  0  0  0  0  0  0  0  0  0
   53.9696   28.9911   52.1130 H   0  0  0  0  0  0  0  0  0  0  0  0
   54.5423   31.2251   51.1509 H   0  0  0  0  0  0  0  0  0  0  0  0
   56.4607   32.5259   52.0820 H   0  0  0  0  0  0  0  0  0  0  0  0
   55.3959   29.3336   45.3742 H   0  0  0  0  0  0  0  0  0  0  0  0
   57.4854   25.5628   45.6746 H   0  0  0  0  0  0  0  0  0  0  0  0
   59.5879   26.6554   44.9187 H   0  0  0  0  0  0  0  0  0  0  0  0
  1  2  2  0
  2  3  1  0
  3  4  1  0
  4  5  1  0
  5  6  1  0
  6  7  1  0
  7  8  1  0
  8  9  2  0
  9 10  1  0
 10 11  2  0
 11 12  1  0
 12 13  1  0
 13 14  2  0
 14 15  1  0
 14 16  1  0
 16 17  2  0
 17 18  1  0
 17 19  1  0
 19 20  2  0
 20 21  1  0
 21 22  2  0
 22 23  1  0
 23 24  2  0
 23 25  1  0
 13 26  1  0
 26 27  2  0
 26 28  1  0
 28 29  1  0
 29 30  1  0
 30 31  2  0
 31 32  1  0
 32 33  2  0
 33 34  1  0
 34 35  2  0
 28 36  1  0
 36 37  2  0
  2 38  1  0
 38 39  2  0
 39 40  1  0
 40 41  1  0
 40 42  2  0
 42 43  1  0
 43 44  2  0
 44 45  1  0
 25  8  1  0
 35 30  1  0
 44 38  1  0
 36 11  1  0
 25 12  2  0
 22 16  1  0
  4 46  1  0
  4 47  1  0
  5 48  1  0
  5 49  1  0
  6 50  1  0
  6 51  1  0
  7 52  1  0
  9 53  1  0
 10 54  1  0
 15 55  1  0
 19 56  1  0
 20 57  1  0
 21 58  1  0
 29 59  1  0
 29 60  1  0
 31 61  1  0
 32 62  1  0
 33 63  1  0
 34 64  1  0
 35 65  1  0
 39 66  1  0
 42 67  1  0
 43 68  1  0
M  CHG  4   3  -1  18  -1  41  -1  45  -1
M  END
>  <UniqueID>  (51) 
50

>  <SMILES>  (51) 
O=C([N-]CCCNc1ccc2c3c(c(O)c4c([O-])cccc4c(=O)c13)C(=O)N(Cc1ccccc1)C2=O)c1cc([O-])ccc1[O-]

>  <Energy>  (51) 
158.8924435513467

>  <Genealogy>  (51) 
O=C([N-]CCCNc1ccc2c3c(c(O)c4c([O-])cccc4c(=O)c13)C(=O)N(Cc1ccccc1)C2=O)c1cc([O-])ccc1[O-] (protonated)
O=C([N-]CCCNc1ccc2c3c(c(O)c4c([O-])cccc4c(=O)c13)C(=O)N(Cc1ccccc1)C2=O)c1cc([O-])ccc1[O-] (3D coordinates assigned)
O=C([N-]CCCNc1ccc2c3c(c(O)c4c([O-])cccc4c(=O)c13)C(=O)N(Cc1ccccc1)C2=O)c1cc([O-])ccc1[O-] (nonaromatic ring conformer: 158.8924435513467 kcal/mol)

>  <smiles>  (51) 
O=C(NCCCNc1ccc2c3c(c(O)c4c(O)cccc4c(=O)c13)C(=O)N(Cc1ccccc1)C2=O)c1cc(O)ccc1O

>  <score_type>  (51) 
oracle

>  <origin>  (51) 
adg

>  <m_score__min__energy>  (51) 
-15.83

>  <m_primary>  (51) 
energy

$$$$
51:0
     RDKit          3D

 53 56  0  0  0  0  0  0  0  0999 V2000
   59.3865   26.8456   48.0532 H   0  0  0  0  0  0  0  0  0  0  0  0
   58.6110   27.1750   47.3460 C   0  0  0  0  0  0  0  0  0  0  0  0
   57.7570   31.2790   45.8680 N   0  0  0  0  0  0  0  0  0  0  0  0
   57.7590   32.5180   45.3050 C   0  0  0  0  0  0  0  0  0  0  0  0
   57.7530   33.5570   46.0930 N   0  0  0  0  0  0  0  0  0  0  0  0
   55.6420   24.6080   45.2730 C   0  0  1  0  0  0  0  0  0  0  0  0
   54.7196   24.4722   44.6893 H   0  0  0  0  0  0  0  0  0  0  0  0
   56.8430   24.6480   44.3010 C   0  0  0  0  0  0  0  0  0  0  0  0
   56.5643   25.2467   43.4213 H   0  0  0  0  0  0  0  0  0  0  0  0
   57.6933   25.0906   44.8406 H   0  0  0  0  0  0  0  0  0  0  0  0
   57.2530   23.3020   43.8470 N   0  0  0  0  0  0  0  0  0  0  0  0
   56.2570   22.6980   42.9440 C   0  0  0  0  0  0  0  0  0  0  0  0
   55.4659   22.2183   43.5390 H   0  0  0  0  0  0  0  0  0  0  0  0
   55.8152   23.4804   42.3095 H   0  0  0  0  0  0  0  0  0  0  0  0
   56.7466   21.9445   42.3095 H   0  0  0  0  0  0  0  0  0  0  0  0
   57.6380   22.3890   44.9540 C   0  0  0  0  0  0  0  0  0  0  0  0
   57.2226   21.3931   44.7406 H   0  0  0  0  0  0  0  0  0  0  0  0
   58.7371   22.3906   44.9984 H   0  0  0  0  0  0  0  0  0  0  0  0
   57.1370   22.8350   46.3410 C   0  0  0  0  0  0  0  0  0  0  0  0
   57.1314   21.9679   47.0178 H   0  0  0  0  0  0  0  0  0  0  0  0
   57.8102   23.6165   46.7231 H   0  0  0  0  0  0  0  0  0  0  0  0
   55.7240   23.4090   46.2520 C   0  0  0  0  0  0  0  0  0  0  0  0
   55.0418   22.6195   45.9038 H   0  0  0  0  0  0  0  0  0  0  0  0
   55.4410   23.7686   47.2523 H   0  0  0  0  0  0  0  0  0  0  0  0
   57.7670   32.6300   43.9000 C   0  0  0  0  0  0  0  0  0  0  0  0
   57.7810   33.6207   43.4222 H   0  0  0  0  0  0  0  0  0  0  0  0
   57.7210   28.8280   45.8200 C   0  0  0  0  0  0  0  0  0  0  0  0
   57.7650   30.1350   45.1300 C   0  0  0  0  0  0  0  0  0  0  0  0
   57.5580   26.3620   47.0720 N   0  0  0  0  0  0  0  0  0  0  0  0
   56.5700   26.7170   46.2100 C   0  0  0  0  0  0  0  0  0  0  0  0
   55.5920   25.8770   46.0080 N   0  0  0  0  0  0  0  0  0  0  0  0
   58.7300   34.6480   46.1290 C   0  0  0  0  0  0  0  0  0  0  0  0
   59.0681   34.8632   45.1046 H   0  0  0  0  0  0  0  0  0  0  0  0
   58.2513   35.5354   46.5688 H   0  0  0  0  0  0  0  0  0  0  0  0
   59.9210   34.2730   46.9740 C   0  0  0  0  0  0  0  0  0  0  0  0
   59.8140   34.2520   48.3750 C   0  0  0  0  0  0  0  0  0  0  0  0
   58.8607   34.5168   48.8557 H   0  0  0  0  0  0  0  0  0  0  0  0
   60.9140   33.8960   49.1600 C   0  0  0  0  0  0  0  0  0  0  0  0
   60.8263   33.8882   50.2565 H   0  0  0  0  0  0  0  0  0  0  0  0
   62.1250   33.5500   48.5550 C   0  0  0  0  0  0  0  0  0  0  0  0
   62.9904   33.2736   49.1753 H   0  0  0  0  0  0  0  0  0  0  0  0
   62.2370   33.5550   47.1620 C   0  0  0  0  0  0  0  0  0  0  0  0
   63.4110   33.2150   46.5750 F   0  0  0  0  0  0  0  0  0  0  0  0
   61.1390   33.9110   46.3720 C   0  0  0  0  0  0  0  0  0  0  0  0
   61.2287   33.9078   45.2757 H   0  0  0  0  0  0  0  0  0  0  0  0
   56.6380   27.9710   45.5690 C   0  0  0  0  0  0  0  0  0  0  0  0
   55.8432   28.2774   44.8730 H   0  0  0  0  0  0  0  0  0  0  0  0
   57.7570   31.4730   43.1210 C   0  0  0  0  0  0  0  0  0  0  0  0
   57.7562   31.5500   42.0237 H   0  0  0  0  0  0  0  0  0  0  0  0
   57.7480   30.2200   43.7300 C   0  0  0  0  0  0  0  0  0  0  0  0
   57.7278   29.3058   43.1186 H   0  0  0  0  0  0  0  0  0  0  0  0
   58.7150   28.4270   46.7350 C   0  0  0  0  0  0  0  0  0  0  0  0
   60.0480   29.4780   47.2020 Cl  0  0  0  0  0  0  0  0  0  0  0  0
  1  2  1  0
  2  3  1  0
  3  4  1  0
  4  5  2  0
  5  6  1  0
  6  7  1  6
  6  8  1  0
  8  9  1  0
  8 10  1  0
  8 11  1  0
 11 12  1  0
 12 13  1  0
 12 14  1  0
 12 15  1  0
 11 16  1  0
 16 17  1  0
 16 18  1  0
 16 19  1  0
 19 20  1  0
 19 21  1  0
 19 22  1  0
 22 23  1  0
 22 24  1  0
  4 25  1  0
 25 26  1  0
 25 27  2  0
 27 28  1  0
 28 29  1  0
 29 30  1  0
 30 31  2  0
 31 32  1  0
 32 33  1  0
 32 34  1  0
 32 35  1  0
 35 36  2  0
 36 37  1  0
 36 38  1  0
 38 39  1  0
 38 40  2  0
 40 41  1  0
 40 42  1  0
 42 43  1  0
 42 44  2  0
 44 45  1  0
 30 46  1  0
 46 47  1  0
 46 48  2  0
 48 49  1  0
 48 50  1  0
 50 51  1  0
 27 52  1  0
 52 53  1  0
 52  2  2  0
 22  6  1  0
 50 28  2  0
 44 35  1  0
M  CHG  2   3  -1  29  -1
M  END
>  <UniqueID>  (52) 
51

>  <SMILES>  (52) 
CN1CCC[C@@H](/N=c2\cc(-c3ccc/c(=N\Cc4cccc(F)c4)[n-]3)c(Cl)c[n-]2)C1

>  <Energy>  (52) 
76.72465449550604

>  <Genealogy>  (52) 
CN1CCCC(N=c2cc(-c3cccc(=NCc4cccc(F)c4)[n-]3)c(Cl)c[n-]2)C1 (protonated)
CN1CCC[C@@H](N=c2cc(-c3cccc(=NCc4cccc(F)c4)[n-]3)c(Cl)c[n-]2)C1 (chirality)
CN1CCC[C@@H](/N=c2\cc(-c3ccc/c(=N\Cc4cccc(F)c4)[n-]3)c(Cl)c[n-]2)C1 (cis-trans isomerization)
CN1CCC[C@@H](/N=c2\cc(-c3ccc/c(=N\Cc4cccc(F)c4)[n-]3)c(Cl)c[n-]2)C1 (3D coordinates assigned)
CN1CCC[C@@H](/N=c2\cc(-c3ccc/c(=N\Cc4cccc(F)c4)[n-]3)c(Cl)c[n-]2)C1 (nonaromatic ring conformer: 76.72465449550604 kcal/mol)

>  <smiles>  (52) 
CN1CCCC(N=c2cc(-c3cccc(=NCc4cccc(F)c4)[nH]3)c(Cl)c[nH]2)C1

>  <score_type>  (52) 
oracle

>  <origin>  (52) 
adg

>  <m_score__min__energy>  (52) 
-12.07

>  <m_primary>  (52) 
energy

$$$$
52:0
     RDKit          3D

 71 74  0  0  0  0  0  0  0  0999 V2000
   61.1140   27.9160   51.0170 C   0  0  0  0  0  0  0  0  0  0  0  0
   61.1760   27.8920   49.5950 O   0  0  0  0  0  0  0  0  0  0  0  0
   60.1410   28.3240   48.7490 C   0  0  0  0  0  0  0  0  0  0  0  0
   59.6960   27.4520   47.7500 C   0  0  0  0  0  0  0  0  0  0  0  0
   58.6920   27.8460   46.8600 C   0  0  0  0  0  0  0  0  0  0  0  0
   58.1270   29.1260   46.9530 C   0  0  0  0  0  0  0  0  0  0  0  0
   57.1110   29.5610   46.0430 N   0  0  0  0  0  0  0  0  0  0  0  0
   57.4160   30.6000   44.6870 S   0  0  0  0  0  0  0  0  0  0  0  0
   58.3580   29.9000   43.7450 O   0  0  0  0  0  0  0  0  0  0  0  0
   56.1250   30.8500   43.9550 O   0  0  0  0  0  0  0  0  0  0  0  0
   58.1420   32.1280   45.1800 C   0  0  0  0  0  0  0  0  0  0  0  0
   57.6070   33.3410   44.7280 C   0  0  0  0  0  0  0  0  0  0  0  0
   58.1990   34.5480   45.1010 C   0  0  0  0  0  0  0  0  0  0  0  0
   59.3440   34.5520   45.9030 C   0  0  0  0  0  0  0  0  0  0  0  0
   59.9070   33.3420   46.3460 C   0  0  0  0  0  0  0  0  0  0  0  0
   61.1630   33.3490   47.1310 C   0  0  0  0  0  0  0  0  0  0  0  0
   62.1510   34.0110   46.7140 O   0  0  0  0  0  0  0  0  0  0  0  0
   61.2660   32.6000   48.3540 N   0  0  0  0  0  0  0  0  0  0  0  0
   62.4690   32.5390   49.1310 C   0  0  0  0  0  0  0  0  0  0  0  0
   63.6600   33.0570   48.5960 C   0  0  0  0  0  0  0  0  0  0  0  0
   64.8540   32.9730   49.3130 C   0  0  0  0  0  0  0  0  0  0  0  0
   64.8690   32.3780   50.5750 C   0  0  0  0  0  0  0  0  0  0  0  0
   63.6940   31.8590   51.1190 C   0  0  0  0  0  0  0  0  0  0  0  0
   62.4860   31.9130   50.4020 C   0  0  0  0  0  0  0  0  0  0  0  0
   61.2240   31.3970   51.0610 C   0  0  0  0  0  0  0  0  0  0  0  0
   60.2700   32.4930   51.3080 N   0  0  0  0  0  0  0  0  0  0  0  0
   60.4140   33.3300   52.5040 C   0  0  0  0  0  0  0  0  0  0  0  0
   59.1450   32.7360   50.4330 C   0  0  0  0  0  0  0  0  0  0  0  0
   59.2470   33.6020   49.5190 O   0  0  0  0  0  0  0  0  0  0  0  0
   57.8350   32.0140   50.6030 C   0  0  0  0  0  0  0  0  0  0  0  0
   57.4440   31.9690   52.0140 N   0  0  0  0  0  0  0  0  0  0  0  0
   57.0340   30.3480   52.4920 S   0  0  0  0  0  0  0  0  0  0  0  0
   57.7400   29.3610   51.6040 O   0  0  0  0  0  0  0  0  0  0  0  0
   57.4880   30.1220   53.9070 O   0  0  0  0  0  0  0  0  0  0  0  0
   55.2930   30.0940   52.3960 C   0  0  0  0  0  0  0  0  0  0  0  0
   54.7080   29.0200   53.0840 C   0  0  0  0  0  0  0  0  0  0  0  0
   53.3250   28.8140   53.0200 C   0  0  0  0  0  0  0  0  0  0  0  0
   52.5220   29.6790   52.2700 C   0  0  0  0  0  0  0  0  0  0  0  0
   53.1000   30.7580   51.5920 C   0  0  0  0  0  0  0  0  0  0  0  0
   54.4820   30.9690   51.6570 C   0  0  0  0  0  0  0  0  0  0  0  0
   59.2700   32.1330   46.0110 C   0  0  0  0  0  0  0  0  0  0  0  0
   58.5370   29.9850   47.9800 C   0  0  0  0  0  0  0  0  0  0  0  0
   59.5440   29.5940   48.8690 C   0  0  0  0  0  0  0  0  0  0  0  0
   62.0641   27.5482   51.4317 H   0  0  0  0  0  0  0  0  0  0  0  0
   60.9392   28.9468   51.3590 H   0  0  0  0  0  0  0  0  0  0  0  0
   60.2908   27.2716   51.3590 H   0  0  0  0  0  0  0  0  0  0  0  0
   60.1391   26.4489   47.6638 H   0  0  0  0  0  0  0  0  0  0  0  0
   58.3439   27.1488   46.0836 H   0  0  0  0  0  0  0  0  0  0  0  0
   56.7193   33.3420   44.0784 H   0  0  0  0  0  0  0  0  0  0  0  0
   57.7633   35.4998   44.7629 H   0  0  0  0  0  0  0  0  0  0  0  0
   59.8074   35.5076   46.1893 H   0  0  0  0  0  0  0  0  0  0  0  0
   60.4680   32.0060   48.6630 H   0  0  0  0  0  0  0  0  0  0  0  0
   63.6513   33.5325   47.6041 H   0  0  0  0  0  0  0  0  0  0  0  0
   65.7832   33.3757   48.8835 H   0  0  0  0  0  0  0  0  0  0  0  0
   65.8096   32.3180   51.1422 H   0  0  0  0  0  0  0  0  0  0  0  0
   63.7129   31.4026   52.1197 H   0  0  0  0  0  0  0  0  0  0  0  0
   60.7533   30.6521   50.4025 H   0  0  0  0  0  0  0  0  0  0  0  0
   61.4935   30.9433   52.0262 H   0  0  0  0  0  0  0  0  0  0  0  0
   60.3066   32.7059   53.4034 H   0  0  0  0  0  0  0  0  0  0  0  0
   61.4068   33.8036   52.5027 H   0  0  0  0  0  0  0  0  0  0  0  0
   59.6365   34.1082   52.5027 H   0  0  0  0  0  0  0  0  0  0  0  0
   57.0568   32.5394   50.0299 H   0  0  0  0  0  0  0  0  0  0  0  0
   57.9509   30.9833   50.2366 H   0  0  0  0  0  0  0  0  0  0  0  0
   55.3376   28.3385   53.6749 H   0  0  0  0  0  0  0  0  0  0  0  0
   52.8694   27.9710   53.5601 H   0  0  0  0  0  0  0  0  0  0  0  0
   51.4364   29.5113   52.2130 H   0  0  0  0  0  0  0  0  0  0  0  0
   52.4671   31.4415   51.0070 H   0  0  0  0  0  0  0  0  0  0  0  0
   54.9330   31.8216   51.1283 H   0  0  0  0  0  0  0  0  0  0  0  0
   59.6611   31.1834   46.4050 H   0  0  0  0  0  0  0  0  0  0  0  0
   58.0648   30.9726   48.0884 H   0  0  0  0  0  0  0  0  0  0  0  0
   59.8705   30.2805   49.6641 H   0  0  0  0  0  0  0  0  0  0  0  0
  1  2  1  0
  2  3  1  0
  3  4  2  0
  4  5  1  0
  5  6  2  0
  6  7  1  0
  7  8  1  0
  8  9  2  0
  8 10  2  0
  8 11  1  0
 11 12  2  0
 12 13  1  0
 13 14  2  0
 14 15  1  0
 15 16  1  0
 16 17  2  0
 16 18  1  0
 18 19  1  0
 19 20  2  0
 20 21  1  0
 21 22  2  0
 22 23  1  0
 23 24  2  0
 24 25  1  0
 25 26  1  0
 26 27  1  0
 26 28  1  0
 28 29  2  0
 28 30  1  0
 30 31  1  0
 31 32  1  0
 32 33  2  0
 32 34  2  0
 32 35  1  0
 35 36  2  0
 36 37  1  0
 37 38  2  0
 38 39  1  0
 39 40  2  0
 15 41  2  0
  6 42  1  0
 42 43  2  0
 43  3  1  0
 41 11  1  0
 24 19  1  0
 40 35  1  0
  1 44  1  0
  1 45  1  0
  1 46  1  0
  4 47  1  0
  5 48  1  0
 12 49  1  0
 13 50  1  0
 14 51  1  0
 18 52  1  0
 20 53  1  0
 21 54  1  0
 22 55  1  0
 23 56  1  0
 25 57  1  0
 25 58  1  0
 27 59  1  0
 27 60  1  0
 27 61  1  0
 30 62  1  0
 30 63  1  0
 36 64  1  0
 37 65  1  0
 38 66  1  0
 39 67  1  0
 40 68  1  0
 41 69  1  0
 42 70  1  0
 43 71  1  0
M  CHG  2   7  -1  31  -1
M  END
>  <UniqueID>  (53) 
52

>  <SMILES>  (53) 
COc1ccc([N-]S(=O)(=O)c2cccc(C(=O)Nc3ccccc3CN(C)C(=O)C[N-]S(=O)(=O)c3ccccc3)c2)cc1

>  <Energy>  (53) 
81.22617241745559

>  <Genealogy>  (53) 
COc1ccc([N-]S(=O)(=O)c2cccc(C(=O)Nc3ccccc3CN(C)C(=O)C[N-]S(=O)(=O)c3ccccc3)c2)cc1 (protonated)
COc1ccc([N-]S(=O)(=O)c2cccc(C(=O)Nc3ccccc3CN(C)C(=O)C[N-]S(=O)(=O)c3ccccc3)c2)cc1 (3D coordinates assigned)
COc1ccc([N-]S(=O)(=O)c2cccc(C(=O)Nc3ccccc3CN(C)C(=O)C[N-]S(=O)(=O)c3ccccc3)c2)cc1 (optimized conformer: 81.22617241745559 kcal/mol)

>  <smiles>  (53) 
COc1ccc(NS(=O)(=O)c2cccc(C(=O)Nc3ccccc3CN(C)C(=O)CNS(=O)(=O)c3ccccc3)c2)cc1

>  <score_type>  (53) 
oracle

>  <origin>  (53) 
adg

>  <m_score__min__energy>  (53) 
-12.83

>  <m_primary>  (53) 
energy

$$$$
53:0
     RDKit          3D

 54 57  0  0  0  0  0  0  0  0999 V2000
   57.5220   22.8170   44.7380 C   0  0  0  0  0  0  0  0  0  0  0  0
   56.7440   24.1400   44.5830 C   0  0  2  0  0  0  0  0  0  0  0  0
   57.3870   25.0300   43.4830 C   0  0  0  0  0  0  0  0  0  0  0  0
   58.1060   26.2820   44.0170 C   0  0  0  0  0  0  0  0  0  0  0  0
   58.8550   25.9930   45.3240 C   0  0  0  0  0  0  0  0  0  0  0  0
   57.9310   25.4530   46.4470 C   0  0  1  0  0  0  0  0  0  0  0  0
   57.7510   26.4520   47.5080 N   0  0  0  0  0  0  0  0  0  0  0  0
   58.2810   27.7830   47.5160 C   0  0  0  0  0  0  0  0  0  0  0  0
   58.7970   28.2610   48.5580 O   0  0  0  0  0  0  0  0  0  0  0  0
   58.1040   28.6340   46.3340 C   0  0  0  0  0  0  0  0  0  0  0  0
   57.0940   28.4880   45.4860 O   0  0  0  0  0  0  0  0  0  0  0  0
   57.1560   29.4630   44.6080 C   0  0  0  0  0  0  0  0  0  0  0  0
   56.2790   29.7180   43.5490 C   0  0  0  0  0  0  0  0  0  0  0  0
   56.5280   30.8430   42.7400 C   0  0  0  0  0  0  0  0  0  0  0  0
   57.6410   31.6760   42.9970 C   0  0  0  0  0  0  0  0  0  0  0  0
   58.5160   31.3890   44.0690 C   0  0  0  0  0  0  0  0  0  0  0  0
   58.2310   30.2750   44.8640 C   0  0  0  0  0  0  0  0  0  0  0  0
   58.8630   29.7430   45.9720 C   0  0  0  0  0  0  0  0  0  0  0  0
   60.0600   30.2400   46.5810 N   0  0  0  0  0  0  0  0  0  0  0  0
   60.2240   31.6340   46.8960 C   0  0  0  0  0  0  0  0  0  0  0  0
   59.2220   32.4080   46.8810 O   0  0  0  0  0  0  0  0  0  0  0  0
   61.5400   32.1610   47.3040 C   0  0  0  0  0  0  0  0  0  0  0  0
   62.0210   33.3760   46.7710 C   0  0  0  0  0  0  0  0  0  0  0  0
   63.2470   33.8990   47.1960 C   0  0  0  0  0  0  0  0  0  0  0  0
   64.0080   33.2050   48.1440 C   0  0  0  0  0  0  0  0  0  0  0  0
   63.5480   31.9900   48.6640 C   0  0  0  0  0  0  0  0  0  0  0  0
   62.3130   31.4750   48.2580 C   0  0  0  0  0  0  0  0  0  0  0  0
   56.5720   24.9180   45.9260 C   0  0  2  0  0  0  0  0  0  0  0  0
   55.8550   24.0830   46.9900 C   0  0  0  0  0  0  0  0  0  0  0  0
   57.6541   22.5924   45.8067 H   0  0  0  0  0  0  0  0  0  0  0  0
   56.9591   22.0023   44.2589 H   0  0  0  0  0  0  0  0  0  0  0  0
   58.5075   22.9129   44.2589 H   0  0  0  0  0  0  0  0  0  0  0  0
   55.7260   23.8713   44.2645 H   0  0  0  0  0  0  0  0  0  0  0  0
   58.1195   24.4212   42.9327 H   0  0  0  0  0  0  0  0  0  0  0  0
   56.5632   25.3882   42.8481 H   0  0  0  0  0  0  0  0  0  0  0  0
   58.8273   26.6279   43.2620 H   0  0  0  0  0  0  0  0  0  0  0  0
   57.3474   27.0522   44.2201 H   0  0  0  0  0  0  0  0  0  0  0  0
   59.6354   25.2445   45.1223 H   0  0  0  0  0  0  0  0  0  0  0  0
   59.2791   26.9446   45.6768 H   0  0  0  0  0  0  0  0  0  0  0  0
   58.4455   24.5812   46.8773 H   0  0  0  0  0  0  0  0  0  0  0  0
   55.4201   29.0591   43.3539 H   0  0  0  0  0  0  0  0  0  0  0  0
   55.8528   31.0752   41.9032 H   0  0  0  0  0  0  0  0  0  0  0  0
   57.8270   32.5525   42.3589 H   0  0  0  0  0  0  0  0  0  0  0  0
   59.3928   32.0216   44.2713 H   0  0  0  0  0  0  0  0  0  0  0  0
   60.7120   29.5540   47.0230 H   0  0  0  0  0  0  0  0  0  0  0  0
   61.4285   33.9149   46.0170 H   0  0  0  0  0  0  0  0  0  0  0  0
   63.6118   34.8525   46.7865 H   0  0  0  0  0  0  0  0  0  0  0  0
   64.9709   33.6161   48.4814 H   0  0  0  0  0  0  0  0  0  0  0  0
   64.1593   31.4388   49.3938 H   0  0  0  0  0  0  0  0  0  0  0  0
   61.9450   30.5308   48.6859 H   0  0  0  0  0  0  0  0  0  0  0  0
   55.9290   25.7849   45.7138 H   0  0  0  0  0  0  0  0  0  0  0  0
   56.1529   24.4299   47.9905 H   0  0  0  0  0  0  0  0  0  0  0  0
   54.7671   24.1947   46.8720 H   0  0  0  0  0  0  0  0  0  0  0  0
   56.1299   23.0244   46.8720 H   0  0  0  0  0  0  0  0  0  0  0  0
  1  2  1  0
  2  3  1  0
  3  4  1  0
  4  5  1  0
  5  6  1  0
  6  7  1  0
  7  8  1  0
  8  9  2  0
  8 10  1  0
 10 11  1  0
 11 12  1  0
 12 13  2  0
 13 14  1  0
 14 15  2  0
 15 16  1  0
 16 17  2  0
 17 18  1  0
 18 19  1  0
 19 20  1  0
 20 21  2  0
 20 22  1  0
 22 23  2  0
 23 24  1  0
 24 25  2  0
 25 26  1  0
 26 27  2  0
  6 28  1  0
 28 29  1  0
 28  2  1  0
 18 10  2  0
 27 22  1  0
 17 12  1  0
  1 30  1  0
  1 31  1  0
  1 32  1  0
  2 33  1  6
  3 34  1  0
  3 35  1  0
  4 36  1  0
  4 37  1  0
  5 38  1  0
  5 39  1  0
  6 40  1  1
 13 41  1  0
 14 42  1  0
 15 43  1  0
 16 44  1  0
 19 45  1  0
 23 46  1  0
 24 47  1  0
 25 48  1  0
 26 49  1  0
 27 50  1  0
 28 51  1  6
 29 52  1  0
 29 53  1  0
 29 54  1  0
M  CHG  1   7  -1
M  END
>  <UniqueID>  (54) 
53

>  <SMILES>  (54) 
CC1[C@H](C)CCC[C@H]1[N-]C(=O)c1oc2ccccc2c1NC(=O)c1ccccc1

>  <Energy>  (54) 
104.8179090939935

>  <Genealogy>  (54) 
CC1CCCC([N-]C(=O)c2oc3ccccc3c2NC(=O)c2ccccc2)C1C (protonated)
CC1[C@H](C)CCC[C@H]1[N-]C(=O)c1oc2ccccc2c1NC(=O)c1ccccc1 (chirality)
CC1[C@H](C)CCC[C@H]1[N-]C(=O)c1oc2ccccc2c1NC(=O)c1ccccc1 (3D coordinates assigned)
CC1[C@H](C)CCC[C@H]1[N-]C(=O)c1oc2ccccc2c1NC(=O)c1ccccc1 (nonaromatic ring conformer: 104.8179090939935 kcal/mol)

>  <smiles>  (54) 
CC1CCCC(NC(=O)c2oc3ccccc3c2NC(=O)c2ccccc2)C1C

>  <score_type>  (54) 
oracle

>  <origin>  (54) 
adg

>  <m_score__min__energy>  (54) 
-10.18

>  <m_primary>  (54) 
energy

$$$$
54:0
     RDKit          3D

 43 45  0  0  0  0  0  0  0  0999 V2000
   58.6690   25.8411   44.4639 H   0  0  0  0  0  0  0  0  0  0  0  0
   58.6720   26.9150   44.7020 C   0  0  0  0  0  0  0  0  0  0  0  0
   59.5780   27.4190   45.6380 C   0  0  0  0  0  0  0  0  0  0  0  0
   60.2853   26.7383   46.1343 H   0  0  0  0  0  0  0  0  0  0  0  0
   59.5930   28.7910   45.9510 C   0  0  0  0  0  0  0  0  0  0  0  0
   60.5510   29.3250   46.9490 C   0  0  0  0  0  0  0  0  0  0  0  0
   60.6600   28.7640   48.0720 O   0  0  0  0  0  0  0  0  0  0  0  0
   61.2760   30.5350   46.6650 N   0  0  0  0  0  0  0  0  0  0  0  0
   61.7120   31.4510   47.4880 C   0  0  0  0  0  0  0  0  0  0  0  0
   62.5820   32.4880   47.0890 C   0  0  0  0  0  0  0  0  0  0  0  0
   62.9279   32.5497   46.0466 H   0  0  0  0  0  0  0  0  0  0  0  0
   63.0010   33.4350   48.0250 C   0  0  0  0  0  0  0  0  0  0  0  0
   63.6848   34.2419   47.7228 H   0  0  0  0  0  0  0  0  0  0  0  0
   62.5530   33.3580   49.3420 C   0  0  0  0  0  0  0  0  0  0  0  0
   63.0720   34.5450   50.5260 Cl  0  0  0  0  0  0  0  0  0  0  0  0
   61.6770   32.3350   49.7040 C   0  0  0  0  0  0  0  0  0  0  0  0
   61.3098   32.2685   50.7388 H   0  0  0  0  0  0  0  0  0  0  0  0
   61.2750   31.4190   48.7820 N   0  0  0  0  0  0  0  0  0  0  0  0
   60.6180   30.6650   49.0870 H   0  0  0  0  0  0  0  0  0  0  0  0
   58.6850   29.6460   45.3000 C   0  0  0  0  0  0  0  0  0  0  0  0
   58.6919   30.7222   45.5273 H   0  0  0  0  0  0  0  0  0  0  0  0
   57.7710   29.1400   44.3640 C   0  0  0  0  0  0  0  0  0  0  0  0
   56.6190   30.2070   43.5630 S   0  0  0  0  0  0  0  0  0  0  0  0
   56.1960   29.6240   42.2420 O   0  0  0  0  0  0  0  0  0  0  0  0
   55.3920   30.3480   44.4210 O   0  0  0  0  0  0  0  0  0  0  0  0
   57.3390   31.7710   43.2990 N   0  0  0  0  0  0  0  0  0  0  0  0
   57.8720   32.5300   44.4050 C   0  0  0  0  0  0  0  0  0  0  0  0
   57.3920   32.3260   45.7110 C   0  0  0  0  0  0  0  0  0  0  0  0
   56.6055   31.5787   45.8924 H   0  0  0  0  0  0  0  0  0  0  0  0
   57.9060   33.0650   46.7810 C   0  0  0  0  0  0  0  0  0  0  0  0
   57.5259   32.8939   47.7990 H   0  0  0  0  0  0  0  0  0  0  0  0
   58.9010   34.0200   46.5600 C   0  0  0  0  0  0  0  0  0  0  0  0
   59.5440   34.9470   47.9030 Cl  0  0  0  0  0  0  0  0  0  0  0  0
   59.3810   34.2390   45.2650 C   0  0  0  0  0  0  0  0  0  0  0  0
   60.1621   34.9933   45.0893 H   0  0  0  0  0  0  0  0  0  0  0  0
   58.8700   33.5010   44.1930 C   0  0  0  0  0  0  0  0  0  0  0  0
   59.2502   33.6801   43.1765 H   0  0  0  0  0  0  0  0  0  0  0  0
   57.3900   32.3110   41.9400 C   0  0  0  0  0  0  0  0  0  0  0  0
   57.4933   33.4053   41.9839 H   0  0  0  0  0  0  0  0  0  0  0  0
   58.2517   31.8824   41.4072 H   0  0  0  0  0  0  0  0  0  0  0  0
   56.4633   32.0513   41.4072 H   0  0  0  0  0  0  0  0  0  0  0  0
   57.7700   27.7720   44.0680 C   0  0  0  0  0  0  0  0  0  0  0  0
   57.0563   27.3706   43.3335 H   0  0  0  0  0  0  0  0  0  0  0  0
  1  2  1  0
  2  3  2  0
  3  4  1  0
  3  5  1  0
  5  6  1  0
  6  7  2  0
  6  8  1  0
  8  9  2  0
  9 10  1  0
 10 11  1  0
 10 12  2  0
 12 13  1  0
 12 14  1  0
 14 15  1  0
 14 16  2  0
 16 17  1  0
 16 18  1  0
 18 19  1  0
  5 20  2  0
 20 21  1  0
 20 22  1  0
 22 23  1  0
 23 24  2  0
 23 25  2  0
 23 26  1  0
 26 27  1  0
 27 28  2  0
 28 29  1  0
 28 30  1  0
 30 31  1  0
 30 32  2  0
 32 33  1  0
 32 34  1  0
 34 35  1  0
 34 36  2  0
 36 37  1  0
 26 38  1  0
 38 39  1  0
 38 40  1  0
 38 41  1  0
 22 42  2  0
 42 43  1  0
 42  2  1  0
 18  9  1  0
 36 27  1  0
M  END
>  <UniqueID>  (55) 
54

>  <SMILES>  (55) 
CN(c1ccc(Cl)cc1)S(=O)(=O)c1cccc(C(=O)/N=c2\ccc(Cl)c[nH]2)c1

>  <Energy>  (55) 
58.62096479788739

>  <Genealogy>  (55) 
CN(c1ccc(Cl)cc1)S(=O)(=O)c1cccc(C(=O)/N=c2\ccc(Cl)c[nH]2)c1 (cis-trans isomerization)
CN(c1ccc(Cl)cc1)S(=O)(=O)c1cccc(C(=O)/N=c2\ccc(Cl)c[nH]2)c1 (3D coordinates assigned)
CN(c1ccc(Cl)cc1)S(=O)(=O)c1cccc(C(=O)/N=c2\ccc(Cl)c[nH]2)c1 (optimized conformer: 58.62096479788739 kcal/mol)

>  <smiles>  (55) 
CN(c1ccc(Cl)cc1)S(=O)(=O)c1cccc(C(=O)N=c2ccc(Cl)c[nH]2)c1

>  <score_type>  (55) 
oracle

>  <origin>  (55) 
adg

>  <m_score__min__energy>  (55) 
-9.4700000000000006

>  <m_primary>  (55) 
energy

$$$$
55:0
     RDKit          3D

 38 40  0  0  0  0  0  0  0  0999 V2000
   56.4960   24.2140   46.5160 C   0  0  0  0  0  0  0  0  0  0  0  0
   56.8070   25.3350   47.3380 O   0  0  0  0  0  0  0  0  0  0  0  0
   57.2190   26.5880   46.8540 C   0  0  0  0  0  0  0  0  0  0  0  0
   58.4520   27.1600   47.2160 C   0  0  0  0  0  0  0  0  0  0  0  0
   58.8470   28.4110   46.7080 C   0  0  0  0  0  0  0  0  0  0  0  0
   60.1130   28.9940   47.0630 N   0  0  0  0  0  0  0  0  0  0  0  0
   60.3580   30.2110   48.2720 S   0  0  0  0  0  0  0  0  0  0  0  0
   59.3330   30.0440   49.3560 O   0  0  0  0  0  0  0  0  0  0  0  0
   61.7270   30.0440   48.8720 O   0  0  0  0  0  0  0  0  0  0  0  0
   60.1710   31.8100   47.5570 C   0  0  0  0  0  0  0  0  0  0  0  0
   61.2520   32.4500   46.9340 C   0  0  0  0  0  0  0  0  0  0  0  0
   61.0860   33.7140   46.3610 C   0  0  0  0  0  0  0  0  0  0  0  0
   59.8350   34.3500   46.4000 C   0  0  0  0  0  0  0  0  0  0  0  0
   59.6790   35.7210   45.8220 C   0  0  0  0  0  0  0  0  0  0  0  0
   58.7560   33.7100   47.0270 C   0  0  0  0  0  0  0  0  0  0  0  0
   58.9220   32.4430   47.5970 C   0  0  0  0  0  0  0  0  0  0  0  0
   57.9840   29.1000   45.8320 C   0  0  0  0  0  0  0  0  0  0  0  0
   58.3180   30.3570   45.2980 C   0  0  0  0  0  0  0  0  0  0  0  0
   57.4370   31.0080   44.4330 C   0  0  0  0  0  0  0  0  0  0  0  0
   56.2260   30.4010   44.1030 C   0  0  0  0  0  0  0  0  0  0  0  0
   55.9070   29.1880   44.6250 N   0  0  0  0  0  0  0  0  0  0  0  0
   56.7420   28.5260   45.4720 C   0  0  0  0  0  0  0  0  0  0  0  0
   56.3690   27.2790   45.9850 C   0  0  0  0  0  0  0  0  0  0  0  0
   55.1450   26.7190   45.6280 O   0  0  0  0  0  0  0  0  0  0  0  0
   56.2560   23.3488   47.1514 H   0  0  0  0  0  0  0  0  0  0  0  0
   55.6305   24.4539   45.8809 H   0  0  0  0  0  0  0  0  0  0  0  0
   57.3614   23.9737   45.8809 H   0  0  0  0  0  0  0  0  0  0  0  0
   59.1173   26.6211   47.9066 H   0  0  0  0  0  0  0  0  0  0  0  0
   62.2339   31.9556   46.8961 H   0  0  0  0  0  0  0  0  0  0  0  0
   61.9391   34.2125   45.8775 H   0  0  0  0  0  0  0  0  0  0  0  0
   59.5955   36.4551   46.6369 H   0  0  0  0  0  0  0  0  0  0  0  0
   60.5558   35.9595   45.2021 H   0  0  0  0  0  0  0  0  0  0  0  0
   58.7710   35.7564   45.2021 H   0  0  0  0  0  0  0  0  0  0  0  0
   57.7752   34.2061   47.0708 H   0  0  0  0  0  0  0  0  0  0  0  0
   58.0689   31.9423   48.0781 H   0  0  0  0  0  0  0  0  0  0  0  0
   59.2759   30.8285   45.5626 H   0  0  0  0  0  0  0  0  0  0  0  0
   57.6960   31.9920   44.0150 H   0  0  0  0  0  0  0  0  0  0  0  0
   55.5276   30.9051   43.4188 H   0  0  0  0  0  0  0  0  0  0  0  0
  1  2  1  0
  2  3  1  0
  3  4  2  0
  4  5  1  0
  5  6  1  0
  6  7  1  0
  7  8  2  0
  7  9  2  0
  7 10  1  0
 10 11  2  0
 11 12  1  0
 12 13  2  0
 13 14  1  0
 13 15  1  0
 15 16  2  0
  5 17  2  0
 17 18  1  0
 18 19  2  0
 19 20  1  0
 20 21  2  0
 21 22  1  0
 22 23  2  0
 23 24  1  0
 23  3  1  0
 16 10  1  0
 22 17  1  0
  1 25  1  0
  1 26  1  0
  1 27  1  0
  4 28  1  0
 11 29  1  0
 12 30  1  0
 14 31  1  0
 14 32  1  0
 14 33  1  0
 15 34  1  0
 16 35  1  0
 18 36  1  0
 19 37  1  0
 20 38  1  0
M  CHG  2   6  -1  24  -1
M  END
>  <UniqueID>  (56) 
55

>  <SMILES>  (56) 
COc1cc([N-]S(=O)(=O)c2ccc(C)cc2)c2cccnc2c1[O-]

>  <Energy>  (56) 
46.82658953415716

>  <Genealogy>  (56) 
COc1cc([N-]S(=O)(=O)c2ccc(C)cc2)c2cccnc2c1[O-] (protonated)
COc1cc([N-]S(=O)(=O)c2ccc(C)cc2)c2cccnc2c1[O-] (3D coordinates assigned)
COc1cc([N-]S(=O)(=O)c2ccc(C)cc2)c2cccnc2c1[O-] (optimized conformer: 46.82658953415716 kcal/mol)

>  <smiles>  (56) 
COc1cc(NS(=O)(=O)c2ccc(C)cc2)c2cccnc2c1O

>  <score_type>  (56) 
oracle

>  <origin>  (56) 
adg

>  <m_score__min__energy>  (56) 
-11.710000000000001

>  <m_primary>  (56) 
energy

$$$$
56:0
     RDKit          3D

 46 49  0  0  0  0  0  0  0  0999 V2000
   55.8950   29.3630   45.2230 O   0  0  0  0  0  0  0  0  0  0  0  0
   57.1080   29.0960   45.0050 C   0  0  0  0  0  0  0  0  0  0  0  0
   57.7760   29.6480   43.9080 O   0  0  0  0  0  0  0  0  0  0  0  0
   57.7240   31.0330   43.5720 C   0  0  0  0  0  0  0  0  0  0  0  0
   57.9800   31.8880   44.7810 C   0  0  0  0  0  0  0  0  0  0  0  0
   57.0800   32.9120   45.1210 C   0  0  0  0  0  0  0  0  0  0  0  0
   57.3150   33.7110   46.2440 C   0  0  0  0  0  0  0  0  0  0  0  0
   58.4440   33.4910   47.0380 C   0  0  0  0  0  0  0  0  0  0  0  0
   59.3420   32.4710   46.7090 C   0  0  0  0  0  0  0  0  0  0  0  0
   59.1110   31.6700   45.5860 C   0  0  0  0  0  0  0  0  0  0  0  0
   57.8710   28.3190   45.9900 C   0  0  0  0  0  0  0  0  0  0  0  0
   58.4660   29.0310   47.0430 C   0  0  0  0  0  0  0  0  0  0  0  0
   59.2170   28.3720   48.0160 C   0  0  0  0  0  0  0  0  0  0  0  0
   59.3970   26.9940   47.9400 C   0  0  0  0  0  0  0  0  0  0  0  0
   58.8270   26.2710   46.8910 C   0  0  0  0  0  0  0  0  0  0  0  0
   58.0380   26.9090   45.9130 C   0  0  0  0  0  0  0  0  0  0  0  0
   57.5310   26.0680   44.7500 C   0  0  0  0  0  0  0  0  0  0  0  0
   56.5090   25.0650   45.1440 N   0  0  0  0  0  0  0  0  0  0  0  0
   55.3670   25.4910   45.7840 C   0  0  0  0  0  0  0  0  0  0  0  0
   55.1540   26.7170   45.9870 O   0  0  0  0  0  0  0  0  0  0  0  0
   54.4430   24.6000   46.2180 N   0  0  0  0  0  0  0  0  0  0  0  0
   54.5850   23.2700   46.0280 C   0  0  0  0  0  0  0  0  0  0  0  0
   53.7040   22.4890   46.4760 O   0  0  0  0  0  0  0  0  0  0  0  0
   55.6930   22.7880   45.3250 C   0  0  0  0  0  0  0  0  0  0  0  0
   55.8520   21.4120   45.0700 C   0  0  0  0  0  0  0  0  0  0  0  0
   56.9360   20.9550   44.3250 C   0  0  0  0  0  0  0  0  0  0  0  0
   57.8600   21.8610   43.8120 C   0  0  0  0  0  0  0  0  0  0  0  0
   57.7210   23.2280   44.0590 C   0  0  0  0  0  0  0  0  0  0  0  0
   56.6510   23.7200   44.8470 C   0  0  0  0  0  0  0  0  0  0  0  0
   58.4883   31.2478   42.8106 H   0  0  0  0  0  0  0  0  0  0  0  0
   56.7205   31.2633   43.1847 H   0  0  0  0  0  0  0  0  0  0  0  0
   56.1877   33.0856   44.5017 H   0  0  0  0  0  0  0  0  0  0  0  0
   56.6098   34.5145   46.5032 H   0  0  0  0  0  0  0  0  0  0  0  0
   58.6261   34.1203   47.9217 H   0  0  0  0  0  0  0  0  0  0  0  0
   60.2307   32.2984   47.3338 H   0  0  0  0  0  0  0  0  0  0  0  0
   59.8175   30.8661   45.3319 H   0  0  0  0  0  0  0  0  0  0  0  0
   58.3385   30.1220   47.1016 H   0  0  0  0  0  0  0  0  0  0  0  0
   59.6668   28.9410   48.8430 H   0  0  0  0  0  0  0  0  0  0  0  0
   59.9891   26.4741   48.7075 H   0  0  0  0  0  0  0  0  0  0  0  0
   58.9963   25.1860   46.8266 H   0  0  0  0  0  0  0  0  0  0  0  0
   57.0876   26.7409   44.0013 H   0  0  0  0  0  0  0  0  0  0  0  0
   58.3933   25.5119   44.3534 H   0  0  0  0  0  0  0  0  0  0  0  0
   55.1159   20.6945   45.4615 H   0  0  0  0  0  0  0  0  0  0  0  0
   57.0622   19.8777   44.1418 H   0  0  0  0  0  0  0  0  0  0  0  0
   58.7048   21.4976   43.2084 H   0  0  0  0  0  0  0  0  0  0  0  0
   58.4521   23.9328   43.6361 H   0  0  0  0  0  0  0  0  0  0  0  0
  1  2  2  0
  2  3  1  0
  3  4  1  0
  4  5  1  0
  5  6  2  0
  6  7  1  0
  7  8  2  0
  8  9  1  0
  9 10  2  0
  2 11  1  0
 11 12  2  0
 12 13  1  0
 13 14  2  0
 14 15  1  0
 15 16  2  0
 16 17  1  0
 17 18  1  0
 18 19  1  0
 19 20  2  0
 19 21  1  0
 21 22  1  0
 22 23  2  0
 22 24  1  0
 24 25  2  0
 25 26  1  0
 26 27  2  0
 27 28  1  0
 28 29  2  0
 10  5  1  0
 16 11  1  0
 29 18  1  0
 29 24  1  0
  4 30  1  0
  4 31  1  0
  6 32  1  0
  7 33  1  0
  8 34  1  0
  9 35  1  0
 10 36  1  0
 12 37  1  0
 13 38  1  0
 14 39  1  0
 15 40  1  0
 17 41  1  0
 17 42  1  0
 25 43  1  0
 26 44  1  0
 27 45  1  0
 28 46  1  0
M  CHG  1  21  -1
M  END
>  <UniqueID>  (57) 
56

>  <SMILES>  (57) 
O=C(OCc1ccccc1)c1ccccc1Cn1c(=O)[n-]c(=O)c2ccccc21

>  <Energy>  (57) 
69.55583633338291

>  <Genealogy>  (57) 
O=C(OCc1ccccc1)c1ccccc1Cn1c(=O)[n-]c(=O)c2ccccc21 (protonated)
O=C(OCc1ccccc1)c1ccccc1Cn1c(=O)[n-]c(=O)c2ccccc21 (3D coordinates assigned)
O=C(OCc1ccccc1)c1ccccc1Cn1c(=O)[n-]c(=O)c2ccccc21 (optimized conformer: 69.55583633338291 kcal/mol)

>  <smiles>  (57) 
O=C(OCc1ccccc1)c1ccccc1Cn1c(=O)[nH]c(=O)c2ccccc21

>  <score_type>  (57) 
oracle

>  <origin>  (57) 
adg

>  <m_score__min__energy>  (57) 
-10.69

>  <m_primary>  (57) 
energy

$$$$
57:0
     RDKit          3D

 46 48  0  0  1  0  0  0  0  0999 V2000
   56.9830   33.4360   45.5490 C   0  0  0  0  0  0  0  0  0  0  0  0
   58.1270   34.2830   45.1600 C   0  0  0  0  0  0  0  0  0  0  0  0
   59.1350   34.5950   46.2080 C   0  0  0  0  0  0  0  0  0  0  0  0
   59.6600   33.4230   46.9270 C   0  0  1  0  0  0  0  0  0  0  0  0
   59.7080   32.2350   46.0360 N   0  0  0  0  0  0  0  0  0  0  0  0
   60.0340   30.9630   46.5830 C   0  0  0  0  0  0  0  0  0  0  0  0
   60.2900   30.8060   47.8240 O   0  0  0  0  0  0  0  0  0  0  0  0
   60.1010   29.7770   45.7950 N   0  0  0  0  0  0  0  0  0  0  0  0
   59.1290   28.9360   45.9190 C   0  0  0  0  0  0  0  0  0  0  0  0
   59.2040   27.8020   46.6990 C   0  0  0  0  0  0  0  0  0  0  0  0
   58.1180   26.9570   46.7740 C   0  0  0  0  0  0  0  0  0  0  0  0
   57.9210   25.8080   47.4440 N   0  0  0  0  0  0  0  0  0  0  0  0
   56.6890   25.4110   47.1600 N   0  0  0  0  0  0  0  0  0  0  0  0
   56.0840   26.2780   46.3200 C   0  0  0  0  0  0  0  0  0  0  0  0
   54.7780   26.1240   45.8420 O   0  0  0  0  0  0  0  0  0  0  0  0
   54.2180   24.8420   45.6210 C   0  0  0  0  0  0  0  0  0  0  0  0
   56.9870   27.2840   46.0580 C   0  0  0  0  0  0  0  0  0  0  0  0
   56.9080   28.4160   45.2760 C   0  0  0  0  0  0  0  0  0  0  0  0
   57.9990   29.2050   45.2400 N   0  0  0  0  0  0  0  0  0  0  0  0
   61.0650   33.5660   47.3740 C   0  0  0  0  0  0  0  0  0  0  0  0
   62.0810   33.7090   46.4160 C   0  0  0  0  0  0  0  0  0  0  0  0
   63.4120   33.8110   46.7990 C   0  0  0  0  0  0  0  0  0  0  0  0
   63.7830   33.7750   48.1290 C   0  0  0  0  0  0  0  0  0  0  0  0
   62.7940   33.6350   49.0770 C   0  0  0  0  0  0  0  0  0  0  0  0
   61.4780   33.5350   48.6780 C   0  0  0  0  0  0  0  0  0  0  0  0
   56.9185   33.3882   46.6461 H   0  0  0  0  0  0  0  0  0  0  0  0
   56.0544   33.8660   45.1455 H   0  0  0  0  0  0  0  0  0  0  0  0
   57.1233   32.4224   45.1455 H   0  0  0  0  0  0  0  0  0  0  0  0
   58.6517   33.7722   44.3392 H   0  0  0  0  0  0  0  0  0  0  0  0
   57.6819   35.2546   44.8996 H   0  0  0  0  0  0  0  0  0  0  0  0
   59.9806   35.1089   45.7275 H   0  0  0  0  0  0  0  0  0  0  0  0
   58.6209   35.2140   46.9580 H   0  0  0  0  0  0  0  0  0  0  0  0
   58.9792   33.3213   47.7850 H   0  0  0  0  0  0  0  0  0  0  0  0
   59.5020   32.3310   45.0190 H   0  0  0  0  0  0  0  0  0  0  0  0
   60.1237   27.5733   47.2574 H   0  0  0  0  0  0  0  0  0  0  0  0
   58.6250   25.3660   48.0490 H   0  0  0  0  0  0  0  0  0  0  0  0
   54.0082   24.3618   46.5882 H   0  0  0  0  0  0  0  0  0  0  0  0
   53.2824   24.9438   45.0516 H   0  0  0  0  0  0  0  0  0  0  0  0
   54.9285   24.2247   45.0516 H   0  0  0  0  0  0  0  0  0  0  0  0
   55.9984   28.6631   44.7089 H   0  0  0  0  0  0  0  0  0  0  0  0
   57.9390   30.0550   44.6530 H   0  0  0  0  0  0  0  0  0  0  0  0
   61.8195   33.7407   45.3480 H   0  0  0  0  0  0  0  0  0  0  0  0
   64.1873   33.9228   46.0267 H   0  0  0  0  0  0  0  0  0  0  0  0
   64.8399   33.8560   48.4230 H   0  0  0  0  0  0  0  0  0  0  0  0
   63.0523   33.6031   50.1458 H   0  0  0  0  0  0  0  0  0  0  0  0
   60.7108   33.4231   49.4583 H   0  0  0  0  0  0  0  0  0  0  0  0
  1  2  1  0
  2  3  1  0
  3  4  1  0
  4  5  1  0
  5  6  1  0
  6  7  2  0
  6  8  1  0
  8  9  2  0
  9 10  1  0
 10 11  2  0
 11 12  1  0
 12 13  1  0
 13 14  2  0
 14 15  1  0
 15 16  1  0
 14 17  1  0
 17 18  2  0
 18 19  1  0
  4 20  1  0
 20 21  2  0
 21 22  1  0
 22 23  2  0
 23 24  1  0
 24 25  2  0
 19  9  1  0
 25 20  1  0
 17 11  1  0
  1 26  1  0
  1 27  1  0
  1 28  1  0
  2 29  1  0
  2 30  1  0
  3 31  1  0
  3 32  1  0
  4 33  1  1
  5 34  1  0
 10 35  1  0
 12 36  1  0
 16 37  1  0
 16 38  1  0
 16 39  1  0
 18 40  1  0
 19 41  1  0
 21 42  1  0
 22 43  1  0
 23 44  1  0
 24 45  1  0
 25 46  1  0
M  END
>  <smiles>  (58) 
CCCC(NC(=O)N=c1cc2[nH]nc(OC)c2c[nH]1)c1ccccc1

>  <score_type>  (58) 
oracle

>  <origin>  (58) 
adg

>  <m_score__min__energy>  (58) 
-7.8700000000000001

>  <m_primary>  (58) 
energy

$$$$
58:0
     RDKit          3D

 45 48  0  0  1  0  0  0  0  0999 V2000
   56.6480   30.2310   42.5480 O   0  0  0  0  0  0  0  0  0  0  0  0
   56.6610   29.7280   43.9560 S   0  0  0  0  0  0  0  0  0  0  0  0
   55.2540   29.5360   44.4830 O   0  0  0  0  0  0  0  0  0  0  0  0
   57.5150   28.2300   44.1240 N   0  0  0  0  0  0  0  0  0  0  0  0
   57.2630   27.4470   45.1020 C   0  0  0  0  0  0  0  0  0  0  0  0
   58.2650   26.7590   45.7860 C   0  0  0  0  0  0  0  0  0  0  0  0
   57.6020   26.0330   46.7540 C   0  0  0  0  0  0  0  0  0  0  0  0
   56.2800   26.2790   46.6440 N   0  0  0  0  0  0  0  0  0  0  0  0
   56.0620   27.1360   45.6460 N   0  0  0  0  0  0  0  0  0  0  0  0
   57.5610   30.8960   44.8980 C   0  0  0  0  0  0  0  0  0  0  0  0
   58.1140   30.6070   46.1260 C   0  0  0  0  0  0  0  0  0  0  0  0
   58.8230   31.5620   46.8490 C   0  0  0  0  0  0  0  0  0  0  0  0
   59.0080   32.8420   46.3730 C   0  0  0  0  0  0  0  0  0  0  0  0
   59.7060   33.8010   47.0700 C   0  0  0  0  0  0  0  0  0  0  0  0
   60.2600   33.5260   48.3320 N   0  0  0  0  0  0  0  0  0  0  0  0
   61.6630   33.4030   48.5860 C   0  0  0  0  0  0  0  0  0  0  0  0
   62.5080   32.9440   47.5870 C   0  0  0  0  0  0  0  0  0  0  0  0
   63.8640   32.7760   47.7700 C   0  0  0  0  0  0  0  0  0  0  0  0
   64.4300   33.0730   48.9910 C   0  0  0  0  0  0  0  0  0  0  0  0
   63.6100   33.5240   49.9810 C   0  0  0  0  0  0  0  0  0  0  0  0
   64.2350   33.8420   51.3000 C   0  0  0  0  0  0  0  0  0  0  0  0
   63.6250   33.1210   52.2990 F   0  0  0  0  0  0  0  0  0  0  0  0
   64.0360   35.1830   51.6280 F   0  0  0  0  0  0  0  0  0  0  0  0
   65.5560   33.5010   51.2770 F   0  0  0  0  0  0  0  0  0  0  0  0
   62.2410   33.6930   49.7970 C   0  0  0  0  0  0  0  0  0  0  0  0
   59.8190   35.0410   46.4850 C   0  0  0  0  0  0  0  0  0  0  0  0
   59.2530   35.3280   45.2340 C   0  0  0  0  0  0  0  0  0  0  0  0
   58.5570   34.3710   44.5390 C   0  0  0  0  0  0  0  0  0  0  0  0
   58.4480   33.1250   45.1360 C   0  0  0  0  0  0  0  0  0  0  0  0
   57.7410   32.1740   44.4150 C   0  0  0  0  0  0  0  0  0  0  0  0
   59.3479   26.7887   45.5953 H   0  0  0  0  0  0  0  0  0  0  0  0
   58.0722   25.3658   47.4914 H   0  0  0  0  0  0  0  0  0  0  0  0
   55.5270   25.8730   47.2400 H   0  0  0  0  0  0  0  0  0  0  0  0
   55.1420   27.5120   45.3250 H   0  0  0  0  0  0  0  0  0  0  0  0
   57.9924   29.5974   46.5453 H   0  0  0  0  0  0  0  0  0  0  0  0
   59.2469   31.2877   47.8263 H   0  0  0  0  0  0  0  0  0  0  0  0
   59.6680   33.3840   49.2050 H   0  0  0  0  0  0  0  0  0  0  0  0
   62.0769   32.7031   46.6041 H   0  0  0  0  0  0  0  0  0  0  0  0
   64.4913   32.4066   46.9453 H   0  0  0  0  0  0  0  0  0  0  0  0
   65.5098   32.9498   49.1608 H   0  0  0  0  0  0  0  0  0  0  0  0
   61.6188   34.0609   50.6262 H   0  0  0  0  0  0  0  0  0  0  0  0
   60.3703   35.8319   47.0146 H   0  0  0  0  0  0  0  0  0  0  0  0
   59.3686   36.3339   44.8042 H   0  0  0  0  0  0  0  0  0  0  0  0
   58.1081   34.5823   43.5572 H   0  0  0  0  0  0  0  0  0  0  0  0
   57.3153   32.4455   43.4377 H   0  0  0  0  0  0  0  0  0  0  0  0
  1  2  2  0
  2  3  2  0
  2  4  1  0
  4  5  2  0
  5  6  1  0
  6  7  2  0
  7  8  1  0
  8  9  1  0
  2 10  1  0
 10 11  2  0
 11 12  1  0
 12 13  2  0
 13 14  1  0
 14 15  1  0
 15 16  1  0
 16 17  2  0
 17 18  1  0
 18 19  2  0
 19 20  1  0
 20 21  1  0
 21 22  1  0
 21 23  1  0
 21 24  1  0
 20 25  2  0
 14 26  2  0
 26 27  1  0
 27 28  2  0
 28 29  1  0
 29 30  2  0
  9  5  1  0
 30 10  1  0
 29 13  1  0
 25 16  1  0
  6 31  1  0
  7 32  1  0
  8 33  1  0
  9 34  1  0
 11 35  1  0
 12 36  1  0
 15 37  1  0
 17 38  1  0
 18 39  1  0
 19 40  1  0
 25 41  1  0
 26 42  1  0
 27 43  1  0
 28 44  1  0
 30 45  1  0
M  END
>  <smiles>  (59) 
O=S(=O)(N=c1cc[nH][nH]1)c1ccc2c(Nc3cccc(C(F)(F)F)c3)cccc2c1

>  <score_type>  (59) 
oracle

>  <origin>  (59) 
adg

>  <m_score__min__energy>  (59) 
-10.289999999999999

>  <m_primary>  (59) 
energy

$$$$
59:0
     RDKit          3D

 30 31  0  0  0  0  0  0  0  0999 V2000
   57.1646   28.7576   47.2545 H   0  0  0  0  0  0  0  0  0  0  0  0
   57.6570   28.5550   46.2920 C   0  0  0  0  0  0  0  0  0  0  0  0
   58.3460   27.4540   46.1780 N   0  0  0  0  0  0  0  0  0  0  0  0
   57.9210   26.2150   45.5870 C   0  0  0  0  0  0  0  0  0  0  0  0
   57.7800   26.0690   44.1950 C   0  0  0  0  0  0  0  0  0  0  0  0
   58.0158   26.9125   43.5294 H   0  0  0  0  0  0  0  0  0  0  0  0
   57.3420   24.8580   43.6540 C   0  0  0  0  0  0  0  0  0  0  0  0
   57.2566   24.7439   42.5633 H   0  0  0  0  0  0  0  0  0  0  0  0
   57.0110   23.7880   44.4960 C   0  0  0  0  0  0  0  0  0  0  0  0
   56.4780   22.2550   43.8120 S   0  0  0  0  0  0  0  0  0  0  0  0
   55.5370   21.5720   44.7650 O   0  0  0  0  0  0  0  0  0  0  0  0
   55.7580   22.5000   42.5160 O   0  0  0  0  0  0  0  0  0  0  0  0
   57.8480   21.2400   43.5290 N   0  0  0  0  0  0  0  0  0  0  0  0
   57.9820   21.1910   42.4950 H   0  0  0  0  0  0  0  0  0  0  0  0
   57.5860   20.2800   43.8440 H   0  0  0  0  0  0  0  0  0  0  0  0
   57.1220   23.9410   45.8840 C   0  0  0  0  0  0  0  0  0  0  0  0
   56.8630   23.1050   46.5503 H   0  0  0  0  0  0  0  0  0  0  0  0
   57.5610   25.1530   46.4250 C   0  0  0  0  0  0  0  0  0  0  0  0
   57.6240   25.2730   47.5166 H   0  0  0  0  0  0  0  0  0  0  0  0
   57.4960   29.5480   45.2090 C   0  0  0  0  0  0  0  0  0  0  0  0
   58.6150   30.2850   44.7940 C   0  0  0  0  0  0  0  0  0  0  0  0
   59.5892   30.1180   45.2768 H   0  0  0  0  0  0  0  0  0  0  0  0
   58.5000   31.2300   43.7710 C   0  0  0  0  0  0  0  0  0  0  0  0
   59.3794   31.8129   43.4599 H   0  0  0  0  0  0  0  0  0  0  0  0
   57.2690   31.4350   43.1430 C   0  0  0  0  0  0  0  0  0  0  0  0
   57.1766   32.1882   42.3467 H   0  0  0  0  0  0  0  0  0  0  0  0
   56.1560   30.6840   43.5260 C   0  0  0  0  0  0  0  0  0  0  0  0
   55.1899   30.8412   43.0241 H   0  0  0  0  0  0  0  0  0  0  0  0
   56.2650   29.7320   44.5460 C   0  0  0  0  0  0  0  0  0  0  0  0
   55.1550   28.9620   44.8770 O   0  0  0  0  0  0  0  0  0  0  0  0
  1  2  1  0
  2  3  2  0
  3  4  1  0
  4  5  2  0
  5  6  1  0
  5  7  1  0
  7  8  1  0
  7  9  2  0
  9 10  1  0
 10 11  2  0
 10 12  2  0
 10 13  1  0
 13 14  1  0
 13 15  1  0
  9 16  1  0
 16 17  1  0
 16 18  2  0
 18 19  1  0
  2 20  1  0
 20 21  2  0
 21 22  1  0
 21 23  1  0
 23 24  1  0
 23 25  2  0
 25 26  1  0
 25 27  1  0
 27 28  1  0
 27 29  2  0
 29 30  1  0
 18  4  1  0
 29 20  1  0
M  CHG  1  30  -1
M  END
>  <UniqueID>  (60) 
57

>  <SMILES>  (60) 
NS(=O)(=O)c1ccc(/N=C\c2ccccc2[O-])cc1

>  <Energy>  (60) 
41.72058096229293

>  <Genealogy>  (60) 
NS(=O)(=O)c1ccc(N=Cc2ccccc2[O-])cc1 (protonated)
NS(=O)(=O)c1ccc(/N=C\c2ccccc2[O-])cc1 (cis-trans isomerization)
NS(=O)(=O)c1ccc(/N=C\c2ccccc2[O-])cc1 (3D coordinates assigned)
NS(=O)(=O)c1ccc(/N=C\c2ccccc2[O-])cc1 (optimized conformer: 41.72058096229293 kcal/mol)

>  <smiles>  (60) 
NS(=O)(=O)c1ccc(N=Cc2ccccc2O)cc1

>  <score_type>  (60) 
oracle

>  <origin>  (60) 
adg

>  <m_score__min__energy>  (60) 
-10.699999999999999

>  <m_primary>  (60) 
energy

$$$$
60:0
     RDKit          3D

 48 50  0  0  0  0  0  0  0  0999 V2000
   56.7160   30.6200   42.8940 C   0  0  0  0  0  0  0  0  0  0  0  0
   56.2290   29.6900   44.0150 C   0  0  0  0  0  0  0  0  0  0  0  0
   57.0900   29.6870   45.2190 N   0  0  0  0  0  0  0  0  0  0  0  0
   57.8030   30.9690   45.4270 C   0  0  0  0  0  0  0  0  0  0  0  0
   58.9860   30.8420   46.4080 C   0  0  0  0  0  0  0  0  0  0  0  0
   58.7940   29.7050   47.3220 N   0  0  0  0  0  0  0  0  0  0  0  0
   59.0530   29.8370   48.7320 C   0  0  0  0  0  0  0  0  0  0  0  0
   58.5380   31.1610   49.5510 S   0  0  0  0  0  0  0  0  0  0  0  0
   60.1420   28.6780   49.5850 S   0  0  0  0  0  0  0  0  0  0  0  0
   61.4960   29.8390   50.0080 C   0  0  0  0  0  0  0  0  0  0  0  0
   61.6600   30.9200   48.9870 C   0  0  0  0  0  0  0  0  0  0  0  0
   61.4460   32.2670   49.1790 C   0  0  0  0  0  0  0  0  0  0  0  0
   61.5210   32.8380   47.9620 N   0  0  0  0  0  0  0  0  0  0  0  0
   61.1870   34.2200   47.6390 C   0  0  0  0  0  0  0  0  0  0  0  0
   59.8970   34.2590   46.8660 C   0  0  0  0  0  0  0  0  0  0  0  0
   59.9030   34.5750   45.4980 C   0  0  0  0  0  0  0  0  0  0  0  0
   58.7140   34.5340   44.7610 C   0  0  0  0  0  0  0  0  0  0  0  0
   57.5170   34.1690   45.3830 C   0  0  0  0  0  0  0  0  0  0  0  0
   57.5060   33.8420   46.7420 C   0  0  0  0  0  0  0  0  0  0  0  0
   58.6920   33.8800   47.4810 C   0  0  0  0  0  0  0  0  0  0  0  0
   61.7590   31.8940   47.0630 N   0  0  0  0  0  0  0  0  0  0  0  0
   61.8620   30.7210   47.6710 N   0  0  0  0  0  0  0  0  0  0  0  0
   58.4570   28.3880   46.7660 C   0  0  0  0  0  0  0  0  0  0  0  0
   57.9720   28.5140   45.3200 C   0  0  0  0  0  0  0  0  0  0  0  0
   57.1834   31.5126   43.3353 H   0  0  0  0  0  0  0  0  0  0  0  0
   57.4523   30.0901   42.2719 H   0  0  0  0  0  0  0  0  0  0  0  0
   55.8610   30.9234   42.2719 H   0  0  0  0  0  0  0  0  0  0  0  0
   55.2196   30.0092   44.3137 H   0  0  0  0  0  0  0  0  0  0  0  0
   56.2505   28.6679   43.6089 H   0  0  0  0  0  0  0  0  0  0  0  0
   58.1865   31.3193   44.4573 H   0  0  0  0  0  0  0  0  0  0  0  0
   57.0859   31.6801   45.8630 H   0  0  0  0  0  0  0  0  0  0  0  0
   59.9131   30.6908   45.8357 H   0  0  0  0  0  0  0  0  0  0  0  0
   59.0470   31.7643   47.0043 H   0  0  0  0  0  0  0  0  0  0  0  0
   61.2731   30.3024   50.9804 H   0  0  0  0  0  0  0  0  0  0  0  0
   62.4330   29.2638   50.0409 H   0  0  0  0  0  0  0  0  0  0  0  0
   61.2525   32.7747   50.1354 H   0  0  0  0  0  0  0  0  0  0  0  0
   61.0743   34.7965   48.5690 H   0  0  0  0  0  0  0  0  0  0  0  0
   61.9916   34.6580   47.0301 H   0  0  0  0  0  0  0  0  0  0  0  0
   60.8450   34.8556   45.0041 H   0  0  0  0  0  0  0  0  0  0  0  0
   58.7217   34.7893   43.6911 H   0  0  0  0  0  0  0  0  0  0  0  0
   56.5829   34.1390   44.8028 H   0  0  0  0  0  0  0  0  0  0  0  0
   56.5632   33.5545   47.2304 H   0  0  0  0  0  0  0  0  0  0  0  0
   58.6818   33.6122   48.5479 H   0  0  0  0  0  0  0  0  0  0  0  0
   62.0090   29.8090   47.1840 H   0  0  0  0  0  0  0  0  0  0  0  0
   59.3504   27.7468   46.7917 H   0  0  0  0  0  0  0  0  0  0  0  0
   57.6504   27.9472   47.3702 H   0  0  0  0  0  0  0  0  0  0  0  0
   58.8350   28.6410   44.6498 H   0  0  0  0  0  0  0  0  0  0  0  0
   57.4234   27.6063   45.0282 H   0  0  0  0  0  0  0  0  0  0  0  0
  1  2  1  0
  2  3  1  0
  3  4  1  0
  4  5  1  0
  5  6  1  0
  6  7  1  0
  7  8  2  0
  7  9  1  0
  9 10  1  0
 10 11  1  0
 11 12  2  0
 12 13  1  0
 13 14  1  0
 14 15  1  0
 15 16  2  0
 16 17  1  0
 17 18  2  0
 18 19  1  0
 19 20  2  0
 13 21  1  0
 21 22  2  0
  6 23  1  0
 23 24  1  0
 24  3  1  0
 22 11  1  0
 20 15  1  0
  1 25  1  0
  1 26  1  0
  1 27  1  0
  2 28  1  0
  2 29  1  0
  4 30  1  0
  4 31  1  0
  5 32  1  0
  5 33  1  0
 10 34  1  0
 10 35  1  0
 12 36  1  0
 14 37  1  0
 14 38  1  0
 16 39  1  0
 17 40  1  0
 18 41  1  0
 19 42  1  0
 20 43  1  0
 22 44  1  0
 23 45  1  0
 23 46  1  0
 24 47  1  0
 24 48  1  0
M  CHG  1  22   1
M  END
>  <UniqueID>  (61) 
58

>  <SMILES>  (61) 
CCN1CCN(C(=S)SCc2cn(Cc3ccccc3)n[nH+]2)CC1

>  <Energy>  (61) 
85.03352178682803

>  <Genealogy>  (61) 
CCN1CCN(C(=S)SCc2cn(Cc3ccccc3)n[nH+]2)CC1 (protonated)
CCN1CCN(C(=S)SCc2cn(Cc3ccccc3)n[nH+]2)CC1 (3D coordinates assigned)
CCN1CCN(C(=S)SCc2cn(Cc3ccccc3)n[nH+]2)CC1 (nonaromatic ring conformer: 85.03352178682803 kcal/mol)

>  <smiles>  (61) 
CCN1CCN(C(=S)SCc2cn(Cc3ccccc3)nn2)CC1

>  <score_type>  (61) 
oracle

>  <origin>  (61) 
adg

>  <m_score__min__energy>  (61) 
-6.9100000000000001

>  <m_primary>  (61) 
energy

$$$$
61:0
     RDKit          3D

 52 55  0  0  0  0  0  0  0  0999 V2000
   63.9880   34.7730   51.6490 C   0  0  0  0  0  0  0  0  0  0  0  0
   63.4860   34.2000   50.3580 C   0  0  0  0  0  0  0  0  0  0  0  0
   62.6550   34.8690   49.6850 O   0  0  0  0  0  0  0  0  0  0  0  0
   63.9240   32.9090   49.8800 N   0  0  0  0  0  0  0  0  0  0  0  0
   65.3570   32.6410   49.7360 C   0  0  0  0  0  0  0  0  0  0  0  0
   62.9870   31.8360   49.6710 C   0  0  0  0  0  0  0  0  0  0  0  0
   62.8460   30.8210   50.6290 C   0  0  0  0  0  0  0  0  0  0  0  0
   61.9350   29.7800   50.4270 C   0  0  0  0  0  0  0  0  0  0  0  0
   61.1630   29.7330   49.2550 C   0  0  0  0  0  0  0  0  0  0  0  0
   60.1500   28.6360   49.0570 C   0  0  0  0  0  0  0  0  0  0  0  0
   60.4750   27.7890   47.8080 C   0  0  1  0  0  0  0  0  0  0  0  0
   59.6660   26.5670   47.8000 N   0  0  0  0  0  0  0  0  0  0  0  0
   58.4990   26.5110   47.2280 C   0  0  0  0  0  0  0  0  0  0  0  0
   57.7220   25.3570   47.3780 C   0  0  0  0  0  0  0  0  0  0  0  0
   56.4340   25.3020   46.8470 C   0  0  0  0  0  0  0  0  0  0  0  0
   55.9170   26.3970   46.1510 C   0  0  0  0  0  0  0  0  0  0  0  0
   54.6310   26.3380   45.6280 O   0  0  0  0  0  0  0  0  0  0  0  0
   56.6910   27.5470   45.9710 C   0  0  0  0  0  0  0  0  0  0  0  0
   58.0050   27.6150   46.4910 C   0  0  0  0  0  0  0  0  0  0  0  0
   58.8280   28.6770   46.2700 C   0  0  0  0  0  0  0  0  0  0  0  0
   58.3630   29.9150   45.5950 C   0  0  0  0  0  0  0  0  0  0  0  0
   57.8820   29.8680   44.2750 C   0  0  0  0  0  0  0  0  0  0  0  0
   57.4110   31.0300   43.6570 C   0  0  0  0  0  0  0  0  0  0  0  0
   57.4050   32.2420   44.3540 C   0  0  0  0  0  0  0  0  0  0  0  0
   57.8640   32.2900   45.6730 C   0  0  0  0  0  0  0  0  0  0  0  0
   58.3350   31.1310   46.2950 C   0  0  0  0  0  0  0  0  0  0  0  0
   60.2410   28.5560   46.5690 N   0  0  0  0  0  0  0  0  0  0  0  0
   61.3040   30.7490   48.2960 C   0  0  0  0  0  0  0  0  0  0  0  0
   62.2150   31.7890   48.5000 C   0  0  0  0  0  0  0  0  0  0  0  0
   63.5222   34.2413   52.4918 H   0  0  0  0  0  0  0  0  0  0  0  0
   65.0806   34.6572   51.7013 H   0  0  0  0  0  0  0  0  0  0  0  0
   63.7295   35.8409   51.7013 H   0  0  0  0  0  0  0  0  0  0  0  0
   65.8159   32.5552   50.7320 H   0  0  0  0  0  0  0  0  0  0  0  0
   65.5005   31.7005   49.1839 H   0  0  0  0  0  0  0  0  0  0  0  0
   65.8307   33.4661   49.1839 H   0  0  0  0  0  0  0  0  0  0  0  0
   63.4557   30.8443   51.5443 H   0  0  0  0  0  0  0  0  0  0  0  0
   61.8225   28.9947   51.1890 H   0  0  0  0  0  0  0  0  0  0  0  0
   60.1513   27.9833   49.9425 H   0  0  0  0  0  0  0  0  0  0  0  0
   59.1620   29.0982   48.9147 H   0  0  0  0  0  0  0  0  0  0  0  0
   61.5402   27.5177   47.8495 H   0  0  0  0  0  0  0  0  0  0  0  0
   58.1293   24.4891   47.9174 H   0  0  0  0  0  0  0  0  0  0  0  0
   55.8245   24.3955   46.9763 H   0  0  0  0  0  0  0  0  0  0  0  0
   56.2757   28.4047   45.4215 H   0  0  0  0  0  0  0  0  0  0  0  0
   57.8762   28.9143   43.7269 H   0  0  0  0  0  0  0  0  0  0  0  0
   57.0445   30.9908   42.6206 H   0  0  0  0  0  0  0  0  0  0  0  0
   57.0394   33.1568   43.8646 H   0  0  0  0  0  0  0  0  0  0  0  0
   57.8545   33.2426   46.2229 H   0  0  0  0  0  0  0  0  0  0  0  0
   58.6851   31.1718   47.3370 H   0  0  0  0  0  0  0  0  0  0  0  0
   60.6990   28.0570   45.7710 H   0  0  0  0  0  0  0  0  0  0  0  0
   60.6800   29.5030   46.6520 H   0  0  0  0  0  0  0  0  0  0  0  0
   60.6949   30.7262   47.3803 H   0  0  0  0  0  0  0  0  0  0  0  0
   62.3275   32.5749   47.7386 H   0  0  0  0  0  0  0  0  0  0  0  0
  1  2  1  0
  2  3  2  0
  2  4  1  0
  4  5  1  0
  4  6  1  0
  6  7  2  0
  7  8  1  0
  8  9  2  0
  9 10  1  0
 10 11  1  0
 11 12  1  0
 12 13  2  0
 13 14  1  0
 14 15  2  0
 15 16  1  0
 16 17  1  0
 16 18  2  0
 18 19  1  0
 19 20  2  0
 20 21  1  0
 21 22  2  0
 22 23  1  0
 23 24  2  0
 24 25  1  0
 25 26  2  0
 20 27  1  0
  9 28  1  0
 28 29  2  0
 29  6  1  0
 27 11  1  0
 19 13  1  0
 26 21  1  0
  1 30  1  0
  1 31  1  0
  1 32  1  0
  5 33  1  0
  5 34  1  0
  5 35  1  0
  7 36  1  0
  8 37  1  0
 10 38  1  0
 10 39  1  0
 11 40  1  1
 14 41  1  0
 15 42  1  0
 18 43  1  0
 22 44  1  0
 23 45  1  0
 24 46  1  0
 25 47  1  0
 26 48  1  0
 27 49  1  0
 27 50  1  0
 28 51  1  0
 29 52  1  0
M  CHG  2  17  -1  27   1
M  END
>  <UniqueID>  (62) 
59

>  <SMILES>  (62) 
CC(=O)N(C)c1ccc(C[C@H]2N=c3ccc([O-])cc3=C(c3ccccc3)[NH2+]2)cc1

>  <Energy>  (62) 
74.75238403369545

>  <Genealogy>  (62) 
CC(=O)N(C)c1ccc(CC2N=c3ccc([O-])cc3=C(c3ccccc3)[NH2+]2)cc1 (protonated)
CC(=O)N(C)c1ccc(C[C@H]2N=c3ccc([O-])cc3=C(c3ccccc3)[NH2+]2)cc1 (chirality)
CC(=O)N(C)c1ccc(C[C@H]2N=c3ccc([O-])cc3=C(c3ccccc3)[NH2+]2)cc1 (3D coordinates assigned)
CC(=O)N(C)c1ccc(C[C@H]2N=c3ccc([O-])cc3=C(c3ccccc3)[NH2+]2)cc1 (nonaromatic ring conformer: 74.75238403369545 kcal/mol)

>  <smiles>  (62) 
CC(=O)N(C)c1ccc(CC2N=c3ccc(O)cc3=C(c3ccccc3)N2)cc1

>  <score_type>  (62) 
oracle

>  <origin>  (62) 
adg

>  <m_score__min__energy>  (62) 
-10.449999999999999

>  <m_primary>  (62) 
energy

$$$$
62:0
     RDKit          3D

 53 55  0  0  0  0  0  0  0  0999 V2000
   58.5120   33.2410   44.5560 C   0  0  0  0  0  0  0  0  0  0  0  0
   58.0290   32.1990   43.8800 C   0  0  0  0  0  0  0  0  0  0  0  0
   57.9160   32.3090   41.9730 Br  0  0  0  0  0  0  0  0  0  0  0  0
   57.6860   30.9280   44.5490 C   0  0  0  0  0  0  0  0  0  0  0  0
   56.4340   30.3450   44.5220 C   0  0  0  0  0  0  0  0  0  0  0  0
   56.5670   29.1340   45.1610 C   0  0  0  0  0  0  0  0  0  0  0  0
   55.5440   28.1990   45.2710 O   0  0  0  0  0  0  0  0  0  0  0  0
   57.8270   28.9520   45.6250 N   0  0  0  0  0  0  0  0  0  0  0  0
   58.3900   27.7190   46.2130 C   0  0  1  0  0  0  0  0  0  0  0  0
   59.1440   26.8810   45.1750 C   0  0  0  0  0  0  0  0  0  0  0  0
   59.2710   28.0490   47.3860 C   0  0  0  0  0  0  0  0  0  0  0  0
   60.5200   27.8980   47.2810 O   0  0  0  0  0  0  0  0  0  0  0  0
   58.6900   28.4530   48.5950 O   0  0  0  0  0  0  0  0  0  0  0  0
   58.7820   29.7270   49.1710 C   0  0  0  0  0  0  0  0  0  0  0  0
   58.5430   29.9630   50.5360 C   0  0  0  0  0  0  0  0  0  0  0  0
   58.6530   31.2570   51.0530 C   0  0  0  0  0  0  0  0  0  0  0  0
   59.0040   32.3200   50.2170 C   0  0  0  0  0  0  0  0  0  0  0  0
   59.2600   32.1000   48.8590 C   0  0  0  0  0  0  0  0  0  0  0  0
   59.6030   33.2010   48.0580 O   0  0  0  0  0  0  0  0  0  0  0  0
   60.8540   33.3820   47.3930 C   0  0  0  0  0  0  0  0  0  0  0  0
   61.9940   33.4810   48.3850 C   0  0  0  0  0  0  0  0  0  0  0  0
   61.8940   34.3980   49.4480 C   0  0  0  0  0  0  0  0  0  0  0  0
   62.9140   34.5060   50.3930 C   0  0  0  0  0  0  0  0  0  0  0  0
   64.0520   33.7070   50.2890 C   0  0  0  0  0  0  0  0  0  0  0  0
   64.1770   32.8040   49.2330 C   0  0  0  0  0  0  0  0  0  0  0  0
   63.1670   32.6910   48.2610 C   0  0  0  0  0  0  0  0  0  0  0  0
   63.3410   31.6940   47.1450 C   0  0  0  0  0  0  0  0  0  0  0  0
   59.1640   30.7930   48.3470 C   0  0  0  0  0  0  0  0  0  0  0  0
   58.5210   30.0590   45.2520 C   0  0  0  0  0  0  0  0  0  0  0  0
   59.9770   30.2890   45.5550 C   0  0  0  0  0  0  0  0  0  0  0  0
   58.5856   33.1988   45.6527 H   0  0  0  0  0  0  0  0  0  0  0  0
   58.8371   34.1433   44.0173 H   0  0  0  0  0  0  0  0  0  0  0  0
   55.5178   30.7635   44.0799 H   0  0  0  0  0  0  0  0  0  0  0  0
   57.5486   27.1067   46.5695 H   0  0  0  0  0  0  0  0  0  0  0  0
   59.7943   26.1583   45.6896 H   0  0  0  0  0  0  0  0  0  0  0  0
   58.4218   26.3409   44.5452 H   0  0  0  0  0  0  0  0  0  0  0  0
   59.7571   27.5423   44.5452 H   0  0  0  0  0  0  0  0  0  0  0  0
   58.2691   29.1284   51.1981 H   0  0  0  0  0  0  0  0  0  0  0  0
   58.4627   31.4389   52.1210 H   0  0  0  0  0  0  0  0  0  0  0  0
   59.0796   33.3370   50.6292 H   0  0  0  0  0  0  0  0  0  0  0  0
   61.0326   32.5258   46.7259 H   0  0  0  0  0  0  0  0  0  0  0  0
   60.8102   34.3194   46.8190 H   0  0  0  0  0  0  0  0  0  0  0  0
   61.0022   35.0361   49.5344 H   0  0  0  0  0  0  0  0  0  0  0  0
   62.8206   35.2229   51.2220 H   0  0  0  0  0  0  0  0  0  0  0  0
   64.8516   33.7887   51.0400 H   0  0  0  0  0  0  0  0  0  0  0  0
   65.0754   32.1735   49.1598 H   0  0  0  0  0  0  0  0  0  0  0  0
   63.5154   30.6946   47.5701 H   0  0  0  0  0  0  0  0  0  0  0  0
   62.4325   31.6753   46.5250 H   0  0  0  0  0  0  0  0  0  0  0  0
   64.2021   31.9842   46.5250 H   0  0  0  0  0  0  0  0  0  0  0  0
   59.3917   30.6063   47.2871 H   0  0  0  0  0  0  0  0  0  0  0  0
   60.1255   30.3125   46.6447 H   0  0  0  0  0  0  0  0  0  0  0  0
   60.5750   29.4742   45.1209 H   0  0  0  0  0  0  0  0  0  0  0  0
   60.2948   31.2485   45.1209 H   0  0  0  0  0  0  0  0  0  0  0  0
  1  2  2  0
  2  3  1  0
  2  4  1  0
  4  5  1  0
  5  6  2  0
  6  7  1  0
  6  8  1  0
  8  9  1  0
  9 10  1  0
  9 11  1  0
 11 12  2  0
 11 13  1  0
 13 14  1  0
 14 15  2  0
 15 16  1  0
 16 17  2  0
 17 18  1  0
 18 19  1  0
 19 20  1  0
 20 21  1  0
 21 22  2  0
 22 23  1  0
 23 24  2  0
 24 25  1  0
 25 26  2  0
 26 27  1  0
 18 28  2  0
  8 29  1  0
 29 30  1  0
 29  4  2  0
 28 14  1  0
 26 21  1  0
  1 31  1  0
  1 32  1  0
  5 33  1  0
  9 34  1  1
 10 35  1  0
 10 36  1  0
 10 37  1  0
 15 38  1  0
 16 39  1  0
 17 40  1  0
 20 41  1  0
 20 42  1  0
 22 43  1  0
 23 44  1  0
 24 45  1  0
 25 46  1  0
 27 47  1  0
 27 48  1  0
 27 49  1  0
 28 50  1  0
 30 51  1  0
 30 52  1  0
 30 53  1  0
M  CHG  1   7  -1
M  END
>  <UniqueID>  (63) 
60

>  <SMILES>  (63) 
C=C(Br)c1cc([O-])n([C@@H](C)C(=O)Oc2cccc(OCc3ccccc3C)c2)c1C

>  <Energy>  (63) 
88.56259920726978

>  <Genealogy>  (63) 
C=C(Br)c1cc([O-])n(C(C)C(=O)Oc2cccc(OCc3ccccc3C)c2)c1C (protonated)
C=C(Br)c1cc([O-])n([C@@H](C)C(=O)Oc2cccc(OCc3ccccc3C)c2)c1C (chirality)
C=C(Br)c1cc([O-])n([C@@H](C)C(=O)Oc2cccc(OCc3ccccc3C)c2)c1C (3D coordinates assigned)
C=C(Br)c1cc([O-])n([C@@H](C)C(=O)Oc2cccc(OCc3ccccc3C)c2)c1C (optimized conformer: 88.56259920726978 kcal/mol)

>  <smiles>  (63) 
C=C(Br)c1cc(O)n(C(C)C(=O)Oc2cccc(OCc3ccccc3C)c2)c1C

>  <score_type>  (63) 
oracle

>  <origin>  (63) 
adg

>  <m_score__min__energy>  (63) 
-12.33

>  <m_primary>  (63) 
energy

$$$$
63:0
     RDKit          3D

 44 46  0  0  0  0  0  0  0  0999 V2000
   57.3160   20.6360   46.4730 C   0  0  0  0  0  0  0  0  0  0  0  0
   57.0070   21.7120   47.3530 O   0  0  0  0  0  0  0  0  0  0  0  0
   57.0540   23.0680   46.9920 C   0  0  0  0  0  0  0  0  0  0  0  0
   57.3360   24.0870   47.9200 C   0  0  0  0  0  0  0  0  0  0  0  0
   57.3720   25.4240   47.5120 C   0  0  0  0  0  0  0  0  0  0  0  0
   57.1280   25.7690   46.1710 C   0  0  0  0  0  0  0  0  0  0  0  0
   57.1640   27.1810   45.7170 C   0  0  0  0  0  0  0  0  0  0  0  0
   58.2600   28.0270   45.7090 C   0  0  0  0  0  0  0  0  0  0  0  0
   57.8710   29.2160   45.2130 N   0  0  0  0  0  0  0  0  0  0  0  0
   58.7030   30.4190   45.1000 C   0  0  0  0  0  0  0  0  0  0  0  0
   58.8700   31.1430   46.4490 C   0  0  0  0  0  0  0  0  0  0  0  0
   58.2070   32.4700   46.4560 N   0  0  0  0  0  0  0  0  0  0  0  0
   57.6150   32.7970   45.1310 C   0  0  0  0  0  0  0  0  0  0  0  0
   57.5140   34.3070   44.8830 C   0  0  0  0  0  0  0  0  0  0  0  0
   58.9050   34.9620   44.9060 C   0  0  0  0  0  0  0  0  0  0  0  0
   59.8730   34.2540   45.8690 C   0  0  0  0  0  0  0  0  0  0  0  0
   59.1130   33.5260   46.9850 C   0  0  0  0  0  0  0  0  0  0  0  0
   56.5480   29.0760   44.9630 C   0  0  0  0  0  0  0  0  0  0  0  0
   55.5780   30.2650   44.3870 S   0  0  0  0  0  0  0  0  0  0  0  0
   56.0830   27.8450   45.2510 N   0  0  0  0  0  0  0  0  0  0  0  0
   56.8490   24.7450   45.2480 C   0  0  0  0  0  0  0  0  0  0  0  0
   56.8130   23.4100   45.6580 C   0  0  0  0  0  0  0  0  0  0  0  0
   57.5725   19.7429   47.0617 H   0  0  0  0  0  0  0  0  0  0  0  0
   56.4439   20.4190   45.8387 H   0  0  0  0  0  0  0  0  0  0  0  0
   58.1704   20.9148   45.8387 H   0  0  0  0  0  0  0  0  0  0  0  0
   57.5292   23.8307   48.9721 H   0  0  0  0  0  0  0  0  0  0  0  0
   57.5931   26.2125   48.2464 H   0  0  0  0  0  0  0  0  0  0  0  0
   59.2742   27.7713   46.0495 H   0  0  0  0  0  0  0  0  0  0  0  0
   59.6969   30.1281   44.7292 H   0  0  0  0  0  0  0  0  0  0  0  0
   58.2021   31.1106   44.4066 H   0  0  0  0  0  0  0  0  0  0  0  0
   58.4284   30.5217   47.2421 H   0  0  0  0  0  0  0  0  0  0  0  0
   59.9454   31.3008   46.6179 H   0  0  0  0  0  0  0  0  0  0  0  0
   58.2441   32.3529   44.3455 H   0  0  0  0  0  0  0  0  0  0  0  0
   56.5936   32.3890   45.1142 H   0  0  0  0  0  0  0  0  0  0  0  0
   57.0507   34.4802   43.9005 H   0  0  0  0  0  0  0  0  0  0  0  0
   56.9024   34.7537   45.6808 H   0  0  0  0  0  0  0  0  0  0  0  0
   59.3283   34.9271   43.8913 H   0  0  0  0  0  0  0  0  0  0  0  0
   58.7815   35.9971   45.2570 H   0  0  0  0  0  0  0  0  0  0  0  0
   60.4691   33.5219   45.3044 H   0  0  0  0  0  0  0  0  0  0  0  0
   60.5235   35.0127   46.3286 H   0  0  0  0  0  0  0  0  0  0  0  0
   59.8423   33.0591   47.6632 H   0  0  0  0  0  0  0  0  0  0  0  0
   58.4939   34.2683   47.5100 H   0  0  0  0  0  0  0  0  0  0  0  0
   56.6576   24.9974   44.1946 H   0  0  0  0  0  0  0  0  0  0  0  0
   56.5930   22.6205   44.9243 H   0  0  0  0  0  0  0  0  0  0  0  0
  1  2  1  0
  2  3  1  0
  3  4  2  0
  4  5  1  0
  5  6  2  0
  6  7  1  0
  7  8  2  0
  8  9  1  0
  9 10  1  0
 10 11  1  0
 11 12  1  0
 12 13  1  0
 13 14  1  0
 14 15  1  0
 15 16  1  0
 16 17  1  0
  9 18  1  0
 18 19  2  0
 18 20  1  0
  6 21  1  0
 21 22  2  0
 22  3  1  0
 20  7  1  0
 17 12  1  0
  1 23  1  0
  1 24  1  0
  1 25  1  0
  4 26  1  0
  5 27  1  0
  8 28  1  0
 10 29  1  0
 10 30  1  0
 11 31  1  0
 11 32  1  0
 13 33  1  0
 13 34  1  0
 14 35  1  0
 14 36  1  0
 15 37  1  0
 15 38  1  0
 16 39  1  0
 16 40  1  0
 17 41  1  0
 17 42  1  0
 21 43  1  0
 22 44  1  0
M  CHG  1  20  -1
M  END
>  <UniqueID>  (64) 
61

>  <SMILES>  (64) 
COc1ccc(-c2cn(CCN3CCCCC3)c(=S)[n-]2)cc1

>  <Energy>  (64) 
83.30385220545182

>  <Genealogy>  (64) 
COc1ccc(-c2cn(CCN3CCCCC3)c(=S)[n-]2)cc1 (protonated)
COc1ccc(-c2cn(CCN3CCCCC3)c(=S)[n-]2)cc1 (3D coordinates assigned)
COc1ccc(-c2cn(CCN3CCCCC3)c(=S)[n-]2)cc1 (nonaromatic ring conformer: 83.30385220545182 kcal/mol)

>  <smiles>  (64) 
COc1ccc(-c2cn(CCN3CCCCC3)c(=S)[nH]2)cc1

>  <score_type>  (64) 
oracle

>  <origin>  (64) 
adg

>  <m_score__min__energy>  (64) 
-8.4199999999999999

>  <m_primary>  (64) 
energy

$$$$
64:0
     RDKit          3D

 47 51  0  0  1  0  0  0  0  0999 V2000
   63.3910   33.8480   46.3930 C   0  0  0  0  0  0  0  0  0  0  0  0
   62.9290   33.0780   47.2070 C   0  0  0  0  0  0  0  0  0  0  0  0
   62.3660   32.1370   48.1680 C   0  0  0  0  0  0  0  0  0  0  0  0
   62.5640   32.3750   49.5210 C   0  0  0  0  0  0  0  0  0  0  0  0
   62.0040   31.4370   50.3810 C   0  0  0  0  0  0  0  0  0  0  0  0
   61.2980   30.3430   49.9260 C   0  0  0  0  0  0  0  0  0  0  0  0
   61.1210   30.1390   48.5740 C   0  0  0  0  0  0  0  0  0  0  0  0
   60.4020   29.0280   48.0870 N   0  0  0  0  0  0  0  0  0  0  0  0
   59.3020   29.1120   47.1930 C   0  0  0  0  0  0  0  0  0  0  0  0
   58.4550   28.0160   47.0020 C   0  0  0  0  0  0  0  0  0  0  0  0
   57.3870   28.1360   46.1330 C   0  0  0  0  0  0  0  0  0  0  0  0
   56.6010   27.1310   45.9470 N   0  0  0  0  0  0  0  0  0  0  0  0
   57.1670   25.8140   45.8030 C   0  0  0  0  0  0  0  0  0  0  0  0
   56.5060   24.7840   44.9530 C   0  0  0  0  0  0  0  0  0  0  0  0
   57.7270   25.5130   44.4400 C   0  0  0  0  0  0  0  0  0  0  0  0
   57.1240   29.2730   45.4560 N   0  0  0  0  0  0  0  0  0  0  0  0
   56.1770   29.6070   44.5910 N   0  0  0  0  0  0  0  0  0  0  0  0
   56.3530   30.8790   44.1940 C   0  0  0  0  0  0  0  0  0  0  0  0
   57.4710   31.3360   44.8600 C   0  0  0  0  0  0  0  0  0  0  0  0
   57.9860   32.5480   44.7490 C   0  0  0  0  0  0  0  0  0  0  0  0
   58.5380   33.3000   45.8650 C   0  0  0  0  0  0  0  0  0  0  0  0
   58.7010   32.9550   47.1520 N   0  0  0  0  0  0  0  0  0  0  0  0
   59.2620   34.0090   47.8140 C   0  0  0  0  0  0  0  0  0  0  0  0
   59.5570   34.0340   49.0500 O   0  0  0  0  0  0  0  0  0  0  0  0
   59.4480   35.0190   46.9340 N   0  0  0  0  0  0  0  0  0  0  0  0
   59.0060   34.6060   45.7080 C   0  0  0  0  0  0  0  0  0  0  0  0
   59.0290   35.3650   44.5310 O   0  0  0  0  0  0  0  0  0  0  0  0
   57.9630   30.3240   45.6590 C   0  0  0  0  0  0  0  0  0  0  0  0
   59.0160   30.2510   46.4980 N   0  0  0  0  0  0  0  0  0  0  0  0
   61.6630   31.0500   47.7060 C   0  0  0  0  0  0  0  0  0  0  0  0
   61.5240   30.9060   46.3660 F   0  0  0  0  0  0  0  0  0  0  0  0
   63.8103   34.5468   45.6542 H   0  0  0  0  0  0  0  0  0  0  0  0
   63.1258   33.2466   49.8880 H   0  0  0  0  0  0  0  0  0  0  0  0
   62.1287   31.5725   51.4655 H   0  0  0  0  0  0  0  0  0  0  0  0
   60.8734   29.6285   50.6466 H   0  0  0  0  0  0  0  0  0  0  0  0
   60.6740   28.0580   48.3870 H   0  0  0  0  0  0  0  0  0  0  0  0
   58.6362   27.0715   47.5359 H   0  0  0  0  0  0  0  0  0  0  0  0
   57.5184   25.7968   46.8452 H   0  0  0  0  0  0  0  0  0  0  0  0
   56.5748   23.7204   45.2249 H   0  0  0  0  0  0  0  0  0  0  0  0
   55.4835   24.6233   44.5807 H   0  0  0  0  0  0  0  0  0  0  0  0
   58.6858   24.9829   44.3417 H   0  0  0  0  0  0  0  0  0  0  0  0
   57.9659   26.1049   43.5441 H   0  0  0  0  0  0  0  0  0  0  0  0
   55.7313   31.4416   43.4821 H   0  0  0  0  0  0  0  0  0  0  0  0
   57.9979   33.0159   43.7535 H   0  0  0  0  0  0  0  0  0  0  0  0
   58.4410   32.0330   47.5680 H   0  0  0  0  0  0  0  0  0  0  0  0
   59.8630   35.9790   47.1260 H   0  0  0  0  0  0  0  0  0  0  0  0
   59.6220   34.9750   43.7840 H   0  0  0  0  0  0  0  0  0  0  0  0
  1  2  3  0
  2  3  1  0
  3  4  2  0
  4  5  1  0
  5  6  2  0
  6  7  1  0
  7  8  1  0
  8  9  1  0
  9 10  2  0
 10 11  1  0
 11 12  2  0
 12 13  1  0
 13 14  1  0
 14 15  1  0
 11 16  1  0
 16 17  1  0
 17 18  2  0
 18 19  1  0
 19 20  2  0
 20 21  1  0
 21 22  1  0
 22 23  1  0
 23 24  2  0
 23 25  1  0
 25 26  1  0
 26 27  1  0
 19 28  1  0
 28 29  2  0
  7 30  2  0
 30 31  1  0
 30  3  1  0
 29  9  1  0
 15 13  1  0
 28 16  1  0
 26 21  2  0
  1 32  1  0
  4 33  1  0
  5 34  1  0
  6 35  1  0
  8 36  1  0
 10 37  1  0
 13 38  1  0
 14 39  1  0
 14 40  1  0
 15 41  1  0
 15 42  1  0
 18 43  1  0
 20 44  1  0
 22 45  1  0
 25 46  1  0
 27 47  1  0
M  END
>  <smiles>  (65) 
C#Cc1cccc(Nc2cc(=NC3CC3)n3ncc(=Cc4[nH]c(=O)[nH]c4O)c3n2)c1F

>  <score_type>  (65) 
oracle

>  <origin>  (65) 
adg

>  <m_score__min__energy>  (65) 
-9.5600000000000005

>  <m_primary>  (65) 
energy

$$$$
65:0
     RDKit          3D

 50 54  0  0  0  0  0  0  0  0999 V2000
   54.6172   24.2765   45.8567 H   0  0  0  0  0  0  0  0  0  0  0  0
   55.5110   24.8340   45.5400 C   0  0  0  0  0  0  0  0  0  0  0  0
   55.7670   26.0620   46.0640 N   0  0  0  0  0  0  0  0  0  0  0  0
   56.8550   26.7950   45.7030 C   0  0  0  0  0  0  0  0  0  0  0  0
   57.0140   27.9740   46.2350 N   0  0  0  0  0  0  0  0  0  0  0  0
   56.8190   29.2390   45.5870 C   0  0  0  0  0  0  0  0  0  0  0  0
   55.9140   29.4310   44.6110 N   0  0  0  0  0  0  0  0  0  0  0  0
   56.0410   30.6740   44.1700 N   0  0  0  0  0  0  0  0  0  0  0  0
   57.0390   31.2770   44.8490 C   0  0  0  0  0  0  0  0  0  0  0  0
   57.3714   32.3155   44.7036 H   0  0  0  0  0  0  0  0  0  0  0  0
   57.5760   30.3870   45.7530 C   0  0  0  0  0  0  0  0  0  0  0  0
   58.7460   30.6130   46.6190 C   0  0  0  0  0  0  0  0  0  0  0  0
   58.9960   29.8670   47.7270 N   0  0  0  0  0  0  0  0  0  0  0  0
   60.1440   30.3980   48.1780 C   0  0  0  0  0  0  0  0  0  0  0  0
   60.8830   30.0140   49.2890 C   0  0  0  0  0  0  0  0  0  0  0  0
   60.4670   29.0650   50.0090 O   0  0  0  0  0  0  0  0  0  0  0  0
   62.0610   30.6810   49.5820 N   0  0  0  0  0  0  0  0  0  0  0  0
   62.8200   30.2280   50.7750 C   0  0  0  0  0  0  0  0  0  0  0  0
   63.8782   30.1083   50.4994 H   0  0  0  0  0  0  0  0  0  0  0  0
   62.3888   29.2739   51.1124 H   0  0  0  0  0  0  0  0  0  0  0  0
   62.7180   31.2360   51.9350 C   0  0  0  0  0  0  0  0  0  0  0  0
   63.5109   31.9885   51.8122 H   0  0  0  0  0  0  0  0  0  0  0  0
   62.8239   30.6642   52.8687 H   0  0  0  0  0  0  0  0  0  0  0  0
   61.3720   31.9590   52.0030 C   0  0  0  0  0  0  0  0  0  0  0  0
   61.1087   32.1432   53.0550 H   0  0  0  0  0  0  0  0  0  0  0  0
   60.5987   31.3340   51.5325 H   0  0  0  0  0  0  0  0  0  0  0  0
   61.4580   33.1910   51.3180 O   0  0  0  0  0  0  0  0  0  0  0  0
   60.2420   33.4390   50.6470 C   0  0  0  0  0  0  0  0  0  0  0  0
   59.4427   33.6020   51.3849 H   0  0  0  0  0  0  0  0  0  0  0  0
   60.3471   34.3342   50.0165 H   0  0  0  0  0  0  0  0  0  0  0  0
   59.9881   32.5741   50.0165 H   0  0  0  0  0  0  0  0  0  0  0  0
   62.5020   31.7170   48.7520 C   0  0  0  0  0  0  0  0  0  0  0  0
   63.7100   32.4250   48.9760 C   0  0  0  0  0  0  0  0  0  0  0  0
   64.3341   32.1688   49.8448 H   0  0  0  0  0  0  0  0  0  0  0  0
   64.1210   33.4440   48.1100 C   0  0  0  0  0  0  0  0  0  0  0  0
   65.0639   33.9765   48.3031 H   0  0  0  0  0  0  0  0  0  0  0  0
   63.3460   33.7900   47.0050 C   0  0  0  0  0  0  0  0  0  0  0  0
   63.6786   34.5929   46.3307 H   0  0  0  0  0  0  0  0  0  0  0  0
   62.1510   33.1210   46.7530 C   0  0  0  0  0  0  0  0  0  0  0  0
   61.5400   33.3957   45.8805 H   0  0  0  0  0  0  0  0  0  0  0  0
   61.7270   32.0970   47.6120 C   0  0  0  0  0  0  0  0  0  0  0  0
   60.5470   31.4040   47.3780 C   0  0  0  0  0  0  0  0  0  0  0  0
   59.6730   31.5740   46.3750 N   0  0  0  0  0  0  0  0  0  0  0  0
   57.7700   26.2520   44.7770 C   0  0  0  0  0  0  0  0  0  0  0  0
   58.6722   26.8144   44.4945 H   0  0  0  0  0  0  0  0  0  0  0  0
   57.5220   24.9960   44.2220 C   0  0  0  0  0  0  0  0  0  0  0  0
   58.2227   24.5707   43.4884 H   0  0  0  0  0  0  0  0  0  0  0  0
   56.3840   24.2790   44.5980 C   0  0  0  0  0  0  0  0  0  0  0  0
   56.1150   22.9860   44.0290 C   0  0  0  0  0  0  0  0  0  0  0  0
   55.8980   21.9450   43.5710 N   0  0  0  0  0  0  0  0  0  0  0  0
  1  2  1  0
  2  3  1  0
  3  4  1  0
  4  5  2  0
  5  6  1  0
  6  7  2  0
  7  8  1  0
  8  9  1  0
  9 10  1  0
  9 11  2  0
 11 12  1  0
 12 13  2  0
 13 14  1  0
 14 15  1  0
 15 16  2  0
 15 17  1  0
 17 18  1  0
 18 19  1  0
 18 20  1  0
 18 21  1  0
 21 22  1  0
 21 23  1  0
 21 24  1  0
 24 25  1  0
 24 26  1  0
 24 27  1  0
 27 28  1  0
 28 29  1  0
 28 30  1  0
 28 31  1  0
 17 32  1  0
 32 33  2  0
 33 34  1  0
 33 35  1  0
 35 36  1  0
 35 37  2  0
 37 38  1  0
 37 39  1  0
 39 40  1  0
 39 41  2  0
 41 42  1  0
 42 43  1  0
  4 44  1  0
 44 45  1  0
 44 46  2  0
 46 47  1  0
 46 48  1  0
 48 49  1  0
 49 50  3  0
 48  2  2  0
 11  6  1  0
 43 12  1  0
 42 14  2  0
 41 32  1  0
M  CHG  3   3  -1   8  -1  43  -1
M  END
>  <UniqueID>  (66) 
62

>  <SMILES>  (66) 
COCCCn1c(=O)c2nc(-c3c[n-]nc3/N=c3\ccc(C#N)c[n-]3)[n-]c2c2ccccc21

>  <Energy>  (66) 
138.52069993509258

>  <Genealogy>  (66) 
COCCCn1c(=O)c2nc(-c3c[n-]nc3N=c3ccc(C#N)c[n-]3)[n-]c2c2ccccc21 (protonated)
COCCCn1c(=O)c2nc(-c3c[n-]nc3/N=c3\ccc(C#N)c[n-]3)[n-]c2c2ccccc21 (cis-trans isomerization)
COCCCn1c(=O)c2nc(-c3c[n-]nc3/N=c3\ccc(C#N)c[n-]3)[n-]c2c2ccccc21 (3D coordinates assigned)
COCCCn1c(=O)c2nc(-c3c[n-]nc3/N=c3\ccc(C#N)c[n-]3)[n-]c2c2ccccc21 (optimized conformer: 138.52069993509258 kcal/mol)

>  <smiles>  (66) 
COCCCn1c(=O)c2nc(-c3c[nH]nc3N=c3ccc(C#N)c[nH]3)[nH]c2c2ccccc21

>  <score_type>  (66) 
oracle

>  <origin>  (66) 
adg

>  <m_score__min__energy>  (66) 
-12.83

>  <m_primary>  (66) 
energy

$$$$
66:0
     RDKit          3D

 33 35  0  0  0  0  0  0  0  0999 V2000
   60.0180   30.9930   47.3660 C   0  0  0  0  0  0  0  0  0  0  0  0
   59.0410   31.5440   46.3620 C   0  0  0  0  0  0  0  0  0  0  0  0
   58.2150   30.7400   45.5600 C   0  0  0  0  0  0  0  0  0  0  0  0
   58.2040   29.2640   45.4730 C   0  0  0  0  0  0  0  0  0  0  0  0
   58.1530   28.4940   46.6480 C   0  0  0  0  0  0  0  0  0  0  0  0
   58.1270   27.0980   46.5760 C   0  0  0  0  0  0  0  0  0  0  0  0
   58.1380   26.4590   45.3330 C   0  0  0  0  0  0  0  0  0  0  0  0
   58.1010   24.7070   45.2460 Cl  0  0  0  0  0  0  0  0  0  0  0  0
   58.1690   27.2180   44.1600 C   0  0  0  0  0  0  0  0  0  0  0  0
   58.1970   28.6130   44.2270 C   0  0  0  0  0  0  0  0  0  0  0  0
   57.1780   31.7380   44.6820 S   0  0  0  0  0  0  0  0  0  0  0  0
   57.7790   33.1850   45.2770 C   0  0  0  0  0  0  0  0  0  0  0  0
   57.3170   34.4740   44.8730 N   0  0  0  0  0  0  0  0  0  0  0  0
   58.8100   32.9270   46.1780 C   0  0  0  0  0  0  0  0  0  0  0  0
   59.5440   33.9940   46.8840 C   0  0  0  0  0  0  0  0  0  0  0  0
   58.9500   35.0730   47.1520 O   0  0  0  0  0  0  0  0  0  0  0  0
   60.9590   33.8280   47.2620 C   0  0  0  0  0  0  0  0  0  0  0  0
   62.0190   33.6630   46.3740 C   0  0  0  0  0  0  0  0  0  0  0  0
   63.2540   33.4930   47.0100 C   0  0  0  0  0  0  0  0  0  0  0  0
   63.1600   33.5170   48.3930 C   0  0  0  0  0  0  0  0  0  0  0  0
   64.1960   33.3700   49.2520 F   0  0  0  0  0  0  0  0  0  0  0  0
   61.5570   33.7440   48.8370 S   0  0  0  0  0  0  0  0  0  0  0  0
   59.6535   31.1986   48.3833 H   0  0  0  0  0  0  0  0  0  0  0  0
   60.1160   29.9066   47.2242 H   0  0  0  0  0  0  0  0  0  0  0  0
   60.9984   31.4712   47.2242 H   0  0  0  0  0  0  0  0  0  0  0  0
   58.1335   28.9921   47.6286 H   0  0  0  0  0  0  0  0  0  0  0  0
   58.0978   26.5013   47.4996 H   0  0  0  0  0  0  0  0  0  0  0  0
   58.1714   26.7156   43.1814 H   0  0  0  0  0  0  0  0  0  0  0  0
   58.2137   29.2051   43.3001 H   0  0  0  0  0  0  0  0  0  0  0  0
   56.6130   34.5830   44.1110 H   0  0  0  0  0  0  0  0  0  0  0  0
   57.6680   35.3300   45.3580 H   0  0  0  0  0  0  0  0  0  0  0  0
   61.8976   33.6660   45.2807 H   0  0  0  0  0  0  0  0  0  0  0  0
   64.2014   33.3546   46.4685 H   0  0  0  0  0  0  0  0  0  0  0  0
  1  2  1  0
  2  3  2  0
  3  4  1  0
  4  5  2  0
  5  6  1  0
  6  7  2  0
  7  8  1  0
  7  9  1  0
  9 10  2  0
  3 11  1  0
 11 12  1  0
 12 13  1  0
 12 14  2  0
 14 15  1  0
 15 16  2  0
 15 17  1  0
 17 18  2  0
 18 19  1  0
 19 20  2  0
 20 21  1  0
 20 22  1  0
 14  2  1  0
 22 17  1  0
 10  4  1  0
  1 23  1  0
  1 24  1  0
  1 25  1  0
  5 26  1  0
  6 27  1  0
  9 28  1  0
 10 29  1  0
 13 30  1  0
 13 31  1  0
 18 32  1  0
 19 33  1  0
M  END
>  <UniqueID>  (67) 
63

>  <SMILES>  (67) 
Cc1c(-c2ccc(Cl)cc2)sc(N)c1C(=O)c1ccc(F)s1

>  <Energy>  (67) 
98.0518107450132

>  <Genealogy>  (67) 
Cc1c(-c2ccc(Cl)cc2)sc(N)c1C(=O)c1ccc(F)s1 (3D coordinates assigned)
Cc1c(-c2ccc(Cl)cc2)sc(N)c1C(=O)c1ccc(F)s1 (optimized conformer: 98.0518107450132 kcal/mol)

>  <smiles>  (67) 
Cc1c(-c2ccc(Cl)cc2)sc(N)c1C(=O)c1ccc(F)s1

>  <score_type>  (67) 
oracle

>  <origin>  (67) 
adg

>  <m_score__min__energy>  (67) 
-7.4199999999999999

>  <m_primary>  (67) 
energy

$$$$
67:0
     RDKit          3D

 25 25  0  0  0  0  0  0  0  0999 V2000
   59.6710   33.9200   48.1500 C   0  0  0  0  0  0  0  0  0  0  0  0
   58.8250   34.5800   47.1410 N   0  0  0  0  0  0  0  0  0  0  0  0
   59.6670   35.0490   46.0270 C   0  0  0  0  0  0  0  0  0  0  0  0
   57.7820   33.6640   46.6270 C   0  0  0  0  0  0  0  0  0  0  0  0
   57.3410   34.0410   45.2030 C   0  0  0  0  0  0  0  0  0  0  0  0
   58.1620   32.9900   43.9560 S   0  0  0  0  0  0  0  0  0  0  0  0
   57.3720   31.4870   44.5330 C   0  0  0  0  0  0  0  0  0  0  0  0
   56.1120   31.1270   44.2320 N   0  0  0  0  0  0  0  0  0  0  0  0
   55.9240   29.9780   44.8720 N   0  0  0  0  0  0  0  0  0  0  0  0
   57.0190   29.6440   45.5410 N   0  0  0  0  0  0  0  0  0  0  0  0
   57.9380   30.5680   45.3310 N   0  0  0  0  0  0  0  0  0  0  0  0
   59.2580   30.5940   45.9470 C   0  0  0  0  0  0  0  0  0  0  0  0
   59.3214   34.1927   49.1567 H   0  0  0  0  0  0  0  0  0  0  0  0
   59.6092   32.8291   48.0234 H   0  0  0  0  0  0  0  0  0  0  0  0
   60.7141   34.2453   48.0234 H   0  0  0  0  0  0  0  0  0  0  0  0
   60.5618   35.5474   46.4283 H   0  0  0  0  0  0  0  0  0  0  0  0
   59.9710   34.1903   45.4104 H   0  0  0  0  0  0  0  0  0  0  0  0
   59.0970   35.7596   45.4104 H   0  0  0  0  0  0  0  0  0  0  0  0
   58.1821   32.6394   46.6161 H   0  0  0  0  0  0  0  0  0  0  0  0
   56.9055   33.7397   47.2873 H   0  0  0  0  0  0  0  0  0  0  0  0
   56.2517   33.9126   45.1191 H   0  0  0  0  0  0  0  0  0  0  0  0
   57.6242   35.0875   45.0168 H   0  0  0  0  0  0  0  0  0  0  0  0
   59.1518   30.5919   47.0419 H   0  0  0  0  0  0  0  0  0  0  0  0
   59.8271   29.7069   45.6321 H   0  0  0  0  0  0  0  0  0  0  0  0
   59.7917   31.5028   45.6321 H   0  0  0  0  0  0  0  0  0  0  0  0
  1  2  1  0
  2  3  1  0
  2  4  1  0
  4  5  1  0
  5  6  1  0
  6  7  1  0
  7  8  2  0
  8  9  1  0
  9 10  2  0
 10 11  1  0
 11 12  1  0
 11  7  1  0
  1 13  1  0
  1 14  1  0
  1 15  1  0
  3 16  1  0
  3 17  1  0
  3 18  1  0
  4 19  1  0
  4 20  1  0
  5 21  1  0
  5 22  1  0
 12 23  1  0
 12 24  1  0
 12 25  1  0
M  END
>  <UniqueID>  (68) 
64

>  <SMILES>  (68) 
CN(C)CCSc1nnnn1C

>  <Energy>  (68) 
58.34398384410813

>  <Genealogy>  (68) 
CN(C)CCSc1nnnn1C (3D coordinates assigned)
CN(C)CCSc1nnnn1C (optimized conformer: 58.34398384410813 kcal/mol)

>  <smiles>  (68) 
CN(C)CCSc1nnnn1C

>  <score_type>  (68) 
oracle

>  <origin>  (68) 
adg

>  <m_score__min__energy>  (68) 
-5.5099999999999998

>  <m_primary>  (68) 
energy

$$$$
68:0
     RDKit          3D

 47 49  0  0  0  0  0  0  0  0999 V2000
   63.3620   32.1920   48.2720 C   0  0  0  0  0  0  0  0  0  0  0  0
   62.4890   33.0430   47.3380 C   0  0  0  0  0  0  0  0  0  0  0  0
   63.3800   33.8510   46.3840 C   0  0  0  0  0  0  0  0  0  0  0  0
   61.5670   33.9930   48.1350 C   0  0  0  0  0  0  0  0  0  0  0  0
   60.2210   34.2140   47.4820 C   0  0  0  0  0  0  0  0  0  0  0  0
   59.3670   34.9470   48.0500 O   0  0  0  0  0  0  0  0  0  0  0  0
   59.8680   33.6050   46.2290 N   0  0  0  0  0  0  0  0  0  0  0  0
   59.2320   32.4850   46.0510 C   0  0  0  0  0  0  0  0  0  0  0  0
   58.3290   32.2680   45.0630 N   0  0  0  0  0  0  0  0  0  0  0  0
   57.8570   30.9970   45.1150 C   0  0  0  0  0  0  0  0  0  0  0  0
   56.9080   30.4720   44.2420 C   0  0  0  0  0  0  0  0  0  0  0  0
   56.4980   29.1380   44.4060 C   0  0  0  0  0  0  0  0  0  0  0  0
   57.0440   28.3310   45.4380 C   0  0  0  0  0  0  0  0  0  0  0  0
   56.6000   26.9280   45.6200 C   0  0  0  0  0  0  0  0  0  0  0  0
   55.4400   26.6960   46.0590 O   0  0  0  0  0  0  0  0  0  0  0  0
   57.4900   25.8320   45.3460 N   0  0  0  0  0  0  0  0  0  0  0  0
   57.0420   24.4910   45.0810 C   0  0  0  0  0  0  0  0  0  0  0  0
   57.7150   23.7180   44.1240 C   0  0  0  0  0  0  0  0  0  0  0  0
   57.2820   22.4210   43.8310 C   0  0  0  0  0  0  0  0  0  0  0  0
   56.1670   21.8900   44.4830 C   0  0  0  0  0  0  0  0  0  0  0  0
   55.4750   22.6560   45.4310 C   0  0  0  0  0  0  0  0  0  0  0  0
   54.0490   22.0060   46.2320 S   0  0  0  0  0  0  0  0  0  0  0  0
   52.6570   22.2860   45.2490 N   0  0  0  0  0  0  0  0  0  0  0  0
   54.2150   20.5290   46.4530 O   0  0  0  0  0  0  0  0  0  0  0  0
   53.8680   22.6740   47.5650 O   0  0  0  0  0  0  0  0  0  0  0  0
   55.9070   23.9590   45.7180 C   0  0  0  0  0  0  0  0  0  0  0  0
   58.0010   28.8880   46.3150 C   0  0  0  0  0  0  0  0  0  0  0  0
   58.3850   30.2120   46.1280 C   0  0  0  0  0  0  0  0  0  0  0  0
   59.4930   31.1170   47.0100 S   0  0  0  0  0  0  0  0  0  0  0  0
   63.1188   32.4291   49.3183 H   0  0  0  0  0  0  0  0  0  0  0  0
   63.1693   31.1256   48.0834 H   0  0  0  0  0  0  0  0  0  0  0  0
   64.4232   32.4118   48.0834 H   0  0  0  0  0  0  0  0  0  0  0  0
   61.8495   32.3631   46.7560 H   0  0  0  0  0  0  0  0  0  0  0  0
   64.0702   34.4769   46.9687 H   0  0  0  0  0  0  0  0  0  0  0  0
   63.9574   33.1622   45.7499 H   0  0  0  0  0  0  0  0  0  0  0  0
   62.7508   34.4928   45.7499 H   0  0  0  0  0  0  0  0  0  0  0  0
   61.4031   33.5626   49.1339 H   0  0  0  0  0  0  0  0  0  0  0  0
   62.0698   34.9704   48.1798 H   0  0  0  0  0  0  0  0  0  0  0  0
   56.4860   31.0915   43.4369 H   0  0  0  0  0  0  0  0  0  0  0  0
   55.7445   28.7139   43.7261 H   0  0  0  0  0  0  0  0  0  0  0  0
   58.5160   25.9920   45.4570 H   0  0  0  0  0  0  0  0  0  0  0  0
   58.5885   24.1342   43.6008 H   0  0  0  0  0  0  0  0  0  0  0  0
   57.8208   21.8178   43.0854 H   0  0  0  0  0  0  0  0  0  0  0  0
   55.8311   20.8683   44.2520 H   0  0  0  0  0  0  0  0  0  0  0  0
   52.9270   22.9960   44.5320 H   0  0  0  0  0  0  0  0  0  0  0  0
   55.3538   24.5694   46.4469 H   0  0  0  0  0  0  0  0  0  0  0  0
   58.4336   28.2875   47.1288 H   0  0  0  0  0  0  0  0  0  0  0  0
  1  2  1  0
  2  3  1  0
  2  4  1  0
  4  5  1  0
  5  6  2  0
  5  7  1  0
  7  8  2  3
  8  9  1  0
  9 10  1  0
 10 11  2  0
 11 12  1  0
 12 13  2  0
 13 14  1  0
 14 15  2  0
 14 16  1  0
 16 17  1  0
 17 18  2  0
 18 19  1  0
 19 20  2  0
 20 21  1  0
 21 22  1  0
 22 23  1  0
 22 24  2  0
 22 25  2  0
 21 26  2  0
 13 27  1  0
 27 28  2  0
 28 29  1  0
 29  8  1  0
 28 10  1  0
 26 17  1  0
  1 30  1  0
  1 31  1  0
  1 32  1  0
  2 33  1  0
  3 34  1  0
  3 35  1  0
  3 36  1  0
  4 37  1  0
  4 38  1  0
 11 39  1  0
 12 40  1  0
 16 41  1  0
 18 42  1  0
 19 43  1  0
 20 44  1  0
 23 45  1  0
 26 46  1  0
 27 47  1  0
M  CHG  2   9  -1  23  -1
M  END
>  <UniqueID>  (69) 
65

>  <SMILES>  (69) 
CC(C)CC(=O)N=c1[n-]c2ccc(C(=O)Nc3cccc(S([NH-])(=O)=O)c3)cc2s1

>  <Energy>  (69) 
87.8434119193842

>  <Genealogy>  (69) 
CC(C)CC(=O)N=c1[n-]c2ccc(C(=O)Nc3cccc(S([NH-])(=O)=O)c3)cc2s1 (protonated)
CC(C)CC(=O)N=c1[n-]c2ccc(C(=O)Nc3cccc(S([NH-])(=O)=O)c3)cc2s1 (3D coordinates assigned)
CC(C)CC(=O)N=c1[n-]c2ccc(C(=O)Nc3cccc(S([NH-])(=O)=O)c3)cc2s1 (optimized conformer: 87.8434119193842 kcal/mol)

>  <smiles>  (69) 
CC(C)CC(=O)N=c1[nH]c2ccc(C(=O)Nc3cccc(S(N)(=O)=O)c3)cc2s1

>  <score_type>  (69) 
oracle

>  <origin>  (69) 
adg

>  <m_score__min__energy>  (69) 
-11.43

>  <m_primary>  (69) 
energy

$$$$
69:0
     RDKit          3D

 56 58  0  0  0  0  0  0  0  0999 V2000
   64.2347   32.4168   49.1424 H   0  0  0  0  0  0  0  0  0  0  0  0
   63.3370   32.9930   48.8740 C   0  0  0  0  0  0  0  0  0  0  0  0
   63.2220   33.4540   47.4770 C   0  0  0  0  0  0  0  0  0  0  0  0
   64.1220   33.1250   46.6570 O   0  0  0  0  0  0  0  0  0  0  0  0
   62.0970   34.2390   47.0540 N   0  0  0  0  0  0  0  0  0  0  0  0
   60.7840   33.7620   46.7280 C   0  0  0  0  0  0  0  0  0  0  0  0
   60.5110   32.3980   46.8800 C   0  0  0  0  0  0  0  0  0  0  0  0
   61.2579   31.7398   47.3478 H   0  0  0  0  0  0  0  0  0  0  0  0
   59.2950   31.8670   46.4410 C   0  0  0  0  0  0  0  0  0  0  0  0
   59.0927   30.7925   46.5619 H   0  0  0  0  0  0  0  0  0  0  0  0
   58.3320   32.6940   45.8480 C   0  0  0  0  0  0  0  0  0  0  0  0
   57.1600   32.1050   45.2640 N   0  0  0  0  0  0  0  0  0  0  0  0
   56.2600   32.2150   45.7820 H   0  0  0  0  0  0  0  0  0  0  0  0
   57.2340   31.0690   44.2650 C   0  0  0  0  0  0  0  0  0  0  0  0
   58.3360   30.8030   43.7050 O   0  0  0  0  0  0  0  0  0  0  0  0
   56.0240   30.2290   43.9480 C   0  0  2  0  0  0  0  0  0  0  0  0
   55.1707   30.8987   43.7651 H   0  0  0  0  0  0  0  0  0  0  0  0
   55.6990   29.3710   45.0900 N   0  0  0  0  0  0  0  0  0  0  0  0
   56.4520   28.2120   45.4620 C   0  0  0  0  0  0  0  0  0  0  0  0
   55.8640   27.1060   45.6120 O   0  0  0  0  0  0  0  0  0  0  0  0
   57.9240   28.2960   45.5920 C   0  0  0  0  0  0  0  0  0  0  0  0
   58.5150   28.6570   46.8170 C   0  0  0  0  0  0  0  0  0  0  0  0
   57.8824   28.8152   47.7029 H   0  0  0  0  0  0  0  0  0  0  0  0
   59.9000   28.8160   46.9160 C   0  0  0  0  0  0  0  0  0  0  0  0
   60.3546   29.0816   47.8818 H   0  0  0  0  0  0  0  0  0  0  0  0
   60.7090   28.6380   45.7890 C   0  0  0  0  0  0  0  0  0  0  0  0
   61.7968   28.7830   45.8636 H   0  0  0  0  0  0  0  0  0  0  0  0
   60.1340   28.2760   44.5690 C   0  0  0  0  0  0  0  0  0  0  0  0
   60.7711   28.1260   43.6849 H   0  0  0  0  0  0  0  0  0  0  0  0
   58.7510   28.1040   44.4690 C   0  0  0  0  0  0  0  0  0  0  0  0
   58.3050   27.8164   43.5055 H   0  0  0  0  0  0  0  0  0  0  0  0
   56.2250   29.4150   42.6640 C   0  0  0  0  0  0  0  0  0  0  0  0
   56.4812   28.3773   42.9240 H   0  0  0  0  0  0  0  0  0  0  0  0
   55.2970   29.4266   42.0735 H   0  0  0  0  0  0  0  0  0  0  0  0
   57.0409   29.8572   42.0735 H   0  0  0  0  0  0  0  0  0  0  0  0
   58.5590   34.0800   45.7970 C   0  0  0  0  0  0  0  0  0  0  0  0
   57.7764   34.7493   45.4103 H   0  0  0  0  0  0  0  0  0  0  0  0
   59.7760   34.6120   46.2360 C   0  0  0  0  0  0  0  0  0  0  0  0
   59.9457   35.6981   46.1965 H   0  0  0  0  0  0  0  0  0  0  0  0
   62.4380   33.2180   49.8440 C   0  0  0  0  0  0  0  0  0  0  0  0
   62.6813   33.9942   50.5844 H   0  0  0  0  0  0  0  0  0  0  0  0
   61.1470   32.5120   50.0040 C   0  0  0  0  0  0  0  0  0  0  0  0
   59.9790   33.2850   50.1230 C   0  0  0  0  0  0  0  0  0  0  0  0
   60.0453   34.3827   50.0960 H   0  0  0  0  0  0  0  0  0  0  0  0
   58.7370   32.6700   50.2750 C   0  0  0  0  0  0  0  0  0  0  0  0
   57.8260   33.2823   50.3461 H   0  0  0  0  0  0  0  0  0  0  0  0
   58.6480   31.2790   50.3370 C   0  0  0  0  0  0  0  0  0  0  0  0
   57.6659   30.7965   50.4499 H   0  0  0  0  0  0  0  0  0  0  0  0
   59.8040   30.4970   50.2560 C   0  0  0  0  0  0  0  0  0  0  0  0
   59.7267   29.4009   50.3074 H   0  0  0  0  0  0  0  0  0  0  0  0
   61.0670   31.1030   50.1090 C   0  0  0  0  0  0  0  0  0  0  0  0
   62.2490   30.3450   50.0820 O   0  0  0  0  0  0  0  0  0  0  0  0
   63.0580   30.0550   51.2170 C   0  0  0  0  0  0  0  0  0  0  0  0
   62.4880   30.2593   52.1354 H   0  0  0  0  0  0  0  0  0  0  0  0
   63.3524   28.9953   51.1963 H   0  0  0  0  0  0  0  0  0  0  0  0
   63.9586   30.6863   51.1963 H   0  0  0  0  0  0  0  0  0  0  0  0
  1  2  1  0
  2  3  1  0
  3  4  2  0
  3  5  1  0
  5  6  1  0
  6  7  2  0
  7  8  1  0
  7  9  1  0
  9 10  1  0
  9 11  2  0
 11 12  1  0
 12 13  1  0
 12 14  1  0
 14 15  2  0
 14 16  1  0
 16 17  1  6
 16 18  1  0
 18 19  1  0
 19 20  2  0
 19 21  1  0
 21 22  2  0
 22 23  1  0
 22 24  1  0
 24 25  1  0
 24 26  2  0
 26 27  1  0
 26 28  1  0
 28 29  1  0
 28 30  2  0
 30 31  1  0
 16 32  1  0
 32 33  1  0
 32 34  1  0
 32 35  1  0
 11 36  1  0
 36 37  1  0
 36 38  2  0
 38 39  1  0
  2 40  2  0
 40 41  1  0
 40 42  1  0
 42 43  2  0
 43 44  1  0
 43 45  1  0
 45 46  1  0
 45 47  2  0
 47 48  1  0
 47 49  1  0
 49 50  1  0
 49 51  2  0
 51 52  1  0
 52 53  1  0
 53 54  1  0
 53 55  1  0
 53 56  1  0
 38  6  1  0
 51 42  1  0
 30 21  1  0
M  CHG  2   5  -1  18  -1
M  END
>  <UniqueID>  (70) 
66

>  <SMILES>  (70) 
COc1ccccc1/C=C\C(=O)[N-]c1ccc(NC(=O)[C@@H](C)[N-]C(=O)c2ccccc2)cc1

>  <Energy>  (70) 
77.59898304085968

>  <Genealogy>  (70) 
COc1ccccc1C=CC(=O)[N-]c1ccc(NC(=O)C(C)[N-]C(=O)c2ccccc2)cc1 (protonated)
COc1ccccc1C=CC(=O)[N-]c1ccc(NC(=O)[C@@H](C)[N-]C(=O)c2ccccc2)cc1 (chirality)
COc1ccccc1/C=C\C(=O)[N-]c1ccc(NC(=O)[C@@H](C)[N-]C(=O)c2ccccc2)cc1 (cis-trans isomerization)
COc1ccccc1/C=C\C(=O)[N-]c1ccc(NC(=O)[C@@H](C)[N-]C(=O)c2ccccc2)cc1 (3D coordinates assigned)
COc1ccccc1/C=C\C(=O)[N-]c1ccc(NC(=O)[C@@H](C)[N-]C(=O)c2ccccc2)cc1 (optimized conformer: 77.59898304085968 kcal/mol)

>  <smiles>  (70) 
COc1ccccc1C=CC(=O)Nc1ccc(NC(=O)C(C)NC(=O)c2ccccc2)cc1

>  <score_type>  (70) 
oracle

>  <origin>  (70) 
adg

>  <m_score__min__energy>  (70) 
-11.65

>  <m_primary>  (70) 
energy

$$$$
70:0
     RDKit          3D

 41 44  0  0  0  0  0  0  0  0999 V2000
   57.5800   33.9500   44.8710 C   0  0  0  0  0  0  0  0  0  0  0  0
   58.3070   33.6180   46.1360 C   0  0  0  0  0  0  0  0  0  0  0  0
   58.7970   34.5600   46.9700 N   0  0  0  0  0  0  0  0  0  0  0  0
   59.3320   33.8600   47.9910 C   0  0  0  0  0  0  0  0  0  0  0  0
   59.9130   34.5900   49.3380 S   0  0  0  0  0  0  0  0  0  0  0  0
   59.1980   32.5220   47.8290 N   0  0  0  0  0  0  0  0  0  0  0  0
   59.5640   31.4850   48.7090 N   0  0  0  0  0  0  0  0  0  0  0  0
   60.7710   31.0210   48.8100 C   0  0  0  0  0  0  0  0  0  0  0  0
   61.9350   31.8690   48.4830 C   0  0  0  0  0  0  0  0  0  0  0  0
   62.8340   32.2980   49.4780 C   0  0  0  0  0  0  0  0  0  0  0  0
   63.9310   33.0970   49.1390 C   0  0  0  0  0  0  0  0  0  0  0  0
   64.1410   33.4750   47.8110 C   0  0  0  0  0  0  0  0  0  0  0  0
   63.2530   33.0540   46.8170 C   0  0  0  0  0  0  0  0  0  0  0  0
   62.1560   32.2540   47.1500 C   0  0  0  0  0  0  0  0  0  0  0  0
   58.5460   32.3560   46.6630 C   0  0  0  0  0  0  0  0  0  0  0  0
   58.1490   31.0470   46.1020 C   0  0  0  0  0  0  0  0  0  0  0  0
   57.2180   31.0240   45.1970 N   0  0  0  0  0  0  0  0  0  0  0  0
   56.6350   29.5760   44.4670 S   0  0  0  0  0  0  0  0  0  0  0  0
   56.7510   29.6860   42.9740 O   0  0  0  0  0  0  0  0  0  0  0  0
   55.2040   29.3490   44.8650 O   0  0  0  0  0  0  0  0  0  0  0  0
   57.6290   28.2680   45.0440 C   0  0  0  0  0  0  0  0  0  0  0  0
   57.4640   26.9760   44.5280 C   0  0  0  0  0  0  0  0  0  0  0  0
   58.2530   25.9270   45.0080 C   0  0  0  0  0  0  0  0  0  0  0  0
   59.2030   26.1680   46.0020 C   0  0  0  0  0  0  0  0  0  0  0  0
   59.3660   27.4560   46.5190 C   0  0  0  0  0  0  0  0  0  0  0  0
   58.5830   28.5200   46.0410 C   0  0  0  0  0  0  0  0  0  0  0  0
   58.7660   29.8380   46.5930 N   0  0  0  0  0  0  0  0  0  0  0  0
   56.6043   34.3956   45.1150 H   0  0  0  0  0  0  0  0  0  0  0  0
   58.1737   34.6662   44.2840 H   0  0  0  0  0  0  0  0  0  0  0  0
   57.4275   33.0323   44.2840 H   0  0  0  0  0  0  0  0  0  0  0  0
   60.9293   29.9846   49.1428 H   0  0  0  0  0  0  0  0  0  0  0  0
   62.6732   32.0038   50.5257 H   0  0  0  0  0  0  0  0  0  0  0  0
   64.6303   33.4286   49.9207 H   0  0  0  0  0  0  0  0  0  0  0  0
   65.0045   34.1035   47.5475 H   0  0  0  0  0  0  0  0  0  0  0  0
   63.4176   33.3526   45.7712 H   0  0  0  0  0  0  0  0  0  0  0  0
   61.4615   31.9239   46.3634 H   0  0  0  0  0  0  0  0  0  0  0  0
   56.7141   26.7873   43.7457 H   0  0  0  0  0  0  0  0  0  0  0  0
   58.1255   24.9123   44.6028 H   0  0  0  0  0  0  0  0  0  0  0  0
   59.8245   25.3424   46.3790 H   0  0  0  0  0  0  0  0  0  0  0  0
   60.1128   27.6381   47.3059 H   0  0  0  0  0  0  0  0  0  0  0  0
   59.3870   29.9210   47.4280 H   0  0  0  0  0  0  0  0  0  0  0  0
  1  2  1  0
  2  3  1  0
  3  4  1  0
  4  5  2  0
  4  6  1  0
  6  7  1  0
  7  8  2  3
  8  9  1  0
  9 10  2  0
 10 11  1  0
 11 12  2  0
 12 13  1  0
 13 14  2  0
  6 15  1  0
 15 16  1  0
 16 17  2  0
 17 18  1  0
 18 19  2  0
 18 20  2  0
 18 21  1  0
 21 22  2  0
 22 23  1  0
 23 24  2  0
 24 25  1  0
 25 26  2  0
 26 27  1  0
 15  2  2  0
 27 16  1  0
 14  9  1  0
 26 21  1  0
  1 28  1  0
  1 29  1  0
  1 30  1  0
  8 31  1  0
 10 32  1  0
 11 33  1  0
 12 34  1  0
 13 35  1  0
 14 36  1  0
 22 37  1  0
 23 38  1  0
 24 39  1  0
 25 40  1  0
 27 41  1  0
M  CHG  1   3  -1
M  END
>  <UniqueID>  (71) 
67

>  <SMILES>  (71) 
Cc1[n-]c(=S)n(N=Cc2ccccc2)c1C1=NS(=O)(=O)c2ccccc2N1

>  <Energy>  (71) 
89.7673952488751

>  <Genealogy>  (71) 
Cc1[n-]c(=S)n(N=Cc2ccccc2)c1C1=NS(=O)(=O)c2ccccc2N1 (protonated)
Cc1[n-]c(=S)n(N=Cc2ccccc2)c1C1=NS(=O)(=O)c2ccccc2N1 (3D coordinates assigned)
Cc1[n-]c(=S)n(N=Cc2ccccc2)c1C1=NS(=O)(=O)c2ccccc2N1 (nonaromatic ring conformer: 89.7673952488751 kcal/mol)

>  <smiles>  (71) 
Cc1[nH]c(=S)n(N=Cc2ccccc2)c1C1=NS(=O)(=O)c2ccccc2N1

>  <score_type>  (71) 
oracle

>  <origin>  (71) 
adg

>  <m_score__min__energy>  (71) 
-10.16

>  <m_primary>  (71) 
energy

$$$$
71:0
     RDKit          3D

 35 37  0  0  0  0  0  0  0  0999 V2000
   60.4060   26.7050   47.1840 C   0  0  0  0  0  0  0  0  0  0  0  0
   59.5820   26.4910   46.0450 O   0  0  0  0  0  0  0  0  0  0  0  0
   58.4670   27.2750   45.7110 C   0  0  0  0  0  0  0  0  0  0  0  0
   58.6050   28.5310   45.1890 N   0  0  0  0  0  0  0  0  0  0  0  0
   57.5210   29.2970   44.8660 C   0  0  0  0  0  0  0  0  0  0  0  0
   57.7270   30.6520   44.2970 C   0  0  0  0  0  0  0  0  0  0  0  0
   57.4310   31.0760   43.0020 C   0  0  0  0  0  0  0  0  0  0  0  0
   57.7690   32.4130   42.7610 C   0  0  0  0  0  0  0  0  0  0  0  0
   58.3380   33.0530   43.8540 C   0  0  0  0  0  0  0  0  0  0  0  0
   58.4210   31.9500   45.1180 S   0  0  0  0  0  0  0  0  0  0  0  0
   56.2330   28.7770   45.1020 C   0  0  0  0  0  0  0  0  0  0  0  0
   55.1980   29.4570   44.8700 O   0  0  0  0  0  0  0  0  0  0  0  0
   56.1020   27.5300   45.6180 N   0  0  0  0  0  0  0  0  0  0  0  0
   57.1780   26.7580   45.9160 C   0  0  0  0  0  0  0  0  0  0  0  0
   56.9590   25.3990   46.5210 C   0  0  0  0  0  0  0  0  0  0  0  0
   56.9850   24.3410   45.4510 C   0  0  0  0  0  0  0  0  0  0  0  0
   58.0620   23.4440   45.3600 C   0  0  0  0  0  0  0  0  0  0  0  0
   58.0650   22.4420   44.3830 C   0  0  0  0  0  0  0  0  0  0  0  0
   56.9910   22.3270   43.4960 C   0  0  0  0  0  0  0  0  0  0  0  0
   55.9130   23.2110   43.5850 C   0  0  0  0  0  0  0  0  0  0  0  0
   55.9060   24.2130   44.5600 C   0  0  0  0  0  0  0  0  0  0  0  0
   59.8144   26.5514   48.0986 H   0  0  0  0  0  0  0  0  0  0  0  0
   61.2462   25.9953   47.1672 H   0  0  0  0  0  0  0  0  0  0  0  0
   60.7947   27.7339   47.1672 H   0  0  0  0  0  0  0  0  0  0  0  0
   59.5600   28.9140   45.0160 H   0  0  0  0  0  0  0  0  0  0  0  0
   56.9758   30.4229   42.2429 H   0  0  0  0  0  0  0  0  0  0  0  0
   57.5994   32.9107   41.7948 H   0  0  0  0  0  0  0  0  0  0  0  0
   58.6754   34.0995   43.8864 H   0  0  0  0  0  0  0  0  0  0  0  0
   57.7547   25.1949   47.2526 H   0  0  0  0  0  0  0  0  0  0  0  0
   55.9775   25.3821   47.0174 H   0  0  0  0  0  0  0  0  0  0  0  0
   58.9066   23.5294   46.0595 H   0  0  0  0  0  0  0  0  0  0  0  0
   58.9129   21.7447   44.3131 H   0  0  0  0  0  0  0  0  0  0  0  0
   56.9946   21.5400   42.7275 H   0  0  0  0  0  0  0  0  0  0  0  0
   55.0681   23.1186   42.8867 H   0  0  0  0  0  0  0  0  0  0  0  0
   55.0527   24.9037   44.6299 H   0  0  0  0  0  0  0  0  0  0  0  0
  1  2  1  0
  2  3  1  0
  3  4  1  0
  4  5  2  0
  5  6  1  0
  6  7  2  0
  7  8  1  0
  8  9  2  0
  9 10  1  0
  5 11  1  0
 11 12  2  0
 11 13  1  0
 13 14  1  0
 14 15  1  0
 15 16  1  0
 16 17  2  0
 17 18  1  0
 18 19  2  0
 19 20  1  0
 20 21  2  0
 14  3  2  0
 21 16  1  0
 10  6  1  0
  1 22  1  0
  1 23  1  0
  1 24  1  0
  4 25  1  0
  7 26  1  0
  8 27  1  0
  9 28  1  0
 15 29  1  0
 15 30  1  0
 17 31  1  0
 18 32  1  0
 19 33  1  0
 20 34  1  0
 21 35  1  0
M  CHG  2   4   1  13  -1
M  END
>  <UniqueID>  (72) 
68

>  <SMILES>  (72) 
COc1[nH+]c(-c2cccs2)c(=O)[n-]c1Cc1ccccc1

>  <Energy>  (72) 
66.75390118539914

>  <Genealogy>  (72) 
COc1[nH+]c(-c2cccs2)c(=O)[n-]c1Cc1ccccc1 (protonated)
COc1[nH+]c(-c2cccs2)c(=O)[n-]c1Cc1ccccc1 (3D coordinates assigned)
COc1[nH+]c(-c2cccs2)c(=O)[n-]c1Cc1ccccc1 (optimized conformer: 66.75390118539914 kcal/mol)

>  <smiles>  (72) 
COc1nc(-c2cccs2)c(=O)[nH]c1Cc1ccccc1

>  <score_type>  (72) 
oracle

>  <origin>  (72) 
adg

>  <m_score__min__energy>  (72) 
-7.0700000000000003

>  <m_primary>  (72) 
energy

$$$$
72:0
     RDKit          3D

 42 44  0  0  0  0  0  0  0  0999 V2000
   58.1000   34.3700   46.2980 O   0  0  0  0  0  0  0  0  0  0  0  0
   58.0100   33.1160   46.1930 C   0  0  0  0  0  0  0  0  0  0  0  0
   58.2020   32.2820   47.3480 N   0  0  0  0  0  0  0  0  0  0  0  0
   58.8160   32.7310   48.5680 C   0  0  0  0  0  0  0  0  0  0  0  0
   59.9980   33.4910   48.5550 C   0  0  0  0  0  0  0  0  0  0  0  0
   60.6000   33.8790   49.7540 C   0  0  0  0  0  0  0  0  0  0  0  0
   60.0340   33.5100   50.9760 C   0  0  0  0  0  0  0  0  0  0  0  0
   58.8490   32.7540   51.0120 C   0  0  0  0  0  0  0  0  0  0  0  0
   58.2700   32.2990   52.3280 C   0  0  0  0  0  0  0  0  0  0  0  0
   58.7190   33.1050   53.3600 F   0  0  0  0  0  0  0  0  0  0  0  0
   56.8910   32.3720   52.2670 F   0  0  0  0  0  0  0  0  0  0  0  0
   58.6430   30.9950   52.6030 F   0  0  0  0  0  0  0  0  0  0  0  0
   58.2650   32.3440   49.8000 C   0  0  0  0  0  0  0  0  0  0  0  0
   57.6740   32.5110   44.8870 C   0  0  0  0  0  0  0  0  0  0  0  0
   58.2580   32.9730   43.6950 C   0  0  0  0  0  0  0  0  0  0  0  0
   57.9220   32.3610   42.4860 C   0  0  0  0  0  0  0  0  0  0  0  0
   57.0200   31.2960   42.4690 C   0  0  0  0  0  0  0  0  0  0  0  0
   56.4650   30.8480   43.6740 C   0  0  0  0  0  0  0  0  0  0  0  0
   55.4840   29.7090   43.6810 C   0  0  0  0  0  0  0  0  0  0  0  0
   55.5560   28.9670   44.9010 O   0  0  0  0  0  0  0  0  0  0  0  0
   56.6580   28.1990   45.3180 C   0  0  0  0  0  0  0  0  0  0  0  0
   57.9860   28.6560   45.2060 C   0  0  0  0  0  0  0  0  0  0  0  0
   59.0450   27.8590   45.6520 C   0  0  0  0  0  0  0  0  0  0  0  0
   58.7910   26.6040   46.2100 C   0  0  0  0  0  0  0  0  0  0  0  0
   57.4780   26.1420   46.3210 C   0  0  0  0  0  0  0  0  0  0  0  0
   56.4150   26.9350   45.8750 C   0  0  0  0  0  0  0  0  0  0  0  0
   55.1430   26.4770   45.9930 F   0  0  0  0  0  0  0  0  0  0  0  0
   56.7960   31.4720   44.8380 N   0  0  0  0  0  0  0  0  0  0  0  0
   57.7970   31.3190   47.3360 H   0  0  0  0  0  0  0  0  0  0  0  0
   60.4513   33.7817   47.5958 H   0  0  0  0  0  0  0  0  0  0  0  0
   61.5229   34.4772   49.7356 H   0  0  0  0  0  0  0  0  0  0  0  0
   60.5181   33.8126   51.9162 H   0  0  0  0  0  0  0  0  0  0  0  0
   57.3649   31.7119   49.8176 H   0  0  0  0  0  0  0  0  0  0  0  0
   58.9729   33.8088   43.7145 H   0  0  0  0  0  0  0  0  0  0  0  0
   58.3684   32.7183   41.5463 H   0  0  0  0  0  0  0  0  0  0  0  0
   56.7479   30.8135   41.5187 H   0  0  0  0  0  0  0  0  0  0  0  0
   54.4668   30.1118   43.5664 H   0  0  0  0  0  0  0  0  0  0  0  0
   55.7317   29.0332   42.8492 H   0  0  0  0  0  0  0  0  0  0  0  0
   58.1906   29.6433   44.7662 H   0  0  0  0  0  0  0  0  0  0  0  0
   60.0799   28.2211   45.5632 H   0  0  0  0  0  0  0  0  0  0  0  0
   59.6254   25.9796   46.5620 H   0  0  0  0  0  0  0  0  0  0  0  0
   57.2790   25.1531   46.7597 H   0  0  0  0  0  0  0  0  0  0  0  0
  1  2  2  0
  2  3  1  0
  3  4  1  0
  4  5  2  0
  5  6  1  0
  6  7  2  0
  7  8  1  0
  8  9  1  0
  9 10  1  0
  9 11  1  0
  9 12  1  0
  8 13  2  0
  2 14  1  0
 14 15  2  0
 15 16  1  0
 16 17  2  0
 17 18  1  0
 18 19  1  0
 19 20  1  0
 20 21  1  0
 21 22  2  0
 22 23  1  0
 23 24  2  0
 24 25  1  0
 25 26  2  0
 26 27  1  0
 18 28  2  0
 13  4  1  0
 28 14  1  0
 26 21  1  0
  3 29  1  0
  5 30  1  0
  6 31  1  0
  7 32  1  0
 13 33  1  0
 15 34  1  0
 16 35  1  0
 17 36  1  0
 19 37  1  0
 19 38  1  0
 22 39  1  0
 23 40  1  0
 24 41  1  0
 25 42  1  0
M  END
>  <UniqueID>  (73) 
69

>  <SMILES>  (73) 
O=C(Nc1cccc(C(F)(F)F)c1)c1cccc(COc2ccccc2F)n1

>  <Energy>  (73) 
48.754874961230186

>  <Genealogy>  (73) 
O=C(Nc1cccc(C(F)(F)F)c1)c1cccc(COc2ccccc2F)n1 (3D coordinates assigned)
O=C(Nc1cccc(C(F)(F)F)c1)c1cccc(COc2ccccc2F)n1 (optimized conformer: 48.754874961230186 kcal/mol)

>  <smiles>  (73) 
O=C(Nc1cccc(C(F)(F)F)c1)c1cccc(COc2ccccc2F)n1

>  <score_type>  (73) 
oracle

>  <origin>  (73) 
adg

>  <m_score__min__energy>  (73) 
-8.4299999999999997

>  <m_primary>  (73) 
energy

$$$$
73:0
     RDKit          3D

 40 42  0  0  0  0  0  0  0  0999 V2000
   55.3970   29.3520   44.9200 O   0  0  0  0  0  0  0  0  0  0  0  0
   56.5310   29.9010   44.8750 C   0  0  0  0  0  0  0  0  0  0  0  0
   56.6530   31.2660   44.4470 N   0  0  0  0  0  0  0  0  0  0  0  0
   57.4390   32.2900   45.0720 C   0  0  0  0  0  0  0  0  0  0  0  0
   57.7560   33.4370   44.3350 C   0  0  0  0  0  0  0  0  0  0  0  0
   58.5410   34.4470   44.8980 C   0  0  0  0  0  0  0  0  0  0  0  0
   59.0280   34.3110   46.2000 C   0  0  0  0  0  0  0  0  0  0  0  0
   58.7360   33.1610   46.9440 C   0  0  0  0  0  0  0  0  0  0  0  0
   59.3950   32.9850   48.5690 S   0  0  0  0  0  0  0  0  0  0  0  0
   58.4100   32.2680   49.4500 O   0  0  0  0  0  0  0  0  0  0  0  0
   59.6350   34.3570   49.1340 O   0  0  0  0  0  0  0  0  0  0  0  0
   60.9060   32.1030   48.5000 N   0  0  0  0  0  0  0  0  0  0  0  0
   61.9600   32.8270   49.2210 C   0  0  0  0  0  0  0  0  0  0  0  0
   62.7050   33.6980   48.2210 C   0  0  0  0  0  0  0  0  0  0  0  0
   62.3270   33.1640   46.8530 C   0  0  0  0  0  0  0  0  0  0  0  0
   61.3790   32.0020   47.1160 C   0  0  0  0  0  0  0  0  0  0  0  0
   57.9520   32.1460   46.3750 C   0  0  0  0  0  0  0  0  0  0  0  0
   57.7440   29.1190   45.2110 C   0  0  0  0  0  0  0  0  0  0  0  0
   57.6980   28.1180   46.2010 C   0  0  0  0  0  0  0  0  0  0  0  0
   58.8430   27.3820   46.5190 C   0  0  0  0  0  0  0  0  0  0  0  0
   60.0450   27.6350   45.8550 C   0  0  0  0  0  0  0  0  0  0  0  0
   61.1550   26.9200   46.1670 F   0  0  0  0  0  0  0  0  0  0  0  0
   60.1050   28.6250   44.8720 C   0  0  0  0  0  0  0  0  0  0  0  0
   58.9630   29.3640   44.5500 C   0  0  0  0  0  0  0  0  0  0  0  0
   57.3846   33.5442   43.3052 H   0  0  0  0  0  0  0  0  0  0  0  0
   58.7755   35.3499   44.3151 H   0  0  0  0  0  0  0  0  0  0  0  0
   59.6424   35.1091   46.6421 H   0  0  0  0  0  0  0  0  0  0  0  0
   61.5113   33.4575   50.0027 H   0  0  0  0  0  0  0  0  0  0  0  0
   62.6521   32.1170   49.6974 H   0  0  0  0  0  0  0  0  0  0  0  0
   62.3956   34.7488   48.3218 H   0  0  0  0  0  0  0  0  0  0  0  0
   63.7924   33.6655   48.3841 H   0  0  0  0  0  0  0  0  0  0  0  0
   61.8244   33.9436   46.2617 H   0  0  0  0  0  0  0  0  0  0  0  0
   63.2113   32.8470   46.2807 H   0  0  0  0  0  0  0  0  0  0  0  0
   60.5245   32.0546   46.4254 H   0  0  0  0  0  0  0  0  0  0  0  0
   61.8978   31.0447   46.9600 H   0  0  0  0  0  0  0  0  0  0  0  0
   57.7371   31.2332   46.9499 H   0  0  0  0  0  0  0  0  0  0  0  0
   56.7541   27.9140   46.7277 H   0  0  0  0  0  0  0  0  0  0  0  0
   58.7971   26.6023   47.2935 H   0  0  0  0  0  0  0  0  0  0  0  0
   61.0527   28.8237   44.3501 H   0  0  0  0  0  0  0  0  0  0  0  0
   59.0170   30.1425   43.7747 H   0  0  0  0  0  0  0  0  0  0  0  0
  1  2  2  0
  2  3  1  0
  3  4  1  0
  4  5  2  0
  5  6  1  0
  6  7  2  0
  7  8  1  0
  8  9  1  0
  9 10  2  0
  9 11  2  0
  9 12  1  0
 12 13  1  0
 13 14  1  0
 14 15  1  0
 15 16  1  0
  8 17  2  0
  2 18  1  0
 18 19  2  0
 19 20  1  0
 20 21  2  0
 21 22  1  0
 21 23  1  0
 23 24  2  0
 17  4  1  0
 24 18  1  0
 16 12  1  0
  5 25  1  0
  6 26  1  0
  7 27  1  0
 13 28  1  0
 13 29  1  0
 14 30  1  0
 14 31  1  0
 15 32  1  0
 15 33  1  0
 16 34  1  0
 16 35  1  0
 17 36  1  0
 19 37  1  0
 20 38  1  0
 23 39  1  0
 24 40  1  0
M  CHG  1   3  -1
M  END
>  <UniqueID>  (74) 
70

>  <SMILES>  (74) 
O=C([N-]c1cccc(S(=O)(=O)N2CCCC2)c1)c1ccc(F)cc1

>  <Energy>  (74) 
46.73862610209655

>  <Genealogy>  (74) 
O=C([N-]c1cccc(S(=O)(=O)N2CCCC2)c1)c1ccc(F)cc1 (protonated)
O=C([N-]c1cccc(S(=O)(=O)N2CCCC2)c1)c1ccc(F)cc1 (3D coordinates assigned)
O=C([N-]c1cccc(S(=O)(=O)N2CCCC2)c1)c1ccc(F)cc1 (nonaromatic ring conformer: 46.73862610209655 kcal/mol)

>  <smiles>  (74) 
O=C(Nc1cccc(S(=O)(=O)N2CCCC2)c1)c1ccc(F)cc1

>  <score_type>  (74) 
oracle

>  <origin>  (74) 
adg

>  <m_score__min__energy>  (74) 
-10.619999999999999

>  <m_primary>  (74) 
energy

$$$$
74:0
     RDKit          3D

 38 39  0  0  0  0  0  0  0  0999 V2000
   57.4660   31.8720   42.2240 C   0  0  0  0  0  0  0  0  0  0  0  0
   57.7240   32.1560   43.6800 C   0  0  0  0  0  0  0  0  0  0  0  0
   57.7790   33.4890   44.1230 C   0  0  0  0  0  0  0  0  0  0  0  0
   58.0100   33.7800   45.4680 C   0  0  0  0  0  0  0  0  0  0  0  0
   58.1740   32.7450   46.3880 C   0  0  0  0  0  0  0  0  0  0  0  0
   58.1130   31.4160   45.9670 C   0  0  0  0  0  0  0  0  0  0  0  0
   57.8990   31.1050   44.6110 C   0  0  0  0  0  0  0  0  0  0  0  0
   57.8010   29.7310   44.1910 N   0  0  0  0  0  0  0  0  0  0  0  0
   57.6310   28.6300   45.0960 C   0  0  0  0  0  0  0  0  0  0  0  0
   57.6910   28.8120   46.3430 O   0  0  0  0  0  0  0  0  0  0  0  0
   57.4010   27.3170   44.5720 N   0  0  0  0  0  0  0  0  0  0  0  0
   57.4130   26.1420   45.3920 C   0  0  0  0  0  0  0  0  0  0  0  0
   56.2000   25.0540   45.2330 S   0  0  0  0  0  0  0  0  0  0  0  0
   58.5490   25.8070   46.2090 N   0  0  0  0  0  0  0  0  0  0  0  0
   59.8760   26.4030   46.0450 C   0  0  0  0  0  0  0  0  0  0  0  0
   60.0520   27.5940   46.9510 C   0  0  0  0  0  0  0  0  0  0  0  0
   60.5710   28.8000   46.4500 C   0  0  0  0  0  0  0  0  0  0  0  0
   60.7500   29.8960   47.2980 C   0  0  0  0  0  0  0  0  0  0  0  0
   60.4060   29.8000   48.6490 C   0  0  0  0  0  0  0  0  0  0  0  0
   59.8800   28.6060   49.1540 C   0  0  0  0  0  0  0  0  0  0  0  0
   59.7020   27.5070   48.3090 C   0  0  0  0  0  0  0  0  0  0  0  0
   56.7288   31.0606   42.1337 H   0  0  0  0  0  0  0  0  0  0  0  0
   57.0756   32.7779   41.7373 H   0  0  0  0  0  0  0  0  0  0  0  0
   58.4051   31.5701   41.7373 H   0  0  0  0  0  0  0  0  0  0  0  0
   57.6388   34.3092   43.4036 H   0  0  0  0  0  0  0  0  0  0  0  0
   58.0628   34.8265   45.8028 H   0  0  0  0  0  0  0  0  0  0  0  0
   58.3519   32.9768   47.4485 H   0  0  0  0  0  0  0  0  0  0  0  0
   58.2331   30.6051   46.7005 H   0  0  0  0  0  0  0  0  0  0  0  0
   57.9350   29.5050   43.1800 H   0  0  0  0  0  0  0  0  0  0  0  0
   57.0710   27.2300   43.5850 H   0  0  0  0  0  0  0  0  0  0  0  0
   58.4610   25.0040   46.8710 H   0  0  0  0  0  0  0  0  0  0  0  0
   60.6404   25.6504   46.2886 H   0  0  0  0  0  0  0  0  0  0  0  0
   59.9817   26.7385   45.0028 H   0  0  0  0  0  0  0  0  0  0  0  0
   60.8374   28.8815   45.3859 H   0  0  0  0  0  0  0  0  0  0  0  0
   61.1623   30.8356   46.9016 H   0  0  0  0  0  0  0  0  0  0  0  0
   60.5488   30.6633   49.3155 H   0  0  0  0  0  0  0  0  0  0  0  0
   59.6063   28.5321   50.2168 H   0  0  0  0  0  0  0  0  0  0  0  0
   59.2863   26.5703   48.7087 H   0  0  0  0  0  0  0  0  0  0  0  0
  1  2  1  0
  2  3  2  0
  3  4  1  0
  4  5  2  0
  5  6  1  0
  6  7  2  0
  7  8  1  0
  8  9  1  0
  9 10  2  0
  9 11  1  0
 11 12  1  0
 12 13  2  0
 12 14  1  0
 14 15  1  0
 15 16  1  0
 16 17  2  0
 17 18  1  0
 18 19  2  0
 19 20  1  0
 20 21  2  0
  7  2  1  0
 21 16  1  0
  1 22  1  0
  1 23  1  0
  1 24  1  0
  3 25  1  0
  4 26  1  0
  5 27  1  0
  6 28  1  0
  8 29  1  0
 11 30  1  0
 14 31  1  0
 15 32  1  0
 15 33  1  0
 17 34  1  0
 18 35  1  0
 19 36  1  0
 20 37  1  0
 21 38  1  0
M  END
>  <UniqueID>  (75) 
71

>  <SMILES>  (75) 
Cc1ccccc1NC(=O)NC(=S)NCc1ccccc1

>  <Energy>  (75) 
42.38775467427475

>  <Genealogy>  (75) 
Cc1ccccc1NC(=O)NC(=S)NCc1ccccc1 (3D coordinates assigned)
Cc1ccccc1NC(=O)NC(=S)NCc1ccccc1 (optimized conformer: 42.38775467427475 kcal/mol)

>  <smiles>  (75) 
Cc1ccccc1NC(=O)NC(=S)NCc1ccccc1

>  <score_type>  (75) 
oracle

>  <origin>  (75) 
adg

>  <m_score__min__energy>  (75) 
-7.2800000000000002

>  <m_primary>  (75) 
energy

$$$$
75:0
     RDKit          3D

 29 30  0  0  0  0  0  0  0  0999 V2000
   54.8350   26.8290   45.1830 H   0  0  0  0  0  0  0  0  0  0  0  0
   55.2170   26.3300   46.0170 N   0  0  0  0  0  0  0  0  0  0  0  0
   56.5820   26.4840   46.4040 C   0  0  0  0  0  0  0  0  0  0  0  0
   57.1810   25.5230   46.9520 O   0  0  0  0  0  0  0  0  0  0  0  0
   57.2530   27.7480   46.2800 N   0  0  0  0  0  0  0  0  0  0  0  0
   56.9810   28.7410   45.4800 C   0  0  0  0  0  0  0  0  0  0  0  0
   55.7590   28.7670   44.8820 N   0  0  0  0  0  0  0  0  0  0  0  0
   55.3840   29.7590   44.0320 C   0  0  0  0  0  0  0  0  0  0  0  0
   54.3865   29.7368   43.5688 H   0  0  0  0  0  0  0  0  0  0  0  0
   56.2600   30.8040   43.7460 C   0  0  0  0  0  0  0  0  0  0  0  0
   55.9660   31.5978   43.0436 H   0  0  0  0  0  0  0  0  0  0  0  0
   57.5170   30.8350   44.3600 C   0  0  0  0  0  0  0  0  0  0  0  0
   58.4810   31.9490   44.0510 C   0  0  0  0  0  0  0  0  0  0  0  0
   59.4053   31.7946   44.6270 H   0  0  0  0  0  0  0  0  0  0  0  0
   58.6925   31.9392   42.9716 H   0  0  0  0  0  0  0  0  0  0  0  0
   57.7690   33.5740   44.4890 S   0  0  0  0  0  0  0  0  0  0  0  0
   58.5210   33.6480   46.1200 C   0  0  0  0  0  0  0  0  0  0  0  0
   59.5050   34.6030   46.3990 C   0  0  0  0  0  0  0  0  0  0  0  0
   59.8248   35.3072   45.6168 H   0  0  0  0  0  0  0  0  0  0  0  0
   60.0820   34.6630   47.6710 C   0  0  0  0  0  0  0  0  0  0  0  0
   60.8517   35.4177   47.8900 H   0  0  0  0  0  0  0  0  0  0  0  0
   59.6820   33.7650   48.6650 C   0  0  0  0  0  0  0  0  0  0  0  0
   60.2380   33.8270   49.9000 F   0  0  0  0  0  0  0  0  0  0  0  0
   58.7040   32.8030   48.3860 C   0  0  0  0  0  0  0  0  0  0  0  0
   58.3896   32.0954   49.1673 H   0  0  0  0  0  0  0  0  0  0  0  0
   58.1270   32.7420   47.1140 C   0  0  0  0  0  0  0  0  0  0  0  0
   57.3630   31.9821   46.8931 H   0  0  0  0  0  0  0  0  0  0  0  0
   57.8800   29.8030   45.2380 C   0  0  0  0  0  0  0  0  0  0  0  0
   58.8607   29.8208   45.7359 H   0  0  0  0  0  0  0  0  0  0  0  0
  1  2  1  0
  2  3  1  0
  3  4  2  0
  3  5  1  0
  5  6  2  0
  6  7  1  0
  7  8  1  0
  8  9  1  0
  8 10  2  0
 10 11  1  0
 10 12  1  0
 12 13  1  0
 13 14  1  0
 13 15  1  0
 13 16  1  0
 16 17  1  0
 17 18  2  0
 18 19  1  0
 18 20  1  0
 20 21  1  0
 20 22  2  0
 22 23  1  0
 22 24  1  0
 24 25  1  0
 24 26  2  0
 26 27  1  0
 12 28  2  0
 28 29  1  0
 28  6  1  0
 26 17  1  0
M  CHG  2   2  -1   7  -1
M  END
>  <UniqueID>  (76) 
72

>  <SMILES>  (76) 
[NH-]C(=O)/N=c1\cc(CSc2ccc(F)cc2)cc[n-]1

>  <Energy>  (76) 
31.246738766174108

>  <Genealogy>  (76) 
[NH-]C(=O)N=c1cc(CSc2ccc(F)cc2)cc[n-]1 (protonated)
[NH-]C(=O)/N=c1\cc(CSc2ccc(F)cc2)cc[n-]1 (cis-trans isomerization)
[NH-]C(=O)/N=c1\cc(CSc2ccc(F)cc2)cc[n-]1 (3D coordinates assigned)
[NH-]C(=O)/N=c1\cc(CSc2ccc(F)cc2)cc[n-]1 (optimized conformer: 31.246738766174108 kcal/mol)

>  <smiles>  (76) 
NC(=O)N=c1cc(CSc2ccc(F)cc2)cc[nH]1

>  <score_type>  (76) 
oracle

>  <origin>  (76) 
adg

>  <m_score__min__energy>  (76) 
-10.199999999999999

>  <m_primary>  (76) 
energy

$$$$
76:0
     RDKit          3D

 34 35  0  0  0  0  0  0  0  0999 V2000
   60.1960   27.8900   47.2670 N   0  0  0  0  0  0  0  0  0  0  0  0
   59.5550   28.8510   47.1990 C   0  0  0  0  0  0  0  0  0  0  0  0
   58.7360   30.0690   47.1340 C   0  0  0  0  0  0  0  0  0  0  0  0
   58.6950   30.5890   45.7310 C   0  0  0  0  0  0  0  0  0  0  0  0
   57.4780   30.8450   45.1400 N   0  0  0  0  0  0  0  0  0  0  0  0
   57.0290   32.1760   44.9710 C   0  0  0  0  0  0  0  0  0  0  0  0
   57.9270   33.2100   45.5480 C   0  0  0  0  0  0  0  0  0  0  0  0
   58.0330   33.4160   46.9240 C   0  0  0  0  0  0  0  0  0  0  0  0
   58.8660   34.3730   47.4640 C   0  0  0  0  0  0  0  0  0  0  0  0
   59.6350   35.1730   46.6640 C   0  0  0  0  0  0  0  0  0  0  0  0
   59.5550   34.9960   45.3000 C   0  0  0  0  0  0  0  0  0  0  0  0
   58.7190   34.0370   44.7670 C   0  0  0  0  0  0  0  0  0  0  0  0
   56.5850   29.6870   44.3610 S   0  0  0  0  0  0  0  0  0  0  0  0
   56.5240   29.6800   42.8970 O   0  0  0  0  0  0  0  0  0  0  0  0
   55.1540   29.7350   44.8780 O   0  0  0  0  0  0  0  0  0  0  0  0
   57.1660   28.0920   44.8660 C   0  0  0  0  0  0  0  0  0  0  0  0
   58.1970   27.3570   44.3220 C   0  0  0  0  0  0  0  0  0  0  0  0
   58.3090   26.1970   45.0070 N   0  0  0  0  0  0  0  0  0  0  0  0
   57.3630   26.2050   45.9660 C   0  0  0  0  0  0  0  0  0  0  0  0
   56.6690   27.3570   45.8800 N   0  0  0  0  0  0  0  0  0  0  0  0
   57.7132   29.8374   47.4659 H   0  0  0  0  0  0  0  0  0  0  0  0
   59.1783   30.8347   47.7882 H   0  0  0  0  0  0  0  0  0  0  0  0
   59.2601   31.5327   45.7225 H   0  0  0  0  0  0  0  0  0  0  0  0
   59.1032   29.7595   45.1350 H   0  0  0  0  0  0  0  0  0  0  0  0
   56.9302   32.3704   43.8928 H   0  0  0  0  0  0  0  0  0  0  0  0
   56.0749   32.2542   45.5129 H   0  0  0  0  0  0  0  0  0  0  0  0
   57.4309   32.7931   47.6018 H   0  0  0  0  0  0  0  0  0  0  0  0
   58.9129   34.4952   48.5562 H   0  0  0  0  0  0  0  0  0  0  0  0
   60.2984   35.9359   47.0974 H   0  0  0  0  0  0  0  0  0  0  0  0
   60.1621   35.6239   44.6313 H   0  0  0  0  0  0  0  0  0  0  0  0
   58.6791   33.9235   43.6736 H   0  0  0  0  0  0  0  0  0  0  0  0
   58.8244   27.6632   43.4719 H   0  0  0  0  0  0  0  0  0  0  0  0
   58.9770   25.4080   44.8710 H   0  0  0  0  0  0  0  0  0  0  0  0
   57.1862   25.4035   46.6984 H   0  0  0  0  0  0  0  0  0  0  0  0
  1  2  3  0
  2  3  1  0
  3  4  1  0
  4  5  1  0
  5  6  1  0
  6  7  1  0
  7  8  2  0
  8  9  1  0
  9 10  2  0
 10 11  1  0
 11 12  2  0
  5 13  1  0
 13 14  2  0
 13 15  2  0
 13 16  1  0
 16 17  2  0
 17 18  1  0
 18 19  1  0
 19 20  2  0
 12  7  1  0
 20 16  1  0
  3 21  1  0
  3 22  1  0
  4 23  1  0
  4 24  1  0
  6 25  1  0
  6 26  1  0
  8 27  1  0
  9 28  1  0
 10 29  1  0
 11 30  1  0
 12 31  1  0
 17 32  1  0
 18 33  1  0
 19 34  1  0
M  END
>  <smiles>  (77) 
N#CCCN(Cc1ccccc1)S(=O)(=O)c1c[nH]cn1

>  <score_type>  (77) 
oracle

>  <origin>  (77) 
adg

>  <m_score__min__energy>  (77) 
-6.7199999999999998

>  <m_primary>  (77) 
energy

$$$$
77:0
     RDKit          3D

 52 55  0  0  0  0  0  0  0  0999 V2000
   59.6460   35.2900   46.1610 C   0  0  0  0  0  0  0  0  0  0  0  0
   60.1110   34.2580   47.1390 C   0  0  0  0  0  0  0  0  0  0  0  0
   60.1290   34.5390   48.5110 C   0  0  0  0  0  0  0  0  0  0  0  0
   60.5840   33.5650   49.4030 C   0  0  0  0  0  0  0  0  0  0  0  0
   61.0170   32.3290   48.9220 C   0  0  0  0  0  0  0  0  0  0  0  0
   60.9860   32.0790   47.5420 C   0  0  0  0  0  0  0  0  0  0  0  0
   61.4750   30.7700   46.9920 C   0  0  0  0  0  0  0  0  0  0  0  0
   60.5380   30.2480   45.9720 N   0  0  0  0  0  0  0  0  0  0  0  0
   60.7880   28.8170   45.6820 C   0  0  0  0  0  0  0  0  0  0  0  0
   60.1400   27.8760   46.7060 C   0  0  0  0  0  0  0  0  0  0  0  0
   58.6900   27.5520   46.4200 C   0  0  0  0  0  0  0  0  0  0  0  0
   58.2780   26.3130   46.8010 N   0  0  0  0  0  0  0  0  0  0  0  0
   57.0060   25.8800   46.6470 C   0  0  0  0  0  0  0  0  0  0  0  0
   56.6630   24.5130   47.0940 C   0  0  0  0  0  0  0  0  0  0  0  0
   57.5270   23.8420   47.7220 O   0  0  0  0  0  0  0  0  0  0  0  0
   55.3470   23.9730   46.8960 N   0  0  0  0  0  0  0  0  0  0  0  0
   55.0500   22.5700   46.9860 C   0  0  0  0  0  0  0  0  0  0  0  0
   55.5780   21.6930   46.0260 C   0  0  0  0  0  0  0  0  0  0  0  0
   55.3140   20.3210   46.0980 C   0  0  0  0  0  0  0  0  0  0  0  0
   54.5330   19.8140   47.1390 C   0  0  0  0  0  0  0  0  0  0  0  0
   54.0220   20.6730   48.1140 C   0  0  0  0  0  0  0  0  0  0  0  0
   54.2820   22.0470   48.0470 C   0  0  0  0  0  0  0  0  0  0  0  0
   53.8250   22.8520   49.0390 F   0  0  0  0  0  0  0  0  0  0  0  0
   56.0800   26.7280   46.0370 C   0  0  0  0  0  0  0  0  0  0  0  0
   54.7800   26.3070   45.7710 O   0  0  0  0  0  0  0  0  0  0  0  0
   56.4850   28.0100   45.6600 C   0  0  0  0  0  0  0  0  0  0  0  0
   55.6410   28.7600   45.0930 O   0  0  0  0  0  0  0  0  0  0  0  0
   57.7740   28.4450   45.8870 N   0  0  0  0  0  0  0  0  0  0  0  0
   58.1340   29.8130   45.4280 C   0  0  0  0  0  0  0  0  0  0  0  0
   59.1320   30.5320   46.3430 C   0  0  0  0  0  0  0  0  0  0  0  0
   60.5430   33.0460   46.6920 N   0  0  0  0  0  0  0  0  0  0  0  0
   59.2535   36.1611   46.7060 H   0  0  0  0  0  0  0  0  0  0  0  0
   60.4902   35.6028   45.5289 H   0  0  0  0  0  0  0  0  0  0  0  0
   58.8524   34.8649   45.5289 H   0  0  0  0  0  0  0  0  0  0  0  0
   59.7883   35.5168   48.8824 H   0  0  0  0  0  0  0  0  0  0  0  0
   60.6009   33.7722   50.4832 H   0  0  0  0  0  0  0  0  0  0  0  0
   61.3792   31.5581   49.6181 H   0  0  0  0  0  0  0  0  0  0  0  0
   62.4633   30.9182   46.5322 H   0  0  0  0  0  0  0  0  0  0  0  0
   61.5420   30.0435   47.8153 H   0  0  0  0  0  0  0  0  0  0  0  0
   60.3819   28.5849   44.6864 H   0  0  0  0  0  0  0  0  0  0  0  0
   61.8752   28.6566   45.7294 H   0  0  0  0  0  0  0  0  0  0  0  0
   60.7082   26.9342   46.7170 H   0  0  0  0  0  0  0  0  0  0  0  0
   60.1622   28.3985   47.6737 H   0  0  0  0  0  0  0  0  0  0  0  0
   54.5450   24.6420   46.8570 H   0  0  0  0  0  0  0  0  0  0  0  0
   56.2036   22.0870   45.2115 H   0  0  0  0  0  0  0  0  0  0  0  0
   55.7215   19.6416   45.3348 H   0  0  0  0  0  0  0  0  0  0  0  0
   54.3201   18.7360   47.1909 H   0  0  0  0  0  0  0  0  0  0  0  0
   53.4137   20.2692   48.9367 H   0  0  0  0  0  0  0  0  0  0  0  0
   58.5774   29.7362   44.4243 H   0  0  0  0  0  0  0  0  0  0  0  0
   57.2080   30.4068   45.4360 H   0  0  0  0  0  0  0  0  0  0  0  0
   58.9593   31.6161   46.2727 H   0  0  0  0  0  0  0  0  0  0  0  0
   58.9733   30.1665   47.3683 H   0  0  0  0  0  0  0  0  0  0  0  0
  1  2  1  0
  2  3  2  0
  3  4  1  0
  4  5  2  0
  5  6  1  0
  6  7  1  0
  7  8  1  0
  8  9  1  0
  9 10  1  0
 10 11  1  0
 11 12  2  0
 12 13  1  0
 13 14  1  0
 14 15  2  0
 14 16  1  0
 16 17  1  0
 17 18  2  0
 18 19  1  0
 19 20  2  0
 20 21  1  0
 21 22  2  0
 22 23  1  0
 13 24  2  0
 24 25  1  0
 24 26  1  0
 26 27  2  0
 26 28  1  0
 28 29  1  0
 29 30  1  0
  6 31  2  0
 31  2  1  0
 30  8  1  0
 28 11  1  0
 22 17  1  0
  1 32  1  0
  1 33  1  0
  1 34  1  0
  3 35  1  0
  4 36  1  0
  5 37  1  0
  7 38  1  0
  7 39  1  0
  9 40  1  0
  9 41  1  0
 10 42  1  0
 10 43  1  0
 16 44  1  0
 18 45  1  0
 19 46  1  0
 20 47  1  0
 21 48  1  0
 29 49  1  0
 29 50  1  0
 30 51  1  0
 30 52  1  0
M  CHG  1  25  -1
M  END
>  <UniqueID>  (78) 
73

>  <SMILES>  (78) 
Cc1cccc(CN2CCc3nc(C(=O)Nc4ccccc4F)c([O-])c(=O)n3CC2)n1

>  <Energy>  (78) 
81.25445137340485

>  <Genealogy>  (78) 
Cc1cccc(CN2CCc3nc(C(=O)Nc4ccccc4F)c([O-])c(=O)n3CC2)n1 (protonated)
Cc1cccc(CN2CCc3nc(C(=O)Nc4ccccc4F)c([O-])c(=O)n3CC2)n1 (3D coordinates assigned)
Cc1cccc(CN2CCc3nc(C(=O)Nc4ccccc4F)c([O-])c(=O)n3CC2)n1 (nonaromatic ring conformer: 81.25445137340485 kcal/mol)

>  <smiles>  (78) 
Cc1cccc(CN2CCc3nc(C(=O)Nc4ccccc4F)c(O)c(=O)n3CC2)n1

>  <score_type>  (78) 
oracle

>  <origin>  (78) 
adg

>  <m_score__min__energy>  (78) 
-9.75

>  <m_primary>  (78) 
energy

$$$$
78:0
     RDKit          3D

 39 41  0  0  0  0  0  0  0  0999 V2000
   55.5440   26.8100   46.0220 N   0  0  0  0  0  0  0  0  0  0  0  0
   56.9460   26.5200   46.0830 C   0  0  0  0  0  0  0  0  0  0  0  0
   57.3740   25.1900   45.9470 C   0  0  0  0  0  0  0  0  0  0  0  0
   58.7370   24.8840   45.9040 C   0  0  0  0  0  0  0  0  0  0  0  0
   59.6840   25.9050   45.9890 C   0  0  0  0  0  0  0  0  0  0  0  0
   59.2730   27.2310   46.1370 C   0  0  0  0  0  0  0  0  0  0  0  0
   57.9100   27.5470   46.2140 C   0  0  0  0  0  0  0  0  0  0  0  0
   57.5410   28.9200   46.4080 N   0  0  0  0  0  0  0  0  0  0  0  0
   57.0320   29.7720   45.3750 C   0  0  0  0  0  0  0  0  0  0  0  0
   56.0710   29.3800   44.6560 O   0  0  0  0  0  0  0  0  0  0  0  0
   57.6100   31.1200   45.1680 C   0  0  0  0  0  0  0  0  0  0  0  0
   57.5890   31.7200   43.8970 C   0  0  0  0  0  0  0  0  0  0  0  0
   58.1210   32.9970   43.7080 C   0  0  0  0  0  0  0  0  0  0  0  0
   58.6920   33.6930   44.7770 C   0  0  0  0  0  0  0  0  0  0  0  0
   59.2100   34.9670   44.5530 O   0  0  0  0  0  0  0  0  0  0  0  0
   58.7400   33.1030   46.0520 C   0  0  0  0  0  0  0  0  0  0  0  0
   59.3010   33.8220   47.1180 O   0  0  0  0  0  0  0  0  0  0  0  0
   60.6560   33.8160   47.4820 C   0  0  0  0  0  0  0  0  0  0  0  0
   61.6140   33.5280   46.5030 C   0  0  0  0  0  0  0  0  0  0  0  0
   62.9730   33.4980   46.8290 C   0  0  0  0  0  0  0  0  0  0  0  0
   63.3820   33.7450   48.1430 C   0  0  0  0  0  0  0  0  0  0  0  0
   62.4330   34.0140   49.1320 C   0  0  0  0  0  0  0  0  0  0  0  0
   61.0730   34.0450   48.8070 C   0  0  0  0  0  0  0  0  0  0  0  0
   58.1830   31.8260   46.2430 C   0  0  0  0  0  0  0  0  0  0  0  0
   54.8690   26.2960   46.6330 H   0  0  0  0  0  0  0  0  0  0  0  0
   55.1490   27.4620   45.3090 H   0  0  0  0  0  0  0  0  0  0  0  0
   56.6308   24.3824   45.8737 H   0  0  0  0  0  0  0  0  0  0  0  0
   59.0631   23.8383   45.8032 H   0  0  0  0  0  0  0  0  0  0  0  0
   60.7563   25.6648   45.9393 H   0  0  0  0  0  0  0  0  0  0  0  0
   60.0239   28.0328   46.1935 H   0  0  0  0  0  0  0  0  0  0  0  0
   57.1503   31.1796   43.0452 H   0  0  0  0  0  0  0  0  0  0  0  0
   58.0905   33.4588   42.7101 H   0  0  0  0  0  0  0  0  0  0  0  0
   59.6000   35.5310   45.3000 H   0  0  0  0  0  0  0  0  0  0  0  0
   61.2953   33.3239   45.4701 H   0  0  0  0  0  0  0  0  0  0  0  0
   63.7205   33.2801   46.0519 H   0  0  0  0  0  0  0  0  0  0  0  0
   64.4519   33.7275   48.3981 H   0  0  0  0  0  0  0  0  0  0  0  0
   62.7554   34.2015   50.1668 H   0  0  0  0  0  0  0  0  0  0  0  0
   60.3269   34.2489   49.5891 H   0  0  0  0  0  0  0  0  0  0  0  0
   58.1951   31.3728   47.2452 H   0  0  0  0  0  0  0  0  0  0  0  0
  1  2  1  0
  2  3  2  0
  3  4  1  0
  4  5  2  0
  5  6  1  0
  6  7  2  0
  7  8  1  0
  8  9  1  0
  9 10  2  0
  9 11  1  0
 11 12  2  0
 12 13  1  0
 13 14  2  0
 14 15  1  0
 14 16  1  0
 16 17  1  0
 17 18  1  0
 18 19  2  0
 19 20  1  0
 20 21  2  0
 21 22  1  0
 22 23  2  0
 16 24  2  0
  7  2  1  0
 24 11  1  0
 23 18  1  0
  1 25  1  0
  1 26  1  0
  3 27  1  0
  4 28  1  0
  5 29  1  0
  6 30  1  0
 12 31  1  0
 13 32  1  0
 15 33  1  0
 19 34  1  0
 20 35  1  0
 21 36  1  0
 22 37  1  0
 23 38  1  0
 24 39  1  0
M  CHG  1   8  -1
M  END
>  <UniqueID>  (79) 
74

>  <SMILES>  (79) 
Nc1ccccc1[N-]C(=O)c1ccc(O)c(Oc2ccccc2)c1

>  <Energy>  (79) 
55.7564296179026

>  <Genealogy>  (79) 
Nc1ccccc1[N-]C(=O)c1ccc(O)c(Oc2ccccc2)c1 (protonated)
Nc1ccccc1[N-]C(=O)c1ccc(O)c(Oc2ccccc2)c1 (3D coordinates assigned)
Nc1ccccc1[N-]C(=O)c1ccc(O)c(Oc2ccccc2)c1 (optimized conformer: 55.7564296179026 kcal/mol)

>  <smiles>  (79) 
Nc1ccccc1NC(=O)c1ccc(O)c(Oc2ccccc2)c1

>  <score_type>  (79) 
oracle

>  <origin>  (79) 
adg

>  <m_score__min__energy>  (79) 
-9.3699999999999992

>  <m_primary>  (79) 
energy

$$$$
79:0
     RDKit          3D

 50 52  0  0  1  0  0  0  0  0999 V2000
   60.5680   27.9300   49.3010 C   0  0  0  0  0  0  0  0  0  0  0  0
   60.9130   29.2770   49.6290 O   0  0  0  0  0  0  0  0  0  0  0  0
   59.8650   30.1570   49.8520 C   0  0  0  0  0  0  0  0  0  0  0  0
   59.9180   31.4020   49.3000 C   0  0  0  0  0  0  0  0  0  0  0  0
   58.8850   32.2890   49.5110 C   0  0  0  0  0  0  0  0  0  0  0  0
   58.9110   33.4490   49.0110 N   0  0  0  0  0  0  0  0  0  0  0  0
   59.2880   33.8210   47.4000 S   0  0  0  0  0  0  0  0  0  0  0  0
   60.7960   33.5920   47.2630 O   0  0  0  0  0  0  0  0  0  0  0  0
   59.0990   35.2600   47.0190 O   0  0  0  0  0  0  0  0  0  0  0  0
   58.5640   32.7210   46.2480 C   0  0  0  0  0  0  0  0  0  0  0  0
   57.8980   33.1760   45.1080 C   0  0  0  0  0  0  0  0  0  0  0  0
   57.3540   32.2300   44.2660 C   0  0  0  0  0  0  0  0  0  0  0  0
   57.4310   30.8730   44.4880 C   0  0  0  0  0  0  0  0  0  0  0  0
   58.0890   30.4350   45.6140 C   0  0  0  0  0  0  0  0  0  0  0  0
   58.2260   29.0410   45.9410 N   0  0  0  0  0  0  0  0  0  0  0  0
   57.2010   28.1010   45.6930 C   0  0  0  0  0  0  0  0  0  0  0  0
   56.1450   28.5700   45.1610 O   0  0  0  0  0  0  0  0  0  0  0  0
   57.2370   26.6990   45.9770 C   0  0  0  0  0  0  0  0  0  0  0  0
   58.4730   26.0630   46.1220 C   0  0  0  0  0  0  0  0  0  0  0  0
   59.7610   26.7450   46.0050 C   0  0  0  0  0  0  0  0  0  0  0  0
   58.5090   24.7220   46.3940 N   0  0  0  0  0  0  0  0  0  0  0  0
   57.4000   23.9820   46.5280 C   0  0  0  0  0  0  0  0  0  0  0  0
   57.4940   22.7520   46.7770 O   0  0  0  0  0  0  0  0  0  0  0  0
   56.2210   24.5620   46.3950 N   0  0  0  0  0  0  0  0  0  0  0  0
   56.1320   25.8860   46.1260 C   0  0  0  0  0  0  0  0  0  0  0  0
   54.9700   26.3420   46.0190 O   0  0  0  0  0  0  0  0  0  0  0  0
   58.6300   31.3780   46.4510 C   0  0  0  0  0  0  0  0  0  0  0  0
   57.8220   31.9410   50.2570 N   0  0  0  0  0  0  0  0  0  0  0  0
   57.7670   30.7130   50.8030 C   0  0  0  0  0  0  0  0  0  0  0  0
   56.6730   30.3890   51.5560 O   0  0  0  0  0  0  0  0  0  0  0  0
   55.9710   31.1910   52.4480 C   0  0  0  0  0  0  0  0  0  0  0  0
   58.7850   29.8390   50.5940 N   0  0  0  0  0  0  0  0  0  0  0  0
   60.4204   27.3536   50.2262 H   0  0  0  0  0  0  0  0  0  0  0  0
   59.6389   27.9225   48.7121 H   0  0  0  0  0  0  0  0  0  0  0  0
   61.3791   27.4768   48.7121 H   0  0  0  0  0  0  0  0  0  0  0  0
   60.7828   31.6978   48.6879 H   0  0  0  0  0  0  0  0  0  0  0  0
   57.8107   34.2506   44.8899 H   0  0  0  0  0  0  0  0  0  0  0  0
   56.8282   32.5789   43.3650 H   0  0  0  0  0  0  0  0  0  0  0  0
   56.9787   30.1588   43.7842 H   0  0  0  0  0  0  0  0  0  0  0  0
   59.1120   28.7620   46.3670 H   0  0  0  0  0  0  0  0  0  0  0  0
   60.1573   26.9549   47.0094 H   0  0  0  0  0  0  0  0  0  0  0  0
   60.4676   26.1029   45.4588 H   0  0  0  0  0  0  0  0  0  0  0  0
   59.6270   27.6904   45.4588 H   0  0  0  0  0  0  0  0  0  0  0  0
   59.4180   24.2260   46.5060 H   0  0  0  0  0  0  0  0  0  0  0  0
   55.3510   23.9780   46.5020 H   0  0  0  0  0  0  0  0  0  0  0  0
   59.1544   31.0224   47.3502 H   0  0  0  0  0  0  0  0  0  0  0  0
   57.0590   32.6060   50.4090 H   0  0  0  0  0  0  0  0  0  0  0  0
   56.2242   30.9017   53.4786 H   0  0  0  0  0  0  0  0  0  0  0  0
   56.2424   32.2446   52.2857 H   0  0  0  0  0  0  0  0  0  0  0  0
   54.8908   31.0615   52.2857 H   0  0  0  0  0  0  0  0  0  0  0  0
  1  2  1  0
  2  3  1  0
  3  4  2  0
  4  5  1  0
  5  6  2  0
  6  7  1  0
  7  8  2  0
  7  9  2  0
  7 10  1  0
 10 11  2  0
 11 12  1  0
 12 13  2  0
 13 14  1  0
 14 15  1  0
 15 16  1  0
 16 17  2  0
 16 18  1  0
 18 19  2  0
 19 20  1  0
 19 21  1  0
 21 22  1  0
 22 23  2  0
 22 24  1  0
 24 25  1  0
 25 26  2  0
 14 27  2  0
  5 28  1  0
 28 29  1  0
 29 30  1  0
 30 31  1  0
 29 32  2  0
 32  3  1  0
 27 10  1  0
 25 18  1  0
  1 33  1  0
  1 34  1  0
  1 35  1  0
  4 36  1  0
 11 37  1  0
 12 38  1  0
 13 39  1  0
 15 40  1  0
 20 41  1  0
 20 42  1  0
 20 43  1  0
 21 44  1  0
 24 45  1  0
 27 46  1  0
 28 47  1  0
 31 48  1  0
 31 49  1  0
 31 50  1  0
M  END
>  <smiles>  (80) 
COc1cc(=NS(=O)(=O)c2cccc(NC(=O)c3c(C)[nH]c(=O)[nH]c3=O)c2)[nH]c(OC)n1

>  <score_type>  (80) 
oracle

>  <origin>  (80) 
adg

>  <m_score__min__energy>  (80) 
-10.01

>  <m_primary>  (80) 
energy

$$$$
80:0
     RDKit          3D

 33 35  0  0  1  0  0  0  0  0999 V2000
   57.7810   32.3430   41.5490 C   0  0  0  0  0  0  0  0  0  0  0  0
   58.0120   31.7290   42.8160 N   0  0  0  0  0  0  0  0  0  0  0  0
   58.0770   32.4240   44.0530 C   0  0  0  0  0  0  0  0  0  0  0  0
   58.5540   33.7160   44.1260 C   0  0  0  0  0  0  0  0  0  0  0  0
   58.6200   34.4050   45.3370 C   0  0  0  0  0  0  0  0  0  0  0  0
   58.2080   33.8170   46.5130 C   0  0  0  0  0  0  0  0  0  0  0  0
   57.7280   32.5240   46.4600 C   0  0  0  0  0  0  0  0  0  0  0  0
   57.6560   31.8220   45.2500 C   0  0  0  0  0  0  0  0  0  0  0  0
   57.1230   30.5430   45.2320 N   0  0  0  0  0  0  0  0  0  0  0  0
   57.6590   29.4330   44.9740 C   0  0  0  0  0  0  0  0  0  0  0  0
   57.2270   28.7160   43.9260 N   0  0  0  0  0  0  0  0  0  0  0  0
   57.7810   27.5230   43.6250 C   0  0  0  0  0  0  0  0  0  0  0  0
   58.7750   27.0760   44.4050 N   0  0  0  0  0  0  0  0  0  0  0  0
   59.2320   27.7660   45.4590 C   0  0  0  0  0  0  0  0  0  0  0  0
   58.6650   28.9720   45.7560 C   0  0  0  0  0  0  0  0  0  0  0  0
   59.2900   29.4610   46.8460 C   0  0  0  0  0  0  0  0  0  0  0  0
   60.2270   28.5160   47.1730 N   0  0  0  0  0  0  0  0  0  0  0  0
   60.1940   27.5010   46.3460 N   0  0  0  0  0  0  0  0  0  0  0  0
   61.0330   26.3170   46.3750 C   0  0  0  0  0  0  0  0  0  0  0  0
   57.3973   33.3628   41.7002 H   0  0  0  0  0  0  0  0  0  0  0  0
   58.7244   32.3861   40.9850 H   0  0  0  0  0  0  0  0  0  0  0  0
   57.0432   31.7535   40.9850 H   0  0  0  0  0  0  0  0  0  0  0  0
   58.1440   30.6870   42.8360 H   0  0  0  0  0  0  0  0  0  0  0  0
   58.8910   34.2158   43.2059 H   0  0  0  0  0  0  0  0  0  0  0  0
   59.0072   35.4345   45.3534 H   0  0  0  0  0  0  0  0  0  0  0  0
   58.2601   34.3624   47.4668 H   0  0  0  0  0  0  0  0  0  0  0  0
   57.3951   32.0346   47.3872 H   0  0  0  0  0  0  0  0  0  0  0  0
   56.4540   29.0830   43.3350 H   0  0  0  0  0  0  0  0  0  0  0  0
   57.4274   26.9350   42.7652 H   0  0  0  0  0  0  0  0  0  0  0  0
   59.0909   30.4123   47.3611 H   0  0  0  0  0  0  0  0  0  0  0  0
   61.2330   26.0348   47.4192 H   0  0  0  0  0  0  0  0  0  0  0  0
   60.5181   25.4902   45.8639 H   0  0  0  0  0  0  0  0  0  0  0  0
   61.9838   26.5287   45.8639 H   0  0  0  0  0  0  0  0  0  0  0  0
  1  2  1  0
  2  3  1  0
  3  4  2  0
  4  5  1  0
  5  6  2  0
  6  7  1  0
  7  8  2  0
  8  9  1  0
  9 10  2  0
 10 11  1  0
 11 12  1  0
 12 13  2  0
 13 14  1  0
 14 15  2  0
 15 16  1  0
 16 17  2  0
 17 18  1  0
 18 19  1  0
  8  3  1  0
 15 10  1  0
 18 14  1  0
  1 20  1  0
  1 21  1  0
  1 22  1  0
  2 23  1  0
  4 24  1  0
  5 25  1  0
  6 26  1  0
  7 27  1  0
 11 28  1  0
 12 29  1  0
 16 30  1  0
 19 31  1  0
 19 32  1  0
 19 33  1  0
M  END
>  <smiles>  (81) 
CNc1ccccc1N=c1[nH]cnc2c1cnn2C

>  <score_type>  (81) 
oracle

>  <origin>  (81) 
adg

>  <m_score__min__energy>  (81) 
-6.6299999999999999

>  <m_primary>  (81) 
energy

$$$$
81:0
     RDKit          3D

 39 42  0  0  0  0  0  0  0  0999 V2000
   57.3040   26.5220   45.5160 O   0  0  0  0  0  0  0  0  0  0  0  0
   58.2640   27.1300   46.0590 C   0  0  0  0  0  0  0  0  0  0  0  0
   59.2990   26.4650   46.7480 N   0  0  0  0  0  0  0  0  0  0  0  0
   60.2460   27.4820   47.1820 C   0  0  0  0  0  0  0  0  0  0  0  0
   59.6680   28.8480   46.7120 C   0  0  2  0  0  0  0  0  0  0  0  0
   59.4240   29.7910   47.8700 C   0  0  0  0  0  0  0  0  0  0  0  0
   59.4920   29.3210   49.1900 C   0  0  0  0  0  0  0  0  0  0  0  0
   59.2890   30.1930   50.2630 C   0  0  0  0  0  0  0  0  0  0  0  0
   59.0140   31.5520   50.0390 C   0  0  0  0  0  0  0  0  0  0  0  0
   58.8060   32.4570   51.1940 C   0  0  0  0  0  0  0  0  0  0  0  0
   58.1550   32.1620   52.3810 C   0  0  0  0  0  0  0  0  0  0  0  0
   58.2160   33.3110   53.1390 C   0  0  0  0  0  0  0  0  0  0  0  0
   58.8960   34.2370   52.3770 C   0  0  0  0  0  0  0  0  0  0  0  0
   59.2340   33.7000   51.2280 O   0  0  0  0  0  0  0  0  0  0  0  0
   58.9430   32.0220   48.7150 C   0  0  0  0  0  0  0  0  0  0  0  0
   59.1460   31.1500   47.6420 C   0  0  0  0  0  0  0  0  0  0  0  0
   58.4130   28.5360   46.0270 N   0  0  0  0  0  0  0  0  0  0  0  0
   57.8510   29.3700   45.0020 C   0  0  0  0  0  0  0  0  0  0  0  0
   58.6530   30.3300   44.3630 C   0  0  0  0  0  0  0  0  0  0  0  0
   58.1090   31.1610   43.3800 C   0  0  0  0  0  0  0  0  0  0  0  0
   56.7630   31.0400   43.0270 C   0  0  0  0  0  0  0  0  0  0  0  0
   55.9590   30.0860   43.6540 C   0  0  0  0  0  0  0  0  0  0  0  0
   56.4980   29.2450   44.6400 C   0  0  0  0  0  0  0  0  0  0  0  0
   55.6970   28.2790   45.2450 O   0  0  0  0  0  0  0  0  0  0  0  0
   60.3450   27.4672   48.2774 H   0  0  0  0  0  0  0  0  0  0  0  0
   61.2452   27.3041   46.7578 H   0  0  0  0  0  0  0  0  0  0  0  0
   60.3811   29.3635   46.0519 H   0  0  0  0  0  0  0  0  0  0  0  0
   59.7065   28.2593   49.3817 H   0  0  0  0  0  0  0  0  0  0  0  0
   59.3451   29.8113   51.2931 H   0  0  0  0  0  0  0  0  0  0  0  0
   57.6860   31.2071   52.6606 H   0  0  0  0  0  0  0  0  0  0  0  0
   57.8050   33.4595   54.1485 H   0  0  0  0  0  0  0  0  0  0  0  0
   59.1210   35.2687   52.6850 H   0  0  0  0  0  0  0  0  0  0  0  0
   58.7262   33.0832   48.5230 H   0  0  0  0  0  0  0  0  0  0  0  0
   59.0878   31.5299   46.6113 H   0  0  0  0  0  0  0  0  0  0  0  0
   59.7137   30.4280   44.6375 H   0  0  0  0  0  0  0  0  0  0  0  0
   58.7417   31.9115   42.8835 H   0  0  0  0  0  0  0  0  0  0  0  0
   56.3361   31.6966   42.2546 H   0  0  0  0  0  0  0  0  0  0  0  0
   54.8992   29.9932   43.3742 H   0  0  0  0  0  0  0  0  0  0  0  0
   55.9110   27.2910   45.1790 H   0  0  0  0  0  0  0  0  0  0  0  0
  1  2  2  0
  2  3  1  0
  3  4  1  0
  4  5  1  0
  5  6  1  0
  6  7  2  0
  7  8  1  0
  8  9  2  0
  9 10  1  0
 10 11  2  0
 11 12  1  0
 12 13  2  0
 13 14  1  0
  9 15  1  0
 15 16  2  0
  5 17  1  0
 17 18  1  0
 18 19  2  0
 19 20  1  0
 20 21  2  0
 21 22  1  0
 22 23  2  0
 23 24  1  0
 17  2  1  0
 23 18  1  0
 16  6  1  0
 14 10  1  0
  4 25  1  0
  4 26  1  0
  5 27  1  6
  7 28  1  0
  8 29  1  0
 11 30  1  0
 12 31  1  0
 13 32  1  0
 15 33  1  0
 16 34  1  0
 19 35  1  0
 20 36  1  0
 21 37  1  0
 22 38  1  0
 24 39  1  0
M  CHG  1   3  -1
M  END
>  <UniqueID>  (82) 
75

>  <SMILES>  (82) 
O=C1[N-]C[C@H](c2ccc(-c3ccco3)cc2)N1c1ccccc1O

>  <Energy>  (82) 
90.43305052028602

>  <Genealogy>  (82) 
O=C1[N-]CC(c2ccc(-c3ccco3)cc2)N1c1ccccc1O (protonated)
O=C1[N-]C[C@H](c2ccc(-c3ccco3)cc2)N1c1ccccc1O (chirality)
O=C1[N-]C[C@H](c2ccc(-c3ccco3)cc2)N1c1ccccc1O (3D coordinates assigned)
O=C1[N-]C[C@H](c2ccc(-c3ccco3)cc2)N1c1ccccc1O (nonaromatic ring conformer: 90.43305052028602 kcal/mol)

>  <smiles>  (82) 
O=C1NCC(c2ccc(-c3ccco3)cc2)N1c1ccccc1O

>  <score_type>  (82) 
oracle

>  <origin>  (82) 
adg

>  <m_score__min__energy>  (82) 
-9.4299999999999997

>  <m_primary>  (82) 
energy

$$$$
82:0
     RDKit          3D

 53 56  0  0  0  0  0  0  0  0999 V2000
   51.5670   23.7990   44.2990 C   0  0  0  0  0  0  0  0  0  0  0  0
   52.1440   22.5950   44.8820 N   0  0  0  0  0  0  0  0  0  0  0  0
   53.1990   22.5800   45.8520 C   0  0  0  0  0  0  0  0  0  0  0  0
   53.0260   21.9420   46.9240 O   0  0  0  0  0  0  0  0  0  0  0  0
   54.4940   23.2500   45.6190 C   0  0  0  0  0  0  0  0  0  0  0  0
   54.6320   24.6140   45.9040 C   0  0  0  0  0  0  0  0  0  0  0  0
   55.8470   25.2630   45.6790 C   0  0  0  0  0  0  0  0  0  0  0  0
   56.9390   24.5630   45.1340 C   0  0  0  0  0  0  0  0  0  0  0  0
   58.2130   25.1980   44.9300 N   0  0  0  0  0  0  0  0  0  0  0  0
   58.5360   26.4200   45.2430 C   0  0  0  0  0  0  0  0  0  0  0  0
   57.6890   27.4310   44.9180 N   0  0  0  0  0  0  0  0  0  0  0  0
   57.9590   28.7270   45.2420 C   0  0  0  0  0  0  0  0  0  0  0  0
   59.1500   29.0200   45.9330 C   0  0  0  0  0  0  0  0  0  0  0  0
   60.0050   27.9670   46.2730 C   0  0  0  0  0  0  0  0  0  0  0  0
   59.6810   26.6950   45.9260 N   0  0  0  0  0  0  0  0  0  0  0  0
   59.4550   30.3400   46.2560 C   0  0  0  0  0  0  0  0  0  0  0  0
   58.5870   31.3640   45.8730 C   0  0  0  0  0  0  0  0  0  0  0  0
   58.9330   32.7670   46.1970 C   0  0  0  0  0  0  0  0  0  0  0  0
   59.1500   33.6680   45.1430 C   0  0  0  0  0  0  0  0  0  0  0  0
   59.4960   34.9940   45.4050 C   0  0  0  0  0  0  0  0  0  0  0  0
   59.6270   35.4350   46.7230 C   0  0  0  0  0  0  0  0  0  0  0  0
   59.4010   34.5540   47.7820 C   0  0  0  0  0  0  0  0  0  0  0  0
   59.0350   33.2200   47.5350 C   0  0  0  0  0  0  0  0  0  0  0  0
   58.7890   32.2970   48.7010 C   0  0  0  0  0  0  0  0  0  0  0  0
   57.3960   31.0430   45.1940 C   0  0  0  0  0  0  0  0  0  0  0  0
   56.6090   31.9730   44.8590 O   0  0  0  0  0  0  0  0  0  0  0  0
   57.0880   29.7340   44.9040 N   0  0  0  0  0  0  0  0  0  0  0  0
   55.8530   29.4120   44.1660 C   0  0  0  0  0  0  0  0  0  0  0  0
   56.8120   23.1920   44.8520 C   0  0  0  0  0  0  0  0  0  0  0  0
   57.9270   22.5100   44.3370 O   0  0  0  0  0  0  0  0  0  0  0  0
   57.8550   21.4270   43.4150 C   0  0  0  0  0  0  0  0  0  0  0  0
   55.5810   22.5460   45.0810 C   0  0  0  0  0  0  0  0  0  0  0  0
   51.2424   24.4763   45.1027 H   0  0  0  0  0  0  0  0  0  0  0  0
   52.3214   24.3030   43.6771 H   0  0  0  0  0  0  0  0  0  0  0  0
   50.7015   23.5267   43.6771 H   0  0  0  0  0  0  0  0  0  0  0  0
   53.7778   25.1774   46.3076 H   0  0  0  0  0  0  0  0  0  0  0  0
   55.9515   26.3290   45.9295 H   0  0  0  0  0  0  0  0  0  0  0  0
   60.9377   28.1687   46.8202 H   0  0  0  0  0  0  0  0  0  0  0  0
   60.3757   30.5746   46.8104 H   0  0  0  0  0  0  0  0  0  0  0  0
   59.0465   33.3262   44.1026 H   0  0  0  0  0  0  0  0  0  0  0  0
   59.6657   35.6925   44.5723 H   0  0  0  0  0  0  0  0  0  0  0  0
   59.9088   36.4785   46.9274 H   0  0  0  0  0  0  0  0  0  0  0  0
   59.5103   34.9069   48.8181 H   0  0  0  0  0  0  0  0  0  0  0  0
   58.9358   32.8477   49.6419 H   0  0  0  0  0  0  0  0  0  0  0  0
   57.7580   31.9162   48.6560 H   0  0  0  0  0  0  0  0  0  0  0  0
   59.4937   31.4536   48.6560 H   0  0  0  0  0  0  0  0  0  0  0  0
   55.0435   29.2009   44.8803 H   0  0  0  0  0  0  0  0  0  0  0  0
   55.5704   30.2665   43.5336 H   0  0  0  0  0  0  0  0  0  0  0  0
   56.0236   28.5283   43.5336 H   0  0  0  0  0  0  0  0  0  0  0  0
   57.7919   20.4782   43.9680 H   0  0  0  0  0  0  0  0  0  0  0  0
   56.9626   21.5427   42.7824 H   0  0  0  0  0  0  0  0  0  0  0  0
   58.7549   21.4236   42.7824 H   0  0  0  0  0  0  0  0  0  0  0  0
   55.4715   21.4794   44.8355 H   0  0  0  0  0  0  0  0  0  0  0  0
  1  2  1  0
  2  3  1  0
  3  4  2  0
  3  5  1  0
  5  6  2  0
  6  7  1  0
  7  8  2  0
  8  9  1  0
  9 10  2  3
 10 11  1  0
 11 12  2  0
 12 13  1  0
 13 14  2  0
 14 15  1  0
 13 16  1  0
 16 17  2  0
 17 18  1  0
 18 19  2  0
 19 20  1  0
 20 21  2  0
 21 22  1  0
 22 23  2  0
 23 24  1  0
 17 25  1  0
 25 26  2  0
 25 27  1  0
 27 28  1  0
  8 29  1  0
 29 30  1  0
 30 31  1  0
 29 32  2  0
 32  5  1  0
 15 10  1  0
 23 18  1  0
 27 12  1  0
  1 33  1  0
  1 34  1  0
  1 35  1  0
  6 36  1  0
  7 37  1  0
 14 38  1  0
 16 39  1  0
 19 40  1  0
 20 41  1  0
 21 42  1  0
 22 43  1  0
 24 44  1  0
 24 45  1  0
 24 46  1  0
 28 47  1  0
 28 48  1  0
 28 49  1  0
 31 50  1  0
 31 51  1  0
 31 52  1  0
 32 53  1  0
M  CHG  2   2  -1  15  -1
M  END
>  <UniqueID>  (83) 
76

>  <SMILES>  (83) 
C[N-]C(=O)c1ccc(N=c2nc3c(c[n-]2)cc(-c2ccccc2C)c(=O)n3C)c(OC)c1

>  <Energy>  (83) 
82.95982740367035

>  <Genealogy>  (83) 
C[N-]C(=O)c1ccc(N=c2nc3c(c[n-]2)cc(-c2ccccc2C)c(=O)n3C)c(OC)c1 (protonated)
C[N-]C(=O)c1ccc(N=c2nc3c(c[n-]2)cc(-c2ccccc2C)c(=O)n3C)c(OC)c1 (3D coordinates assigned)
C[N-]C(=O)c1ccc(N=c2nc3c(c[n-]2)cc(-c2ccccc2C)c(=O)n3C)c(OC)c1 (optimized conformer: 82.95982740367035 kcal/mol)

>  <smiles>  (83) 
CNC(=O)c1ccc(N=c2nc3c(c[nH]2)cc(-c2ccccc2C)c(=O)n3C)c(OC)c1

>  <score_type>  (83) 
oracle

>  <origin>  (83) 
adg

>  <m_score__min__energy>  (83) 
-11.5

>  <m_primary>  (83) 
energy

$$$$
83:0
     RDKit          3D

 55 57  0  0  0  0  0  0  0  0999 V2000
   59.0310   32.9290   51.2710 C   0  0  0  0  0  0  0  0  0  0  0  0
   60.1580   32.5830   50.4760 O   0  0  0  0  0  0  0  0  0  0  0  0
   60.2030   31.4950   49.5910 C   0  0  0  0  0  0  0  0  0  0  0  0
   59.2880   30.4280   49.6790 C   0  0  0  0  0  0  0  0  0  0  0  0
   59.3670   29.3520   48.7920 C   0  0  0  0  0  0  0  0  0  0  0  0
   60.3600   29.3220   47.8020 C   0  0  0  0  0  0  0  0  0  0  0  0
   60.4570   28.2450   46.8570 N   0  0  0  0  0  0  0  0  0  0  0  0
   59.9460   26.6190   47.1780 S   0  0  0  0  0  0  0  0  0  0  0  0
   60.8240   25.6620   46.4240 O   0  0  0  0  0  0  0  0  0  0  0  0
   60.0750   26.3470   48.6510 O   0  0  0  0  0  0  0  0  0  0  0  0
   58.2800   26.4350   46.6250 C   0  0  0  0  0  0  0  0  0  0  0  0
   57.6690   27.5160   45.9730 C   0  0  0  0  0  0  0  0  0  0  0  0
   56.3140   27.4720   45.6340 C   0  0  0  0  0  0  0  0  0  0  0  0
   55.7280   28.6250   45.0180 N   0  0  0  0  0  0  0  0  0  0  0  0
   56.4940   29.5790   43.7920 S   0  0  0  0  0  0  0  0  0  0  0  0
   57.4940   28.7300   43.0570 O   0  0  0  0  0  0  0  0  0  0  0  0
   55.4670   30.0690   42.8090 O   0  0  0  0  0  0  0  0  0  0  0  0
   57.3410   30.9180   44.5590 C   0  0  0  0  0  0  0  0  0  0  0  0
   57.8090   30.7700   45.8740 C   0  0  0  0  0  0  0  0  0  0  0  0
   58.4820   31.8250   46.4990 C   0  0  0  0  0  0  0  0  0  0  0  0
   58.6820   33.0320   45.8180 C   0  0  0  0  0  0  0  0  0  0  0  0
   58.2040   33.1890   44.5120 C   0  0  0  0  0  0  0  0  0  0  0  0
   57.5360   32.1350   43.8800 C   0  0  0  0  0  0  0  0  0  0  0  0
   55.5680   26.3170   45.9190 C   0  0  0  0  0  0  0  0  0  0  0  0
   56.1810   25.2200   46.5290 C   0  0  0  0  0  0  0  0  0  0  0  0
   57.5340   25.2730   46.8850 C   0  0  0  0  0  0  0  0  0  0  0  0
   58.1160   24.1730   47.5000 O   0  0  0  0  0  0  0  0  0  0  0  0
   61.2780   30.3750   47.7160 C   0  0  0  0  0  0  0  0  0  0  0  0
   61.1950   31.4690   48.5910 C   0  0  0  0  0  0  0  0  0  0  0  0
   62.3510   32.7970   48.4450 S   0  0  0  0  0  0  0  0  0  0  0  0
   63.0910   32.6940   47.1370 O   0  0  0  0  0  0  0  0  0  0  0  0
   61.5930   34.0980   48.4620 O   0  0  0  0  0  0  0  0  0  0  0  0
   63.4820   32.7550   49.7770 N   0  0  0  0  0  0  0  0  0  0  0  0
   63.4760   31.4170   50.3790 C   0  0  0  0  0  0  0  0  0  0  0  0
   64.8260   33.0770   49.2820 C   0  0  0  0  0  0  0  0  0  0  0  0
   59.2947   32.8480   52.3359 H   0  0  0  0  0  0  0  0  0  0  0  0
   58.7268   33.9619   51.0461 H   0  0  0  0  0  0  0  0  0  0  0  0
   58.1996   32.2447   51.0461 H   0  0  0  0  0  0  0  0  0  0  0  0
   58.5054   30.4421   50.4519 H   0  0  0  0  0  0  0  0  0  0  0  0
   58.6469   28.5241   48.8703 H   0  0  0  0  0  0  0  0  0  0  0  0
   58.2629   28.4083   45.7258 H   0  0  0  0  0  0  0  0  0  0  0  0
   57.6466   29.8248   46.4128 H   0  0  0  0  0  0  0  0  0  0  0  0
   58.8547   31.7063   47.5271 H   0  0  0  0  0  0  0  0  0  0  0  0
   59.2157   33.8583   46.3103 H   0  0  0  0  0  0  0  0  0  0  0  0
   58.3537   34.1415   43.9824 H   0  0  0  0  0  0  0  0  0  0  0  0
   57.1632   32.2574   42.8524 H   0  0  0  0  0  0  0  0  0  0  0  0
   54.4993   26.2760   45.6615 H   0  0  0  0  0  0  0  0  0  0  0  0
   55.5975   24.3096   46.7307 H   0  0  0  0  0  0  0  0  0  0  0  0
   62.0720   30.3448   46.9554 H   0  0  0  0  0  0  0  0  0  0  0  0
   63.4764   31.5081   51.4752 H   0  0  0  0  0  0  0  0  0  0  0  0
   62.5754   30.8739   50.0566 H   0  0  0  0  0  0  0  0  0  0  0  0
   64.3717   30.8658   50.0566 H   0  0  0  0  0  0  0  0  0  0  0  0
   65.5018   33.2389   50.1347 H   0  0  0  0  0  0  0  0  0  0  0  0
   65.2009   32.2433   48.6702 H   0  0  0  0  0  0  0  0  0  0  0  0
   64.7824   33.9901   48.6702 H   0  0  0  0  0  0  0  0  0  0  0  0
  1  2  1  0
  2  3  1  0
  3  4  2  0
  4  5  1  0
  5  6  2  0
  6  7  1  0
  7  8  1  0
  8  9  2  0
  8 10  2  0
  8 11  1  0
 11 12  2  0
 12 13  1  0
 13 14  1  0
 14 15  1  0
 15 16  2  0
 15 17  2  0
 15 18  1  0
 18 19  2  0
 19 20  1  0
 20 21  2  0
 21 22  1  0
 22 23  2  0
 13 24  2  0
 24 25  1  0
 25 26  2  0
 26 27  1  0
  6 28  1  0
 28 29  2  0
 29 30  1  0
 30 31  2  0
 30 32  2  0
 30 33  1  0
 33 34  1  0
 33 35  1  0
 29  3  1  0
 26 11  1  0
 23 18  1  0
  1 36  1  0
  1 37  1  0
  1 38  1  0
  4 39  1  0
  5 40  1  0
 12 41  1  0
 19 42  1  0
 20 43  1  0
 21 44  1  0
 22 45  1  0
 23 46  1  0
 24 47  1  0
 25 48  1  0
 28 49  1  0
 34 50  1  0
 34 51  1  0
 34 52  1  0
 35 53  1  0
 35 54  1  0
 35 55  1  0
M  CHG  3   7  -1  14  -1  27  -1
M  END
>  <UniqueID>  (84) 
77

>  <SMILES>  (84) 
COc1ccc([N-]S(=O)(=O)c2cc([N-]S(=O)(=O)c3ccccc3)ccc2[O-])cc1S(=O)(=O)N(C)C

>  <Energy>  (84) 
61.09669858335276

>  <Genealogy>  (84) 
COc1ccc([N-]S(=O)(=O)c2cc([N-]S(=O)(=O)c3ccccc3)ccc2[O-])cc1S(=O)(=O)N(C)C (protonated)
COc1ccc([N-]S(=O)(=O)c2cc([N-]S(=O)(=O)c3ccccc3)ccc2[O-])cc1S(=O)(=O)N(C)C (3D coordinates assigned)
COc1ccc([N-]S(=O)(=O)c2cc([N-]S(=O)(=O)c3ccccc3)ccc2[O-])cc1S(=O)(=O)N(C)C (optimized conformer: 61.09669858335276 kcal/mol)

>  <smiles>  (84) 
COc1ccc(NS(=O)(=O)c2cc(NS(=O)(=O)c3ccccc3)ccc2O)cc1S(=O)(=O)N(C)C

>  <score_type>  (84) 
oracle

>  <origin>  (84) 
adg

>  <m_score__min__energy>  (84) 
-14.01

>  <m_primary>  (84) 
energy

$$$$
84:0
     RDKit          3D

 37 38  0  0  0  0  0  0  0  0999 V2000
   55.8920   30.4580   44.6190 O   0  0  0  0  0  0  0  0  0  0  0  0
   56.9710   29.9260   44.2410 C   0  0  0  0  0  0  0  0  0  0  0  0
   57.2050   28.4720   44.4940 C   0  0  0  0  0  0  0  0  0  0  0  0
   58.5480   28.1470   44.1540 O   0  0  0  0  0  0  0  0  0  0  0  0
   59.6400   28.5470   44.9280 C   0  0  0  0  0  0  0  0  0  0  0  0
   60.5220   29.3090   44.4440 O   0  0  0  0  0  0  0  0  0  0  0  0
   59.7440   28.0600   46.3130 C   0  0  0  0  0  0  0  0  0  0  0  0
   59.5080   28.8480   47.3690 C   0  0  0  0  0  0  0  0  0  0  0  0
   60.1380   30.1720   47.5460 C   0  0  0  0  0  0  0  0  0  0  0  0
   59.7970   31.0660   48.5440 C   0  0  0  0  0  0  0  0  0  0  0  0
   60.6080   32.1700   48.3690 C   0  0  0  0  0  0  0  0  0  0  0  0
   61.4050   31.9050   47.2740 C   0  0  0  0  0  0  0  0  0  0  0  0
   61.1170   30.6900   46.7740 N   0  0  0  0  0  0  0  0  0  0  0  0
   57.9870   30.7170   43.6080 N   0  0  0  0  0  0  0  0  0  0  0  0
   57.8110   32.1380   43.3220 C   0  0  0  0  0  0  0  0  0  0  0  0
   58.1420   32.9610   44.5370 C   0  0  0  0  0  0  0  0  0  0  0  0
   57.4470   32.7490   45.7400 C   0  0  0  0  0  0  0  0  0  0  0  0
   57.7600   33.5000   46.8760 C   0  0  0  0  0  0  0  0  0  0  0  0
   58.7680   34.4670   46.8200 C   0  0  0  0  0  0  0  0  0  0  0  0
   59.4660   34.6800   45.6290 C   0  0  0  0  0  0  0  0  0  0  0  0
   59.1580   33.9300   44.4900 C   0  0  0  0  0  0  0  0  0  0  0  0
   57.0312   28.2512   45.5575 H   0  0  0  0  0  0  0  0  0  0  0  0
   56.5142   27.8748   43.8807 H   0  0  0  0  0  0  0  0  0  0  0  0
   60.0257   27.0109   46.4865 H   0  0  0  0  0  0  0  0  0  0  0  0
   58.8112   28.4923   48.1423 H   0  0  0  0  0  0  0  0  0  0  0  0
   59.0323   30.9259   49.3222 H   0  0  0  0  0  0  0  0  0  0  0  0
   60.6170   33.0828   48.9828 H   0  0  0  0  0  0  0  0  0  0  0  0
   62.1657   32.5885   46.8688 H   0  0  0  0  0  0  0  0  0  0  0  0
   61.5760   30.2570   45.9440 H   0  0  0  0  0  0  0  0  0  0  0  0
   58.8950   30.2650   43.3520 H   0  0  0  0  0  0  0  0  0  0  0  0
   58.4772   32.4269   42.4957 H   0  0  0  0  0  0  0  0  0  0  0  0
   56.7627   32.3191   43.0424 H   0  0  0  0  0  0  0  0  0  0  0  0
   56.6534   31.9888   45.7875 H   0  0  0  0  0  0  0  0  0  0  0  0
   57.2128   33.3302   47.8150 H   0  0  0  0  0  0  0  0  0  0  0  0
   59.0115   35.0601   47.7138 H   0  0  0  0  0  0  0  0  0  0  0  0
   60.2602   35.4399   45.5871 H   0  0  0  0  0  0  0  0  0  0  0  0
   59.7124   34.0990   43.5551 H   0  0  0  0  0  0  0  0  0  0  0  0
  1  2  2  0
  2  3  1  0
  3  4  1  0
  4  5  1  0
  5  6  2  0
  5  7  1  0
  7  8  2  3
  8  9  1  0
  9 10  2  0
 10 11  1  0
 11 12  2  0
 12 13  1  0
  2 14  1  0
 14 15  1  0
 15 16  1  0
 16 17  2  0
 17 18  1  0
 18 19  2  0
 19 20  1  0
 20 21  2  0
 13  9  1  0
 21 16  1  0
  3 22  1  0
  3 23  1  0
  7 24  1  0
  8 25  1  0
 10 26  1  0
 11 27  1  0
 12 28  1  0
 13 29  1  0
 14 30  1  0
 15 31  1  0
 15 32  1  0
 17 33  1  0
 18 34  1  0
 19 35  1  0
 20 36  1  0
 21 37  1  0
M  END
>  <UniqueID>  (85) 
78

>  <SMILES>  (85) 
O=C(COC(=O)C=Cc1ccc[nH]1)NCc1ccccc1

>  <Energy>  (85) 
54.96369123866695

>  <Genealogy>  (85) 
O=C(COC(=O)C=Cc1ccc[nH]1)NCc1ccccc1 (3D coordinates assigned)
O=C(COC(=O)C=Cc1ccc[nH]1)NCc1ccccc1 (optimized conformer: 54.96369123866695 kcal/mol)

>  <smiles>  (85) 
O=C(COC(=O)C=Cc1ccc[nH]1)NCc1ccccc1

>  <score_type>  (85) 
oracle

>  <origin>  (85) 
adg

>  <m_score__min__energy>  (85) 
-7.1399999999999997

>  <m_primary>  (85) 
energy

$$$$
85:0
     RDKit          3D

 27 28  0  0  0  0  0  0  0  0999 V2000
   54.1030   24.9890   45.6090 C   0  0  0  0  0  0  0  0  0  0  0  0
   54.7660   26.2490   45.9110 N   0  0  0  0  0  0  0  0  0  0  0  0
   56.1550   26.3300   46.2380 C   0  0  0  0  0  0  0  0  0  0  0  0
   56.5820   25.8720   47.3320 O   0  0  0  0  0  0  0  0  0  0  0  0
   57.1140   26.9200   45.2530 C   0  0  0  0  0  0  0  0  0  0  0  0
   56.9600   28.4070   45.2190 C   0  0  0  0  0  0  0  0  0  0  0  0
   57.9500   29.3280   45.4820 C   0  0  0  0  0  0  0  0  0  0  0  0
   57.3400   30.5490   45.2550 C   0  0  0  0  0  0  0  0  0  0  0  0
   57.9500   31.8940   45.3880 C   0  0  0  0  0  0  0  0  0  0  0  0
   59.0990   32.0670   46.1830 C   0  0  0  0  0  0  0  0  0  0  0  0
   59.6860   33.3300   46.3170 C   0  0  0  0  0  0  0  0  0  0  0  0
   59.1340   34.4320   45.6620 C   0  0  0  0  0  0  0  0  0  0  0  0
   57.9950   34.2750   44.8700 C   0  0  0  0  0  0  0  0  0  0  0  0
   57.4040   33.0150   44.7320 C   0  0  0  0  0  0  0  0  0  0  0  0
   56.0630   30.3420   44.8690 N   0  0  0  0  0  0  0  0  0  0  0  0
   55.8340   29.0380   44.8420 N   0  0  0  0  0  0  0  0  0  0  0  0
   53.8358   24.4811   46.5474 H   0  0  0  0  0  0  0  0  0  0  0  0
   53.1913   25.1850   45.0257 H   0  0  0  0  0  0  0  0  0  0  0  0
   54.7809   24.3486   45.0257 H   0  0  0  0  0  0  0  0  0  0  0  0
   58.1427   26.6667   45.5492 H   0  0  0  0  0  0  0  0  0  0  0  0
   56.9030   26.5116   44.2537 H   0  0  0  0  0  0  0  0  0  0  0  0
   58.9858   29.1370   45.7991 H   0  0  0  0  0  0  0  0  0  0  0  0
   59.5385   31.2028   46.7026 H   0  0  0  0  0  0  0  0  0  0  0  0
   60.5842   33.4547   46.9397 H   0  0  0  0  0  0  0  0  0  0  0  0
   59.5964   35.4243   45.7698 H   0  0  0  0  0  0  0  0  0  0  0  0
   57.5616   35.1441   44.3535 H   0  0  0  0  0  0  0  0  0  0  0  0
   56.5065   32.8983   44.1068 H   0  0  0  0  0  0  0  0  0  0  0  0
  1  2  1  0
  2  3  1  0
  3  4  2  0
  3  5  1  0
  5  6  1  0
  6  7  2  0
  7  8  1  0
  8  9  1  0
  9 10  2  0
 10 11  1  0
 11 12  2  0
 12 13  1  0
 13 14  2  0
  8 15  2  0
 15 16  1  0
 16  6  1  0
 14  9  1  0
  1 17  1  0
  1 18  1  0
  1 19  1  0
  5 20  1  0
  5 21  1  0
  7 22  1  0
 10 23  1  0
 11 24  1  0
 12 25  1  0
 13 26  1  0
 14 27  1  0
M  CHG  2   2  -1  16  -1
M  END
>  <UniqueID>  (86) 
79

>  <SMILES>  (86) 
C[N-]C(=O)Cc1cc(-c2ccccc2)n[n-]1

>  <Energy>  (86) 
52.81064394903869

>  <Genealogy>  (86) 
C[N-]C(=O)Cc1cc(-c2ccccc2)n[n-]1 (protonated)
C[N-]C(=O)Cc1cc(-c2ccccc2)n[n-]1 (3D coordinates assigned)
C[N-]C(=O)Cc1cc(-c2ccccc2)n[n-]1 (optimized conformer: 52.81064394903869 kcal/mol)

>  <smiles>  (86) 
CNC(=O)Cc1cc(-c2ccccc2)n[nH]1

>  <score_type>  (86) 
oracle

>  <origin>  (86) 
adg

>  <m_score__min__energy>  (86) 
-11.449999999999999

>  <m_primary>  (86) 
energy

$$$$
86:0
     RDKit          3D

 48 51  0  0  0  0  0  0  0  0999 V2000
   63.0330   32.4820   49.7280 C   0  0  0  0  0  0  0  0  0  0  0  0
   61.7730   33.1490   49.7390 O   0  0  0  0  0  0  0  0  0  0  0  0
   61.1300   33.6440   48.5930 C   0  0  0  0  0  0  0  0  0  0  0  0
   61.6930   33.3650   47.3420 C   0  0  0  0  0  0  0  0  0  0  0  0
   61.0900   33.8350   46.1700 C   0  0  0  0  0  0  0  0  0  0  0  0
   59.9170   34.6010   46.2360 C   0  0  0  0  0  0  0  0  0  0  0  0
   59.2540   35.1020   44.9810 C   0  0  0  0  0  0  0  0  0  0  0  0
   58.1960   34.1870   44.5660 N   0  0  0  0  0  0  0  0  0  0  0  0
   57.5640   33.2460   45.4390 C   0  0  0  0  0  0  0  0  0  0  0  0
   56.6900   33.6400   46.2520 O   0  0  0  0  0  0  0  0  0  0  0  0
   57.9210   31.8090   45.3680 C   0  0  0  0  0  0  0  0  0  0  0  0
   57.3050   30.9620   44.4280 C   0  0  0  0  0  0  0  0  0  0  0  0
   57.6770   29.6170   44.3350 C   0  0  0  0  0  0  0  0  0  0  0  0
   58.6730   29.0940   45.1660 C   0  0  0  0  0  0  0  0  0  0  0  0
   59.0430   27.7170   45.0150 N   0  0  0  0  0  0  0  0  0  0  0  0
   58.7440   26.4660   46.1770 S   0  0  0  0  0  0  0  0  0  0  0  0
   58.3410   27.0910   47.4840 O   0  0  0  0  0  0  0  0  0  0  0  0
   60.0070   25.6820   46.3930 O   0  0  0  0  0  0  0  0  0  0  0  0
   57.4940   25.3780   45.5850 C   0  0  0  0  0  0  0  0  0  0  0  0
   57.7730   24.4680   44.5360 C   0  0  0  0  0  0  0  0  0  0  0  0
   56.7700   23.6040   44.0500 C   0  0  0  0  0  0  0  0  0  0  0  0
   55.5080   23.6870   44.6290 C   0  0  0  0  0  0  0  0  0  0  0  0
   54.4130   22.9750   44.3190 N   0  0  0  0  0  0  0  0  0  0  0  0
   53.4910   23.4810   45.1800 C   0  0  0  0  0  0  0  0  0  0  0  0
   52.2980   23.0740   45.2060 O   0  0  0  0  0  0  0  0  0  0  0  0
   53.9450   24.4600   46.0020 N   0  0  0  0  0  0  0  0  0  0  0  0
   55.2310   24.5670   45.6320 C   0  0  0  0  0  0  0  0  0  0  0  0
   56.1990   25.4290   46.1410 C   0  0  0  0  0  0  0  0  0  0  0  0
   59.2890   29.9350   46.1070 C   0  0  0  0  0  0  0  0  0  0  0  0
   58.9130   31.2770   46.2100 C   0  0  0  0  0  0  0  0  0  0  0  0
   59.3490   34.8810   47.4890 C   0  0  0  0  0  0  0  0  0  0  0  0
   59.9460   34.4050   48.6600 C   0  0  0  0  0  0  0  0  0  0  0  0
   63.3641   32.3067   50.7622 H   0  0  0  0  0  0  0  0  0  0  0  0
   62.9333   31.5185   49.2066 H   0  0  0  0  0  0  0  0  0  0  0  0
   63.7737   33.1061   49.2066 H   0  0  0  0  0  0  0  0  0  0  0  0
   62.6170   32.7714   47.2798 H   0  0  0  0  0  0  0  0  0  0  0  0
   61.5380   33.6026   45.1926 H   0  0  0  0  0  0  0  0  0  0  0  0
   58.8207   36.0950   45.1713 H   0  0  0  0  0  0  0  0  0  0  0  0
   60.0059   35.1654   44.1806 H   0  0  0  0  0  0  0  0  0  0  0  0
   56.5256   31.3605   43.7619 H   0  0  0  0  0  0  0  0  0  0  0  0
   57.1815   28.9642   43.6013 H   0  0  0  0  0  0  0  0  0  0  0  0
   58.7809   24.4350   44.0966 H   0  0  0  0  0  0  0  0  0  0  0  0
   56.9785   22.8888   43.2406 H   0  0  0  0  0  0  0  0  0  0  0  0
   55.9602   26.1302   46.9542 H   0  0  0  0  0  0  0  0  0  0  0  0
   60.0725   29.5348   46.7673 H   0  0  0  0  0  0  0  0  0  0  0  0
   59.3977   31.9230   46.9568 H   0  0  0  0  0  0  0  0  0  0  0  0
   58.4278   35.4791   47.5497 H   0  0  0  0  0  0  0  0  0  0  0  0
   59.4901   34.6252   49.6366 H   0  0  0  0  0  0  0  0  0  0  0  0
  1  2  1  0
  2  3  1  0
  3  4  2  0
  4  5  1  0
  5  6  2  0
  6  7  1  0
  7  8  1  0
  8  9  1  0
  9 10  2  0
  9 11  1  0
 11 12  2  0
 12 13  1  0
 13 14  2  0
 14 15  1  0
 15 16  1  0
 16 17  2  0
 16 18  2  0
 16 19  1  0
 19 20  2  0
 20 21  1  0
 21 22  2  0
 22 23  1  0
 23 24  1  0
 24 25  2  0
 24 26  1  0
 26 27  1  0
 27 28  2  0
 14 29  1  0
 29 30  2  0
  6 31  1  0
 31 32  2  0
 32  3  1  0
 30 11  1  0
 28 19  1  0
 27 22  1  0
  1 33  1  0
  1 34  1  0
  1 35  1  0
  4 36  1  0
  5 37  1  0
  7 38  1  0
  7 39  1  0
 12 40  1  0
 13 41  1  0
 20 42  1  0
 21 43  1  0
 28 44  1  0
 29 45  1  0
 30 46  1  0
 31 47  1  0
 32 48  1  0
M  CHG  4   8  -1  15  -1  23  -1  26  -1
M  END
>  <UniqueID>  (87) 
80

>  <SMILES>  (87) 
COc1ccc(C[N-]C(=O)c2ccc([N-]S(=O)(=O)c3ccc4[n-]c(=O)[n-]c4c3)cc2)cc1

>  <Energy>  (87) 
89.33230942230374

>  <Genealogy>  (87) 
COc1ccc(C[N-]C(=O)c2ccc([N-]S(=O)(=O)c3ccc4[n-]c(=O)[n-]c4c3)cc2)cc1 (protonated)
COc1ccc(C[N-]C(=O)c2ccc([N-]S(=O)(=O)c3ccc4[n-]c(=O)[n-]c4c3)cc2)cc1 (3D coordinates assigned)
COc1ccc(C[N-]C(=O)c2ccc([N-]S(=O)(=O)c3ccc4[n-]c(=O)[n-]c4c3)cc2)cc1 (optimized conformer: 89.33230942230374 kcal/mol)

>  <smiles>  (87) 
COc1ccc(CNC(=O)c2ccc(NS(=O)(=O)c3ccc4[nH]c(=O)[nH]c4c3)cc2)cc1

>  <score_type>  (87) 
oracle

>  <origin>  (87) 
adg

>  <m_score__min__energy>  (87) 
-14.380000000000001

>  <m_primary>  (87) 
energy

$$$$
87:0
     RDKit          3D

 15 16  0  0  0  0  0  0  0  0999 V2000
   57.9040   32.3700   42.4540 C   0  0  0  0  0  0  0  0  0  0  0  0
   58.2300   32.6560   43.8010 C   0  0  0  0  0  0  0  0  0  0  0  0
   57.7410   31.8440   44.8430 C   0  0  0  0  0  0  0  0  0  0  0  0
   56.9360   30.7610   44.4940 C   0  0  0  0  0  0  0  0  0  0  0  0
   56.3650   29.8600   45.3110 N   0  0  0  0  0  0  0  0  0  0  0  0
   55.6920   29.0190   44.5310 N   0  0  0  0  0  0  0  0  0  0  0  0
   55.8260   29.3690   43.2320 C   0  0  0  0  0  0  0  0  0  0  0  0
   56.6240   30.4880   43.1910 C   0  0  0  0  0  0  0  0  0  0  0  0
   57.0870   31.2680   42.1360 C   0  0  0  0  0  0  0  0  0  0  0  0
   58.2914   33.0129   41.6499 H   0  0  0  0  0  0  0  0  0  0  0  0
   58.8702   33.5190   44.0362 H   0  0  0  0  0  0  0  0  0  0  0  0
   57.9856   32.0569   45.8941 H   0  0  0  0  0  0  0  0  0  0  0  0
   55.1420   28.2060   44.8880 H   0  0  0  0  0  0  0  0  0  0  0  0
   55.3796   28.8543   42.3684 H   0  0  0  0  0  0  0  0  0  0  0  0
   56.8250   31.0330   41.0938 H   0  0  0  0  0  0  0  0  0  0  0  0
  1  2  1  0
  2  3  2  0
  3  4  1  0
  4  5  2  0
  5  6  1  0
  6  7  1  0
  7  8  2  0
  8  9  1  0
  9  1  2  0
  8  4  1  0
  1 10  1  0
  2 11  1  0
  3 12  1  0
  6 13  1  0
  7 14  1  0
  9 15  1  0
M  END
>  <UniqueID>  (88) 
81

>  <SMILES>  (88) 
c1ccc2n[nH]cc2c1

>  <Energy>  (88) 
53.472966428398415

>  <Genealogy>  (88) 
c1ccc2n[nH]cc2c1 (3D coordinates assigned)
c1ccc2n[nH]cc2c1 (optimized conformer: 53.472966428398415 kcal/mol)

>  <smiles>  (88) 
c1ccc2n[nH]cc2c1

>  <score_type>  (88) 
oracle

>  <origin>  (88) 
adg

>  <m_score__min__energy>  (88) 
-5.3499999999999996

>  <m_primary>  (88) 
energy

$$$$
88:0
     RDKit          3D

 54 58  0  0  0  0  0  0  0  0999 V2000
   59.0740   29.1470   49.0210 C   0  0  0  0  0  0  0  0  0  0  0  0
   58.2670   29.6090   47.9430 O   0  0  0  0  0  0  0  0  0  0  0  0
   58.2400   29.0300   46.6640 C   0  0  0  0  0  0  0  0  0  0  0  0
   58.1300   27.6390   46.4720 C   0  0  0  0  0  0  0  0  0  0  0  0
   58.1020   27.0920   45.1780 C   0  0  0  0  0  0  0  0  0  0  0  0
   57.9820   25.6250   44.9980 C   0  0  0  0  0  0  0  0  0  0  0  0
   58.7940   24.7520   45.7420 C   0  0  0  0  0  0  0  0  0  0  0  0
   58.6790   23.3690   45.5780 C   0  0  0  0  0  0  0  0  0  0  0  0
   57.7520   22.8370   44.6760 C   0  0  0  0  0  0  0  0  0  0  0  0
   57.6420   21.0890   44.5040 Cl  0  0  0  0  0  0  0  0  0  0  0  0
   56.9290   23.7020   43.9320 C   0  0  0  0  0  0  0  0  0  0  0  0
   55.9570   23.1820   43.0020 C   0  0  0  0  0  0  0  0  0  0  0  0
   55.1770   22.7660   42.2540 N   0  0  0  0  0  0  0  0  0  0  0  0
   57.0470   25.0890   44.0960 C   0  0  0  0  0  0  0  0  0  0  0  0
   58.1920   27.9510   44.0670 C   0  0  0  0  0  0  0  0  0  0  0  0
   58.2100   27.4570   42.8030 F   0  0  0  0  0  0  0  0  0  0  0  0
   58.3030   29.3310   44.2530 C   0  0  0  0  0  0  0  0  0  0  0  0
   58.3290   29.8740   45.5440 C   0  0  0  0  0  0  0  0  0  0  0  0
   58.4460   31.3000   45.7170 N   0  0  0  0  0  0  0  0  0  0  0  0
   57.4540   32.1040   45.2120 C   0  0  0  0  0  0  0  0  0  0  0  0
   56.4720   31.6040   44.5960 O   0  0  0  0  0  0  0  0  0  0  0  0
   57.5100   33.4900   45.3740 C   0  0  0  0  0  0  0  0  0  0  0  0
   58.5750   34.0640   46.0560 C   0  0  0  0  0  0  0  0  0  0  0  0
   59.5900   33.2540   46.5700 C   0  0  0  0  0  0  0  0  0  0  0  0
   60.6700   33.8280   47.2600 C   0  0  0  0  0  0  0  0  0  0  0  0
   61.6930   33.0200   47.7670 C   0  0  0  0  0  0  0  0  0  0  0  0
   63.0580   33.7310   48.6230 S   0  0  0  0  0  0  0  0  0  0  0  0
   64.1570   34.1030   47.6670 O   0  0  0  0  0  0  0  0  0  0  0  0
   62.5940   34.9700   49.3330 O   0  0  0  0  0  0  0  0  0  0  0  0
   63.6750   32.6030   49.7880 N   0  0  0  0  0  0  0  0  0  0  0  0
   64.9120   32.5630   50.1810 C   0  0  0  0  0  0  0  0  0  0  0  0
   65.3780   32.2650   51.4490 C   0  0  0  0  0  0  0  0  0  0  0  0
   66.7510   32.3600   51.3160 C   0  0  0  0  0  0  0  0  0  0  0  0
   67.0370   32.6850   50.0740 O   0  0  0  0  0  0  0  0  0  0  0  0
   65.9520   32.8150   49.3710 N   0  0  0  0  0  0  0  0  0  0  0  0
   61.6380   31.6360   47.5840 C   0  0  0  0  0  0  0  0  0  0  0  0
   60.5680   31.0530   46.9020 C   0  0  0  0  0  0  0  0  0  0  0  0
   59.5190   31.8500   46.3890 C   0  0  0  0  0  0  0  0  0  0  0  0
   58.6003   29.4182   49.9760 H   0  0  0  0  0  0  0  0  0  0  0  0
   59.1764   28.0535   48.9599 H   0  0  0  0  0  0  0  0  0  0  0  0
   60.0688   29.6124   48.9599 H   0  0  0  0  0  0  0  0  0  0  0  0
   58.0653   26.9731   47.3452 H   0  0  0  0  0  0  0  0  0  0  0  0
   59.5238   25.1594   46.4571 H   0  0  0  0  0  0  0  0  0  0  0  0
   59.3219   22.6943   46.1623 H   0  0  0  0  0  0  0  0  0  0  0  0
   56.4023   25.7638   43.5137 H   0  0  0  0  0  0  0  0  0  0  0  0
   58.3705   29.9961   43.3794 H   0  0  0  0  0  0  0  0  0  0  0  0
   56.7123   34.1257   44.9623 H   0  0  0  0  0  0  0  0  0  0  0  0
   58.6190   35.1548   46.1911 H   0  0  0  0  0  0  0  0  0  0  0  0
   60.7117   34.9179   47.4024 H   0  0  0  0  0  0  0  0  0  0  0  0
   64.7958   32.0129   52.3476 H   0  0  0  0  0  0  0  0  0  0  0  0
   67.4845   32.1913   52.1182 H   0  0  0  0  0  0  0  0  0  0  0  0
   65.9170   33.0670   48.3580 H   0  0  0  0  0  0  0  0  0  0  0  0
   62.4438   31.0007   47.9802 H   0  0  0  0  0  0  0  0  0  0  0  0
   60.5410   29.9622   46.7624 H   0  0  0  0  0  0  0  0  0  0  0  0
  1  2  1  0
  2  3  1  0
  3  4  2  0
  4  5  1  0
  5  6  1  0
  6  7  2  0
  7  8  1  0
  8  9  2  0
  9 10  1  0
  9 11  1  0
 11 12  1  0
 12 13  3  0
 11 14  2  0
  5 15  2  0
 15 16  1  0
 15 17  1  0
 17 18  2  0
 18 19  1  0
 19 20  1  0
 20 21  2  0
 20 22  1  0
 22 23  2  0
 23 24  1  0
 24 25  2  0
 25 26  1  0
 26 27  1  0
 27 28  2  0
 27 29  2  0
 27 30  1  0
 30 31  2  3
 31 32  1  0
 32 33  2  0
 33 34  1  0
 34 35  1  0
 26 36  2  0
 36 37  1  0
 37 38  2  0
 18  3  1  0
 38 19  1  0
 14  6  1  0
 38 24  1  0
 35 31  1  0
  1 39  1  0
  1 40  1  0
  1 41  1  0
  4 42  1  0
  7 43  1  0
  8 44  1  0
 14 45  1  0
 17 46  1  0
 22 47  1  0
 23 48  1  0
 25 49  1  0
 32 50  1  0
 33 51  1  0
 35 52  1  0
 36 53  1  0
 37 54  1  0
M  END
>  <UniqueID>  (89) 
82

>  <SMILES>  (89) 
COc1cc(-c2ccc(Cl)c(C#N)c2)c(F)cc1-n1c(=O)ccc2cc(S(=O)(=O)N=c3cco[nH]3)ccc21

>  <Energy>  (89) 
116.67218069996376

>  <Genealogy>  (89) 
COc1cc(-c2ccc(Cl)c(C#N)c2)c(F)cc1-n1c(=O)ccc2cc(S(=O)(=O)N=c3cco[nH]3)ccc21 (3D coordinates assigned)
COc1cc(-c2ccc(Cl)c(C#N)c2)c(F)cc1-n1c(=O)ccc2cc(S(=O)(=O)N=c3cco[nH]3)ccc21 (optimized conformer: 116.67218069996376 kcal/mol)

>  <smiles>  (89) 
COc1cc(-c2ccc(Cl)c(C#N)c2)c(F)cc1-n1c(=O)ccc2cc(S(=O)(=O)N=c3cco[nH]3)ccc21

>  <score_type>  (89) 
oracle

>  <origin>  (89) 
adg

>  <m_score__min__energy>  (89) 
-11.16

>  <m_primary>  (89) 
energy

$$$$
89:0
     RDKit          3D

 27 29  0  0  0  0  0  0  0  0999 V2000
   58.1110   33.0960   43.3620 O   0  0  0  0  0  0  0  0  0  0  0  0
   58.1370   32.5900   44.5160 C   0  0  0  0  0  0  0  0  0  0  0  0
   58.6720   33.3890   45.6440 C   0  0  0  0  0  0  0  0  0  0  0  0
   58.5300   32.9280   46.9660 C   0  0  0  0  0  0  0  0  0  0  0  0
   59.0230   33.6840   48.0350 C   0  0  0  0  0  0  0  0  0  0  0  0
   59.6520   34.9080   47.7980 C   0  0  0  0  0  0  0  0  0  0  0  0
   59.7850   35.3810   46.4910 C   0  0  0  0  0  0  0  0  0  0  0  0
   59.2950   34.6300   45.4170 C   0  0  0  0  0  0  0  0  0  0  0  0
   57.6140   31.2660   44.7230 N   0  0  0  0  0  0  0  0  0  0  0  0
   56.3480   30.9310   44.4820 N   0  0  0  0  0  0  0  0  0  0  0  0
   56.2240   29.6080   44.7300 C   0  0  0  0  0  0  0  0  0  0  0  0
   55.1480   28.9670   44.6060 O   0  0  0  0  0  0  0  0  0  0  0  0
   57.4330   29.0910   45.1300 C   0  0  0  0  0  0  0  0  0  0  0  0
   57.8340   27.8130   45.5040 C   0  0  0  0  0  0  0  0  0  0  0  0
   59.1800   27.6400   45.8800 C   0  0  0  0  0  0  0  0  0  0  0  0
   59.8030   25.9140   46.4070 Br  0  0  0  0  0  0  0  0  0  0  0  0
   60.0710   28.7390   45.8770 C   0  0  0  0  0  0  0  0  0  0  0  0
   59.6280   30.0200   45.4930 C   0  0  0  0  0  0  0  0  0  0  0  0
   58.2890   30.1600   45.1130 C   0  0  0  0  0  0  0  0  0  0  0  0
   58.0288   31.9682   47.1599 H   0  0  0  0  0  0  0  0  0  0  0  0
   58.9148   33.3132   49.0650 H   0  0  0  0  0  0  0  0  0  0  0  0
   60.0422   35.4988   48.6399 H   0  0  0  0  0  0  0  0  0  0  0  0
   60.2767   36.3473   46.3051 H   0  0  0  0  0  0  0  0  0  0  0  0
   59.3973   35.0115   44.3904 H   0  0  0  0  0  0  0  0  0  0  0  0
   57.1273   26.9701   45.5060 H   0  0  0  0  0  0  0  0  0  0  0  0
   61.1190   28.5919   46.1772 H   0  0  0  0  0  0  0  0  0  0  0  0
   60.3121   30.8814   45.4920 H   0  0  0  0  0  0  0  0  0  0  0  0
  1  2  2  0
  2  3  1  0
  3  4  2  0
  4  5  1  0
  5  6  2  0
  6  7  1  0
  7  8  2  0
  2  9  1  0
  9 10  1  0
 10 11  1  0
 11 12  2  0
 11 13  1  0
 13 14  2  0
 14 15  1  0
 15 16  1  0
 15 17  2  0
 17 18  1  0
 18 19  2  0
  8  3  1  0
 19  9  1  0
 19 13  1  0
  4 20  1  0
  5 21  1  0
  6 22  1  0
  7 23  1  0
  8 24  1  0
 14 25  1  0
 17 26  1  0
 18 27  1  0
M  CHG  1  10  -1
M  END
>  <UniqueID>  (90) 
83

>  <SMILES>  (90) 
O=C(c1ccccc1)n1[n-]c(=O)c2cc(Br)ccc21

>  <Energy>  (90) 
76.4296155660499

>  <Genealogy>  (90) 
O=C(c1ccccc1)n1[n-]c(=O)c2cc(Br)ccc21 (protonated)
O=C(c1ccccc1)n1[n-]c(=O)c2cc(Br)ccc21 (3D coordinates assigned)
O=C(c1ccccc1)n1[n-]c(=O)c2cc(Br)ccc21 (optimized conformer: 76.4296155660499 kcal/mol)

>  <smiles>  (90) 
O=C(c1ccccc1)n1[nH]c(=O)c2cc(Br)ccc21

>  <score_type>  (90) 
oracle

>  <origin>  (90) 
adg

>  <m_score__min__energy>  (90) 
-9.4299999999999997

>  <m_primary>  (90) 
energy

$$$$
90:0
     RDKit          3D

 43 45  0  0  0  0  0  0  0  0999 V2000
   60.7350   32.0970   49.2340 O   0  0  0  0  0  0  0  0  0  0  0  0
   60.4990   32.1230   47.9970 C   0  0  0  0  0  0  0  0  0  0  0  0
   60.5390   33.3830   47.3140 N   0  0  0  0  0  0  0  0  0  0  0  0
   59.4660   34.3820   47.2910 C   0  0  0  0  0  0  0  0  0  0  0  0
   58.1130   33.6630   47.1660 C   0  0  0  0  0  0  0  0  0  0  0  0
   57.9760   32.8910   45.8380 C   0  0  0  0  0  0  0  0  0  0  0  0
   58.7410   33.5410   44.6680 C   0  0  0  0  0  0  0  0  0  0  0  0
   58.8830   35.0540   44.8530 C   0  0  0  0  0  0  0  0  0  0  0  0
   59.6740   35.3950   46.1320 C   0  0  0  0  0  0  0  0  0  0  0  0
   60.1640   30.8640   47.3060 C   0  0  0  0  0  0  0  0  0  0  0  0
   58.9300   30.2390   47.5080 C   0  0  0  0  0  0  0  0  0  0  0  0
   58.6340   29.0530   46.8390 C   0  0  0  0  0  0  0  0  0  0  0  0
   59.5750   28.4950   45.9710 C   0  0  0  0  0  0  0  0  0  0  0  0
   59.2620   27.2900   45.3260 O   0  0  0  0  0  0  0  0  0  0  0  0
   58.2670   26.3950   45.7440 C   0  0  0  0  0  0  0  0  0  0  0  0
   58.5790   25.1310   46.2830 C   0  0  0  0  0  0  0  0  0  0  0  0
   57.5560   24.2740   46.7000 C   0  0  0  0  0  0  0  0  0  0  0  0
   56.2210   24.6700   46.5920 C   0  0  0  0  0  0  0  0  0  0  0  0
   55.9050   25.9280   46.0710 C   0  0  0  0  0  0  0  0  0  0  0  0
   54.5780   26.3250   45.9680 O   0  0  0  0  0  0  0  0  0  0  0  0
   56.9260   26.7890   45.6520 C   0  0  0  0  0  0  0  0  0  0  0  0
   60.7590   29.1410   45.7370 N   0  0  0  0  0  0  0  0  0  0  0  0
   61.6390   28.6390   44.8000 O   0  0  0  0  0  0  0  0  0  0  0  0
   61.0620   30.3040   46.3870 C   0  0  0  0  0  0  0  0  0  0  0  0
   59.4827   34.9562   48.2291 H   0  0  0  0  0  0  0  0  0  0  0  0
   58.0128   32.9521   47.9994 H   0  0  0  0  0  0  0  0  0  0  0  0
   57.3236   34.4287   47.1909 H   0  0  0  0  0  0  0  0  0  0  0  0
   58.3648   31.8726   45.9854 H   0  0  0  0  0  0  0  0  0  0  0  0
   56.9093   32.8951   45.5696 H   0  0  0  0  0  0  0  0  0  0  0  0
   59.7442   33.0940   44.6063 H   0  0  0  0  0  0  0  0  0  0  0  0
   58.1709   33.3612   43.7446 H   0  0  0  0  0  0  0  0  0  0  0  0
   59.4114   35.4724   43.9837 H   0  0  0  0  0  0  0  0  0  0  0  0
   57.8758   35.4866   44.9444 H   0  0  0  0  0  0  0  0  0  0  0  0
   60.7447   35.4185   45.8808 H   0  0  0  0  0  0  0  0  0  0  0  0
   59.3015   36.3670   46.4875 H   0  0  0  0  0  0  0  0  0  0  0  0
   58.1936   30.6828   48.1941 H   0  0  0  0  0  0  0  0  0  0  0  0
   57.6636   28.5586   46.9939 H   0  0  0  0  0  0  0  0  0  0  0  0
   59.6294   24.8179   46.3759 H   0  0  0  0  0  0  0  0  0  0  0  0
   57.8032   23.2854   47.1142 H   0  0  0  0  0  0  0  0  0  0  0  0
   55.4182   23.9918   46.9170 H   0  0  0  0  0  0  0  0  0  0  0  0
   56.6738   27.7806   45.2482 H   0  0  0  0  0  0  0  0  0  0  0  0
   61.3550   27.9300   44.1320 H   0  0  0  0  0  0  0  0  0  0  0  0
   62.0202   30.8058   46.1871 H   0  0  0  0  0  0  0  0  0  0  0  0
  1  2  2  0
  2  3  1  0
  3  4  1  0
  4  5  1  0
  5  6  1  0
  6  7  1  0
  7  8  1  0
  8  9  1  0
  2 10  1  0
 10 11  2  0
 11 12  1  0
 12 13  2  0
 13 14  1  0
 14 15  1  0
 15 16  2  0
 16 17  1  0
 17 18  2  0
 18 19  1  0
 19 20  1  0
 19 21  2  0
 13 22  1  0
 22 23  1  0
 22 24  2  0
  9  4  1  0
 24 10  1  0
 21 15  1  0
  4 25  1  0
  5 26  1  0
  5 27  1  0
  6 28  1  0
  6 29  1  0
  7 30  1  0
  7 31  1  0
  8 32  1  0
  8 33  1  0
  9 34  1  0
  9 35  1  0
 11 36  1  0
 12 37  1  0
 16 38  1  0
 17 39  1  0
 18 40  1  0
 21 41  1  0
 23 42  1  0
 24 43  1  0
M  CHG  3   3  -1  20  -1  22   1
M  END
>  <UniqueID>  (91) 
84

>  <SMILES>  (91) 
O=C([N-]C1CCCCC1)c1ccc(Oc2cccc([O-])c2)[n+](O)c1

>  <Energy>  (91) 
58.23965293152899

>  <Genealogy>  (91) 
O=C([N-]C1CCCCC1)c1ccc(Oc2cccc([O-])c2)[n+](O)c1 (protonated)
O=C([N-]C1CCCCC1)c1ccc(Oc2cccc([O-])c2)[n+](O)c1 (3D coordinates assigned)
O=C([N-]C1CCCCC1)c1ccc(Oc2cccc([O-])c2)[n+](O)c1 (nonaromatic ring conformer: 58.23965293152899 kcal/mol)

>  <smiles>  (91) 
O=C(NC1CCCCC1)c1ccc(Oc2cccc(O)c2)[n+]([O-])c1

>  <score_type>  (91) 
oracle

>  <origin>  (91) 
adg

>  <m_score__min__energy>  (91) 
-10.449999999999999

>  <m_primary>  (91) 
energy

$$$$
91:0
     RDKit          3D

 37 40  0  0  0  0  0  0  0  0999 V2000
   57.9420   27.8800   44.3490 C   0  0  0  0  0  0  0  0  0  0  0  0
   57.5380   28.4540   45.7030 C   0  0  0  0  0  0  0  0  0  0  0  0
   58.1460   29.7820   45.9010 N   0  0  0  0  0  0  0  0  0  0  0  0
   57.6350   30.8960   45.2780 C   0  0  0  0  0  0  0  0  0  0  0  0
   56.6480   30.7860   44.4970 O   0  0  0  0  0  0  0  0  0  0  0  0
   58.1950   32.1760   45.5190 C   0  0  0  0  0  0  0  0  0  0  0  0
   57.6670   33.3350   44.9180 C   0  0  0  0  0  0  0  0  0  0  0  0
   58.1930   34.5900   45.2290 C   0  0  0  0  0  0  0  0  0  0  0  0
   59.2290   34.7070   46.1540 C   0  0  0  0  0  0  0  0  0  0  0  0
   59.7690   33.5690   46.7560 C   0  0  0  0  0  0  0  0  0  0  0  0
   59.2930   32.2870   46.4120 C   0  0  0  0  0  0  0  0  0  0  0  0
   59.7870   31.1350   46.9530 N   0  0  0  0  0  0  0  0  0  0  0  0
   60.8230   30.8340   47.7770 C   0  0  0  0  0  0  0  0  0  0  0  0
   61.9540   31.7090   48.1310 C   0  0  0  0  0  0  0  0  0  0  0  0
   62.6680   32.3860   47.1290 C   0  0  0  0  0  0  0  0  0  0  0  0
   63.7680   33.1810   47.4660 C   0  0  0  0  0  0  0  0  0  0  0  0
   64.1710   33.2880   48.8000 C   0  0  0  0  0  0  0  0  0  0  0  0
   63.4800   32.5940   49.7980 C   0  0  0  0  0  0  0  0  0  0  0  0
   62.3800   31.7990   49.4650 C   0  0  0  0  0  0  0  0  0  0  0  0
   60.8170   29.5170   48.0690 N   0  0  0  0  0  0  0  0  0  0  0  0
   59.8140   28.9430   47.4210 N   0  0  0  0  0  0  0  0  0  0  0  0
   59.2080   29.9380   46.7440 C   0  0  0  0  0  0  0  0  0  0  0  0
   58.5691   26.9891   44.5008 H   0  0  0  0  0  0  0  0  0  0  0  0
   57.0397   27.6015   43.7848 H   0  0  0  0  0  0  0  0  0  0  0  0
   58.5086   28.6354   43.7848 H   0  0  0  0  0  0  0  0  0  0  0  0
   56.4427   28.5471   45.7448 H   0  0  0  0  0  0  0  0  0  0  0  0
   57.8909   27.7785   46.4962 H   0  0  0  0  0  0  0  0  0  0  0  0
   56.8371   33.2510   44.2009 H   0  0  0  0  0  0  0  0  0  0  0  0
   57.7885   35.4898   44.7424 H   0  0  0  0  0  0  0  0  0  0  0  0
   59.6232   35.7012   46.4111 H   0  0  0  0  0  0  0  0  0  0  0  0
   60.5701   33.6730   47.5027 H   0  0  0  0  0  0  0  0  0  0  0  0
   62.3614   32.2908   46.0769 H   0  0  0  0  0  0  0  0  0  0  0  0
   64.3163   33.7223   46.6809 H   0  0  0  0  0  0  0  0  0  0  0  0
   65.0324   33.9187   49.0650 H   0  0  0  0  0  0  0  0  0  0  0  0
   63.8027   32.6739   50.8466 H   0  0  0  0  0  0  0  0  0  0  0  0
   61.8470   31.2427   50.2501 H   0  0  0  0  0  0  0  0  0  0  0  0
   61.5170   29.0000   48.6470 H   0  0  0  0  0  0  0  0  0  0  0  0
  1  2  1  0
  2  3  1  0
  3  4  1  0
  4  5  2  0
  4  6  1  0
  6  7  2  0
  7  8  1  0
  8  9  2  0
  9 10  1  0
 10 11  2  0
 11 12  1  0
 12 13  1  0
 13 14  1  0
 14 15  2  0
 15 16  1  0
 16 17  2  0
 17 18  1  0
 18 19  2  0
 13 20  2  0
 20 21  1  0
 21 22  2  0
 22  3  1  0
 11  6  1  0
 22 12  1  0
 19 14  1  0
  1 23  1  0
  1 24  1  0
  1 25  1  0
  2 26  1  0
  2 27  1  0
  7 28  1  0
  8 29  1  0
  9 30  1  0
 10 31  1  0
 15 32  1  0
 16 33  1  0
 17 34  1  0
 18 35  1  0
 19 36  1  0
 20 37  1  0
M  CHG  1  20   1
M  END
>  <UniqueID>  (92) 
85

>  <SMILES>  (92) 
CCn1c(=O)c2ccccc2n2c(-c3ccccc3)[nH+]nc12

>  <Energy>  (92) 
98.06503479634195

>  <Genealogy>  (92) 
CCn1c(=O)c2ccccc2n2c(-c3ccccc3)[nH+]nc12 (protonated)
CCn1c(=O)c2ccccc2n2c(-c3ccccc3)[nH+]nc12 (3D coordinates assigned)
CCn1c(=O)c2ccccc2n2c(-c3ccccc3)[nH+]nc12 (optimized conformer: 98.06503479634195 kcal/mol)

>  <smiles>  (92) 
CCn1c(=O)c2ccccc2n2c(-c3ccccc3)nnc12

>  <score_type>  (92) 
oracle

>  <origin>  (92) 
adg

>  <m_score__min__energy>  (92) 
-6.5499999999999998

>  <m_primary>  (92) 
energy

$$$$
92:0
     RDKit          3D

 67 70  0  0  0  0  0  0  0  0999 V2000
   59.4330   30.3210   50.0210 C   0  0  0  0  0  0  0  0  0  0  0  0
   58.5290   31.5490   50.0850 C   0  0  0  0  0  0  0  0  0  0  0  0
   58.4730   32.2660   48.7310 C   0  0  0  0  0  0  0  0  0  0  0  0
   59.2630   33.5780   48.7710 C   0  0  0  0  0  0  0  0  0  0  0  0
   60.6160   33.3990   48.1260 C   0  0  0  0  0  0  0  0  0  0  0  0
   61.6000   32.6500   48.7920 C   0  0  0  0  0  0  0  0  0  0  0  0
   62.8860   32.5010   48.2400 C   0  0  0  0  0  0  0  0  0  0  0  0
   63.9030   31.7660   48.8710 O   0  0  0  0  0  0  0  0  0  0  0  0
   64.9570   32.3190   49.6620 C   0  0  0  0  0  0  0  0  0  0  0  0
   64.6960   32.0790   51.1500 C   0  0  0  0  0  0  0  0  0  0  0  0
   63.3370   32.4840   51.4980 N   0  0  0  0  0  0  0  0  0  0  0  0
   62.3380   31.6480   52.1470 C   0  0  0  0  0  0  0  0  0  0  0  0
   61.1230   32.5790   52.3800 C   0  0  0  0  0  0  0  0  0  0  0  0
   61.5280   33.8650   51.9190 O   0  0  0  0  0  0  0  0  0  0  0  0
   62.8050   33.7890   51.4160 C   0  0  0  0  0  0  0  0  0  0  0  0
   63.4340   34.7790   50.9550 O   0  0  0  0  0  0  0  0  0  0  0  0
   63.1720   33.1040   47.0130 C   0  0  0  0  0  0  0  0  0  0  0  0
   62.2070   33.8620   46.3480 C   0  0  0  0  0  0  0  0  0  0  0  0
   60.9210   34.0230   46.8980 C   0  0  0  0  0  0  0  0  0  0  0  0
   59.9300   34.8000   46.2700 O   0  0  0  0  0  0  0  0  0  0  0  0
   59.2520   34.4700   45.0590 C   0  0  0  0  0  0  0  0  0  0  0  0
   57.8530   33.9160   45.3570 C   0  0  0  0  0  0  0  0  0  0  0  0
   57.7570   32.4260   45.0340 C   0  0  0  0  0  0  0  0  0  0  0  0
   59.0170   31.7960   45.2600 O   0  0  0  0  0  0  0  0  0  0  0  0
   59.1770   30.5150   45.8090 C   0  0  0  0  0  0  0  0  0  0  0  0
   60.3890   30.2140   46.4400 C   0  0  0  0  0  0  0  0  0  0  0  0
   60.5960   28.9570   47.0100 C   0  0  0  0  0  0  0  0  0  0  0  0
   59.5950   27.9850   46.9510 C   0  0  0  0  0  0  0  0  0  0  0  0
   58.3730   28.2600   46.3120 C   0  0  0  0  0  0  0  0  0  0  0  0
   57.2970   27.2430   46.2550 C   0  0  0  0  0  0  0  0  0  0  0  0
   57.4360   25.6570   46.8200 S   0  0  0  0  0  0  0  0  0  0  0  0
   55.8680   25.2580   46.3730 C   0  0  0  0  0  0  0  0  0  0  0  0
   55.3470   24.1260   46.5420 O   0  0  0  0  0  0  0  0  0  0  0  0
   55.2140   26.2930   45.8070 N   0  0  0  0  0  0  0  0  0  0  0  0
   56.0040   27.3980   45.7440 C   0  0  0  0  0  0  0  0  0  0  0  0
   55.5210   28.5960   45.2320 O   0  0  0  0  0  0  0  0  0  0  0  0
   58.1690   29.5330   45.7500 C   0  0  0  0  0  0  0  0  0  0  0  0
   59.6760   29.9910   51.0418 H   0  0  0  0  0  0  0  0  0  0  0  0
   58.9140   29.5110   49.4875 H   0  0  0  0  0  0  0  0  0  0  0  0
   60.3606   30.5759   49.4875 H   0  0  0  0  0  0  0  0  0  0  0  0
   57.5136   31.2330   50.3662 H   0  0  0  0  0  0  0  0  0  0  0  0
   58.9387   32.2452   50.8317 H   0  0  0  0  0  0  0  0  0  0  0  0
   58.9028   31.6108   47.9590 H   0  0  0  0  0  0  0  0  0  0  0  0
   57.4226   32.4965   48.4999 H   0  0  0  0  0  0  0  0  0  0  0  0
   58.7033   34.3545   48.2290 H   0  0  0  0  0  0  0  0  0  0  0  0
   59.4052   33.8764   49.8202 H   0  0  0  0  0  0  0  0  0  0  0  0
   61.3630   32.1748   49.7553 H   0  0  0  0  0  0  0  0  0  0  0  0
   65.9081   31.8434   49.3804 H   0  0  0  0  0  0  0  0  0  0  0  0
   65.0053   33.4029   49.4807 H   0  0  0  0  0  0  0  0  0  0  0  0
   64.8242   31.0095   51.3730 H   0  0  0  0  0  0  0  0  0  0  0  0
   65.4088   32.6749   51.7389 H   0  0  0  0  0  0  0  0  0  0  0  0
   62.0595   30.8046   51.4980 H   0  0  0  0  0  0  0  0  0  0  0  0
   62.7109   31.2140   53.0865 H   0  0  0  0  0  0  0  0  0  0  0  0
   60.2526   32.2236   51.8090 H   0  0  0  0  0  0  0  0  0  0  0  0
   60.8269   32.6023   53.4391 H   0  0  0  0  0  0  0  0  0  0  0  0
   64.1693   32.9801   46.5656 H   0  0  0  0  0  0  0  0  0  0  0  0
   62.4531   34.3372   45.3869 H   0  0  0  0  0  0  0  0  0  0  0  0
   59.1584   35.3740   44.4393 H   0  0  0  0  0  0  0  0  0  0  0  0
   59.8315   33.7017   44.5263 H   0  0  0  0  0  0  0  0  0  0  0  0
   57.6300   34.0650   46.4238 H   0  0  0  0  0  0  0  0  0  0  0  0
   57.1293   34.4520   44.7254 H   0  0  0  0  0  0  0  0  0  0  0  0
   56.9965   31.9616   45.6790 H   0  0  0  0  0  0  0  0  0  0  0  0
   57.4757   32.3027   43.9777 H   0  0  0  0  0  0  0  0  0  0  0  0
   61.1838   30.9730   46.4871 H   0  0  0  0  0  0  0  0  0  0  0  0
   61.5508   28.7311   47.5074 H   0  0  0  0  0  0  0  0  0  0  0  0
   59.7635   26.9983   47.4072 H   0  0  0  0  0  0  0  0  0  0  0  0
   57.2121   29.7642   45.2592 H   0  0  0  0  0  0  0  0  0  0  0  0
  1  2  1  0
  2  3  1  0
  3  4  1  0
  4  5  1  0
  5  6  2  0
  6  7  1  0
  7  8  1  0
  8  9  1  0
  9 10  1  0
 10 11  1  0
 11 12  1  0
 12 13  1  0
 13 14  1  0
 14 15  1  0
 15 16  2  0
  7 17  2  0
 17 18  1  0
 18 19  2  0
 19 20  1  0
 20 21  1  0
 21 22  1  0
 22 23  1  0
 23 24  1  0
 24 25  1  0
 25 26  2  0
 26 27  1  0
 27 28  2  0
 28 29  1  0
 29 30  1  0
 30 31  1  0
 31 32  1  0
 32 33  2  0
 32 34  1  0
 34 35  1  0
 35 36  1  0
 29 37  2  0
 19  5  1  0
 37 25  1  0
 15 11  1  0
 35 30  2  0
  1 38  1  0
  1 39  1  0
  1 40  1  0
  2 41  1  0
  2 42  1  0
  3 43  1  0
  3 44  1  0
  4 45  1  0
  4 46  1  0
  6 47  1  0
  9 48  1  0
  9 49  1  0
 10 50  1  0
 10 51  1  0
 12 52  1  0
 12 53  1  0
 13 54  1  0
 13 55  1  0
 17 56  1  0
 18 57  1  0
 21 58  1  0
 21 59  1  0
 22 60  1  0
 22 61  1  0
 23 62  1  0
 23 63  1  0
 26 64  1  0
 27 65  1  0
 28 66  1  0
 37 67  1  0
M  CHG  2  34  -1  36  -1
M  END
>  <UniqueID>  (93) 
86

>  <SMILES>  (93) 
CCCCc1cc(OCCN2CCOC2=O)ccc1OCCCOc1cccc(-c2sc(=O)[n-]c2[O-])c1

>  <Energy>  (93) 
104.32558220295576

>  <Genealogy>  (93) 
CCCCc1cc(OCCN2CCOC2=O)ccc1OCCCOc1cccc(-c2sc(=O)[n-]c2[O-])c1 (protonated)
CCCCc1cc(OCCN2CCOC2=O)ccc1OCCCOc1cccc(-c2sc(=O)[n-]c2[O-])c1 (3D coordinates assigned)
CCCCc1cc(OCCN2CCOC2=O)ccc1OCCCOc1cccc(-c2sc(=O)[n-]c2[O-])c1 (nonaromatic ring conformer: 104.32558220295576 kcal/mol)

>  <smiles>  (93) 
CCCCc1cc(OCCN2CCOC2=O)ccc1OCCCOc1cccc(-c2sc(=O)[nH]c2O)c1

>  <score_type>  (93) 
oracle

>  <origin>  (93) 
adg

>  <m_score__min__energy>  (93) 
-16.629999999999999

>  <m_primary>  (93) 
energy

$$$$
93:0
     RDKit          3D

 40 42  0  0  0  0  0  0  0  0999 V2000
   57.3894   20.8702   43.2782 H   0  0  0  0  0  0  0  0  0  0  0  0
   56.9810   21.7670   43.7670 C   0  0  0  0  0  0  0  0  0  0  0  0
   55.6550   21.8400   44.0530 N   0  0  0  0  0  0  0  0  0  0  0  0
   55.1030   22.9320   44.6550 C   0  0  0  0  0  0  0  0  0  0  0  0
   53.7290   22.9700   44.9170 O   0  0  0  0  0  0  0  0  0  0  0  0
   53.1720   22.6170   46.1780 C   0  0  0  0  0  0  0  0  0  0  0  0
   52.3741   21.8741   46.0311 H   0  0  0  0  0  0  0  0  0  0  0  0
   52.7545   23.5144   46.6579 H   0  0  0  0  0  0  0  0  0  0  0  0
   54.2560   22.0270   47.0650 C   0  0  0  0  0  0  0  0  0  0  0  0
   53.9859   22.1740   48.1211 H   0  0  0  0  0  0  0  0  0  0  0  0
   54.3540   20.9511   46.8579 H   0  0  0  0  0  0  0  0  0  0  0  0
   55.2127   22.5289   46.8579 H   0  0  0  0  0  0  0  0  0  0  0  0
   55.9180   24.0290   44.9950 C   0  0  0  0  0  0  0  0  0  0  0  0
   55.3580   25.2230   45.6760 C   0  0  0  0  0  0  0  0  0  0  0  0
   54.1160   25.4290   45.6350 O   0  0  0  0  0  0  0  0  0  0  0  0
   56.1760   26.1200   46.4440 N   0  0  0  0  0  0  0  0  0  0  0  0
   56.7020   27.2260   46.0100 C   0  0  0  0  0  0  0  0  0  0  0  0
   56.0470   28.1320   45.2470 N   0  0  0  0  0  0  0  0  0  0  0  0
   56.8330   29.2020   44.9590 C   0  0  0  0  0  0  0  0  0  0  0  0
   56.4892   30.0409   44.3361 H   0  0  0  0  0  0  0  0  0  0  0  0
   58.1080   29.1520   45.5150 C   0  0  0  0  0  0  0  0  0  0  0  0
   59.1990   30.1530   45.2960 C   0  0  0  0  0  0  0  0  0  0  0  0
   60.0135   29.9662   46.0113 H   0  0  0  0  0  0  0  0  0  0  0  0
   59.5759   30.0564   44.2671 H   0  0  0  0  0  0  0  0  0  0  0  0
   58.6690   31.5450   45.4980 C   0  0  0  0  0  0  0  0  0  0  0  0
   57.8740   32.1500   44.5110 C   0  0  0  0  0  0  0  0  0  0  0  0
   57.6131   31.5927   43.5992 H   0  0  0  0  0  0  0  0  0  0  0  0
   57.4130   33.4590   44.6840 C   0  0  0  0  0  0  0  0  0  0  0  0
   56.7836   33.9257   43.9119 H   0  0  0  0  0  0  0  0  0  0  0  0
   57.7500   34.1750   45.8350 C   0  0  0  0  0  0  0  0  0  0  0  0
   57.3836   35.2034   45.9698 H   0  0  0  0  0  0  0  0  0  0  0  0
   58.5530   33.5850   46.8160 C   0  0  0  0  0  0  0  0  0  0  0  0
   58.8860   34.2830   47.9290 F   0  0  0  0  0  0  0  0  0  0  0  0
   59.0160   32.2760   46.6480 C   0  0  0  0  0  0  0  0  0  0  0  0
   59.6536   31.8169   47.4179 H   0  0  0  0  0  0  0  0  0  0  0  0
   58.2690   27.7110   46.3730 S   0  0  0  0  0  0  0  0  0  0  0  0
   57.2920   23.9580   44.7130 C   0  0  0  0  0  0  0  0  0  0  0  0
   57.9504   24.7969   44.9826 H   0  0  0  0  0  0  0  0  0  0  0  0
   57.8250   22.8290   44.0930 C   0  0  0  0  0  0  0  0  0  0  0  0
   58.8994   22.7760   43.8633 H   0  0  0  0  0  0  0  0  0  0  0  0
  1  2  1  0
  2  3  2  0
  3  4  1  0
  4  5  1  0
  5  6  1  0
  6  7  1  0
  6  8  1  0
  6  9  1  0
  9 10  1  0
  9 11  1  0
  9 12  1  0
  4 13  2  0
 13 14  1  0
 14 15  2  0
 14 16  1  0
 16 17  2  0
 17 18  1  0
 18 19  1  0
 19 20  1  0
 19 21  2  0
 21 22  1  0
 22 23  1  0
 22 24  1  0
 22 25  1  0
 25 26  2  0
 26 27  1  0
 26 28  1  0
 28 29  1  0
 28 30  2  0
 30 31  1  0
 30 32  1  0
 32 33  1  0
 32 34  2  0
 34 35  1  0
 21 36  1  0
 13 37  1  0
 37 38  1  0
 37 39  2  0
 39 40  1  0
 39  2  1  0
 36 17  1  0
 34 25  1  0
M  CHG  1  18  -1
M  END
>  <UniqueID>  (94) 
87

>  <SMILES>  (94) 
CCOc1ncccc1C(=O)/N=c1\[n-]cc(Cc2cccc(F)c2)s1

>  <Energy>  (94) 
74.40044713994638

>  <Genealogy>  (94) 
CCOc1ncccc1C(=O)N=c1[n-]cc(Cc2cccc(F)c2)s1 (protonated)
CCOc1ncccc1C(=O)/N=c1\[n-]cc(Cc2cccc(F)c2)s1 (cis-trans isomerization)
CCOc1ncccc1C(=O)/N=c1\[n-]cc(Cc2cccc(F)c2)s1 (3D coordinates assigned)
CCOc1ncccc1C(=O)/N=c1\[n-]cc(Cc2cccc(F)c2)s1 (optimized conformer: 74.40044713994638 kcal/mol)

>  <smiles>  (94) 
CCOc1ncccc1C(=O)N=c1[nH]cc(Cc2cccc(F)c2)s1

>  <score_type>  (94) 
oracle

>  <origin>  (94) 
adg

>  <m_score__min__energy>  (94) 
-10.369999999999999

>  <m_primary>  (94) 
energy

$$$$
94:0
     RDKit          3D

 73 76  0  0  0  0  0  0  0  0999 V2000
   55.8170   31.3403   43.0169 H   0  0  0  0  0  0  0  0  0  0  0  0
   56.6080   31.0290   43.7150 C   0  0  0  0  0  0  0  0  0  0  0  0
   56.3730   29.7750   44.4640 C   0  0  0  0  0  0  0  0  0  0  0  0
   55.1880   29.3580   44.5770 O   0  0  0  0  0  0  0  0  0  0  0  0
   57.4520   29.0080   45.0120 N   0  0  0  0  0  0  0  0  0  0  0  0
   58.1550   29.3660   46.2400 C   0  0  0  0  0  0  0  0  0  0  0  0
   57.8762   30.3889   46.5330 H   0  0  0  0  0  0  0  0  0  0  0  0
   57.8741   28.6577   47.0334 H   0  0  0  0  0  0  0  0  0  0  0  0
   59.6760   29.2970   46.0220 C   0  0  0  0  0  0  0  0  0  0  0  0
   60.0958   28.5443   46.7056 H   0  0  0  0  0  0  0  0  0  0  0  0
   59.8492   29.0312   44.9687 H   0  0  0  0  0  0  0  0  0  0  0  0
   60.3750   30.6440   46.2830 C   0  0  0  0  0  0  0  0  0  0  0  0
   60.8629   30.9759   45.3547 H   0  0  0  0  0  0  0  0  0  0  0  0
   59.6108   31.3634   46.6123 H   0  0  0  0  0  0  0  0  0  0  0  0
   61.4390   30.5410   47.3940 C   0  0  0  0  0  0  0  0  0  0  0  0
   61.1838   29.6856   48.0368 H   0  0  0  0  0  0  0  0  0  0  0  0
   62.4096   30.4233   46.8899 H   0  0  0  0  0  0  0  0  0  0  0  0
   61.5490   31.7460   48.2480 N   0  0  0  0  0  0  0  0  0  0  0  0
   61.9130   31.5320   49.6600 C   0  0  0  0  0  0  0  0  0  0  0  0
   61.6712   30.4935   49.9301 H   0  0  0  0  0  0  0  0  0  0  0  0
   61.3427   32.2573   50.2588 H   0  0  0  0  0  0  0  0  0  0  0  0
   63.3770   31.7720   49.9380 C   0  0  0  0  0  0  0  0  0  0  0  0
   63.9170   31.3370   51.1600 C   0  0  0  0  0  0  0  0  0  0  0  0
   63.2885   30.7714   51.8636 H   0  0  0  0  0  0  0  0  0  0  0  0
   65.2460   31.6170   51.4890 C   0  0  0  0  0  0  0  0  0  0  0  0
   65.6597   31.2733   52.4485 H   0  0  0  0  0  0  0  0  0  0  0  0
   66.0490   32.3340   50.5980 C   0  0  0  0  0  0  0  0  0  0  0  0
   67.7150   32.6940   51.0100 Cl  0  0  0  0  0  0  0  0  0  0  0  0
   65.5210   32.7780   49.3810 C   0  0  0  0  0  0  0  0  0  0  0  0
   66.1586   33.3370   48.6803 H   0  0  0  0  0  0  0  0  0  0  0  0
   64.1830   32.5150   49.0480 C   0  0  0  0  0  0  0  0  0  0  0  0
   63.6580   32.9850   47.7160 C   0  0  0  0  0  0  0  0  0  0  0  0
   64.0677   32.3354   46.9285 H   0  0  0  0  0  0  0  0  0  0  0  0
   63.9720   34.0315   47.5887 H   0  0  0  0  0  0  0  0  0  0  0  0
   62.1300   32.9510   47.6310 C   0  0  0  0  0  0  0  0  0  0  0  0
   61.8366   32.9791   46.5712 H   0  0  0  0  0  0  0  0  0  0  0  0
   61.7488   33.8220   48.1841 H   0  0  0  0  0  0  0  0  0  0  0  0
   57.6840   31.8270   43.7970 C   0  0  0  0  0  0  0  0  0  0  0  0
   58.3074   31.9172   42.8952 H   0  0  0  0  0  0  0  0  0  0  0  0
   58.1090   32.5940   44.9820 C   0  0  0  0  0  0  0  0  0  0  0  0
   59.1860   33.4810   44.8610 C   0  0  0  0  0  0  0  0  0  0  0  0
   59.7280   33.5554   43.9067 H   0  0  0  0  0  0  0  0  0  0  0  0
   59.5760   34.2710   45.9430 C   0  0  0  0  0  0  0  0  0  0  0  0
   60.4323   34.9540   45.8416 H   0  0  0  0  0  0  0  0  0  0  0  0
   58.8780   34.1980   47.1650 C   0  0  0  0  0  0  0  0  0  0  0  0
   59.2250   34.9900   48.2720 O   0  0  0  0  0  0  0  0  0  0  0  0
   60.0710   34.5420   49.3290 C   0  0  0  0  0  0  0  0  0  0  0  0
   60.9069   33.9662   48.9051 H   0  0  0  0  0  0  0  0  0  0  0  0
   60.4536   35.4168   49.8753 H   0  0  0  0  0  0  0  0  0  0  0  0
   59.2890   33.6560   50.2970 C   0  0  0  0  0  0  0  0  0  0  0  0
   59.8788   33.5421   51.2185 H   0  0  0  0  0  0  0  0  0  0  0  0
   58.3227   34.1493   50.4782 H   0  0  0  0  0  0  0  0  0  0  0  0
   58.9820   32.2460   49.7340 C   0  0  0  0  0  0  0  0  0  0  0  0
   58.5017   32.3737   48.7527 H   0  0  0  0  0  0  0  0  0  0  0  0
   59.9504   31.7254   49.6998 H   0  0  0  0  0  0  0  0  0  0  0  0
   58.1000   31.3890   50.5610 N   0  0  0  0  0  0  0  0  0  0  0  0
   57.3410   32.0850   51.6150 C   0  0  0  0  0  0  0  0  0  0  0  0
   58.0306   32.4065   52.4094 H   0  0  0  0  0  0  0  0  0  0  0  0
   56.8393   32.9625   51.1810 H   0  0  0  0  0  0  0  0  0  0  0  0
   56.2770   31.1330   52.2130 C   0  0  0  0  0  0  0  0  0  0  0  0
   56.1834   31.3492   53.2875 H   0  0  0  0  0  0  0  0  0  0  0  0
   55.3415   31.3136   51.6632 H   0  0  0  0  0  0  0  0  0  0  0  0
   56.5870   29.7540   52.0590 O   0  0  0  0  0  0  0  0  0  0  0  0
   57.9730   29.5280   52.2130 C   0  0  0  0  0  0  0  0  0  0  0  0
   58.3189   29.9984   53.1452 H   0  0  0  0  0  0  0  0  0  0  0  0
   58.1635   28.4454   52.2530 H   0  0  0  0  0  0  0  0  0  0  0  0
   58.7320   30.1350   51.0220 C   0  0  0  0  0  0  0  0  0  0  0  0
   59.7669   30.3476   51.3282 H   0  0  0  0  0  0  0  0  0  0  0  0
   58.7102   29.4119   50.1934 H   0  0  0  0  0  0  0  0  0  0  0  0
   57.7980   33.3130   47.2820 C   0  0  0  0  0  0  0  0  0  0  0  0
   57.2554   33.2368   48.2358 H   0  0  0  0  0  0  0  0  0  0  0  0
   57.4050   32.5260   46.1950 C   0  0  0  0  0  0  0  0  0  0  0  0
   56.5414   31.8514   46.2905 H   0  0  0  0  0  0  0  0  0  0  0  0
  1  2  1  0
  2  3  1  0
  3  4  2  0
  3  5  1  0
  5  6  1  0
  6  7  1  0
  6  8  1  0
  6  9  1  0
  9 10  1  0
  9 11  1  0
  9 12  1  0
 12 13  1  0
 12 14  1  0
 12 15  1  0
 15 16  1  0
 15 17  1  0
 15 18  1  0
 18 19  1  0
 19 20  1  0
 19 21  1  0
 19 22  1  0
 22 23  2  0
 23 24  1  0
 23 25  1  0
 25 26  1  0
 25 27  2  0
 27 28  1  0
 27 29  1  0
 29 30  1  0
 29 31  2  0
 31 32  1  0
 32 33  1  0
 32 34  1  0
 32 35  1  0
 35 36  1  0
 35 37  1  0
  2 38  2  0
 38 39  1  0
 38 40  1  0
 40 41  2  0
 41 42  1  0
 41 43  1  0
 43 44  1  0
 43 45  2  0
 45 46  1  0
 46 47  1  0
 47 48  1  0
 47 49  1  0
 47 50  1  0
 50 51  1  0
 50 52  1  0
 50 53  1  0
 53 54  1  0
 53 55  1  0
 53 56  1  0
 56 57  1  0
 57 58  1  0
 57 59  1  0
 57 60  1  0
 60 61  1  0
 60 62  1  0
 60 63  1  0
 63 64  1  0
 64 65  1  0
 64 66  1  0
 64 67  1  0
 67 68  1  0
 67 69  1  0
 45 70  1  0
 70 71  1  0
 70 72  2  0
 72 73  1  0
 35 18  1  0
 72 40  1  0
 31 22  1  0
 67 56  1  0
M  CHG  1   5  -1
M  END
>  <UniqueID>  (95) 
88

>  <SMILES>  (95) 
O=C(/C=C\c1ccc(OCCCN2CCOCC2)cc1)[N-]CCCCN1CCc2cc(Cl)ccc2C1

>  <Energy>  (95) 
100.50271460206592

>  <Genealogy>  (95) 
O=C(C=Cc1ccc(OCCCN2CCOCC2)cc1)[N-]CCCCN1CCc2cc(Cl)ccc2C1 (protonated)
O=C(/C=C\c1ccc(OCCCN2CCOCC2)cc1)[N-]CCCCN1CCc2cc(Cl)ccc2C1 (cis-trans isomerization)
O=C(/C=C\c1ccc(OCCCN2CCOCC2)cc1)[N-]CCCCN1CCc2cc(Cl)ccc2C1 (3D coordinates assigned)
O=C(/C=C\c1ccc(OCCCN2CCOCC2)cc1)[N-]CCCCN1CCc2cc(Cl)ccc2C1 (nonaromatic ring conformer: 100.50271460206592 kcal/mol)

>  <smiles>  (95) 
O=C(C=Cc1ccc(OCCCN2CCOCC2)cc1)NCCCCN1CCc2cc(Cl)ccc2C1

>  <score_type>  (95) 
oracle

>  <origin>  (95) 
adg

>  <m_score__min__energy>  (95) 
-11.380000000000001

>  <m_primary>  (95) 
energy

$$$$
95:0
     RDKit          3D

 44 45  0  0  0  0  0  0  0  0999 V2000
   59.2690   33.0580   50.1810 C   0  0  0  0  0  0  0  0  0  0  0  0
   58.2270   32.7000   51.2400 C   0  0  0  0  0  0  0  0  0  0  0  0
   58.8820   32.2160   52.5540 C   0  0  1  0  0  0  0  0  0  0  0  0
   58.5690   33.1610   53.7250 C   0  0  0  0  0  0  0  0  0  0  0  0
   58.5270   30.8020   52.8800 N   0  0  0  0  0  0  0  0  0  0  0  0
   57.2410   30.4580   53.2210 C   0  0  0  0  0  0  0  0  0  0  0  0
   56.3380   31.3350   53.2480 O   0  0  0  0  0  0  0  0  0  0  0  0
   56.9130   29.1330   53.5480 C   0  0  0  0  0  0  0  0  0  0  0  0
   55.2660   28.7130   54.0950 S   0  0  0  0  0  0  0  0  0  0  0  0
   54.9050   27.2940   53.7590 O   0  0  0  0  0  0  0  0  0  0  0  0
   55.2000   28.8800   55.5870 O   0  0  0  0  0  0  0  0  0  0  0  0
   54.0920   29.7610   53.3000 C   0  0  0  0  0  0  0  0  0  0  0  0
   54.2300   30.0500   51.9370 C   0  0  0  0  0  0  0  0  0  0  0  0
   53.3100   30.8850   51.2970 C   0  0  0  0  0  0  0  0  0  0  0  0
   52.2330   31.4400   52.0120 C   0  0  0  0  0  0  0  0  0  0  0  0
   51.2610   32.3240   51.3320 C   0  0  0  0  0  0  0  0  0  0  0  0
   51.4130   32.6280   50.1190 O   0  0  0  0  0  0  0  0  0  0  0  0
   50.1660   32.8310   52.0230 O   0  0  0  0  0  0  0  0  0  0  0  0
   52.0970   31.1400   53.3800 C   0  0  0  0  0  0  0  0  0  0  0  0
   53.0200   30.3050   54.0180 C   0  0  0  0  0  0  0  0  0  0  0  0
   57.9230   28.1560   53.4770 C   0  0  0  0  0  0  0  0  0  0  0  0
   57.6270   26.7860   53.8110 N   0  0  0  0  0  0  0  0  0  0  0  0
   59.1930   28.5140   53.0960 N   0  0  0  0  0  0  0  0  0  0  0  0
   60.2410   27.4810   52.9860 C   0  0  0  0  0  0  0  0  0  0  0  0
   59.4960   29.8270   52.8330 C   0  0  0  0  0  0  0  0  0  0  0  0
   60.6860   30.1400   52.5410 O   0  0  0  0  0  0  0  0  0  0  0  0
   60.1987   33.3774   50.6746 H   0  0  0  0  0  0  0  0  0  0  0  0
   59.4710   32.1777   49.5531 H   0  0  0  0  0  0  0  0  0  0  0  0
   58.8873   33.8765   49.5531 H   0  0  0  0  0  0  0  0  0  0  0  0
   57.6171   33.5901   51.4537 H   0  0  0  0  0  0  0  0  0  0  0  0
   57.6085   31.8802   50.8457 H   0  0  0  0  0  0  0  0  0  0  0  0
   59.9695   32.2394   52.3904 H   0  0  0  0  0  0  0  0  0  0  0  0
   58.7428   32.6364   54.6761 H   0  0  0  0  0  0  0  0  0  0  0  0
   59.2227   34.0439   53.6685 H   0  0  0  0  0  0  0  0  0  0  0  0
   57.5175   33.4791   53.6685 H   0  0  0  0  0  0  0  0  0  0  0  0
   55.0661   29.6180   51.3675 H   0  0  0  0  0  0  0  0  0  0  0  0
   53.4288   31.1098   50.2268 H   0  0  0  0  0  0  0  0  0  0  0  0
   51.2589   31.5652   53.9517 H   0  0  0  0  0  0  0  0  0  0  0  0
   52.9034   30.0749   55.0873 H   0  0  0  0  0  0  0  0  0  0  0  0
   58.2810   26.0070   53.5860 H   0  0  0  0  0  0  0  0  0  0  0  0
   56.7440   26.5170   54.2970 H   0  0  0  0  0  0  0  0  0  0  0  0
   60.5565   27.1701   53.9929 H   0  0  0  0  0  0  0  0  0  0  0  0
   59.8434   26.6118   52.4416 H   0  0  0  0  0  0  0  0  0  0  0  0
   61.1044   27.8911   52.4416 H   0  0  0  0  0  0  0  0  0  0  0  0
  1  2  1  0
  2  3  1  0
  3  4  1  0
  3  5  1  0
  5  6  1  0
  6  7  2  0
  6  8  1  0
  8  9  1  0
  9 10  2  0
  9 11  2  0
  9 12  1  0
 12 13  2  0
 13 14  1  0
 14 15  2  0
 15 16  1  0
 16 17  2  0
 16 18  1  0
 15 19  1  0
 19 20  2  0
  8 21  2  0
 21 22  1  0
 21 23  1  0
 23 24  1  0
 23 25  1  0
 25 26  2  0
 25  5  1  0
 20 12  1  0
  1 27  1  0
  1 28  1  0
  1 29  1  0
  2 30  1  0
  2 31  1  0
  3 32  1  6
  4 33  1  0
  4 34  1  0
  4 35  1  0
 13 36  1  0
 14 37  1  0
 19 38  1  0
 20 39  1  0
 22 40  1  0
 22 41  1  0
 24 42  1  0
 24 43  1  0
 24 44  1  0
M  CHG  1  18  -1
M  END
>  <UniqueID>  (96) 
89

>  <SMILES>  (96) 
CC[C@@H](C)n1c(=O)c(S(=O)(=O)c2ccc(C(=O)[O-])cc2)c(N)n(C)c1=O

>  <Energy>  (96) 
58.52530399471806

>  <Genealogy>  (96) 
CCC(C)n1c(=O)c(S(=O)(=O)c2ccc(C(=O)[O-])cc2)c(N)n(C)c1=O (protonated)
CC[C@@H](C)n1c(=O)c(S(=O)(=O)c2ccc(C(=O)[O-])cc2)c(N)n(C)c1=O (chirality)
CC[C@@H](C)n1c(=O)c(S(=O)(=O)c2ccc(C(=O)[O-])cc2)c(N)n(C)c1=O (3D coordinates assigned)
CC[C@@H](C)n1c(=O)c(S(=O)(=O)c2ccc(C(=O)[O-])cc2)c(N)n(C)c1=O (optimized conformer: 58.52530399471806 kcal/mol)

>  <smiles>  (96) 
CCC(C)n1c(=O)c(S(=O)(=O)c2ccc(C(=O)O)cc2)c(N)n(C)c1=O

>  <score_type>  (96) 
oracle

>  <origin>  (96) 
adg

>  <m_score__min__energy>  (96) 
-9.1799999999999997

>  <m_primary>  (96) 
energy

$$$$
