0:0
     RDKit          3D

 48 50  0  0  0  0  0  0  0  0999 V2000
   56.9320   34.3840   45.2350 C   0  0  0  0  0  0  0  0  0  0  0  0
   58.4030   34.2460   44.8620 C   0  0  0  0  0  0  0  0  0  0  0  0
   59.0050   33.1290   45.5900 N   0  0  0  0  0  0  0  0  0  0  0  0
   60.0500   33.2520   46.3930 N   0  0  0  0  0  0  0  0  0  0  0  0
   60.4260   32.0260   46.8050 C   0  0  0  0  0  0  0  0  0  0  0  0
   61.5070   31.7810   47.8310 C   0  0  0  0  0  0  0  0  0  0  0  0
   62.8670   31.6140   47.1620 C   0  0  0  0  0  0  0  0  0  0  0  0
   63.4890   33.0000   47.1370 C   0  0  0  0  0  0  0  0  0  0  0  0
   62.8650   33.7750   48.2940 C   0  0  0  0  0  0  0  0  0  0  0  0
   61.6770   32.9560   48.7970 C   0  0  0  0  0  0  0  0  0  0  0  0
   59.5850   31.0790   46.2370 C   0  0  0  0  0  0  0  0  0  0  0  0
   58.7040   31.8180   45.4730 C   0  0  0  0  0  0  0  0  0  0  0  0
   57.5780   31.2640   44.7100 C   0  0  0  0  0  0  0  0  0  0  0  0
   57.3490   31.6960   43.5510 O   0  0  0  0  0  0  0  0  0  0  0  0
   56.7530   30.2230   45.2460 N   0  0  0  0  0  0  0  0  0  0  0  0
   57.0300   28.7920   45.1130 C   0  0  0  0  0  0  0  0  0  0  0  0
   57.7620   28.2630   46.3720 C   0  0  0  0  0  0  0  0  0  0  0  0
   58.6920   27.0660   46.0880 C   0  0  0  0  0  0  0  0  0  0  0  0
   58.1870   26.2260   44.9100 C   0  0  0  0  0  0  0  0  0  0  0  0
   58.1220   27.0510   43.6100 C   0  0  0  0  0  0  0  0  0  0  0  0
   57.8640   28.5530   43.8460 C   0  0  0  0  0  0  0  0  0  0  0  0
   56.8308   34.3935   46.3303 H   0  0  0  0  0  0  0  0  0  0  0  0
   56.5356   35.3233   44.8220 H   0  0  0  0  0  0  0  0  0  0  0  0
   56.3678   33.5348   44.8220 H   0  0  0  0  0  0  0  0  0  0  0  0
   58.4883   34.0633   43.7806 H   0  0  0  0  0  0  0  0  0  0  0  0
   58.9299   35.1742   45.1282 H   0  0  0  0  0  0  0  0  0  0  0  0
   60.4940   34.1600   46.6580 H   0  0  0  0  0  0  0  0  0  0  0  0
   61.1898   30.8752   48.3686 H   0  0  0  0  0  0  0  0  0  0  0  0
   63.4963   30.9221   47.7410 H   0  0  0  0  0  0  0  0  0  0  0  0
   62.7714   31.1948   46.1495 H   0  0  0  0  0  0  0  0  0  0  0  0
   64.5787   32.9301   47.2701 H   0  0  0  0  0  0  0  0  0  0  0  0
   63.3041   33.5021   46.1759 H   0  0  0  0  0  0  0  0  0  0  0  0
   63.6013   33.9058   49.1007 H   0  0  0  0  0  0  0  0  0  0  0  0
   62.5403   34.7733   47.9655 H   0  0  0  0  0  0  0  0  0  0  0  0
   61.8764   32.5847   49.8131 H   0  0  0  0  0  0  0  0  0  0  0  0
   60.7644   33.5689   48.8364 H   0  0  0  0  0  0  0  0  0  0  0  0
   59.6139   29.9870   46.3663 H   0  0  0  0  0  0  0  0  0  0  0  0
   56.0823   28.2407   45.0232 H   0  0  0  0  0  0  0  0  0  0  0  0
   58.3660   29.0806   46.7924 H   0  0  0  0  0  0  0  0  0  0  0  0
   56.9887   27.9120   47.0712 H   0  0  0  0  0  0  0  0  0  0  0  0
   59.6978   27.4436   45.8519 H   0  0  0  0  0  0  0  0  0  0  0  0
   58.7124   26.4264   46.9827 H   0  0  0  0  0  0  0  0  0  0  0  0
   58.8690   25.3762   44.7595 H   0  0  0  0  0  0  0  0  0  0  0  0
   57.1709   25.8778   45.1470 H   0  0  0  0  0  0  0  0  0  0  0  0
   59.0797   26.9414   43.0800 H   0  0  0  0  0  0  0  0  0  0  0  0
   57.2743   26.6655   43.0246 H   0  0  0  0  0  0  0  0  0  0  0  0
   58.8299   29.0686   43.9521 H   0  0  0  0  0  0  0  0  0  0  0  0
   57.3016   28.9445   42.9855 H   0  0  0  0  0  0  0  0  0  0  0  0
  1  2  1  0
  2  3  1  0
  3  4  1  0
  4  5  2  0
  5  6  1  0
  6  7  1  0
  7  8  1  0
  8  9  1  0
  9 10  1  0
  5 11  1  0
 11 12  2  0
 12 13  1  0
 13 14  2  0
 13 15  1  0
 15 16  1  0
 16 17  1  0
 17 18  1  0
 18 19  1  0
 19 20  1  0
 20 21  1  0
 12  3  1  0
 21 16  1  0
 10  6  1  0
  1 22  1  0
  1 23  1  0
  1 24  1  0
  2 25  1  0
  2 26  1  0
  4 27  1  0
  6 28  1  0
  7 29  1  0
  7 30  1  0
  8 31  1  0
  8 32  1  0
  9 33  1  0
  9 34  1  0
 10 35  1  0
 10 36  1  0
 11 37  1  0
 16 38  1  0
 17 39  1  0
 17 40  1  0
 18 41  1  0
 18 42  1  0
 19 43  1  0
 19 44  1  0
 20 45  1  0
 20 46  1  0
 21 47  1  0
 21 48  1  0
M  CHG  2   4   1  15  -1
M  END
>  <UniqueID>  (1) 
1

>  <SMILES>  (1) 
CCn1[nH+]c(C2CCCC2)cc1C(=O)[N-]C1CCCCC1

>  <Energy>  (1) 
79.33459086301016

>  <Genealogy>  (1) 
CCn1[nH+]c(C2CCCC2)cc1C(=O)[N-]C1CCCCC1 (protonated)
CCn1[nH+]c(C2CCCC2)cc1C(=O)[N-]C1CCCCC1 (3D coordinates assigned)
CCn1[nH+]c(C2CCCC2)cc1C(=O)[N-]C1CCCCC1 (nonaromatic ring conformer: 79.33459086301016 kcal/mol)

>  <smiles>  (1) 
CCn1nc(C2CCCC2)cc1C(=O)NC1CCCCC1

>  <score_type>  (1) 
oracle

>  <origin>  (1) 
adg

>  <m_score__min__energy>  (1) 
-8.1600000000000001

>  <m_primary>  (1) 
energy

$$$$
1:0
     RDKit          3D

 82 86  0  0  1  0  0  0  0  0999 V2000
   63.6850   34.4770   51.3900 C   0  0  0  0  0  0  0  0  0  0  0  0
   63.4530   33.8140   50.0830 C   0  0  0  0  0  0  0  0  0  0  0  0
   62.4920   34.2180   49.2490 N   0  0  0  0  0  0  0  0  0  0  0  0
   62.2890   33.6150   48.0730 C   0  0  0  0  0  0  0  0  0  0  0  0
   61.3530   34.0270   47.2890 N   0  0  0  0  0  0  0  0  0  0  0  0
   59.9620   33.9790   47.7040 C   0  0  0  0  0  0  0  0  0  0  0  0
   59.0750   33.6490   46.5780 C   0  0  0  0  0  0  0  0  0  0  0  0
   58.1500   34.5360   46.0710 C   0  0  0  0  0  0  0  0  0  0  0  0
   57.3130   34.2350   45.0160 C   0  0  0  0  0  0  0  0  0  0  0  0
   57.4180   32.9670   44.4410 C   0  0  0  0  0  0  0  0  0  0  0  0
   58.3240   32.0670   44.9200 C   0  0  0  0  0  0  0  0  0  0  0  0
   58.4850   30.7540   44.3840 N   0  0  0  0  0  0  0  0  0  0  0  0
   57.3960   29.8430   44.2950 C   0  0  0  0  0  0  0  0  0  0  0  0
   56.2420   30.1390   44.6780 O   0  0  0  0  0  0  0  0  0  0  0  0
   57.6970   28.4890   43.7110 C   0  0  0  0  0  0  0  0  0  0  0  0
   58.1130   27.5620   44.8000 C   0  0  0  0  0  0  0  0  0  0  0  0
   57.7740   26.2080   44.7150 C   0  0  0  0  0  0  0  0  0  0  0  0
   58.1840   25.3800   45.7540 C   0  0  0  0  0  0  0  0  0  0  0  0
   58.8950   25.8500   46.8340 C   0  0  0  0  0  0  0  0  0  0  0  0
   59.2120   27.2110   46.8780 C   0  0  0  0  0  0  0  0  0  0  0  0
   59.9470   27.7420   47.9730 N   0  0  0  0  0  0  0  0  0  0  0  0
   59.5900   28.9410   48.6500 C   0  0  0  0  0  0  0  0  0  0  0  0
   58.5870   29.6340   48.3370 O   0  0  0  0  0  0  0  0  0  0  0  0
   60.5010   29.3360   49.7870 C   0  0  1  0  0  0  0  0  0  0  0  0
   61.0370   30.6890   49.4910 C   0  0  0  0  0  0  0  0  0  0  0  0
   60.5670   31.6930   50.5240 C   0  0  0  0  0  0  0  0  0  0  0  0
   59.0480   31.5200   50.6280 C   0  0  0  0  0  0  0  0  0  0  0  0
   58.8090   30.2630   51.3060 N   0  0  0  0  0  0  0  0  0  0  0  0
   57.6820   30.1130   52.2070 C   0  0  0  0  0  0  0  0  0  0  0  0
   57.2220   28.9570   52.2790 O   0  0  0  0  0  0  0  0  0  0  0  0
   57.2360   31.3060   52.9060 C   0  0  0  0  0  0  0  0  0  0  0  0
   55.9690   31.8880   52.3790 C   0  0  0  0  0  0  0  0  0  0  0  0
   54.8630   30.9290   52.4810 C   0  0  0  0  0  0  0  0  0  0  0  0
   53.9260   30.9330   51.4420 C   0  0  0  0  0  0  0  0  0  0  0  0
   52.8280   30.0990   51.4420 C   0  0  0  0  0  0  0  0  0  0  0  0
   52.6160   29.2290   52.4690 C   0  0  0  0  0  0  0  0  0  0  0  0
   53.5380   29.2210   53.5010 C   0  0  0  0  0  0  0  0  0  0  0  0
   54.6410   30.0550   53.5080 C   0  0  0  0  0  0  0  0  0  0  0  0
   59.7290   29.1840   51.0480 C   0  0  0  0  0  0  0  0  0  0  0  0
   58.8220   28.0730   45.8620 C   0  0  0  0  0  0  0  0  0  0  0  0
   59.1520   32.4050   45.9880 C   0  0  0  0  0  0  0  0  0  0  0  0
   63.1150   32.5550   47.7500 C   0  0  0  0  0  0  0  0  0  0  0  0
   64.1220   32.1110   48.5930 C   0  0  0  0  0  0  0  0  0  0  0  0
   64.2690   32.7740   49.7760 N   0  0  0  0  0  0  0  0  0  0  0  0
   63.4406   33.7786   52.2039 H   0  0  0  0  0  0  0  0  0  0  0  0
   64.7409   34.7753   51.4675 H   0  0  0  0  0  0  0  0  0  0  0  0
   63.0455   35.3686   51.4675 H   0  0  0  0  0  0  0  0  0  0  0  0
   59.8482   33.2129   48.4852 H   0  0  0  0  0  0  0  0  0  0  0  0
   59.6810   34.9717   48.0855 H   0  0  0  0  0  0  0  0  0  0  0  0
   58.0753   35.5329   46.5299 H   0  0  0  0  0  0  0  0  0  0  0  0
   56.5864   34.9704   44.6401 H   0  0  0  0  0  0  0  0  0  0  0  0
   56.7670   32.6926   43.5978 H   0  0  0  0  0  0  0  0  0  0  0  0
   59.4510   30.4860   44.0570 H   0  0  0  0  0  0  0  0  0  0  0  0
   56.7971   28.0942   43.2167 H   0  0  0  0  0  0  0  0  0  0  0  0
   58.5092   28.5787   42.9746 H   0  0  0  0  0  0  0  0  0  0  0  0
   57.2054   25.8136   43.8599 H   0  0  0  0  0  0  0  0  0  0  0  0
   57.9307   24.3104   45.7109 H   0  0  0  0  0  0  0  0  0  0  0  0
   59.2062   25.1721   47.6425 H   0  0  0  0  0  0  0  0  0  0  0  0
   60.7970   27.1810   48.2610 H   0  0  0  0  0  0  0  0  0  0  0  0
   61.3891   28.6983   49.9084 H   0  0  0  0  0  0  0  0  0  0  0  0
   62.1363   30.6510   49.4994 H   0  0  0  0  0  0  0  0  0  0  0  0
   60.6718   31.0039   48.5023 H   0  0  0  0  0  0  0  0  0  0  0  0
   61.0412   31.4908   51.4957 H   0  0  0  0  0  0  0  0  0  0  0  0
   60.8347   32.7202   50.2354 H   0  0  0  0  0  0  0  0  0  0  0  0
   58.6123   32.3490   51.2050 H   0  0  0  0  0  0  0  0  0  0  0  0
   58.5842   31.5217   49.6306 H   0  0  0  0  0  0  0  0  0  0  0  0
   57.0827   31.0482   53.9643 H   0  0  0  0  0  0  0  0  0  0  0  0
   58.0168   32.0670   52.7602 H   0  0  0  0  0  0  0  0  0  0  0  0
   55.7185   32.7880   52.9598 H   0  0  0  0  0  0  0  0  0  0  0  0
   56.1156   32.1399   51.3183 H   0  0  0  0  0  0  0  0  0  0  0  0
   54.0699   31.6237   50.5980 H   0  0  0  0  0  0  0  0  0  0  0  0
   52.1159   30.1364   50.6044 H   0  0  0  0  0  0  0  0  0  0  0  0
   51.7444   28.5580   52.4775 H   0  0  0  0  0  0  0  0  0  0  0  0
   53.3886   28.5289   54.3429 H   0  0  0  0  0  0  0  0  0  0  0  0
   55.3479   30.0145   54.3498 H   0  0  0  0  0  0  0  0  0  0  0  0
   60.4408   29.1289   51.8848 H   0  0  0  0  0  0  0  0  0  0  0  0
   59.1261   28.2699   50.9437 H   0  0  0  0  0  0  0  0  0  0  0  0
   59.0748   29.1427   45.9055 H   0  0  0  0  0  0  0  0  0  0  0  0
   59.8773   31.6694   46.3659 H   0  0  0  0  0  0  0  0  0  0  0  0
   62.9677   32.0441   46.7871 H   0  0  0  0  0  0  0  0  0  0  0  0
   64.7708   31.2653   48.3212 H   0  0  0  0  0  0  0  0  0  0  0  0
   65.0270   32.4530   50.4300 H   0  0  0  0  0  0  0  0  0  0  0  0
  1  2  1  0
  2  3  2  0
  3  4  1  0
  4  5  2  0
  5  6  1  0
  6  7  1  0
  7  8  2  0
  8  9  1  0
  9 10  2  0
 10 11  1  0
 11 12  1  0
 12 13  1  0
 13 14  2  0
 13 15  1  0
 15 16  1  0
 16 17  2  0
 17 18  1  0
 18 19  2  0
 19 20  1  0
 20 21  1  0
 21 22  1  0
 22 23  2  0
 22 24  1  0
 24 25  1  0
 25 26  1  0
 26 27  1  0
 27 28  1  0
 28 29  1  0
 29 30  2  0
 29 31  1  0
 31 32  1  0
 32 33  1  0
 33 34  2  0
 34 35  1  0
 35 36  2  0
 36 37  1  0
 37 38  2  0
 28 39  1  0
 20 40  2  0
 11 41  2  0
  4 42  1  0
 42 43  2  0
 43 44  1  0
 44  2  1  0
 41  7  1  0
 40 16  1  0
 39 24  1  0
 38 33  1  0
  1 45  1  0
  1 46  1  0
  1 47  1  0
  6 48  1  0
  6 49  1  0
  8 50  1  0
  9 51  1  0
 10 52  1  0
 12 53  1  0
 15 54  1  0
 15 55  1  0
 17 56  1  0
 18 57  1  0
 19 58  1  0
 21 59  1  0
 24 60  1  1
 25 61  1  0
 25 62  1  0
 26 63  1  0
 26 64  1  0
 27 65  1  0
 27 66  1  0
 31 67  1  0
 31 68  1  0
 32 69  1  0
 32 70  1  0
 34 71  1  0
 35 72  1  0
 36 73  1  0
 37 74  1  0
 38 75  1  0
 39 76  1  0
 39 77  1  0
 40 78  1  0
 41 79  1  0
 42 80  1  0
 43 81  1  0
 44 82  1  0
M  END
>  <smiles>  (2) 
Cc1nc(=NCc2cccc(NC(=O)Cc3cccc(NC(=O)C4CCCN(C(=O)CCc5ccccc5)C4)c3)c2)cc[nH]1

>  <score_type>  (2) 
oracle

>  <origin>  (2) 
adg

>  <m_score__min__energy>  (2) 
-11.890000000000001

>  <m_primary>  (2) 
energy

$$$$
2:0
     RDKit          3D

 67 71  0  0  0  0  0  0  0  0999 V2000
   60.0410   29.1500   53.0740 C   0  0  0  0  0  0  0  0  0  0  0  0
   60.4860   29.2550   51.6520 C   0  0  0  0  0  0  0  0  0  0  0  0
   60.2930   28.3160   50.6460 C   0  0  0  0  0  0  0  0  0  0  0  0
   60.8290   28.7610   49.4830 N   0  0  0  0  0  0  0  0  0  0  0  0
   60.8490   28.0340   48.2130 C   0  0  0  0  0  0  0  0  0  0  0  0
   59.7960   28.5730   47.2820 C   0  0  0  0  0  0  0  0  0  0  0  0
   60.0230   29.7480   46.5480 C   0  0  0  0  0  0  0  0  0  0  0  0
   59.0420   30.2410   45.6830 C   0  0  0  0  0  0  0  0  0  0  0  0
   57.8230   29.5670   45.5420 C   0  0  0  0  0  0  0  0  0  0  0  0
   56.5800   30.2150   44.4780 S   0  0  0  0  0  0  0  0  0  0  0  0
   55.1230   29.3080   44.6840 N   0  0  0  0  0  0  0  0  0  0  0  0
   57.0280   30.1240   43.0440 O   0  0  0  0  0  0  0  0  0  0  0  0
   56.3290   31.6580   44.8160 O   0  0  0  0  0  0  0  0  0  0  0  0
   57.5890   28.3980   46.2780 C   0  0  0  0  0  0  0  0  0  0  0  0
   58.5710   27.9010   47.1410 C   0  0  0  0  0  0  0  0  0  0  0  0
   61.3650   29.9710   49.7500 C   0  0  0  0  0  0  0  0  0  0  0  0
   62.0520   30.8220   48.8810 C   0  0  0  0  0  0  0  0  0  0  0  0
   62.5630   32.0320   49.3890 C   0  0  0  0  0  0  0  0  0  0  0  0
   63.2970   32.8820   48.4950 N   0  0  0  0  0  0  0  0  0  0  0  0
   62.8670   33.3910   47.2280 C   0  0  0  0  0  0  0  0  0  0  0  0
   63.6850   33.9130   46.4250 O   0  0  0  0  0  0  0  0  0  0  0  0
   61.4460   33.1780   46.7980 C   0  0  0  0  0  0  0  0  0  0  0  0
   60.4980   34.1770   47.4790 C   0  0  0  0  0  0  0  0  0  0  0  0
   59.7100   33.5270   48.5890 C   0  0  0  0  0  0  0  0  0  0  0  0
   59.6910   34.0960   49.8730 C   0  0  0  0  0  0  0  0  0  0  0  0
   59.0380   33.4460   50.9240 C   0  0  0  0  0  0  0  0  0  0  0  0
   58.4080   32.2080   50.7120 C   0  0  0  0  0  0  0  0  0  0  0  0
   57.7590   31.4980   51.8410 C   0  0  0  0  0  0  0  0  0  0  0  0
   57.8590   31.9630   53.0080 O   0  0  0  0  0  0  0  0  0  0  0  0
   56.9500   30.3290   51.6330 N   0  0  0  0  0  0  0  0  0  0  0  0
   55.7500   30.1070   52.0970 C   0  0  0  0  0  0  0  0  0  0  0  0
   54.6990   30.9170   51.6480 C   0  0  0  0  0  0  0  0  0  0  0  0
   53.4030   30.7010   52.1230 C   0  0  0  0  0  0  0  0  0  0  0  0
   53.1640   29.7170   53.0300 N   0  0  0  0  0  0  0  0  0  0  0  0
   54.1640   28.9250   53.5010 C   0  0  0  0  0  0  0  0  0  0  0  0
   55.4740   29.1070   53.0540 C   0  0  0  0  0  0  0  0  0  0  0  0
   58.4090   31.6520   49.4200 C   0  0  0  0  0  0  0  0  0  0  0  0
   59.0610   32.3030   48.3700 C   0  0  0  0  0  0  0  0  0  0  0  0
   62.3230   32.3810   50.7450 C   0  0  0  0  0  0  0  0  0  0  0  0
   61.6270   31.5070   51.5980 C   0  0  0  0  0  0  0  0  0  0  0  0
   61.1690   30.3030   51.0660 C   0  0  0  0  0  0  0  0  0  0  0  0
   60.8927   29.3510   53.7405 H   0  0  0  0  0  0  0  0  0  0  0  0
   59.2450   29.8850   53.2643 H   0  0  0  0  0  0  0  0  0  0  0  0
   59.6576   28.1367   53.2643 H   0  0  0  0  0  0  0  0  0  0  0  0
   59.7798   27.3516   50.7746 H   0  0  0  0  0  0  0  0  0  0  0  0
   61.8383   28.1481   47.7458 H   0  0  0  0  0  0  0  0  0  0  0  0
   60.6425   26.9712   48.4075 H   0  0  0  0  0  0  0  0  0  0  0  0
   60.9780   30.2835   46.6542 H   0  0  0  0  0  0  0  0  0  0  0  0
   59.2284   31.1619   45.1110 H   0  0  0  0  0  0  0  0  0  0  0  0
   55.1800   28.8490   45.6210 H   0  0  0  0  0  0  0  0  0  0  0  0
   56.6297   27.8693   46.1768 H   0  0  0  0  0  0  0  0  0  0  0  0
   58.3830   26.9797   47.7118 H   0  0  0  0  0  0  0  0  0  0  0  0
   62.1908   30.5530   47.8235 H   0  0  0  0  0  0  0  0  0  0  0  0
   61.3789   33.3073   45.7077 H   0  0  0  0  0  0  0  0  0  0  0  0
   61.1449   32.1611   47.0900 H   0  0  0  0  0  0  0  0  0  0  0  0
   61.0912   35.0028   47.8987 H   0  0  0  0  0  0  0  0  0  0  0  0
   59.7883   34.5469   46.7244 H   0  0  0  0  0  0  0  0  0  0  0  0
   60.1927   35.0583   50.0524 H   0  0  0  0  0  0  0  0  0  0  0  0
   59.0171   33.9062   51.9229 H   0  0  0  0  0  0  0  0  0  0  0  0
   54.8936   31.7212   50.9232 H   0  0  0  0  0  0  0  0  0  0  0  0
   52.5745   31.3283   51.7624 H   0  0  0  0  0  0  0  0  0  0  0  0
   53.9400   28.1384   54.2366 H   0  0  0  0  0  0  0  0  0  0  0  0
   56.2854   28.4755   53.4449 H   0  0  0  0  0  0  0  0  0  0  0  0
   57.8930   30.6983   49.2352 H   0  0  0  0  0  0  0  0  0  0  0  0
   59.0655   31.8533   47.3661 H   0  0  0  0  0  0  0  0  0  0  0  0
   62.6855   33.3450   51.1314 H   0  0  0  0  0  0  0  0  0  0  0  0
   61.4494   31.7652   52.6524 H   0  0  0  0  0  0  0  0  0  0  0  0
  1  2  1  0
  2  3  2  0
  3  4  1  0
  4  5  1  0
  5  6  1  0
  6  7  2  0
  7  8  1  0
  8  9  2  0
  9 10  1  0
 10 11  1  0
 10 12  2  0
 10 13  2  0
  9 14  1  0
 14 15  2  0
  4 16  1  0
 16 17  2  0
 17 18  1  0
 18 19  1  0
 19 20  1  0
 20 21  2  0
 20 22  1  0
 22 23  1  0
 23 24  1  0
 24 25  2  0
 25 26  1  0
 26 27  2  0
 27 28  1  0
 28 29  2  0
 28 30  1  0
 30 31  2  3
 31 32  1  0
 32 33  2  0
 33 34  1  0
 34 35  1  0
 35 36  2  0
 27 37  1  0
 37 38  2  0
 18 39  2  0
 39 40  1  0
 40 41  2  0
 41  2  1  0
 15  6  1  0
 41 16  1  0
 38 24  1  0
 36 31  1  0
  1 42  1  0
  1 43  1  0
  1 44  1  0
  3 45  1  0
  5 46  1  0
  5 47  1  0
  7 48  1  0
  8 49  1  0
 11 50  1  0
 14 51  1  0
 15 52  1  0
 17 53  1  0
 22 54  1  0
 22 55  1  0
 23 56  1  0
 23 57  1  0
 25 58  1  0
 26 59  1  0
 32 60  1  0
 33 61  1  0
 35 62  1  0
 36 63  1  0
 37 64  1  0
 38 65  1  0
 39 66  1  0
 40 67  1  0
M  CHG  3  11  -1  19  -1  34  -1
M  END
>  <UniqueID>  (3) 
2

>  <SMILES>  (3) 
Cc1cn(Cc2ccc(S([NH-])(=O)=O)cc2)c2cc([N-]C(=O)CCc3ccc(C(=O)N=c4cc[n-]cc4)cc3)ccc12

>  <Energy>  (3) 
115.01140616606556

>  <Genealogy>  (3) 
Cc1cn(Cc2ccc(S([NH-])(=O)=O)cc2)c2cc([N-]C(=O)CCc3ccc(C(=O)N=c4cc[n-]cc4)cc3)ccc12 (protonated)
Cc1cn(Cc2ccc(S([NH-])(=O)=O)cc2)c2cc([N-]C(=O)CCc3ccc(C(=O)N=c4cc[n-]cc4)cc3)ccc12 (3D coordinates assigned)
Cc1cn(Cc2ccc(S([NH-])(=O)=O)cc2)c2cc([N-]C(=O)CCc3ccc(C(=O)N=c4cc[n-]cc4)cc3)ccc12 (optimized conformer: 115.01140616606556 kcal/mol)

>  <smiles>  (3) 
Cc1cn(Cc2ccc(S(N)(=O)=O)cc2)c2cc(NC(=O)CCc3ccc(C(=O)N=c4cc[nH]cc4)cc3)ccc12

>  <score_type>  (3) 
oracle

>  <origin>  (3) 
adg

>  <m_score__min__energy>  (3) 
-16.949999999999999

>  <m_primary>  (3) 
energy

$$$$
3:0
     RDKit          3D

 31 32  0  0  0  0  0  0  0  0999 V2000
   57.6447   25.2070   43.3889 H   0  0  0  0  0  0  0  0  0  0  0  0
   57.0390   25.1010   44.3010 C   0  0  0  0  0  0  0  0  0  0  0  0
   56.0880   23.7730   44.7040 S   0  0  0  0  0  0  0  0  0  0  0  0
   55.5630   24.4610   46.1510 C   0  0  0  0  0  0  0  0  0  0  0  0
   54.7830   23.9020   47.0280 N   0  0  0  0  0  0  0  0  0  0  0  0
   55.1950   22.9930   48.0580 C   0  0  0  0  0  0  0  0  0  0  0  0
   54.3140   22.3960   48.7310 O   0  0  0  0  0  0  0  0  0  0  0  0
   56.6130   22.6740   48.2910 C   0  0  0  0  0  0  0  0  0  0  0  0
   57.3710   23.5010   48.8640 O   0  0  0  0  0  0  0  0  0  0  0  0
   57.1350   21.4660   47.8440 O   0  0  0  0  0  0  0  0  0  0  0  0
   56.1080   25.6770   46.3500 N   0  0  0  0  0  0  0  0  0  0  0  0
   56.9270   26.0470   45.3250 C   0  0  0  0  0  0  0  0  0  0  0  0
   57.6320   27.3560   45.3190 C   0  0  0  0  0  0  0  0  0  0  0  0
   59.0370   27.4010   45.3870 C   0  0  0  0  0  0  0  0  0  0  0  0
   59.6102   26.4640   45.4454 H   0  0  0  0  0  0  0  0  0  0  0  0
   59.7090   28.6230   45.3810 C   0  0  0  0  0  0  0  0  0  0  0  0
   60.8067   28.6451   45.4491 H   0  0  0  0  0  0  0  0  0  0  0  0
   58.9950   29.8160   45.2890 C   0  0  0  0  0  0  0  0  0  0  0  0
   59.5322   30.7759   45.2926 H   0  0  0  0  0  0  0  0  0  0  0  0
   57.5980   29.8010   45.1920 C   0  0  0  0  0  0  0  0  0  0  0  0
   56.8960   31.0480   45.0890 N   0  0  0  0  0  0  0  0  0  0  0  0
   55.8580   31.0430   45.2060 H   0  0  0  0  0  0  0  0  0  0  0  0
   57.6880   32.5810   45.2760 S   0  0  0  0  0  0  0  0  0  0  0  0
   58.7580   32.4510   46.3230 O   0  0  0  0  0  0  0  0  0  0  0  0
   56.6960   33.6200   45.7170 O   0  0  0  0  0  0  0  0  0  0  0  0
   58.4580   33.0800   43.7490 C   0  0  0  0  0  0  0  0  0  0  0  0
   59.3625   33.6662   43.9689 H   0  0  0  0  0  0  0  0  0  0  0  0
   58.7319   32.1873   43.1676 H   0  0  0  0  0  0  0  0  0  0  0  0
   57.7550   33.6947   43.1676 H   0  0  0  0  0  0  0  0  0  0  0  0
   56.9130   28.5700   45.2370 C   0  0  0  0  0  0  0  0  0  0  0  0
   55.5220   28.5570   45.2430 O   0  0  0  0  0  0  0  0  0  0  0  0
  1  2  1  0
  2  3  1  0
  3  4  1  0
  4  5  2  0
  5  6  1  0
  6  7  2  0
  6  8  1  0
  8  9  2  0
  8 10  1  0
  4 11  1  0
 11 12  1  0
 12 13  1  0
 13 14  2  0
 14 15  1  0
 14 16  1  0
 16 17  1  0
 16 18  2  0
 18 19  1  0
 18 20  1  0
 20 21  1  0
 21 22  1  0
 21 23  1  0
 23 24  2  0
 23 25  2  0
 23 26  1  0
 26 27  1  0
 26 28  1  0
 26 29  1  0
 20 30  2  0
 30 31  1  0
 12  2  2  0
 30 13  1  0
M  CHG  3  10  -1  11  -1  31  -1
M  END
>  <UniqueID>  (4) 
3

>  <SMILES>  (4) 
CS(=O)(=O)Nc1cccc(-c2cs/c(=N\C(=O)C(=O)[O-])[n-]2)c1[O-]

>  <Energy>  (4) 
73.98261936829829

>  <Genealogy>  (4) 
CS(=O)(=O)Nc1cccc(-c2csc(=NC(=O)C(=O)[O-])[n-]2)c1[O-] (protonated)
CS(=O)(=O)Nc1cccc(-c2cs/c(=N\C(=O)C(=O)[O-])[n-]2)c1[O-] (cis-trans isomerization)
CS(=O)(=O)Nc1cccc(-c2cs/c(=N\C(=O)C(=O)[O-])[n-]2)c1[O-] (3D coordinates assigned)
CS(=O)(=O)Nc1cccc(-c2cs/c(=N\C(=O)C(=O)[O-])[n-]2)c1[O-] (optimized conformer: 73.98261936829829 kcal/mol)

>  <smiles>  (4) 
CS(=O)(=O)Nc1cccc(-c2csc(=NC(=O)C(=O)O)[nH]2)c1O

>  <score_type>  (4) 
oracle

>  <origin>  (4) 
adg

>  <m_score__min__energy>  (4) 
-13.75

>  <m_primary>  (4) 
energy

$$$$
4:0
     RDKit          3D

 42 44  0  0  0  0  0  0  0  0999 V2000
   56.6630   29.4620   43.0280 C   0  0  0  0  0  0  0  0  0  0  0  0
   55.9750   30.0380   44.2180 C   0  0  0  0  0  0  0  0  0  0  0  0
   55.1500   29.3390   44.8660 O   0  0  0  0  0  0  0  0  0  0  0  0
   56.2290   31.3960   44.5910 N   0  0  0  0  0  0  0  0  0  0  0  0
   57.4550   32.1110   44.2480 C   0  0  0  0  0  0  0  0  0  0  0  0
   58.0810   32.6990   45.4830 C   0  0  0  0  0  0  0  0  0  0  0  0
   58.3020   34.0810   45.5820 C   0  0  0  0  0  0  0  0  0  0  0  0
   58.9020   34.6160   46.7240 C   0  0  0  0  0  0  0  0  0  0  0  0
   59.2850   33.7790   47.7740 C   0  0  0  0  0  0  0  0  0  0  0  0
   59.0680   32.3910   47.6940 C   0  0  0  0  0  0  0  0  0  0  0  0
   59.4420   31.5020   48.7620 N   0  0  0  0  0  0  0  0  0  0  0  0
   60.4490   30.1050   48.5440 S   0  0  0  0  0  0  0  0  0  0  0  0
   60.4360   29.2900   49.8070 O   0  0  0  0  0  0  0  0  0  0  0  0
   61.8560   30.5490   48.2610 O   0  0  0  0  0  0  0  0  0  0  0  0
   59.8740   29.1470   47.1820 C   0  0  0  0  0  0  0  0  0  0  0  0
   60.5090   29.2380   45.9390 C   0  0  0  0  0  0  0  0  0  0  0  0
   60.0630   28.4630   44.8680 C   0  0  0  0  0  0  0  0  0  0  0  0
   58.9820   27.5940   45.0310 C   0  0  0  0  0  0  0  0  0  0  0  0
   58.3270   27.4900   46.2720 C   0  0  0  0  0  0  0  0  0  0  0  0
   57.1830   26.5590   46.4520 C   0  0  0  0  0  0  0  0  0  0  0  0
   57.1670   25.3570   47.1380 C   0  0  0  0  0  0  0  0  0  0  0  0
   55.9330   24.8240   47.0690 N   0  0  0  0  0  0  0  0  0  0  0  0
   55.1600   25.6360   46.3650 N   0  0  0  0  0  0  0  0  0  0  0  0
   55.8910   26.6980   45.9780 C   0  0  0  0  0  0  0  0  0  0  0  0
   58.7820   28.2840   47.3430 C   0  0  0  0  0  0  0  0  0  0  0  0
   58.4730   31.8610   46.5380 C   0  0  0  0  0  0  0  0  0  0  0  0
   57.4672   28.7887   43.3596 H   0  0  0  0  0  0  0  0  0  0  0  0
   55.9382   28.8974   42.4230 H   0  0  0  0  0  0  0  0  0  0  0  0
   57.0914   30.2747   42.4230 H   0  0  0  0  0  0  0  0  0  0  0  0
   58.1637   31.4119   43.7800 H   0  0  0  0  0  0  0  0  0  0  0  0
   57.2104   32.9247   43.5494 H   0  0  0  0  0  0  0  0  0  0  0  0
   58.0019   34.7449   44.7579 H   0  0  0  0  0  0  0  0  0  0  0  0
   59.0734   35.7001   46.7966 H   0  0  0  0  0  0  0  0  0  0  0  0
   59.7593   34.2073   48.6693 H   0  0  0  0  0  0  0  0  0  0  0  0
   59.1930   31.7560   49.7440 H   0  0  0  0  0  0  0  0  0  0  0  0
   61.3608   29.9212   45.8058 H   0  0  0  0  0  0  0  0  0  0  0  0
   60.5646   28.5367   43.8918 H   0  0  0  0  0  0  0  0  0  0  0  0
   58.6394   26.9852   44.1813 H   0  0  0  0  0  0  0  0  0  0  0  0
   58.0266   24.9084   47.6573 H   0  0  0  0  0  0  0  0  0  0  0  0
   55.5196   27.5428   45.3794 H   0  0  0  0  0  0  0  0  0  0  0  0
   58.2741   28.2258   48.3170 H   0  0  0  0  0  0  0  0  0  0  0  0
   58.3122   30.7757   46.4584 H   0  0  0  0  0  0  0  0  0  0  0  0
  1  2  1  0
  2  3  2  0
  2  4  1  0
  4  5  1  0
  5  6  1  0
  6  7  2  0
  7  8  1  0
  8  9  2  0
  9 10  1  0
 10 11  1  0
 11 12  1  0
 12 13  2  0
 12 14  2  0
 12 15  1  0
 15 16  2  0
 16 17  1  0
 17 18  2  0
 18 19  1  0
 19 20  1  0
 20 21  1  0
 21 22  2  0
 22 23  1  0
 23 24  1  0
 19 25  2  0
 10 26  2  0
 26  6  1  0
 25 15  1  0
 24 20  2  0
  1 27  1  0
  1 28  1  0
  1 29  1  0
  5 30  1  0
  5 31  1  0
  7 32  1  0
  8 33  1  0
  9 34  1  0
 11 35  1  0
 16 36  1  0
 17 37  1  0
 18 38  1  0
 21 39  1  0
 24 40  1  0
 25 41  1  0
 26 42  1  0
M  CHG  2   4  -1  23  -1
M  END
>  <UniqueID>  (5) 
4

>  <SMILES>  (5) 
CC(=O)[N-]Cc1cccc(NS(=O)(=O)c2cccc(-c3cn[n-]c3)c2)c1

>  <Energy>  (5) 
74.11462402434768

>  <Genealogy>  (5) 
CC(=O)[N-]Cc1cccc(NS(=O)(=O)c2cccc(-c3cn[n-]c3)c2)c1 (protonated)
CC(=O)[N-]Cc1cccc(NS(=O)(=O)c2cccc(-c3cn[n-]c3)c2)c1 (3D coordinates assigned)
CC(=O)[N-]Cc1cccc(NS(=O)(=O)c2cccc(-c3cn[n-]c3)c2)c1 (optimized conformer: 74.11462402434768 kcal/mol)

>  <smiles>  (5) 
CC(=O)NCc1cccc(NS(=O)(=O)c2cccc(-c3cn[nH]c3)c2)c1

>  <score_type>  (5) 
oracle

>  <origin>  (5) 
adg

>  <m_score__min__energy>  (5) 
-12.76

>  <m_primary>  (5) 
energy

$$$$
5:0
     RDKit          3D

 44 46  0  0  0  0  0  0  0  0999 V2000
   60.6700   31.4710   46.7790 O   0  0  0  0  0  0  0  0  0  0  0  0
   59.7480   32.2620   46.4510 C   0  0  0  0  0  0  0  0  0  0  0  0
   59.7350   33.5730   47.0360 N   0  0  0  0  0  0  0  0  0  0  0  0
   60.2350   33.9490   48.3580 C   0  0  0  0  0  0  0  0  0  0  0  0
   61.7070   33.6470   48.5040 C   0  0  0  0  0  0  0  0  0  0  0  0
   62.2480   33.2750   49.7480 C   0  0  0  0  0  0  0  0  0  0  0  0
   63.6080   32.9670   49.8630 C   0  0  0  0  0  0  0  0  0  0  0  0
   64.4300   32.9990   48.7340 C   0  0  0  0  0  0  0  0  0  0  0  0
   63.8950   33.3330   47.4890 C   0  0  0  0  0  0  0  0  0  0  0  0
   62.5390   33.6570   47.3720 C   0  0  0  0  0  0  0  0  0  0  0  0
   58.7210   31.7930   45.5020 C   0  0  0  0  0  0  0  0  0  0  0  0
   57.7950   32.5590   45.1230 O   0  0  0  0  0  0  0  0  0  0  0  0
   58.7710   30.4380   45.0400 N   0  0  0  0  0  0  0  0  0  0  0  0
   57.7790   29.4290   45.2840 C   0  0  0  0  0  0  0  0  0  0  0  0
   58.1790   28.1710   45.7680 C   0  0  0  0  0  0  0  0  0  0  0  0
   59.5420   27.9060   46.1140 N   0  0  0  0  0  0  0  0  0  0  0  0
   59.9950   27.3340   47.6860 S   0  0  0  0  0  0  0  0  0  0  0  0
   59.0060   26.2930   48.1280 O   0  0  0  0  0  0  0  0  0  0  0  0
   61.3590   26.7070   47.6430 O   0  0  0  0  0  0  0  0  0  0  0  0
   59.9770   28.6750   48.8270 C   0  0  0  0  0  0  0  0  0  0  0  0
   61.0400   28.8440   49.7250 C   0  0  0  0  0  0  0  0  0  0  0  0
   61.0500   29.9260   50.6100 C   0  0  0  0  0  0  0  0  0  0  0  0
   59.9970   30.8450   50.6040 C   0  0  0  0  0  0  0  0  0  0  0  0
   58.9370   30.6850   49.7080 C   0  0  0  0  0  0  0  0  0  0  0  0
   58.9270   29.6050   48.8180 C   0  0  0  0  0  0  0  0  0  0  0  0
   57.2320   27.1570   45.9310 C   0  0  0  0  0  0  0  0  0  0  0  0
   55.8940   27.4090   45.6240 C   0  0  0  0  0  0  0  0  0  0  0  0
   54.9400   26.4150   45.8040 O   0  0  0  0  0  0  0  0  0  0  0  0
   55.5250   28.6230   45.1430 N   0  0  0  0  0  0  0  0  0  0  0  0
   56.4230   29.6250   44.9530 C   0  0  0  0  0  0  0  0  0  0  0  0
   56.0300   30.7110   44.4480 O   0  0  0  0  0  0  0  0  0  0  0  0
   60.0758   35.0273   48.5061 H   0  0  0  0  0  0  0  0  0  0  0  0
   59.6880   33.3631   49.1113 H   0  0  0  0  0  0  0  0  0  0  0  0
   61.5988   33.2260   50.6346 H   0  0  0  0  0  0  0  0  0  0  0  0
   64.0301   32.6995   50.8429 H   0  0  0  0  0  0  0  0  0  0  0  0
   65.4999   32.7607   48.8263 H   0  0  0  0  0  0  0  0  0  0  0  0
   64.5405   33.3415   46.5983 H   0  0  0  0  0  0  0  0  0  0  0  0
   62.1222   33.9209   46.3888 H   0  0  0  0  0  0  0  0  0  0  0  0
   61.8699   28.1221   49.7333 H   0  0  0  0  0  0  0  0  0  0  0  0
   61.8873   30.0543   51.3117 H   0  0  0  0  0  0  0  0  0  0  0  0
   60.0028   31.6935   51.3041 H   0  0  0  0  0  0  0  0  0  0  0  0
   58.1090   31.4091   49.7021 H   0  0  0  0  0  0  0  0  0  0  0  0
   58.0938   29.4852   48.1098 H   0  0  0  0  0  0  0  0  0  0  0  0
   57.5387   26.1667   46.2988 H   0  0  0  0  0  0  0  0  0  0  0  0
  1  2  2  0
  2  3  1  0
  3  4  1  0
  4  5  1  0
  5  6  2  0
  6  7  1  0
  7  8  2  0
  8  9  1  0
  9 10  2  0
  2 11  1  0
 11 12  2  0
 11 13  1  0
 13 14  1  0
 14 15  2  0
 15 16  1  0
 16 17  1  0
 17 18  2  0
 17 19  2  0
 17 20  1  0
 20 21  2  0
 21 22  1  0
 22 23  2  0
 23 24  1  0
 24 25  2  0
 15 26  1  0
 26 27  2  0
 27 28  1  0
 27 29  1  0
 29 30  1  0
 30 31  2  0
 10  5  1  0
 30 14  1  0
 25 20  1  0
  4 32  1  0
  4 33  1  0
  6 34  1  0
  7 35  1  0
  8 36  1  0
  9 37  1  0
 10 38  1  0
 21 39  1  0
 22 40  1  0
 23 41  1  0
 24 42  1  0
 25 43  1  0
 26 44  1  0
M  CHG  5   3  -1  13  -1  16  -1  28  -1  29  -1
M  END
>  <UniqueID>  (6) 
5

>  <SMILES>  (6) 
O=C([N-]Cc1ccccc1)C(=O)[N-]c1c([N-]S(=O)(=O)c2ccccc2)cc([O-])[n-]c1=O

>  <Energy>  (6) 
57.900081761547824

>  <Genealogy>  (6) 
O=C([N-]Cc1ccccc1)C(=O)[N-]c1c([N-]S(=O)(=O)c2ccccc2)cc([O-])[n-]c1=O (protonated)
O=C([N-]Cc1ccccc1)C(=O)[N-]c1c([N-]S(=O)(=O)c2ccccc2)cc([O-])[n-]c1=O (3D coordinates assigned)
O=C([N-]Cc1ccccc1)C(=O)[N-]c1c([N-]S(=O)(=O)c2ccccc2)cc([O-])[n-]c1=O (optimized conformer: 57.900081761547824 kcal/mol)

>  <smiles>  (6) 
O=C(NCc1ccccc1)C(=O)Nc1c(NS(=O)(=O)c2ccccc2)cc(O)[nH]c1=O

>  <score_type>  (6) 
oracle

>  <origin>  (6) 
adg

>  <m_score__min__energy>  (6) 
-17.16

>  <m_primary>  (6) 
energy

$$$$
6:0
     RDKit          3D

 51 54  0  0  0  0  0  0  0  0999 V2000
   61.2780   33.8050   50.7600 C   0  0  0  0  0  0  0  0  0  0  0  0
   62.3900   33.5420   49.8470 N   0  0  0  0  0  0  0  0  0  0  0  0
   62.3280   33.2100   48.5410 C   0  0  0  0  0  0  0  0  0  0  0  0
   61.0590   33.0150   47.7530 C   0  0  0  0  0  0  0  0  0  0  0  0
   60.6370   31.5700   47.7800 C   0  0  0  0  0  0  0  0  0  0  0  0
   59.9400   31.0580   48.8850 C   0  0  0  0  0  0  0  0  0  0  0  0
   59.5610   29.7120   48.9190 C   0  0  0  0  0  0  0  0  0  0  0  0
   59.8700   28.8580   47.8540 C   0  0  0  0  0  0  0  0  0  0  0  0
   59.4620   27.5170   47.9360 O   0  0  0  0  0  0  0  0  0  0  0  0
   59.2490   26.6540   46.8170 C   0  0  0  0  0  0  0  0  0  0  0  0
   57.7890   26.5640   46.4840 C   0  0  0  0  0  0  0  0  0  0  0  0
   57.0160   25.5050   46.7850 N   0  0  0  0  0  0  0  0  0  0  0  0
   55.8180   25.8350   46.2640 C   0  0  0  0  0  0  0  0  0  0  0  0
   54.8100   25.0890   46.3520 O   0  0  0  0  0  0  0  0  0  0  0  0
   55.7840   27.0310   45.6400 N   0  0  0  0  0  0  0  0  0  0  0  0
   57.0440   27.4820   45.7680 C   0  0  0  0  0  0  0  0  0  0  0  0
   57.5040   28.8150   45.2550 C   0  0  0  0  0  0  0  0  0  0  0  0
   56.3380   29.7120   44.9220 C   0  0  0  0  0  0  0  0  0  0  0  0
   55.1690   29.3400   45.2130 O   0  0  0  0  0  0  0  0  0  0  0  0
   56.5080   30.9880   44.2840 N   0  0  0  0  0  0  0  0  0  0  0  0
   57.1890   32.0080   44.7240 C   0  0  0  0  0  0  0  0  0  0  0  0
   58.0600   32.6750   43.8530 C   0  0  0  0  0  0  0  0  0  0  0  0
   58.8130   33.7520   44.3230 C   0  0  0  0  0  0  0  0  0  0  0  0
   58.6980   34.1510   45.6570 C   0  0  0  0  0  0  0  0  0  0  0  0
   59.6390   35.5010   46.2640 Cl  0  0  0  0  0  0  0  0  0  0  0  0
   57.8280   33.4590   46.5030 C   0  0  0  0  0  0  0  0  0  0  0  0
   57.1040   32.4130   46.0240 N   0  0  0  0  0  0  0  0  0  0  0  0
   60.5730   29.3710   46.7470 C   0  0  0  0  0  0  0  0  0  0  0  0
   60.9520   30.7150   46.7120 C   0  0  0  0  0  0  0  0  0  0  0  0
   63.6260   33.1770   48.0580 C   0  0  0  0  0  0  0  0  0  0  0  0
   64.0230   32.8890   46.7550 O   0  0  0  0  0  0  0  0  0  0  0  0
   64.5010   33.4820   49.0370 N   0  0  0  0  0  0  0  0  0  0  0  0
   63.7060   33.7040   50.1040 C   0  0  0  0  0  0  0  0  0  0  0  0
   64.1590   34.0430   51.2300 O   0  0  0  0  0  0  0  0  0  0  0  0
   61.6292   33.7219   51.7991 H   0  0  0  0  0  0  0  0  0  0  0  0
   60.8910   34.8195   50.5838 H   0  0  0  0  0  0  0  0  0  0  0  0
   60.4775   33.0714   50.5838 H   0  0  0  0  0  0  0  0  0  0  0  0
   60.2619   33.6329   48.1921 H   0  0  0  0  0  0  0  0  0  0  0  0
   61.2394   33.3130   46.7096 H   0  0  0  0  0  0  0  0  0  0  0  0
   59.6904   31.7184   49.7286 H   0  0  0  0  0  0  0  0  0  0  0  0
   59.0153   29.3212   49.7905 H   0  0  0  0  0  0  0  0  0  0  0  0
   59.7935   27.0502   45.9472 H   0  0  0  0  0  0  0  0  0  0  0  0
   59.6150   25.6486   47.0724 H   0  0  0  0  0  0  0  0  0  0  0  0
   58.1202   29.3012   46.0256 H   0  0  0  0  0  0  0  0  0  0  0  0
   58.0850   28.6490   44.3358 H   0  0  0  0  0  0  0  0  0  0  0  0
   58.1499   32.3520   42.8053 H   0  0  0  0  0  0  0  0  0  0  0  0
   59.4953   34.2854   43.6448 H   0  0  0  0  0  0  0  0  0  0  0  0
   57.7289   33.7604   47.5562 H   0  0  0  0  0  0  0  0  0  0  0  0
   60.8252   28.7096   45.9050 H   0  0  0  0  0  0  0  0  0  0  0  0
   61.5006   31.1058   45.8423 H   0  0  0  0  0  0  0  0  0  0  0  0
   64.7760   32.2450   46.5500 H   0  0  0  0  0  0  0  0  0  0  0  0
  1  2  1  0
  2  3  1  0
  3  4  1  0
  4  5  1  0
  5  6  2  0
  6  7  1  0
  7  8  2  0
  8  9  1  0
  9 10  1  0
 10 11  1  0
 11 12  1  0
 12 13  1  0
 13 14  2  0
 13 15  1  0
 15 16  1  0
 16 17  1  0
 17 18  1  0
 18 19  2  0
 18 20  1  0
 20 21  2  3
 21 22  1  0
 22 23  2  0
 23 24  1  0
 24 25  1  0
 24 26  2  0
 26 27  1  0
  8 28  1  0
 28 29  2  0
  3 30  2  0
 30 31  1  0
 30 32  1  0
 32 33  1  0
 33 34  2  0
 33  2  1  0
 29  5  1  0
 16 11  2  0
 27 21  1  0
  1 35  1  0
  1 36  1  0
  1 37  1  0
  4 38  1  0
  4 39  1  0
  6 40  1  0
  7 41  1  0
 10 42  1  0
 10 43  1  0
 17 44  1  0
 17 45  1  0
 22 46  1  0
 23 47  1  0
 26 48  1  0
 28 49  1  0
 29 50  1  0
 31 51  1  0
M  CHG  4  12  -1  15  -1  27  -1  32  -1
M  END
>  <UniqueID>  (7) 
6

>  <SMILES>  (7) 
Cn1c(Cc2ccc(OCc3[n-]c(=O)[n-]c3CC(=O)N=c3ccc(Cl)c[n-]3)cc2)c(O)[n-]c1=O

>  <Energy>  (7) 
116.37976683981037

>  <Genealogy>  (7) 
Cn1c(Cc2ccc(OCc3[n-]c(=O)[n-]c3CC(=O)N=c3ccc(Cl)c[n-]3)cc2)c(O)[n-]c1=O (protonated)
Cn1c(Cc2ccc(OCc3[n-]c(=O)[n-]c3CC(=O)N=c3ccc(Cl)c[n-]3)cc2)c(O)[n-]c1=O (3D coordinates assigned)
Cn1c(Cc2ccc(OCc3[n-]c(=O)[n-]c3CC(=O)N=c3ccc(Cl)c[n-]3)cc2)c(O)[n-]c1=O (optimized conformer: 116.37976683981037 kcal/mol)

>  <smiles>  (7) 
Cn1c(Cc2ccc(OCc3[nH]c(=O)[nH]c3CC(=O)N=c3ccc(Cl)c[nH]3)cc2)c(O)[nH]c1=O

>  <score_type>  (7) 
oracle

>  <origin>  (7) 
adg

>  <m_score__min__energy>  (7) 
-15.859999999999999

>  <m_primary>  (7) 
energy

$$$$
7:0
     RDKit          3D

 48 50  0  0  0  0  0  0  0  0999 V2000
   65.2750   32.3460   50.0750 C   0  0  0  0  0  0  0  0  0  0  0  0
   64.3190   32.7850   49.2580 C   0  0  0  0  0  0  0  0  0  0  0  0
   63.1870   31.9480   48.8150 C   0  0  0  0  0  0  0  0  0  0  0  0
   62.9120   31.9170   47.5850 O   0  0  0  0  0  0  0  0  0  0  0  0
   62.3700   31.2280   49.7540 N   0  0  0  0  0  0  0  0  0  0  0  0
   61.5440   30.1020   49.4050 C   0  0  0  0  0  0  0  0  0  0  0  0
   61.3670   29.0660   50.3330 C   0  0  0  0  0  0  0  0  0  0  0  0
   60.5970   27.9470   50.0070 C   0  0  0  0  0  0  0  0  0  0  0  0
   60.0000   27.8490   48.7490 C   0  0  0  0  0  0  0  0  0  0  0  0
   60.1680   28.8730   47.8100 C   0  0  0  0  0  0  0  0  0  0  0  0
   59.3760   28.7550   46.2430 S   0  0  0  0  0  0  0  0  0  0  0  0
   60.3850   28.8510   45.1320 O   0  0  0  0  0  0  0  0  0  0  0  0
   58.6870   27.4220   46.1550 O   0  0  0  0  0  0  0  0  0  0  0  0
   58.2170   30.0430   46.0650 N   0  0  0  0  0  0  0  0  0  0  0  0
   58.1380   31.1050   47.0750 C   0  0  0  0  0  0  0  0  0  0  0  0
   58.6570   32.4140   46.5380 C   0  0  0  0  0  0  0  0  0  0  0  0
   60.0220   32.7340   46.6360 C   0  0  0  0  0  0  0  0  0  0  0  0
   60.4910   33.9680   46.1750 C   0  0  0  0  0  0  0  0  0  0  0  0
   59.6020   34.8930   45.6220 C   0  0  0  0  0  0  0  0  0  0  0  0
   58.2450   34.5800   45.5170 C   0  0  0  0  0  0  0  0  0  0  0  0
   57.7730   33.3440   45.9680 C   0  0  0  0  0  0  0  0  0  0  0  0
   57.6750   30.2960   44.7620 C   0  0  0  0  0  0  0  0  0  0  0  0
   58.3430   31.1600   43.8810 C   0  0  0  0  0  0  0  0  0  0  0  0
   57.8160   31.4180   42.6120 C   0  0  0  0  0  0  0  0  0  0  0  0
   56.6160   30.8190   42.2190 C   0  0  0  0  0  0  0  0  0  0  0  0
   55.9440   29.9600   43.0920 C   0  0  0  0  0  0  0  0  0  0  0  0
   56.4680   29.6970   44.3620 C   0  0  0  0  0  0  0  0  0  0  0  0
   55.7920   28.8350   45.2180 O   0  0  0  0  0  0  0  0  0  0  0  0
   60.9550   29.9890   48.1310 C   0  0  0  0  0  0  0  0  0  0  0  0
   66.0955   33.0160   50.3716 H   0  0  0  0  0  0  0  0  0  0  0  0
   65.2440   31.3135   50.4531 H   0  0  0  0  0  0  0  0  0  0  0  0
   64.3760   33.8221   48.8957 H   0  0  0  0  0  0  0  0  0  0  0  0
   62.2890   31.6060   50.7240 H   0  0  0  0  0  0  0  0  0  0  0  0
   61.8378   29.1349   51.3248 H   0  0  0  0  0  0  0  0  0  0  0  0
   60.4608   27.1412   50.7433 H   0  0  0  0  0  0  0  0  0  0  0  0
   59.3963   26.9652   48.4952 H   0  0  0  0  0  0  0  0  0  0  0  0
   57.0884   31.2334   47.3780 H   0  0  0  0  0  0  0  0  0  0  0  0
   58.7593   30.8125   47.9343 H   0  0  0  0  0  0  0  0  0  0  0  0
   60.7240   32.0110   47.0770 H   0  0  0  0  0  0  0  0  0  0  0  0
   61.5614   34.2108   46.2479 H   0  0  0  0  0  0  0  0  0  0  0  0
   59.9707   35.8675   45.2694 H   0  0  0  0  0  0  0  0  0  0  0  0
   57.5462   35.3076   45.0785 H   0  0  0  0  0  0  0  0  0  0  0  0
   56.7046   33.0990   45.8760 H   0  0  0  0  0  0  0  0  0  0  0  0
   59.2852   31.6363   44.1900 H   0  0  0  0  0  0  0  0  0  0  0  0
   58.3457   32.0923   41.9230 H   0  0  0  0  0  0  0  0  0  0  0  0
   56.2003   31.0241   41.2214 H   0  0  0  0  0  0  0  0  0  0  0  0
   55.0002   29.4891   42.7798 H   0  0  0  0  0  0  0  0  0  0  0  0
   61.1129   30.7802   47.3833 H   0  0  0  0  0  0  0  0  0  0  0  0
  1  2  2  0
  2  3  1  0
  3  4  2  0
  3  5  1  0
  5  6  1  0
  6  7  2  0
  7  8  1  0
  8  9  2  0
  9 10  1  0
 10 11  1  0
 11 12  2  0
 11 13  2  0
 11 14  1  0
 14 15  1  0
 15 16  1  0
 16 17  2  0
 17 18  1  0
 18 19  2  0
 19 20  1  0
 20 21  2  0
 14 22  1  0
 22 23  2  0
 23 24  1  0
 24 25  2  0
 25 26  1  0
 26 27  2  0
 27 28  1  0
 10 29  2  0
 29  6  1  0
 21 16  1  0
 27 22  1  0
  1 30  1  0
  1 31  1  0
  2 32  1  0
  5 33  1  0
  7 34  1  0
  8 35  1  0
  9 36  1  0
 15 37  1  0
 15 38  1  0
 17 39  1  0
 18 40  1  0
 19 41  1  0
 20 42  1  0
 21 43  1  0
 23 44  1  0
 24 45  1  0
 25 46  1  0
 26 47  1  0
 29 48  1  0
M  CHG  1  28  -1
M  END
>  <UniqueID>  (8) 
7

>  <SMILES>  (8) 
C=CC(=O)Nc1cccc(S(=O)(=O)N(Cc2ccccc2)c2ccccc2[O-])c1

>  <Energy>  (8) 
55.969602147010534

>  <Genealogy>  (8) 
C=CC(=O)Nc1cccc(S(=O)(=O)N(Cc2ccccc2)c2ccccc2[O-])c1 (protonated)
C=CC(=O)Nc1cccc(S(=O)(=O)N(Cc2ccccc2)c2ccccc2[O-])c1 (3D coordinates assigned)
C=CC(=O)Nc1cccc(S(=O)(=O)N(Cc2ccccc2)c2ccccc2[O-])c1 (optimized conformer: 55.969602147010534 kcal/mol)

>  <smiles>  (8) 
C=CC(=O)Nc1cccc(S(=O)(=O)N(Cc2ccccc2)c2ccccc2O)c1

>  <score_type>  (8) 
oracle

>  <origin>  (8) 
adg

>  <m_score__min__energy>  (8) 
-11.75

>  <m_primary>  (8) 
energy

$$$$
8:0
     RDKit          3D

 73 77  0  0  0  0  0  0  0  0999 V2000
   63.3097   31.6894   51.4497 H   0  0  0  0  0  0  0  0  0  0  0  0
   62.4390   31.1940   51.9040 C   0  0  0  0  0  0  0  0  0  0  0  0
   62.2878   30.1131   51.7670 H   0  0  0  0  0  0  0  0  0  0  0  0
   61.5640   31.9060   52.6230 C   0  0  0  0  0  0  0  0  0  0  0  0
   61.7296   32.9860   52.7505 H   0  0  0  0  0  0  0  0  0  0  0  0
   60.3540   31.2670   53.2650 C   0  0  0  0  0  0  0  0  0  0  0  0
   60.6647   30.3682   53.8178 H   0  0  0  0  0  0  0  0  0  0  0  0
   59.8875   31.9826   53.9580 H   0  0  0  0  0  0  0  0  0  0  0  0
   59.3890   30.8930   52.2300 N   0  0  0  0  0  0  0  0  0  0  0  0
   59.0100   29.6630   51.8460 C   0  0  0  0  0  0  0  0  0  0  0  0
   59.6440   28.1420   52.5460 S   0  0  0  0  0  0  0  0  0  0  0  0
   61.1550   28.1210   51.5000 C   0  0  0  0  0  0  0  0  0  0  0  0
   61.7953   28.9707   51.7792 H   0  0  0  0  0  0  0  0  0  0  0  0
   61.6775   27.1673   51.6658 H   0  0  0  0  0  0  0  0  0  0  0  0
   60.8140   28.2250   50.0440 C   0  0  0  0  0  0  0  0  0  0  0  0
   60.5880   27.1720   49.2890 O   0  0  0  0  0  0  0  0  0  0  0  0
   60.3410   27.5940   48.0680 C   0  0  0  0  0  0  0  0  0  0  0  0
   60.2620   26.7650   46.8710 C   0  0  0  0  0  0  0  0  0  0  0  0
   61.3500   26.3100   46.4020 O   0  0  0  0  0  0  0  0  0  0  0  0
   59.0730   26.7510   46.0430 N   0  0  0  0  0  0  0  0  0  0  0  0
   57.8890   26.3870   46.4920 C   0  0  0  0  0  0  0  0  0  0  0  0
   57.7210   25.0770   46.9470 C   0  0  0  0  0  0  0  0  0  0  0  0
   58.5807   24.5153   47.3412 H   0  0  0  0  0  0  0  0  0  0  0  0
   56.4630   24.4850   46.9000 C   0  0  0  0  0  0  0  0  0  0  0  0
   56.3176   23.4690   47.2958 H   0  0  0  0  0  0  0  0  0  0  0  0
   55.4260   25.1550   46.3710 N   0  0  0  0  0  0  0  0  0  0  0  0
   55.5460   26.4390   45.9560 C   0  0  0  0  0  0  0  0  0  0  0  0
   54.6724   26.9583   45.5351 H   0  0  0  0  0  0  0  0  0  0  0  0
   56.7720   27.1140   46.0570 C   0  0  0  0  0  0  0  0  0  0  0  0
   57.0120   28.6060   45.1360 S   0  0  0  0  0  0  0  0  0  0  0  0
   55.6780   29.2800   44.9790 O   0  0  0  0  0  0  0  0  0  0  0  0
   57.5550   28.3110   43.7680 O   0  0  0  0  0  0  0  0  0  0  0  0
   58.0730   29.7050   45.9930 N   0  0  0  0  0  0  0  0  0  0  0  0
   57.9960   31.1540   45.9720 C   0  0  0  0  0  0  0  0  0  0  0  0
   58.1830   31.9130   47.1570 C   0  0  0  0  0  0  0  0  0  0  0  0
   58.3850   31.4077   48.1130 H   0  0  0  0  0  0  0  0  0  0  0  0
   58.1080   33.3140   47.0990 C   0  0  0  0  0  0  0  0  0  0  0  0
   58.2453   33.9124   48.0117 H   0  0  0  0  0  0  0  0  0  0  0  0
   57.8580   33.9460   45.8760 C   0  0  0  0  0  0  0  0  0  0  0  0
   57.7490   35.0400   45.8391 H   0  0  0  0  0  0  0  0  0  0  0  0
   57.7460   33.1990   44.7030 C   0  0  0  0  0  0  0  0  0  0  0  0
   57.5979   33.7104   43.7404 H   0  0  0  0  0  0  0  0  0  0  0  0
   57.8210   31.8060   44.7450 C   0  0  0  0  0  0  0  0  0  0  0  0
   57.7590   31.0390   43.5760 O   0  0  0  0  0  0  0  0  0  0  0  0
   57.4070   31.5440   42.3040 C   0  0  0  0  0  0  0  0  0  0  0  0
   56.7819   32.4409   42.4257 H   0  0  0  0  0  0  0  0  0  0  0  0
   58.3194   31.8057   41.7481 H   0  0  0  0  0  0  0  0  0  0  0  0
   56.8458   30.7785   41.7481 H   0  0  0  0  0  0  0  0  0  0  0  0
   60.3940   28.9740   48.0120 C   0  0  0  0  0  0  0  0  0  0  0  0
   60.2366   29.6090   47.1277 H   0  0  0  0  0  0  0  0  0  0  0  0
   60.6850   29.3900   49.2940 C   0  0  0  0  0  0  0  0  0  0  0  0
   60.7926   30.4255   49.6493 H   0  0  0  0  0  0  0  0  0  0  0  0
   58.1380   29.6980   50.8220 N   0  0  0  0  0  0  0  0  0  0  0  0
   57.9380   30.9780   50.5480 N   0  0  0  0  0  0  0  0  0  0  0  0
   58.6910   31.7020   51.3980 C   0  0  0  0  0  0  0  0  0  0  0  0
   58.8810   33.1820   51.2760 C   0  0  0  0  0  0  0  0  0  0  0  0
   57.8998   33.6763   51.2219 H   0  0  0  0  0  0  0  0  0  0  0  0
   59.4282   33.5594   52.1524 H   0  0  0  0  0  0  0  0  0  0  0  0
   59.6570   33.4730   50.0340 C   0  0  0  0  0  0  0  0  0  0  0  0
   59.8710   34.6640   49.7040 O   0  0  0  0  0  0  0  0  0  0  0  0
   60.2280   32.3990   49.2800 N   0  0  0  0  0  0  0  0  0  0  0  0
   59.8570   31.4350   49.4070 H   0  0  0  0  0  0  0  0  0  0  0  0
   61.3610   32.5930   48.4270 C   0  0  0  0  0  0  0  0  0  0  0  0
   61.2910   33.5500   47.4130 C   0  0  0  0  0  0  0  0  0  0  0  0
   60.3540   34.0999   47.2408 H   0  0  0  0  0  0  0  0  0  0  0  0
   62.4110   33.8110   46.6150 C   0  0  0  0  0  0  0  0  0  0  0  0
   62.3629   34.5943   45.8442 H   0  0  0  0  0  0  0  0  0  0  0  0
   63.5750   33.0910   46.7900 C   0  0  0  0  0  0  0  0  0  0  0  0
   64.4366   33.2598   46.1273 H   0  0  0  0  0  0  0  0  0  0  0  0
   63.6500   32.1450   47.8170 C   0  0  0  0  0  0  0  0  0  0  0  0
   64.5850   31.5885   47.9782 H   0  0  0  0  0  0  0  0  0  0  0  0
   62.5510   31.9010   48.6380 C   0  0  0  0  0  0  0  0  0  0  0  0
   62.6231   31.1635   49.4509 H   0  0  0  0  0  0  0  0  0  0  0  0
  1  2  1  0
  2  3  1  0
  2  4  2  0
  4  5  1  0
  4  6  1  0
  6  7  1  0
  6  8  1  0
  6  9  1  0
  9 10  1  0
 10 11  1  0
 11 12  1  0
 12 13  1  0
 12 14  1  0
 12 15  1  0
 15 16  1  0
 16 17  1  0
 17 18  1  0
 18 19  2  0
 18 20  1  0
 20 21  2  0
 21 22  1  0
 22 23  1  0
 22 24  2  0
 24 25  1  0
 24 26  1  0
 26 27  1  0
 27 28  1  0
 27 29  2  0
 29 30  1  0
 30 31  2  0
 30 32  2  0
 30 33  1  0
 33 34  1  0
 34 35  2  0
 35 36  1  0
 35 37  1  0
 37 38  1  0
 37 39  2  0
 39 40  1  0
 39 41  1  0
 41 42  1  0
 41 43  2  0
 43 44  1  0
 44 45  1  0
 45 46  1  0
 45 47  1  0
 45 48  1  0
 17 49  2  0
 49 50  1  0
 49 51  1  0
 51 52  1  0
 10 53  2  0
 53 54  1  0
 54 55  2  0
 55 56  1  0
 56 57  1  0
 56 58  1  0
 56 59  1  0
 59 60  2  0
 59 61  1  0
 61 62  1  0
 61 63  1  0
 63 64  2  0
 64 65  1  0
 64 66  1  0
 66 67  1  0
 66 68  2  0
 68 69  1  0
 68 70  1  0
 70 71  1  0
 70 72  2  0
 72 73  1  0
 55  9  1  0
 72 63  1  0
 51 15  2  0
 29 21  1  0
 43 34  1  0
M  CHG  2  26  -1  33  -1
M  END
>  <UniqueID>  (9) 
8

>  <SMILES>  (9) 
C=CCn1c(CC(=O)Nc2ccccc2)nnc1SCc1ccc(C(=O)/N=c2/cc[n-]cc2S(=O)(=O)[N-]c2ccccc2OC)o1

>  <Energy>  (9) 
195.35863405070452

>  <Genealogy>  (9) 
C=CCn1c(CC(=O)Nc2ccccc2)nnc1SCc1ccc(C(=O)N=c2cc[n-]cc2S(=O)(=O)[N-]c2ccccc2OC)o1 (protonated)
C=CCn1c(CC(=O)Nc2ccccc2)nnc1SCc1ccc(C(=O)/N=c2/cc[n-]cc2S(=O)(=O)[N-]c2ccccc2OC)o1 (cis-trans isomerization)
C=CCn1c(CC(=O)Nc2ccccc2)nnc1SCc1ccc(C(=O)/N=c2/cc[n-]cc2S(=O)(=O)[N-]c2ccccc2OC)o1 (3D coordinates assigned)
C=CCn1c(CC(=O)Nc2ccccc2)nnc1SCc1ccc(C(=O)/N=c2/cc[n-]cc2S(=O)(=O)[N-]c2ccccc2OC)o1 (optimized conformer: 195.35863405070452 kcal/mol)

>  <smiles>  (9) 
C=CCn1c(CC(=O)Nc2ccccc2)nnc1SCc1ccc(C(=O)N=c2cc[nH]cc2S(=O)(=O)Nc2ccccc2OC)o1

>  <score_type>  (9) 
oracle

>  <origin>  (9) 
adg

>  <m_score__min__energy>  (9) 
-14.73

>  <m_primary>  (9) 
energy

$$$$
9:0
     RDKit          3D

 47 50  0  0  0  0  0  0  0  0999 V2000
   59.8550   35.3540   46.7350 O   0  0  0  0  0  0  0  0  0  0  0  0
   59.6070   34.1650   47.0790 C   0  0  0  0  0  0  0  0  0  0  0  0
   60.0660   33.6870   48.3530 N   0  0  0  0  0  0  0  0  0  0  0  0
   60.9460   34.4950   49.1950 C   0  0  0  0  0  0  0  0  0  0  0  0
   62.2920   33.8350   49.3440 C   0  0  0  0  0  0  0  0  0  0  0  0
   62.7340   33.4190   50.6110 C   0  0  0  0  0  0  0  0  0  0  0  0
   63.9980   32.8410   50.7630 C   0  0  0  0  0  0  0  0  0  0  0  0
   64.8340   32.6850   49.6540 C   0  0  0  0  0  0  0  0  0  0  0  0
   66.0610   32.1250   49.8040 F   0  0  0  0  0  0  0  0  0  0  0  0
   64.4100   33.1130   48.3930 C   0  0  0  0  0  0  0  0  0  0  0  0
   63.1470   33.6930   48.2360 C   0  0  0  0  0  0  0  0  0  0  0  0
   62.7610   34.1170   47.0050 F   0  0  0  0  0  0  0  0  0  0  0  0
   58.8450   33.2780   46.1620 C   0  0  0  0  0  0  0  0  0  0  0  0
   58.0570   32.2420   46.6830 C   0  0  0  0  0  0  0  0  0  0  0  0
   57.3690   31.4160   45.8560 N   0  0  0  0  0  0  0  0  0  0  0  0
   57.4030   31.5350   44.5020 C   0  0  0  0  0  0  0  0  0  0  0  0
   56.6610   30.6500   43.6780 C   0  0  0  0  0  0  0  0  0  0  0  0
   55.8330   29.5420   44.2340 C   0  0  0  0  0  0  0  0  0  0  0  0
   54.6740   29.3430   43.7780 O   0  0  0  0  0  0  0  0  0  0  0  0
   56.3670   28.6560   45.2280 N   0  0  0  0  0  0  0  0  0  0  0  0
   57.7530   28.4350   45.5270 C   0  0  0  0  0  0  0  0  0  0  0  0
   58.7490   28.4770   44.5310 C   0  0  0  0  0  0  0  0  0  0  0  0
   60.0850   28.2330   44.8640 C   0  0  0  0  0  0  0  0  0  0  0  0
   60.4350   27.9330   46.1840 C   0  0  0  0  0  0  0  0  0  0  0  0
   59.4490   27.8640   47.1710 C   0  0  0  0  0  0  0  0  0  0  0  0
   58.1120   28.1070   46.8410 C   0  0  0  0  0  0  0  0  0  0  0  0
   56.7080   30.8290   42.2820 C   0  0  0  0  0  0  0  0  0  0  0  0
   57.4760   31.8450   41.7150 C   0  0  0  0  0  0  0  0  0  0  0  0
   58.2100   32.7080   42.5240 C   0  0  0  0  0  0  0  0  0  0  0  0
   58.1820   32.5670   43.9220 C   0  0  0  0  0  0  0  0  0  0  0  0
   58.9070   33.4370   44.7620 C   0  0  0  0  0  0  0  0  0  0  0  0
   59.5970   34.3670   44.2610 O   0  0  0  0  0  0  0  0  0  0  0  0
   59.7310   32.7610   48.7010 H   0  0  0  0  0  0  0  0  0  0  0  0
   61.0781   35.4850   48.7341 H   0  0  0  0  0  0  0  0  0  0  0  0
   60.4890   34.5960   50.1905 H   0  0  0  0  0  0  0  0  0  0  0  0
   62.0825   33.5486   51.4877 H   0  0  0  0  0  0  0  0  0  0  0  0
   64.3347   32.5088   51.7561 H   0  0  0  0  0  0  0  0  0  0  0  0
   65.0711   32.9935   47.5220 H   0  0  0  0  0  0  0  0  0  0  0  0
   57.9962   32.0979   47.7718 H   0  0  0  0  0  0  0  0  0  0  0  0
   58.4750   28.7021   43.4897 H   0  0  0  0  0  0  0  0  0  0  0  0
   60.8617   28.2771   44.0863 H   0  0  0  0  0  0  0  0  0  0  0  0
   61.4879   27.7511   46.4455 H   0  0  0  0  0  0  0  0  0  0  0  0
   59.7241   27.6186   48.2074 H   0  0  0  0  0  0  0  0  0  0  0  0
   57.3367   28.0402   47.6185 H   0  0  0  0  0  0  0  0  0  0  0  0
   56.1305   30.1576   41.6296 H   0  0  0  0  0  0  0  0  0  0  0  0
   57.5022   31.9655   40.6219 H   0  0  0  0  0  0  0  0  0  0  0  0
   58.8152   33.5046   42.0665 H   0  0  0  0  0  0  0  0  0  0  0  0
  1  2  2  0
  2  3  1  0
  3  4  1  0
  4  5  1  0
  5  6  2  0
  6  7  1  0
  7  8  2  0
  8  9  1  0
  8 10  1  0
 10 11  2  0
 11 12  1  0
  2 13  1  0
 13 14  2  0
 14 15  1  0
 15 16  1  0
 16 17  2  0
 17 18  1  0
 18 19  2  0
 18 20  1  0
 20 21  1  0
 21 22  2  0
 22 23  1  0
 23 24  2  0
 24 25  1  0
 25 26  2  0
 17 27  1  0
 27 28  2  0
 28 29  1  0
 29 30  2  0
 30 31  1  0
 31 32  2  0
 11  5  1  0
 31 13  1  0
 30 16  1  0
 26 21  1  0
  3 33  1  0
  4 34  1  0
  4 35  1  0
  6 36  1  0
  7 37  1  0
 10 38  1  0
 14 39  1  0
 22 40  1  0
 23 41  1  0
 24 42  1  0
 25 43  1  0
 26 44  1  0
 27 45  1  0
 28 46  1  0
 29 47  1  0
M  CHG  2  15  -1  20  -1
M  END
>  <UniqueID>  (10) 
9

>  <SMILES>  (10) 
O=C(NCc1ccc(F)cc1F)c1c[n-]c2c(C(=O)[N-]c3ccccc3)cccc2c1=O

>  <Energy>  (10) 
66.45888209675118

>  <Genealogy>  (10) 
O=C(NCc1ccc(F)cc1F)c1c[n-]c2c(C(=O)[N-]c3ccccc3)cccc2c1=O (protonated)
O=C(NCc1ccc(F)cc1F)c1c[n-]c2c(C(=O)[N-]c3ccccc3)cccc2c1=O (3D coordinates assigned)
O=C(NCc1ccc(F)cc1F)c1c[n-]c2c(C(=O)[N-]c3ccccc3)cccc2c1=O (optimized conformer: 66.45888209675118 kcal/mol)

>  <smiles>  (10) 
O=C(NCc1ccc(F)cc1F)c1c[nH]c2c(C(=O)Nc3ccccc3)cccc2c1=O

>  <score_type>  (10) 
oracle

>  <origin>  (10) 
adg

>  <m_score__min__energy>  (10) 
-12.27

>  <m_primary>  (10) 
energy

$$$$
10:0
     RDKit          3D

 63 65  0  0  0  0  0  0  0  0999 V2000
   58.7190   32.1340   50.7220 C   0  0  0  0  0  0  0  0  0  0  0  0
   58.5680   30.9730   49.7380 C   0  0  0  0  0  0  0  0  0  0  0  0
   59.8800   30.6730   49.0000 C   0  0  0  0  0  0  0  0  0  0  0  0
   59.6410   29.9320   47.7610 N   0  0  0  0  0  0  0  0  0  0  0  0
   60.1100   28.5870   47.5840 C   0  0  0  0  0  0  0  0  0  0  0  0
   60.7320   28.0070   48.5170 O   0  0  0  0  0  0  0  0  0  0  0  0
   59.7800   27.8470   46.3080 C   0  0  0  0  0  0  0  0  0  0  0  0
   59.8110   28.8230   45.1010 C   0  0  0  0  0  0  0  0  0  0  0  0
   58.6690   28.5690   44.1200 C   0  0  0  0  0  0  0  0  0  0  0  0
   57.3940   28.6510   44.8470 N   0  0  0  0  0  0  0  0  0  0  0  0
   56.3540   29.5770   44.4640 C   0  0  0  0  0  0  0  0  0  0  0  0
   55.1570   29.3260   44.7800 O   0  0  0  0  0  0  0  0  0  0  0  0
   56.6790   30.8450   43.7070 C   0  0  0  0  0  0  0  0  0  0  0  0
   57.8760   31.6120   44.2810 C   0  0  0  0  0  0  0  0  0  0  0  0
   57.8090   31.6140   45.7470 N   0  0  0  0  0  0  0  0  0  0  0  0
   57.9510   33.2300   46.3750 S   0  0  0  0  0  0  0  0  0  0  0  0
   56.8890   33.4540   47.4160 O   0  0  0  0  0  0  0  0  0  0  0  0
   57.7580   34.2160   45.2570 O   0  0  0  0  0  0  0  0  0  0  0  0
   59.5550   33.4540   47.0710 C   0  0  0  0  0  0  0  0  0  0  0  0
   59.7290   34.1980   48.2470 C   0  0  0  0  0  0  0  0  0  0  0  0
   61.0040   34.3470   48.8010 C   0  0  0  0  0  0  0  0  0  0  0  0
   62.1200   33.7740   48.1790 C   0  0  0  0  0  0  0  0  0  0  0  0
   63.3820   33.9390   48.7710 O   0  0  0  0  0  0  0  0  0  0  0  0
   64.0360   32.9830   49.5640 C   0  0  0  0  0  0  0  0  0  0  0  0
   63.3490   31.9010   50.1460 C   0  0  0  0  0  0  0  0  0  0  0  0
   64.0410   30.9570   50.9100 C   0  0  0  0  0  0  0  0  0  0  0  0
   65.4210   31.0790   51.0970 C   0  0  0  0  0  0  0  0  0  0  0  0
   66.1110   32.1430   50.5090 C   0  0  0  0  0  0  0  0  0  0  0  0
   65.4220   33.0870   49.7390 C   0  0  0  0  0  0  0  0  0  0  0  0
   61.9410   33.0080   47.0130 C   0  0  0  0  0  0  0  0  0  0  0  0
   60.6630   32.8510   46.4650 C   0  0  0  0  0  0  0  0  0  0  0  0
   57.2140   27.8630   46.0770 C   0  0  0  0  0  0  0  0  0  0  0  0
   58.4620   27.0310   46.4150 C   0  0  0  0  0  0  0  0  0  0  0  0
   58.6691   31.7507   51.7518 H   0  0  0  0  0  0  0  0  0  0  0  0
   59.6889   32.6274   50.5610 H   0  0  0  0  0  0  0  0  0  0  0  0
   57.9076   32.8590   50.5610 H   0  0  0  0  0  0  0  0  0  0  0  0
   58.2587   30.0748   50.2927 H   0  0  0  0  0  0  0  0  0  0  0  0
   57.8134   31.2568   48.9896 H   0  0  0  0  0  0  0  0  0  0  0  0
   60.3791   31.6228   48.7578 H   0  0  0  0  0  0  0  0  0  0  0  0
   60.5112   30.0550   49.6555 H   0  0  0  0  0  0  0  0  0  0  0  0
   59.1040   30.3750   46.9800 H   0  0  0  0  0  0  0  0  0  0  0  0
   60.5588   27.0897   46.1348 H   0  0  0  0  0  0  0  0  0  0  0  0
   59.7312   29.8535   45.4774 H   0  0  0  0  0  0  0  0  0  0  0  0
   60.7575   28.6633   44.5637 H   0  0  0  0  0  0  0  0  0  0  0  0
   58.6900   29.3274   43.3235 H   0  0  0  0  0  0  0  0  0  0  0  0
   58.7786   27.5720   43.6683 H   0  0  0  0  0  0  0  0  0  0  0  0
   56.9041   30.5792   42.6636 H   0  0  0  0  0  0  0  0  0  0  0  0
   55.8027   31.5046   43.7907 H   0  0  0  0  0  0  0  0  0  0  0  0
   58.8091   31.1267   43.9588 H   0  0  0  0  0  0  0  0  0  0  0  0
   57.8519   32.6491   43.9151 H   0  0  0  0  0  0  0  0  0  0  0  0
   58.8606   34.6652   48.7345 H   0  0  0  0  0  0  0  0  0  0  0  0
   61.1313   34.9185   49.7322 H   0  0  0  0  0  0  0  0  0  0  0  0
   62.2637   31.7980   49.9990 H   0  0  0  0  0  0  0  0  0  0  0  0
   63.4981   30.1156   51.3654 H   0  0  0  0  0  0  0  0  0  0  0  0
   65.9625   30.3396   51.7053 H   0  0  0  0  0  0  0  0  0  0  0  0
   67.1975   32.2385   50.6517 H   0  0  0  0  0  0  0  0  0  0  0  0
   65.9719   33.9154   49.2685 H   0  0  0  0  0  0  0  0  0  0  0  0
   62.8073   32.5314   46.5309 H   0  0  0  0  0  0  0  0  0  0  0  0
   60.5286   32.2505   45.5532 H   0  0  0  0  0  0  0  0  0  0  0  0
   57.0078   28.5493   46.9116 H   0  0  0  0  0  0  0  0  0  0  0  0
   56.3758   27.1690   45.9166 H   0  0  0  0  0  0  0  0  0  0  0  0
   58.3648   26.6546   47.4440 H   0  0  0  0  0  0  0  0  0  0  0  0
   58.5207   26.2118   45.6833 H   0  0  0  0  0  0  0  0  0  0  0  0
  1  2  1  0
  2  3  1  0
  3  4  1  0
  4  5  1  0
  5  6  2  0
  5  7  1  0
  7  8  1  0
  8  9  1  0
  9 10  1  0
 10 11  1  0
 11 12  2  0
 11 13  1  0
 13 14  1  0
 14 15  1  0
 15 16  1  0
 16 17  2  0
 16 18  2  0
 16 19  1  0
 19 20  2  0
 20 21  1  0
 21 22  2  0
 22 23  1  0
 23 24  1  0
 24 25  2  0
 25 26  1  0
 26 27  2  0
 27 28  1  0
 28 29  2  0
 22 30  1  0
 30 31  2  0
 10 32  1  0
 32 33  1  0
 33  7  1  0
 31 19  1  0
 29 24  1  0
  1 34  1  0
  1 35  1  0
  1 36  1  0
  2 37  1  0
  2 38  1  0
  3 39  1  0
  3 40  1  0
  4 41  1  0
  7 42  1  0
  8 43  1  0
  8 44  1  0
  9 45  1  0
  9 46  1  0
 13 47  1  0
 13 48  1  0
 14 49  1  0
 14 50  1  0
 20 51  1  0
 21 52  1  0
 25 53  1  0
 26 54  1  0
 27 55  1  0
 28 56  1  0
 29 57  1  0
 30 58  1  0
 31 59  1  0
 32 60  1  0
 32 61  1  0
 33 62  1  0
 33 63  1  0
M  CHG  1  15  -1
M  END
>  <UniqueID>  (11) 
10

>  <SMILES>  (11) 
CCCNC(=O)C1CCN(C(=O)CC[N-]S(=O)(=O)c2ccc(Oc3ccccc3)cc2)CC1

>  <Energy>  (11) 
67.21036452266975

>  <Genealogy>  (11) 
CCCNC(=O)C1CCN(C(=O)CC[N-]S(=O)(=O)c2ccc(Oc3ccccc3)cc2)CC1 (protonated)
CCCNC(=O)C1CCN(C(=O)CC[N-]S(=O)(=O)c2ccc(Oc3ccccc3)cc2)CC1 (3D coordinates assigned)
CCCNC(=O)C1CCN(C(=O)CC[N-]S(=O)(=O)c2ccc(Oc3ccccc3)cc2)CC1 (nonaromatic ring conformer: 67.21036452266975 kcal/mol)

>  <smiles>  (11) 
CCCNC(=O)C1CCN(C(=O)CCNS(=O)(=O)c2ccc(Oc3ccccc3)cc2)CC1

>  <score_type>  (11) 
oracle

>  <origin>  (11) 
adg

>  <m_score__min__energy>  (11) 
-10.119999999999999

>  <m_primary>  (11) 
energy

$$$$
11:0
     RDKit          3D

 38 40  0  0  0  0  0  0  0  0999 V2000
   55.1440   27.5350   45.3630 H   0  0  0  0  0  0  0  0  0  0  0  0
   55.1430   26.7060   45.9440 O   0  0  0  0  0  0  0  0  0  0  0  0
   56.2390   25.8430   45.9870 C   0  0  0  0  0  0  0  0  0  0  0  0
   56.0360   24.4570   46.0520 C   0  0  0  0  0  0  0  0  0  0  0  0
   55.0132   24.0539   46.0889 H   0  0  0  0  0  0  0  0  0  0  0  0
   57.1290   23.5860   46.0700 C   0  0  0  0  0  0  0  0  0  0  0  0
   56.9657   22.4990   46.1117 H   0  0  0  0  0  0  0  0  0  0  0  0
   58.4280   24.0960   46.0350 C   0  0  0  0  0  0  0  0  0  0  0  0
   59.2872   23.4093   46.0484 H   0  0  0  0  0  0  0  0  0  0  0  0
   58.6400   25.4760   45.9830 C   0  0  0  0  0  0  0  0  0  0  0  0
   59.6663   25.8714   45.9631 H   0  0  0  0  0  0  0  0  0  0  0  0
   57.5490   26.3620   45.9560 C   0  0  0  0  0  0  0  0  0  0  0  0
   57.7840   27.8470   45.8400 C   0  0  0  0  0  0  0  0  0  0  0  0
   58.8659   28.0416   45.8009 H   0  0  0  0  0  0  0  0  0  0  0  0
   57.3431   28.3493   46.7137 H   0  0  0  0  0  0  0  0  0  0  0  0
   57.1570   28.3640   44.6270 N   0  0  0  0  0  0  0  0  0  0  0  0
   56.2870   29.5020   44.5820 C   0  0  0  0  0  0  0  0  0  0  0  0
   55.0700   29.3530   44.8650 O   0  0  0  0  0  0  0  0  0  0  0  0
   56.7800   30.8410   44.2100 C   0  0  0  0  0  0  0  0  0  0  0  0
   57.2030   31.0330   43.0400 O   0  0  0  0  0  0  0  0  0  0  0  0
   56.8360   31.9230   45.1530 N   0  0  0  0  0  0  0  0  0  0  0  0
   57.8730   32.6680   45.3940 C   0  0  0  0  0  0  0  0  0  0  0  0
   58.9800   32.2440   46.0400 N   0  0  0  0  0  0  0  0  0  0  0  0
   59.8830   33.2460   46.2190 C   0  0  0  0  0  0  0  0  0  0  0  0
   61.1720   33.0070   46.9080 C   0  0  0  0  0  0  0  0  0  0  0  0
   62.2920   33.7990   46.5910 C   0  0  0  0  0  0  0  0  0  0  0  0
   62.1967   34.6082   45.8520 H   0  0  0  0  0  0  0  0  0  0  0  0
   63.5240   33.5650   47.2080 C   0  0  0  0  0  0  0  0  0  0  0  0
   64.3932   34.1893   46.9534 H   0  0  0  0  0  0  0  0  0  0  0  0
   63.6530   32.5400   48.1470 C   0  0  0  0  0  0  0  0  0  0  0  0
   64.6234   32.3570   48.6317 H   0  0  0  0  0  0  0  0  0  0  0  0
   62.5500   31.7470   48.4710 C   0  0  0  0  0  0  0  0  0  0  0  0
   62.6529   30.9403   49.2117 H   0  0  0  0  0  0  0  0  0  0  0  0
   61.3150   31.9760   47.8560 C   0  0  0  0  0  0  0  0  0  0  0  0
   60.4504   31.3470   48.1144 H   0  0  0  0  0  0  0  0  0  0  0  0
   59.4790   34.4850   45.7090 C   0  0  0  0  0  0  0  0  0  0  0  0
   60.0587   35.4189   45.7497 H   0  0  0  0  0  0  0  0  0  0  0  0
   57.9520   34.3000   45.0220 S   0  0  0  0  0  0  0  0  0  0  0  0
  1  2  1  0
  2  3  1  0
  3  4  2  0
  4  5  1  0
  4  6  1  0
  6  7  1  0
  6  8  2  0
  8  9  1  0
  8 10  1  0
 10 11  1  0
 10 12  2  0
 12 13  1  0
 13 14  1  0
 13 15  1  0
 13 16  1  0
 16 17  1  0
 17 18  2  0
 17 19  1  0
 19 20  2  0
 19 21  1  0
 21 22  2  0
 22 23  1  0
 23 24  1  0
 24 25  1  0
 25 26  2  0
 26 27  1  0
 26 28  1  0
 28 29  1  0
 28 30  2  0
 30 31  1  0
 30 32  1  0
 32 33  1  0
 32 34  2  0
 34 35  1  0
 24 36  2  0
 36 37  1  0
 36 38  1  0
 12  3  1  0
 38 22  1  0
 34 25  1  0
M  CHG  2  16  -1  23  -1
M  END
>  <UniqueID>  (12) 
11

>  <SMILES>  (12) 
O=C(/N=c1\[n-]c(-c2ccccc2)cs1)C(=O)[N-]Cc1ccccc1O

>  <Energy>  (12) 
73.38615793233808

>  <Genealogy>  (12) 
O=C(N=c1[n-]c(-c2ccccc2)cs1)C(=O)[N-]Cc1ccccc1O (protonated)
O=C(/N=c1\[n-]c(-c2ccccc2)cs1)C(=O)[N-]Cc1ccccc1O (cis-trans isomerization)
O=C(/N=c1\[n-]c(-c2ccccc2)cs1)C(=O)[N-]Cc1ccccc1O (3D coordinates assigned)
O=C(/N=c1\[n-]c(-c2ccccc2)cs1)C(=O)[N-]Cc1ccccc1O (optimized conformer: 73.38615793233808 kcal/mol)

>  <smiles>  (12) 
O=C(N=c1[nH]c(-c2ccccc2)cs1)C(=O)NCc1ccccc1O

>  <score_type>  (12) 
oracle

>  <origin>  (12) 
adg

>  <m_score__min__energy>  (12) 
-12.609999999999999

>  <m_primary>  (12) 
energy

$$$$
12:0
     RDKit          3D

 54 56  0  0  1  0  0  0  0  0999 V2000
   59.0630   33.9020   44.3140 C   0  0  0  0  0  0  0  0  0  0  0  0
   58.2750   32.6890   43.8290 C   0  0  0  0  0  0  0  0  0  0  0  0
   57.2550   32.0300   45.0970 S   0  0  0  0  0  0  0  0  0  0  0  0
   56.2710   31.0450   44.5120 O   0  0  0  0  0  0  0  0  0  0  0  0
   56.4220   33.1610   45.6410 O   0  0  0  0  0  0  0  0  0  0  0  0
   58.1990   31.2810   46.3350 C   0  0  0  0  0  0  0  0  0  0  0  0
   58.4150   29.9010   46.2180 C   0  0  0  0  0  0  0  0  0  0  0  0
   59.1820   29.1910   47.0880 C   0  0  0  0  0  0  0  0  0  0  0  0
   55.9860   24.7520   46.8810 N   0  0  0  0  0  0  0  0  0  0  0  0
   56.8180   25.4680   46.2190 C   0  0  0  0  0  0  0  0  0  0  0  0
   58.6330   27.0360   44.9020 C   0  0  0  0  0  0  0  0  0  0  0  0
   57.7610   26.2330   44.1970 C   0  0  0  0  0  0  0  0  0  0  0  0
   56.8840   25.4780   44.8850 N   0  0  0  0  0  0  0  0  0  0  0  0
   58.5720   27.0350   46.2880 C   0  0  0  0  0  0  0  0  0  0  0  0
   59.3910   27.7890   46.9560 N   0  0  0  0  0  0  0  0  0  0  0  0
   55.1910   23.7380   46.2000 C   0  0  0  0  0  0  0  0  0  0  0  0
   54.0710   24.4480   45.5180 C   0  0  0  0  0  0  0  0  0  0  0  0
   53.2420   23.7910   44.8060 O   0  0  0  0  0  0  0  0  0  0  0  0
   53.8760   25.8170   45.6200 O   0  0  0  0  0  0  0  0  0  0  0  0
   57.6680   26.2520   46.9050 N   0  0  0  0  0  0  0  0  0  0  0  0
   59.7720   29.8740   48.1310 C   0  0  0  0  0  0  0  0  0  0  0  0
   59.5610   31.2310   48.2490 C   0  0  0  0  0  0  0  0  0  0  0  0
   58.7910   31.9740   47.3880 C   0  0  0  0  0  0  0  0  0  0  0  0
   58.5670   33.3620   47.5630 N   0  0  0  0  0  0  0  0  0  0  0  0
   59.7490   34.5160   47.9980 S   0  0  0  0  0  0  0  0  0  0  0  0
   59.4910   34.9680   49.4240 O   0  0  0  0  0  0  0  0  0  0  0  0
   59.7210   35.7120   47.0800 O   0  0  0  0  0  0  0  0  0  0  0  0
   61.3600   33.8640   47.9070 C   0  0  0  0  0  0  0  0  0  0  0  0
   62.0650   33.6520   46.7560 C   0  0  0  0  0  0  0  0  0  0  0  0
   63.3540   33.1120   46.7980 C   0  0  0  0  0  0  0  0  0  0  0  0
   63.9410   32.7850   47.9880 C   0  0  0  0  0  0  0  0  0  0  0  0
   63.2430   32.9930   49.1690 C   0  0  0  0  0  0  0  0  0  0  0  0
   61.9720   33.5260   49.1120 C   0  0  0  0  0  0  0  0  0  0  0  0
   59.0728   33.9171   45.4139 H   0  0  0  0  0  0  0  0  0  0  0  0
   60.0954   33.8425   43.9389 H   0  0  0  0  0  0  0  0  0  0  0  0
   58.5890   34.8211   43.9389 H   0  0  0  0  0  0  0  0  0  0  0  0
   57.6413   32.9907   42.9820 H   0  0  0  0  0  0  0  0  0  0  0  0
   58.9923   31.9119   43.5265 H   0  0  0  0  0  0  0  0  0  0  0  0
   57.9410   29.3663   45.3817 H   0  0  0  0  0  0  0  0  0  0  0  0
   59.3641   27.6663   44.3745 H   0  0  0  0  0  0  0  0  0  0  0  0
   57.7816   26.2100   43.0974 H   0  0  0  0  0  0  0  0  0  0  0  0
   56.2340   24.8760   44.3160 H   0  0  0  0  0  0  0  0  0  0  0  0
   55.8085   23.2078   45.4600 H   0  0  0  0  0  0  0  0  0  0  0  0
   54.8076   22.9945   46.9143 H   0  0  0  0  0  0  0  0  0  0  0  0
   54.2880   26.3310   46.4120 H   0  0  0  0  0  0  0  0  0  0  0  0
   57.6490   26.2730   47.9540 H   0  0  0  0  0  0  0  0  0  0  0  0
   60.4026   29.3427   48.8591 H   0  0  0  0  0  0  0  0  0  0  0  0
   60.0415   31.7539   49.0890 H   0  0  0  0  0  0  0  0  0  0  0  0
   57.5890   33.7000   47.4290 H   0  0  0  0  0  0  0  0  0  0  0  0
   61.6138   33.9088   45.7862 H   0  0  0  0  0  0  0  0  0  0  0  0
   63.9037   32.9480   45.8594 H   0  0  0  0  0  0  0  0  0  0  0  0
   64.9560   32.3614   48.0094 H   0  0  0  0  0  0  0  0  0  0  0  0
   63.6970   32.7364   50.1375 H   0  0  0  0  0  0  0  0  0  0  0  0
   61.4225   33.6899   50.0507 H   0  0  0  0  0  0  0  0  0  0  0  0
  1  2  1  0
  2  3  1  0
  3  4  2  0
  3  5  2  0
  3  6  1  0
  6  7  2  0
  7  8  1  0
  8  9  1  0
  9 10  2  0
 10 11  1  0
 11 12  2  0
 12 13  1  0
 13 14  1  0
 14 15  2  0
 15 16  1  0
 16 17  1  0
 17 18  2  0
 17 19  1  0
 14 20  1  0
  8 21  2  0
 21 22  1  0
 22 23  2  0
 23 24  1  0
 24 25  1  0
 25 26  2  0
 25 27  2  0
 25 28  1  0
 28 29  2  0
 29 30  1  0
 30 31  2  0
 31 32  1  0
 32 33  2  0
 23  6  1  0
 33 28  1  0
 20 10  1  0
  1 34  1  0
  1 35  1  0
  1 36  1  0
  2 37  1  0
  2 38  1  0
  7 39  1  0
 11 40  1  0
 12 41  1  0
 13 42  1  0
 16 43  1  0
 16 44  1  0
 19 45  1  0
 20 46  1  0
 21 47  1  0
 22 48  1  0
 24 49  1  0
 29 50  1  0
 30 51  1  0
 31 52  1  0
 32 53  1  0
 33 54  1  0
M  END
>  <smiles>  (13) 
CCS(=O)(=O)c1cc(N=c2cc[nH]c(=NCC(=O)O)[nH]2)ccc1NS(=O)(=O)c1ccccc1

>  <score_type>  (13) 
oracle

>  <origin>  (13) 
adg

>  <m_score__min__energy>  (13) 
-10.44

>  <m_primary>  (13) 
energy

$$$$
13:0
     RDKit          3D

 57 60  0  0  0  0  0  0  0  0999 V2000
   52.5420   24.0790   44.1280 C   0  0  0  0  0  0  0  0  0  0  0  0
   53.1270   23.3220   45.2850 C   0  0  0  0  0  0  0  0  0  0  0  0
   52.4470   22.2330   45.7380 N   0  0  0  0  0  0  0  0  0  0  0  0
   52.9120   21.4530   46.7480 C   0  0  0  0  0  0  0  0  0  0  0  0
   54.1340   21.7470   47.3490 C   0  0  0  0  0  0  0  0  0  0  0  0
   54.8560   22.8570   46.9190 C   0  0  0  0  0  0  0  0  0  0  0  0
   54.3500   23.6850   45.9040 C   0  0  0  0  0  0  0  0  0  0  0  0
   55.1320   24.8770   45.5060 C   0  0  0  0  0  0  0  0  0  0  0  0
   54.7580   26.0130   45.8960 O   0  0  0  0  0  0  0  0  0  0  0  0
   56.3110   24.7800   44.6970 N   0  0  0  0  0  0  0  0  0  0  0  0
   57.4040   23.8770   44.9170 C   0  0  0  0  0  0  0  0  0  0  0  0
   57.4660   22.5270   44.5950 C   0  0  0  0  0  0  0  0  0  0  0  0
   56.5590   21.7380   43.7440 C   0  0  0  0  0  0  0  0  0  0  0  0
   56.5870   20.3110   43.7620 N   0  0  0  0  0  0  0  0  0  0  0  0
   55.7140   22.3310   43.0210 O   0  0  0  0  0  0  0  0  0  0  0  0
   58.6330   22.0550   45.1660 C   0  0  0  0  0  0  0  0  0  0  0  0
   59.2820   23.0530   45.7970 N   0  0  0  0  0  0  0  0  0  0  0  0
   58.5480   24.1740   45.6400 C   0  0  0  0  0  0  0  0  0  0  0  0
   58.8980   25.4790   46.2470 C   0  0  0  0  0  0  0  0  0  0  0  0
   57.8990   26.3510   46.7090 C   0  0  0  0  0  0  0  0  0  0  0  0
   58.2400   27.5790   47.2830 C   0  0  0  0  0  0  0  0  0  0  0  0
   59.5860   27.9650   47.3930 C   0  0  0  0  0  0  0  0  0  0  0  0
   59.9490   29.3010   48.0050 C   0  0  0  0  0  0  0  0  0  0  0  0
   59.7190   30.4500   47.1000 N   0  0  0  0  0  0  0  0  0  0  0  0
   58.5300   31.2570   47.4700 C   0  0  0  0  0  0  0  0  0  0  0  0
   58.2600   32.3860   46.4750 C   0  0  0  0  0  0  0  0  0  0  0  0
   57.8120   31.6660   44.9100 S   0  0  0  0  0  0  0  0  0  0  0  0
   56.3200   31.5100   44.8150 O   0  0  0  0  0  0  0  0  0  0  0  0
   58.3070   32.5280   43.7840 O   0  0  0  0  0  0  0  0  0  0  0  0
   58.5960   30.0700   44.8620 C   0  0  0  0  0  0  0  0  0  0  0  0
   59.9050   30.1370   45.6560 C   0  0  0  0  0  0  0  0  0  0  0  0
   60.5840   27.0870   46.9450 C   0  0  0  0  0  0  0  0  0  0  0  0
   60.2440   25.8600   46.3690 C   0  0  0  0  0  0  0  0  0  0  0  0
   51.9104   24.8963   44.5063 H   0  0  0  0  0  0  0  0  0  0  0  0
   53.3542   24.4969   43.5150 H   0  0  0  0  0  0  0  0  0  0  0  0
   51.9328   23.3985   43.5150 H   0  0  0  0  0  0  0  0  0  0  0  0
   52.3238   20.5892   47.0914 H   0  0  0  0  0  0  0  0  0  0  0  0
   54.5245   21.1085   48.1552 H   0  0  0  0  0  0  0  0  0  0  0  0
   55.8292   23.0869   47.3773 H   0  0  0  0  0  0  0  0  0  0  0  0
   57.1730   19.7910   44.4500 H   0  0  0  0  0  0  0  0  0  0  0  0
   55.9650   19.7670   43.1220 H   0  0  0  0  0  0  0  0  0  0  0  0
   58.9820   21.0132   45.1128 H   0  0  0  0  0  0  0  0  0  0  0  0
   60.1930   22.9640   46.2970 H   0  0  0  0  0  0  0  0  0  0  0  0
   56.8405   26.0656   46.6185 H   0  0  0  0  0  0  0  0  0  0  0  0
   57.4484   28.2481   47.6513 H   0  0  0  0  0  0  0  0  0  0  0  0
   59.3418   29.4449   48.9109 H   0  0  0  0  0  0  0  0  0  0  0  0
   61.0267   29.2734   48.2235 H   0  0  0  0  0  0  0  0  0  0  0  0
   57.6509   30.5967   47.5023 H   0  0  0  0  0  0  0  0  0  0  0  0
   58.7266   31.7141   48.4510 H   0  0  0  0  0  0  0  0  0  0  0  0
   57.4364   33.0156   46.8429 H   0  0  0  0  0  0  0  0  0  0  0  0
   59.1592   33.0089   46.3592 H   0  0  0  0  0  0  0  0  0  0  0  0
   57.9302   29.3177   45.3101 H   0  0  0  0  0  0  0  0  0  0  0  0
   58.8059   29.7886   43.8195 H   0  0  0  0  0  0  0  0  0  0  0  0
   60.4096   29.1630   45.5749 H   0  0  0  0  0  0  0  0  0  0  0  0
   60.4984   30.9570   45.2252 H   0  0  0  0  0  0  0  0  0  0  0  0
   61.6429   27.3666   47.0479 H   0  0  0  0  0  0  0  0  0  0  0  0
   61.0366   25.1877   46.0085 H   0  0  0  0  0  0  0  0  0  0  0  0
  1  2  1  0
  2  3  2  0
  3  4  1  0
  4  5  2  0
  5  6  1  0
  6  7  2  0
  7  8  1  0
  8  9  2  0
  8 10  1  0
 10 11  1  0
 11 12  1  0
 12 13  1  0
 13 14  1  0
 13 15  2  0
 12 16  2  0
 16 17  1  0
 17 18  1  0
 18 19  1  0
 19 20  2  0
 20 21  1  0
 21 22  2  0
 22 23  1  0
 23 24  1  0
 24 25  1  0
 25 26  1  0
 26 27  1  0
 27 28  2  0
 27 29  2  0
 27 30  1  0
 30 31  1  0
 22 32  1  0
 32 33  2  0
  7  2  1  0
 18 11  2  0
 33 19  1  0
 31 24  1  0
  1 34  1  0
  1 35  1  0
  1 36  1  0
  4 37  1  0
  5 38  1  0
  6 39  1  0
 14 40  1  0
 14 41  1  0
 16 42  1  0
 17 43  1  0
 20 44  1  0
 21 45  1  0
 23 46  1  0
 23 47  1  0
 25 48  1  0
 25 49  1  0
 26 50  1  0
 26 51  1  0
 30 52  1  0
 30 53  1  0
 31 54  1  0
 31 55  1  0
 32 56  1  0
 33 57  1  0
M  CHG  1  10  -1
M  END
>  <UniqueID>  (14) 
12

>  <SMILES>  (14) 
Cc1ncccc1C(=O)[N-]c1c(C(N)=O)c[nH]c1-c1ccc(CN2CCS(=O)(=O)CC2)cc1

>  <Energy>  (14) 
105.33506595945464

>  <Genealogy>  (14) 
Cc1ncccc1C(=O)[N-]c1c(C(N)=O)c[nH]c1-c1ccc(CN2CCS(=O)(=O)CC2)cc1 (protonated)
Cc1ncccc1C(=O)[N-]c1c(C(N)=O)c[nH]c1-c1ccc(CN2CCS(=O)(=O)CC2)cc1 (3D coordinates assigned)
Cc1ncccc1C(=O)[N-]c1c(C(N)=O)c[nH]c1-c1ccc(CN2CCS(=O)(=O)CC2)cc1 (nonaromatic ring conformer: 105.33506595945464 kcal/mol)

>  <smiles>  (14) 
Cc1ncccc1C(=O)Nc1c(C(N)=O)c[nH]c1-c1ccc(CN2CCS(=O)(=O)CC2)cc1

>  <score_type>  (14) 
oracle

>  <origin>  (14) 
adg

>  <m_score__min__energy>  (14) 
-10.970000000000001

>  <m_primary>  (14) 
energy

$$$$
14:0
     RDKit          3D

 53 56  0  0  0  0  0  0  0  0999 V2000
   55.7445   20.3169   45.3705 H   0  0  0  0  0  0  0  0  0  0  0  0
   55.3640   21.2340   45.8440 C   0  0  0  0  0  0  0  0  0  0  0  0
   53.9980   21.2150   46.4110 C   0  0  0  0  0  0  0  0  0  0  0  0
   53.6660   22.1410   47.4120 C   0  0  0  0  0  0  0  0  0  0  0  0
   54.4161   22.8696   47.7532 H   0  0  0  0  0  0  0  0  0  0  0  0
   52.3880   22.1430   47.9780 C   0  0  0  0  0  0  0  0  0  0  0  0
   52.1319   22.8794   48.7539 H   0  0  0  0  0  0  0  0  0  0  0  0
   51.4350   21.2100   47.5590 C   0  0  0  0  0  0  0  0  0  0  0  0
   50.4262   21.2200   47.9974 H   0  0  0  0  0  0  0  0  0  0  0  0
   51.7630   20.2650   46.5840 C   0  0  0  0  0  0  0  0  0  0  0  0
   51.0136   19.5272   46.2614 H   0  0  0  0  0  0  0  0  0  0  0  0
   53.0430   20.2540   46.0160 C   0  0  0  0  0  0  0  0  0  0  0  0
   53.3630   19.2700   45.0860 O   0  0  0  0  0  0  0  0  0  0  0  0
   56.1670   22.3160   45.8770 C   0  0  0  0  0  0  0  0  0  0  0  0
   56.1860   23.1850   44.8300 N   0  0  0  0  0  0  0  0  0  0  0  0
   56.9620   24.2990   44.8190 C   0  0  0  0  0  0  0  0  0  0  0  0
   56.9530   25.0300   43.7930 O   0  0  0  0  0  0  0  0  0  0  0  0
   57.7740   24.5890   45.9430 C   0  0  0  0  0  0  0  0  0  0  0  0
   58.5830   25.6640   46.0470 C   0  0  0  0  0  0  0  0  0  0  0  0
   59.6357   25.4764   46.3051 H   0  0  0  0  0  0  0  0  0  0  0  0
   58.1800   27.0690   45.8450 C   0  0  0  0  0  0  0  0  0  0  0  0
   59.1240   28.1020   45.9310 C   0  0  0  0  0  0  0  0  0  0  0  0
   60.1685   27.8696   46.1859 H   0  0  0  0  0  0  0  0  0  0  0  0
   58.7430   29.4270   45.6940 C   0  0  0  0  0  0  0  0  0  0  0  0
   59.4898   30.2318   45.7611 H   0  0  0  0  0  0  0  0  0  0  0  0
   57.4080   29.7350   45.3700 C   0  0  0  0  0  0  0  0  0  0  0  0
   56.9770   31.0810   45.1130 N   0  0  0  0  0  0  0  0  0  0  0  0
   57.2300   31.8590   43.9360 C   0  0  0  0  0  0  0  0  0  0  0  0
   57.0460   31.3770   42.7860 O   0  0  0  0  0  0  0  0  0  0  0  0
   57.8140   33.2300   44.0740 C   0  0  0  0  0  0  0  0  0  0  0  0
   58.9075   33.1505   44.1636 H   0  0  0  0  0  0  0  0  0  0  0  0
   57.5487   33.8211   43.1851 H   0  0  0  0  0  0  0  0  0  0  0  0
   57.2560   33.9270   45.3170 C   0  0  0  0  0  0  0  0  0  0  0  0
   57.0388   34.9779   45.0754 H   0  0  0  0  0  0  0  0  0  0  0  0
   56.3365   33.4110   45.6305 H   0  0  0  0  0  0  0  0  0  0  0  0
   58.2520   33.8740   46.4460 C   0  0  0  0  0  0  0  0  0  0  0  0
   58.0440   33.0070   47.5320 C   0  0  0  0  0  0  0  0  0  0  0  0
   57.1387   32.3833   47.5705 H   0  0  0  0  0  0  0  0  0  0  0  0
   58.9850   32.9350   48.5640 C   0  0  0  0  0  0  0  0  0  0  0  0
   58.8164   32.2570   49.4136 H   0  0  0  0  0  0  0  0  0  0  0  0
   60.1390   33.7220   48.5190 C   0  0  0  0  0  0  0  0  0  0  0  0
   60.8749   33.6677   49.3348 H   0  0  0  0  0  0  0  0  0  0  0  0
   60.3570   34.5790   47.4350 C   0  0  0  0  0  0  0  0  0  0  0  0
   61.2665   35.1966   47.3977 H   0  0  0  0  0  0  0  0  0  0  0  0
   59.4210   34.6520   46.3990 C   0  0  0  0  0  0  0  0  0  0  0  0
   59.6004   35.3208   45.5443 H   0  0  0  0  0  0  0  0  0  0  0  0
   56.4800   28.6910   45.2340 C   0  0  0  0  0  0  0  0  0  0  0  0
   55.1650   28.9680   44.8730 O   0  0  0  0  0  0  0  0  0  0  0  0
   56.8650   27.3670   45.4650 C   0  0  0  0  0  0  0  0  0  0  0  0
   56.1318   26.5554   45.3478 H   0  0  0  0  0  0  0  0  0  0  0  0
   57.7600   23.7100   46.9820 N   0  0  0  0  0  0  0  0  0  0  0  0
   56.9850   22.5960   46.9890 C   0  0  0  0  0  0  0  0  0  0  0  0
   57.0190   21.8300   47.9900 O   0  0  0  0  0  0  0  0  0  0  0  0
  1  2  1  0
  2  3  1  0
  3  4  2  0
  4  5  1  0
  4  6  1  0
  6  7  1  0
  6  8  2  0
  8  9  1  0
  8 10  1  0
 10 11  1  0
 10 12  2  0
 12 13  1  0
  2 14  2  3
 14 15  1  0
 15 16  1  0
 16 17  2  0
 16 18  1  0
 18 19  2  0
 19 20  1  0
 19 21  1  0
 21 22  2  0
 22 23  1  0
 22 24  1  0
 24 25  1  0
 24 26  2  0
 26 27  1  0
 27 28  1  0
 28 29  2  0
 28 30  1  0
 30 31  1  0
 30 32  1  0
 30 33  1  0
 33 34  1  0
 33 35  1  0
 33 36  1  0
 36 37  2  0
 37 38  1  0
 37 39  1  0
 39 40  1  0
 39 41  2  0
 41 42  1  0
 41 43  1  0
 43 44  1  0
 43 45  2  0
 45 46  1  0
 26 47  1  0
 47 48  1  0
 47 49  2  0
 49 50  1  0
 18 51  1  0
 51 52  1  0
 52 53  2  0
 12  3  1  0
 52 14  1  0
 49 21  1  0
 45 36  1  0
M  CHG  5  13  -1  15  -1  27  -1  48  -1  51  -1
M  END
>  <UniqueID>  (15) 
13

>  <SMILES>  (15) 
O=C(CCc1ccccc1)[N-]c1ccc(/C=c2/[n-]c(=O)c(=Cc3ccccc3[O-])[n-]c2=O)cc1[O-]

>  <Energy>  (15) 
80.97641414461265

>  <Genealogy>  (15) 
O=C(CCc1ccccc1)[N-]c1ccc(C=c2[n-]c(=O)c(=Cc3ccccc3[O-])[n-]c2=O)cc1[O-] (protonated)
O=C(CCc1ccccc1)[N-]c1ccc(/C=c2/[n-]c(=O)c(=Cc3ccccc3[O-])[n-]c2=O)cc1[O-] (cis-trans isomerization)
O=C(CCc1ccccc1)[N-]c1ccc(/C=c2/[n-]c(=O)c(=Cc3ccccc3[O-])[n-]c2=O)cc1[O-] (3D coordinates assigned)
O=C(CCc1ccccc1)[N-]c1ccc(/C=c2/[n-]c(=O)c(=Cc3ccccc3[O-])[n-]c2=O)cc1[O-] (optimized conformer: 80.97641414461265 kcal/mol)

>  <smiles>  (15) 
O=C(CCc1ccccc1)Nc1ccc(C=c2[nH]c(=O)c(=Cc3ccccc3O)[nH]c2=O)cc1O

>  <score_type>  (15) 
oracle

>  <origin>  (15) 
adg

>  <m_score__min__energy>  (15) 
-18.329999999999998

>  <m_primary>  (15) 
energy

$$$$
15:0
     RDKit          3D

 48 50  0  0  0  0  0  0  0  0999 V2000
   54.4680   26.1710   45.9850 N   0  0  0  0  0  0  0  0  0  0  0  0
   55.8830   25.1860   45.8870 S   0  0  0  0  0  0  0  0  0  0  0  0
   56.0180   24.3770   47.1470 O   0  0  0  0  0  0  0  0  0  0  0  0
   55.7600   24.2450   44.7220 O   0  0  0  0  0  0  0  0  0  0  0  0
   57.3020   26.2090   45.6860 C   0  0  0  0  0  0  0  0  0  0  0  0
   58.2680   26.2750   46.6990 C   0  0  0  0  0  0  0  0  0  0  0  0
   59.3930   27.0900   46.5470 C   0  0  0  0  0  0  0  0  0  0  0  0
   59.5660   27.8470   45.3780 C   0  0  0  0  0  0  0  0  0  0  0  0
   60.7750   28.7300   45.2250 C   0  0  0  0  0  0  0  0  0  0  0  0
   60.6830   29.8770   46.1260 N   0  0  0  0  0  0  0  0  0  0  0  0
   59.6540   30.8710   45.9980 C   0  0  0  0  0  0  0  0  0  0  0  0
   58.7270   30.7040   45.1590 O   0  0  0  0  0  0  0  0  0  0  0  0
   59.6520   32.0870   46.8480 C   0  0  0  0  0  0  0  0  0  0  0  0
   58.9560   33.2350   46.4280 C   0  0  0  0  0  0  0  0  0  0  0  0
   58.9520   34.3890   47.2160 C   0  0  0  0  0  0  0  0  0  0  0  0
   59.6460   34.4140   48.4280 C   0  0  0  0  0  0  0  0  0  0  0  0
   60.3520   33.2820   48.8560 C   0  0  0  0  0  0  0  0  0  0  0  0
   61.2410   33.3010   50.3760 S   0  0  0  0  0  0  0  0  0  0  0  0
   61.3030   31.9130   50.9560 O   0  0  0  0  0  0  0  0  0  0  0  0
   60.5190   34.2020   51.3380 O   0  0  0  0  0  0  0  0  0  0  0  0
   62.8610   33.9060   50.1020 N   0  0  0  0  0  0  0  0  0  0  0  0
   63.0600   34.2250   48.6830 C   0  0  0  0  0  0  0  0  0  0  0  0
   63.6990   33.0190   48.0080 C   0  0  0  0  0  0  0  0  0  0  0  0
   64.1820   32.1250   49.1340 C   0  0  0  0  0  0  0  0  0  0  0  0
   63.8540   32.8750   50.4170 C   0  0  0  0  0  0  0  0  0  0  0  0
   60.3590   32.1260   48.0640 C   0  0  0  0  0  0  0  0  0  0  0  0
   58.5900   27.7910   44.3700 C   0  0  0  0  0  0  0  0  0  0  0  0
   57.4640   26.9770   44.5250 C   0  0  0  0  0  0  0  0  0  0  0  0
   54.7580   27.0840   46.4060 H   0  0  0  0  0  0  0  0  0  0  0  0
   58.1403   25.6831   47.6173 H   0  0  0  0  0  0  0  0  0  0  0  0
   60.1463   27.1384   47.3472 H   0  0  0  0  0  0  0  0  0  0  0  0
   61.6794   28.1517   45.4651 H   0  0  0  0  0  0  0  0  0  0  0  0
   60.8239   29.0929   44.1878 H   0  0  0  0  0  0  0  0  0  0  0  0
   61.3630   29.9260   46.9170 H   0  0  0  0  0  0  0  0  0  0  0  0
   58.4110   33.2242   45.4725 H   0  0  0  0  0  0  0  0  0  0  0  0
   58.4009   35.2801   46.8810 H   0  0  0  0  0  0  0  0  0  0  0  0
   59.6382   35.3233   49.0470 H   0  0  0  0  0  0  0  0  0  0  0  0
   62.0908   34.4452   48.2116 H   0  0  0  0  0  0  0  0  0  0  0  0
   63.7101   35.1063   48.5798 H   0  0  0  0  0  0  0  0  0  0  0  0
   62.9597   32.4899   47.3887 H   0  0  0  0  0  0  0  0  0  0  0  0
   64.5239   33.3159   47.3437 H   0  0  0  0  0  0  0  0  0  0  0  0
   63.6580   31.1581   49.1091 H   0  0  0  0  0  0  0  0  0  0  0  0
   65.2573   31.9086   49.0510 H   0  0  0  0  0  0  0  0  0  0  0  0
   63.4434   32.1774   51.1618 H   0  0  0  0  0  0  0  0  0  0  0  0
   64.7628   33.3359   50.8314 H   0  0  0  0  0  0  0  0  0  0  0  0
   60.9221   31.2412   48.3958 H   0  0  0  0  0  0  0  0  0  0  0  0
   58.7118   28.3897   43.4553 H   0  0  0  0  0  0  0  0  0  0  0  0
   56.7021   26.9392   43.7325 H   0  0  0  0  0  0  0  0  0  0  0  0
  1  2  1  0
  2  3  2  0
  2  4  2  0
  2  5  1  0
  5  6  2  0
  6  7  1  0
  7  8  2  0
  8  9  1  0
  9 10  1  0
 10 11  1  0
 11 12  2  0
 11 13  1  0
 13 14  2  0
 14 15  1  0
 15 16  2  0
 16 17  1  0
 17 18  1  0
 18 19  2  0
 18 20  2  0
 18 21  1  0
 21 22  1  0
 22 23  1  0
 23 24  1  0
 24 25  1  0
 17 26  2  0
  8 27  1  0
 27 28  2  0
 28  5  1  0
 26 13  1  0
 25 21  1  0
  1 29  1  0
  6 30  1  0
  7 31  1  0
  9 32  1  0
  9 33  1  0
 10 34  1  0
 14 35  1  0
 15 36  1  0
 16 37  1  0
 22 38  1  0
 22 39  1  0
 23 40  1  0
 23 41  1  0
 24 42  1  0
 24 43  1  0
 25 44  1  0
 25 45  1  0
 26 46  1  0
 27 47  1  0
 28 48  1  0
M  CHG  1   1  -1
M  END
>  <UniqueID>  (16) 
14

>  <SMILES>  (16) 
[NH-]S(=O)(=O)c1ccc(CNC(=O)c2cccc(S(=O)(=O)N3CCCC3)c2)cc1

>  <Energy>  (16) 
49.768841282924264

>  <Genealogy>  (16) 
[NH-]S(=O)(=O)c1ccc(CNC(=O)c2cccc(S(=O)(=O)N3CCCC3)c2)cc1 (protonated)
[NH-]S(=O)(=O)c1ccc(CNC(=O)c2cccc(S(=O)(=O)N3CCCC3)c2)cc1 (3D coordinates assigned)
[NH-]S(=O)(=O)c1ccc(CNC(=O)c2cccc(S(=O)(=O)N3CCCC3)c2)cc1 (nonaromatic ring conformer: 49.768841282924264 kcal/mol)

>  <smiles>  (16) 
NS(=O)(=O)c1ccc(CNC(=O)c2cccc(S(=O)(=O)N3CCCC3)c2)cc1

>  <score_type>  (16) 
oracle

>  <origin>  (16) 
adg

>  <m_score__min__energy>  (16) 
-11.43

>  <m_primary>  (16) 
energy

$$$$
16:0
     RDKit          3D

 26 27  0  0  0  0  0  0  0  0999 V2000
   55.1020   29.3320   44.4540 O   0  0  0  0  0  0  0  0  0  0  0  0
   56.1380   29.6560   43.8140 C   0  0  0  0  0  0  0  0  0  0  0  0
   57.1180   30.6080   44.3790 C   0  0  0  0  0  0  0  0  0  0  0  0
   57.4990   31.7500   43.6490 C   0  0  0  0  0  0  0  0  0  0  0  0
   58.4250   32.6510   44.1780 C   0  0  0  0  0  0  0  0  0  0  0  0
   58.9880   32.4200   45.4330 C   0  0  0  0  0  0  0  0  0  0  0  0
   58.6200   31.2920   46.1680 C   0  0  0  0  0  0  0  0  0  0  0  0
   57.6720   30.3850   45.6570 C   0  0  0  0  0  0  0  0  0  0  0  0
   57.3060   29.2370   46.3790 O   0  0  0  0  0  0  0  0  0  0  0  0
   57.8230   27.9480   46.1810 C   0  0  0  0  0  0  0  0  0  0  0  0
   59.2090   27.7010   46.2100 C   0  0  0  0  0  0  0  0  0  0  0  0
   59.7000   26.4060   46.0290 C   0  0  0  0  0  0  0  0  0  0  0  0
   58.8140   25.3430   45.8290 C   0  0  0  0  0  0  0  0  0  0  0  0
   59.4320   23.7170   45.6040 Cl  0  0  0  0  0  0  0  0  0  0  0  0
   57.4360   25.5760   45.8190 C   0  0  0  0  0  0  0  0  0  0  0  0
   56.9360   26.8720   45.9990 C   0  0  0  0  0  0  0  0  0  0  0  0
   55.5560   27.0690   45.9880 O   0  0  0  0  0  0  0  0  0  0  0  0
   56.3162   29.2234   42.8185 H   0  0  0  0  0  0  0  0  0  0  0  0
   57.0642   31.9335   42.6554 H   0  0  0  0  0  0  0  0  0  0  0  0
   58.7111   33.5447   43.6040 H   0  0  0  0  0  0  0  0  0  0  0  0
   59.7230   33.1277   45.8440 H   0  0  0  0  0  0  0  0  0  0  0  0
   59.0738   31.1103   47.1534 H   0  0  0  0  0  0  0  0  0  0  0  0
   59.9092   28.5329   46.3762 H   0  0  0  0  0  0  0  0  0  0  0  0
   60.7845   26.2223   46.0438 H   0  0  0  0  0  0  0  0  0  0  0  0
   56.7404   24.7372   45.6690 H   0  0  0  0  0  0  0  0  0  0  0  0
   55.1440   27.9950   45.9940 H   0  0  0  0  0  0  0  0  0  0  0  0
  1  2  2  0
  2  3  1  0
  3  4  2  0
  4  5  1  0
  5  6  2  0
  6  7  1  0
  7  8  2  0
  8  9  1  0
  9 10  1  0
 10 11  2  0
 11 12  1  0
 12 13  2  0
 13 14  1  0
 13 15  1  0
 15 16  2  0
 16 17  1  0
  8  3  1  0
 16 10  1  0
  2 18  1  0
  4 19  1  0
  5 20  1  0
  6 21  1  0
  7 22  1  0
 11 23  1  0
 12 24  1  0
 15 25  1  0
 17 26  1  0
M  END
>  <UniqueID>  (17) 
15

>  <SMILES>  (17) 
O=Cc1ccccc1Oc1ccc(Cl)cc1O

>  <Energy>  (17) 
33.99181913711424

>  <Genealogy>  (17) 
O=Cc1ccccc1Oc1ccc(Cl)cc1O (3D coordinates assigned)
O=Cc1ccccc1Oc1ccc(Cl)cc1O (optimized conformer: 33.99181913711424 kcal/mol)

>  <smiles>  (17) 
O=Cc1ccccc1Oc1ccc(Cl)cc1O

>  <score_type>  (17) 
oracle

>  <origin>  (17) 
adg

>  <m_score__min__energy>  (17) 
-7.3300000000000001

>  <m_primary>  (17) 
energy

$$$$
17:0
     RDKit          3D

 71 75  0  0  0  0  0  0  0  0999 V2000
   62.6685   30.0326   48.7885 H   0  0  0  0  0  0  0  0  0  0  0  0
   61.6640   30.2880   49.1570 C   0  0  0  0  0  0  0  0  0  0  0  0
   61.4450   30.7670   50.4090 N   0  0  0  0  0  0  0  0  0  0  0  0
   60.1380   31.0220   50.6310 C   0  0  0  0  0  0  0  0  0  0  0  0
   59.7180   31.5520   51.7410 N   0  0  0  0  0  0  0  0  0  0  0  0
   60.2650   32.7060   52.3960 C   0  0  0  0  0  0  0  0  0  0  0  0
   59.7910   33.1260   53.4910 O   0  0  0  0  0  0  0  0  0  0  0  0
   61.3710   33.4660   51.7370 C   0  0  0  0  0  0  0  0  0  0  0  0
   61.5490   34.4031   52.2849 H   0  0  0  0  0  0  0  0  0  0  0  0
   62.2875   32.8578   51.7426 H   0  0  0  0  0  0  0  0  0  0  0  0
   60.9870   33.7810   50.3160 C   0  0  0  0  0  0  0  0  0  0  0  0
   61.9650   33.8120   49.3080 C   0  0  0  0  0  0  0  0  0  0  0  0
   63.0059   33.5496   49.5482 H   0  0  0  0  0  0  0  0  0  0  0  0
   61.6240   34.1740   48.0020 C   0  0  0  0  0  0  0  0  0  0  0  0
   62.3973   34.1831   47.2197 H   0  0  0  0  0  0  0  0  0  0  0  0
   60.3010   34.5270   47.6780 C   0  0  0  0  0  0  0  0  0  0  0  0
   59.9590   34.9130   46.2840 C   0  0  0  0  0  0  0  0  0  0  0  0
   59.9670   36.1350   45.9660 O   0  0  0  0  0  0  0  0  0  0  0  0
   59.6170   33.8750   45.2380 C   0  0  0  0  0  0  0  0  0  0  0  0
   60.3514   33.9433   44.4219 H   0  0  0  0  0  0  0  0  0  0  0  0
   59.6416   32.8906   45.7282 H   0  0  0  0  0  0  0  0  0  0  0  0
   58.2120   34.0630   44.6500 C   0  0  0  0  0  0  0  0  0  0  0  0
   57.5302   34.3963   45.4462 H   0  0  0  0  0  0  0  0  0  0  0  0
   58.2644   34.8149   43.8488 H   0  0  0  0  0  0  0  0  0  0  0  0
   57.6970   32.7770   44.0680 C   0  0  0  0  0  0  0  0  0  0  0  0
   57.1600   31.7820   44.9030 C   0  0  0  0  0  0  0  0  0  0  0  0
   57.1350   31.9353   45.9920 H   0  0  0  0  0  0  0  0  0  0  0  0
   56.6570   30.5970   44.3540 C   0  0  0  0  0  0  0  0  0  0  0  0
   56.2221   29.8286   45.0100 H   0  0  0  0  0  0  0  0  0  0  0  0
   56.7070   30.3890   42.9710 C   0  0  0  0  0  0  0  0  0  0  0  0
   56.2210   29.2360   42.4400 F   0  0  0  0  0  0  0  0  0  0  0  0
   57.2620   31.3670   42.1360 C   0  0  0  0  0  0  0  0  0  0  0  0
   57.3082   31.1996   41.0498 H   0  0  0  0  0  0  0  0  0  0  0  0
   57.7580   32.5570   42.6810 C   0  0  0  0  0  0  0  0  0  0  0  0
   58.1964   33.3215   42.0227 H   0  0  0  0  0  0  0  0  0  0  0  0
   59.3250   34.5060   48.6970 C   0  0  0  0  0  0  0  0  0  0  0  0
   58.2864   34.7829   48.4631 H   0  0  0  0  0  0  0  0  0  0  0  0
   59.6670   34.1360   50.0020 C   0  0  0  0  0  0  0  0  0  0  0  0
   58.8961   34.1234   50.7865 H   0  0  0  0  0  0  0  0  0  0  0  0
   59.1980   30.6650   49.2740 S   0  0  0  0  0  0  0  0  0  0  0  0
   60.5230   30.1450   48.3770 C   0  0  0  0  0  0  0  0  0  0  0  0
   60.4990   29.8670   46.9090 C   0  0  0  0  0  0  0  0  0  0  0  0
   60.0907   30.7382   46.3759 H   0  0  0  0  0  0  0  0  0  0  0  0
   61.5209   29.6701   46.5527 H   0  0  0  0  0  0  0  0  0  0  0  0
   59.6320   28.6660   46.6490 C   0  0  0  0  0  0  0  0  0  0  0  0
   60.1720   27.3730   46.7340 C   0  0  0  0  0  0  0  0  0  0  0  0
   61.2576   27.2423   46.8544 H   0  0  0  0  0  0  0  0  0  0  0  0
   59.3420   26.2500   46.6670 C   0  0  0  0  0  0  0  0  0  0  0  0
   59.7781   25.2424   46.7350 H   0  0  0  0  0  0  0  0  0  0  0  0
   57.9520   26.4020   46.5130 C   0  0  0  0  0  0  0  0  0  0  0  0
   57.0560   25.2230   46.5360 C   0  0  0  0  0  0  0  0  0  0  0  0
   57.5380   24.0620   46.6700 O   0  0  0  0  0  0  0  0  0  0  0  0
   55.6470   25.3890   46.3880 N   0  0  0  0  0  0  0  0  0  0  0  0
   54.6060   24.0960   45.8940 S   0  0  0  0  0  0  0  0  0  0  0  0
   53.4170   24.6620   45.1690 O   0  0  0  0  0  0  0  0  0  0  0  0
   54.1340   23.3530   47.1140 O   0  0  0  0  0  0  0  0  0  0  0  0
   55.4770   23.0230   44.8040 C   0  0  0  0  0  0  0  0  0  0  0  0
   55.8950   21.7600   45.2530 C   0  0  0  0  0  0  0  0  0  0  0  0
   55.6567   21.4354   46.2766 H   0  0  0  0  0  0  0  0  0  0  0  0
   56.6130   20.9140   44.4030 C   0  0  0  0  0  0  0  0  0  0  0  0
   56.9458   19.9282   44.7600 H   0  0  0  0  0  0  0  0  0  0  0  0
   56.9080   21.3220   43.0980 C   0  0  0  0  0  0  0  0  0  0  0  0
   57.4700   20.6552   42.4275 H   0  0  0  0  0  0  0  0  0  0  0  0
   56.4890   22.5770   42.6450 C   0  0  0  0  0  0  0  0  0  0  0  0
   56.7213   22.8952   41.6180 H   0  0  0  0  0  0  0  0  0  0  0  0
   55.7750   23.4290   43.4950 C   0  0  0  0  0  0  0  0  0  0  0  0
   55.4478   24.4162   43.1369 H   0  0  0  0  0  0  0  0  0  0  0  0
   57.4170   27.6980   46.3950 C   0  0  0  0  0  0  0  0  0  0  0  0
   56.3359   27.8299   46.2409 H   0  0  0  0  0  0  0  0  0  0  0  0
   58.2480   28.8190   46.4720 C   0  0  0  0  0  0  0  0  0  0  0  0
   57.8149   29.8271   46.3934 H   0  0  0  0  0  0  0  0  0  0  0  0
  1  2  1  0
  2  3  1  0
  3  4  1  0
  4  5  2  0
  5  6  1  0
  6  7  2  0
  6  8  1  0
  8  9  1  0
  8 10  1  0
  8 11  1  0
 11 12  2  0
 12 13  1  0
 12 14  1  0
 14 15  1  0
 14 16  2  0
 16 17  1  0
 17 18  2  0
 17 19  1  0
 19 20  1  0
 19 21  1  0
 19 22  1  0
 22 23  1  0
 22 24  1  0
 22 25  1  0
 25 26  2  0
 26 27  1  0
 26 28  1  0
 28 29  1  0
 28 30  2  0
 30 31  1  0
 30 32  1  0
 32 33  1  0
 32 34  2  0
 34 35  1  0
 16 36  1  0
 36 37  1  0
 36 38  2  0
 38 39  1  0
  4 40  1  0
 40 41  1  0
 41 42  1  0
 42 43  1  0
 42 44  1  0
 42 45  1  0
 45 46  2  0
 46 47  1  0
 46 48  1  0
 48 49  1  0
 48 50  2  0
 50 51  1  0
 51 52  2  0
 51 53  1  0
 53 54  1  0
 54 55  2  0
 54 56  2  0
 54 57  1  0
 57 58  2  0
 58 59  1  0
 58 60  1  0
 60 61  1  0
 60 62  2  0
 62 63  1  0
 62 64  1  0
 64 65  1  0
 64 66  2  0
 66 67  1  0
 50 68  1  0
 68 69  1  0
 68 70  2  0
 70 71  1  0
 41  2  2  0
 70 45  1  0
 38 11  1  0
 66 57  1  0
 34 25  1  0
M  CHG  2   3  -1  53  -1
M  END
>  <UniqueID>  (18) 
16

>  <SMILES>  (18) 
O=C(Cc1ccc(C(=O)CCc2ccc(F)cc2)cc1)/N=c1/[n-]cc(Cc2ccc(C(=O)[N-]S(=O)(=O)c3ccccc3)cc2)s1

>  <Energy>  (18) 
104.23227563697763

>  <Genealogy>  (18) 
O=C(Cc1ccc(C(=O)CCc2ccc(F)cc2)cc1)N=c1[n-]cc(Cc2ccc(C(=O)[N-]S(=O)(=O)c3ccccc3)cc2)s1 (protonated)
O=C(Cc1ccc(C(=O)CCc2ccc(F)cc2)cc1)/N=c1/[n-]cc(Cc2ccc(C(=O)[N-]S(=O)(=O)c3ccccc3)cc2)s1 (cis-trans isomerization)
O=C(Cc1ccc(C(=O)CCc2ccc(F)cc2)cc1)/N=c1/[n-]cc(Cc2ccc(C(=O)[N-]S(=O)(=O)c3ccccc3)cc2)s1 (3D coordinates assigned)
O=C(Cc1ccc(C(=O)CCc2ccc(F)cc2)cc1)/N=c1/[n-]cc(Cc2ccc(C(=O)[N-]S(=O)(=O)c3ccccc3)cc2)s1 (optimized conformer: 104.23227563697763 kcal/mol)

>  <smiles>  (18) 
O=C(Cc1ccc(C(=O)CCc2ccc(F)cc2)cc1)N=c1[nH]cc(Cc2ccc(C(=O)NS(=O)(=O)c3ccccc3)cc2)s1

>  <score_type>  (18) 
oracle

>  <origin>  (18) 
adg

>  <m_score__min__energy>  (18) 
-13.34

>  <m_primary>  (18) 
energy

$$$$
18:0
     RDKit          3D

 41 43  0  0  1  0  0  0  0  0999 V2000
   54.4030   22.4970   48.0540 C   0  0  0  0  0  0  0  0  0  0  0  0
   55.1630   23.5400   46.8340 S   0  0  0  0  0  0  0  0  0  0  0  0
   54.0680   24.3650   46.1670 O   0  0  0  0  0  0  0  0  0  0  0  0
   55.8260   22.6380   45.8080 O   0  0  0  0  0  0  0  0  0  0  0  0
   56.2350   24.6580   47.5440 N   0  0  0  0  0  0  0  0  0  0  0  0
   57.0670   25.5880   46.9200 C   0  0  0  0  0  0  0  0  0  0  0  0
   58.4180   25.5140   47.1020 C   0  0  0  0  0  0  0  0  0  0  0  0
   59.2050   26.4860   46.5320 C   0  0  0  0  0  0  0  0  0  0  0  0
   58.6680   27.5300   45.7850 C   0  0  0  0  0  0  0  0  0  0  0  0
   57.3020   27.6040   45.5980 C   0  0  0  0  0  0  0  0  0  0  0  0
   56.7580   28.7230   44.7990 C   0  0  0  0  0  0  0  0  0  0  0  0
   57.4310   29.4410   43.8390 C   0  0  0  0  0  0  0  0  0  0  0  0
   56.5400   30.4190   43.4170 C   0  0  0  0  0  0  0  0  0  0  0  0
   56.7150   31.3650   42.5650 N   0  0  0  0  0  0  0  0  0  0  0  0
   57.7400   32.3330   42.7070 C   0  0  0  0  0  0  0  0  0  0  0  0
   58.5240   32.7110   41.8290 O   0  0  0  0  0  0  0  0  0  0  0  0
   57.8520   32.9330   44.0660 C   0  0  0  0  0  0  0  0  0  0  0  0
   58.7670   33.9200   44.4250 C   0  0  0  0  0  0  0  0  0  0  0  0
   58.5900   34.2410   45.7410 C   0  0  0  0  0  0  0  0  0  0  0  0
   57.5580   33.4470   46.1900 C   0  0  0  0  0  0  0  0  0  0  0  0
   57.0370   33.4500   47.4910 O   0  0  0  0  0  0  0  0  0  0  0  0
   57.1220   32.6540   45.1500 N   0  0  0  0  0  0  0  0  0  0  0  0
   55.3890   30.2780   44.1040 N   0  0  0  0  0  0  0  0  0  0  0  0
   55.5360   29.2670   44.9200 N   0  0  0  0  0  0  0  0  0  0  0  0
   56.5130   26.6360   46.1640 C   0  0  0  0  0  0  0  0  0  0  0  0
   55.1470   26.6440   46.0150 O   0  0  0  0  0  0  0  0  0  0  0  0
   54.6657   22.8575   49.0595 H   0  0  0  0  0  0  0  0  0  0  0  0
   53.3104   22.5227   47.9291 H   0  0  0  0  0  0  0  0  0  0  0  0
   54.7622   21.4648   47.9291 H   0  0  0  0  0  0  0  0  0  0  0  0
   56.2830   24.6460   48.6180 H   0  0  0  0  0  0  0  0  0  0  0  0
   58.8648   24.6982   47.6892 H   0  0  0  0  0  0  0  0  0  0  0  0
   60.2951   26.4370   46.6709 H   0  0  0  0  0  0  0  0  0  0  0  0
   59.3283   28.2923   45.3458 H   0  0  0  0  0  0  0  0  0  0  0  0
   58.4579   29.2758   43.4809 H   0  0  0  0  0  0  0  0  0  0  0  0
   59.5141   34.3699   43.7547 H   0  0  0  0  0  0  0  0  0  0  0  0
   59.1564   34.9826   46.3235 H   0  0  0  0  0  0  0  0  0  0  0  0
   56.1560   33.9310   47.6700 H   0  0  0  0  0  0  0  0  0  0  0  0
   56.3330   31.9470   45.2270 H   0  0  0  0  0  0  0  0  0  0  0  0
   54.5380   30.8730   43.9980 H   0  0  0  0  0  0  0  0  0  0  0  0
   54.7590   28.9590   45.5600 H   0  0  0  0  0  0  0  0  0  0  0  0
   54.4840   26.3110   46.7390 H   0  0  0  0  0  0  0  0  0  0  0  0
  1  2  1  0
  2  3  2  0
  2  4  2  0
  2  5  1  0
  5  6  1  0
  6  7  2  0
  7  8  1  0
  8  9  2  0
  9 10  1  0
 10 11  1  0
 11 12  2  0
 12 13  1  0
 13 14  2  0
 14 15  1  0
 15 16  2  0
 15 17  1  0
 17 18  2  0
 18 19  1  0
 19 20  2  0
 20 21  1  0
 20 22  1  0
 13 23  1  0
 23 24  1  0
 10 25  2  0
 25 26  1  0
 25  6  1  0
 24 11  1  0
 22 17  1  0
  1 27  1  0
  1 28  1  0
  1 29  1  0
  5 30  1  0
  7 31  1  0
  8 32  1  0
  9 33  1  0
 12 34  1  0
 18 35  1  0
 19 36  1  0
 21 37  1  0
 22 38  1  0
 23 39  1  0
 24 40  1  0
 26 41  1  0
M  END
>  <smiles>  (19) 
CS(=O)(=O)Nc1cccc(-c2cc(=NC(=O)c3ccc(O)[nH]3)[nH][nH]2)c1O

>  <score_type>  (19) 
oracle

>  <origin>  (19) 
adg

>  <m_score__min__energy>  (19) 
-9.7100000000000009

>  <m_primary>  (19) 
energy

$$$$
19:0
     RDKit          3D

 59 62  0  0  0  0  0  0  0  0999 V2000
   58.3560   28.3930   43.7610 O   0  0  0  0  0  0  0  0  0  0  0  0
   58.2650   29.2230   44.7040 C   0  0  0  0  0  0  0  0  0  0  0  0
   56.9090   29.5710   45.2640 C   0  0  0  0  0  0  0  0  0  0  0  0
   56.4380   30.8190   44.7570 O   0  0  0  0  0  0  0  0  0  0  0  0
   57.1340   32.0390   44.8190 C   0  0  0  0  0  0  0  0  0  0  0  0
   56.8650   33.0080   45.8080 C   0  0  0  0  0  0  0  0  0  0  0  0
   57.5850   34.2060   45.8370 C   0  0  0  0  0  0  0  0  0  0  0  0
   58.5760   34.4510   44.8850 C   0  0  0  0  0  0  0  0  0  0  0  0
   58.8510   33.5000   43.9010 C   0  0  0  0  0  0  0  0  0  0  0  0
   58.1350   32.2970   43.8610 C   0  0  0  0  0  0  0  0  0  0  0  0
   58.4330   31.3700   42.8620 O   0  0  0  0  0  0  0  0  0  0  0  0
   59.4450   29.9150   45.1280 N   0  0  0  0  0  0  0  0  0  0  0  0
   59.7280   30.3360   46.4690 C   0  0  0  0  0  0  0  0  0  0  0  0
   59.9540   31.6920   46.7520 C   0  0  0  0  0  0  0  0  0  0  0  0
   60.2440   32.1070   48.0560 C   0  0  0  0  0  0  0  0  0  0  0  0
   60.5130   33.8170   48.3890 S   0  0  0  0  0  0  0  0  0  0  0  0
   60.0100   34.6470   47.2400 O   0  0  0  0  0  0  0  0  0  0  0  0
   59.7470   34.1950   49.6260 O   0  0  0  0  0  0  0  0  0  0  0  0
   62.2170   34.1100   48.6410 N   0  0  0  0  0  0  0  0  0  0  0  0
   62.6300   33.5780   49.9550 C   0  0  0  0  0  0  0  0  0  0  0  0
   64.1500   33.3500   49.9910 C   0  0  0  0  0  0  0  0  0  0  0  0
   64.6240   32.4270   49.0190 O   0  0  0  0  0  0  0  0  0  0  0  0
   63.7580   32.2750   47.9030 C   0  0  0  0  0  0  0  0  0  0  0  0
   63.0220   33.5730   47.5210 C   0  0  0  0  0  0  0  0  0  0  0  0
   60.2770   31.1660   49.0910 C   0  0  0  0  0  0  0  0  0  0  0  0
   60.0200   29.8190   48.8230 C   0  0  0  0  0  0  0  0  0  0  0  0
   59.7320   29.3950   47.5180 C   0  0  0  0  0  0  0  0  0  0  0  0
   59.4690   28.0030   47.2720 N   0  0  0  0  0  0  0  0  0  0  0  0
   58.1280   27.4580   47.4930 C   0  0  0  0  0  0  0  0  0  0  0  0
   57.8420   26.3730   46.4510 C   0  0  0  0  0  0  0  0  0  0  0  0
   58.8800   25.4110   46.4290 O   0  0  0  0  0  0  0  0  0  0  0  0
   60.0880   26.0120   45.9990 C   0  0  0  0  0  0  0  0  0  0  0  0
   60.5600   27.0630   47.0080 C   0  0  0  0  0  0  0  0  0  0  0  0
   56.1950   28.7809   44.9883 H   0  0  0  0  0  0  0  0  0  0  0  0
   56.9983   29.6543   46.3572 H   0  0  0  0  0  0  0  0  0  0  0  0
   56.0848   32.8201   46.5603 H   0  0  0  0  0  0  0  0  0  0  0  0
   57.3702   34.9570   46.6115 H   0  0  0  0  0  0  0  0  0  0  0  0
   59.1409   35.3946   44.9103 H   0  0  0  0  0  0  0  0  0  0  0  0
   59.6337   33.6963   43.1535 H   0  0  0  0  0  0  0  0  0  0  0  0
   58.7340   30.4260   43.0740 H   0  0  0  0  0  0  0  0  0  0  0  0
   59.9027   32.4343   45.9419 H   0  0  0  0  0  0  0  0  0  0  0  0
   62.3533   34.2974   50.7398 H   0  0  0  0  0  0  0  0  0  0  0  0
   62.1224   32.6170   50.1248 H   0  0  0  0  0  0  0  0  0  0  0  0
   64.6479   34.3160   49.8210 H   0  0  0  0  0  0  0  0  0  0  0  0
   64.3817   32.9186   50.9760 H   0  0  0  0  0  0  0  0  0  0  0  0
   64.3553   31.9455   47.0400 H   0  0  0  0  0  0  0  0  0  0  0  0
   62.9921   31.5369   48.1834 H   0  0  0  0  0  0  0  0  0  0  0  0
   63.7655   34.3279   47.2254 H   0  0  0  0  0  0  0  0  0  0  0  0
   62.3359   33.3409   46.6931 H   0  0  0  0  0  0  0  0  0  0  0  0
   60.5058   31.4874   50.1178 H   0  0  0  0  0  0  0  0  0  0  0  0
   60.0438   29.0854   49.6423 H   0  0  0  0  0  0  0  0  0  0  0  0
   58.0704   27.0226   48.5015 H   0  0  0  0  0  0  0  0  0  0  0  0
   57.3841   28.2629   47.3991 H   0  0  0  0  0  0  0  0  0  0  0  0
   56.8936   25.8746   46.7004 H   0  0  0  0  0  0  0  0  0  0  0  0
   57.7775   26.8448   45.4594 H   0  0  0  0  0  0  0  0  0  0  0  0
   60.8611   25.2361   45.8978 H   0  0  0  0  0  0  0  0  0  0  0  0
   59.9124   26.5050   45.0315 H   0  0  0  0  0  0  0  0  0  0  0  0
   60.8531   26.5673   47.9452 H   0  0  0  0  0  0  0  0  0  0  0  0
   61.4240   27.6063   46.5979 H   0  0  0  0  0  0  0  0  0  0  0  0
  1  2  2  0
  2  3  1  0
  3  4  1  0
  4  5  1  0
  5  6  2  0
  6  7  1  0
  7  8  2  0
  8  9  1  0
  9 10  2  0
 10 11  1  0
  2 12  1  0
 12 13  1  0
 13 14  2  0
 14 15  1  0
 15 16  1  0
 16 17  2  0
 16 18  2  0
 16 19  1  0
 19 20  1  0
 20 21  1  0
 21 22  1  0
 22 23  1  0
 23 24  1  0
 15 25  2  0
 25 26  1  0
 26 27  2  0
 27 28  1  0
 28 29  1  0
 29 30  1  0
 30 31  1  0
 31 32  1  0
 32 33  1  0
 10  5  1  0
 27 13  1  0
 33 28  1  0
 24 19  1  0
  3 34  1  0
  3 35  1  0
  6 36  1  0
  7 37  1  0
  8 38  1  0
  9 39  1  0
 11 40  1  0
 14 41  1  0
 20 42  1  0
 20 43  1  0
 21 44  1  0
 21 45  1  0
 23 46  1  0
 23 47  1  0
 24 48  1  0
 24 49  1  0
 25 50  1  0
 26 51  1  0
 29 52  1  0
 29 53  1  0
 30 54  1  0
 30 55  1  0
 32 56  1  0
 32 57  1  0
 33 58  1  0
 33 59  1  0
M  CHG  1  12  -1
M  END
>  <UniqueID>  (20) 
17

>  <SMILES>  (20) 
O=C(COc1ccccc1O)[N-]c1cc(S(=O)(=O)N2CCOCC2)ccc1N1CCOCC1

>  <Energy>  (20) 
85.29890077032042

>  <Genealogy>  (20) 
O=C(COc1ccccc1O)[N-]c1cc(S(=O)(=O)N2CCOCC2)ccc1N1CCOCC1 (protonated)
O=C(COc1ccccc1O)[N-]c1cc(S(=O)(=O)N2CCOCC2)ccc1N1CCOCC1 (3D coordinates assigned)
O=C(COc1ccccc1O)[N-]c1cc(S(=O)(=O)N2CCOCC2)ccc1N1CCOCC1 (nonaromatic ring conformer: 85.29890077032042 kcal/mol)

>  <smiles>  (20) 
O=C(COc1ccccc1O)Nc1cc(S(=O)(=O)N2CCOCC2)ccc1N1CCOCC1

>  <score_type>  (20) 
oracle

>  <origin>  (20) 
adg

>  <m_score__min__energy>  (20) 
-10.26

>  <m_primary>  (20) 
energy

$$$$
20:0
     RDKit          3D

 47 49  0  0  0  0  0  0  0  0999 V2000
   55.1450   29.3460   44.8940 N   0  0  0  0  0  0  0  0  0  0  0  0
   56.5290   29.7150   43.9180 S   0  0  0  0  0  0  0  0  0  0  0  0
   57.2310   28.4340   43.5350 O   0  0  0  0  0  0  0  0  0  0  0  0
   56.0880   30.4240   42.6680 O   0  0  0  0  0  0  0  0  0  0  0  0
   57.6190   30.7500   44.8360 C   0  0  0  0  0  0  0  0  0  0  0  0
   57.5610   32.1440   44.6820 C   0  0  0  0  0  0  0  0  0  0  0  0
   58.4370   32.9560   45.3880 C   0  0  0  0  0  0  0  0  0  0  0  0
   59.3750   32.3890   46.2520 C   0  0  0  0  0  0  0  0  0  0  0  0
   59.4470   30.9950   46.4090 C   0  0  0  0  0  0  0  0  0  0  0  0
   60.6020   30.2890   47.5420 S   0  0  0  0  0  0  0  0  0  0  0  0
   61.9740   30.8220   47.2590 O   0  0  0  0  0  0  0  0  0  0  0  0
   60.2230   30.6970   48.9350 O   0  0  0  0  0  0  0  0  0  0  0  0
   60.6040   28.5400   47.4460 N   0  0  0  0  0  0  0  0  0  0  0  0
   60.5720   28.0700   46.0360 C   0  0  0  0  0  0  0  0  0  0  0  0
   59.2140   27.4830   45.6410 C   0  0  0  0  0  0  0  0  0  0  0  0
   58.8960   26.3270   46.4990 N   0  0  0  0  0  0  0  0  0  0  0  0
   57.2760   25.7380   46.1800 S   0  0  0  0  0  0  0  0  0  0  0  0
   56.5810   25.5980   47.5070 O   0  0  0  0  0  0  0  0  0  0  0  0
   56.5020   26.7450   45.3630 O   0  0  0  0  0  0  0  0  0  0  0  0
   57.2990   24.2040   45.2770 C   0  0  0  0  0  0  0  0  0  0  0  0
   58.5430   23.6110   45.0320 C   0  0  0  0  0  0  0  0  0  0  0  0
   58.6430   22.4080   44.3300 C   0  0  0  0  0  0  0  0  0  0  0  0
   57.5020   21.7780   43.8630 C   0  0  0  0  0  0  0  0  0  0  0  0
   56.2510   22.3460   44.0900 C   0  0  0  0  0  0  0  0  0  0  0  0
   56.1400   23.5610   44.7920 C   0  0  0  0  0  0  0  0  0  0  0  0
   54.4870   24.1730   44.9990 Cl  0  0  0  0  0  0  0  0  0  0  0  0
   59.1780   26.5380   47.9410 C   0  0  0  0  0  0  0  0  0  0  0  0
   59.5130   27.9990   48.2880 C   0  0  0  0  0  0  0  0  0  0  0  0
   58.5720   30.1770   45.6870 C   0  0  0  0  0  0  0  0  0  0  0  0
   55.4490   28.6340   45.5940 H   0  0  0  0  0  0  0  0  0  0  0  0
   56.8216   32.5923   44.0021 H   0  0  0  0  0  0  0  0  0  0  0  0
   58.3921   34.0484   45.2665 H   0  0  0  0  0  0  0  0  0  0  0  0
   60.0626   33.0382   46.8139 H   0  0  0  0  0  0  0  0  0  0  0  0
   61.5100   28.2250   47.8660 H   0  0  0  0  0  0  0  0  0  0  0  0
   60.7930   28.9216   45.3758 H   0  0  0  0  0  0  0  0  0  0  0  0
   61.3220   27.2718   45.9340 H   0  0  0  0  0  0  0  0  0  0  0  0
   58.4360   28.2512   45.7616 H   0  0  0  0  0  0  0  0  0  0  0  0
   59.2539   27.1542   44.5920 H   0  0  0  0  0  0  0  0  0  0  0  0
   59.4572   24.1008   45.3986 H   0  0  0  0  0  0  0  0  0  0  0  0
   59.6308   21.9598   44.1476 H   0  0  0  0  0  0  0  0  0  0  0  0
   57.5836   20.8290   43.3128 H   0  0  0  0  0  0  0  0  0  0  0  0
   55.3457   21.8431   43.7192 H   0  0  0  0  0  0  0  0  0  0  0  0
   58.2913   26.2366   48.5180 H   0  0  0  0  0  0  0  0  0  0  0  0
   60.0614   25.9326   48.1923 H   0  0  0  0  0  0  0  0  0  0  0  0
   58.6129   28.6135   48.1387 H   0  0  0  0  0  0  0  0  0  0  0  0
   59.8497   28.0278   49.3348 H   0  0  0  0  0  0  0  0  0  0  0  0
   58.6325   29.0833   45.7877 H   0  0  0  0  0  0  0  0  0  0  0  0
  1  2  1  0
  2  3  2  0
  2  4  2  0
  2  5  1  0
  5  6  2  0
  6  7  1  0
  7  8  2  0
  8  9  1  0
  9 10  1  0
 10 11  2  0
 10 12  2  0
 10 13  1  0
 13 14  1  0
 14 15  1  0
 15 16  1  0
 16 17  1  0
 17 18  2  0
 17 19  2  0
 17 20  1  0
 20 21  2  0
 21 22  1  0
 22 23  2  0
 23 24  1  0
 24 25  2  0
 25 26  1  0
 16 27  1  0
 27 28  1  0
  9 29  2  0
 29  5  1  0
 28 13  1  0
 25 20  1  0
  1 30  1  0
  6 31  1  0
  7 32  1  0
  8 33  1  0
 13 34  1  0
 14 35  1  0
 14 36  1  0
 15 37  1  0
 15 38  1  0
 21 39  1  0
 22 40  1  0
 23 41  1  0
 24 42  1  0
 27 43  1  0
 27 44  1  0
 28 45  1  0
 28 46  1  0
 29 47  1  0
M  CHG  2   1  -1  13   1
M  END
>  <UniqueID>  (21) 
18

>  <SMILES>  (21) 
[NH-]S(=O)(=O)c1cccc(S(=O)(=O)[NH+]2CCN(S(=O)(=O)c3ccccc3Cl)CC2)c1

>  <Energy>  (21) 
58.929250438735195

>  <Genealogy>  (21) 
[NH-]S(=O)(=O)c1cccc(S(=O)(=O)[NH+]2CCN(S(=O)(=O)c3ccccc3Cl)CC2)c1 (protonated)
[NH-]S(=O)(=O)c1cccc(S(=O)(=O)[NH+]2CCN(S(=O)(=O)c3ccccc3Cl)CC2)c1 (3D coordinates assigned)
[NH-]S(=O)(=O)c1cccc(S(=O)(=O)[NH+]2CCN(S(=O)(=O)c3ccccc3Cl)CC2)c1 (nonaromatic ring conformer: 58.929250438735195 kcal/mol)

>  <smiles>  (21) 
NS(=O)(=O)c1cccc(S(=O)(=O)N2CCN(S(=O)(=O)c3ccccc3Cl)CC2)c1

>  <score_type>  (21) 
oracle

>  <origin>  (21) 
adg

>  <m_score__min__energy>  (21) 
-10.9

>  <m_primary>  (21) 
energy

$$$$
21:0
     RDKit          3D

 49 51  0  0  0  0  0  0  0  0999 V2000
   58.7590   30.2180   44.1460 C   0  0  0  0  0  0  0  0  0  0  0  0
   57.4350   29.4640   43.8970 C   0  0  0  0  0  0  0  0  0  0  0  0
   57.7640   28.0430   43.3940 C   0  0  0  0  0  0  0  0  0  0  0  0
   56.6280   30.1950   42.8040 C   0  0  0  0  0  0  0  0  0  0  0  0
   56.6120   29.3390   45.2120 C   0  0  0  0  0  0  0  0  0  0  0  0
   56.6410   27.9660   45.8380 C   0  0  0  0  0  0  0  0  0  0  0  0
   55.6300   27.0890   45.6880 N   0  0  0  0  0  0  0  0  0  0  0  0
   56.0760   25.9790   46.3070 C   0  0  0  0  0  0  0  0  0  0  0  0
   55.3970   24.9220   46.3790 O   0  0  0  0  0  0  0  0  0  0  0  0
   57.3100   26.0890   46.8340 N   0  0  0  0  0  0  0  0  0  0  0  0
   57.6710   27.3530   46.5450 C   0  0  0  0  0  0  0  0  0  0  0  0
   58.9810   27.9040   46.9350 C   0  0  0  0  0  0  0  0  0  0  0  0
   59.9250   27.1100   47.1890 O   0  0  0  0  0  0  0  0  0  0  0  0
   59.1650   29.3130   47.1050 N   0  0  0  0  0  0  0  0  0  0  0  0
   58.9670   30.0410   48.3260 C   0  0  0  0  0  0  0  0  0  0  0  0
   58.9030   29.3690   49.5610 C   0  0  0  0  0  0  0  0  0  0  0  0
   58.7250   30.0830   50.7480 C   0  0  0  0  0  0  0  0  0  0  0  0
   58.6220   31.4730   50.7180 C   0  0  0  0  0  0  0  0  0  0  0  0
   58.7010   32.1540   49.5030 C   0  0  0  0  0  0  0  0  0  0  0  0
   58.8790   31.4500   48.2980 C   0  0  0  0  0  0  0  0  0  0  0  0
   58.9590   32.1800   47.0580 N   0  0  0  0  0  0  0  0  0  0  0  0
   60.2100   32.8280   46.6510 C   0  0  0  0  0  0  0  0  0  0  0  0
   59.9050   34.0720   45.8070 C   0  0  0  0  0  0  0  0  0  0  0  0
   58.7170   34.6830   46.2700 O   0  0  0  0  0  0  0  0  0  0  0  0
   57.5880   33.8960   45.9230 C   0  0  0  0  0  0  0  0  0  0  0  0
   57.7640   32.3920   46.2340 C   0  0  0  0  0  0  0  0  0  0  0  0
   58.9281   30.3143   45.2287 H   0  0  0  0  0  0  0  0  0  0  0  0
   59.5906   29.6580   43.6934 H   0  0  0  0  0  0  0  0  0  0  0  0
   58.7017   31.2189   43.6934 H   0  0  0  0  0  0  0  0  0  0  0  0
   57.9184   27.3759   44.2549 H   0  0  0  0  0  0  0  0  0  0  0  0
   56.9291   27.6674   42.7842 H   0  0  0  0  0  0  0  0  0  0  0  0
   58.6791   28.0726   42.7842 H   0  0  0  0  0  0  0  0  0  0  0  0
   55.8917   30.8620   43.2762 H   0  0  0  0  0  0  0  0  0  0  0  0
   57.3114   30.7878   42.1783 H   0  0  0  0  0  0  0  0  0  0  0  0
   56.1055   29.4564   42.1783 H   0  0  0  0  0  0  0  0  0  0  0  0
   57.0160   30.0577   45.9402 H   0  0  0  0  0  0  0  0  0  0  0  0
   55.5638   29.5407   44.9464 H   0  0  0  0  0  0  0  0  0  0  0  0
   58.9939   28.2732   49.5915 H   0  0  0  0  0  0  0  0  0  0  0  0
   58.6660   29.5482   51.7074 H   0  0  0  0  0  0  0  0  0  0  0  0
   58.4783   32.0335   51.6535 H   0  0  0  0  0  0  0  0  0  0  0  0
   58.6234   33.2511   49.4870 H   0  0  0  0  0  0  0  0  0  0  0  0
   60.7748   33.1250   47.5470 H   0  0  0  0  0  0  0  0  0  0  0  0
   60.8047   32.1221   46.0526 H   0  0  0  0  0  0  0  0  0  0  0  0
   60.7391   34.7842   45.8910 H   0  0  0  0  0  0  0  0  0  0  0  0
   59.7762   33.7759   44.7555 H   0  0  0  0  0  0  0  0  0  0  0  0
   56.7186   34.2681   46.4848 H   0  0  0  0  0  0  0  0  0  0  0  0
   57.4527   33.9872   44.8352 H   0  0  0  0  0  0  0  0  0  0  0  0
   56.8794   32.0275   46.7768 H   0  0  0  0  0  0  0  0  0  0  0  0
   57.8785   31.8416   45.2885 H   0  0  0  0  0  0  0  0  0  0  0  0
  1  2  1  0
  2  3  1  0
  2  4  1  0
  2  5  1  0
  5  6  1  0
  6  7  1  0
  7  8  1  0
  8  9  2  0
  8 10  1  0
 10 11  1  0
 11 12  1  0
 12 13  2  0
 12 14  1  0
 14 15  1  0
 15 16  2  0
 16 17  1  0
 17 18  2  0
 18 19  1  0
 19 20  2  0
 20 21  1  0
 21 22  1  0
 22 23  1  0
 23 24  1  0
 24 25  1  0
 25 26  1  0
 11  6  2  0
 20 15  1  0
 26 21  1  0
  1 27  1  0
  1 28  1  0
  1 29  1  0
  3 30  1  0
  3 31  1  0
  3 32  1  0
  4 33  1  0
  4 34  1  0
  4 35  1  0
  5 36  1  0
  5 37  1  0
 16 38  1  0
 17 39  1  0
 18 40  1  0
 19 41  1  0
 22 42  1  0
 22 43  1  0
 23 44  1  0
 23 45  1  0
 25 46  1  0
 25 47  1  0
 26 48  1  0
 26 49  1  0
M  CHG  3   7  -1  10  -1  14  -1
M  END
>  <UniqueID>  (22) 
19

>  <SMILES>  (22) 
CC(C)(C)Cc1[n-]c(=O)[n-]c1C(=O)[N-]c1ccccc1N1CCOCC1

>  <Energy>  (22) 
88.49476053492732

>  <Genealogy>  (22) 
CC(C)(C)Cc1[n-]c(=O)[n-]c1C(=O)[N-]c1ccccc1N1CCOCC1 (protonated)
CC(C)(C)Cc1[n-]c(=O)[n-]c1C(=O)[N-]c1ccccc1N1CCOCC1 (3D coordinates assigned)
CC(C)(C)Cc1[n-]c(=O)[n-]c1C(=O)[N-]c1ccccc1N1CCOCC1 (nonaromatic ring conformer: 88.49476053492732 kcal/mol)

>  <smiles>  (22) 
CC(C)(C)Cc1[nH]c(=O)[nH]c1C(=O)Nc1ccccc1N1CCOCC1

>  <score_type>  (22) 
oracle

>  <origin>  (22) 
adg

>  <m_score__min__energy>  (22) 
-13.25

>  <m_primary>  (22) 
energy

$$$$
22:0
     RDKit          3D

 44 45  0  0  0  0  0  0  0  0999 V2000
   55.2090   29.9840   43.7540 C   0  0  0  0  0  0  0  0  0  0  0  0
   56.5430   29.8040   44.4050 C   0  0  0  0  0  0  0  0  0  0  0  0
   57.1120   30.8420   45.0670 N   0  0  0  0  0  0  0  0  0  0  0  0
   58.3130   30.7170   45.6860 C   0  0  0  0  0  0  0  0  0  0  0  0
   58.8500   31.8490   46.3800 N   0  0  0  0  0  0  0  0  0  0  0  0
   59.4000   32.9720   45.6090 C   0  0  0  0  0  0  0  0  0  0  0  0
   59.9980   34.0300   46.5380 C   0  0  0  0  0  0  0  0  0  0  0  0
   60.8480   33.3760   47.5420 N   0  0  0  0  0  0  0  0  0  0  0  0
   62.2640   33.6600   47.5830 C   0  0  0  0  0  0  0  0  0  0  0  0
   62.8500   34.0400   46.5320 O   0  0  0  0  0  0  0  0  0  0  0  0
   63.0560   33.5190   48.8260 C   0  0  0  0  0  0  0  0  0  0  0  0
   62.5020   33.6970   49.9430 O   0  0  0  0  0  0  0  0  0  0  0  0
   64.4600   33.2120   48.7560 N   0  0  0  0  0  0  0  0  0  0  0  0
   65.3150   33.0940   49.9040 C   0  0  0  0  0  0  0  0  0  0  0  0
   66.6950   32.7720   49.7320 N   0  0  0  0  0  0  0  0  0  0  0  0
   64.8640   33.2730   51.0670 O   0  0  0  0  0  0  0  0  0  0  0  0
   60.2930   32.2630   48.3360 C   0  0  0  0  0  0  0  0  0  0  0  0
   58.8970   31.8480   47.8460 C   0  0  0  0  0  0  0  0  0  0  0  0
   59.0030   29.4890   45.6350 C   0  0  0  0  0  0  0  0  0  0  0  0
   60.3540   29.3290   46.2920 C   0  0  0  0  0  0  0  0  0  0  0  0
   58.3700   28.4040   44.9870 C   0  0  0  0  0  0  0  0  0  0  0  0
   59.0170   27.0450   44.9220 C   0  0  0  0  0  0  0  0  0  0  0  0
   57.1630   28.5940   44.3790 N   0  0  0  0  0  0  0  0  0  0  0  0
   54.4344   30.0885   44.5280 H   0  0  0  0  0  0  0  0  0  0  0  0
   55.2257   30.8880   43.1275 H   0  0  0  0  0  0  0  0  0  0  0  0
   54.9855   29.1079   43.1275 H   0  0  0  0  0  0  0  0  0  0  0  0
   60.1859   32.5970   44.9369 H   0  0  0  0  0  0  0  0  0  0  0  0
   58.5866   33.4324   45.0291 H   0  0  0  0  0  0  0  0  0  0  0  0
   60.6026   34.7355   45.9491 H   0  0  0  0  0  0  0  0  0  0  0  0
   59.1870   34.5750   47.0431 H   0  0  0  0  0  0  0  0  0  0  0  0
   64.8910   33.0510   47.8170 H   0  0  0  0  0  0  0  0  0  0  0  0
   67.0900   32.6190   48.7780 H   0  0  0  0  0  0  0  0  0  0  0  0
   67.3240   32.6850   50.5600 H   0  0  0  0  0  0  0  0  0  0  0  0
   60.9688   31.3987   48.2571 H   0  0  0  0  0  0  0  0  0  0  0  0
   60.2010   32.6015   49.3786 H   0  0  0  0  0  0  0  0  0  0  0  0
   58.6685   30.8374   48.2155 H   0  0  0  0  0  0  0  0  0  0  0  0
   58.1561   32.5658   48.2279 H   0  0  0  0  0  0  0  0  0  0  0  0
   60.2340   29.3432   47.3853 H   0  0  0  0  0  0  0  0  0  0  0  0
   60.8002   28.3717   45.9845 H   0  0  0  0  0  0  0  0  0  0  0  0
   61.0115   30.1556   45.9845 H   0  0  0  0  0  0  0  0  0  0  0  0
   59.1937   26.6739   45.9423 H   0  0  0  0  0  0  0  0  0  0  0  0
   58.3539   26.3484   44.3881 H   0  0  0  0  0  0  0  0  0  0  0  0
   59.9758   27.1205   44.3881 H   0  0  0  0  0  0  0  0  0  0  0  0
   56.7000   27.7990   43.8820 H   0  0  0  0  0  0  0  0  0  0  0  0
  1  2  1  0
  2  3  2  0
  3  4  1  0
  4  5  1  0
  5  6  1  0
  6  7  1  0
  7  8  1  0
  8  9  1  0
  9 10  2  0
  9 11  1  0
 11 12  2  0
 11 13  1  0
 13 14  1  0
 14 15  1  0
 14 16  2  0
  8 17  1  0
 17 18  1  0
  4 19  2  0
 19 20  1  0
 19 21  1  0
 21 22  1  0
 21 23  2  0
 23  2  1  0
 18  5  1  0
  1 24  1  0
  1 25  1  0
  1 26  1  0
  6 27  1  0
  6 28  1  0
  7 29  1  0
  7 30  1  0
 13 31  1  0
 15 32  1  0
 15 33  1  0
 17 34  1  0
 17 35  1  0
 18 36  1  0
 18 37  1  0
 20 38  1  0
 20 39  1  0
 20 40  1  0
 22 41  1  0
 22 42  1  0
 22 43  1  0
 23 44  1  0
M  CHG  1  23   1
M  END
>  <UniqueID>  (23) 
20

>  <SMILES>  (23) 
Cc1nc(N2CCN(C(=O)C(=O)NC(N)=O)CC2)c(C)c(C)[nH+]1

>  <Energy>  (23) 
50.09750716433665

>  <Genealogy>  (23) 
Cc1nc(N2CCN(C(=O)C(=O)NC(N)=O)CC2)c(C)c(C)[nH+]1 (protonated)
Cc1nc(N2CCN(C(=O)C(=O)NC(N)=O)CC2)c(C)c(C)[nH+]1 (3D coordinates assigned)
Cc1nc(N2CCN(C(=O)C(=O)NC(N)=O)CC2)c(C)c(C)[nH+]1 (nonaromatic ring conformer: 50.09750716433665 kcal/mol)

>  <smiles>  (23) 
Cc1nc(C)c(C)c(N2CCN(C(=O)C(=O)NC(N)=O)CC2)n1

>  <score_type>  (23) 
oracle

>  <origin>  (23) 
adg

>  <m_score__min__energy>  (23) 
-6.1299999999999999

>  <m_primary>  (23) 
energy

$$$$
23:0
     RDKit          3D

 50 53  0  0  1  0  0  0  0  0999 V2000
   60.5900   33.6660   49.9130 C   0  0  0  0  0  0  0  0  0  0  0  0
   61.6530   33.6050   49.1430 C   0  0  0  0  0  0  0  0  0  0  0  0
   62.9390   33.3030   49.4810 C   0  0  0  0  0  0  0  0  0  0  0  0
   63.3960   32.9210   50.6480 C   0  0  0  0  0  0  0  0  0  0  0  0
   64.4910   32.0070   50.8840 C   0  0  0  0  0  0  0  0  0  0  0  0
   64.3620   30.6910   51.2630 C   0  0  0  0  0  0  0  0  0  0  0  0
   63.0920   30.1550   51.3790 O   0  0  0  0  0  0  0  0  0  0  0  0
   65.4880   29.9610   51.5110 N   0  0  0  0  0  0  0  0  0  0  0  0
   66.7160   30.4910   51.3940 C   0  0  0  0  0  0  0  0  0  0  0  0
   67.7620   29.8340   51.6200 O   0  0  0  0  0  0  0  0  0  0  0  0
   66.8540   31.7880   51.0190 N   0  0  0  0  0  0  0  0  0  0  0  0
   65.7800   32.5680   50.7590 C   0  0  0  0  0  0  0  0  0  0  0  0
   65.9420   33.7640   50.4140 O   0  0  0  0  0  0  0  0  0  0  0  0
   63.7720   33.3730   48.3580 C   0  0  0  0  0  0  0  0  0  0  0  0
   62.9280   33.7260   47.3310 C   0  0  0  0  0  0  0  0  0  0  0  0
   63.3900   33.9210   45.9320 C   0  0  0  0  0  0  0  0  0  0  0  0
   61.6740   33.8620   47.8030 N   0  0  0  0  0  0  0  0  0  0  0  0
   60.5480   34.1550   46.9660 C   0  0  0  0  0  0  0  0  0  0  0  0
   59.7960   32.9460   46.6150 C   0  0  0  0  0  0  0  0  0  0  0  0
   60.2180   31.6500   46.7890 C   0  0  0  0  0  0  0  0  0  0  0  0
   59.4240   30.5710   46.3500 C   0  0  0  0  0  0  0  0  0  0  0  0
   58.2250   30.8240   45.7450 C   0  0  0  0  0  0  0  0  0  0  0  0
   57.3250   29.7860   45.2280 C   0  0  0  0  0  0  0  0  0  0  0  0
   56.1330   30.0170   44.9060 O   0  0  0  0  0  0  0  0  0  0  0  0
   57.9050   28.4690   45.1220 N   0  0  0  0  0  0  0  0  0  0  0  0
   57.1840   27.5070   45.6000 C   0  0  0  0  0  0  0  0  0  0  0  0
   57.7420   26.4170   46.2020 N   0  0  0  0  0  0  0  0  0  0  0  0
   56.7360   25.6380   46.5620 N   0  0  0  0  0  0  0  0  0  0  0  0
   55.6040   26.1900   46.2160 N   0  0  0  0  0  0  0  0  0  0  0  0
   55.8650   27.3260   45.6310 N   0  0  0  0  0  0  0  0  0  0  0  0
   57.7590   32.1340   45.5520 C   0  0  0  0  0  0  0  0  0  0  0  0
   58.5560   33.1540   45.9900 C   0  0  0  0  0  0  0  0  0  0  0  0
   59.6125   33.9270   49.4814 H   0  0  0  0  0  0  0  0  0  0  0  0
   60.6777   33.4561   50.9892 H   0  0  0  0  0  0  0  0  0  0  0  0
   62.8973   33.3368   51.5359 H   0  0  0  0  0  0  0  0  0  0  0  0
   62.3220   30.7880   51.2080 H   0  0  0  0  0  0  0  0  0  0  0  0
   65.3980   28.9650   51.8010 H   0  0  0  0  0  0  0  0  0  0  0  0
   67.8200   32.1710   50.9370 H   0  0  0  0  0  0  0  0  0  0  0  0
   64.8552   33.1878   48.3083 H   0  0  0  0  0  0  0  0  0  0  0  0
   64.4034   34.3487   45.9368 H   0  0  0  0  0  0  0  0  0  0  0  0
   63.4035   32.9518   45.4119 H   0  0  0  0  0  0  0  0  0  0  0  0
   62.7050   34.6068   45.4119 H   0  0  0  0  0  0  0  0  0  0  0  0
   59.8795   34.8469   47.4992 H   0  0  0  0  0  0  0  0  0  0  0  0
   60.9241   34.6039   46.0349 H   0  0  0  0  0  0  0  0  0  0  0  0
   61.1846   31.4525   47.2755 H   0  0  0  0  0  0  0  0  0  0  0  0
   59.7662   29.5354   46.4930 H   0  0  0  0  0  0  0  0  0  0  0  0
   54.6500   25.8160   46.3650 H   0  0  0  0  0  0  0  0  0  0  0  0
   55.1920   28.0360   45.2260 H   0  0  0  0  0  0  0  0  0  0  0  0
   56.7913   32.3315   45.0677 H   0  0  0  0  0  0  0  0  0  0  0  0
   58.2093   34.1880   45.8460 H   0  0  0  0  0  0  0  0  0  0  0  0
  1  2  2  0
  2  3  1  0
  3  4  2  0
  4  5  1  0
  5  6  2  0
  6  7  1  0
  6  8  1  0
  8  9  1  0
  9 10  2  0
  9 11  1  0
 11 12  1  0
 12 13  2  0
  3 14  1  0
 14 15  2  0
 15 16  1  0
 15 17  1  0
 17 18  1  0
 18 19  1  0
 19 20  2  0
 20 21  1  0
 21 22  2  0
 22 23  1  0
 23 24  2  0
 23 25  1  0
 25 26  2  3
 26 27  1  0
 27 28  2  0
 28 29  1  0
 29 30  1  0
 22 31  1  0
 31 32  2  0
 17  2  1  0
 32 19  1  0
 12  5  1  0
 30 26  1  0
  1 33  1  0
  1 34  1  0
  4 35  1  0
  7 36  1  0
  8 37  1  0
 11 38  1  0
 14 39  1  0
 16 40  1  0
 16 41  1  0
 16 42  1  0
 18 43  1  0
 18 44  1  0
 20 45  1  0
 21 46  1  0
 29 47  1  0
 30 48  1  0
 31 49  1  0
 32 50  1  0
M  END
>  <smiles>  (24) 
C=c1c(=Cc2c(O)[nH]c(=O)[nH]c2=O)cc(C)n1Cc1ccc(C(=O)N=c2nn[nH][nH]2)cc1

>  <score_type>  (24) 
oracle

>  <origin>  (24) 
adg

>  <m_score__min__energy>  (24) 
-9.8200000000000003

>  <m_primary>  (24) 
energy

$$$$
24:0
     RDKit          3D

 41 43  0  0  1  0  0  0  0  0999 V2000
   56.5300   29.4730   42.6620 N   0  0  0  0  0  0  0  0  0  0  0  0
   56.3590   29.4210   44.0600 C   0  0  0  0  0  0  0  0  0  0  0  0
   55.1480   29.3090   44.4610 O   0  0  0  0  0  0  0  0  0  0  0  0
   57.3640   29.4650   45.0800 C   0  0  0  0  0  0  0  0  0  0  0  0
   57.6990   28.2220   45.6510 C   0  0  0  0  0  0  0  0  0  0  0  0
   58.6260   28.1240   46.5900 N   0  0  0  0  0  0  0  0  0  0  0  0
   59.2950   29.1860   47.0520 C   0  0  0  0  0  0  0  0  0  0  0  0
   60.1540   29.0260   47.9320 N   0  0  0  0  0  0  0  0  0  0  0  0
   60.8780   29.7440   48.8540 C   0  0  0  0  0  0  0  0  0  0  0  0
   61.1450   31.1640   48.8130 C   0  0  0  0  0  0  0  0  0  0  0  0
   60.5760   32.0300   49.7320 C   0  0  0  0  0  0  0  0  0  0  0  0
   60.8320   33.3820   49.7500 C   0  0  0  0  0  0  0  0  0  0  0  0
   61.6910   33.9440   48.8290 C   0  0  0  0  0  0  0  0  0  0  0  0
   62.2690   33.1190   47.9110 C   0  0  0  0  0  0  0  0  0  0  0  0
   63.3830   33.7440   46.6900 Cl  0  0  0  0  0  0  0  0  0  0  0  0
   62.0140   31.7810   47.8930 C   0  0  0  0  0  0  0  0  0  0  0  0
   59.0030   30.3910   46.5340 N   0  0  0  0  0  0  0  0  0  0  0  0
   58.0520   30.5250   45.5680 C   0  0  0  0  0  0  0  0  0  0  0  0
   57.7390   31.7010   45.2370 N   0  0  0  0  0  0  0  0  0  0  0  0
   58.3380   32.9250   45.5310 C   0  0  0  0  0  0  0  0  0  0  0  0
   58.8240   33.7950   44.5390 C   0  0  0  0  0  0  0  0  0  0  0  0
   59.3390   35.0250   44.9020 C   0  0  0  0  0  0  0  0  0  0  0  0
   59.3500   35.3420   46.2270 C   0  0  0  0  0  0  0  0  0  0  0  0
   58.8890   34.5360   47.2370 C   0  0  0  0  0  0  0  0  0  0  0  0
   58.3760   33.3070   46.8820 C   0  0  0  0  0  0  0  0  0  0  0  0
   57.9100   32.4780   47.8410 F   0  0  0  0  0  0  0  0  0  0  0  0
   57.3530   28.9750   42.2600 H   0  0  0  0  0  0  0  0  0  0  0  0
   55.8680   29.9820   42.0450 H   0  0  0  0  0  0  0  0  0  0  0  0
   57.1796   27.3145   45.3095 H   0  0  0  0  0  0  0  0  0  0  0  0
   58.8570   27.2070   46.9960 H   0  0  0  0  0  0  0  0  0  0  0  0
   60.3679   29.5754   49.8139 H   0  0  0  0  0  0  0  0  0  0  0  0
   61.8858   29.3602   48.6369 H   0  0  0  0  0  0  0  0  0  0  0  0
   59.8866   31.6174   50.4833 H   0  0  0  0  0  0  0  0  0  0  0  0
   60.3478   34.0192   50.5047 H   0  0  0  0  0  0  0  0  0  0  0  0
   61.9028   35.0234   48.8351 H   0  0  0  0  0  0  0  0  0  0  0  0
   62.5058   31.1589   47.1306 H   0  0  0  0  0  0  0  0  0  0  0  0
   59.5200   31.2470   46.8840 H   0  0  0  0  0  0  0  0  0  0  0  0
   58.7945   33.4983   43.4802 H   0  0  0  0  0  0  0  0  0  0  0  0
   59.7269   35.7244   44.1468 H   0  0  0  0  0  0  0  0  0  0  0  0
   59.7613   36.3223   46.5095 H   0  0  0  0  0  0  0  0  0  0  0  0
   58.9273   34.8578   48.2882 H   0  0  0  0  0  0  0  0  0  0  0  0
  1  2  1  0
  2  3  2  0
  2  4  1  0
  4  5  2  0
  5  6  1  0
  6  7  1  0
  7  8  2  0
  8  9  1  0
  9 10  1  0
 10 11  2  0
 11 12  1  0
 12 13  2  0
 13 14  1  0
 14 15  1  0
 14 16  2  0
  7 17  1  0
 17 18  1  0
 18 19  2  0
 19 20  1  0
 20 21  2  0
 21 22  1  0
 22 23  2  0
 23 24  1  0
 24 25  2  0
 25 26  1  0
 18  4  1  0
 25 20  1  0
 16 10  1  0
  1 27  1  0
  1 28  1  0
  5 29  1  0
  6 30  1  0
  9 31  1  0
  9 32  1  0
 11 33  1  0
 12 34  1  0
 13 35  1  0
 16 36  1  0
 17 37  1  0
 21 38  1  0
 22 39  1  0
 23 40  1  0
 24 41  1  0
M  END
>  <smiles>  (25) 
NC(=O)c1c[nH]c(=NCc2cccc(Cl)c2)[nH]c1=Nc1ccccc1F

>  <score_type>  (25) 
oracle

>  <origin>  (25) 
adg

>  <m_score__min__energy>  (25) 
-8.7100000000000009

>  <m_primary>  (25) 
energy

$$$$
25:0
     RDKit          3D

 42 44  0  0  0  0  0  0  0  0999 V2000
   62.1660   34.5550   49.4580 N   0  0  0  0  0  0  0  0  0  0  0  0
   62.4640   33.5410   48.0890 S   0  0  0  0  0  0  0  0  0  0  0  0
   63.4800   34.1930   47.1960 O   0  0  0  0  0  0  0  0  0  0  0  0
   63.0080   32.2190   48.5510 O   0  0  0  0  0  0  0  0  0  0  0  0
   60.9620   33.2930   47.2030 C   0  0  0  0  0  0  0  0  0  0  0  0
   60.4130   34.3350   46.4460 C   0  0  0  0  0  0  0  0  0  0  0  0
   59.2270   34.1360   45.7320 C   0  0  0  0  0  0  0  0  0  0  0  0
   58.5680   32.8970   45.7790 C   0  0  0  0  0  0  0  0  0  0  0  0
   57.3020   32.6840   44.9940 C   0  0  0  0  0  0  0  0  0  0  0  0
   57.5710   32.0110   43.7260 N   0  0  0  0  0  0  0  0  0  0  0  0
   56.7850   30.9640   43.1420 C   0  0  0  0  0  0  0  0  0  0  0  0
   56.6440   30.9410   41.8920 O   0  0  0  0  0  0  0  0  0  0  0  0
   56.1130   29.9010   43.9710 C   0  0  0  0  0  0  0  0  0  0  0  0
   57.0860   28.9660   44.5400 N   0  0  0  0  0  0  0  0  0  0  0  0
   56.8050   27.8850   45.3020 C   0  0  0  0  0  0  0  0  0  0  0  0
   55.5190   27.4650   45.6240 O   0  0  0  0  0  0  0  0  0  0  0  0
   57.9680   27.2830   45.7370 C   0  0  0  0  0  0  0  0  0  0  0  0
   59.0050   28.0390   45.2520 C   0  0  0  0  0  0  0  0  0  0  0  0
   58.4360   29.0780   44.5380 C   0  0  0  0  0  0  0  0  0  0  0  0
   59.1330   30.1160   43.9210 O   0  0  0  0  0  0  0  0  0  0  0  0
   60.4450   27.7720   45.5530 C   0  0  0  0  0  0  0  0  0  0  0  0
   60.6250   26.4810   46.3290 C   0  0  0  0  0  0  0  0  0  0  0  0
   59.6020   25.7370   46.8050 C   0  0  0  0  0  0  0  0  0  0  0  0
   58.1400   26.0980   46.6310 C   0  0  0  0  0  0  0  0  0  0  0  0
   59.1410   31.8440   46.5120 C   0  0  0  0  0  0  0  0  0  0  0  0
   60.3280   32.0420   47.2230 C   0  0  0  0  0  0  0  0  0  0  0  0
   62.9390   35.2560   49.4950 H   0  0  0  0  0  0  0  0  0  0  0  0
   60.9158   35.3128   46.4127 H   0  0  0  0  0  0  0  0  0  0  0  0
   58.8077   34.9554   45.1297 H   0  0  0  0  0  0  0  0  0  0  0  0
   56.6116   32.0669   45.5878 H   0  0  0  0  0  0  0  0  0  0  0  0
   56.8577   33.6668   44.7781 H   0  0  0  0  0  0  0  0  0  0  0  0
   55.5602   30.3836   44.7905 H   0  0  0  0  0  0  0  0  0  0  0  0
   55.4324   29.3346   43.3183 H   0  0  0  0  0  0  0  0  0  0  0  0
   58.8230   30.5000   43.0360 H   0  0  0  0  0  0  0  0  0  0  0  0
   60.9998   27.6992   44.6059 H   0  0  0  0  0  0  0  0  0  0  0  0
   60.8259   28.5993   46.1698 H   0  0  0  0  0  0  0  0  0  0  0  0
   61.6503   26.1291   46.5156 H   0  0  0  0  0  0  0  0  0  0  0  0
   59.8449   24.8139   47.3516 H   0  0  0  0  0  0  0  0  0  0  0  0
   57.6103   25.2398   46.1918 H   0  0  0  0  0  0  0  0  0  0  0  0
   57.7282   26.3503   47.6193 H   0  0  0  0  0  0  0  0  0  0  0  0
   58.6527   30.8584   46.5264 H   0  0  0  0  0  0  0  0  0  0  0  0
   60.7662   31.2143   47.7999 H   0  0  0  0  0  0  0  0  0  0  0  0
  1  2  1  0
  2  3  2  0
  2  4  2  0
  2  5  1  0
  5  6  2  0
  6  7  1  0
  7  8  2  0
  8  9  1  0
  9 10  1  0
 10 11  1  0
 11 12  2  0
 11 13  1  0
 13 14  1  0
 14 15  1  0
 15 16  1  0
 15 17  2  0
 17 18  1  0
 18 19  2  0
 19 20  1  0
 18 21  1  0
 21 22  1  0
 22 23  2  0
 23 24  1  0
  8 25  1  0
 25 26  2  0
 26  5  1  0
 19 14  1  0
 24 17  1  0
  1 27  1  0
  6 28  1  0
  7 29  1  0
  9 30  1  0
  9 31  1  0
 13 32  1  0
 13 33  1  0
 20 34  1  0
 21 35  1  0
 21 36  1  0
 22 37  1  0
 23 38  1  0
 24 39  1  0
 24 40  1  0
 25 41  1  0
 26 42  1  0
M  CHG  3   1  -1  10  -1  16  -1
M  END
>  <UniqueID>  (26) 
21

>  <SMILES>  (26) 
[NH-]S(=O)(=O)c1ccc(C[N-]C(=O)Cn2c([O-])c3c(c2O)CC=CC3)cc1

>  <Energy>  (26) 
71.92991180214118

>  <Genealogy>  (26) 
[NH-]S(=O)(=O)c1ccc(C[N-]C(=O)Cn2c([O-])c3c(c2O)CC=CC3)cc1 (protonated)
[NH-]S(=O)(=O)c1ccc(C[N-]C(=O)Cn2c([O-])c3c(c2O)CC=CC3)cc1 (3D coordinates assigned)
[NH-]S(=O)(=O)c1ccc(C[N-]C(=O)Cn2c([O-])c3c(c2O)CC=CC3)cc1 (nonaromatic ring conformer: 71.92991180214118 kcal/mol)

>  <smiles>  (26) 
NS(=O)(=O)c1ccc(CNC(=O)Cn2c(O)c3c(c2O)CC=CC3)cc1

>  <score_type>  (26) 
oracle

>  <origin>  (26) 
adg

>  <m_score__min__energy>  (26) 
-13.24

>  <m_primary>  (26) 
energy

$$$$
26:0
     RDKit          3D

 48 51  0  0  0  0  0  0  0  0999 V2000
   54.8570   26.2930   45.9820 N   0  0  0  0  0  0  0  0  0  0  0  0
   55.7080   25.2050   46.3350 C   0  0  0  0  0  0  0  0  0  0  0  0
   55.9870   25.0070   47.5460 O   0  0  0  0  0  0  0  0  0  0  0  0
   56.2130   24.2990   45.2880 C   0  0  0  0  0  0  0  0  0  0  0  0
   55.4720   23.8310   44.2230 C   0  0  0  0  0  0  0  0  0  0  0  0
   56.2750   22.9120   43.5820 C   0  0  0  0  0  0  0  0  0  0  0  0
   55.8970   22.1890   42.4570 O   0  0  0  0  0  0  0  0  0  0  0  0
   57.4760   22.7860   44.1780 N   0  0  0  0  0  0  0  0  0  0  0  0
   57.4410   23.6470   45.2130 C   0  0  0  0  0  0  0  0  0  0  0  0
   58.5680   23.8380   46.0770 N   0  0  0  0  0  0  0  0  0  0  0  0
   59.5440   24.8810   45.9540 C   0  0  0  0  0  0  0  0  0  0  0  0
   60.7580   24.5610   45.8480 O   0  0  0  0  0  0  0  0  0  0  0  0
   59.1670   26.3130   45.9240 C   0  0  0  0  0  0  0  0  0  0  0  0
   58.4010   26.8360   44.8670 C   0  0  0  0  0  0  0  0  0  0  0  0
   58.0410   28.1860   44.8580 C   0  0  0  0  0  0  0  0  0  0  0  0
   58.4510   29.0290   45.8920 C   0  0  0  0  0  0  0  0  0  0  0  0
   59.2350   28.5280   46.9390 C   0  0  0  0  0  0  0  0  0  0  0  0
   59.7240   29.5900   48.2590 S   0  0  0  0  0  0  0  0  0  0  0  0
   58.5030   30.0270   49.0210 O   0  0  0  0  0  0  0  0  0  0  0  0
   60.6230   28.8130   49.1810 O   0  0  0  0  0  0  0  0  0  0  0  0
   60.5670   30.9940   47.6540 N   0  0  0  0  0  0  0  0  0  0  0  0
   62.0040   31.0910   47.9480 C   0  0  0  0  0  0  0  0  0  0  0  0
   62.6840   32.1990   47.1410 C   0  0  0  0  0  0  0  0  0  0  0  0
   61.9360   33.5170   47.3160 C   0  0  0  0  0  0  0  0  0  0  0  0
   60.4980   33.3590   46.9090 C   0  0  0  0  0  0  0  0  0  0  0  0
   59.7980   34.4590   46.3950 C   0  0  0  0  0  0  0  0  0  0  0  0
   58.4600   34.3290   46.0170 C   0  0  0  0  0  0  0  0  0  0  0  0
   57.8140   33.1010   46.1520 C   0  0  0  0  0  0  0  0  0  0  0  0
   58.4970   32.0020   46.6810 C   0  0  0  0  0  0  0  0  0  0  0  0
   59.8420   32.1190   47.0910 C   0  0  0  0  0  0  0  0  0  0  0  0
   59.5920   27.1730   46.9510 C   0  0  0  0  0  0  0  0  0  0  0  0
   55.1450   26.9830   45.2540 H   0  0  0  0  0  0  0  0  0  0  0  0
   54.4510   24.1295   43.9429 H   0  0  0  0  0  0  0  0  0  0  0  0
   56.2570   22.4320   41.5430 H   0  0  0  0  0  0  0  0  0  0  0  0
   58.0838   26.1793   44.0435 H   0  0  0  0  0  0  0  0  0  0  0  0
   57.4325   28.5857   44.0334 H   0  0  0  0  0  0  0  0  0  0  0  0
   58.1578   30.0892   45.8847 H   0  0  0  0  0  0  0  0  0  0  0  0
   62.1331   31.3027   49.0197 H   0  0  0  0  0  0  0  0  0  0  0  0
   62.4715   30.1347   47.6705 H   0  0  0  0  0  0  0  0  0  0  0  0
   63.7195   32.3201   47.4919 H   0  0  0  0  0  0  0  0  0  0  0  0
   62.6767   31.9221   46.0764 H   0  0  0  0  0  0  0  0  0  0  0  0
   61.9828   33.8234   48.3714 H   0  0  0  0  0  0  0  0  0  0  0  0
   62.4057   34.2820   46.6802 H   0  0  0  0  0  0  0  0  0  0  0  0
   60.3050   35.4294   46.2888 H   0  0  0  0  0  0  0  0  0  0  0  0
   57.9159   35.1953   45.6128 H   0  0  0  0  0  0  0  0  0  0  0  0
   56.7639   32.9966   45.8414 H   0  0  0  0  0  0  0  0  0  0  0  0
   57.9804   31.0358   46.7787 H   0  0  0  0  0  0  0  0  0  0  0  0
   60.2101   26.7792   47.7712 H   0  0  0  0  0  0  0  0  0  0  0  0
  1  2  1  0
  2  3  2  0
  2  4  1  0
  4  5  1  0
  5  6  2  0
  6  7  1  0
  6  8  1  0
  8  9  1  0
  9 10  1  0
 10 11  1  0
 11 12  2  0
 11 13  1  0
 13 14  2  0
 14 15  1  0
 15 16  2  0
 16 17  1  0
 17 18  1  0
 18 19  2  0
 18 20  2  0
 18 21  1  0
 21 22  1  0
 22 23  1  0
 23 24  1  0
 24 25  1  0
 25 26  2  0
 26 27  1  0
 27 28  2  0
 28 29  1  0
 29 30  2  0
 17 31  2  0
  9  4  2  0
 31 13  1  0
 30 21  1  0
 30 25  1  0
  1 32  1  0
  5 33  1  0
  7 34  1  0
 14 35  1  0
 15 36  1  0
 16 37  1  0
 22 38  1  0
 22 39  1  0
 23 40  1  0
 23 41  1  0
 24 42  1  0
 24 43  1  0
 26 44  1  0
 27 45  1  0
 28 46  1  0
 29 47  1  0
 31 48  1  0
M  CHG  3   1  -1   8  -1  10  -1
M  END
>  <UniqueID>  (27) 
22

>  <SMILES>  (27) 
[NH-]C(=O)c1cc(O)[n-]c1[N-]C(=O)c1cccc(S(=O)(=O)N2CCCc3ccccc32)c1

>  <Energy>  (27) 
88.28071675719424

>  <Genealogy>  (27) 
[NH-]C(=O)c1cc(O)[n-]c1[N-]C(=O)c1cccc(S(=O)(=O)N2CCCc3ccccc32)c1 (protonated)
[NH-]C(=O)c1cc(O)[n-]c1[N-]C(=O)c1cccc(S(=O)(=O)N2CCCc3ccccc32)c1 (3D coordinates assigned)
[NH-]C(=O)c1cc(O)[n-]c1[N-]C(=O)c1cccc(S(=O)(=O)N2CCCc3ccccc32)c1 (nonaromatic ring conformer: 88.28071675719424 kcal/mol)

>  <smiles>  (27) 
NC(=O)c1cc(O)[nH]c1NC(=O)c1cccc(S(=O)(=O)N2CCCc3ccccc32)c1

>  <score_type>  (27) 
oracle

>  <origin>  (27) 
adg

>  <m_score__min__energy>  (27) 
-15.949999999999999

>  <m_primary>  (27) 
energy

$$$$
27:0
     RDKit          3D

 60 63  0  0  0  0  0  0  0  0999 V2000
   57.4050   29.6290   43.8560 C   0  0  0  0  0  0  0  0  0  0  0  0
   58.0730   30.6660   44.7610 C   0  0  1  0  0  0  0  0  0  0  0  0
   57.0930   31.6520   45.2150 N   0  0  0  0  0  0  0  0  0  0  0  0
   57.3300   33.0630   45.2350 C   0  0  0  0  0  0  0  0  0  0  0  0
   56.6540   33.8140   45.9880 O   0  0  0  0  0  0  0  0  0  0  0  0
   58.4080   33.6440   44.3710 C   0  0  0  0  0  0  0  0  0  0  0  0
   59.0790   34.8520   45.0330 C   0  0  0  0  0  0  0  0  0  0  0  0
   59.8700   34.4590   46.2450 C   0  0  0  0  0  0  0  0  0  0  0  0
   59.3800   34.7120   47.4870 N   0  0  0  0  0  0  0  0  0  0  0  0
   60.0630   34.3480   48.6040 C   0  0  0  0  0  0  0  0  0  0  0  0
   59.5730   34.5910   49.7380 O   0  0  0  0  0  0  0  0  0  0  0  0
   61.3030   33.7060   48.4790 C   0  0  0  0  0  0  0  0  0  0  0  0
   61.7840   33.4440   47.1930 C   0  0  0  0  0  0  0  0  0  0  0  0
   61.0580   33.8130   46.1040 N   0  0  0  0  0  0  0  0  0  0  0  0
   63.0880   32.7200   47.0370 C   0  0  0  0  0  0  0  0  0  0  0  0
   64.1440   33.2790   48.0110 C   0  0  0  0  0  0  0  0  0  0  0  0
   63.6130   33.5860   49.4390 C   0  0  0  0  0  0  0  0  0  0  0  0
   62.1260   33.2530   49.6570 C   0  0  0  0  0  0  0  0  0  0  0  0
   58.7130   29.9870   45.9540 C   0  0  0  0  0  0  0  0  0  0  0  0
   58.9820   28.6060   45.9020 C   0  0  0  0  0  0  0  0  0  0  0  0
   59.5700   27.9450   46.9990 C   0  0  0  0  0  0  0  0  0  0  0  0
   59.8620   26.5700   46.9910 O   0  0  0  0  0  0  0  0  0  0  0  0
   58.9480   25.5300   46.6390 C   0  0  0  0  0  0  0  0  0  0  0  0
   57.5990   25.7320   47.3350 C   0  0  0  0  0  0  0  0  0  0  0  0
   56.5700   24.9250   46.6810 N   0  0  0  0  0  0  0  0  0  0  0  0
   56.5730   23.5870   46.5170 C   0  0  0  0  0  0  0  0  0  0  0  0
   57.5580   22.7420   47.0160 O   0  0  0  0  0  0  0  0  0  0  0  0
   55.4770   23.1750   45.7860 C   0  0  0  0  0  0  0  0  0  0  0  0
   54.7710   24.3250   45.4750 C   0  0  0  0  0  0  0  0  0  0  0  0
   55.4770   25.3720   46.0340 C   0  0  0  0  0  0  0  0  0  0  0  0
   55.1230   26.7130   45.9390 O   0  0  0  0  0  0  0  0  0  0  0  0
   59.8710   28.6750   48.1530 C   0  0  0  0  0  0  0  0  0  0  0  0
   59.5830   30.0390   48.2260 C   0  0  0  0  0  0  0  0  0  0  0  0
   58.9980   30.6950   47.1400 C   0  0  0  0  0  0  0  0  0  0  0  0
   58.7090   32.0170   47.2500 F   0  0  0  0  0  0  0  0  0  0  0  0
   56.9127   28.8647   44.4753 H   0  0  0  0  0  0  0  0  0  0  0  0
   56.6560   30.1247   43.2210 H   0  0  0  0  0  0  0  0  0  0  0  0
   58.1661   29.1520   43.2210 H   0  0  0  0  0  0  0  0  0  0  0  0
   58.8538   31.1818   44.1828 H   0  0  0  0  0  0  0  0  0  0  0  0
   59.1691   32.8721   44.1840 H   0  0  0  0  0  0  0  0  0  0  0  0
   57.9476   33.9815   43.4307 H   0  0  0  0  0  0  0  0  0  0  0  0
   59.7547   35.3260   44.3059 H   0  0  0  0  0  0  0  0  0  0  0  0
   58.2890   35.5474   45.3528 H   0  0  0  0  0  0  0  0  0  0  0  0
   62.9344   31.6511   47.2462 H   0  0  0  0  0  0  0  0  0  0  0  0
   63.4485   32.8605   46.0073 H   0  0  0  0  0  0  0  0  0  0  0  0
   64.9545   32.5404   48.0983 H   0  0  0  0  0  0  0  0  0  0  0  0
   64.4768   34.2394   47.5904 H   0  0  0  0  0  0  0  0  0  0  0  0
   64.2044   33.0001   50.1579 H   0  0  0  0  0  0  0  0  0  0  0  0
   63.7124   34.6723   49.5809 H   0  0  0  0  0  0  0  0  0  0  0  0
   62.0133   32.1657   49.7801 H   0  0  0  0  0  0  0  0  0  0  0  0
   61.7737   33.7764   50.5581 H   0  0  0  0  0  0  0  0  0  0  0  0
   58.7304   28.0366   44.9951 H   0  0  0  0  0  0  0  0  0  0  0  0
   58.7962   25.5370   45.5495 H   0  0  0  0  0  0  0  0  0  0  0  0
   59.3698   24.5665   46.9610 H   0  0  0  0  0  0  0  0  0  0  0  0
   57.6843   25.4283   48.3888 H   0  0  0  0  0  0  0  0  0  0  0  0
   57.3174   26.7935   47.2728 H   0  0  0  0  0  0  0  0  0  0  0  0
   55.2172   22.1431   45.5072 H   0  0  0  0  0  0  0  0  0  0  0  0
   53.8363   24.3912   44.8989 H   0  0  0  0  0  0  0  0  0  0  0  0
   60.3389   28.1700   49.0109 H   0  0  0  0  0  0  0  0  0  0  0  0
   59.8177   30.5998   49.1427 H   0  0  0  0  0  0  0  0  0  0  0  0
  1  2  1  0
  2  3  1  0
  3  4  1  0
  4  5  2  0
  4  6  1  0
  6  7  1  0
  7  8  1  0
  8  9  2  0
  9 10  1  0
 10 11  2  0
 10 12  1  0
 12 13  2  0
 13 14  1  0
 13 15  1  0
 15 16  1  0
 16 17  1  0
 17 18  1  0
  2 19  1  0
 19 20  2  0
 20 21  1  0
 21 22  1  0
 22 23  1  0
 23 24  1  0
 24 25  1  0
 25 26  1  0
 26 27  1  0
 26 28  2  0
 28 29  1  0
 29 30  2  0
 30 31  1  0
 21 32  2  0
 32 33  1  0
 33 34  2  0
 34 35  1  0
 14  8  1  0
 34 19  1  0
 18 12  1  0
 30 25  1  0
  1 36  1  0
  1 37  1  0
  1 38  1  0
  2 39  1  6
  6 40  1  0
  6 41  1  0
  7 42  1  0
  7 43  1  0
 15 44  1  0
 15 45  1  0
 16 46  1  0
 16 47  1  0
 17 48  1  0
 17 49  1  0
 18 50  1  0
 18 51  1  0
 20 52  1  0
 23 53  1  0
 23 54  1  0
 24 55  1  0
 24 56  1  0
 28 57  1  0
 29 58  1  0
 32 59  1  0
 33 60  1  0
M  CHG  4   3  -1  14  -1  27  -1  31  -1
M  END
>  <UniqueID>  (28) 
23

>  <SMILES>  (28) 
C[C@@H]([N-]C(=O)CCc1nc(=O)c2c([n-]1)CCCC2)c1cc(OCCn2c([O-])ccc2[O-])ccc1F

>  <Energy>  (28) 
85.89734768831569

>  <Genealogy>  (28) 
CC([N-]C(=O)CCc1nc(=O)c2c([n-]1)CCCC2)c1cc(OCCn2c([O-])ccc2[O-])ccc1F (protonated)
C[C@@H]([N-]C(=O)CCc1nc(=O)c2c([n-]1)CCCC2)c1cc(OCCn2c([O-])ccc2[O-])ccc1F (chirality)
C[C@@H]([N-]C(=O)CCc1nc(=O)c2c([n-]1)CCCC2)c1cc(OCCn2c([O-])ccc2[O-])ccc1F (3D coordinates assigned)
C[C@@H]([N-]C(=O)CCc1nc(=O)c2c([n-]1)CCCC2)c1cc(OCCn2c([O-])ccc2[O-])ccc1F (nonaromatic ring conformer: 85.89734768831569 kcal/mol)

>  <smiles>  (28) 
CC(NC(=O)CCc1nc(=O)c2c([nH]1)CCCC2)c1cc(OCCn2c(O)ccc2O)ccc1F

>  <score_type>  (28) 
oracle

>  <origin>  (28) 
adg

>  <m_score__min__energy>  (28) 
-17.550000000000001

>  <m_primary>  (28) 
energy

$$$$
28:0
     RDKit          3D

 33 34  0  0  0  0  0  0  0  0999 V2000
   58.1190   28.9980   46.3450 O   0  0  0  0  0  0  0  0  0  0  0  0
   57.1860   28.3490   45.8000 C   0  0  0  0  0  0  0  0  0  0  0  0
   56.1140   29.0320   45.2160 O   0  0  0  0  0  0  0  0  0  0  0  0
   56.2200   29.7120   43.9690 C   0  0  0  0  0  0  0  0  0  0  0  0
   56.1620   31.1570   44.1750 N   0  0  0  0  0  0  0  0  0  0  0  0
   57.6490   31.9190   43.6870 S   0  0  0  0  0  0  0  0  0  0  0  0
   58.6690   30.8500   43.4100 O   0  0  0  0  0  0  0  0  0  0  0  0
   57.4250   32.6870   42.4150 O   0  0  0  0  0  0  0  0  0  0  0  0
   58.2750   32.9820   44.9560 C   0  0  0  0  0  0  0  0  0  0  0  0
   58.8500   34.2090   44.5910 C   0  0  0  0  0  0  0  0  0  0  0  0
   59.3740   35.0620   45.5650 C   0  0  0  0  0  0  0  0  0  0  0  0
   59.3330   34.6970   46.9120 C   0  0  0  0  0  0  0  0  0  0  0  0
   58.7710   33.4740   47.2870 C   0  0  0  0  0  0  0  0  0  0  0  0
   58.2410   32.6100   46.3170 C   0  0  0  0  0  0  0  0  0  0  0  0
   57.6930   31.3890   46.7060 O   0  0  0  0  0  0  0  0  0  0  0  0
   57.2070   26.8650   45.7810 C   0  0  0  0  0  0  0  0  0  0  0  0
   58.4400   26.1940   45.6580 C   0  0  0  0  0  0  0  0  0  0  0  0
   58.4920   24.7980   45.6260 C   0  0  0  0  0  0  0  0  0  0  0  0
   57.3180   24.0520   45.7180 C   0  0  0  0  0  0  0  0  0  0  0  0
   56.0880   24.6990   45.8420 C   0  0  0  0  0  0  0  0  0  0  0  0
   56.0230   26.0960   45.8740 C   0  0  0  0  0  0  0  0  0  0  0  0
   54.7770   26.7020   45.9970 O   0  0  0  0  0  0  0  0  0  0  0  0
   57.1768   29.4511   43.4932 H   0  0  0  0  0  0  0  0  0  0  0  0
   55.3835   29.4081   43.3226 H   0  0  0  0  0  0  0  0  0  0  0  0
   58.8883   34.5008   43.5311 H   0  0  0  0  0  0  0  0  0  0  0  0
   59.8199   36.0234   45.2702 H   0  0  0  0  0  0  0  0  0  0  0  0
   59.7430   35.3720   47.6777 H   0  0  0  0  0  0  0  0  0  0  0  0
   58.7439   33.1870   48.3486 H   0  0  0  0  0  0  0  0  0  0  0  0
   57.0320   30.8920   46.1220 H   0  0  0  0  0  0  0  0  0  0  0  0
   59.3712   26.7752   45.5864 H   0  0  0  0  0  0  0  0  0  0  0  0
   59.4611   24.2868   45.5280 H   0  0  0  0  0  0  0  0  0  0  0  0
   57.3613   22.9531   45.6928 H   0  0  0  0  0  0  0  0  0  0  0  0
   55.1638   24.1069   45.9150 H   0  0  0  0  0  0  0  0  0  0  0  0
  1  2  2  0
  2  3  1  0
  3  4  1  0
  4  5  1  0
  5  6  1  0
  6  7  2  0
  6  8  2  0
  6  9  1  0
  9 10  2  0
 10 11  1  0
 11 12  2  0
 12 13  1  0
 13 14  2  0
 14 15  1  0
  2 16  1  0
 16 17  2  0
 17 18  1  0
 18 19  2  0
 19 20  1  0
 20 21  2  0
 21 22  1  0
 14  9  1  0
 21 16  1  0
  4 23  1  0
  4 24  1  0
 10 25  1  0
 11 26  1  0
 12 27  1  0
 13 28  1  0
 15 29  1  0
 17 30  1  0
 18 31  1  0
 19 32  1  0
 20 33  1  0
M  CHG  2   5  -1  22  -1
M  END
>  <UniqueID>  (29) 
24

>  <SMILES>  (29) 
O=C(OC[N-]S(=O)(=O)c1ccccc1O)c1ccccc1[O-]

>  <Energy>  (29) 
32.740792339148086

>  <Genealogy>  (29) 
O=C(OC[N-]S(=O)(=O)c1ccccc1O)c1ccccc1[O-] (protonated)
O=C(OC[N-]S(=O)(=O)c1ccccc1O)c1ccccc1[O-] (3D coordinates assigned)
O=C(OC[N-]S(=O)(=O)c1ccccc1O)c1ccccc1[O-] (optimized conformer: 32.740792339148086 kcal/mol)

>  <smiles>  (29) 
O=C(OCNS(=O)(=O)c1ccccc1O)c1ccccc1O

>  <score_type>  (29) 
oracle

>  <origin>  (29) 
adg

>  <m_score__min__energy>  (29) 
-12.91

>  <m_primary>  (29) 
energy

$$$$
29:0
     RDKit          3D

 46 48  0  0  0  0  0  0  0  0999 V2000
   59.7720   28.7830   46.1680 C   0  0  0  0  0  0  0  0  0  0  0  0
   58.6440   29.5680   45.5800 C   0  0  0  0  0  0  0  0  0  0  0  0
   57.3760   28.9940   45.4430 C   0  0  0  0  0  0  0  0  0  0  0  0
   56.3530   29.7630   44.8880 C   0  0  0  0  0  0  0  0  0  0  0  0
   55.1980   29.2800   44.7520 O   0  0  0  0  0  0  0  0  0  0  0  0
   56.6020   31.0390   44.4930 N   0  0  0  0  0  0  0  0  0  0  0  0
   57.8400   31.5810   44.6290 C   0  0  0  0  0  0  0  0  0  0  0  0
   58.1470   33.2660   44.0990 S   0  0  0  0  0  0  0  0  0  0  0  0
   57.6800   34.0200   45.6990 C   0  0  0  0  0  0  0  0  0  0  0  0
   58.8680   34.2220   46.5950 C   0  0  0  0  0  0  0  0  0  0  0  0
   59.0680   35.3430   47.1360 O   0  0  0  0  0  0  0  0  0  0  0  0
   59.7930   33.1440   46.8010 N   0  0  0  0  0  0  0  0  0  0  0  0
   61.0600   33.3040   47.4650 C   0  0  0  0  0  0  0  0  0  0  0  0
   62.2520   33.2710   46.7170 C   0  0  0  0  0  0  0  0  0  0  0  0
   63.4930   33.3460   47.3530 C   0  0  0  0  0  0  0  0  0  0  0  0
   63.5610   33.4450   48.7420 C   0  0  0  0  0  0  0  0  0  0  0  0
   62.3890   33.4690   49.5000 C   0  0  0  0  0  0  0  0  0  0  0  0
   61.1310   33.3950   48.8760 C   0  0  0  0  0  0  0  0  0  0  0  0
   59.9110   33.4710   49.7130 C   0  0  0  0  0  0  0  0  0  0  0  0
   59.5110   34.5940   50.1260 O   0  0  0  0  0  0  0  0  0  0  0  0
   59.2060   32.2790   50.1050 N   0  0  0  0  0  0  0  0  0  0  0  0
   58.4560   32.2630   51.3640 C   0  0  0  0  0  0  0  0  0  0  0  0
   58.3340   30.8230   51.8730 C   0  0  0  0  0  0  0  0  0  0  0  0
   57.8080   29.9770   50.8680 O   0  0  0  0  0  0  0  0  0  0  0  0
   58.7160   29.8990   49.7840 C   0  0  0  0  0  0  0  0  0  0  0  0
   58.8700   31.2620   49.1040 C   0  0  0  0  0  0  0  0  0  0  0  0
   58.8480   30.8500   45.1720 N   0  0  0  0  0  0  0  0  0  0  0  0
   59.7138   28.8235   47.2657 H   0  0  0  0  0  0  0  0  0  0  0  0
   59.7031   27.7367   45.8355 H   0  0  0  0  0  0  0  0  0  0  0  0
   60.7292   29.2111   45.8355 H   0  0  0  0  0  0  0  0  0  0  0  0
   57.1895   27.9591   45.7657 H   0  0  0  0  0  0  0  0  0  0  0  0
   57.2097   34.9958   45.5077 H   0  0  0  0  0  0  0  0  0  0  0  0
   56.9847   33.3353   46.2067 H   0  0  0  0  0  0  0  0  0  0  0  0
   59.5230   32.1900   46.4740 H   0  0  0  0  0  0  0  0  0  0  0  0
   62.2055   33.1853   45.6213 H   0  0  0  0  0  0  0  0  0  0  0  0
   64.4177   33.3270   46.7575 H   0  0  0  0  0  0  0  0  0  0  0  0
   64.5394   33.5043   49.2412 H   0  0  0  0  0  0  0  0  0  0  0  0
   62.4501   33.5465   50.5956 H   0  0  0  0  0  0  0  0  0  0  0  0
   58.9843   32.8720   52.1123 H   0  0  0  0  0  0  0  0  0  0  0  0
   57.4508   32.6765   51.1950 H   0  0  0  0  0  0  0  0  0  0  0  0
   59.3297   30.4587   52.1662 H   0  0  0  0  0  0  0  0  0  0  0  0
   57.6521   30.8110   52.7361 H   0  0  0  0  0  0  0  0  0  0  0  0
   59.6967   29.5699   50.1581 H   0  0  0  0  0  0  0  0  0  0  0  0
   58.3256   29.1803   49.0484 H   0  0  0  0  0  0  0  0  0  0  0  0
   59.6730   31.2078   48.3542 H   0  0  0  0  0  0  0  0  0  0  0  0
   57.9236   31.5330   48.6132 H   0  0  0  0  0  0  0  0  0  0  0  0
  1  2  1  0
  2  3  2  0
  3  4  1  0
  4  5  2  0
  4  6  1  0
  6  7  2  0
  7  8  1  0
  8  9  1  0
  9 10  1  0
 10 11  2  0
 10 12  1  0
 12 13  1  0
 13 14  2  0
 14 15  1  0
 15 16  2  0
 16 17  1  0
 17 18  2  0
 18 19  1  0
 19 20  2  0
 19 21  1  0
 21 22  1  0
 22 23  1  0
 23 24  1  0
 24 25  1  0
 25 26  1  0
  7 27  1  0
 27  2  1  0
 18 13  1  0
 26 21  1  0
  1 28  1  0
  1 29  1  0
  1 30  1  0
  3 31  1  0
  9 32  1  0
  9 33  1  0
 12 34  1  0
 14 35  1  0
 15 36  1  0
 16 37  1  0
 17 38  1  0
 22 39  1  0
 22 40  1  0
 23 41  1  0
 23 42  1  0
 25 43  1  0
 25 44  1  0
 26 45  1  0
 26 46  1  0
M  CHG  1  27  -1
M  END
>  <UniqueID>  (30) 
25

>  <SMILES>  (30) 
Cc1cc(=O)nc(SCC(=O)Nc2ccccc2C(=O)N2CCOCC2)[n-]1

>  <Energy>  (30) 
55.294771162959336

>  <Genealogy>  (30) 
Cc1cc(=O)nc(SCC(=O)Nc2ccccc2C(=O)N2CCOCC2)[n-]1 (protonated)
Cc1cc(=O)nc(SCC(=O)Nc2ccccc2C(=O)N2CCOCC2)[n-]1 (3D coordinates assigned)
Cc1cc(=O)nc(SCC(=O)Nc2ccccc2C(=O)N2CCOCC2)[n-]1 (nonaromatic ring conformer: 55.294771162959336 kcal/mol)

>  <smiles>  (30) 
Cc1cc(=O)nc(SCC(=O)Nc2ccccc2C(=O)N2CCOCC2)[nH]1

>  <score_type>  (30) 
oracle

>  <origin>  (30) 
adg

>  <m_score__min__energy>  (30) 
-9.9499999999999993

>  <m_primary>  (30) 
energy

$$$$
30:0
     RDKit          3D

 49 52  0  0  0  0  0  0  0  0999 V2000
   55.8574   32.8957   45.0167 H   0  0  0  0  0  0  0  0  0  0  0  0
   56.8630   32.4500   45.0260 C   0  0  0  0  0  0  0  0  0  0  0  0
   57.0150   31.2630   44.4120 C   0  0  0  0  0  0  0  0  0  0  0  0
   57.1205   31.2702   43.3171 H   0  0  0  0  0  0  0  0  0  0  0  0
   57.0520   29.9440   45.0920 C   0  0  0  0  0  0  0  0  0  0  0  0
   56.0130   29.0310   44.8830 C   0  0  0  0  0  0  0  0  0  0  0  0
   54.9590   29.3360   44.0280 O   0  0  0  0  0  0  0  0  0  0  0  0
   56.0150   27.8410   45.5330 N   0  0  0  0  0  0  0  0  0  0  0  0
   57.0100   27.5040   46.3900 C   0  0  0  0  0  0  0  0  0  0  0  0
   56.9470   26.3980   46.9950 O   0  0  0  0  0  0  0  0  0  0  0  0
   58.0610   28.3570   46.6000 N   0  0  0  0  0  0  0  0  0  0  0  0
   59.0920   28.0140   47.5470 C   0  0  0  0  0  0  0  0  0  0  0  0
   59.9450   26.9260   47.2970 C   0  0  0  0  0  0  0  0  0  0  0  0
   59.8169   26.3283   46.3825 H   0  0  0  0  0  0  0  0  0  0  0  0
   60.9560   26.6000   48.2060 C   0  0  0  0  0  0  0  0  0  0  0  0
   61.6235   25.7494   48.0039 H   0  0  0  0  0  0  0  0  0  0  0  0
   61.1190   27.3540   49.3710 C   0  0  0  0  0  0  0  0  0  0  0  0
   61.9129   27.0950   50.0870 H   0  0  0  0  0  0  0  0  0  0  0  0
   60.2730   28.4380   49.6270 C   0  0  0  0  0  0  0  0  0  0  0  0
   60.4021   29.0305   50.5448 H   0  0  0  0  0  0  0  0  0  0  0  0
   59.2630   28.7700   48.7180 C   0  0  0  0  0  0  0  0  0  0  0  0
   58.6013   29.6250   48.9208 H   0  0  0  0  0  0  0  0  0  0  0  0
   58.1130   29.5550   45.9340 C   0  0  0  0  0  0  0  0  0  0  0  0
   59.1200   30.3080   46.0620 O   0  0  0  0  0  0  0  0  0  0  0  0
   57.9340   33.2090   45.7140 C   0  0  0  0  0  0  0  0  0  0  0  0
   58.4760   34.3390   45.0840 C   0  0  0  0  0  0  0  0  0  0  0  0
   58.0783   34.6667   44.1122 H   0  0  0  0  0  0  0  0  0  0  0  0
   59.5170   35.0500   45.6830 C   0  0  0  0  0  0  0  0  0  0  0  0
   59.9348   35.9360   45.1826 H   0  0  0  0  0  0  0  0  0  0  0  0
   60.0300   34.6400   46.9160 C   0  0  0  0  0  0  0  0  0  0  0  0
   60.8648   35.1909   47.3739 H   0  0  0  0  0  0  0  0  0  0  0  0
   59.4810   33.5240   47.5730 C   0  0  0  0  0  0  0  0  0  0  0  0
   59.9830   33.0450   48.7910 O   0  0  0  0  0  0  0  0  0  0  0  0
   59.7610   33.6670   50.0530 C   0  0  0  0  0  0  0  0  0  0  0  0
   60.7240   33.8294   50.5592 H   0  0  0  0  0  0  0  0  0  0  0  0
   59.2628   34.6369   49.9081 H   0  0  0  0  0  0  0  0  0  0  0  0
   58.8970   32.7720   50.8900 C   0  0  0  0  0  0  0  0  0  0  0  0
   58.3170   33.2500   52.0780 C   0  0  0  0  0  0  0  0  0  0  0  0
   58.5287   34.2744   52.4183 H   0  0  0  0  0  0  0  0  0  0  0  0
   57.4720   32.4270   52.8280 C   0  0  0  0  0  0  0  0  0  0  0  0
   57.0296   32.8014   53.7629 H   0  0  0  0  0  0  0  0  0  0  0  0
   57.1880   31.1300   52.3930 C   0  0  0  0  0  0  0  0  0  0  0  0
   56.5243   30.4840   52.9864 H   0  0  0  0  0  0  0  0  0  0  0  0
   57.7470   30.6530   51.2040 C   0  0  0  0  0  0  0  0  0  0  0  0
   57.5207   29.6327   50.8609 H   0  0  0  0  0  0  0  0  0  0  0  0
   58.5940   31.4720   50.4500 C   0  0  0  0  0  0  0  0  0  0  0  0
   59.0244   31.0974   49.5096 H   0  0  0  0  0  0  0  0  0  0  0  0
   58.4080   32.8440   46.9870 C   0  0  0  0  0  0  0  0  0  0  0  0
   57.9295   32.0143   47.5280 H   0  0  0  0  0  0  0  0  0  0  0  0
  1  2  1  0
  2  3  2  0
  3  4  1  0
  3  5  1  0
  5  6  2  0
  6  7  1  0
  6  8  1  0
  8  9  1  0
  9 10  2  0
  9 11  1  0
 11 12  1  0
 12 13  2  0
 13 14  1  0
 13 15  1  0
 15 16  1  0
 15 17  2  0
 17 18  1  0
 17 19  1  0
 19 20  1  0
 19 21  2  0
 21 22  1  0
 11 23  1  0
 23 24  2  0
  2 25  1  0
 25 26  2  0
 26 27  1  0
 26 28  1  0
 28 29  1  0
 28 30  2  0
 30 31  1  0
 30 32  1  0
 32 33  1  0
 33 34  1  0
 34 35  1  0
 34 36  1  0
 34 37  1  0
 37 38  2  0
 38 39  1  0
 38 40  1  0
 40 41  1  0
 40 42  2  0
 42 43  1  0
 42 44  1  0
 44 45  1  0
 44 46  2  0
 46 47  1  0
 32 48  2  0
 48 49  1  0
 23  5  1  0
 48 25  1  0
 21 12  1  0
 46 37  1  0
M  CHG  2   7  -1   8  -1
M  END
>  <UniqueID>  (31) 
26

>  <SMILES>  (31) 
O=c1[n-]c([O-])c(/C=C\c2cccc(OCc3ccccc3)c2)c(=O)n1-c1ccccc1

>  <Energy>  (31) 
73.4033550148765

>  <Genealogy>  (31) 
O=c1[n-]c([O-])c(C=Cc2cccc(OCc3ccccc3)c2)c(=O)n1-c1ccccc1 (protonated)
O=c1[n-]c([O-])c(/C=C\c2cccc(OCc3ccccc3)c2)c(=O)n1-c1ccccc1 (cis-trans isomerization)
O=c1[n-]c([O-])c(/C=C\c2cccc(OCc3ccccc3)c2)c(=O)n1-c1ccccc1 (3D coordinates assigned)
O=c1[n-]c([O-])c(/C=C\c2cccc(OCc3ccccc3)c2)c(=O)n1-c1ccccc1 (optimized conformer: 73.4033550148765 kcal/mol)

>  <smiles>  (31) 
O=c1[nH]c(O)c(C=Cc2cccc(OCc3ccccc3)c2)c(=O)n1-c1ccccc1

>  <score_type>  (31) 
oracle

>  <origin>  (31) 
adg

>  <m_score__min__energy>  (31) 
-13.539999999999999

>  <m_primary>  (31) 
energy

$$$$
31:0
     RDKit          3D

 55 57  0  0  0  0  0  0  0  0999 V2000
   56.7410   21.6200   43.1750 C   0  0  0  0  0  0  0  0  0  0  0  0
   55.8800   22.5670   43.8040 O   0  0  0  0  0  0  0  0  0  0  0  0
   56.2960   23.8140   44.2970 C   0  0  0  0  0  0  0  0  0  0  0  0
   55.7260   24.4010   45.4410 C   0  0  0  0  0  0  0  0  0  0  0  0
   56.1770   25.6430   45.8970 C   0  0  0  0  0  0  0  0  0  0  0  0
   57.1990   26.3330   45.2120 C   0  0  0  0  0  0  0  0  0  0  0  0
   57.7220   27.6940   45.6530 C   0  0  2  0  0  0  0  0  0  0  0  0
   57.6630   28.8060   44.5810 C   0  0  0  0  0  0  0  0  0  0  0  0
   56.4780   29.7030   44.7760 C   0  0  0  0  0  0  0  0  0  0  0  0
   55.1620   29.1480   44.8280 N   0  0  0  0  0  0  0  0  0  0  0  0
   56.6390   30.9490   44.8830 O   0  0  0  0  0  0  0  0  0  0  0  0
   59.0660   27.5800   46.2330 N   0  0  0  0  0  0  0  0  0  0  0  0
   59.5260   28.0580   47.5080 C   0  0  0  0  0  0  0  0  0  0  0  0
   59.2640   27.3760   48.5350 O   0  0  0  0  0  0  0  0  0  0  0  0
   60.2700   29.3180   47.6650 C   0  0  0  0  0  0  0  0  0  0  0  0
   60.3800   30.2050   46.5840 C   0  0  0  0  0  0  0  0  0  0  0  0
   61.0490   31.4230   46.7380 C   0  0  0  0  0  0  0  0  0  0  0  0
   61.6130   31.7670   47.9730 C   0  0  0  0  0  0  0  0  0  0  0  0
   62.4370   33.3070   48.1910 S   0  0  0  0  0  0  0  0  0  0  0  0
   63.6350   33.1340   49.0890 O   0  0  0  0  0  0  0  0  0  0  0  0
   62.9230   33.7760   46.8500 O   0  0  0  0  0  0  0  0  0  0  0  0
   61.3390   34.4930   48.8360 N   0  0  0  0  0  0  0  0  0  0  0  0
   59.9610   34.0000   48.8950 C   0  0  0  0  0  0  0  0  0  0  0  0
   59.2990   34.0900   47.5450 C   0  0  0  0  0  0  0  0  0  0  0  0
   59.8770   34.8510   46.5130 C   0  0  0  0  0  0  0  0  0  0  0  0
   59.2660   34.9080   45.2590 C   0  0  0  0  0  0  0  0  0  0  0  0
   58.0900   34.1910   45.0180 C   0  0  0  0  0  0  0  0  0  0  0  0
   57.5090   33.4310   46.0390 C   0  0  0  0  0  0  0  0  0  0  0  0
   58.1020   33.3910   47.3010 C   0  0  0  0  0  0  0  0  0  0  0  0
   61.4770   30.8940   49.0620 C   0  0  0  0  0  0  0  0  0  0  0  0
   60.7900   29.6860   48.9130 C   0  0  0  0  0  0  0  0  0  0  0  0
   57.7590   25.7390   44.0670 C   0  0  0  0  0  0  0  0  0  0  0  0
   57.3100   24.4940   43.6160 C   0  0  0  0  0  0  0  0  0  0  0  0
   57.2701   21.0381   43.9440 H   0  0  0  0  0  0  0  0  0  0  0  0
   56.1440   20.9415   42.5479 H   0  0  0  0  0  0  0  0  0  0  0  0
   57.4731   22.1499   42.5479 H   0  0  0  0  0  0  0  0  0  0  0  0
   54.9209   23.8799   45.9798 H   0  0  0  0  0  0  0  0  0  0  0  0
   55.7305   26.0868   46.7990 H   0  0  0  0  0  0  0  0  0  0  0  0
   57.0171   28.0263   46.4294 H   0  0  0  0  0  0  0  0  0  0  0  0
   58.5806   29.4094   44.6427 H   0  0  0  0  0  0  0  0  0  0  0  0
   57.5713   28.3268   43.5951 H   0  0  0  0  0  0  0  0  0  0  0  0
   54.5310   29.3390   45.6400 H   0  0  0  0  0  0  0  0  0  0  0  0
   59.9384   29.9414   45.6116 H   0  0  0  0  0  0  0  0  0  0  0  0
   61.1327   32.1137   45.8860 H   0  0  0  0  0  0  0  0  0  0  0  0
   59.9680   32.9502   49.2233 H   0  0  0  0  0  0  0  0  0  0  0  0
   59.3959   34.6213   49.6054 H   0  0  0  0  0  0  0  0  0  0  0  0
   60.8117   35.4020   46.6942 H   0  0  0  0  0  0  0  0  0  0  0  0
   59.7106   35.5182   44.4590 H   0  0  0  0  0  0  0  0  0  0  0  0
   57.6207   34.2245   44.0237 H   0  0  0  0  0  0  0  0  0  0  0  0
   56.5853   32.8655   45.8467 H   0  0  0  0  0  0  0  0  0  0  0  0
   57.6322   32.8107   48.1088 H   0  0  0  0  0  0  0  0  0  0  0  0
   61.9123   31.1607   50.0364 H   0  0  0  0  0  0  0  0  0  0  0  0
   60.6570   29.0213   49.7793 H   0  0  0  0  0  0  0  0  0  0  0  0
   58.5590   26.2595   43.5202 H   0  0  0  0  0  0  0  0  0  0  0  0
   57.7586   24.0456   42.7173 H   0  0  0  0  0  0  0  0  0  0  0  0
  1  2  1  0
  2  3  1  0
  3  4  2  0
  4  5  1  0
  5  6  2  0
  6  7  1  0
  7  8  1  0
  8  9  1  0
  9 10  1  0
  9 11  2  0
  7 12  1  0
 12 13  1  0
 13 14  2  0
 13 15  1  0
 15 16  2  0
 16 17  1  0
 17 18  2  0
 18 19  1  0
 19 20  2  0
 19 21  2  0
 19 22  1  0
 22 23  1  0
 23 24  1  0
 24 25  2  0
 25 26  1  0
 26 27  2  0
 27 28  1  0
 28 29  2  0
 18 30  1  0
 30 31  2  0
  6 32  1  0
 32 33  2  0
 33  3  1  0
 31 15  1  0
 29 24  1  0
  1 34  1  0
  1 35  1  0
  1 36  1  0
  4 37  1  0
  5 38  1  0
  7 39  1  1
  8 40  1  0
  8 41  1  0
 10 42  1  0
 16 43  1  0
 17 44  1  0
 23 45  1  0
 23 46  1  0
 25 47  1  0
 26 48  1  0
 27 49  1  0
 28 50  1  0
 29 51  1  0
 30 52  1  0
 31 53  1  0
 32 54  1  0
 33 55  1  0
M  CHG  3  10  -1  12  -1  22  -1
M  END
>  <UniqueID>  (32) 
27

>  <SMILES>  (32) 
COc1ccc([C@H](CC([NH-])=O)[N-]C(=O)c2ccc(S(=O)(=O)[N-]Cc3ccccc3)cc2)cc1

>  <Energy>  (32) 
56.98018877305522

>  <Genealogy>  (32) 
COc1ccc(C(CC([NH-])=O)[N-]C(=O)c2ccc(S(=O)(=O)[N-]Cc3ccccc3)cc2)cc1 (protonated)
COc1ccc([C@H](CC([NH-])=O)[N-]C(=O)c2ccc(S(=O)(=O)[N-]Cc3ccccc3)cc2)cc1 (chirality)
COc1ccc([C@H](CC([NH-])=O)[N-]C(=O)c2ccc(S(=O)(=O)[N-]Cc3ccccc3)cc2)cc1 (3D coordinates assigned)
COc1ccc([C@H](CC([NH-])=O)[N-]C(=O)c2ccc(S(=O)(=O)[N-]Cc3ccccc3)cc2)cc1 (optimized conformer: 56.98018877305522 kcal/mol)

>  <smiles>  (32) 
COc1ccc(C(CC(N)=O)NC(=O)c2ccc(S(=O)(=O)NCc3ccccc3)cc2)cc1

>  <score_type>  (32) 
oracle

>  <origin>  (32) 
adg

>  <m_score__min__energy>  (32) 
-14.76

>  <m_primary>  (32) 
energy

$$$$
32:0
     RDKit          3D

 46 48  0  0  1  0  0  0  0  0999 V2000
   58.4920   28.4490   46.7460 O   0  0  0  0  0  0  0  0  0  0  0  0
   57.6270   27.8560   46.0650 C   0  0  0  0  0  0  0  0  0  0  0  0
   57.3140   26.4460   46.5030 C   0  0  0  0  0  0  0  0  0  0  0  0
   56.2630   25.9850   45.6190 N   0  0  0  0  0  0  0  0  0  0  0  0
   56.2720   24.9100   44.9410 C   0  0  0  0  0  0  0  0  0  0  0  0
   56.6600   24.8450   43.6430 N   0  0  0  0  0  0  0  0  0  0  0  0
   56.6480   23.6970   42.9870 N   0  0  0  0  0  0  0  0  0  0  0  0
   56.2540   22.5760   43.5950 C   0  0  0  0  0  0  0  0  0  0  0  0
   56.2380   21.4610   42.9770 O   0  0  0  0  0  0  0  0  0  0  0  0
   55.8580   22.5840   44.8870 N   0  0  0  0  0  0  0  0  0  0  0  0
   55.8650   23.7490   45.5660 C   0  0  0  0  0  0  0  0  0  0  0  0
   55.4970   23.7560   46.7670 O   0  0  0  0  0  0  0  0  0  0  0  0
   56.9930   28.4670   44.9650 N   0  0  0  0  0  0  0  0  0  0  0  0
   57.2130   29.7660   44.4790 C   0  0  0  0  0  0  0  0  0  0  0  0
   56.9700   30.0200   43.1230 C   0  0  0  0  0  0  0  0  0  0  0  0
   57.1550   31.2440   42.5700 C   0  0  0  0  0  0  0  0  0  0  0  0
   57.5930   32.3100   43.3030 C   0  0  0  0  0  0  0  0  0  0  0  0
   57.8440   32.1050   44.6420 C   0  0  0  0  0  0  0  0  0  0  0  0
   58.4100   33.4300   45.6530 S   0  0  0  0  0  0  0  0  0  0  0  0
   57.4530   33.5100   46.8180 O   0  0  0  0  0  0  0  0  0  0  0  0
   58.4000   34.7220   44.9270 O   0  0  0  0  0  0  0  0  0  0  0  0
   59.9540   33.0360   46.2640 N   0  0  0  0  0  0  0  0  0  0  0  0
   59.8840   32.2270   47.4680 C   0  0  0  0  0  0  0  0  0  0  0  0
   61.2480   32.0250   48.0750 C   0  0  0  0  0  0  0  0  0  0  0  0
   62.1900   32.3940   47.0880 O   0  0  0  0  0  0  0  0  0  0  0  0
   62.1510   33.7810   46.9140 C   0  0  0  0  0  0  0  0  0  0  0  0
   60.7770   34.1960   46.4480 C   0  0  0  0  0  0  0  0  0  0  0  0
   57.6520   30.8410   45.2090 C   0  0  0  0  0  0  0  0  0  0  0  0
   58.2045   25.8076   46.4057 H   0  0  0  0  0  0  0  0  0  0  0  0
   57.0033   26.4080   47.5575 H   0  0  0  0  0  0  0  0  0  0  0  0
   56.9610   25.7520   43.2070 H   0  0  0  0  0  0  0  0  0  0  0  0
   56.9500   23.6830   41.9990 H   0  0  0  0  0  0  0  0  0  0  0  0
   55.5540   21.6760   45.3300 H   0  0  0  0  0  0  0  0  0  0  0  0
   56.2750   27.8630   44.4610 H   0  0  0  0  0  0  0  0  0  0  0  0
   56.6166   29.1972   42.4842 H   0  0  0  0  0  0  0  0  0  0  0  0
   56.9461   31.3827   41.4990 H   0  0  0  0  0  0  0  0  0  0  0  0
   57.7401   33.2972   42.8406 H   0  0  0  0  0  0  0  0  0  0  0  0
   59.2373   32.7315   48.2010 H   0  0  0  0  0  0  0  0  0  0  0  0
   59.4753   31.2416   47.1996 H   0  0  0  0  0  0  0  0  0  0  0  0
   61.3642   32.6594   48.9661 H   0  0  0  0  0  0  0  0  0  0  0  0
   61.3912   30.9802   48.3880 H   0  0  0  0  0  0  0  0  0  0  0  0
   62.3781   34.2761   47.8697 H   0  0  0  0  0  0  0  0  0  0  0  0
   62.8960   34.0749   46.1599 H   0  0  0  0  0  0  0  0  0  0  0  0
   60.3188   34.8526   47.2022 H   0  0  0  0  0  0  0  0  0  0  0  0
   60.8652   34.7333   45.4922 H   0  0  0  0  0  0  0  0  0  0  0  0
   57.8608   30.7039   46.2803 H   0  0  0  0  0  0  0  0  0  0  0  0
  1  2  2  0
  2  3  1  0
  3  4  1  0
  4  5  2  0
  5  6  1  0
  6  7  1  0
  7  8  1  0
  8  9  2  0
  8 10  1  0
 10 11  1  0
 11 12  2  0
  2 13  1  0
 13 14  1  0
 14 15  2  0
 15 16  1  0
 16 17  2  0
 17 18  1  0
 18 19  1  0
 19 20  2  0
 19 21  2  0
 19 22  1  0
 22 23  1  0
 23 24  1  0
 24 25  1  0
 25 26  1  0
 26 27  1  0
 18 28  2  0
 11  5  1  0
 28 14  1  0
 27 22  1  0
  3 29  1  0
  3 30  1  0
  6 31  1  0
  7 32  1  0
 10 33  1  0
 13 34  1  0
 15 35  1  0
 16 36  1  0
 17 37  1  0
 23 38  1  0
 23 39  1  0
 24 40  1  0
 24 41  1  0
 26 42  1  0
 26 43  1  0
 27 44  1  0
 27 45  1  0
 28 46  1  0
M  END
>  <smiles>  (33) 
O=C(CN=c1[nH][nH]c(=O)[nH]c1=O)Nc1cccc(S(=O)(=O)N2CCOCC2)c1

>  <score_type>  (33) 
oracle

>  <origin>  (33) 
adg

>  <m_score__min__energy>  (33) 
-9.5500000000000007

>  <m_primary>  (33) 
energy

$$$$
33:0
     RDKit          3D

 43 45  0  0  0  0  0  0  0  0999 V2000
   58.9969   35.3404   44.8881 H   0  0  0  0  0  0  0  0  0  0  0  0
   58.8520   34.2590   45.0280 C   0  0  0  0  0  0  0  0  0  0  0  0
   59.4160   33.6310   46.0910 N   0  0  0  0  0  0  0  0  0  0  0  0
   59.2630   32.2950   46.3010 C   0  0  0  0  0  0  0  0  0  0  0  0
   59.8840   31.6580   47.3830 O   0  0  0  0  0  0  0  0  0  0  0  0
   59.2700   31.3700   48.6110 C   0  0  0  0  0  0  0  0  0  0  0  0
   58.6960   32.3740   49.4120 C   0  0  0  0  0  0  0  0  0  0  0  0
   58.7201   33.4221   49.0791 H   0  0  0  0  0  0  0  0  0  0  0  0
   58.0950   32.0430   50.6300 C   0  0  0  0  0  0  0  0  0  0  0  0
   57.6420   32.8321   51.2481 H   0  0  0  0  0  0  0  0  0  0  0  0
   58.0660   30.7140   51.0680 C   0  0  0  0  0  0  0  0  0  0  0  0
   57.4650   30.4120   52.3340 N   0  0  0  0  0  0  0  0  0  0  0  0
   56.1710   29.8260   52.5280 C   0  0  0  0  0  0  0  0  0  0  0  0
   55.9850   29.0690   53.5160 O   0  0  0  0  0  0  0  0  0  0  0  0
   55.0790   30.0800   51.6330 N   0  0  0  0  0  0  0  0  0  0  0  0
   53.7170   30.3200   52.0150 C   0  0  0  0  0  0  0  0  0  0  0  0
   53.0660   29.5170   52.9680 C   0  0  0  0  0  0  0  0  0  0  0  0
   53.6064   28.6874   53.4473 H   0  0  0  0  0  0  0  0  0  0  0  0
   51.7340   29.7700   53.3080 C   0  0  0  0  0  0  0  0  0  0  0  0
   51.2235   29.1303   54.0430 H   0  0  0  0  0  0  0  0  0  0  0  0
   51.0500   30.8350   52.7150 C   0  0  0  0  0  0  0  0  0  0  0  0
   49.9997   31.0289   52.9782 H   0  0  0  0  0  0  0  0  0  0  0  0
   51.7010   31.6540   51.7870 C   0  0  0  0  0  0  0  0  0  0  0  0
   51.0230   32.7190   51.2040 O   0  0  0  0  0  0  0  0  0  0  0  0
   53.0340   31.4020   51.4440 C   0  0  0  0  0  0  0  0  0  0  0  0
   53.5475   32.0557   50.7235 H   0  0  0  0  0  0  0  0  0  0  0  0
   58.5940   29.7060   50.2430 C   0  0  0  0  0  0  0  0  0  0  0  0
   58.5356   28.6536   50.5578 H   0  0  0  0  0  0  0  0  0  0  0  0
   59.1930   30.0360   49.0240 C   0  0  0  0  0  0  0  0  0  0  0  0
   59.6065   29.2415   48.3854 H   0  0  0  0  0  0  0  0  0  0  0  0
   58.5130   31.5320   45.3990 C   0  0  0  0  0  0  0  0  0  0  0  0
   58.4048   30.4478   45.5500 H   0  0  0  0  0  0  0  0  0  0  0  0
   57.8960   32.1580   44.2950 C   0  0  0  0  0  0  0  0  0  0  0  0
   57.1820   31.5160   43.4110 N   0  0  0  0  0  0  0  0  0  0  0  0
   56.3650   30.3460   43.5790 C   0  0  0  0  0  0  0  0  0  0  0  0
   55.8990   29.7280   42.5850 O   0  0  0  0  0  0  0  0  0  0  0  0
   56.1560   29.8370   44.8980 N   0  0  0  0  0  0  0  0  0  0  0  0
   57.0540   28.8780   45.5230 C   0  0  0  0  0  0  0  0  0  0  0  0
   56.9758   28.9615   46.6170 H   0  0  0  0  0  0  0  0  0  0  0  0
   56.7770   27.8598   45.2123 H   0  0  0  0  0  0  0  0  0  0  0  0
   58.0882   29.0876   45.2123 H   0  0  0  0  0  0  0  0  0  0  0  0
   58.0880   33.5330   44.1120 C   0  0  0  0  0  0  0  0  0  0  0  0
   57.6371   34.0411   43.2468 H   0  0  0  0  0  0  0  0  0  0  0  0
  1  2  1  0
  2  3  1  0
  3  4  1  0
  4  5  1  0
  5  6  1  0
  6  7  2  0
  7  8  1  0
  7  9  1  0
  9 10  1  0
  9 11  2  0
 11 12  1  0
 12 13  1  0
 13 14  2  0
 13 15  1  0
 15 16  1  0
 16 17  2  0
 17 18  1  0
 17 19  1  0
 19 20  1  0
 19 21  2  0
 21 22  1  0
 21 23  1  0
 23 24  1  0
 23 25  2  0
 25 26  1  0
 11 27  1  0
 27 28  1  0
 27 29  2  0
 29 30  1  0
  4 31  2  0
 31 32  1  0
 31 33  1  0
 33 34  2  0
 34 35  1  0
 35 36  2  0
 35 37  1  0
 37 38  1  0
 38 39  1  0
 38 40  1  0
 38 41  1  0
 33 42  1  0
 42 43  1  0
 42  2  2  0
 29  6  1  0
 25 16  1  0
M  CHG  5   3  -1  12  -1  15  -1  24  -1  37  -1
M  END
>  <UniqueID>  (34) 
28

>  <SMILES>  (34) 
C[N-]C(=O)/N=c1/cc[n-]c(Oc2ccc([N-]C(=O)[N-]c3cccc([O-])c3)cc2)c1

>  <Energy>  (34) 
63.09552219124893

>  <Genealogy>  (34) 
C[N-]C(=O)N=c1cc[n-]c(Oc2ccc([N-]C(=O)[N-]c3cccc([O-])c3)cc2)c1 (protonated)
C[N-]C(=O)/N=c1/cc[n-]c(Oc2ccc([N-]C(=O)[N-]c3cccc([O-])c3)cc2)c1 (cis-trans isomerization)
C[N-]C(=O)/N=c1/cc[n-]c(Oc2ccc([N-]C(=O)[N-]c3cccc([O-])c3)cc2)c1 (3D coordinates assigned)
C[N-]C(=O)/N=c1/cc[n-]c(Oc2ccc([N-]C(=O)[N-]c3cccc([O-])c3)cc2)c1 (optimized conformer: 63.09552219124893 kcal/mol)

>  <smiles>  (34) 
CNC(=O)N=c1cc[nH]c(Oc2ccc(NC(=O)Nc3cccc(O)c3)cc2)c1

>  <score_type>  (34) 
oracle

>  <origin>  (34) 
adg

>  <m_score__min__energy>  (34) 
-15.970000000000001

>  <m_primary>  (34) 
energy

$$$$
34:0
     RDKit          3D

 64 67  0  0  0  0  0  0  0  0999 V2000
   58.1890   25.3500   45.1900 C   0  0  0  0  0  0  0  0  0  0  0  0
   57.4760   25.9820   44.1330 O   0  0  0  0  0  0  0  0  0  0  0  0
   58.0560   26.9600   43.3170 C   0  0  0  0  0  0  0  0  0  0  0  0
   58.2790   26.7160   42.1000 O   0  0  0  0  0  0  0  0  0  0  0  0
   58.3380   28.3010   43.8790 C   0  0  0  0  0  0  0  0  0  0  0  0
   57.2500   29.3420   43.8520 C   0  0  0  0  0  0  0  0  0  0  0  0
   57.7230   30.6410   44.4310 C   0  0  0  0  0  0  0  0  0  0  0  0
   58.0680   31.7770   43.7050 C   0  0  0  0  0  0  0  0  0  0  0  0
   58.3960   32.8730   44.5120 C   0  0  0  0  0  0  0  0  0  0  0  0
   58.2870   32.5980   45.8660 C   0  0  0  0  0  0  0  0  0  0  0  0
   58.5570   33.5230   46.8760 O   0  0  0  0  0  0  0  0  0  0  0  0
   59.4930   33.1340   48.2510 S   0  0  0  0  0  0  0  0  0  0  0  0
   59.0850   31.7880   48.7710 O   0  0  0  0  0  0  0  0  0  0  0  0
   59.2440   34.1700   49.3110 O   0  0  0  0  0  0  0  0  0  0  0  0
   61.2020   33.1080   47.8330 C   0  0  0  0  0  0  0  0  0  0  0  0
   61.6720   33.8420   46.7340 C   0  0  0  0  0  0  0  0  0  0  0  0
   63.0360   33.8330   46.4170 C   0  0  0  0  0  0  0  0  0  0  0  0
   63.9310   33.0900   47.1930 C   0  0  0  0  0  0  0  0  0  0  0  0
   63.4640   32.3510   48.2850 C   0  0  0  0  0  0  0  0  0  0  0  0
   62.1030   32.3580   48.6040 C   0  0  0  0  0  0  0  0  0  0  0  0
   57.7930   31.0000   46.0750 S   0  0  0  0  0  0  0  0  0  0  0  0
   59.4800   28.6170   44.4240 N   0  0  0  0  0  0  0  0  0  0  0  0
   59.7740   28.8610   45.8070 C   0  0  0  0  0  0  0  0  0  0  0  0
   60.5670   29.7840   46.1430 O   0  0  0  0  0  0  0  0  0  0  0  0
   59.2020   27.9710   46.8700 C   0  0  0  0  0  0  0  0  0  0  0  0
   59.5030   28.4880   48.2440 C   0  0  0  0  0  0  0  0  0  0  0  0
   60.7400   28.4860   48.8590 C   0  0  0  0  0  0  0  0  0  0  0  0
   60.5510   29.0970   50.0800 C   0  0  0  0  0  0  0  0  0  0  0  0
   59.2130   29.4330   50.1260 C   0  0  0  0  0  0  0  0  0  0  0  0
   58.4130   30.2660   51.4520 S   0  0  0  0  0  0  0  0  0  0  0  0
   56.9250   30.1720   51.2540 O   0  0  0  0  0  0  0  0  0  0  0  0
   58.7690   29.5870   52.7440 O   0  0  0  0  0  0  0  0  0  0  0  0
   58.8600   31.9520   51.5330 N   0  0  0  0  0  0  0  0  0  0  0  0
   57.8570   32.7250   52.2950 C   0  0  0  0  0  0  0  0  0  0  0  0
   58.4000   34.1110   52.6990 C   0  0  0  0  0  0  0  0  0  0  0  0
   59.5090   34.4650   51.8990 O   0  0  0  0  0  0  0  0  0  0  0  0
   60.5980   33.6010   52.1790 C   0  0  0  0  0  0  0  0  0  0  0  0
   60.2040   32.1060   52.1120 C   0  0  0  0  0  0  0  0  0  0  0  0
   58.6130   29.0600   49.0210 O   0  0  0  0  0  0  0  0  0  0  0  0
   57.7962   25.6981   46.1567 H   0  0  0  0  0  0  0  0  0  0  0  0
   58.0652   24.2596   45.1152 H   0  0  0  0  0  0  0  0  0  0  0  0
   59.2567   25.6038   45.1152 H   0  0  0  0  0  0  0  0  0  0  0  0
   56.9379   29.5068   42.8102 H   0  0  0  0  0  0  0  0  0  0  0  0
   56.4073   28.9785   44.4585 H   0  0  0  0  0  0  0  0  0  0  0  0
   58.0816   31.8105   42.6056 H   0  0  0  0  0  0  0  0  0  0  0  0
   58.7075   33.8497   44.1133 H   0  0  0  0  0  0  0  0  0  0  0  0
   60.9689   34.4249   46.1209 H   0  0  0  0  0  0  0  0  0  0  0  0
   63.4038   34.4111   45.5565 H   0  0  0  0  0  0  0  0  0  0  0  0
   65.0026   33.0866   46.9447 H   0  0  0  0  0  0  0  0  0  0  0  0
   64.1681   31.7640   48.8930 H   0  0  0  0  0  0  0  0  0  0  0  0
   61.7375   31.7741   49.4616 H   0  0  0  0  0  0  0  0  0  0  0  0
   58.1110   27.9161   46.7404 H   0  0  0  0  0  0  0  0  0  0  0  0
   59.6605   26.9762   46.7689 H   0  0  0  0  0  0  0  0  0  0  0  0
   61.6806   28.0809   48.4576 H   0  0  0  0  0  0  0  0  0  0  0  0
   61.3088   29.2790   50.8563 H   0  0  0  0  0  0  0  0  0  0  0  0
   58.8780   32.3060   50.5490 H   0  0  0  0  0  0  0  0  0  0  0  0
   56.9607   32.8599   51.6718 H   0  0  0  0  0  0  0  0  0  0  0  0
   57.6156   32.1679   53.2122 H   0  0  0  0  0  0  0  0  0  0  0  0
   57.6066   34.8617   52.5689 H   0  0  0  0  0  0  0  0  0  0  0  0
   58.7202   34.0727   53.7507 H   0  0  0  0  0  0  0  0  0  0  0  0
   61.3946   33.7887   51.4440 H   0  0  0  0  0  0  0  0  0  0  0  0
   60.9348   33.8111   53.2049 H   0  0  0  0  0  0  0  0  0  0  0  0
   60.9313   31.5678   51.4865 H   0  0  0  0  0  0  0  0  0  0  0  0
   60.2013   31.6931   53.1316 H   0  0  0  0  0  0  0  0  0  0  0  0
  1  2  1  0
  2  3  1  0
  3  4  2  0
  3  5  1  0
  5  6  1  0
  6  7  1  0
  7  8  2  0
  8  9  1  0
  9 10  2  0
 10 11  1  0
 11 12  1  0
 12 13  2  0
 12 14  2  0
 12 15  1  0
 15 16  2  0
 16 17  1  0
 17 18  2  0
 18 19  1  0
 19 20  2  0
 10 21  1  0
  5 22  2  3
 22 23  1  0
 23 24  2  0
 23 25  1  0
 25 26  1  0
 26 27  2  0
 27 28  1  0
 28 29  2  0
 29 30  1  0
 30 31  2  0
 30 32  2  0
 30 33  1  0
 33 34  1  0
 34 35  1  0
 35 36  1  0
 36 37  1  0
 37 38  1  0
 29 39  1  0
 21  7  1  0
 39 26  1  0
 20 15  1  0
 38 33  1  0
  1 40  1  0
  1 41  1  0
  1 42  1  0
  6 43  1  0
  6 44  1  0
  8 45  1  0
  9 46  1  0
 16 47  1  0
 17 48  1  0
 18 49  1  0
 19 50  1  0
 20 51  1  0
 25 52  1  0
 25 53  1  0
 27 54  1  0
 28 55  1  0
 33 56  1  0
 34 57  1  0
 34 58  1  0
 35 59  1  0
 35 60  1  0
 37 61  1  0
 37 62  1  0
 38 63  1  0
 38 64  1  0
M  CHG  1  33   1
M  END
>  <UniqueID>  (35) 
29

>  <SMILES>  (35) 
COC(=O)C(Cc1ccc(OS(=O)(=O)c2ccccc2)s1)=NC(=O)Cc1ccc(S(=O)(=O)[NH+]2CCOCC2)o1

>  <Energy>  (35) 
123.14185632185169

>  <Genealogy>  (35) 
COC(=O)C(Cc1ccc(OS(=O)(=O)c2ccccc2)s1)=NC(=O)Cc1ccc(S(=O)(=O)[NH+]2CCOCC2)o1 (protonated)
COC(=O)C(Cc1ccc(OS(=O)(=O)c2ccccc2)s1)=NC(=O)Cc1ccc(S(=O)(=O)[NH+]2CCOCC2)o1 (3D coordinates assigned)
COC(=O)C(Cc1ccc(OS(=O)(=O)c2ccccc2)s1)=NC(=O)Cc1ccc(S(=O)(=O)[NH+]2CCOCC2)o1 (nonaromatic ring conformer: 123.14185632185169 kcal/mol)

>  <smiles>  (35) 
COC(=O)C(Cc1ccc(OS(=O)(=O)c2ccccc2)s1)=NC(=O)Cc1ccc(S(=O)(=O)N2CCOCC2)o1

>  <score_type>  (35) 
oracle

>  <origin>  (35) 
adg

>  <m_score__min__energy>  (35) 
-8.2200000000000006

>  <m_primary>  (35) 
energy

$$$$
35:0
     RDKit          3D

 45 47  0  0  0  0  0  0  0  0999 V2000
   58.1620   33.7020   52.8410 C   0  0  0  0  0  0  0  0  0  0  0  0
   57.7450   32.3440   52.8460 O   0  0  0  0  0  0  0  0  0  0  0  0
   57.9140   31.4910   51.7490 C   0  0  0  0  0  0  0  0  0  0  0  0
   57.1710   30.4830   51.6080 O   0  0  0  0  0  0  0  0  0  0  0  0
   58.9350   31.7390   50.7720 N   0  0  0  0  0  0  0  0  0  0  0  0
   58.7450   31.8730   49.4940 C   0  0  0  0  0  0  0  0  0  0  0  0
   58.5490   33.0880   48.9230 N   0  0  0  0  0  0  0  0  0  0  0  0
   58.4070   32.7740   47.6250 C   0  0  0  0  0  0  0  0  0  0  0  0
   58.2050   33.6460   46.5610 C   0  0  0  0  0  0  0  0  0  0  0  0
   58.1200   33.0960   45.2710 C   0  0  0  0  0  0  0  0  0  0  0  0
   58.2330   31.6950   45.0700 C   0  0  0  0  0  0  0  0  0  0  0  0
   58.1470   31.1750   43.6920 C   0  0  0  0  0  0  0  0  0  0  0  0
   56.9980   30.9870   43.0260 C   0  0  0  0  0  0  0  0  0  0  0  0
   55.9040   30.0790   43.4330 C   0  0  0  0  0  0  0  0  0  0  0  0
   55.3900   30.1160   44.5830 O   0  0  0  0  0  0  0  0  0  0  0  0
   58.4100   30.8280   46.1840 C   0  0  0  0  0  0  0  0  0  0  0  0
   58.6160   29.0740   46.0170 S   0  0  0  0  0  0  0  0  0  0  0  0
   59.7120   28.7480   45.0430 O   0  0  0  0  0  0  0  0  0  0  0  0
   58.9690   28.5040   47.3600 O   0  0  0  0  0  0  0  0  0  0  0  0
   57.1340   28.3480   45.4680 N   0  0  0  0  0  0  0  0  0  0  0  0
   57.4250   27.2040   44.5930 C   0  0  0  0  0  0  0  0  0  0  0  0
   57.1860   25.9210   45.3420 C   0  0  0  0  0  0  0  0  0  0  0  0
   58.1610   24.9090   45.3240 C   0  0  0  0  0  0  0  0  0  0  0  0
   57.9350   23.7010   45.9840 C   0  0  0  0  0  0  0  0  0  0  0  0
   56.7330   23.4880   46.6560 C   0  0  0  0  0  0  0  0  0  0  0  0
   55.7520   24.4820   46.6690 C   0  0  0  0  0  0  0  0  0  0  0  0
   55.9700   25.6950   46.0120 C   0  0  0  0  0  0  0  0  0  0  0  0
   54.9770   26.6660   46.0300 O   0  0  0  0  0  0  0  0  0  0  0  0
   58.5110   31.4270   47.4460 C   0  0  0  0  0  0  0  0  0  0  0  0
   58.7310   30.8290   48.6260 N   0  0  0  0  0  0  0  0  0  0  0  0
   58.2707   34.0560   53.8768 H   0  0  0  0  0  0  0  0  0  0  0  0
   59.1277   33.7871   52.3212 H   0  0  0  0  0  0  0  0  0  0  0  0
   57.4105   34.3144   52.3212 H   0  0  0  0  0  0  0  0  0  0  0  0
   58.1148   34.7301   46.7238 H   0  0  0  0  0  0  0  0  0  0  0  0
   57.9641   33.7584   44.4068 H   0  0  0  0  0  0  0  0  0  0  0  0
   59.0864   30.9252   43.1772 H   0  0  0  0  0  0  0  0  0  0  0  0
   56.8572   31.5578   42.0963 H   0  0  0  0  0  0  0  0  0  0  0  0
   55.5255   29.3453   42.7061 H   0  0  0  0  0  0  0  0  0  0  0  0
   56.6340   27.9960   46.3190 H   0  0  0  0  0  0  0  0  0  0  0  0
   56.7679   27.2410   43.7116 H   0  0  0  0  0  0  0  0  0  0  0  0
   58.4760   27.2485   44.2714 H   0  0  0  0  0  0  0  0  0  0  0  0
   59.1072   25.0703   44.7867 H   0  0  0  0  0  0  0  0  0  0  0  0
   58.7059   22.9164   45.9740 H   0  0  0  0  0  0  0  0  0  0  0  0
   56.5565   22.5355   47.1771 H   0  0  0  0  0  0  0  0  0  0  0  0
   54.8037   24.3088   47.1989 H   0  0  0  0  0  0  0  0  0  0  0  0
  1  2  1  0
  2  3  1  0
  3  4  2  0
  3  5  1  0
  5  6  2  3
  6  7  1  0
  7  8  1  0
  8  9  2  0
  9 10  1  0
 10 11  2  0
 11 12  1  0
 12 13  2  3
 13 14  1  0
 14 15  2  0
 11 16  1  0
 16 17  1  0
 17 18  2  0
 17 19  2  0
 17 20  1  0
 20 21  1  0
 21 22  1  0
 22 23  2  0
 23 24  1  0
 24 25  2  0
 25 26  1  0
 26 27  2  0
 27 28  1  0
 16 29  2  0
 29 30  1  0
 30  6  1  0
 29  8  1  0
 27 22  1  0
  1 31  1  0
  1 32  1  0
  1 33  1  0
  9 34  1  0
 10 35  1  0
 12 36  1  0
 13 37  1  0
 14 38  1  0
 20 39  1  0
 21 40  1  0
 21 41  1  0
 23 42  1  0
 24 43  1  0
 25 44  1  0
 26 45  1  0
M  CHG  3   7  -1  28  -1  30  -1
M  END
>  <UniqueID>  (36) 
30

>  <SMILES>  (36) 
COC(=O)N=c1[n-]c2ccc(C=CC=O)c(S(=O)(=O)NCc3ccccc3[O-])c2[n-]1

>  <Energy>  (36) 
85.29706737762103

>  <Genealogy>  (36) 
COC(=O)N=c1[n-]c2ccc(C=CC=O)c(S(=O)(=O)NCc3ccccc3[O-])c2[n-]1 (protonated)
COC(=O)N=c1[n-]c2ccc(C=CC=O)c(S(=O)(=O)NCc3ccccc3[O-])c2[n-]1 (3D coordinates assigned)
COC(=O)N=c1[n-]c2ccc(C=CC=O)c(S(=O)(=O)NCc3ccccc3[O-])c2[n-]1 (optimized conformer: 85.29706737762103 kcal/mol)

>  <smiles>  (36) 
COC(=O)N=c1[nH]c2ccc(C=CC=O)c(S(=O)(=O)NCc3ccccc3O)c2[nH]1

>  <score_type>  (36) 
oracle

>  <origin>  (36) 
adg

>  <m_score__min__energy>  (36) 
-14.07

>  <m_primary>  (36) 
energy

$$$$
36:0
     RDKit          3D

 46 48  0  0  0  0  0  0  0  0999 V2000
   55.6320   24.6990   44.3380 O   0  0  0  0  0  0  0  0  0  0  0  0
   54.8830   25.0980   45.2690 C   0  0  0  0  0  0  0  0  0  0  0  0
   53.6840   24.2870   45.6530 C   0  0  0  0  0  0  0  0  0  0  0  0
   53.9370   22.8930   45.4920 O   0  0  0  0  0  0  0  0  0  0  0  0
   54.9340   22.2020   46.1930 C   0  0  0  0  0  0  0  0  0  0  0  0
   54.6520   21.6370   47.2860 O   0  0  0  0  0  0  0  0  0  0  0  0
   56.3160   22.1280   45.6550 C   0  0  0  0  0  0  0  0  0  0  0  0
   56.5250   21.9540   44.2740 C   0  0  0  0  0  0  0  0  0  0  0  0
   57.8190   21.8810   43.7580 C   0  0  0  0  0  0  0  0  0  0  0  0
   58.9070   21.9780   44.6250 C   0  0  0  0  0  0  0  0  0  0  0  0
   60.0830   21.9100   44.1770 O   0  0  0  0  0  0  0  0  0  0  0  0
   58.7010   22.1470   45.9570 N   0  0  0  0  0  0  0  0  0  0  0  0
   57.4510   22.2230   46.4920 C   0  0  0  0  0  0  0  0  0  0  0  0
   57.3220   22.3900   47.8660 O   0  0  0  0  0  0  0  0  0  0  0  0
   55.1770   26.3140   45.9670 N   0  0  0  0  0  0  0  0  0  0  0  0
   56.3760   27.0840   45.8080 C   0  0  0  0  0  0  0  0  0  0  0  0
   57.5830   26.5420   46.2650 C   0  0  0  0  0  0  0  0  0  0  0  0
   58.7720   27.2590   46.1310 C   0  0  0  0  0  0  0  0  0  0  0  0
   58.7620   28.5320   45.5600 C   0  0  0  0  0  0  0  0  0  0  0  0
   57.5590   29.1060   45.1250 C   0  0  0  0  0  0  0  0  0  0  0  0
   57.5880   30.7530   44.4820 S   0  0  0  0  0  0  0  0  0  0  0  0
   56.2220   31.3780   44.5590 O   0  0  0  0  0  0  0  0  0  0  0  0
   57.9990   30.6970   43.0370 O   0  0  0  0  0  0  0  0  0  0  0  0
   58.7400   31.7140   45.3790 N   0  0  0  0  0  0  0  0  0  0  0  0
   58.5000   31.5630   46.8260 C   0  0  0  0  0  0  0  0  0  0  0  0
   59.1830   32.6980   47.6060 C   0  0  0  0  0  0  0  0  0  0  0  0
   58.7600   34.0060   47.2380 O   0  0  0  0  0  0  0  0  0  0  0  0
   58.1010   34.0650   45.9820 C   0  0  0  0  0  0  0  0  0  0  0  0
   58.7250   33.1270   44.9350 C   0  0  0  0  0  0  0  0  0  0  0  0
   56.3560   28.3870   45.2680 C   0  0  0  0  0  0  0  0  0  0  0  0
   55.1440   28.9710   44.9140 O   0  0  0  0  0  0  0  0  0  0  0  0
   53.4356   24.4883   46.7055 H   0  0  0  0  0  0  0  0  0  0  0  0
   52.8460   24.5689   44.9986 H   0  0  0  0  0  0  0  0  0  0  0  0
   55.6618   21.8750   43.5968 H   0  0  0  0  0  0  0  0  0  0  0  0
   57.9796   21.7482   42.6779 H   0  0  0  0  0  0  0  0  0  0  0  0
   57.5939   25.5461   46.7319 H   0  0  0  0  0  0  0  0  0  0  0  0
   59.7196   26.8198   46.4763 H   0  0  0  0  0  0  0  0  0  0  0  0
   59.7042   29.0890   45.4504 H   0  0  0  0  0  0  0  0  0  0  0  0
   57.4173   31.5919   47.0184 H   0  0  0  0  0  0  0  0  0  0  0  0
   58.9184   30.6013   47.1577 H   0  0  0  0  0  0  0  0  0  0  0  0
   58.9695   32.5564   48.6758 H   0  0  0  0  0  0  0  0  0  0  0  0
   60.2556   32.6384   47.3693 H   0  0  0  0  0  0  0  0  0  0  0  0
   57.0478   33.7812   46.1244 H   0  0  0  0  0  0  0  0  0  0  0  0
   58.2000   35.0936   45.6049 H   0  0  0  0  0  0  0  0  0  0  0  0
   58.1422   33.1986   44.0048 H   0  0  0  0  0  0  0  0  0  0  0  0
   59.7681   33.4414   44.7829 H   0  0  0  0  0  0  0  0  0  0  0  0
  1  2  2  0
  2  3  1  0
  3  4  1  0
  4  5  1  0
  5  6  2  0
  5  7  1  0
  7  8  1  0
  8  9  2  0
  9 10  1  0
 10 11  2  0
 10 12  1  0
 12 13  1  0
 13 14  1  0
  2 15  1  0
 15 16  1  0
 16 17  2  0
 17 18  1  0
 18 19  2  0
 19 20  1  0
 20 21  1  0
 21 22  2  0
 21 23  2  0
 21 24  1  0
 24 25  1  0
 25 26  1  0
 26 27  1  0
 27 28  1  0
 28 29  1  0
 20 30  2  0
 30 31  1  0
 13  7  2  0
 30 16  1  0
 29 24  1  0
  3 32  1  0
  3 33  1  0
  8 34  1  0
  9 35  1  0
 17 36  1  0
 18 37  1  0
 19 38  1  0
 25 39  1  0
 25 40  1  0
 26 41  1  0
 26 42  1  0
 28 43  1  0
 28 44  1  0
 29 45  1  0
 29 46  1  0
M  CHG  4  12  -1  14  -1  15  -1  31  -1
M  END
>  <UniqueID>  (37) 
31

>  <SMILES>  (37) 
O=C(COC(=O)c1ccc(=O)[n-]c1[O-])[N-]c1cccc(S(=O)(=O)N2CCOCC2)c1[O-]

>  <Energy>  (37) 
67.54013635550749

>  <Genealogy>  (37) 
O=C(COC(=O)c1ccc(=O)[n-]c1[O-])[N-]c1cccc(S(=O)(=O)N2CCOCC2)c1[O-] (protonated)
O=C(COC(=O)c1ccc(=O)[n-]c1[O-])[N-]c1cccc(S(=O)(=O)N2CCOCC2)c1[O-] (3D coordinates assigned)
O=C(COC(=O)c1ccc(=O)[n-]c1[O-])[N-]c1cccc(S(=O)(=O)N2CCOCC2)c1[O-] (nonaromatic ring conformer: 67.54013635550749 kcal/mol)

>  <smiles>  (37) 
O=C(COC(=O)c1ccc(=O)[nH]c1O)Nc1cccc(S(=O)(=O)N2CCOCC2)c1O

>  <score_type>  (37) 
oracle

>  <origin>  (37) 
adg

>  <m_score__min__energy>  (37) 
-17.52

>  <m_primary>  (37) 
energy

$$$$
37:0
     RDKit          3D

 45 48  0  0  0  0  0  0  0  0999 V2000
   59.7380   35.7120   47.1040 N   0  0  0  0  0  0  0  0  0  0  0  0
   59.2280   34.6280   46.6170 C   0  0  0  0  0  0  0  0  0  0  0  0
   58.9390   33.5780   47.4340 N   0  0  0  0  0  0  0  0  0  0  0  0
   58.4010   32.4300   46.9420 C   0  0  0  0  0  0  0  0  0  0  0  0
   58.1450   31.4740   47.7210 O   0  0  0  0  0  0  0  0  0  0  0  0
   58.1390   32.3240   45.5730 C   0  0  0  0  0  0  0  0  0  0  0  0
   57.6030   31.2000   45.0290 N   0  0  0  0  0  0  0  0  0  0  0  0
   57.3480   31.1120   43.6940 C   0  0  0  0  0  0  0  0  0  0  0  0
   56.7860   29.8300   43.1460 C   0  0  0  0  0  0  0  0  0  0  0  0
   55.5180   29.4650   43.8680 C   0  0  0  0  0  0  0  0  0  0  0  0
   54.4090   29.7300   43.3310 O   0  0  0  0  0  0  0  0  0  0  0  0
   55.5290   28.9000   45.1850 N   0  0  0  0  0  0  0  0  0  0  0  0
   56.3700   27.8280   45.6320 C   0  0  0  0  0  0  0  0  0  0  0  0
   57.7420   28.0660   45.7840 C   0  0  0  0  0  0  0  0  0  0  0  0
   58.6000   27.0460   46.2220 C   0  0  0  0  0  0  0  0  0  0  0  0
   60.0700   27.3140   46.3960 C   0  0  0  0  0  0  0  0  0  0  0  0
   60.3640   27.6980   47.8210 C   0  0  0  0  0  0  0  0  0  0  0  0
   60.5810   29.0430   48.1610 C   0  0  0  0  0  0  0  0  0  0  0  0
   60.8930   29.3980   49.4770 C   0  0  0  0  0  0  0  0  0  0  0  0
   61.1000   30.7360   49.7930 O   0  0  0  0  0  0  0  0  0  0  0  0
   61.0000   28.4060   50.4680 C   0  0  0  0  0  0  0  0  0  0  0  0
   61.3080   28.7380   51.7860 O   0  0  0  0  0  0  0  0  0  0  0  0
   60.7950   27.0630   50.1270 C   0  0  0  0  0  0  0  0  0  0  0  0
   60.9030   26.0740   51.0980 O   0  0  0  0  0  0  0  0  0  0  0  0
   60.4830   26.7100   48.8110 C   0  0  0  0  0  0  0  0  0  0  0  0
   58.0650   25.7910   46.5540 C   0  0  0  0  0  0  0  0  0  0  0  0
   56.6930   25.5590   46.4380 C   0  0  0  0  0  0  0  0  0  0  0  0
   55.8410   26.5740   45.9910 C   0  0  0  0  0  0  0  0  0  0  0  0
   54.4720   26.3350   45.9320 O   0  0  0  0  0  0  0  0  0  0  0  0
   57.6660   32.2100   42.8630 C   0  0  0  0  0  0  0  0  0  0  0  0
   57.3930   32.1770   41.1270 Cl  0  0  0  0  0  0  0  0  0  0  0  0
   58.2020   33.3320   43.4150 N   0  0  0  0  0  0  0  0  0  0  0  0
   58.4440   33.4150   44.7480 C   0  0  0  0  0  0  0  0  0  0  0  0
   58.9810   34.5430   45.2820 N   0  0  0  0  0  0  0  0  0  0  0  0
   59.2110   36.6140   47.0980 H   0  0  0  0  0  0  0  0  0  0  0  0
   56.5700   29.9571   42.0749 H   0  0  0  0  0  0  0  0  0  0  0  0
   57.5232   29.0262   43.2890 H   0  0  0  0  0  0  0  0  0  0  0  0
   58.1505   29.0620   45.5578 H   0  0  0  0  0  0  0  0  0  0  0  0
   60.6373   26.4071   46.1398 H   0  0  0  0  0  0  0  0  0  0  0  0
   60.3645   28.1414   45.7336 H   0  0  0  0  0  0  0  0  0  0  0  0
   60.5051   29.8217   47.3878 H   0  0  0  0  0  0  0  0  0  0  0  0
   61.3740   28.0390   52.5160 H   0  0  0  0  0  0  0  0  0  0  0  0
   60.3299   25.6525   48.5498 H   0  0  0  0  0  0  0  0  0  0  0  0
   58.7289   24.9879   46.9066 H   0  0  0  0  0  0  0  0  0  0  0  0
   56.2804   24.5734   46.6994 H   0  0  0  0  0  0  0  0  0  0  0  0
  1  2  2  3
  2  3  1  0
  3  4  1  0
  4  5  2  0
  4  6  1  0
  6  7  2  0
  7  8  1  0
  8  9  1  0
  9 10  1  0
 10 11  2  0
 10 12  1  0
 12 13  1  0
 13 14  2  0
 14 15  1  0
 15 16  1  0
 16 17  1  0
 17 18  2  0
 18 19  1  0
 19 20  1  0
 19 21  2  0
 21 22  1  0
 21 23  1  0
 23 24  1  0
 23 25  2  0
 15 26  2  0
 26 27  1  0
 27 28  2  0
 28 29  1  0
  8 30  2  0
 30 31  1  0
 30 32  1  0
 32 33  2  0
 33 34  1  0
 34  2  1  0
 33  6  1  0
 28 13  1  0
 25 17  1  0
  1 35  1  0
  9 36  1  0
  9 37  1  0
 14 38  1  0
 16 39  1  0
 16 40  1  0
 18 41  1  0
 22 42  1  0
 25 43  1  0
 26 44  1  0
 27 45  1  0
M  CHG  6   3  -1  12  -1  20  -1  24  -1  29  -1  34  -1
M  END
>  <UniqueID>  (38) 
32

>  <SMILES>  (38) 
N=c1[n-]c(=O)c2nc(CC(=O)[N-]c3cc(Cc4cc([O-])c(O)c([O-])c4)ccc3[O-])c(Cl)nc2[n-]1

>  <Energy>  (38) 
59.609282034759964

>  <Genealogy>  (38) 
N=c1[n-]c(=O)c2nc(CC(=O)[N-]c3cc(Cc4cc([O-])c(O)c([O-])c4)ccc3[O-])c(Cl)nc2[n-]1 (protonated)
N=c1[n-]c(=O)c2nc(CC(=O)[N-]c3cc(Cc4cc([O-])c(O)c([O-])c4)ccc3[O-])c(Cl)nc2[n-]1 (3D coordinates assigned)
N=c1[n-]c(=O)c2nc(CC(=O)[N-]c3cc(Cc4cc([O-])c(O)c([O-])c4)ccc3[O-])c(Cl)nc2[n-]1 (optimized conformer: 59.609282034759964 kcal/mol)

>  <smiles>  (38) 
N=c1[nH]c(=O)c2nc(CC(=O)Nc3cc(Cc4cc(O)c(O)c(O)c4)ccc3O)c(Cl)nc2[nH]1

>  <score_type>  (38) 
oracle

>  <origin>  (38) 
adg

>  <m_score__min__energy>  (38) 
-19.379999999999999

>  <m_primary>  (38) 
energy

$$$$
38:0
     RDKit          3D

 46 49  0  0  0  0  0  0  0  0999 V2000
   55.1276   20.3662   45.9235 H   0  0  0  0  0  0  0  0  0  0  0  0
   55.1940   21.4640   45.9420 C   0  0  0  0  0  0  0  0  0  0  0  0
   54.0420   22.1670   46.0150 C   0  0  0  0  0  0  0  0  0  0  0  0
   53.0973   21.6053   46.0590 H   0  0  0  0  0  0  0  0  0  0  0  0
   53.9700   23.6810   46.0400 C   0  0  0  0  0  0  0  0  0  0  0  0
   53.3666   24.0235   45.1864 H   0  0  0  0  0  0  0  0  0  0  0  0
   53.5137   23.9872   46.9929 H   0  0  0  0  0  0  0  0  0  0  0  0
   55.3280   24.3000   45.9530 C   0  0  0  0  0  0  0  0  0  0  0  0
   56.4980   23.5860   45.8800 C   0  0  0  0  0  0  0  0  0  0  0  0
   57.5220   24.5110   45.8270 C   0  0  0  0  0  0  0  0  0  0  0  0
   58.8760   24.2060   45.7550 O   0  0  0  0  0  0  0  0  0  0  0  0
   57.0220   25.7670   45.8580 N   0  0  0  0  0  0  0  0  0  0  0  0
   57.7830   27.0190   45.8770 C   0  0  0  0  0  0  0  0  0  0  0  0
   58.8567   26.7894   45.8110 H   0  0  0  0  0  0  0  0  0  0  0  0
   57.5622   27.5516   46.8138 H   0  0  0  0  0  0  0  0  0  0  0  0
   57.3870   27.9150   44.6970 C   0  0  0  0  0  0  0  0  0  0  0  0
   56.6610   27.3767   44.0700 H   0  0  0  0  0  0  0  0  0  0  0  0
   58.2991   28.1555   44.1311 H   0  0  0  0  0  0  0  0  0  0  0  0
   56.7670   29.2120   45.1570 C   0  0  0  0  0  0  0  0  0  0  0  0
   55.6860   29.5960   44.6340 O   0  0  0  0  0  0  0  0  0  0  0  0
   57.3870   30.0510   46.1430 N   0  0  0  0  0  0  0  0  0  0  0  0
   57.7690   31.2820   45.9760 C   0  0  0  0  0  0  0  0  0  0  0  0
   57.1140   32.1880   45.2110 N   0  0  0  0  0  0  0  0  0  0  0  0
   57.7650   33.3800   45.1820 C   0  0  0  0  0  0  0  0  0  0  0  0
   57.3925   34.2463   44.6156 H   0  0  0  0  0  0  0  0  0  0  0  0
   58.9410   33.4180   45.9260 C   0  0  0  0  0  0  0  0  0  0  0  0
   59.8960   34.5670   45.9940 C   0  0  0  0  0  0  0  0  0  0  0  0
   60.2737   34.7868   44.9845 H   0  0  0  0  0  0  0  0  0  0  0  0
   59.3735   35.4471   46.3970 H   0  0  0  0  0  0  0  0  0  0  0  0
   61.0510   34.2240   46.8940 C   0  0  0  0  0  0  0  0  0  0  0  0
   62.2860   33.8400   46.3440 C   0  0  0  0  0  0  0  0  0  0  0  0
   62.4189   33.8256   45.2521 H   0  0  0  0  0  0  0  0  0  0  0  0
   63.3470   33.4760   47.1800 C   0  0  0  0  0  0  0  0  0  0  0  0
   64.3138   33.1831   46.7446 H   0  0  0  0  0  0  0  0  0  0  0  0
   63.1800   33.4840   48.5700 C   0  0  0  0  0  0  0  0  0  0  0  0
   64.5110   33.0240   49.6160 Cl  0  0  0  0  0  0  0  0  0  0  0  0
   61.9510   33.8570   49.1230 C   0  0  0  0  0  0  0  0  0  0  0  0
   61.8197   33.8643   50.2151 H   0  0  0  0  0  0  0  0  0  0  0  0
   60.8880   34.2210   48.2890 C   0  0  0  0  0  0  0  0  0  0  0  0
   59.9205   34.5060   48.7279 H   0  0  0  0  0  0  0  0  0  0  0  0
   59.1900   31.9040   46.6210 S   0  0  0  0  0  0  0  0  0  0  0  0
   55.6810   25.6350   45.9420 C   0  0  0  0  0  0  0  0  0  0  0  0
   54.7920   26.7020   46.0130 O   0  0  0  0  0  0  0  0  0  0  0  0
   56.5710   22.0930   45.8840 C   0  0  0  0  0  0  0  0  0  0  0  0
   57.0772   21.7585   44.9664 H   0  0  0  0  0  0  0  0  0  0  0  0
   57.1287   21.7797   46.7789 H   0  0  0  0  0  0  0  0  0  0  0  0
  1  2  1  0
  2  3  2  0
  3  4  1  0
  3  5  1  0
  5  6  1  0
  5  7  1  0
  5  8  1  0
  8  9  1  0
  9 10  2  0
 10 11  1  0
 10 12  1  0
 12 13  1  0
 13 14  1  0
 13 15  1  0
 13 16  1  0
 16 17  1  0
 16 18  1  0
 16 19  1  0
 19 20  2  0
 19 21  1  0
 21 22  2  0
 22 23  1  0
 23 24  1  0
 24 25  1  0
 24 26  2  0
 26 27  1  0
 27 28  1  0
 27 29  1  0
 27 30  1  0
 30 31  2  0
 31 32  1  0
 31 33  1  0
 33 34  1  0
 33 35  2  0
 35 36  1  0
 35 37  1  0
 37 38  1  0
 37 39  2  0
 39 40  1  0
 26 41  1  0
 12 42  1  0
 42 43  1  0
  9 44  1  0
 44 45  1  0
 44 46  1  0
 44  2  1  0
 42  8  2  0
 41 22  1  0
 39 30  1  0
M  CHG  3  11  -1  23  -1  43  -1
M  END
>  <UniqueID>  (39) 
33

>  <SMILES>  (39) 
O=C(CCn1c([O-])c2c(c1[O-])CC=CC2)/N=c1\[n-]cc(Cc2ccc(Cl)cc2)s1

>  <Energy>  (39) 
112.16749886100314

>  <Genealogy>  (39) 
O=C(CCn1c([O-])c2c(c1[O-])CC=CC2)N=c1[n-]cc(Cc2ccc(Cl)cc2)s1 (protonated)
O=C(CCn1c([O-])c2c(c1[O-])CC=CC2)/N=c1\[n-]cc(Cc2ccc(Cl)cc2)s1 (cis-trans isomerization)
O=C(CCn1c([O-])c2c(c1[O-])CC=CC2)/N=c1\[n-]cc(Cc2ccc(Cl)cc2)s1 (3D coordinates assigned)
O=C(CCn1c([O-])c2c(c1[O-])CC=CC2)/N=c1\[n-]cc(Cc2ccc(Cl)cc2)s1 (nonaromatic ring conformer: 112.16749886100314 kcal/mol)

>  <smiles>  (39) 
O=C(CCn1c(O)c2c(c1O)CC=CC2)N=c1[nH]cc(Cc2ccc(Cl)cc2)s1

>  <score_type>  (39) 
oracle

>  <origin>  (39) 
adg

>  <m_score__min__energy>  (39) 
-16.399999999999999

>  <m_primary>  (39) 
energy

$$$$
39:0
     RDKit          3D

 56 60  0  0  0  0  0  0  0  0999 V2000
   60.6840   28.5470   48.8180 O   0  0  0  0  0  0  0  0  0  0  0  0
   59.7710   29.4140   48.7270 C   0  0  0  0  0  0  0  0  0  0  0  0
   58.7110   29.2470   47.7630 N   0  0  0  0  0  0  0  0  0  0  0  0
   58.5330   28.0200   47.0430 C   0  0  0  0  0  0  0  0  0  0  0  0
   58.9710   26.4920   47.6450 S   0  0  0  0  0  0  0  0  0  0  0  0
   58.3820   25.6800   46.3070 C   0  0  0  0  0  0  0  0  0  0  0  0
   57.8700   26.5380   45.4050 C   0  0  0  0  0  0  0  0  0  0  0  0
   57.9260   27.8900   45.7780 C   0  0  0  0  0  0  0  0  0  0  0  0
   57.5020   29.0140   44.9120 C   0  0  0  0  0  0  0  0  0  0  0  0
   57.4400   28.8620   43.6620 O   0  0  0  0  0  0  0  0  0  0  0  0
   57.0800   30.2530   45.5050 N   0  0  0  0  0  0  0  0  0  0  0  0
   57.7580   31.5140   45.4340 C   0  0  0  0  0  0  0  0  0  0  0  0
   57.6300   32.2730   44.2640 C   0  0  0  0  0  0  0  0  0  0  0  0
   58.2980   33.4900   44.1370 C   0  0  0  0  0  0  0  0  0  0  0  0
   59.0790   33.9740   45.1900 C   0  0  0  0  0  0  0  0  0  0  0  0
   59.1720   33.2550   46.3900 C   0  0  0  0  0  0  0  0  0  0  0  0
   59.9860   33.7830   47.5030 C   0  0  0  0  0  0  0  0  0  0  0  0
   59.4390   34.5400   48.3540 O   0  0  0  0  0  0  0  0  0  0  0  0
   61.3750   33.4390   47.6470 N   0  0  0  0  0  0  0  0  0  0  0  0
   62.2740   34.1610   48.5290 C   0  0  0  0  0  0  0  0  0  0  0  0
   63.6090   33.4330   48.4370 C   0  0  0  0  0  0  0  0  0  0  0  0
   63.2950   32.0600   47.8530 C   0  0  0  0  0  0  0  0  0  0  0  0
   61.9630   32.2130   47.1300 C   0  0  0  0  0  0  0  0  0  0  0  0
   58.5150   32.0190   46.5060 C   0  0  0  0  0  0  0  0  0  0  0  0
   57.4240   25.8410   44.1780 C   0  0  0  0  0  0  0  0  0  0  0  0
   57.7850   24.3590   44.4560 C   0  0  0  0  0  0  0  0  0  0  0  0
   58.4030   24.2760   45.8690 C   0  0  0  0  0  0  0  0  0  0  0  0
   59.8180   30.6150   49.5890 C   0  0  0  0  0  0  0  0  0  0  0  0
   58.6590   31.3580   49.8590 C   0  0  0  0  0  0  0  0  0  0  0  0
   58.7400   32.4870   50.6780 C   0  0  0  0  0  0  0  0  0  0  0  0
   59.9660   32.8670   51.2220 C   0  0  0  0  0  0  0  0  0  0  0  0
   61.1020   32.1060   50.9330 C   0  0  0  0  0  0  0  0  0  0  0  0
   61.0050   31.0120   50.1310 N   0  0  0  0  0  0  0  0  0  0  0  0
   58.0960   30.0640   47.5310 H   0  0  0  0  0  0  0  0  0  0  0  0
   56.9989   31.9069   43.4408 H   0  0  0  0  0  0  0  0  0  0  0  0
   58.2102   34.0702   43.2066 H   0  0  0  0  0  0  0  0  0  0  0  0
   59.6232   34.9233   45.0768 H   0  0  0  0  0  0  0  0  0  0  0  0
   62.3817   35.2043   48.1974 H   0  0  0  0  0  0  0  0  0  0  0  0
   61.8959   34.1895   49.5616 H   0  0  0  0  0  0  0  0  0  0  0  0
   64.2991   33.9806   47.7783 H   0  0  0  0  0  0  0  0  0  0  0  0
   64.0946   33.3527   49.4207 H   0  0  0  0  0  0  0  0  0  0  0  0
   64.0814   31.7547   47.1471 H   0  0  0  0  0  0  0  0  0  0  0  0
   63.2454   31.2883   48.6353 H   0  0  0  0  0  0  0  0  0  0  0  0
   62.1223   32.2917   46.0445 H   0  0  0  0  0  0  0  0  0  0  0  0
   61.3075   31.3456   47.2971 H   0  0  0  0  0  0  0  0  0  0  0  0
   58.5930   31.4432   47.4400 H   0  0  0  0  0  0  0  0  0  0  0  0
   56.3408   25.9610   44.0287 H   0  0  0  0  0  0  0  0  0  0  0  0
   57.8953   26.2341   43.2651 H   0  0  0  0  0  0  0  0  0  0  0  0
   56.8780   23.7384   44.4081 H   0  0  0  0  0  0  0  0  0  0  0  0
   58.4991   23.9918   43.7041 H   0  0  0  0  0  0  0  0  0  0  0  0
   57.7952   23.6432   46.5324 H   0  0  0  0  0  0  0  0  0  0  0  0
   59.4069   23.8265   45.8835 H   0  0  0  0  0  0  0  0  0  0  0  0
   57.6933   31.0538   49.4289 H   0  0  0  0  0  0  0  0  0  0  0  0
   57.8364   33.0761   50.8936 H   0  0  0  0  0  0  0  0  0  0  0  0
   60.0382   33.7533   51.8695 H   0  0  0  0  0  0  0  0  0  0  0  0
   62.0766   32.3925   51.3551 H   0  0  0  0  0  0  0  0  0  0  0  0
  1  2  2  0
  2  3  1  0
  3  4  1  0
  4  5  1  0
  5  6  1  0
  6  7  2  0
  7  8  1  0
  8  9  1  0
  9 10  2  0
  9 11  1  0
 11 12  1  0
 12 13  2  0
 13 14  1  0
 14 15  2  0
 15 16  1  0
 16 17  1  0
 17 18  2  0
 17 19  1  0
 19 20  1  0
 20 21  1  0
 21 22  1  0
 22 23  1  0
 16 24  2  0
  7 25  1  0
 25 26  1  0
 26 27  1  0
  2 28  1  0
 28 29  2  0
 29 30  1  0
 30 31  2  0
 31 32  1  0
 32 33  2  0
  8  4  2  0
 24 12  1  0
 33 28  1  0
 27  6  1  0
 23 19  1  0
  3 34  1  0
 13 35  1  0
 14 36  1  0
 15 37  1  0
 20 38  1  0
 20 39  1  0
 21 40  1  0
 21 41  1  0
 22 42  1  0
 22 43  1  0
 23 44  1  0
 23 45  1  0
 24 46  1  0
 25 47  1  0
 25 48  1  0
 26 49  1  0
 26 50  1  0
 27 51  1  0
 27 52  1  0
 29 53  1  0
 30 54  1  0
 31 55  1  0
 32 56  1  0
M  CHG  1  11  -1
M  END
>  <UniqueID>  (40) 
34

>  <SMILES>  (40) 
O=C(Nc1sc2c(c1C(=O)[N-]c1cccc(C(=O)N3CCCC3)c1)CCC2)c1ccccn1

>  <Energy>  (40) 
116.64856669196153

>  <Genealogy>  (40) 
O=C(Nc1sc2c(c1C(=O)[N-]c1cccc(C(=O)N3CCCC3)c1)CCC2)c1ccccn1 (protonated)
O=C(Nc1sc2c(c1C(=O)[N-]c1cccc(C(=O)N3CCCC3)c1)CCC2)c1ccccn1 (3D coordinates assigned)
O=C(Nc1sc2c(c1C(=O)[N-]c1cccc(C(=O)N3CCCC3)c1)CCC2)c1ccccn1 (nonaromatic ring conformer: 116.64856669196153 kcal/mol)

>  <smiles>  (40) 
O=C(Nc1sc2c(c1C(=O)Nc1cccc(C(=O)N3CCCC3)c1)CCC2)c1ccccn1

>  <score_type>  (40) 
oracle

>  <origin>  (40) 
adg

>  <m_score__min__energy>  (40) 
-11.359999999999999

>  <m_primary>  (40) 
energy

$$$$
40:0
     RDKit          3D

 27 28  0  0  0  0  0  0  0  0999 V2000
   54.5590   27.0800   46.6940 H   0  0  0  0  0  0  0  0  0  0  0  0
   55.1960   26.7050   45.9570 N   0  0  0  0  0  0  0  0  0  0  0  0
   56.5680   27.0910   45.9040 C   0  0  0  0  0  0  0  0  0  0  0  0
   57.4450   26.3030   46.3500 O   0  0  0  0  0  0  0  0  0  0  0  0
   56.9590   28.4020   45.3360 C   0  0  0  0  0  0  0  0  0  0  0  0
   56.0530   29.1480   44.5610 C   0  0  0  0  0  0  0  0  0  0  0  0
   55.0445   28.7528   44.3695 H   0  0  0  0  0  0  0  0  0  0  0  0
   56.4240   30.3880   44.0320 C   0  0  0  0  0  0  0  0  0  0  0  0
   55.7106   30.9557   43.4165 H   0  0  0  0  0  0  0  0  0  0  0  0
   57.7010   30.9120   44.2820 C   0  0  0  0  0  0  0  0  0  0  0  0
   58.1180   32.2200   43.7340 C   0  0  0  0  0  0  0  0  0  0  0  0
   58.1215   32.3418   42.6408 H   0  0  0  0  0  0  0  0  0  0  0  0
   58.4820   33.2390   44.4620 N   0  0  0  0  0  0  0  0  0  0  0  0
   57.8500   33.7270   45.6580 C   0  0  0  0  0  0  0  0  0  0  0  0
   56.6160   33.9720   45.6350 O   0  0  0  0  0  0  0  0  0  0  0  0
   58.5750   33.9370   46.8780 N   0  0  0  0  0  0  0  0  0  0  0  0
   59.8650   33.8570   47.0260 C   0  0  0  0  0  0  0  0  0  0  0  0
   60.6960   33.6450   48.4860 S   0  0  0  0  0  0  0  0  0  0  0  0
   62.1650   33.6430   47.6610 C   0  0  0  0  0  0  0  0  0  0  0  0
   63.6250   33.4840   48.3730 S   0  0  0  0  0  0  0  0  0  0  0  0
   61.9990   33.7880   46.3290 N   0  0  0  0  0  0  0  0  0  0  0  0
   60.7190   33.9010   45.9810 N   0  0  0  0  0  0  0  0  0  0  0  0
   60.4200   34.0200   44.9870 H   0  0  0  0  0  0  0  0  0  0  0  0
   58.6190   30.1570   45.0230 C   0  0  0  0  0  0  0  0  0  0  0  0
   59.6367   30.5411   45.1867 H   0  0  0  0  0  0  0  0  0  0  0  0
   58.2500   28.9180   45.5560 C   0  0  0  0  0  0  0  0  0  0  0  0
   58.9739   28.3424   46.1515 H   0  0  0  0  0  0  0  0  0  0  0  0
  1  2  1  0
  2  3  1  0
  3  4  2  0
  3  5  1  0
  5  6  2  0
  6  7  1  0
  6  8  1  0
  8  9  1  0
  8 10  2  0
 10 11  1  0
 11 12  1  0
 11 13  2  0
 13 14  1  0
 14 15  2  0
 14 16  1  0
 16 17  2  3
 17 18  1  0
 18 19  1  0
 19 20  2  0
 19 21  1  0
 21 22  1  0
 22 23  1  0
 10 24  1  0
 24 25  1  0
 24 26  2  0
 26 27  1  0
 26  5  1  0
 22 17  1  0
M  CHG  2   2  -1  21  -1
M  END
>  <UniqueID>  (41) 
35

>  <SMILES>  (41) 
[NH-]C(=O)c1ccc(/C=N\C(=O)N=c2[nH][n-]c(=S)s2)cc1

>  <Energy>  (41) 
76.36124588838196

>  <Genealogy>  (41) 
[NH-]C(=O)c1ccc(C=NC(=O)N=c2[nH][n-]c(=S)s2)cc1 (protonated)
[NH-]C(=O)c1ccc(/C=N\C(=O)N=c2[nH][n-]c(=S)s2)cc1 (cis-trans isomerization)
[NH-]C(=O)c1ccc(/C=N\C(=O)N=c2[nH][n-]c(=S)s2)cc1 (3D coordinates assigned)
[NH-]C(=O)c1ccc(/C=N\C(=O)N=c2[nH][n-]c(=S)s2)cc1 (optimized conformer: 76.36124588838196 kcal/mol)

>  <smiles>  (41) 
NC(=O)c1ccc(C=NC(=O)N=c2[nH][nH]c(=S)s2)cc1

>  <score_type>  (41) 
oracle

>  <origin>  (41) 
adg

>  <m_score__min__energy>  (41) 
-10.66

>  <m_primary>  (41) 
energy

$$$$
41:0
     RDKit          3D

 47 50  0  0  0  0  0  0  0  0999 V2000
   57.2030   30.8350   50.8760 H   0  0  0  0  0  0  0  0  0  0  0  0
   56.7190   30.2410   51.5370 O   0  0  0  0  0  0  0  0  0  0  0  0
   57.3840   29.4220   52.4540 C   0  0  0  0  0  0  0  0  0  0  0  0
   58.7130   29.0590   52.1890 C   0  0  0  0  0  0  0  0  0  0  0  0
   59.3590   29.5810   51.0150 N   0  0  0  0  0  0  0  0  0  0  0  0
   59.2140   30.7870   50.5490 C   0  0  0  0  0  0  0  0  0  0  0  0
   59.0710   31.8810   51.3270 N   0  0  0  0  0  0  0  0  0  0  0  0
   58.9210   32.8820   50.4460 C   0  0  0  0  0  0  0  0  0  0  0  0
   58.7798   33.9419   50.7042 H   0  0  0  0  0  0  0  0  0  0  0  0
   58.9720   32.3710   49.1630 C   0  0  0  0  0  0  0  0  0  0  0  0
   58.8450   33.1240   47.8900 C   0  0  0  0  0  0  0  0  0  0  0  0
   57.9140   32.7120   46.9190 C   0  0  0  0  0  0  0  0  0  0  0  0
   57.2856   31.8285   47.1049 H   0  0  0  0  0  0  0  0  0  0  0  0
   57.7820   33.4180   45.7190 C   0  0  0  0  0  0  0  0  0  0  0  0
   57.0514   33.0877   44.9659 H   0  0  0  0  0  0  0  0  0  0  0  0
   58.5750   34.5410   45.4740 C   0  0  0  0  0  0  0  0  0  0  0  0
   58.4702   35.0927   44.5281 H   0  0  0  0  0  0  0  0  0  0  0  0
   59.5000   34.9630   46.4290 C   0  0  0  0  0  0  0  0  0  0  0  0
   60.1216   35.8499   46.2365 H   0  0  0  0  0  0  0  0  0  0  0  0
   59.6390   34.2610   47.6310 C   0  0  0  0  0  0  0  0  0  0  0  0
   60.3720   34.5976   48.3789 H   0  0  0  0  0  0  0  0  0  0  0  0
   59.1530   31.0370   49.2270 N   0  0  0  0  0  0  0  0  0  0  0  0
   59.3690   28.1520   53.0390 C   0  0  0  0  0  0  0  0  0  0  0  0
   60.4027   27.8461   52.8202 H   0  0  0  0  0  0  0  0  0  0  0  0
   58.7150   27.6380   54.1590 C   0  0  0  0  0  0  0  0  0  0  0  0
   59.2278   26.9142   54.8094 H   0  0  0  0  0  0  0  0  0  0  0  0
   57.4140   28.0390   54.4560 C   0  0  0  0  0  0  0  0  0  0  0  0
   56.9071   27.6348   55.3446 H   0  0  0  0  0  0  0  0  0  0  0  0
   56.7470   28.9540   53.6300 C   0  0  0  0  0  0  0  0  0  0  0  0
   55.4070   29.4200   54.0450 C   0  0  0  0  0  0  0  0  0  0  0  0
   54.8946   28.8959   54.8652 H   0  0  0  0  0  0  0  0  0  0  0  0
   54.7950   30.4540   53.4610 C   0  0  0  0  0  0  0  0  0  0  0  0
   54.8623   31.4535   53.9154 H   0  0  0  0  0  0  0  0  0  0  0  0
   54.0690   30.2790   52.2770 O   0  0  0  0  0  0  0  0  0  0  0  0
   52.6870   30.4680   52.1830 C   0  0  0  0  0  0  0  0  0  0  0  0
   51.9850   30.5050   53.2330 O   0  0  0  0  0  0  0  0  0  0  0  0
   52.0400   30.6210   50.8520 C   0  0  0  0  0  0  0  0  0  0  0  0
   52.2090   29.6130   49.8800 C   0  0  0  0  0  0  0  0  0  0  0  0
   52.8151   28.7259   50.1159 H   0  0  0  0  0  0  0  0  0  0  0  0
   51.6150   29.7290   48.6210 C   0  0  0  0  0  0  0  0  0  0  0  0
   51.7519   28.9332   47.8740 H   0  0  0  0  0  0  0  0  0  0  0  0
   50.8480   30.8530   48.3090 C   0  0  0  0  0  0  0  0  0  0  0  0
   50.3823   30.9417   47.3164 H   0  0  0  0  0  0  0  0  0  0  0  0
   50.6710   31.8650   49.2550 C   0  0  0  0  0  0  0  0  0  0  0  0
   49.9110   32.9860   48.9340 O   0  0  0  0  0  0  0  0  0  0  0  0
   51.2500   31.7500   50.5280 C   0  0  0  0  0  0  0  0  0  0  0  0
   51.0300   32.7640   51.4530 O   0  0  0  0  0  0  0  0  0  0  0  0
  1  2  1  0
  2  3  1  0
  3  4  2  0
  4  5  1  0
  5  6  2  0
  6  7  1  0
  7  8  1  0
  8  9  1  0
  8 10  2  0
 10 11  1  0
 11 12  2  0
 12 13  1  0
 12 14  1  0
 14 15  1  0
 14 16  2  0
 16 17  1  0
 16 18  1  0
 18 19  1  0
 18 20  2  0
 20 21  1  0
 10 22  1  0
  4 23  1  0
 23 24  1  0
 23 25  2  0
 25 26  1  0
 25 27  1  0
 27 28  1  0
 27 29  2  0
 29 30  1  0
 30 31  1  0
 30 32  2  3
 32 33  1  0
 32 34  1  0
 34 35  1  0
 35 36  2  0
 35 37  1  0
 37 38  2  0
 38 39  1  0
 38 40  1  0
 40 41  1  0
 40 42  2  0
 42 43  1  0
 42 44  1  0
 44 45  1  0
 44 46  2  0
 46 47  1  0
 29  3  1  0
 46 37  1  0
 22  6  1  0
 20 11  1  0
M  CHG  4   7  -1  22  -1  45  -1  47  -1
M  END
>  <UniqueID>  (42) 
36

>  <SMILES>  (42) 
O=C(OC=Cc1cccc(/N=c2\[n-]cc(-c3ccccc3)[n-]2)c1O)c1cccc([O-])c1[O-]

>  <Energy>  (42) 
94.39623625774746

>  <Genealogy>  (42) 
O=C(OC=Cc1cccc(N=c2[n-]cc(-c3ccccc3)[n-]2)c1O)c1cccc([O-])c1[O-] (protonated)
O=C(OC=Cc1cccc(/N=c2\[n-]cc(-c3ccccc3)[n-]2)c1O)c1cccc([O-])c1[O-] (cis-trans isomerization)
O=C(OC=Cc1cccc(/N=c2\[n-]cc(-c3ccccc3)[n-]2)c1O)c1cccc([O-])c1[O-] (3D coordinates assigned)
O=C(OC=Cc1cccc(/N=c2\[n-]cc(-c3ccccc3)[n-]2)c1O)c1cccc([O-])c1[O-] (optimized conformer: 94.39623625774746 kcal/mol)

>  <smiles>  (42) 
O=C(OC=Cc1cccc(N=c2[nH]cc(-c3ccccc3)[nH]2)c1O)c1cccc(O)c1O

>  <score_type>  (42) 
oracle

>  <origin>  (42) 
adg

>  <m_score__min__energy>  (42) 
-19.379999999999999

>  <m_primary>  (42) 
energy

$$$$
42:0
     RDKit          3D

 54 56  0  0  0  0  0  0  0  0999 V2000
   60.6450   27.8070   48.6300 O   0  0  0  0  0  0  0  0  0  0  0  0
   59.5570   28.0540   48.0420 C   0  0  0  0  0  0  0  0  0  0  0  0
   59.3520   27.5700   46.6390 C   0  0  0  0  0  0  0  0  0  0  0  0
   60.1080   28.4460   45.6240 C   0  0  0  0  0  0  0  0  0  0  0  0
   59.3390   29.7320   45.2760 C   0  0  0  0  0  0  0  0  0  0  0  0
   58.3440   29.4540   44.2340 N   0  0  0  0  0  0  0  0  0  0  0  0
   57.2000   30.7630   44.1460 S   0  0  0  0  0  0  0  0  0  0  0  0
   55.9110   30.3580   44.8110 O   0  0  0  0  0  0  0  0  0  0  0  0
   56.9180   31.0700   42.6980 O   0  0  0  0  0  0  0  0  0  0  0  0
   57.8580   32.2060   44.9190 C   0  0  0  0  0  0  0  0  0  0  0  0
   58.4850   33.2080   44.1600 C   0  0  0  0  0  0  0  0  0  0  0  0
   59.0080   34.3420   44.7910 C   0  0  0  0  0  0  0  0  0  0  0  0
   58.9070   34.4820   46.1780 C   0  0  0  0  0  0  0  0  0  0  0  0
   58.2740   33.4910   46.9360 C   0  0  0  0  0  0  0  0  0  0  0  0
   57.7470   32.3580   46.3080 C   0  0  0  0  0  0  0  0  0  0  0  0
   58.5570   28.8800   48.6520 N   0  0  0  0  0  0  0  0  0  0  0  0
   58.7600   29.9970   49.5320 C   0  0  0  0  0  0  0  0  0  0  0  0
   58.1300   30.0890   50.7890 C   0  0  0  0  0  0  0  0  0  0  0  0
   58.3400   31.2110   51.5970 C   0  0  0  0  0  0  0  0  0  0  0  0
   59.1640   32.2520   51.1580 C   0  0  0  0  0  0  0  0  0  0  0  0
   59.7790   32.1790   49.9020 C   0  0  0  0  0  0  0  0  0  0  0  0
   60.7720   33.5140   49.3130 S   0  0  0  0  0  0  0  0  0  0  0  0
   59.8970   34.6980   49.0010 O   0  0  0  0  0  0  0  0  0  0  0  0
   61.7550   33.9130   50.3870 O   0  0  0  0  0  0  0  0  0  0  0  0
   61.6430   32.9950   47.8880 N   0  0  0  0  0  0  0  0  0  0  0  0
   62.6220   33.9970   47.4620 C   0  0  0  0  0  0  0  0  0  0  0  0
   63.7500   33.2380   46.7680 C   0  0  0  0  0  0  0  0  0  0  0  0
   63.5270   31.7720   47.1180 C   0  0  0  0  0  0  0  0  0  0  0  0
   62.4170   31.7860   48.1510 C   0  0  0  0  0  0  0  0  0  0  0  0
   59.5670   31.0560   49.0910 C   0  0  0  0  0  0  0  0  0  0  0  0
   59.7178   26.5356   46.5607 H   0  0  0  0  0  0  0  0  0  0  0  0
   58.2777   27.6239   46.4088 H   0  0  0  0  0  0  0  0  0  0  0  0
   61.0832   28.7217   46.0518 H   0  0  0  0  0  0  0  0  0  0  0  0
   60.2257   27.8633   44.6984 H   0  0  0  0  0  0  0  0  0  0  0  0
   58.8294   30.1068   46.1759 H   0  0  0  0  0  0  0  0  0  0  0  0
   60.0474   30.4882   44.9069 H   0  0  0  0  0  0  0  0  0  0  0  0
   58.8380   29.4260   43.3090 H   0  0  0  0  0  0  0  0  0  0  0  0
   58.5649   33.1010   43.0681 H   0  0  0  0  0  0  0  0  0  0  0  0
   59.4995   35.1247   44.1945 H   0  0  0  0  0  0  0  0  0  0  0  0
   59.3250   35.3708   46.6733 H   0  0  0  0  0  0  0  0  0  0  0  0
   58.1907   33.6031   48.0271 H   0  0  0  0  0  0  0  0  0  0  0  0
   57.2439   31.5838   46.9059 H   0  0  0  0  0  0  0  0  0  0  0  0
   57.4726   29.2778   51.1350 H   0  0  0  0  0  0  0  0  0  0  0  0
   57.8549   31.2749   52.5822 H   0  0  0  0  0  0  0  0  0  0  0  0
   59.3294   33.1296   51.8002 H   0  0  0  0  0  0  0  0  0  0  0  0
   62.1574   34.7084   46.7634 H   0  0  0  0  0  0  0  0  0  0  0  0
   63.0003   34.5717   48.3203 H   0  0  0  0  0  0  0  0  0  0  0  0
   63.7000   33.3855   45.6791 H   0  0  0  0  0  0  0  0  0  0  0  0
   64.7402   33.5900   47.0931 H   0  0  0  0  0  0  0  0  0  0  0  0
   63.2209   31.2031   46.2277 H   0  0  0  0  0  0  0  0  0  0  0  0
   64.4411   31.2914   47.4966 H   0  0  0  0  0  0  0  0  0  0  0  0
   61.7823   30.8941   48.0432 H   0  0  0  0  0  0  0  0  0  0  0  0
   62.8177   31.7771   49.1754 H   0  0  0  0  0  0  0  0  0  0  0  0
   60.0383   31.0045   48.0984 H   0  0  0  0  0  0  0  0  0  0  0  0
  1  2  2  0
  2  3  1  0
  3  4  1  0
  4  5  1  0
  5  6  1  0
  6  7  1  0
  7  8  2  0
  7  9  2  0
  7 10  1  0
 10 11  2  0
 11 12  1  0
 12 13  2  0
 13 14  1  0
 14 15  2  0
  2 16  1  0
 16 17  1  0
 17 18  2  0
 18 19  1  0
 19 20  2  0
 20 21  1  0
 21 22  1  0
 22 23  2  0
 22 24  2  0
 22 25  1  0
 25 26  1  0
 26 27  1  0
 27 28  1  0
 28 29  1  0
 21 30  2  0
 15 10  1  0
 30 17  1  0
 29 25  1  0
  3 31  1  0
  3 32  1  0
  4 33  1  0
  4 34  1  0
  5 35  1  0
  5 36  1  0
  6 37  1  0
 11 38  1  0
 12 39  1  0
 13 40  1  0
 14 41  1  0
 15 42  1  0
 18 43  1  0
 19 44  1  0
 20 45  1  0
 26 46  1  0
 26 47  1  0
 27 48  1  0
 27 49  1  0
 28 50  1  0
 28 51  1  0
 29 52  1  0
 29 53  1  0
 30 54  1  0
M  CHG  1  16  -1
M  END
>  <UniqueID>  (43) 
37

>  <SMILES>  (43) 
O=C(CCCNS(=O)(=O)c1ccccc1)[N-]c1cccc(S(=O)(=O)N2CCCC2)c1

>  <Energy>  (43) 
50.15534815934707

>  <Genealogy>  (43) 
O=C(CCCNS(=O)(=O)c1ccccc1)[N-]c1cccc(S(=O)(=O)N2CCCC2)c1 (protonated)
O=C(CCCNS(=O)(=O)c1ccccc1)[N-]c1cccc(S(=O)(=O)N2CCCC2)c1 (3D coordinates assigned)
O=C(CCCNS(=O)(=O)c1ccccc1)[N-]c1cccc(S(=O)(=O)N2CCCC2)c1 (nonaromatic ring conformer: 50.15534815934707 kcal/mol)

>  <smiles>  (43) 
O=C(CCCNS(=O)(=O)c1ccccc1)Nc1cccc(S(=O)(=O)N2CCCC2)c1

>  <score_type>  (43) 
oracle

>  <origin>  (43) 
adg

>  <m_score__min__energy>  (43) 
-12

>  <m_primary>  (43) 
energy

$$$$
43:0
     RDKit          3D

 59 62  0  0  0  0  0  0  0  0999 V2000
   56.7400   21.5640   42.6240 C   0  0  0  0  0  0  0  0  0  0  0  0
   56.0590   22.1650   43.7810 N   0  0  0  0  0  0  0  0  0  0  0  0
   56.3400   21.3870   45.0130 C   0  0  0  0  0  0  0  0  0  0  0  0
   56.1540   22.2470   46.2690 C   0  0  0  0  0  0  0  0  0  0  0  0
   57.1210   23.3710   46.2960 N   0  0  0  0  0  0  0  0  0  0  0  0
   56.6350   24.4490   47.1810 C   0  0  0  0  0  0  0  0  0  0  0  0
   56.8590   25.7850   46.5420 C   0  0  0  0  0  0  0  0  0  0  0  0
   58.0310   26.3700   46.4370 O   0  0  0  0  0  0  0  0  0  0  0  0
   57.8660   27.5310   45.8380 C   0  0  0  0  0  0  0  0  0  0  0  0
   58.9830   28.4660   45.5060 C   0  0  0  0  0  0  0  0  0  0  0  0
   58.7780   29.7400   46.1860 N   0  0  0  0  0  0  0  0  0  0  0  0
   57.9300   30.7770   45.6840 C   0  0  0  0  0  0  0  0  0  0  0  0
   56.8270   30.4820   45.1600 O   0  0  0  0  0  0  0  0  0  0  0  0
   58.3790   32.1880   45.7540 C   0  0  0  0  0  0  0  0  0  0  0  0
   59.0570   32.7110   46.8840 C   0  0  0  0  0  0  0  0  0  0  0  0
   59.3140   31.8600   48.0130 N   0  0  0  0  0  0  0  0  0  0  0  0
   59.4990   34.0190   46.8770 N   0  0  0  0  0  0  0  0  0  0  0  0
   60.1340   34.6070   48.0770 C   0  0  0  0  0  0  0  0  0  0  0  0
   61.5330   34.0770   48.2500 C   0  0  0  0  0  0  0  0  0  0  0  0
   62.2630   33.6030   47.1470 C   0  0  0  0  0  0  0  0  0  0  0  0
   63.5620   33.1160   47.3200 C   0  0  0  0  0  0  0  0  0  0  0  0
   64.1440   33.1000   48.5920 C   0  0  0  0  0  0  0  0  0  0  0  0
   63.4250   33.5690   49.6930 C   0  0  0  0  0  0  0  0  0  0  0  0
   62.1250   34.0560   49.5250 C   0  0  0  0  0  0  0  0  0  0  0  0
   59.2830   34.8030   45.7690 C   0  0  0  0  0  0  0  0  0  0  0  0
   59.6670   36.0040   45.7380 O   0  0  0  0  0  0  0  0  0  0  0  0
   58.6460   34.3020   44.6860 N   0  0  0  0  0  0  0  0  0  0  0  0
   58.1930   33.0300   44.6490 C   0  0  0  0  0  0  0  0  0  0  0  0
   57.5970   32.6220   43.6160 O   0  0  0  0  0  0  0  0  0  0  0  0
   56.5320   27.7280   45.5240 C   0  0  0  0  0  0  0  0  0  0  0  0
   55.8950   26.6000   45.9900 C   0  0  0  0  0  0  0  0  0  0  0  0
   54.5320   26.3390   45.9190 O   0  0  0  0  0  0  0  0  0  0  0  0
   57.4790   23.8760   44.9450 C   0  0  0  0  0  0  0  0  0  0  0  0
   56.3760   23.6080   43.9070 C   0  0  0  0  0  0  0  0  0  0  0  0
   57.5214   20.8744   42.9760 H   0  0  0  0  0  0  0  0  0  0  0  0
   56.0096   21.0107   42.0154 H   0  0  0  0  0  0  0  0  0  0  0  0
   57.1982   22.3575   42.0154 H   0  0  0  0  0  0  0  0  0  0  0  0
   55.6521   20.5299   45.0604 H   0  0  0  0  0  0  0  0  0  0  0  0
   57.3850   21.0454   44.9774 H   0  0  0  0  0  0  0  0  0  0  0  0
   55.1316   22.6527   46.2781 H   0  0  0  0  0  0  0  0  0  0  0  0
   56.3281   21.6158   47.1529 H   0  0  0  0  0  0  0  0  0  0  0  0
   55.5594   24.3104   47.3652 H   0  0  0  0  0  0  0  0  0  0  0  0
   57.1876   24.4091   48.1313 H   0  0  0  0  0  0  0  0  0  0  0  0
   59.9368   28.0265   45.8332 H   0  0  0  0  0  0  0  0  0  0  0  0
   59.0062   28.6335   44.4191 H   0  0  0  0  0  0  0  0  0  0  0  0
   59.3070   30.8260   47.9330 H   0  0  0  0  0  0  0  0  0  0  0  0
   59.4960   32.2480   48.9600 H   0  0  0  0  0  0  0  0  0  0  0  0
   60.1729   35.7007   47.9662 H   0  0  0  0  0  0  0  0  0  0  0  0
   59.5398   34.3350   48.9619 H   0  0  0  0  0  0  0  0  0  0  0  0
   61.8110   33.6151   46.1442 H   0  0  0  0  0  0  0  0  0  0  0  0
   64.1282   32.7443   46.4533 H   0  0  0  0  0  0  0  0  0  0  0  0
   65.1671   32.7183   48.7246 H   0  0  0  0  0  0  0  0  0  0  0  0
   63.8816   33.5554   50.6937 H   0  0  0  0  0  0  0  0  0  0  0  0
   61.5624   34.4247   50.3953 H   0  0  0  0  0  0  0  0  0  0  0  0
   56.0815   28.5931   45.0155 H   0  0  0  0  0  0  0  0  0  0  0  0
   57.6493   24.9610   45.0072 H   0  0  0  0  0  0  0  0  0  0  0  0
   58.3842   23.3438   44.6172 H   0  0  0  0  0  0  0  0  0  0  0  0
   55.4655   24.1447   44.2120 H   0  0  0  0  0  0  0  0  0  0  0  0
   56.7413   23.9583   42.9304 H   0  0  0  0  0  0  0  0  0  0  0  0
  1  2  1  0
  2  3  1  0
  3  4  1  0
  4  5  1  0
  5  6  1  0
  6  7  1  0
  7  8  1  0
  8  9  1  0
  9 10  1  0
 10 11  1  0
 11 12  1  0
 12 13  2  0
 12 14  1  0
 14 15  2  0
 15 16  1  0
 15 17  1  0
 17 18  1  0
 18 19  1  0
 19 20  2  0
 20 21  1  0
 21 22  2  0
 22 23  1  0
 23 24  2  0
 17 25  1  0
 25 26  2  0
 25 27  1  0
 27 28  1  0
 28 29  2  0
  9 30  2  0
 30 31  1  0
 31 32  1  0
  5 33  1  0
 33 34  1  0
 34  2  1  0
 31  7  2  0
 28 14  1  0
 24 19  1  0
  1 35  1  0
  1 36  1  0
  1 37  1  0
  3 38  1  0
  3 39  1  0
  4 40  1  0
  4 41  1  0
  6 42  1  0
  6 43  1  0
 10 44  1  0
 10 45  1  0
 16 46  1  0
 16 47  1  0
 18 48  1  0
 18 49  1  0
 20 50  1  0
 21 51  1  0
 22 52  1  0
 23 53  1  0
 24 54  1  0
 30 55  1  0
 33 56  1  0
 33 57  1  0
 34 58  1  0
 34 59  1  0
M  CHG  3  11  -1  27  -1  32  -1
M  END
>  <UniqueID>  (44) 
38

>  <SMILES>  (44) 
CN1CCN(Cc2oc(C[N-]C(=O)c3c(N)n(Cc4ccccc4)c(=O)[n-]c3=O)cc2[O-])CC1

>  <Energy>  (44) 
113.8319716152504

>  <Genealogy>  (44) 
CN1CCN(Cc2oc(C[N-]C(=O)c3c(N)n(Cc4ccccc4)c(=O)[n-]c3=O)cc2[O-])CC1 (protonated)
CN1CCN(Cc2oc(C[N-]C(=O)c3c(N)n(Cc4ccccc4)c(=O)[n-]c3=O)cc2[O-])CC1 (3D coordinates assigned)
CN1CCN(Cc2oc(C[N-]C(=O)c3c(N)n(Cc4ccccc4)c(=O)[n-]c3=O)cc2[O-])CC1 (nonaromatic ring conformer: 113.8319716152504 kcal/mol)

>  <smiles>  (44) 
CN1CCN(Cc2oc(CNC(=O)c3c(N)n(Cc4ccccc4)c(=O)[nH]c3=O)cc2O)CC1

>  <score_type>  (44) 
oracle

>  <origin>  (44) 
adg

>  <m_score__min__energy>  (44) 
-15.15

>  <m_primary>  (44) 
energy

$$$$
44:0
     RDKit          3D

 50 52  0  0  0  0  0  0  0  0999 V2000
   59.9800   30.9800   47.6970 C   0  0  0  0  0  0  0  0  0  0  0  0
   61.0220   31.9510   47.3340 C   0  0  0  0  0  0  0  0  0  0  0  0
   62.3670   31.7070   47.5180 C   0  0  0  0  0  0  0  0  0  0  0  0
   63.3540   32.5880   47.1900 C   0  0  0  0  0  0  0  0  0  0  0  0
   62.9840   33.8020   46.6410 C   0  0  0  0  0  0  0  0  0  0  0  0
   61.6380   34.0570   46.4530 C   0  0  0  0  0  0  0  0  0  0  0  0
   60.6520   33.1480   46.7920 C   0  0  0  0  0  0  0  0  0  0  0  0
   59.2410   33.5370   46.5390 C   0  0  0  0  0  0  0  0  0  0  0  0
   59.0110   33.5030   45.1430 O   0  0  0  0  0  0  0  0  0  0  0  0
   58.3220   32.4860   44.5190 C   0  0  0  0  0  0  0  0  0  0  0  0
   58.1540   32.5620   43.1620 C   0  0  0  0  0  0  0  0  0  0  0  0
   57.4620   31.5380   42.5510 C   0  0  0  0  0  0  0  0  0  0  0  0
   56.9640   30.4780   43.3160 C   0  0  0  0  0  0  0  0  0  0  0  0
   57.1250   30.3910   44.6680 C   0  0  0  0  0  0  0  0  0  0  0  0
   56.6490   29.3530   45.4950 N   0  0  0  0  0  0  0  0  0  0  0  0
   57.2570   28.1200   45.7290 C   0  0  0  0  0  0  0  0  0  0  0  0
   58.3360   27.7970   45.2050 O   0  0  0  0  0  0  0  0  0  0  0  0
   56.6680   27.1230   46.6090 N   0  0  0  0  0  0  0  0  0  0  0  0
   57.3920   25.9130   46.7580 C   0  0  0  0  0  0  0  0  0  0  0  0
   57.1290   24.8060   45.8110 C   0  0  0  0  0  0  0  0  0  0  0  0
   58.2840   23.9280   45.5820 C   0  0  0  0  0  0  0  0  0  0  0  0
   58.1460   22.5930   45.1960 C   0  0  0  0  0  0  0  0  0  0  0  0
   59.3510   22.0340   45.0290 N   0  0  0  0  0  0  0  0  0  0  0  0
   60.2520   22.9610   45.2940 N   0  0  0  0  0  0  0  0  0  0  0  0
   59.6340   24.1300   45.6360 C   0  0  0  0  0  0  0  0  0  0  0  0
   60.2290   25.2070   45.9670 N   0  0  0  0  0  0  0  0  0  0  0  0
   57.8310   31.4440   45.2650 C   0  0  0  0  0  0  0  0  0  0  0  0
   59.9074   30.9124   48.7925 H   0  0  0  0  0  0  0  0  0  0  0  0
   59.0141   31.3075   47.2851 H   0  0  0  0  0  0  0  0  0  0  0  0
   60.2387   29.9934   47.2851 H   0  0  0  0  0  0  0  0  0  0  0  0
   62.6613   30.7420   47.9564 H   0  0  0  0  0  0  0  0  0  0  0  0
   64.4128   32.3407   47.3570 H   0  0  0  0  0  0  0  0  0  0  0  0
   63.7427   34.5474   46.3604 H   0  0  0  0  0  0  0  0  0  0  0  0
   61.3394   35.0214   46.0163 H   0  0  0  0  0  0  0  0  0  0  0  0
   58.5650   32.8314   47.0441 H   0  0  0  0  0  0  0  0  0  0  0  0
   59.0525   34.5484   46.9283 H   0  0  0  0  0  0  0  0  0  0  0  0
   58.5552   33.4065   42.5825 H   0  0  0  0  0  0  0  0  0  0  0  0
   57.3016   31.5545   41.4629 H   0  0  0  0  0  0  0  0  0  0  0  0
   56.4155   29.6749   42.8021 H   0  0  0  0  0  0  0  0  0  0  0  0
   55.7270   29.5260   45.9970 H   0  0  0  0  0  0  0  0  0  0  0  0
   55.7710   27.4040   47.0300 H   0  0  0  0  0  0  0  0  0  0  0  0
   58.4601   26.1626   46.6757 H   0  0  0  0  0  0  0  0  0  0  0  0
   57.0570   25.5192   47.7289 H   0  0  0  0  0  0  0  0  0  0  0  0
   56.3054   24.1966   46.2115 H   0  0  0  0  0  0  0  0  0  0  0  0
   56.8832   25.2671   44.8431 H   0  0  0  0  0  0  0  0  0  0  0  0
   57.1862   22.0757   45.0503 H   0  0  0  0  0  0  0  0  0  0  0  0
   59.5090   21.0410   44.7410 H   0  0  0  0  0  0  0  0  0  0  0  0
   61.2800   22.7930   45.2420 H   0  0  0  0  0  0  0  0  0  0  0  0
   59.7750   26.1190   45.7750 H   0  0  0  0  0  0  0  0  0  0  0  0
   57.9948   31.4352   46.3527 H   0  0  0  0  0  0  0  0  0  0  0  0
  1  2  1  0
  2  3  2  0
  3  4  1  0
  4  5  2  0
  5  6  1  0
  6  7  2  0
  7  8  1  0
  8  9  1  0
  9 10  1  0
 10 11  2  0
 11 12  1  0
 12 13  2  0
 13 14  1  0
 14 15  1  0
 15 16  1  0
 16 17  2  0
 16 18  1  0
 18 19  1  0
 19 20  1  0
 20 21  1  0
 21 22  2  0
 22 23  1  0
 23 24  1  0
 24 25  1  0
 25 26  2  3
 14 27  2  0
  7  2  1  0
 27 10  1  0
 25 21  1  0
  1 28  1  0
  1 29  1  0
  1 30  1  0
  3 31  1  0
  4 32  1  0
  5 33  1  0
  6 34  1  0
  8 35  1  0
  8 36  1  0
 11 37  1  0
 12 38  1  0
 13 39  1  0
 15 40  1  0
 18 41  1  0
 19 42  1  0
 19 43  1  0
 20 44  1  0
 20 45  1  0
 22 46  1  0
 23 47  1  0
 24 48  1  0
 26 49  1  0
 27 50  1  0
M  END
>  <smiles>  (45) 
Cc1ccccc1COc1cccc(NC(=O)NCCc2c[nH][nH]c2=N)c1

>  <score_type>  (45) 
oracle

>  <origin>  (45) 
adg

>  <m_score__min__energy>  (45) 
-9.1600000000000001

>  <m_primary>  (45) 
energy

$$$$
45:0
     RDKit          3D

 47 49  0  0  0  0  0  0  0  0999 V2000
   56.4020   30.8810   44.7490 O   0  0  0  0  0  0  0  0  0  0  0  0
   56.2930   29.6560   44.4780 C   0  0  0  0  0  0  0  0  0  0  0  0
   55.1530   28.9640   44.8700 O   0  0  0  0  0  0  0  0  0  0  0  0
   57.3790   28.9510   43.7310 C   0  0  0  0  0  0  0  0  0  0  0  0
   58.0480   27.9340   44.6070 C   0  0  0  0  0  0  0  0  0  0  0  0
   57.5060   26.7220   44.8680 N   0  0  0  0  0  0  0  0  0  0  0  0
   58.3350   26.1210   45.7080 N   0  0  0  0  0  0  0  0  0  0  0  0
   58.0980   24.8110   46.3040 C   0  0  0  0  0  0  0  0  0  0  0  0
   56.6390   24.3820   46.0580 C   0  0  0  0  0  0  0  0  0  0  0  0
   56.4680   23.3380   45.0240 N   0  0  0  0  0  0  0  0  0  0  0  0
   57.5090   22.2980   45.0350 C   0  0  0  0  0  0  0  0  0  0  0  0
   57.0940   21.1470   44.0950 C   0  0  0  0  0  0  0  0  0  0  0  0
   56.0120   21.4940   43.2450 O   0  0  0  0  0  0  0  0  0  0  0  0
   56.2610   22.7410   42.6250 C   0  0  0  0  0  0  0  0  0  0  0  0
   56.2570   23.8770   43.6670 C   0  0  0  0  0  0  0  0  0  0  0  0
   59.3450   26.9700   45.9710 C   0  0  0  0  0  0  0  0  0  0  0  0
   60.2890   26.7240   46.7700 O   0  0  0  0  0  0  0  0  0  0  0  0
   59.2070   28.1220   45.2890 N   0  0  0  0  0  0  0  0  0  0  0  0
   60.0840   29.2970   45.3250 C   0  0  0  0  0  0  0  0  0  0  0  0
   59.5030   30.3800   46.2020 C   0  0  0  0  0  0  0  0  0  0  0  0
   59.0260   31.5690   45.6240 C   0  0  0  0  0  0  0  0  0  0  0  0
   58.4920   32.5840   46.4250 C   0  0  0  0  0  0  0  0  0  0  0  0
   57.9130   34.0680   45.6900 Cl  0  0  0  0  0  0  0  0  0  0  0  0
   58.4220   32.4160   47.8090 C   0  0  0  0  0  0  0  0  0  0  0  0
   58.8790   31.2330   48.3950 C   0  0  0  0  0  0  0  0  0  0  0  0
   59.4150   30.2100   47.5990 C   0  0  0  0  0  0  0  0  0  0  0  0
   59.8560   29.0280   48.1930 O   0  0  0  0  0  0  0  0  0  0  0  0
   56.9459   28.4451   42.8555 H   0  0  0  0  0  0  0  0  0  0  0  0
   58.1275   29.6909   43.4113 H   0  0  0  0  0  0  0  0  0  0  0  0
   58.7768   24.0746   45.8491 H   0  0  0  0  0  0  0  0  0  0  0  0
   58.2827   24.8659   47.3870 H   0  0  0  0  0  0  0  0  0  0  0  0
   56.2307   23.9973   47.0042 H   0  0  0  0  0  0  0  0  0  0  0  0
   56.1107   25.2738   45.6897 H   0  0  0  0  0  0  0  0  0  0  0  0
   58.4610   22.7281   44.6904 H   0  0  0  0  0  0  0  0  0  0  0  0
   57.6310   21.9113   46.0575 H   0  0  0  0  0  0  0  0  0  0  0  0
   57.9577   20.8742   43.4709 H   0  0  0  0  0  0  0  0  0  0  0  0
   56.7643   20.3076   44.7249 H   0  0  0  0  0  0  0  0  0  0  0  0
   57.2426   22.7086   42.1297 H   0  0  0  0  0  0  0  0  0  0  0  0
   55.4681   22.9343   41.8875 H   0  0  0  0  0  0  0  0  0  0  0  0
   57.0632   24.5871   43.4307 H   0  0  0  0  0  0  0  0  0  0  0  0
   55.2815   24.3842   43.6347 H   0  0  0  0  0  0  0  0  0  0  0  0
   61.0660   29.0007   45.7224 H   0  0  0  0  0  0  0  0  0  0  0  0
   60.1843   29.6905   44.3027 H   0  0  0  0  0  0  0  0  0  0  0  0
   59.0729   31.7025   44.5331 H   0  0  0  0  0  0  0  0  0  0  0  0
   58.0064   33.2162   48.4391 H   0  0  0  0  0  0  0  0  0  0  0  0
   58.8182   31.1032   49.4856 H   0  0  0  0  0  0  0  0  0  0  0  0
   60.5510   28.4390   47.7510 H   0  0  0  0  0  0  0  0  0  0  0  0
  1  2  2  0
  2  3  1  0
  2  4  1  0
  4  5  1  0
  5  6  2  0
  6  7  1  0
  7  8  1  0
  8  9  1  0
  9 10  1  0
 10 11  1  0
 11 12  1  0
 12 13  1  0
 13 14  1  0
 14 15  1  0
  7 16  1  0
 16 17  2  0
 16 18  1  0
 18 19  1  0
 19 20  1  0
 20 21  2  0
 21 22  1  0
 22 23  1  0
 22 24  2  0
 24 25  1  0
 25 26  2  0
 26 27  1  0
 18  5  1  0
 26 20  1  0
 15 10  1  0
  4 28  1  0
  4 29  1  0
  8 30  1  0
  8 31  1  0
  9 32  1  0
  9 33  1  0
 11 34  1  0
 11 35  1  0
 12 36  1  0
 12 37  1  0
 14 38  1  0
 14 39  1  0
 15 40  1  0
 15 41  1  0
 19 42  1  0
 19 43  1  0
 21 44  1  0
 24 45  1  0
 25 46  1  0
 27 47  1  0
M  CHG  1   3  -1
M  END
>  <UniqueID>  (46) 
39

>  <SMILES>  (46) 
O=C([O-])Cc1nn(CCN2CCOCC2)c(=O)n1Cc1cc(Cl)ccc1O

>  <Energy>  (46) 
92.78503527471504

>  <Genealogy>  (46) 
O=C([O-])Cc1nn(CCN2CCOCC2)c(=O)n1Cc1cc(Cl)ccc1O (protonated)
O=C([O-])Cc1nn(CCN2CCOCC2)c(=O)n1Cc1cc(Cl)ccc1O (3D coordinates assigned)
O=C([O-])Cc1nn(CCN2CCOCC2)c(=O)n1Cc1cc(Cl)ccc1O (nonaromatic ring conformer: 92.78503527471504 kcal/mol)

>  <smiles>  (46) 
O=C(O)Cc1nn(CCN2CCOCC2)c(=O)n1Cc1cc(Cl)ccc1O

>  <score_type>  (46) 
oracle

>  <origin>  (46) 
adg

>  <m_score__min__energy>  (46) 
-10.85

>  <m_primary>  (46) 
energy

$$$$
46:0
     RDKit          3D

 44 47  0  0  0  0  0  0  0  0999 V2000
   57.4970   29.7320   43.9880 C   0  0  0  0  0  0  0  0  0  0  0  0
   57.9580   29.4560   45.2190 C   0  0  0  0  0  0  0  0  0  0  0  0
   58.0440   28.1890   45.8060 C   0  0  0  0  0  0  0  0  0  0  0  0
   57.7610   27.0030   45.2330 C   0  0  0  0  0  0  0  0  0  0  0  0
   57.1080   25.8830   45.9350 C   0  0  0  0  0  0  0  0  0  0  0  0
   57.7440   24.7430   46.2570 N   0  0  0  0  0  0  0  0  0  0  0  0
   56.7680   23.9800   46.7950 C   0  0  0  0  0  0  0  0  0  0  0  0
   56.9800   22.8210   47.2380 O   0  0  0  0  0  0  0  0  0  0  0  0
   55.5450   24.5520   46.8110 N   0  0  0  0  0  0  0  0  0  0  0  0
   55.7730   25.7520   46.2520 C   0  0  0  0  0  0  0  0  0  0  0  0
   54.7730   26.6810   45.9950 O   0  0  0  0  0  0  0  0  0  0  0  0
   58.5290   28.3870   47.0920 C   0  0  0  0  0  0  0  0  0  0  0  0
   58.7190   29.7470   47.2380 C   0  0  0  0  0  0  0  0  0  0  0  0
   59.2320   30.4040   48.4850 C   0  0  0  0  0  0  0  0  0  0  0  0
   58.3690   30.3980   46.1060 N   0  0  0  0  0  0  0  0  0  0  0  0
   58.4450   31.8200   45.8980 C   0  0  0  0  0  0  0  0  0  0  0  0
   57.4090   32.4960   45.2370 C   0  0  0  0  0  0  0  0  0  0  0  0
   57.4910   33.8750   45.0290 C   0  0  0  0  0  0  0  0  0  0  0  0
   58.6160   34.5840   45.4620 C   0  0  0  0  0  0  0  0  0  0  0  0
   59.6710   33.9180   46.0970 C   0  0  0  0  0  0  0  0  0  0  0  0
   60.7840   34.6600   46.5160 O   0  0  0  0  0  0  0  0  0  0  0  0
   61.8160   34.1770   47.3350 C   0  0  0  0  0  0  0  0  0  0  0  0
   61.7230   34.1960   48.7400 C   0  0  0  0  0  0  0  0  0  0  0  0
   62.7690   33.6960   49.5220 C   0  0  0  0  0  0  0  0  0  0  0  0
   63.9060   33.1610   48.9100 C   0  0  0  0  0  0  0  0  0  0  0  0
   63.9950   33.1200   47.5160 C   0  0  0  0  0  0  0  0  0  0  0  0
   62.9510   33.6210   46.7320 C   0  0  0  0  0  0  0  0  0  0  0  0
   59.5690   32.5350   46.3340 C   0  0  0  0  0  0  0  0  0  0  0  0
   57.4756   30.7715   43.6290 H   0  0  0  0  0  0  0  0  0  0  0  0
   57.1409   28.9185   43.3389 H   0  0  0  0  0  0  0  0  0  0  0  0
   58.0338   26.8616   44.1768 H   0  0  0  0  0  0  0  0  0  0  0  0
   58.7239   27.6115   47.8474 H   0  0  0  0  0  0  0  0  0  0  0  0
   58.8268   29.8850   49.3662 H   0  0  0  0  0  0  0  0  0  0  0  0
   60.3306   30.3516   48.5017 H   0  0  0  0  0  0  0  0  0  0  0  0
   58.9148   31.4571   48.5017 H   0  0  0  0  0  0  0  0  0  0  0  0
   56.5297   31.9389   44.8815 H   0  0  0  0  0  0  0  0  0  0  0  0
   56.6694   34.4040   44.5239 H   0  0  0  0  0  0  0  0  0  0  0  0
   58.6722   35.6710   45.3028 H   0  0  0  0  0  0  0  0  0  0  0  0
   60.8242   34.6057   49.2242 H   0  0  0  0  0  0  0  0  0  0  0  0
   62.6969   33.7238   50.6193 H   0  0  0  0  0  0  0  0  0  0  0  0
   64.7306   32.7723   49.5255 H   0  0  0  0  0  0  0  0  0  0  0  0
   64.8873   32.6931   47.0348 H   0  0  0  0  0  0  0  0  0  0  0  0
   63.0218   33.5781   45.6351 H   0  0  0  0  0  0  0  0  0  0  0  0
   60.3772   32.0110   46.8653 H   0  0  0  0  0  0  0  0  0  0  0  0
  1  2  2  0
  2  3  1  0
  3  4  2  3
  4  5  1  0
  5  6  1  0
  6  7  1  0
  7  8  2  0
  7  9  1  0
  9 10  1  0
 10 11  1  0
  3 12  1  0
 12 13  2  0
 13 14  1  0
 13 15  1  0
 15 16  1  0
 16 17  2  0
 17 18  1  0
 18 19  2  0
 19 20  1  0
 20 21  1  0
 21 22  1  0
 22 23  2  0
 23 24  1  0
 24 25  2  0
 25 26  1  0
 26 27  2  0
 20 28  2  0
 15  2  1  0
 28 16  1  0
 10  5  2  0
 27 22  1  0
  1 29  1  0
  1 30  1  0
  4 31  1  0
 12 32  1  0
 14 33  1  0
 14 34  1  0
 14 35  1  0
 17 36  1  0
 18 37  1  0
 19 38  1  0
 23 39  1  0
 24 40  1  0
 25 41  1  0
 26 42  1  0
 27 43  1  0
 28 44  1  0
M  CHG  3   6  -1   9  -1  11  -1
M  END
>  <UniqueID>  (47) 
40

>  <SMILES>  (47) 
C=c1c(=Cc2[n-]c(=O)[n-]c2[O-])cc(C)n1-c1cccc(Oc2ccccc2)c1

>  <Energy>  (47) 
125.11441849533504

>  <Genealogy>  (47) 
C=c1c(=Cc2[n-]c(=O)[n-]c2[O-])cc(C)n1-c1cccc(Oc2ccccc2)c1 (protonated)
C=c1c(=Cc2[n-]c(=O)[n-]c2[O-])cc(C)n1-c1cccc(Oc2ccccc2)c1 (3D coordinates assigned)
C=c1c(=Cc2[n-]c(=O)[n-]c2[O-])cc(C)n1-c1cccc(Oc2ccccc2)c1 (optimized conformer: 125.11441849533504 kcal/mol)

>  <smiles>  (47) 
C=c1c(=Cc2[nH]c(=O)[nH]c2O)cc(C)n1-c1cccc(Oc2ccccc2)c1

>  <score_type>  (47) 
oracle

>  <origin>  (47) 
adg

>  <m_score__min__energy>  (47) 
-16.73

>  <m_primary>  (47) 
energy

$$$$
47:0
     RDKit          3D

 66 69  0  0  0  0  0  0  0  0999 V2000
   58.9200   34.6450   47.0140 C   0  0  0  0  0  0  0  0  0  0  0  0
   58.3990   33.4470   46.2680 C   0  0  0  0  0  0  0  0  0  0  0  0
   57.8670   33.6060   44.9770 C   0  0  0  0  0  0  0  0  0  0  0  0
   57.3900   32.5020   44.2690 C   0  0  0  0  0  0  0  0  0  0  0  0
   57.4330   31.2250   44.8410 C   0  0  0  0  0  0  0  0  0  0  0  0
   56.8040   29.8260   43.9740 S   0  0  0  0  0  0  0  0  0  0  0  0
   56.7190   30.1220   42.5000 O   0  0  0  0  0  0  0  0  0  0  0  0
   55.4230   29.5250   44.4880 O   0  0  0  0  0  0  0  0  0  0  0  0
   57.8490   28.4520   44.2420 N   0  0  0  0  0  0  0  0  0  0  0  0
   57.3420   27.6020   45.3430 C   0  0  0  0  0  0  0  0  0  0  0  0
   58.1670   27.7700   46.6330 C   0  0  0  0  0  0  0  0  0  0  0  0
   59.5420   27.4600   46.4580 O   0  0  0  0  0  0  0  0  0  0  0  0
   60.0590   27.8380   45.1870 C   0  0  0  0  0  0  0  0  0  0  0  0
   59.2330   28.9140   44.4610 C   0  0  0  0  0  0  0  0  0  0  0  0
   57.9800   31.0560   46.1170 C   0  0  0  0  0  0  0  0  0  0  0  0
   58.4860   32.1570   46.8310 C   0  0  0  0  0  0  0  0  0  0  0  0
   59.0300   31.9970   48.1500 N   0  0  0  0  0  0  0  0  0  0  0  0
   59.5000   30.7710   48.7230 C   0  0  0  0  0  0  0  0  0  0  0  0
   58.6910   29.8530   49.0280 O   0  0  0  0  0  0  0  0  0  0  0  0
   60.9610   30.5760   48.9780 C   0  0  0  0  0  0  0  0  0  0  0  0
   61.2980   30.4140   50.7720 S   0  0  0  0  0  0  0  0  0  0  0  0
   59.7820   31.2450   51.3160 C   0  0  0  0  0  0  0  0  0  0  0  0
   58.6620   30.4810   51.4380 N   0  0  0  0  0  0  0  0  0  0  0  0
   57.4850   31.0120   51.8460 C   0  0  0  0  0  0  0  0  0  0  0  0
   56.4660   30.2790   51.9640 O   0  0  0  0  0  0  0  0  0  0  0  0
   57.4040   32.3630   52.1350 C   0  0  0  0  0  0  0  0  0  0  0  0
   58.5410   33.1630   51.9950 C   0  0  0  0  0  0  0  0  0  0  0  0
   58.4070   34.5630   52.2960 N   0  0  0  0  0  0  0  0  0  0  0  0
   59.7340   32.6030   51.5740 N   0  0  0  0  0  0  0  0  0  0  0  0
   60.9400   33.4370   51.3540 C   0  0  0  0  0  0  0  0  0  0  0  0
   60.8930   34.1970   50.0170 C   0  0  0  0  0  0  0  0  0  0  0  0
   61.9930   33.7920   49.0740 C   0  0  0  0  0  0  0  0  0  0  0  0
   63.2550   33.4210   49.5720 C   0  0  0  0  0  0  0  0  0  0  0  0
   64.2840   33.0710   48.6930 C   0  0  0  0  0  0  0  0  0  0  0  0
   64.0620   33.0880   47.3130 C   0  0  0  0  0  0  0  0  0  0  0  0
   62.8110   33.4550   46.8100 C   0  0  0  0  0  0  0  0  0  0  0  0
   61.7790   33.8060   47.6850 C   0  0  0  0  0  0  0  0  0  0  0  0
   58.8419   34.4654   48.0964 H   0  0  0  0  0  0  0  0  0  0  0  0
   59.9732   34.8146   46.7455 H   0  0  0  0  0  0  0  0  0  0  0  0
   58.3259   35.5310   46.7455 H   0  0  0  0  0  0  0  0  0  0  0  0
   57.8263   34.6066   44.5218 H   0  0  0  0  0  0  0  0  0  0  0  0
   56.9787   32.6357   43.2576 H   0  0  0  0  0  0  0  0  0  0  0  0
   56.2977   27.8776   45.5516 H   0  0  0  0  0  0  0  0  0  0  0  0
   57.4222   26.5522   45.0244 H   0  0  0  0  0  0  0  0  0  0  0  0
   58.0833   28.8141   46.9689 H   0  0  0  0  0  0  0  0  0  0  0  0
   57.7633   27.0656   47.3752 H   0  0  0  0  0  0  0  0  0  0  0  0
   61.0783   28.2255   45.3313 H   0  0  0  0  0  0  0  0  0  0  0  0
   60.0286   26.9383   44.5548 H   0  0  0  0  0  0  0  0  0  0  0  0
   59.2156   29.8286   45.0718 H   0  0  0  0  0  0  0  0  0  0  0  0
   59.6966   29.1152   43.4840 H   0  0  0  0  0  0  0  0  0  0  0  0
   58.0148   30.0526   46.5664 H   0  0  0  0  0  0  0  0  0  0  0  0
   61.2971   29.6629   48.4649 H   0  0  0  0  0  0  0  0  0  0  0  0
   61.5037   31.4537   48.5971 H   0  0  0  0  0  0  0  0  0  0  0  0
   58.7080   29.4600   51.2170 H   0  0  0  0  0  0  0  0  0  0  0  0
   56.4536   32.8028   52.4717 H   0  0  0  0  0  0  0  0  0  0  0  0
   58.2040   35.2450   51.5320 H   0  0  0  0  0  0  0  0  0  0  0  0
   58.4400   34.9550   53.2580 H   0  0  0  0  0  0  0  0  0  0  0  0
   61.0183   34.1674   52.1727 H   0  0  0  0  0  0  0  0  0  0  0  0
   61.8111   32.7658   51.3272 H   0  0  0  0  0  0  0  0  0  0  0  0
   59.9252   33.9974   49.5337 H   0  0  0  0  0  0  0  0  0  0  0  0
   61.0266   35.2658   50.2402 H   0  0  0  0  0  0  0  0  0  0  0  0
   63.4329   33.4062   50.6574 H   0  0  0  0  0  0  0  0  0  0  0  0
   65.2693   32.7820   49.0876 H   0  0  0  0  0  0  0  0  0  0  0  0
   64.8727   32.8123   46.6225 H   0  0  0  0  0  0  0  0  0  0  0  0
   62.6381   33.4677   45.7237 H   0  0  0  0  0  0  0  0  0  0  0  0
   60.7957   34.0943   47.2850 H   0  0  0  0  0  0  0  0  0  0  0  0
  1  2  1  0
  2  3  2  0
  3  4  1  0
  4  5  2  0
  5  6  1  0
  6  7  2  0
  6  8  2  0
  6  9  1  0
  9 10  1  0
 10 11  1  0
 11 12  1  0
 12 13  1  0
 13 14  1  0
  5 15  1  0
 15 16  2  0
 16 17  1  0
 17 18  1  0
 18 19  2  0
 18 20  1  0
 20 21  1  0
 21 22  1  0
 22 23  2  0
 23 24  1  0
 24 25  2  0
 24 26  1  0
 26 27  2  0
 27 28  1  0
 27 29  1  0
 29 30  1  0
 30 31  1  0
 31 32  1  0
 32 33  2  0
 33 34  1  0
 34 35  2  0
 35 36  1  0
 36 37  2  0
 16  2  1  0
 29 22  1  0
 37 32  1  0
 14  9  1  0
  1 38  1  0
  1 39  1  0
  1 40  1  0
  3 41  1  0
  4 42  1  0
 10 43  1  0
 10 44  1  0
 11 45  1  0
 11 46  1  0
 13 47  1  0
 13 48  1  0
 14 49  1  0
 14 50  1  0
 15 51  1  0
 20 52  1  0
 20 53  1  0
 23 54  1  0
 26 55  1  0
 28 56  1  0
 28 57  1  0
 30 58  1  0
 30 59  1  0
 31 60  1  0
 31 61  1  0
 33 62  1  0
 34 63  1  0
 35 64  1  0
 36 65  1  0
 37 66  1  0
M  CHG  2  17  -1  23   1
M  END
>  <UniqueID>  (48) 
41

>  <SMILES>  (48) 
Cc1ccc(S(=O)(=O)N2CCOCC2)cc1[N-]C(=O)CSc1[nH+]c(=O)cc(N)n1CCc1ccccc1

>  <Energy>  (48) 
84.77036547876284

>  <Genealogy>  (48) 
Cc1ccc(S(=O)(=O)N2CCOCC2)cc1[N-]C(=O)CSc1[nH+]c(=O)cc(N)n1CCc1ccccc1 (protonated)
Cc1ccc(S(=O)(=O)N2CCOCC2)cc1[N-]C(=O)CSc1[nH+]c(=O)cc(N)n1CCc1ccccc1 (3D coordinates assigned)
Cc1ccc(S(=O)(=O)N2CCOCC2)cc1[N-]C(=O)CSc1[nH+]c(=O)cc(N)n1CCc1ccccc1 (nonaromatic ring conformer: 84.77036547876284 kcal/mol)

>  <smiles>  (48) 
Cc1ccc(S(=O)(=O)N2CCOCC2)cc1NC(=O)CSc1nc(=O)cc(N)n1CCc1ccccc1

>  <score_type>  (48) 
oracle

>  <origin>  (48) 
adg

>  <m_score__min__energy>  (48) 
-10

>  <m_primary>  (48) 
energy

$$$$
48:0
     RDKit          3D

 42 44  0  0  0  0  0  0  0  0999 V2000
   59.2330   28.7200   45.3800 O   0  0  0  0  0  0  0  0  0  0  0  0
   59.1130   28.8200   46.6310 C   0  0  0  0  0  0  0  0  0  0  0  0
   58.1780   27.9930   47.3280 N   0  0  0  0  0  0  0  0  0  0  0  0
   57.6390   26.7620   46.7640 C   0  0  0  0  0  0  0  0  0  0  0  0
   56.9050   27.0540   45.4480 C   0  0  0  0  0  0  0  0  0  0  0  0
   56.5040   28.4670   45.3130 N   0  0  0  0  0  0  0  0  0  0  0  0
   56.6420   28.9670   43.9390 C   0  0  0  0  0  0  0  0  0  0  0  0
   57.1630   30.3700   43.9460 C   0  0  0  0  0  0  0  0  0  0  0  0
   57.2630   31.2010   42.8480 C   0  0  0  0  0  0  0  0  0  0  0  0
   57.7850   32.3850   43.3230 C   0  0  0  0  0  0  0  0  0  0  0  0
   57.9700   32.2020   44.6850 C   0  0  0  0  0  0  0  0  0  0  0  0
   58.5030   33.1870   45.6540 C   0  0  0  0  0  0  0  0  0  0  0  0
   59.1260   34.3760   45.2290 C   0  0  0  0  0  0  0  0  0  0  0  0
   59.6240   35.2880   46.1650 C   0  0  0  0  0  0  0  0  0  0  0  0
   59.5070   35.0260   47.5310 C   0  0  0  0  0  0  0  0  0  0  0  0
   58.8910   33.8500   47.9650 C   0  0  0  0  0  0  0  0  0  0  0  0
   58.3920   32.9340   47.0340 C   0  0  0  0  0  0  0  0  0  0  0  0
   57.5880   30.9880   45.0220 O   0  0  0  0  0  0  0  0  0  0  0  0
   59.9280   29.7910   47.3830 C   0  0  0  0  0  0  0  0  0  0  0  0
   59.7000   30.0320   48.7490 C   0  0  0  0  0  0  0  0  0  0  0  0
   60.5000   30.9570   49.4260 C   0  0  0  0  0  0  0  0  0  0  0  0
   61.5120   31.6320   48.7430 C   0  0  0  0  0  0  0  0  0  0  0  0
   61.7100   31.3720   47.3860 C   0  0  0  0  0  0  0  0  0  0  0  0
   60.9230   30.4670   46.7440 N   0  0  0  0  0  0  0  0  0  0  0  0
   58.4636   26.0600   46.5712 H   0  0  0  0  0  0  0  0  0  0  0  0
   56.9284   26.3224   47.4794 H   0  0  0  0  0  0  0  0  0  0  0  0
   57.5707   26.7970   44.6109 H   0  0  0  0  0  0  0  0  0  0  0  0
   55.9862   26.4493   45.4425 H   0  0  0  0  0  0  0  0  0  0  0  0
   57.0800   29.0650   45.9490 H   0  0  0  0  0  0  0  0  0  0  0  0
   57.3423   28.3227   43.3871 H   0  0  0  0  0  0  0  0  0  0  0  0
   55.6552   28.9545   43.4532 H   0  0  0  0  0  0  0  0  0  0  0  0
   56.9841   30.9669   41.8100 H   0  0  0  0  0  0  0  0  0  0  0  0
   58.0092   33.2906   42.7403 H   0  0  0  0  0  0  0  0  0  0  0  0
   59.2216   34.5889   44.1540 H   0  0  0  0  0  0  0  0  0  0  0  0
   60.1092   36.2143   45.8238 H   0  0  0  0  0  0  0  0  0  0  0  0
   59.8996   35.7451   48.2650 H   0  0  0  0  0  0  0  0  0  0  0  0
   58.7983   33.6440   49.0416 H   0  0  0  0  0  0  0  0  0  0  0  0
   57.9093   32.0091   47.3826 H   0  0  0  0  0  0  0  0  0  0  0  0
   58.8990   29.4973   49.2806 H   0  0  0  0  0  0  0  0  0  0  0  0
   60.3319   31.1523   50.4954 H   0  0  0  0  0  0  0  0  0  0  0  0
   62.1468   32.3610   49.2680 H   0  0  0  0  0  0  0  0  0  0  0  0
   62.5030   31.8993   46.8353 H   0  0  0  0  0  0  0  0  0  0  0  0
  1  2  2  0
  2  3  1  0
  3  4  1  0
  4  5  1  0
  5  6  1  0
  6  7  1  0
  7  8  1  0
  8  9  2  0
  9 10  1  0
 10 11  2  0
 11 12  1  0
 12 13  2  0
 13 14  1  0
 14 15  2  0
 15 16  1  0
 16 17  2  0
 11 18  1  0
  2 19  1  0
 19 20  2  0
 20 21  1  0
 21 22  2  0
 22 23  1  0
 23 24  2  0
 18  8  1  0
 24 19  1  0
 17 12  1  0
  4 25  1  0
  4 26  1  0
  5 27  1  0
  5 28  1  0
  6 29  1  0
  7 30  1  0
  7 31  1  0
  9 32  1  0
 10 33  1  0
 13 34  1  0
 14 35  1  0
 15 36  1  0
 16 37  1  0
 17 38  1  0
 20 39  1  0
 21 40  1  0
 22 41  1  0
 23 42  1  0
M  CHG  1   3  -1
M  END
>  <UniqueID>  (49) 
42

>  <SMILES>  (49) 
O=C([N-]CCNCc1ccc(-c2ccccc2)o1)c1ccccn1

>  <Energy>  (49) 
68.43600912456309

>  <Genealogy>  (49) 
O=C([N-]CCNCc1ccc(-c2ccccc2)o1)c1ccccn1 (protonated)
O=C([N-]CCNCc1ccc(-c2ccccc2)o1)c1ccccn1 (3D coordinates assigned)
O=C([N-]CCNCc1ccc(-c2ccccc2)o1)c1ccccn1 (optimized conformer: 68.43600912456309 kcal/mol)

>  <smiles>  (49) 
O=C(NCCNCc1ccc(-c2ccccc2)o1)c1ccccn1

>  <score_type>  (49) 
oracle

>  <origin>  (49) 
adg

>  <m_score__min__energy>  (49) 
-11.59

>  <m_primary>  (49) 
energy

$$$$
49:0
     RDKit          3D

 61 63  0  0  0  0  0  0  0  0999 V2000
   57.4110   21.4720   43.0360 C   0  0  0  0  0  0  0  0  0  0  0  0
   56.9110   22.6240   43.9290 C   0  0  0  0  0  0  0  0  0  0  0  0
   55.9300   23.4880   43.1210 C   0  0  0  0  0  0  0  0  0  0  0  0
   56.1840   22.0740   45.1710 C   0  0  0  0  0  0  0  0  0  0  0  0
   58.0020   23.4720   44.3170 O   0  0  0  0  0  0  0  0  0  0  0  0
   58.7320   23.3910   45.5120 C   0  0  0  0  0  0  0  0  0  0  0  0
   59.9080   22.9350   45.5290 O   0  0  0  0  0  0  0  0  0  0  0  0
   58.1170   23.8360   46.7230 N   0  0  0  0  0  0  0  0  0  0  0  0
   57.3620   25.0800   46.8360 C   0  0  0  0  0  0  0  0  0  0  0  0
   58.1570   26.2330   46.2820 C   0  0  0  0  0  0  0  0  0  0  0  0
   59.4800   26.4530   46.6950 C   0  0  0  0  0  0  0  0  0  0  0  0
   60.2120   27.5220   46.1720 C   0  0  0  0  0  0  0  0  0  0  0  0
   59.6330   28.3760   45.2290 C   0  0  0  0  0  0  0  0  0  0  0  0
   58.3130   28.1650   44.7990 C   0  0  0  0  0  0  0  0  0  0  0  0
   57.6820   29.0980   43.7960 C   0  0  0  0  0  0  0  0  0  0  0  0
   58.0880   30.4790   44.0520 N   0  0  0  0  0  0  0  0  0  0  0  0
   57.1950   31.4380   44.6390 C   0  0  0  0  0  0  0  0  0  0  0  0
   55.9720   31.1590   44.7640 O   0  0  0  0  0  0  0  0  0  0  0  0
   57.6910   32.6840   45.1600 N   0  0  0  0  0  0  0  0  0  0  0  0
   57.1640   33.1720   46.4430 C   0  0  0  0  0  0  0  0  0  0  0  0
   58.1070   34.2090   47.0700 C   0  0  0  0  0  0  0  0  0  0  0  0
   59.5010   33.7810   46.8840 N   0  0  0  0  0  0  0  0  0  0  0  0
   60.2660   33.3350   48.0200 C   0  0  0  0  0  0  0  0  0  0  0  0
   59.6880   32.7280   48.9620 O   0  0  0  0  0  0  0  0  0  0  0  0
   61.7200   33.5470   48.1060 C   0  0  0  0  0  0  0  0  0  0  0  0
   62.4750   33.6350   49.2610 C   0  0  0  0  0  0  0  0  0  0  0  0
   63.7750   33.8100   48.8410 C   0  0  0  0  0  0  0  0  0  0  0  0
   63.7370   33.8130   47.4610 C   0  0  0  0  0  0  0  0  0  0  0  0
   62.4990   33.6510   47.0540 O   0  0  0  0  0  0  0  0  0  0  0  0
   59.9800   33.4720   45.5240 C   0  0  0  0  0  0  0  0  0  0  0  0
   58.8150   33.3900   44.5300 C   0  0  0  0  0  0  0  0  0  0  0  0
   57.5750   27.0990   45.3430 C   0  0  0  0  0  0  0  0  0  0  0  0
   57.7693   20.6466   43.6687 H   0  0  0  0  0  0  0  0  0  0  0  0
   56.5864   21.1160   42.4009 H   0  0  0  0  0  0  0  0  0  0  0  0
   58.2342   21.8311   42.4009 H   0  0  0  0  0  0  0  0  0  0  0  0
   55.2867   24.0545   43.8104 H   0  0  0  0  0  0  0  0  0  0  0  0
   56.4942   24.1880   42.4871 H   0  0  0  0  0  0  0  0  0  0  0  0
   55.3069   22.8399   42.4871 H   0  0  0  0  0  0  0  0  0  0  0  0
   56.6777   22.4475   46.0802 H   0  0  0  0  0  0  0  0  0  0  0  0
   55.1357   22.4072   45.1598 H   0  0  0  0  0  0  0  0  0  0  0  0
   56.2195   20.9746   45.1598 H   0  0  0  0  0  0  0  0  0  0  0  0
   56.4219   24.9851   46.2728 H   0  0  0  0  0  0  0  0  0  0  0  0
   57.1506   25.2721   47.8983 H   0  0  0  0  0  0  0  0  0  0  0  0
   59.9425   25.7813   47.4332 H   0  0  0  0  0  0  0  0  0  0  0  0
   61.2470   27.6921   46.5033 H   0  0  0  0  0  0  0  0  0  0  0  0
   60.2138   29.2169   44.8220 H   0  0  0  0  0  0  0  0  0  0  0  0
   58.0004   28.8093   42.7834 H   0  0  0  0  0  0  0  0  0  0  0  0
   56.5879   29.0275   43.8852 H   0  0  0  0  0  0  0  0  0  0  0  0
   59.1000   30.7090   43.9420 H   0  0  0  0  0  0  0  0  0  0  0  0
   56.1810   33.6360   46.2744 H   0  0  0  0  0  0  0  0  0  0  0  0
   57.0760   32.3187   47.1316 H   0  0  0  0  0  0  0  0  0  0  0  0
   57.9550   35.1839   46.5837 H   0  0  0  0  0  0  0  0  0  0  0  0
   57.8914   34.2973   48.1450 H   0  0  0  0  0  0  0  0  0  0  0  0
   62.1131   33.5773   50.2982 H   0  0  0  0  0  0  0  0  0  0  0  0
   64.6649   33.9244   49.4774 H   0  0  0  0  0  0  0  0  0  0  0  0
   64.6103   33.9328   46.8029 H   0  0  0  0  0  0  0  0  0  0  0  0
   60.6732   34.2622   45.1997 H   0  0  0  0  0  0  0  0  0  0  0  0
   60.4870   32.4961   45.5471 H   0  0  0  0  0  0  0  0  0  0  0  0
   58.4999   34.4055   44.2479 H   0  0  0  0  0  0  0  0  0  0  0  0
   59.1353   32.8455   43.6295 H   0  0  0  0  0  0  0  0  0  0  0  0
   56.5322   26.9422   45.0299 H   0  0  0  0  0  0  0  0  0  0  0  0
  1  2  1  0
  2  3  1  0
  2  4  1  0
  2  5  1  0
  5  6  1  0
  6  7  2  0
  6  8  1  0
  8  9  1  0
  9 10  1  0
 10 11  2  0
 11 12  1  0
 12 13  2  0
 13 14  1  0
 14 15  1  0
 15 16  1  0
 16 17  1  0
 17 18  2  0
 17 19  1  0
 19 20  1  0
 20 21  1  0
 21 22  1  0
 22 23  1  0
 23 24  2  0
 23 25  1  0
 25 26  2  0
 26 27  1  0
 27 28  2  0
 28 29  1  0
 22 30  1  0
 30 31  1  0
 14 32  2  0
 32 10  1  0
 31 19  1  0
 29 25  1  0
  1 33  1  0
  1 34  1  0
  1 35  1  0
  3 36  1  0
  3 37  1  0
  3 38  1  0
  4 39  1  0
  4 40  1  0
  4 41  1  0
  9 42  1  0
  9 43  1  0
 11 44  1  0
 12 45  1  0
 13 46  1  0
 15 47  1  0
 15 48  1  0
 16 49  1  0
 20 50  1  0
 20 51  1  0
 21 52  1  0
 21 53  1  0
 26 54  1  0
 27 55  1  0
 28 56  1  0
 30 57  1  0
 30 58  1  0
 31 59  1  0
 31 60  1  0
 32 61  1  0
M  CHG  1   8  -1
M  END
>  <UniqueID>  (50) 
43

>  <SMILES>  (50) 
CC(C)(C)OC(=O)[N-]Cc1cccc(CNC(=O)N2CCN(C(=O)c3ccco3)CC2)c1

>  <Energy>  (50) 
85.10278320801741

>  <Genealogy>  (50) 
CC(C)(C)OC(=O)[N-]Cc1cccc(CNC(=O)N2CCN(C(=O)c3ccco3)CC2)c1 (protonated)
CC(C)(C)OC(=O)[N-]Cc1cccc(CNC(=O)N2CCN(C(=O)c3ccco3)CC2)c1 (3D coordinates assigned)
CC(C)(C)OC(=O)[N-]Cc1cccc(CNC(=O)N2CCN(C(=O)c3ccco3)CC2)c1 (nonaromatic ring conformer: 85.10278320801741 kcal/mol)

>  <smiles>  (50) 
CC(C)(C)OC(=O)NCc1cccc(CNC(=O)N2CCN(C(=O)c3ccco3)CC2)c1

>  <score_type>  (50) 
oracle

>  <origin>  (50) 
adg

>  <m_score__min__energy>  (50) 
-10.640000000000001

>  <m_primary>  (50) 
energy

$$$$
50:0
     RDKit          3D

 38 40  0  0  0  0  0  0  0  0999 V2000
   59.0040   27.9213   42.8250 H   0  0  0  0  0  0  0  0  0  0  0  0
   58.3470   27.0830   43.1000 C   0  0  0  0  0  0  0  0  0  0  0  0
   57.6859   26.6318   42.3454 H   0  0  0  0  0  0  0  0  0  0  0  0
   58.3520   26.6100   44.3580 C   0  0  0  0  0  0  0  0  0  0  0  0
   57.5680   25.5530   44.8350 C   0  0  0  0  0  0  0  0  0  0  0  0
   56.6490   24.8390   44.1550 C   0  0  0  0  0  0  0  0  0  0  0  0
   56.7957   24.6952   43.0743 H   0  0  0  0  0  0  0  0  0  0  0  0
   55.4520   24.2380   44.7870 C   0  0  0  0  0  0  0  0  0  0  0  0
   54.5870   24.9950   45.5940 C   0  0  0  0  0  0  0  0  0  0  0  0
   54.8270   26.3450   45.8270 O   0  0  0  0  0  0  0  0  0  0  0  0
   53.5110   24.4040   46.1750 N   0  0  0  0  0  0  0  0  0  0  0  0
   53.2610   23.0800   46.0040 C   0  0  0  0  0  0  0  0  0  0  0  0
   51.9600   22.3980   46.7150 S   0  0  0  0  0  0  0  0  0  0  0  0
   54.0990   22.3210   45.2530 N   0  0  0  0  0  0  0  0  0  0  0  0
   55.1870   22.8660   44.6500 C   0  0  0  0  0  0  0  0  0  0  0  0
   55.9460   22.1310   43.9620 O   0  0  0  0  0  0  0  0  0  0  0  0
   57.8800   25.4100   46.1770 C   0  0  0  0  0  0  0  0  0  0  0  0
   57.4465   24.6811   46.8775 H   0  0  0  0  0  0  0  0  0  0  0  0
   58.8390   26.3580   46.4650 C   0  0  0  0  0  0  0  0  0  0  0  0
   59.4080   26.5880   47.8330 C   0  0  0  0  0  0  0  0  0  0  0  0
   58.6699   26.2896   48.5920 H   0  0  0  0  0  0  0  0  0  0  0  0
   60.3224   25.9889   47.9553 H   0  0  0  0  0  0  0  0  0  0  0  0
   59.6492   27.6542   47.9553 H   0  0  0  0  0  0  0  0  0  0  0  0
   59.1310   27.0930   45.3640 N   0  0  0  0  0  0  0  0  0  0  0  0
   60.0660   28.2300   45.3250 C   0  0  0  0  0  0  0  0  0  0  0  0
   60.8310   28.0955   46.1039 H   0  0  0  0  0  0  0  0  0  0  0  0
   60.5362   28.2676   44.3312 H   0  0  0  0  0  0  0  0  0  0  0  0
   59.3370   29.5270   45.5660 C   0  0  0  0  0  0  0  0  0  0  0  0
   59.8990   30.5170   46.3900 C   0  0  0  0  0  0  0  0  0  0  0  0
   60.8815   30.3492   46.8553 H   0  0  0  0  0  0  0  0  0  0  0  0
   59.2150   31.7140   46.6210 C   0  0  0  0  0  0  0  0  0  0  0  0
   59.6591   32.4844   47.2684 H   0  0  0  0  0  0  0  0  0  0  0  0
   57.9670   31.9330   46.0300 C   0  0  0  0  0  0  0  0  0  0  0  0
   57.4295   32.8750   46.2138 H   0  0  0  0  0  0  0  0  0  0  0  0
   57.4020   30.9560   45.2060 C   0  0  0  0  0  0  0  0  0  0  0  0
   56.1630   31.1750   44.6180 O   0  0  0  0  0  0  0  0  0  0  0  0
   58.0850   29.7580   44.9730 C   0  0  0  0  0  0  0  0  0  0  0  0
   57.6390   28.9921   44.3214 H   0  0  0  0  0  0  0  0  0  0  0  0
  1  2  1  0
  2  3  1  0
  2  4  2  0
  4  5  1  0
  5  6  2  0
  6  7  1  0
  6  8  1  0
  8  9  2  0
  9 10  1  0
  9 11  1  0
 11 12  1  0
 12 13  2  0
 12 14  1  0
 14 15  1  0
 15 16  2  0
  5 17  1  0
 17 18  1  0
 17 19  2  0
 19 20  1  0
 20 21  1  0
 20 22  1  0
 20 23  1  0
 19 24  1  0
 24 25  1  0
 25 26  1  0
 25 27  1  0
 25 28  1  0
 28 29  2  0
 29 30  1  0
 29 31  1  0
 31 32  1  0
 31 33  2  0
 33 34  1  0
 33 35  1  0
 35 36  1  0
 35 37  2  0
 37 38  1  0
 24  4  1  0
 37 28  1  0
 15  8  1  0
M  CHG  4  10  -1  11  -1  14  -1  36  -1
M  END
>  <UniqueID>  (51) 
44

>  <SMILES>  (51) 
C=c1/c(=C/c2c([O-])[n-]c(=S)[n-]c2=O)cc(C)n1Cc1cccc([O-])c1

>  <Energy>  (51) 
78.83461170709104

>  <Genealogy>  (51) 
C=c1c(=Cc2c([O-])[n-]c(=S)[n-]c2=O)cc(C)n1Cc1cccc([O-])c1 (protonated)
C=c1/c(=C/c2c([O-])[n-]c(=S)[n-]c2=O)cc(C)n1Cc1cccc([O-])c1 (cis-trans isomerization)
C=c1/c(=C/c2c([O-])[n-]c(=S)[n-]c2=O)cc(C)n1Cc1cccc([O-])c1 (3D coordinates assigned)
C=c1/c(=C/c2c([O-])[n-]c(=S)[n-]c2=O)cc(C)n1Cc1cccc([O-])c1 (optimized conformer: 78.83461170709104 kcal/mol)

>  <smiles>  (51) 
C=c1c(=Cc2c(O)[nH]c(=S)[nH]c2=O)cc(C)n1Cc1cccc(O)c1

>  <score_type>  (51) 
oracle

>  <origin>  (51) 
adg

>  <m_score__min__energy>  (51) 
-17.120000000000001

>  <m_primary>  (51) 
energy

$$$$
51:0
     RDKit          3D

 30 32  0  0  0  0  0  0  0  0999 V2000
   54.4290   31.1660   51.1580 O   0  0  0  0  0  0  0  0  0  0  0  0
   53.9140   30.3720   51.9900 C   0  0  0  0  0  0  0  0  0  0  0  0
   52.4370   30.3960   52.2130 C   0  0  0  0  0  0  0  0  0  0  0  0
   51.7370   30.8180   50.9580 C   0  0  0  0  0  0  0  0  0  0  0  0
   51.6750   30.0690   49.8410 N   0  0  0  0  0  0  0  0  0  0  0  0
   51.0100   30.8630   48.9720 C   0  0  0  0  0  0  0  0  0  0  0  0
   50.7460   30.5060   47.7950 O   0  0  0  0  0  0  0  0  0  0  0  0
   50.6580   32.0710   49.4640 N   0  0  0  0  0  0  0  0  0  0  0  0
   51.1320   32.0280   50.7190 C   0  0  0  0  0  0  0  0  0  0  0  0
   51.0180   33.0740   51.6270 O   0  0  0  0  0  0  0  0  0  0  0  0
   54.7180   29.4190   52.7030 N   0  0  0  0  0  0  0  0  0  0  0  0
   56.0060   29.4730   52.8610 C   0  0  0  0  0  0  0  0  0  0  0  0
   56.8850   29.7560   51.8750 N   0  0  0  0  0  0  0  0  0  0  0  0
   58.1730   29.7430   52.3210 C   0  0  0  0  0  0  0  0  0  0  0  0
   59.3100   30.0120   51.4040 C   0  0  0  0  0  0  0  0  0  0  0  0
   59.1170   30.8190   50.2650 C   0  0  0  0  0  0  0  0  0  0  0  0
   60.1780   31.0900   49.3940 C   0  0  0  0  0  0  0  0  0  0  0  0
   61.4450   30.5620   49.6500 C   0  0  0  0  0  0  0  0  0  0  0  0
   62.4730   30.8280   48.8070 F   0  0  0  0  0  0  0  0  0  0  0  0
   61.6540   29.7630   50.7760 C   0  0  0  0  0  0  0  0  0  0  0  0
   60.5950   29.4890   51.6510 C   0  0  0  0  0  0  0  0  0  0  0  0
   58.3080   29.4400   53.6800 C   0  0  0  0  0  0  0  0  0  0  0  0
   56.7730   29.1890   54.3240 S   0  0  0  0  0  0  0  0  0  0  0  0
   52.0955   29.3906   52.5003 H   0  0  0  0  0  0  0  0  0  0  0  0
   52.2042   31.1120   53.0149 H   0  0  0  0  0  0  0  0  0  0  0  0
   58.1220   31.2402   50.0585 H   0  0  0  0  0  0  0  0  0  0  0  0
   60.0138   31.7195   48.5070 H   0  0  0  0  0  0  0  0  0  0  0  0
   62.6527   29.3477   50.9764 H   0  0  0  0  0  0  0  0  0  0  0  0
   60.7677   28.8610   52.5374 H   0  0  0  0  0  0  0  0  0  0  0  0
   59.2563   29.3765   54.2339 H   0  0  0  0  0  0  0  0  0  0  0  0
  1  2  2  0
  2  3  1  0
  3  4  1  0
  4  5  1  0
  5  6  1  0
  6  7  2  0
  6  8  1  0
  8  9  1  0
  9 10  1  0
  2 11  1  0
 11 12  2  3
 12 13  1  0
 13 14  1  0
 14 15  1  0
 15 16  2  0
 16 17  1  0
 17 18  2  0
 18 19  1  0
 18 20  1  0
 20 21  2  0
 14 22  2  0
 22 23  1  0
  9  4  2  0
 23 12  1  0
 21 15  1  0
  3 24  1  0
  3 25  1  0
 16 26  1  0
 17 27  1  0
 20 28  1  0
 21 29  1  0
 22 30  1  0
M  CHG  4   5  -1   8  -1  10  -1  13  -1
M  END
>  <UniqueID>  (52) 
45

>  <SMILES>  (52) 
O=C(Cc1[n-]c(=O)[n-]c1[O-])N=c1[n-]c(-c2ccc(F)cc2)cs1

>  <Energy>  (52) 
93.82858357986835

>  <Genealogy>  (52) 
O=C(Cc1[n-]c(=O)[n-]c1[O-])N=c1[n-]c(-c2ccc(F)cc2)cs1 (protonated)
O=C(Cc1[n-]c(=O)[n-]c1[O-])N=c1[n-]c(-c2ccc(F)cc2)cs1 (3D coordinates assigned)
O=C(Cc1[n-]c(=O)[n-]c1[O-])N=c1[n-]c(-c2ccc(F)cc2)cs1 (optimized conformer: 93.82858357986835 kcal/mol)

>  <smiles>  (52) 
O=C(Cc1[nH]c(=O)[nH]c1O)N=c1[nH]c(-c2ccc(F)cc2)cs1

>  <score_type>  (52) 
oracle

>  <origin>  (52) 
adg

>  <m_score__min__energy>  (52) 
-17.079999999999998

>  <m_primary>  (52) 
energy

$$$$
52:0
     RDKit          3D

 53 55  0  0  0  0  0  0  0  0999 V2000
   56.6320   23.5650   48.2430 C   0  0  0  0  0  0  0  0  0  0  0  0
   57.4180   23.0900   47.1560 O   0  0  0  0  0  0  0  0  0  0  0  0
   56.9990   23.0700   45.8160 C   0  0  0  0  0  0  0  0  0  0  0  0
   56.5910   21.8780   45.1840 C   0  0  0  0  0  0  0  0  0  0  0  0
   56.2090   21.8830   43.8410 C   0  0  0  0  0  0  0  0  0  0  0  0
   56.2260   23.0730   43.1130 C   0  0  0  0  0  0  0  0  0  0  0  0
   56.6220   24.2630   43.7270 C   0  0  0  0  0  0  0  0  0  0  0  0
   57.0060   24.2740   45.0790 C   0  0  0  0  0  0  0  0  0  0  0  0
   57.3930   25.5140   45.6980 N   0  0  0  0  0  0  0  0  0  0  0  0
   58.6520   25.9180   45.9680 C   0  0  0  0  0  0  0  0  0  0  0  0
   58.6220   27.1600   46.5830 C   0  0  0  0  0  0  0  0  0  0  0  0
   59.7680   27.9980   46.9920 C   0  0  0  0  0  0  0  0  0  0  0  0
   60.9230   27.5200   46.8320 O   0  0  0  0  0  0  0  0  0  0  0  0
   59.6120   29.3480   47.5000 N   0  0  0  0  0  0  0  0  0  0  0  0
   59.3710   29.6030   48.9260 C   0  0  0  0  0  0  0  0  0  0  0  0
   59.6360   30.4980   46.5820 C   0  0  0  0  0  0  0  0  0  0  0  0
   58.5750   31.5030   46.9500 C   0  0  0  0  0  0  0  0  0  0  0  0
   58.6760   32.1270   48.0390 O   0  0  0  0  0  0  0  0  0  0  0  0
   57.4200   31.7270   46.1330 N   0  0  0  0  0  0  0  0  0  0  0  0
   57.4120   31.6940   44.7000 C   0  0  0  0  0  0  0  0  0  0  0  0
   56.7470   30.6570   44.0030 C   0  0  0  0  0  0  0  0  0  0  0  0
   56.0410   29.5390   44.7240 C   0  0  0  0  0  0  0  0  0  0  0  0
   56.7340   30.6690   42.6000 C   0  0  0  0  0  0  0  0  0  0  0  0
   57.4160   31.6600   41.8940 C   0  0  0  0  0  0  0  0  0  0  0  0
   58.1210   32.6490   42.5780 C   0  0  0  0  0  0  0  0  0  0  0  0
   58.1300   32.6720   43.9800 C   0  0  0  0  0  0  0  0  0  0  0  0
   58.8850   33.7530   44.7050 C   0  0  0  0  0  0  0  0  0  0  0  0
   57.2940   27.5400   46.6630 C   0  0  0  0  0  0  0  0  0  0  0  0
   56.5750   26.4980   46.1230 C   0  0  0  0  0  0  0  0  0  0  0  0
   55.1900   26.4720   45.9990 O   0  0  0  0  0  0  0  0  0  0  0  0
   57.1075   23.2777   49.1924 H   0  0  0  0  0  0  0  0  0  0  0  0
   56.5550   24.6609   48.1884 H   0  0  0  0  0  0  0  0  0  0  0  0
   55.6259   23.1236   48.1884 H   0  0  0  0  0  0  0  0  0  0  0  0
   56.5734   20.9368   45.7531 H   0  0  0  0  0  0  0  0  0  0  0  0
   55.8941   20.9471   43.3562 H   0  0  0  0  0  0  0  0  0  0  0  0
   55.9272   23.0739   42.0544 H   0  0  0  0  0  0  0  0  0  0  0  0
   56.6335   25.1985   43.1484 H   0  0  0  0  0  0  0  0  0  0  0  0
   59.5637   25.3482   45.7354 H   0  0  0  0  0  0  0  0  0  0  0  0
   60.0025   28.9348   49.5298 H   0  0  0  0  0  0  0  0  0  0  0  0
   59.6177   30.6495   49.1582 H   0  0  0  0  0  0  0  0  0  0  0  0
   58.3122   29.4157   49.1582 H   0  0  0  0  0  0  0  0  0  0  0  0
   60.6230   30.9806   46.6353 H   0  0  0  0  0  0  0  0  0  0  0  0
   59.4390   30.1370   45.5618 H   0  0  0  0  0  0  0  0  0  0  0  0
   56.1342   29.6866   45.8101 H   0  0  0  0  0  0  0  0  0  0  0  0
   54.9772   29.5365   44.4443 H   0  0  0  0  0  0  0  0  0  0  0  0
   56.4960   28.5774   44.4443 H   0  0  0  0  0  0  0  0  0  0  0  0
   56.1817   29.8909   42.0526 H   0  0  0  0  0  0  0  0  0  0  0  0
   57.3974   31.6611   40.7942 H   0  0  0  0  0  0  0  0  0  0  0  0
   58.6733   33.4157   42.0148 H   0  0  0  0  0  0  0  0  0  0  0  0
   58.7829   33.6067   45.7904 H   0  0  0  0  0  0  0  0  0  0  0  0
   59.9484   33.7070   44.4273 H   0  0  0  0  0  0  0  0  0  0  0  0
   58.4757   34.7355   44.4273 H   0  0  0  0  0  0  0  0  0  0  0  0
   56.8956   28.4798   47.0730 H   0  0  0  0  0  0  0  0  0  0  0  0
  1  2  1  0
  2  3  1  0
  3  4  2  0
  4  5  1  0
  5  6  2  0
  6  7  1  0
  7  8  2  0
  8  9  1  0
  9 10  1  0
 10 11  2  0
 11 12  1  0
 12 13  2  0
 12 14  1  0
 14 15  1  0
 14 16  1  0
 16 17  1  0
 17 18  2  0
 17 19  1  0
 19 20  1  0
 20 21  2  0
 21 22  1  0
 21 23  1  0
 23 24  2  0
 24 25  1  0
 25 26  2  0
 26 27  1  0
 11 28  1  0
 28 29  2  0
 29 30  1  0
  8  3  1  0
 29  9  1  0
 26 20  1  0
  1 31  1  0
  1 32  1  0
  1 33  1  0
  4 34  1  0
  5 35  1  0
  6 36  1  0
  7 37  1  0
 10 38  1  0
 15 39  1  0
 15 40  1  0
 15 41  1  0
 16 42  1  0
 16 43  1  0
 22 44  1  0
 22 45  1  0
 22 46  1  0
 23 47  1  0
 24 48  1  0
 25 49  1  0
 27 50  1  0
 27 51  1  0
 27 52  1  0
 28 53  1  0
M  CHG  2  19  -1  30  -1
M  END
>  <UniqueID>  (53) 
46

>  <SMILES>  (53) 
COc1ccccc1-n1cc(C(=O)N(C)CC(=O)[N-]c2c(C)cccc2C)cc1[O-]

>  <Energy>  (53) 
94.75757689698081

>  <Genealogy>  (53) 
COc1ccccc1-n1cc(C(=O)N(C)CC(=O)[N-]c2c(C)cccc2C)cc1[O-] (protonated)
COc1ccccc1-n1cc(C(=O)N(C)CC(=O)[N-]c2c(C)cccc2C)cc1[O-] (3D coordinates assigned)
COc1ccccc1-n1cc(C(=O)N(C)CC(=O)[N-]c2c(C)cccc2C)cc1[O-] (optimized conformer: 94.75757689698081 kcal/mol)

>  <smiles>  (53) 
COc1ccccc1-n1cc(C(=O)N(C)CC(=O)Nc2c(C)cccc2C)cc1O

>  <score_type>  (53) 
oracle

>  <origin>  (53) 
adg

>  <m_score__min__energy>  (53) 
-12.890000000000001

>  <m_primary>  (53) 
energy

$$$$
53:0
     RDKit          3D

 44 48  0  0  0  0  0  0  0  0999 V2000
   66.9250   32.7100   48.9830 H   0  0  0  0  0  0  0  0  0  0  0  0
   66.2810   33.0360   49.7370 N   0  0  0  0  0  0  0  0  0  0  0  0
   65.0300   32.3890   49.9650 C   0  0  0  0  0  0  0  0  0  0  0  0
   64.8770   31.7020   51.0110 O   0  0  0  0  0  0  0  0  0  0  0  0
   63.9240   32.5210   48.9870 C   0  0  0  0  0  0  0  0  0  0  0  0
   63.9950   33.4740   47.9550 C   0  0  0  0  0  0  0  0  0  0  0  0
   64.8823   34.1181   47.8662 H   0  0  0  0  0  0  0  0  0  0  0  0
   62.9460   33.6080   47.0420 C   0  0  0  0  0  0  0  0  0  0  0  0
   63.0074   34.3618   46.2432 H   0  0  0  0  0  0  0  0  0  0  0  0
   61.8210   32.7890   47.1400 C   0  0  0  0  0  0  0  0  0  0  0  0
   60.9904   32.9113   46.4292 H   0  0  0  0  0  0  0  0  0  0  0  0
   61.7450   31.8070   48.1450 C   0  0  0  0  0  0  0  0  0  0  0  0
   60.5900   30.9650   48.3000 N   0  0  0  0  0  0  0  0  0  0  0  0
   59.6140   30.8130   47.4520 C   0  0  0  0  0  0  0  0  0  0  0  0
   59.3160   29.5830   46.9330 N   0  0  0  0  0  0  0  0  0  0  0  0
   58.2730   29.4860   46.0740 C   0  0  0  0  0  0  0  0  0  0  0  0
   57.7900   28.3740   45.4250 C   0  0  0  0  0  0  0  0  0  0  0  0
   58.2410   27.1170   45.5260 C   0  0  0  0  0  0  0  0  0  0  0  0
   59.2100   26.8721   45.0666 H   0  0  0  0  0  0  0  0  0  0  0  0
   57.5070   26.0460   46.2200 C   0  0  0  0  0  0  0  0  0  0  0  0
   58.1120   24.9790   46.7700 N   0  0  0  0  0  0  0  0  0  0  0  0
   57.0840   24.2520   47.2600 C   0  0  0  0  0  0  0  0  0  0  0  0
   57.2520   23.1640   47.8680 O   0  0  0  0  0  0  0  0  0  0  0  0
   55.8620   24.7800   47.0380 N   0  0  0  0  0  0  0  0  0  0  0  0
   56.1410   25.9100   46.3670 C   0  0  0  0  0  0  0  0  0  0  0  0
   55.1590   26.7600   45.8650 O   0  0  0  0  0  0  0  0  0  0  0  0
   54.7190   27.4640   46.4430 H   0  0  0  0  0  0  0  0  0  0  0  0
   56.7060   28.8680   44.6920 C   0  0  0  0  0  0  0  0  0  0  0  0
   56.0551   28.2647   44.0421 H   0  0  0  0  0  0  0  0  0  0  0  0
   56.5770   30.2020   44.9020 N   0  0  0  0  0  0  0  0  0  0  0  0
   57.5410   30.5480   45.7410 N   0  0  0  0  0  0  0  0  0  0  0  0
   57.8060   31.7750   46.2490 C   0  0  0  0  0  0  0  0  0  0  0  0
   57.0750   32.7980   45.9200 N   0  0  0  0  0  0  0  0  0  0  0  0
   57.4990   33.8110   44.9580 C   0  0  0  0  0  0  0  0  0  0  0  0
   56.5045   34.0722   44.5672 H   0  0  0  0  0  0  0  0  0  0  0  0
   58.7180   34.5850   45.4200 C   0  0  0  0  0  0  0  0  0  0  0  0
   58.8215   35.6505   45.1671 H   0  0  0  0  0  0  0  0  0  0  0  0
   59.2011   34.7687   46.3910 H   0  0  0  0  0  0  0  0  0  0  0  0
   58.8530   33.5290   44.3340 C   0  0  0  0  0  0  0  0  0  0  0  0
   59.0538   33.8303   43.2953 H   0  0  0  0  0  0  0  0  0  0  0  0
   59.4738   32.6319   44.1932 H   0  0  0  0  0  0  0  0  0  0  0  0
   58.8530   31.8980   47.1150 N   0  0  0  0  0  0  0  0  0  0  0  0
   62.7840   31.6990   49.0770 C   0  0  0  0  0  0  0  0  0  0  0  0
   62.7090   30.9623   49.8904 H   0  0  0  0  0  0  0  0  0  0  0  0
  1  2  1  0
  2  3  1  0
  3  4  2  0
  3  5  1  0
  5  6  2  0
  6  7  1  0
  6  8  1  0
  8  9  1  0
  8 10  2  0
 10 11  1  0
 10 12  1  0
 12 13  1  0
 13 14  2  3
 14 15  1  0
 15 16  2  0
 16 17  1  0
 17 18  2  0
 18 19  1  0
 18 20  1  0
 20 21  1  0
 21 22  1  0
 22 23  2  0
 22 24  1  0
 24 25  1  0
 25 26  1  0
 26 27  1  0
 17 28  1  0
 28 29  1  0
 28 30  2  0
 30 31  1  0
 31 32  1  0
 32 33  2  0
 33 34  1  0
 34 35  1  0
 34 36  1  0
 36 37  1  0
 36 38  1  0
 36 39  1  0
 39 40  1  0
 39 41  1  0
 32 42  1  0
 12 43  2  0
 43 44  1  0
 43  5  1  0
 42 14  1  0
 31 16  1  0
 39 34  1  0
 25 20  2  0
M  CHG  4   2  -1  21  -1  24  -1  42  -1
M  END
>  <UniqueID>  (54) 
47

>  <SMILES>  (54) 
[NH-]C(=O)c1cccc(N=c2nc3/c(=C/c4[n-]c(=O)[n-]c4O)cnn3/c(=N/C3CC3)[n-]2)c1

>  <Energy>  (54) 
393.91148871022807

>  <Genealogy>  (54) 
[NH-]C(=O)c1cccc(N=c2nc3c(=Cc4[n-]c(=O)[n-]c4O)cnn3c(=NC3CC3)[n-]2)c1 (protonated)
[NH-]C(=O)c1cccc(N=c2nc3/c(=C/c4[n-]c(=O)[n-]c4O)cnn3/c(=N/C3CC3)[n-]2)c1 (cis-trans isomerization)
[NH-]C(=O)c1cccc(N=c2nc3/c(=C/c4[n-]c(=O)[n-]c4O)cnn3/c(=N/C3CC3)[n-]2)c1 (3D coordinates assigned)
[NH-]C(=O)c1cccc(N=c2nc3/c(=C/c4[n-]c(=O)[n-]c4O)cnn3/c(=N/C3CC3)[n-]2)c1 (nonaromatic ring conformer: 393.91148871022807 kcal/mol)

>  <smiles>  (54) 
NC(=O)c1cccc(N=c2nc3c(=Cc4[nH]c(=O)[nH]c4O)cnn3c(=NC3CC3)[nH]2)c1

>  <score_type>  (54) 
oracle

>  <origin>  (54) 
adg

>  <m_score__min__energy>  (54) 
-15.6

>  <m_primary>  (54) 
energy

$$$$
54:0
     RDKit          3D

 37 39  0  0  0  0  0  0  0  0999 V2000
   58.2220   28.6840   47.6480 C   0  0  0  0  0  0  0  0  0  0  0  0
   58.1100   29.1740   46.4040 C   0  0  0  0  0  0  0  0  0  0  0  0
   57.8460   28.4390   45.2330 C   0  0  0  0  0  0  0  0  0  0  0  0
   57.7640   27.1110   45.0140 C   0  0  0  0  0  0  0  0  0  0  0  0
   57.2760   26.1080   45.9720 C   0  0  0  0  0  0  0  0  0  0  0  0
   58.0080   25.0990   46.4750 N   0  0  0  0  0  0  0  0  0  0  0  0
   57.1250   24.3520   47.1680 C   0  0  0  0  0  0  0  0  0  0  0  0
   57.4500   23.3080   47.7930 O   0  0  0  0  0  0  0  0  0  0  0  0
   55.8560   24.8120   47.1190 N   0  0  0  0  0  0  0  0  0  0  0  0
   55.9670   25.9110   46.3480 C   0  0  0  0  0  0  0  0  0  0  0  0
   54.8920   26.7130   45.9880 O   0  0  0  0  0  0  0  0  0  0  0  0
   57.7150   29.3650   44.2170 C   0  0  0  0  0  0  0  0  0  0  0  0
   57.9550   30.6050   44.7670 C   0  0  0  0  0  0  0  0  0  0  0  0
   58.0600   31.8700   43.9660 C   0  0  0  0  0  0  0  0  0  0  0  0
   58.1630   30.5030   46.1040 N   0  0  0  0  0  0  0  0  0  0  0  0
   58.4660   31.6290   47.0090 C   0  0  0  0  0  0  0  0  0  0  0  0
   59.9450   31.9710   47.0600 C   0  0  0  0  0  0  0  0  0  0  0  0
   60.8530   30.9690   47.4560 C   0  0  0  0  0  0  0  0  0  0  0  0
   62.2240   31.2270   47.5080 C   0  0  0  0  0  0  0  0  0  0  0  0
   62.7130   32.4830   47.1520 C   0  0  0  0  0  0  0  0  0  0  0  0
   61.8330   33.4790   46.7300 C   0  0  0  0  0  0  0  0  0  0  0  0
   60.4550   33.2340   46.6710 C   0  0  0  0  0  0  0  0  0  0  0  0
   59.3480   34.6550   46.0200 Br  0  0  0  0  0  0  0  0  0  0  0  0
   58.4314   29.3613   48.4891 H   0  0  0  0  0  0  0  0  0  0  0  0
   58.1044   27.6050   47.8268 H   0  0  0  0  0  0  0  0  0  0  0  0
   58.0918   26.7450   44.0298 H   0  0  0  0  0  0  0  0  0  0  0  0
   59.0250   24.9100   46.3320 H   0  0  0  0  0  0  0  0  0  0  0  0
   57.4660   29.1526   43.1668 H   0  0  0  0  0  0  0  0  0  0  0  0
   58.1314   32.7306   44.6474 H   0  0  0  0  0  0  0  0  0  0  0  0
   58.9578   31.8290   43.3318 H   0  0  0  0  0  0  0  0  0  0  0  0
   57.1677   31.9775   43.3318 H   0  0  0  0  0  0  0  0  0  0  0  0
   57.9135   32.5149   46.6627 H   0  0  0  0  0  0  0  0  0  0  0  0
   58.1643   31.3257   48.0224 H   0  0  0  0  0  0  0  0  0  0  0  0
   60.4771   29.9715   47.7274 H   0  0  0  0  0  0  0  0  0  0  0  0
   62.9195   30.4381   47.8304 H   0  0  0  0  0  0  0  0  0  0  0  0
   63.7924   32.6883   47.2040 H   0  0  0  0  0  0  0  0  0  0  0  0
   62.2243   34.4656   46.4409 H   0  0  0  0  0  0  0  0  0  0  0  0
  1  2  2  0
  2  3  1  0
  3  4  2  3
  4  5  1  0
  5  6  1  0
  6  7  1  0
  7  8  2  0
  7  9  1  0
  9 10  1  0
 10 11  1  0
  3 12  1  0
 12 13  2  0
 13 14  1  0
 13 15  1  0
 15 16  1  0
 16 17  1  0
 17 18  2  0
 18 19  1  0
 19 20  2  0
 20 21  1  0
 21 22  2  0
 22 23  1  0
 15  2  1  0
 22 17  1  0
 10  5  2  0
  1 24  1  0
  1 25  1  0
  4 26  1  0
  6 27  1  0
 12 28  1  0
 14 29  1  0
 14 30  1  0
 14 31  1  0
 16 32  1  0
 16 33  1  0
 18 34  1  0
 19 35  1  0
 20 36  1  0
 21 37  1  0
M  CHG  2   9  -1  11  -1
M  END
>  <UniqueID>  (55) 
48

>  <SMILES>  (55) 
C=c1c(=Cc2[nH]c(=O)[n-]c2[O-])cc(C)n1Cc1ccccc1Br

>  <Energy>  (55) 
113.22247975231086

>  <Genealogy>  (55) 
C=c1c(=Cc2[nH]c(=O)[n-]c2[O-])cc(C)n1Cc1ccccc1Br (protonated)
C=c1c(=Cc2[nH]c(=O)[n-]c2[O-])cc(C)n1Cc1ccccc1Br (3D coordinates assigned)
C=c1c(=Cc2[nH]c(=O)[n-]c2[O-])cc(C)n1Cc1ccccc1Br (optimized conformer: 113.22247975231086 kcal/mol)

>  <smiles>  (55) 
C=c1c(=Cc2[nH]c(=O)[nH]c2O)cc(C)n1Cc1ccccc1Br

>  <score_type>  (55) 
oracle

>  <origin>  (55) 
adg

>  <m_score__min__energy>  (55) 
-14.06

>  <m_primary>  (55) 
energy

$$$$
55:0
     RDKit          3D

 40 42  0  0  0  0  0  0  0  0999 V2000
   57.3910   22.1370   47.5720 H   0  0  0  0  0  0  0  0  0  0  0  0
   56.9760   23.0320   47.9180 N   0  0  0  0  0  0  0  0  0  0  0  0
   57.0410   24.1190   47.2210 C   0  0  0  0  0  0  0  0  0  0  0  0
   55.9190   24.8430   46.9740 N   0  0  0  0  0  0  0  0  0  0  0  0
   55.9670   25.9880   46.2470 C   0  0  0  0  0  0  0  0  0  0  0  0
   54.7920   26.6950   46.0190 O   0  0  0  0  0  0  0  0  0  0  0  0
   57.1940   26.4440   45.7310 C   0  0  0  0  0  0  0  0  0  0  0  0
   57.2850   27.7400   44.9570 C   0  0  0  0  0  0  0  0  0  0  0  0
   57.9221   27.5888   44.0732 H   0  0  0  0  0  0  0  0  0  0  0  0
   56.2723   28.0408   44.6504 H   0  0  0  0  0  0  0  0  0  0  0  0
   57.8760   28.8300   45.8120 C   0  0  0  0  0  0  0  0  0  0  0  0
   58.6700   28.5060   46.9230 C   0  0  0  0  0  0  0  0  0  0  0  0
   58.8938   27.4527   47.1478 H   0  0  0  0  0  0  0  0  0  0  0  0
   59.1770   29.5150   47.7440 C   0  0  0  0  0  0  0  0  0  0  0  0
   59.7927   29.2537   48.6173 H   0  0  0  0  0  0  0  0  0  0  0  0
   58.9050   30.8550   47.4600 C   0  0  0  0  0  0  0  0  0  0  0  0
   59.3004   31.6448   48.1157 H   0  0  0  0  0  0  0  0  0  0  0  0
   58.1310   31.1980   46.3440 C   0  0  0  0  0  0  0  0  0  0  0  0
   57.8500   32.5850   46.1060 N   0  0  0  0  0  0  0  0  0  0  0  0
   58.5950   33.4720   45.2610 C   0  0  0  0  0  0  0  0  0  0  0  0
   58.7360   33.2300   44.0330 O   0  0  0  0  0  0  0  0  0  0  0  0
   59.2210   34.6950   45.8520 C   0  0  0  0  0  0  0  0  0  0  0  0
   59.6636   35.3026   45.0489 H   0  0  0  0  0  0  0  0  0  0  0  0
   58.4506   35.2781   46.3779 H   0  0  0  0  0  0  0  0  0  0  0  0
   60.2940   34.3000   46.8270 C   0  0  0  0  0  0  0  0  0  0  0  0
   60.0370   34.3210   48.2090 C   0  0  0  0  0  0  0  0  0  0  0  0
   59.0554   34.6517   48.5792 H   0  0  0  0  0  0  0  0  0  0  0  0
   61.0250   33.9230   49.1140 C   0  0  0  0  0  0  0  0  0  0  0  0
   60.8215   33.9482   50.1947 H   0  0  0  0  0  0  0  0  0  0  0  0
   62.2710   33.4930   48.6490 C   0  0  0  0  0  0  0  0  0  0  0  0
   63.0482   33.1851   49.3640 H   0  0  0  0  0  0  0  0  0  0  0  0
   62.5300   33.4540   47.2760 C   0  0  0  0  0  0  0  0  0  0  0  0
   63.5091   33.1101   46.9111 H   0  0  0  0  0  0  0  0  0  0  0  0
   61.5450   33.8520   46.3650 C   0  0  0  0  0  0  0  0  0  0  0  0
   61.7495   33.8144   45.2848 H   0  0  0  0  0  0  0  0  0  0  0  0
   57.5980   30.1790   45.5340 C   0  0  0  0  0  0  0  0  0  0  0  0
   56.9593   30.4399   44.6773 H   0  0  0  0  0  0  0  0  0  0  0  0
   58.3410   25.6740   46.0030 C   0  0  0  0  0  0  0  0  0  0  0  0
   59.4710   26.0270   45.5720 O   0  0  0  0  0  0  0  0  0  0  0  0
   58.2370   24.5360   46.7360 N   0  0  0  0  0  0  0  0  0  0  0  0
  1  2  1  0
  2  3  2  0
  3  4  1  0
  4  5  1  0
  5  6  1  0
  5  7  2  0
  7  8  1  0
  8  9  1  0
  8 10  1  0
  8 11  1  0
 11 12  2  0
 12 13  1  0
 12 14  1  0
 14 15  1  0
 14 16  2  0
 16 17  1  0
 16 18  1  0
 18 19  1  0
 19 20  1  0
 20 21  2  0
 20 22  1  0
 22 23  1  0
 22 24  1  0
 22 25  1  0
 25 26  2  0
 26 27  1  0
 26 28  1  0
 28 29  1  0
 28 30  2  0
 30 31  1  0
 30 32  1  0
 32 33  1  0
 32 34  2  0
 34 35  1  0
 18 36  2  0
 36 37  1  0
  7 38  1  0
 38 39  2  0
 38 40  1  0
 40  3  1  0
 36 11  1  0
 34 25  1  0
M  CHG  4   4  -1   6  -1  19  -1  40  -1
M  END
>  <UniqueID>  (56) 
49

>  <SMILES>  (56) 
[H]/N=c1\[n-]c([O-])c(Cc2cccc([N-]C(=O)Cc3ccccc3)c2)c(=O)[n-]1

>  <Energy>  (56) 
45.07882423241609

>  <Genealogy>  (56) 
N=c1[n-]c([O-])c(Cc2cccc([N-]C(=O)Cc3ccccc3)c2)c(=O)[n-]1 (protonated)
[H]/N=c1\[n-]c([O-])c(Cc2cccc([N-]C(=O)Cc3ccccc3)c2)c(=O)[n-]1 (cis-trans isomerization)
[H]/N=c1\[n-]c([O-])c(Cc2cccc([N-]C(=O)Cc3ccccc3)c2)c(=O)[n-]1 (3D coordinates assigned)
[H]/N=c1\[n-]c([O-])c(Cc2cccc([N-]C(=O)Cc3ccccc3)c2)c(=O)[n-]1 (optimized conformer: 45.07882423241609 kcal/mol)

>  <smiles>  (56) 
N=c1[nH]c(O)c(Cc2cccc(NC(=O)Cc3ccccc3)c2)c(=O)[nH]1

>  <score_type>  (56) 
oracle

>  <origin>  (56) 
adg

>  <m_score__min__energy>  (56) 
-16.09

>  <m_primary>  (56) 
energy

$$$$
56:0
     RDKit          3D

 51 55  0  0  0  0  0  0  0  0999 V2000
   59.1374   35.2956   47.0845 H   0  0  0  0  0  0  0  0  0  0  0  0
   58.7910   34.4650   46.4520 C   0  0  0  0  0  0  0  0  0  0  0  0
   58.9450   34.5320   45.0650 C   0  0  0  0  0  0  0  0  0  0  0  0
   59.4164   35.4140   44.6070 H   0  0  0  0  0  0  0  0  0  0  0  0
   58.5010   33.4800   44.2580 C   0  0  0  0  0  0  0  0  0  0  0  0
   58.6310   33.5330   43.1670 H   0  0  0  0  0  0  0  0  0  0  0  0
   57.8890   32.3550   44.8370 C   0  0  0  0  0  0  0  0  0  0  0  0
   57.4470   31.2070   43.9760 C   0  0  0  0  0  0  0  0  0  0  0  0
   58.3166   30.5840   43.7196 H   0  0  0  0  0  0  0  0  0  0  0  0
   56.9902   31.5934   43.0529 H   0  0  0  0  0  0  0  0  0  0  0  0
   56.4700   30.4040   44.7060 N   0  0  0  0  0  0  0  0  0  0  0  0
   56.7520   29.2950   45.3180 C   0  0  0  0  0  0  0  0  0  0  0  0
   57.9080   29.1960   46.0200 N   0  0  0  0  0  0  0  0  0  0  0  0
   58.2290   28.0410   46.6610 C   0  0  0  0  0  0  0  0  0  0  0  0
   59.4070   27.9280   47.4080 O   0  0  0  0  0  0  0  0  0  0  0  0
   59.8340   28.8360   48.3890 C   0  0  0  0  0  0  0  0  0  0  0  0
   59.6510   28.6060   49.7720 C   0  0  0  0  0  0  0  0  0  0  0  0
   59.1667   27.6792   50.1133 H   0  0  0  0  0  0  0  0  0  0  0  0
   60.0850   29.5560   50.7130 C   0  0  0  0  0  0  0  0  0  0  0  0
   59.9463   29.3644   51.7873 H   0  0  0  0  0  0  0  0  0  0  0  0
   60.6940   30.7470   50.2900 C   0  0  0  0  0  0  0  0  0  0  0  0
   61.0411   31.4901   51.0231 H   0  0  0  0  0  0  0  0  0  0  0  0
   60.8510   30.9710   48.9220 C   0  0  0  0  0  0  0  0  0  0  0  0
   60.4270   30.0430   48.0030 C   0  0  0  0  0  0  0  0  0  0  0  0
   60.7180   30.5400   46.6800 C   0  0  0  0  0  0  0  0  0  0  0  0
   60.4600   29.9320   45.6070 O   0  0  0  0  0  0  0  0  0  0  0  0
   61.3720   31.8790   46.7560 C   0  0  0  0  0  0  0  0  0  0  0  0
   62.3742   31.8498   46.3036 H   0  0  0  0  0  0  0  0  0  0  0  0
   60.8120   32.6528   46.2104 H   0  0  0  0  0  0  0  0  0  0  0  0
   61.4630   32.1720   48.2720 C   0  0  0  0  0  0  0  0  0  0  0  0
   62.5114   32.2908   48.5830 H   0  0  0  0  0  0  0  0  0  0  0  0
   60.9508   33.1050   48.5496 H   0  0  0  0  0  0  0  0  0  0  0  0
   57.3750   26.9880   46.6100 N   0  0  0  0  0  0  0  0  0  0  0  0
   56.2090   27.0800   45.9140 C   0  0  0  0  0  0  0  0  0  0  0  0
   55.3870   26.0740   45.8490 N   0  0  0  0  0  0  0  0  0  0  0  0
   55.7810   24.7080   45.6610 C   0  0  0  0  0  0  0  0  0  0  0  0
   55.4950   24.1070   44.4750 N   0  0  0  0  0  0  0  0  0  0  0  0
   55.8540   22.8230   44.2290 C   0  0  0  0  0  0  0  0  0  0  0  0
   55.5830   22.2960   43.1190 O   0  0  0  0  0  0  0  0  0  0  0  0
   56.5060   22.1050   45.1780 N   0  0  0  0  0  0  0  0  0  0  0  0
   56.7990   22.6450   46.3880 C   0  0  0  0  0  0  0  0  0  0  0  0
   57.3940   21.9440   47.2490 O   0  0  0  0  0  0  0  0  0  0  0  0
   56.4280   23.9700   46.6750 C   0  0  0  0  0  0  0  0  0  0  0  0
   56.6600   24.5260   47.9780 N   0  0  0  0  0  0  0  0  0  0  0  0
   56.8200   23.9190   48.8110 H   0  0  0  0  0  0  0  0  0  0  0  0
   56.7370   25.5580   48.1170 H   0  0  0  0  0  0  0  0  0  0  0  0
   55.9050   28.2320   45.2650 N   0  0  0  0  0  0  0  0  0  0  0  0
   57.7520   32.2870   46.2340 C   0  0  0  0  0  0  0  0  0  0  0  0
   57.2937   31.4011   46.6979 H   0  0  0  0  0  0  0  0  0  0  0  0
   58.1970   33.3430   47.0360 C   0  0  0  0  0  0  0  0  0  0  0  0
   58.0792   33.2902   48.1284 H   0  0  0  0  0  0  0  0  0  0  0  0
  1  2  1  0
  2  3  2  0
  3  4  1  0
  3  5  1  0
  5  6  1  0
  5  7  2  0
  7  8  1  0
  8  9  1  0
  8 10  1  0
  8 11  1  0
 11 12  2  0
 12 13  1  0
 13 14  1  0
 14 15  1  0
 15 16  1  0
 16 17  2  0
 17 18  1  0
 17 19  1  0
 19 20  1  0
 19 21  2  0
 21 22  1  0
 21 23  1  0
 23 24  2  0
 24 25  1  0
 25 26  2  0
 25 27  1  0
 27 28  1  0
 27 29  1  0
 27 30  1  0
 30 31  1  0
 30 32  1  0
 14 33  2  0
 33 34  1  0
 34 35  2  0
 35 36  1  0
 36 37  1  0
 37 38  1  0
 38 39  2  0
 38 40  1  0
 40 41  1  0
 41 42  2  0
 41 43  1  0
 43 44  1  0
 44 45  1  0
 44 46  1  0
 34 47  1  0
  7 48  1  0
 48 49  1  0
 48 50  2  0
 50 51  1  0
 50  2  1  0
 47 12  1  0
 24 16  1  0
 43 36  2  0
 30 23  1  0
M  CHG  4  13  -1  37  -1  40  -1  47  -1
M  END
>  <UniqueID>  (57) 
50

>  <SMILES>  (57) 
Nc1c(/N=c2\nc(Oc3cccc4c3C(=O)CC4)[n-]/c(=N/Cc3ccccc3)[n-]2)[n-]c(=O)[n-]c1=O

>  <Energy>  (57) 
84.87702309586774

>  <Genealogy>  (57) 
Nc1c(N=c2nc(Oc3cccc4c3C(=O)CC4)[n-]c(=NCc3ccccc3)[n-]2)[n-]c(=O)[n-]c1=O (protonated)
Nc1c(/N=c2\nc(Oc3cccc4c3C(=O)CC4)[n-]/c(=N/Cc3ccccc3)[n-]2)[n-]c(=O)[n-]c1=O (cis-trans isomerization)
Nc1c(/N=c2\nc(Oc3cccc4c3C(=O)CC4)[n-]/c(=N/Cc3ccccc3)[n-]2)[n-]c(=O)[n-]c1=O (3D coordinates assigned)
Nc1c(/N=c2\nc(Oc3cccc4c3C(=O)CC4)[n-]/c(=N/Cc3ccccc3)[n-]2)[n-]c(=O)[n-]c1=O (nonaromatic ring conformer: 84.87702309586774 kcal/mol)

>  <smiles>  (57) 
Nc1c(N=c2nc(Oc3cccc4c3C(=O)CC4)[nH]c(=NCc3ccccc3)[nH]2)[nH]c(=O)[nH]c1=O

>  <score_type>  (57) 
oracle

>  <origin>  (57) 
adg

>  <m_score__min__energy>  (57) 
-15.65

>  <m_primary>  (57) 
energy

$$$$
57:0
     RDKit          3D

 49 51  0  0  0  0  0  0  0  0999 V2000
   56.2250   31.5940   45.2800 H   0  0  0  0  0  0  0  0  0  0  0  0
   55.8850   30.8510   44.7150 O   0  0  0  0  0  0  0  0  0  0  0  0
   56.8170   30.6960   43.6810 C   0  0  0  0  0  0  0  0  0  0  0  0
   57.7718   31.1544   43.9779 H   0  0  0  0  0  0  0  0  0  0  0  0
   56.4376   31.1869   42.7727 H   0  0  0  0  0  0  0  0  0  0  0  0
   57.0290   29.2390   43.4050 C   0  0  0  0  0  0  0  0  0  0  0  0
   56.9020   28.8581   42.3809 H   0  0  0  0  0  0  0  0  0  0  0  0
   57.3710   28.3920   44.3860 C   0  0  0  0  0  0  0  0  0  0  0  0
   56.9329   28.5300   45.3855 H   0  0  0  0  0  0  0  0  0  0  0  0
   58.3330   27.2610   44.1640 C   0  0  0  0  0  0  0  0  0  0  0  0
   59.2036   27.3958   44.8227 H   0  0  0  0  0  0  0  0  0  0  0  0
   58.6412   27.2677   43.1081 H   0  0  0  0  0  0  0  0  0  0  0  0
   57.7070   25.9680   44.4570 N   0  0  0  0  0  0  0  0  0  0  0  0
   57.7780   25.2510   45.6040 C   0  0  0  0  0  0  0  0  0  0  0  0
   58.4720   25.6530   46.8400 C   0  0  0  0  0  0  0  0  0  0  0  0
   58.0800   25.1810   47.9390 O   0  0  0  0  0  0  0  0  0  0  0  0
   59.5900   26.5490   46.8310 N   0  0  0  0  0  0  0  0  0  0  0  0
   59.5390   27.9840   46.8560 C   0  0  0  0  0  0  0  0  0  0  0  0
   58.6710   28.6870   47.7120 C   0  0  0  0  0  0  0  0  0  0  0  0
   57.9857   28.1342   48.3713 H   0  0  0  0  0  0  0  0  0  0  0  0
   58.6760   30.0850   47.7280 C   0  0  0  0  0  0  0  0  0  0  0  0
   57.9809   30.6269   48.3861 H   0  0  0  0  0  0  0  0  0  0  0  0
   59.5620   30.8000   46.9100 C   0  0  0  0  0  0  0  0  0  0  0  0
   59.5710   32.2380   46.9370 N   0  0  0  0  0  0  0  0  0  0  0  0
   58.4170   32.9930   46.5210 C   0  0  0  0  0  0  0  0  0  0  0  0
   57.3990   32.4120   46.0540 O   0  0  0  0  0  0  0  0  0  0  0  0
   58.4640   34.4950   46.5460 C   0  0  0  0  0  0  0  0  0  0  0  0
   57.4676   34.8786   46.8106 H   0  0  0  0  0  0  0  0  0  0  0  0
   58.7689   34.8455   45.5489 H   0  0  0  0  0  0  0  0  0  0  0  0
   59.4050   34.9730   47.4890 O   0  0  0  0  0  0  0  0  0  0  0  0
   60.6810   34.4280   47.2180 C   0  0  0  0  0  0  0  0  0  0  0  0
   61.4365   34.9519   47.8219 H   0  0  0  0  0  0  0  0  0  0  0  0
   60.9064   34.5518   46.1485 H   0  0  0  0  0  0  0  0  0  0  0  0
   60.6990   32.9360   47.5660 C   0  0  0  0  0  0  0  0  0  0  0  0
   60.6308   32.8199   48.6577 H   0  0  0  0  0  0  0  0  0  0  0  0
   61.6362   32.4988   47.1911 H   0  0  0  0  0  0  0  0  0  0  0  0
   60.4370   30.0980   46.0670 C   0  0  0  0  0  0  0  0  0  0  0  0
   61.1321   30.6505   45.4177 H   0  0  0  0  0  0  0  0  0  0  0  0
   60.4300   28.7010   46.0480 C   0  0  0  0  0  0  0  0  0  0  0  0
   61.1296   28.1604   45.3935 H   0  0  0  0  0  0  0  0  0  0  0  0
   57.1820   24.0180   45.4010 C   0  0  0  0  0  0  0  0  0  0  0  0
   57.0933   23.1871   46.1164 H   0  0  0  0  0  0  0  0  0  0  0  0
   56.7230   24.0650   44.0970 C   0  0  0  0  0  0  0  0  0  0  0  0
   56.0860   22.9380   43.3460 C   0  0  0  0  0  0  0  0  0  0  0  0
   55.8950   21.8600   44.1880 F   0  0  0  0  0  0  0  0  0  0  0  0
   54.8630   23.3520   42.8500 F   0  0  0  0  0  0  0  0  0  0  0  0
   56.8960   22.5480   42.2950 F   0  0  0  0  0  0  0  0  0  0  0  0
   57.0720   25.2440   43.5470 N   0  0  0  0  0  0  0  0  0  0  0  0
   56.9230   25.5290   42.5530 H   0  0  0  0  0  0  0  0  0  0  0  0
  1  2  1  0
  2  3  1  0
  3  4  1  0
  3  5  1  0
  3  6  1  0
  6  7  1  0
  6  8  2  0
  8  9  1  0
  8 10  1  0
 10 11  1  0
 10 12  1  0
 10 13  1  0
 13 14  1  0
 14 15  1  0
 15 16  2  0
 15 17  1  0
 17 18  1  0
 18 19  2  0
 19 20  1  0
 19 21  1  0
 21 22  1  0
 21 23  2  0
 23 24  1  0
 24 25  1  0
 25 26  2  0
 25 27  1  0
 27 28  1  0
 27 29  1  0
 27 30  1  0
 30 31  1  0
 31 32  1  0
 31 33  1  0
 31 34  1  0
 34 35  1  0
 34 36  1  0
 23 37  1  0
 37 38  1  0
 37 39  2  0
 39 40  1  0
 14 41  2  0
 41 42  1  0
 41 43  1  0
 43 44  1  0
 44 45  1  0
 44 46  1  0
 44 47  1  0
 43 48  2  0
 48 49  1  0
 48 13  1  0
 39 18  1  0
 34 24  1  0
M  CHG  2  17  -1  48   1
M  END
>  <UniqueID>  (58) 
51

>  <SMILES>  (58) 
O=C([N-]c1ccc(N2CCOCC2=O)cc1)c1cc(C(F)(F)F)[nH+]n1C/C=C/CO

>  <Energy>  (58) 
88.13295332451462

>  <Genealogy>  (58) 
O=C([N-]c1ccc(N2CCOCC2=O)cc1)c1cc(C(F)(F)F)[nH+]n1CC=CCO (protonated)
O=C([N-]c1ccc(N2CCOCC2=O)cc1)c1cc(C(F)(F)F)[nH+]n1C/C=C/CO (cis-trans isomerization)
O=C([N-]c1ccc(N2CCOCC2=O)cc1)c1cc(C(F)(F)F)[nH+]n1C/C=C/CO (3D coordinates assigned)
O=C([N-]c1ccc(N2CCOCC2=O)cc1)c1cc(C(F)(F)F)[nH+]n1C/C=C/CO (nonaromatic ring conformer: 88.13295332451462 kcal/mol)

>  <smiles>  (58) 
O=C(Nc1ccc(N2CCOCC2=O)cc1)c1cc(C(F)(F)F)nn1CC=CCO

>  <score_type>  (58) 
oracle

>  <origin>  (58) 
adg

>  <m_score__min__energy>  (58) 
-7.9699999999999998

>  <m_primary>  (58) 
energy

$$$$
58:0
     RDKit          3D

 39 41  0  0  0  0  0  0  0  0999 V2000
   61.3542   30.6849   48.7268 H   0  0  0  0  0  0  0  0  0  0  0  0
   60.7170   30.1530   48.0050 C   0  0  0  0  0  0  0  0  0  0  0  0
   61.0400   30.1650   46.6470 C   0  0  0  0  0  0  0  0  0  0  0  0
   61.9386   30.6972   46.3016 H   0  0  0  0  0  0  0  0  0  0  0  0
   60.2240   29.5020   45.7240 C   0  0  0  0  0  0  0  0  0  0  0  0
   60.4929   29.5009   44.6574 H   0  0  0  0  0  0  0  0  0  0  0  0
   59.0600   28.8360   46.1540 C   0  0  0  0  0  0  0  0  0  0  0  0
   58.1820   28.0820   45.1800 C   0  0  0  0  0  0  0  0  0  0  0  0
   58.2945   27.0044   45.3702 H   0  0  0  0  0  0  0  0  0  0  0  0
   58.5062   28.3594   44.1661 H   0  0  0  0  0  0  0  0  0  0  0  0
   56.7210   28.4390   45.2960 C   0  0  0  0  0  0  0  0  0  0  0  0
   55.9000   27.5380   45.6110 O   0  0  0  0  0  0  0  0  0  0  0  0
   56.2400   29.7840   45.1590 N   0  0  0  0  0  0  0  0  0  0  0  0
   57.0190   30.9680   44.9500 C   0  0  0  0  0  0  0  0  0  0  0  0
   57.8300   31.8340   46.1410 S   0  0  0  0  0  0  0  0  0  0  0  0
   58.5380   32.8830   45.0280 C   0  0  0  0  0  0  0  0  0  0  0  0
   59.3650   33.8490   45.3050 N   0  0  0  0  0  0  0  0  0  0  0  0
   60.1910   33.9460   46.4770 C   0  0  0  0  0  0  0  0  0  0  0  0
   61.5850   33.7680   46.4140 C   0  0  0  0  0  0  0  0  0  0  0  0
   62.0689   33.5706   45.4461 H   0  0  0  0  0  0  0  0  0  0  0  0
   62.3580   33.8410   47.5770 C   0  0  0  0  0  0  0  0  0  0  0  0
   63.4497   33.7190   47.5200 H   0  0  0  0  0  0  0  0  0  0  0  0
   61.7440   34.0690   48.8120 C   0  0  0  0  0  0  0  0  0  0  0  0
   62.4970   34.1380   49.9380 F   0  0  0  0  0  0  0  0  0  0  0  0
   60.3550   34.2130   48.8860 C   0  0  0  0  0  0  0  0  0  0  0  0
   59.7560   34.4180   50.0850 F   0  0  0  0  0  0  0  0  0  0  0  0
   59.5800   34.1400   47.7220 C   0  0  0  0  0  0  0  0  0  0  0  0
   58.4860   34.2355   47.7859 H   0  0  0  0  0  0  0  0  0  0  0  0
   58.2090   32.5620   43.7590 N   0  0  0  0  0  0  0  0  0  0  0  0
   57.3670   31.4920   43.7010 C   0  0  0  0  0  0  0  0  0  0  0  0
   56.8860   30.9600   42.4090 C   0  0  0  0  0  0  0  0  0  0  0  0
   57.0420   31.6250   41.3490 O   0  0  0  0  0  0  0  0  0  0  0  0
   56.2400   29.6870   42.3420 N   0  0  0  0  0  0  0  0  0  0  0  0
   56.0920   29.1080   43.1980 H   0  0  0  0  0  0  0  0  0  0  0  0
   55.9030   29.3180   41.4260 H   0  0  0  0  0  0  0  0  0  0  0  0
   58.7670   28.7990   47.5300 C   0  0  0  0  0  0  0  0  0  0  0  0
   57.8882   28.2415   47.8862 H   0  0  0  0  0  0  0  0  0  0  0  0
   59.5840   29.4650   48.4470 C   0  0  0  0  0  0  0  0  0  0  0  0
   59.3350   29.4477   49.5183 H   0  0  0  0  0  0  0  0  0  0  0  0
  1  2  1  0
  2  3  2  0
  3  4  1  0
  3  5  1  0
  5  6  1  0
  5  7  2  0
  7  8  1  0
  8  9  1  0
  8 10  1  0
  8 11  1  0
 11 12  2  0
 11 13  1  0
 13 14  1  0
 14 15  1  0
 15 16  1  0
 16 17  2  0
 17 18  1  0
 18 19  2  0
 19 20  1  0
 19 21  1  0
 21 22  1  0
 21 23  2  0
 23 24  1  0
 23 25  1  0
 25 26  1  0
 25 27  2  0
 27 28  1  0
 16 29  1  0
 29 30  1  0
 30 31  1  0
 31 32  2  0
 31 33  1  0
 33 34  1  0
 33 35  1  0
  7 36  1  0
 36 37  1  0
 36 38  2  0
 38 39  1  0
 38  2  1  0
 30 14  2  0
 27 18  1  0
M  CHG  2  13  -1  29  -1
M  END
>  <UniqueID>  (59) 
52

>  <SMILES>  (59) 
NC(=O)c1[n-]/c(=N/c2ccc(F)c(F)c2)sc1[N-]C(=O)Cc1ccccc1

>  <Energy>  (59) 
80.95109660615243

>  <Genealogy>  (59) 
NC(=O)c1[n-]c(=Nc2ccc(F)c(F)c2)sc1[N-]C(=O)Cc1ccccc1 (protonated)
NC(=O)c1[n-]/c(=N/c2ccc(F)c(F)c2)sc1[N-]C(=O)Cc1ccccc1 (cis-trans isomerization)
NC(=O)c1[n-]/c(=N/c2ccc(F)c(F)c2)sc1[N-]C(=O)Cc1ccccc1 (3D coordinates assigned)
NC(=O)c1[n-]/c(=N/c2ccc(F)c(F)c2)sc1[N-]C(=O)Cc1ccccc1 (optimized conformer: 80.95109660615243 kcal/mol)

>  <smiles>  (59) 
NC(=O)c1[nH]c(=Nc2ccc(F)c(F)c2)sc1NC(=O)Cc1ccccc1

>  <score_type>  (59) 
oracle

>  <origin>  (59) 
adg

>  <m_score__min__energy>  (59) 
-10.99

>  <m_primary>  (59) 
energy

$$$$
59:0
     RDKit          3D

 50 52  0  0  0  0  0  0  0  0999 V2000
   53.0440   24.8600   45.5390 N   0  0  0  0  0  0  0  0  0  0  0  0
   53.8600   23.7050   45.3520 C   0  0  0  0  0  0  0  0  0  0  0  0
   53.3010   22.5790   45.2540 O   0  0  0  0  0  0  0  0  0  0  0  0
   55.3430   23.8130   45.2670 C   0  0  0  0  0  0  0  0  0  0  0  0
   56.0000   24.8570   45.9490 C   0  0  0  0  0  0  0  0  0  0  0  0
   57.4010   24.9780   45.9210 C   0  0  0  0  0  0  0  0  0  0  0  0
   58.1040   26.0500   46.6690 C   0  0  0  0  0  0  0  0  0  0  0  0
   59.2160   25.7950   47.2080 O   0  0  0  0  0  0  0  0  0  0  0  0
   57.4880   27.4030   46.9050 C   0  0  0  0  0  0  0  0  0  0  0  0
   58.5510   28.4730   46.8350 C   0  0  0  0  0  0  0  0  0  0  0  0
   59.1150   28.9550   48.0270 C   0  0  0  0  0  0  0  0  0  0  0  0
   60.0550   29.9850   48.0000 C   0  0  0  0  0  0  0  0  0  0  0  0
   60.4430   30.5610   46.7880 C   0  0  0  0  0  0  0  0  0  0  0  0
   61.3660   31.6190   46.8220 O   0  0  0  0  0  0  0  0  0  0  0  0
   61.0550   32.9750   47.1490 C   0  0  0  0  0  0  0  0  0  0  0  0
   59.7200   33.3730   46.5730 C   0  0  0  0  0  0  0  0  0  0  0  0
   59.6570   34.0680   45.3540 C   0  0  0  0  0  0  0  0  0  0  0  0
   58.4200   34.4470   44.8220 C   0  0  0  0  0  0  0  0  0  0  0  0
   57.2400   34.1240   45.4960 C   0  0  0  0  0  0  0  0  0  0  0  0
   57.2930   33.4190   46.7010 C   0  0  0  0  0  0  0  0  0  0  0  0
   58.5280   33.0410   47.2380 C   0  0  0  0  0  0  0  0  0  0  0  0
   59.8940   30.0740   45.5880 C   0  0  0  0  0  0  0  0  0  0  0  0
   58.9350   29.0430   45.6030 C   0  0  0  0  0  0  0  0  0  0  0  0
   58.3400   28.5660   44.4210 O   0  0  0  0  0  0  0  0  0  0  0  0
   57.3660   29.2570   43.6370 C   0  0  0  0  0  0  0  0  0  0  0  0
   56.2490   29.7840   44.4840 C   0  0  0  0  0  0  0  0  0  0  0  0
   56.2500   30.9920   44.8370 O   0  0  0  0  0  0  0  0  0  0  0  0
   55.1930   28.9630   44.8620 O   0  0  0  0  0  0  0  0  0  0  0  0
   58.1460   24.0610   45.1650 C   0  0  0  0  0  0  0  0  0  0  0  0
   57.5100   23.0300   44.4760 C   0  0  0  0  0  0  0  0  0  0  0  0
   56.1200   22.8940   44.5250 C   0  0  0  0  0  0  0  0  0  0  0  0
   55.5340   21.8430   43.8290 O   0  0  0  0  0  0  0  0  0  0  0  0
   53.4370   25.7350   45.9510 H   0  0  0  0  0  0  0  0  0  0  0  0
   55.4060   25.5907   46.5136 H   0  0  0  0  0  0  0  0  0  0  0  0
   56.7259   27.5956   46.1355 H   0  0  0  0  0  0  0  0  0  0  0  0
   57.0236   27.4197   47.9020 H   0  0  0  0  0  0  0  0  0  0  0  0
   58.8131   28.5168   48.9897 H   0  0  0  0  0  0  0  0  0  0  0  0
   60.4946   30.3469   48.9412 H   0  0  0  0  0  0  0  0  0  0  0  0
   61.0223   33.0835   48.2431 H   0  0  0  0  0  0  0  0  0  0  0  0
   61.8312   33.6271   46.7221 H   0  0  0  0  0  0  0  0  0  0  0  0
   60.5839   34.3152   44.8157 H   0  0  0  0  0  0  0  0  0  0  0  0
   58.3765   34.9999   43.8720 H   0  0  0  0  0  0  0  0  0  0  0  0
   56.2682   34.4250   45.0777 H   0  0  0  0  0  0  0  0  0  0  0  0
   56.3626   33.1609   47.2280 H   0  0  0  0  0  0  0  0  0  0  0  0
   58.5660   32.4817   48.1845 H   0  0  0  0  0  0  0  0  0  0  0  0
   60.2171   30.5029   44.6280 H   0  0  0  0  0  0  0  0  0  0  0  0
   57.8530   30.0994   43.1241 H   0  0  0  0  0  0  0  0  0  0  0  0
   56.9420   28.5472   42.9115 H   0  0  0  0  0  0  0  0  0  0  0  0
   59.2407   24.1564   45.1156 H   0  0  0  0  0  0  0  0  0  0  0  0
   58.1072   22.3171   43.8885 H   0  0  0  0  0  0  0  0  0  0  0  0
  1  2  1  0
  2  3  2  0
  2  4  1  0
  4  5  2  0
  5  6  1  0
  6  7  1  0
  7  8  2  0
  7  9  1  0
  9 10  1  0
 10 11  2  0
 11 12  1  0
 12 13  2  0
 13 14  1  0
 14 15  1  0
 15 16  1  0
 16 17  2  0
 17 18  1  0
 18 19  2  0
 19 20  1  0
 20 21  2  0
 13 22  1  0
 22 23  2  0
 23 24  1  0
 24 25  1  0
 25 26  1  0
 26 27  2  0
 26 28  1  0
  6 29  2  0
 29 30  1  0
 30 31  2  0
 31 32  1  0
 31  4  1  0
 23 10  1  0
 21 16  1  0
  1 33  1  0
  5 34  1  0
  9 35  1  0
  9 36  1  0
 11 37  1  0
 12 38  1  0
 15 39  1  0
 15 40  1  0
 17 41  1  0
 18 42  1  0
 19 43  1  0
 20 44  1  0
 21 45  1  0
 22 46  1  0
 25 47  1  0
 25 48  1  0
 29 49  1  0
 30 50  1  0
M  CHG  3   1  -1  28  -1  32  -1
M  END
>  <UniqueID>  (60) 
53

>  <SMILES>  (60) 
[NH-]C(=O)c1cc(C(=O)Cc2ccc(OCc3ccccc3)cc2OCC(=O)[O-])ccc1[O-]

>  <Energy>  (60) 
52.93162251267997

>  <Genealogy>  (60) 
[NH-]C(=O)c1cc(C(=O)Cc2ccc(OCc3ccccc3)cc2OCC(=O)[O-])ccc1[O-] (protonated)
[NH-]C(=O)c1cc(C(=O)Cc2ccc(OCc3ccccc3)cc2OCC(=O)[O-])ccc1[O-] (3D coordinates assigned)
[NH-]C(=O)c1cc(C(=O)Cc2ccc(OCc3ccccc3)cc2OCC(=O)[O-])ccc1[O-] (optimized conformer: 52.93162251267997 kcal/mol)

>  <smiles>  (60) 
NC(=O)c1cc(C(=O)Cc2ccc(OCc3ccccc3)cc2OCC(=O)O)ccc1O

>  <score_type>  (60) 
oracle

>  <origin>  (60) 
adg

>  <m_score__min__energy>  (60) 
-16.149999999999999

>  <m_primary>  (60) 
energy

$$$$
60:0
     RDKit          3D

 42 44  0  0  0  0  0  0  0  0999 V2000
   57.0600   24.4960   43.8770 C   0  0  0  0  0  0  0  0  0  0  0  0
   57.6970   24.2470   45.0230 C   0  0  0  0  0  0  0  0  0  0  0  0
   57.5770   25.1870   46.1910 C   0  0  0  0  0  0  0  0  0  0  0  0
   57.5560   26.6200   45.7240 C   0  0  0  0  0  0  0  0  0  0  0  0
   58.7610   27.2680   45.4080 C   0  0  0  0  0  0  0  0  0  0  0  0
   58.7610   28.6050   45.0000 C   0  0  0  0  0  0  0  0  0  0  0  0
   57.5570   29.3210   44.9090 C   0  0  0  0  0  0  0  0  0  0  0  0
   57.5690   30.7330   44.4770 C   0  0  0  0  0  0  0  0  0  0  0  0
   57.3040   31.7160   45.2660 N   0  0  0  0  0  0  0  0  0  0  0  0
   57.4040   32.9670   44.5250 C   0  0  1  0  0  0  0  0  0  0  0  0
   58.4270   33.8690   45.1590 C   0  0  0  0  0  0  0  0  0  0  0  0
   58.4500   35.0910   44.8440 O   0  0  0  0  0  0  0  0  0  0  0  0
   59.3820   33.3460   46.0940 N   0  0  0  0  0  0  0  0  0  0  0  0
   60.4460   34.1650   46.6670 C   0  0  0  0  0  0  0  0  0  0  0  0
   61.4640   33.2940   47.3270 C   0  0  0  0  0  0  0  0  0  0  0  0
   61.4230   31.9490   47.2990 N   0  0  0  0  0  0  0  0  0  0  0  0
   62.4980   31.5260   47.9420 N   0  0  0  0  0  0  0  0  0  0  0  0
   63.1710   32.6260   48.3270 C   0  0  0  0  0  0  0  0  0  0  0  0
   64.4260   32.5870   49.1310 C   0  0  0  0  0  0  0  0  0  0  0  0
   62.5510   33.7680   47.9670 N   0  0  0  0  0  0  0  0  0  0  0  0
   57.8060   32.5400   43.1000 C   0  0  0  0  0  0  0  0  0  0  0  0
   57.8710   31.1280   43.1870 O   0  0  0  0  0  0  0  0  0  0  0  0
   56.3520   28.6780   45.2410 C   0  0  0  0  0  0  0  0  0  0  0  0
   56.3500   27.3400   45.6510 C   0  0  0  0  0  0  0  0  0  0  0  0
   55.1420   26.7350   45.9870 O   0  0  0  0  0  0  0  0  0  0  0  0
   57.1571   23.7995   43.0312 H   0  0  0  0  0  0  0  0  0  0  0  0
   56.4379   25.3978   43.7782 H   0  0  0  0  0  0  0  0  0  0  0  0
   58.3174   23.3433   45.1145 H   0  0  0  0  0  0  0  0  0  0  0  0
   56.6450   24.9708   46.7338 H   0  0  0  0  0  0  0  0  0  0  0  0
   58.4458   25.0434   46.8502 H   0  0  0  0  0  0  0  0  0  0  0  0
   59.7117   26.7196   45.4820 H   0  0  0  0  0  0  0  0  0  0  0  0
   59.7109   29.0994   44.7485 H   0  0  0  0  0  0  0  0  0  0  0  0
   56.4666   33.5426   44.5194 H   0  0  0  0  0  0  0  0  0  0  0  0
   59.3300   32.3380   46.3670 H   0  0  0  0  0  0  0  0  0  0  0  0
   60.9281   34.7468   45.8676 H   0  0  0  0  0  0  0  0  0  0  0  0
   60.0138   34.8451   47.4157 H   0  0  0  0  0  0  0  0  0  0  0  0
   64.1757   32.5948   50.2021 H   0  0  0  0  0  0  0  0  0  0  0  0
   64.9862   31.6710   48.8920 H   0  0  0  0  0  0  0  0  0  0  0  0
   65.0420   33.4664   48.8920 H   0  0  0  0  0  0  0  0  0  0  0  0
   57.0492   32.8548   42.3664 H   0  0  0  0  0  0  0  0  0  0  0  0
   58.7507   32.9938   42.7659 H   0  0  0  0  0  0  0  0  0  0  0  0
   55.4031   29.2309   45.1780 H   0  0  0  0  0  0  0  0  0  0  0  0
  1  2  2  0
  2  3  1  0
  3  4  1  0
  4  5  2  0
  5  6  1  0
  6  7  2  0
  7  8  1  0
  8  9  2  0
  9 10  1  0
 10 11  1  0
 11 12  2  0
 11 13  1  0
 13 14  1  0
 14 15  1  0
 15 16  2  0
 16 17  1  0
 17 18  1  0
 18 19  1  0
 18 20  2  0
 10 21  1  0
 21 22  1  0
  7 23  1  0
 23 24  2  0
 24 25  1  0
 24  4  1  0
 22  8  1  0
 20 15  1  0
  1 26  1  0
  1 27  1  0
  2 28  1  0
  3 29  1  0
  3 30  1  0
  5 31  1  0
  6 32  1  0
 10 33  1  6
 13 34  1  0
 14 35  1  0
 14 36  1  0
 19 37  1  0
 19 38  1  0
 19 39  1  0
 21 40  1  0
 21 41  1  0
 23 42  1  0
M  CHG  2  17  -1  25  -1
M  END
>  <UniqueID>  (61) 
54

>  <SMILES>  (61) 
C=CCc1ccc(C2=N[C@@H](C(=O)NCc3n[n-]c(C)n3)CO2)cc1[O-]

>  <Energy>  (61) 
80.83345058675413

>  <Genealogy>  (61) 
C=CCc1ccc(C2=NC(C(=O)NCc3n[n-]c(C)n3)CO2)cc1[O-] (protonated)
C=CCc1ccc(C2=N[C@@H](C(=O)NCc3n[n-]c(C)n3)CO2)cc1[O-] (chirality)
C=CCc1ccc(C2=N[C@@H](C(=O)NCc3n[n-]c(C)n3)CO2)cc1[O-] (3D coordinates assigned)
C=CCc1ccc(C2=N[C@@H](C(=O)NCc3n[n-]c(C)n3)CO2)cc1[O-] (nonaromatic ring conformer: 80.83345058675413 kcal/mol)

>  <smiles>  (61) 
C=CCc1ccc(C2=NC(C(=O)NCc3n[nH]c(C)n3)CO2)cc1O

>  <score_type>  (61) 
oracle

>  <origin>  (61) 
adg

>  <m_score__min__energy>  (61) 
-12.02

>  <m_primary>  (61) 
energy

$$$$
61:0
     RDKit          3D

 33 35  0  0  0  0  0  0  0  0999 V2000
   56.9730   20.0880   43.4800 H   0  0  0  0  0  0  0  0  0  0  0  0
   56.2240   20.7520   43.3330 O   0  0  0  0  0  0  0  0  0  0  0  0
   56.3020   22.0370   43.8580 C   0  0  0  0  0  0  0  0  0  0  0  0
   55.2750   22.6480   44.4800 N   0  0  0  0  0  0  0  0  0  0  0  0
   55.7540   23.8600   44.8300 C   0  0  0  0  0  0  0  0  0  0  0  0
   54.9570   24.8510   45.5790 C   0  0  0  0  0  0  0  0  0  0  0  0
   53.7030   24.8300   45.4770 O   0  0  0  0  0  0  0  0  0  0  0  0
   55.5620   25.7970   46.4740 N   0  0  0  0  0  0  0  0  0  0  0  0
   56.6950   26.4090   46.2820 C   0  0  0  0  0  0  0  0  0  0  0  0
   57.8750   25.8340   46.6520 N   0  0  0  0  0  0  0  0  0  0  0  0
   59.0720   26.4450   46.4460 C   0  0  0  0  0  0  0  0  0  0  0  0
   60.0023   25.9541   46.7677 H   0  0  0  0  0  0  0  0  0  0  0  0
   59.1210   27.6960   45.8260 C   0  0  0  0  0  0  0  0  0  0  0  0
   60.6940   28.5080   45.5460 S   0  0  0  0  0  0  0  0  0  0  0  0
   60.0820   30.0950   46.1170 C   0  0  0  0  0  0  0  0  0  0  0  0
   59.3020   30.8900   45.3560 N   0  0  0  0  0  0  0  0  0  0  0  0
   59.0460   31.9530   46.1460 C   0  0  0  0  0  0  0  0  0  0  0  0
   58.4332   32.8211   45.8614 H   0  0  0  0  0  0  0  0  0  0  0  0
   59.6690   31.7860   47.3640 C   0  0  0  0  0  0  0  0  0  0  0  0
   59.6285   32.4854   48.2120 H   0  0  0  0  0  0  0  0  0  0  0  0
   60.3340   30.6200   47.3340 N   0  0  0  0  0  0  0  0  0  0  0  0
   61.0640   30.0150   48.4420 C   0  0  0  0  0  0  0  0  0  0  0  0
   60.6408   30.3657   49.3949 H   0  0  0  0  0  0  0  0  0  0  0  0
   60.9778   28.9199   48.3835 H   0  0  0  0  0  0  0  0  0  0  0  0
   62.1240   30.3030   48.3835 H   0  0  0  0  0  0  0  0  0  0  0  0
   57.9280   28.3080   45.4340 C   0  0  0  0  0  0  0  0  0  0  0  0
   57.9489   29.2968   44.9525 H   0  0  0  0  0  0  0  0  0  0  0  0
   56.7080   27.6630   45.6540 C   0  0  0  0  0  0  0  0  0  0  0  0
   55.5220   28.2710   45.2550 O   0  0  0  0  0  0  0  0  0  0  0  0
   57.0770   24.0030   44.4460 C   0  0  0  0  0  0  0  0  0  0  0  0
   57.7213   24.8788   44.6129 H   0  0  0  0  0  0  0  0  0  0  0  0
   57.4250   22.8310   43.8140 C   0  0  0  0  0  0  0  0  0  0  0  0
   58.3984   22.5810   43.3667 H   0  0  0  0  0  0  0  0  0  0  0  0
  1  2  1  0
  2  3  1  0
  3  4  1  0
  4  5  1  0
  5  6  1  0
  6  7  2  0
  6  8  1  0
  8  9  2  0
  9 10  1  0
 10 11  1  0
 11 12  1  0
 11 13  2  0
 13 14  1  0
 14 15  1  0
 15 16  2  0
 16 17  1  0
 17 18  1  0
 17 19  2  0
 19 20  1  0
 19 21  1  0
 21 22  1  0
 22 23  1  0
 22 24  1  0
 22 25  1  0
 13 26  1  0
 26 27  1  0
 26 28  2  0
 28 29  1  0
  5 30  2  0
 30 31  1  0
 30 32  1  0
 32 33  1  0
 32  3  2  0
 28  9  1  0
 21 15  1  0
M  CHG  3   4  -1  10  -1  29  -1
M  END
>  <UniqueID>  (62) 
55

>  <SMILES>  (62) 
Cn1ccnc1Sc1c[n-]/c(=N\C(=O)c2ccc(O)[n-]2)c([O-])c1

>  <Energy>  (62) 
91.24378119484743

>  <Genealogy>  (62) 
Cn1ccnc1Sc1c[n-]c(=NC(=O)c2ccc(O)[n-]2)c([O-])c1 (protonated)
Cn1ccnc1Sc1c[n-]/c(=N\C(=O)c2ccc(O)[n-]2)c([O-])c1 (cis-trans isomerization)
Cn1ccnc1Sc1c[n-]/c(=N\C(=O)c2ccc(O)[n-]2)c([O-])c1 (3D coordinates assigned)
Cn1ccnc1Sc1c[n-]/c(=N\C(=O)c2ccc(O)[n-]2)c([O-])c1 (optimized conformer: 91.24378119484743 kcal/mol)

>  <smiles>  (62) 
Cn1ccnc1Sc1c[nH]c(=NC(=O)c2ccc(O)[nH]2)c(O)c1

>  <score_type>  (62) 
oracle

>  <origin>  (62) 
adg

>  <m_score__min__energy>  (62) 
-14.199999999999999

>  <m_primary>  (62) 
energy

$$$$
62:0
     RDKit          3D

 52 54  0  0  0  0  0  0  0  0999 V2000
   57.9200   24.1190   45.3030 C   0  0  0  0  0  0  0  0  0  0  0  0
   57.0230   25.2770   44.8630 C   0  0  0  0  0  0  0  0  0  0  0  0
   57.8380   26.3480   44.1350 C   0  0  0  0  0  0  0  0  0  0  0  0
   56.1750   25.9880   46.2730 S   0  0  0  0  0  0  0  0  0  0  0  0
   54.7640   26.3330   45.8890 O   0  0  0  0  0  0  0  0  0  0  0  0
   56.1470   24.9880   47.3940 O   0  0  0  0  0  0  0  0  0  0  0  0
   57.0320   27.4000   46.8080 N   0  0  0  0  0  0  0  0  0  0  0  0
   58.4020   27.3950   47.2210 C   0  0  0  0  0  0  0  0  0  0  0  0
   58.8360   26.4080   47.8720 O   0  0  0  0  0  0  0  0  0  0  0  0
   59.3270   28.4830   46.8650 C   0  0  0  0  0  0  0  0  0  0  0  0
   60.1390   28.5520   45.7480 C   0  0  0  0  0  0  0  0  0  0  0  0
   60.9040   29.6560   45.8080 N   0  0  0  0  0  0  0  0  0  0  0  0
   60.5900   30.2970   46.9530 C   0  0  0  0  0  0  0  0  0  0  0  0
   61.2570   31.5360   47.4160 C   0  0  0  0  0  0  0  0  0  0  0  0
   62.6510   31.6450   47.2640 C   0  0  0  0  0  0  0  0  0  0  0  0
   63.3310   32.7760   47.7210 C   0  0  0  0  0  0  0  0  0  0  0  0
   62.6290   33.8170   48.3250 C   0  0  0  0  0  0  0  0  0  0  0  0
   61.2430   33.7350   48.4710 C   0  0  0  0  0  0  0  0  0  0  0  0
   60.5430   32.5960   48.0310 C   0  0  0  0  0  0  0  0  0  0  0  0
   59.0630   32.5810   48.1080 C   0  0  0  0  0  0  0  0  0  0  0  0
   58.2420   33.1270   47.1980 C   0  0  0  0  0  0  0  0  0  0  0  0
   58.0600   32.6370   45.8120 C   0  0  0  0  0  0  0  0  0  0  0  0
   58.5180   33.3810   44.7130 C   0  0  0  0  0  0  0  0  0  0  0  0
   58.3060   32.9010   43.4230 C   0  0  0  0  0  0  0  0  0  0  0  0
   57.6270   31.6990   43.2300 C   0  0  0  0  0  0  0  0  0  0  0  0
   57.1510   30.9850   44.3420 C   0  0  0  0  0  0  0  0  0  0  0  0
   56.4160   29.7110   44.1560 C   0  0  0  0  0  0  0  0  0  0  0  0
   55.4300   29.2960   45.0990 N   0  0  0  0  0  0  0  0  0  0  0  0
   56.6590   28.9810   43.1580 O   0  0  0  0  0  0  0  0  0  0  0  0
   57.3710   31.4780   45.6000 N   0  0  0  0  0  0  0  0  0  0  0  0
   59.6260   29.5830   47.6460 C   0  0  0  0  0  0  0  0  0  0  0  0
   57.9523   24.0773   46.4017 H   0  0  0  0  0  0  0  0  0  0  0  0
   57.5164   23.1734   44.9119 H   0  0  0  0  0  0  0  0  0  0  0  0
   58.9364   24.2734   44.9119 H   0  0  0  0  0  0  0  0  0  0  0  0
   56.2701   24.8814   44.1654 H   0  0  0  0  0  0  0  0  0  0  0  0
   58.3321   26.9973   44.8727 H   0  0  0  0  0  0  0  0  0  0  0  0
   58.5986   25.8644   43.5045 H   0  0  0  0  0  0  0  0  0  0  0  0
   57.1692   26.9522   43.5045 H   0  0  0  0  0  0  0  0  0  0  0  0
   60.1565   27.8141   44.9324 H   0  0  0  0  0  0  0  0  0  0  0  0
   61.6100   29.9520   45.0970 H   0  0  0  0  0  0  0  0  0  0  0  0
   63.2113   30.8313   46.7803 H   0  0  0  0  0  0  0  0  0  0  0  0
   64.4226   32.8451   47.6039 H   0  0  0  0  0  0  0  0  0  0  0  0
   63.1677   34.7049   48.6874 H   0  0  0  0  0  0  0  0  0  0  0  0
   60.6933   34.5678   48.9339 H   0  0  0  0  0  0  0  0  0  0  0  0
   58.6034   32.0853   48.9758 H   0  0  0  0  0  0  0  0  0  0  0  0
   57.6584   34.0074   47.5052 H   0  0  0  0  0  0  0  0  0  0  0  0
   59.0405   34.3362   44.8697 H   0  0  0  0  0  0  0  0  0  0  0  0
   58.6742   33.4702   42.5567 H   0  0  0  0  0  0  0  0  0  0  0  0
   57.4650   31.3120   42.2131 H   0  0  0  0  0  0  0  0  0  0  0  0
   55.5140   28.3800   45.5940 H   0  0  0  0  0  0  0  0  0  0  0  0
   57.0170   30.9500   46.4290 H   0  0  0  0  0  0  0  0  0  0  0  0
   59.1871   29.8400   48.6214 H   0  0  0  0  0  0  0  0  0  0  0  0
  1  2  1  0
  2  3  1  0
  2  4  1  0
  4  5  2  0
  4  6  2  0
  4  7  1  0
  7  8  1  0
  8  9  2  0
  8 10  1  0
 10 11  2  0
 11 12  1  0
 12 13  1  0
 13 14  1  0
 14 15  2  0
 15 16  1  0
 16 17  2  0
 17 18  1  0
 18 19  2  0
 19 20  1  0
 20 21  2  3
 21 22  1  0
 22 23  2  0
 23 24  1  0
 24 25  2  0
 25 26  1  0
 26 27  1  0
 27 28  1  0
 27 29  2  0
 26 30  2  0
 13 31  2  0
 31 10  1  0
 19 14  1  0
 30 22  1  0
  1 32  1  0
  1 33  1  0
  1 34  1  0
  2 35  1  0
  3 36  1  0
  3 37  1  0
  3 38  1  0
 11 39  1  0
 12 40  1  0
 15 41  1  0
 16 42  1  0
 17 43  1  0
 18 44  1  0
 20 45  1  0
 21 46  1  0
 23 47  1  0
 24 48  1  0
 25 49  1  0
 28 50  1  0
 30 51  1  0
 31 52  1  0
M  CHG  3   7  -1  28  -1  30   1
M  END
>  <UniqueID>  (63) 
56

>  <SMILES>  (63) 
CC(C)S(=O)(=O)[N-]C(=O)c1c[nH]c(-c2ccccc2C=Cc2cccc(C([NH-])=O)[nH+]2)c1

>  <Energy>  (63) 
93.97887751094375

>  <Genealogy>  (63) 
CC(C)S(=O)(=O)[N-]C(=O)c1c[nH]c(-c2ccccc2C=Cc2cccc(C([NH-])=O)[nH+]2)c1 (protonated)
CC(C)S(=O)(=O)[N-]C(=O)c1c[nH]c(-c2ccccc2C=Cc2cccc(C([NH-])=O)[nH+]2)c1 (3D coordinates assigned)
CC(C)S(=O)(=O)[N-]C(=O)c1c[nH]c(-c2ccccc2C=Cc2cccc(C([NH-])=O)[nH+]2)c1 (optimized conformer: 93.97887751094375 kcal/mol)

>  <smiles>  (63) 
CC(C)S(=O)(=O)NC(=O)c1c[nH]c(-c2ccccc2C=Cc2cccc(C(N)=O)n2)c1

>  <score_type>  (63) 
oracle

>  <origin>  (63) 
adg

>  <m_score__min__energy>  (63) 
-13.130000000000001

>  <m_primary>  (63) 
energy

$$$$
63:0
     RDKit          3D

 54 56  0  0  0  0  0  0  0  0999 V2000
   53.7880   30.1930   51.7570 C   0  0  0  0  0  0  0  0  0  0  0  0
   55.2220   30.2320   52.1610 C   0  0  0  0  0  0  0  0  0  0  0  0
   56.1290   31.0680   51.6130 N   0  0  0  0  0  0  0  0  0  0  0  0
   57.3850   30.8610   52.1030 C   0  0  0  0  0  0  0  0  0  0  0  0
   58.5410   31.6680   51.6380 C   0  0  0  0  0  0  0  0  0  0  0  0
   59.7550   31.0600   51.2660 C   0  0  0  0  0  0  0  0  0  0  0  0
   60.8320   31.8350   50.8280 C   0  0  0  0  0  0  0  0  0  0  0  0
   60.7160   33.2300   50.7420 C   0  0  0  0  0  0  0  0  0  0  0  0
   61.8740   34.0560   50.2420 C   0  0  0  0  0  0  0  0  0  0  0  0
   61.8110   34.2040   48.7910 N   0  0  0  0  0  0  0  0  0  0  0  0
   61.2290   33.2500   47.8950 C   0  0  0  0  0  0  0  0  0  0  0  0
   61.9860   32.5540   47.1680 O   0  0  0  0  0  0  0  0  0  0  0  0
   59.8080   33.0530   47.8330 N   0  0  0  0  0  0  0  0  0  0  0  0
   58.9390   34.1540   47.3900 C   0  0  0  0  0  0  0  0  0  0  0  0
   57.8390   33.6480   46.4400 C   0  0  0  0  0  0  0  0  0  0  0  0
   58.3600   32.4760   45.5900 C   0  0  0  0  0  0  0  0  0  0  0  0
   57.3380   32.0830   44.5470 C   0  0  0  0  0  0  0  0  0  0  0  0
   57.4190   32.6030   43.4020 O   0  0  0  0  0  0  0  0  0  0  0  0
   56.3010   31.1090   44.7680 N   0  0  0  0  0  0  0  0  0  0  0  0
   56.1110   29.7570   44.2330 C   0  0  0  0  0  0  0  0  0  0  0  0
   56.2840   29.7020   42.7100 C   0  0  0  0  0  0  0  0  0  0  0  0
   56.9560   28.7170   44.9780 C   0  0  0  0  0  0  0  0  0  0  0  0
   58.7530   31.2680   46.4810 C   0  0  0  0  0  0  0  0  0  0  0  0
   59.2630   31.6930   47.8710 C   0  0  0  0  0  0  0  0  0  0  0  0
   59.5160   33.8420   51.1340 C   0  0  0  0  0  0  0  0  0  0  0  0
   58.4410   33.0690   51.5780 C   0  0  0  0  0  0  0  0  0  0  0  0
   57.4760   29.8260   53.0380 C   0  0  0  0  0  0  0  0  0  0  0  0
   55.9420   29.1710   53.2440 S   0  0  0  0  0  0  0  0  0  0  0  0
   53.1542   30.1758   52.6559 H   0  0  0  0  0  0  0  0  0  0  0  0
   53.5513   31.0850   51.1585 H   0  0  0  0  0  0  0  0  0  0  0  0
   53.6001   29.2894   51.1585 H   0  0  0  0  0  0  0  0  0  0  0  0
   59.8565   29.9661   51.3206 H   0  0  0  0  0  0  0  0  0  0  0  0
   61.7776   31.3475   50.5486 H   0  0  0  0  0  0  0  0  0  0  0  0
   61.8363   35.0513   50.7089 H   0  0  0  0  0  0  0  0  0  0  0  0
   62.8127   33.5471   50.5061 H   0  0  0  0  0  0  0  0  0  0  0  0
   58.4681   34.6157   48.2704 H   0  0  0  0  0  0  0  0  0  0  0  0
   59.5551   34.8878   46.8496 H   0  0  0  0  0  0  0  0  0  0  0  0
   56.9759   33.3102   47.0325 H   0  0  0  0  0  0  0  0  0  0  0  0
   57.5410   34.4686   45.7708 H   0  0  0  0  0  0  0  0  0  0  0  0
   59.2698   32.8068   45.0677 H   0  0  0  0  0  0  0  0  0  0  0  0
   55.0625   29.4824   44.4209 H   0  0  0  0  0  0  0  0  0  0  0  0
   57.3068   29.3768   42.4687 H   0  0  0  0  0  0  0  0  0  0  0  0
   55.5625   28.9889   42.2845 H   0  0  0  0  0  0  0  0  0  0  0  0
   56.1068   30.7008   42.2845 H   0  0  0  0  0  0  0  0  0  0  0  0
   56.8403   28.8594   46.0626 H   0  0  0  0  0  0  0  0  0  0  0  0
   56.6199   27.7064   44.7030 H   0  0  0  0  0  0  0  0  0  0  0  0
   58.0140   28.8391   44.7030 H   0  0  0  0  0  0  0  0  0  0  0  0
   57.8697   30.6257   46.6119 H   0  0  0  0  0  0  0  0  0  0  0  0
   59.5726   30.7362   45.9756 H   0  0  0  0  0  0  0  0  0  0  0  0
   58.4286   31.6589   48.5870 H   0  0  0  0  0  0  0  0  0  0  0  0
   60.0614   31.0021   48.1796 H   0  0  0  0  0  0  0  0  0  0  0  0
   59.4213   34.9371   51.0914 H   0  0  0  0  0  0  0  0  0  0  0  0
   57.5062   33.5615   51.8840 H   0  0  0  0  0  0  0  0  0  0  0  0
   58.3924   29.4973   53.5500 H   0  0  0  0  0  0  0  0  0  0  0  0
  1  2  1  0
  2  3  2  0
  3  4  1  0
  4  5  1  0
  5  6  2  0
  6  7  1  0
  7  8  2  0
  8  9  1  0
  9 10  1  0
 10 11  1  0
 11 12  2  0
 11 13  1  0
 13 14  1  0
 14 15  1  0
 15 16  1  0
 16 17  1  0
 17 18  2  0
 17 19  1  0
 19 20  1  0
 20 21  1  0
 20 22  1  0
 16 23  1  0
 23 24  1  0
  8 25  1  0
 25 26  2  0
  4 27  2  0
 27 28  1  0
 28  2  1  0
 26  5  1  0
 24 13  1  0
  1 29  1  0
  1 30  1  0
  1 31  1  0
  6 32  1  0
  7 33  1  0
  9 34  1  0
  9 35  1  0
 14 36  1  0
 14 37  1  0
 15 38  1  0
 15 39  1  0
 16 40  1  0
 20 41  1  0
 21 42  1  0
 21 43  1  0
 21 44  1  0
 22 45  1  0
 22 46  1  0
 22 47  1  0
 23 48  1  0
 23 49  1  0
 24 50  1  0
 24 51  1  0
 25 52  1  0
 26 53  1  0
 27 54  1  0
M  CHG  2  10  -1  19  -1
M  END
>  <UniqueID>  (64) 
57

>  <SMILES>  (64) 
Cc1nc(-c2ccc(C[N-]C(=O)N3CCC(C(=O)[N-]C(C)C)CC3)cc2)cs1

>  <Energy>  (64) 
88.50590285936548

>  <Genealogy>  (64) 
Cc1nc(-c2ccc(C[N-]C(=O)N3CCC(C(=O)[N-]C(C)C)CC3)cc2)cs1 (protonated)
Cc1nc(-c2ccc(C[N-]C(=O)N3CCC(C(=O)[N-]C(C)C)CC3)cc2)cs1 (3D coordinates assigned)
Cc1nc(-c2ccc(C[N-]C(=O)N3CCC(C(=O)[N-]C(C)C)CC3)cc2)cs1 (nonaromatic ring conformer: 88.50590285936548 kcal/mol)

>  <smiles>  (64) 
Cc1nc(-c2ccc(CNC(=O)N3CCC(C(=O)NC(C)C)CC3)cc2)cs1

>  <score_type>  (64) 
oracle

>  <origin>  (64) 
adg

>  <m_score__min__energy>  (64) 
-11.609999999999999

>  <m_primary>  (64) 
energy

$$$$
64:0
     RDKit          3D

 33 35  0  0  0  0  0  0  0  0999 V2000
   55.6820   30.4280   44.4970 N   0  0  0  0  0  0  0  0  0  0  0  0
   56.7160   31.1930   43.8820 C   0  0  0  0  0  0  0  0  0  0  0  0
   56.6570   31.4250   42.6450 O   0  0  0  0  0  0  0  0  0  0  0  0
   57.8290   31.7550   44.6890 C   0  0  0  0  0  0  0  0  0  0  0  0
   58.1400   33.1190   44.5370 C   0  0  0  0  0  0  0  0  0  0  0  0
   59.1240   33.7190   45.3250 C   0  0  0  0  0  0  0  0  0  0  0  0
   59.8130   32.9690   46.2750 C   0  0  0  0  0  0  0  0  0  0  0  0
   59.5340   31.6110   46.4290 C   0  0  0  0  0  0  0  0  0  0  0  0
   58.5560   30.9850   45.6360 C   0  0  0  0  0  0  0  0  0  0  0  0
   58.3760   29.5210   45.7780 C   0  0  0  0  0  0  0  0  0  0  0  0
   58.3780   28.6950   44.6430 C   0  0  0  0  0  0  0  0  0  0  0  0
   58.1940   27.3160   44.7740 C   0  0  0  0  0  0  0  0  0  0  0  0
   58.0090   26.7420   46.0440 C   0  0  0  0  0  0  0  0  0  0  0  0
   57.8100   25.3650   46.2160 O   0  0  0  0  0  0  0  0  0  0  0  0
   56.5830   24.7080   46.0750 C   0  0  0  0  0  0  0  0  0  0  0  0
   56.3420   23.3480   46.0530 C   0  0  0  0  0  0  0  0  0  0  0  0
   54.9700   23.2160   45.9400 C   0  0  0  0  0  0  0  0  0  0  0  0
   54.3610   24.4220   45.9030 N   0  0  0  0  0  0  0  0  0  0  0  0
   55.3580   25.3220   45.9910 C   0  0  0  0  0  0  0  0  0  0  0  0
   55.1510   26.6940   45.9960 O   0  0  0  0  0  0  0  0  0  0  0  0
   57.9710   27.5720   47.1700 C   0  0  0  0  0  0  0  0  0  0  0  0
   58.1560   28.9510   47.0420 C   0  0  0  0  0  0  0  0  0  0  0  0
   54.7630   30.8630   44.7370 H   0  0  0  0  0  0  0  0  0  0  0  0
   57.6017   33.7193   43.7888 H   0  0  0  0  0  0  0  0  0  0  0  0
   59.3556   34.7865   45.1952 H   0  0  0  0  0  0  0  0  0  0  0  0
   60.5777   33.4479   46.9043 H   0  0  0  0  0  0  0  0  0  0  0  0
   60.0847   31.0237   47.1785 H   0  0  0  0  0  0  0  0  0  0  0  0
   58.5251   29.1353   43.6458 H   0  0  0  0  0  0  0  0  0  0  0  0
   58.1939   26.6764   43.8791 H   0  0  0  0  0  0  0  0  0  0  0  0
   57.0855   22.5395   46.1128 H   0  0  0  0  0  0  0  0  0  0  0  0
   54.4418   22.2525   45.8870 H   0  0  0  0  0  0  0  0  0  0  0  0
   57.7941   27.1352   48.1639 H   0  0  0  0  0  0  0  0  0  0  0  0
   58.1292   29.5926   47.9351 H   0  0  0  0  0  0  0  0  0  0  0  0
  1  2  1  0
  2  3  2  0
  2  4  1  0
  4  5  2  0
  5  6  1  0
  6  7  2  0
  7  8  1  0
  8  9  2  0
  9 10  1  0
 10 11  2  0
 11 12  1  0
 12 13  2  0
 13 14  1  0
 14 15  1  0
 15 16  1  0
 16 17  2  0
 17 18  1  0
 18 19  1  0
 19 20  1  0
 13 21  1  0
 21 22  2  0
  9  4  1  0
 22 10  1  0
 19 15  2  0
  1 23  1  0
  5 24  1  0
  6 25  1  0
  7 26  1  0
  8 27  1  0
 11 28  1  0
 12 29  1  0
 16 30  1  0
 17 31  1  0
 21 32  1  0
 22 33  1  0
M  CHG  3   1  -1  18  -1  20  -1
M  END
>  <UniqueID>  (65) 
58

>  <SMILES>  (65) 
[NH-]C(=O)c1ccccc1-c1ccc(Oc2cc[n-]c2[O-])cc1

>  <Energy>  (65) 
78.30119071085447

>  <Genealogy>  (65) 
[NH-]C(=O)c1ccccc1-c1ccc(Oc2cc[n-]c2[O-])cc1 (protonated)
[NH-]C(=O)c1ccccc1-c1ccc(Oc2cc[n-]c2[O-])cc1 (3D coordinates assigned)
[NH-]C(=O)c1ccccc1-c1ccc(Oc2cc[n-]c2[O-])cc1 (optimized conformer: 78.30119071085447 kcal/mol)

>  <smiles>  (65) 
NC(=O)c1ccccc1-c1ccc(Oc2cc[nH]c2O)cc1

>  <score_type>  (65) 
oracle

>  <origin>  (65) 
adg

>  <m_score__min__energy>  (65) 
-14.109999999999999

>  <m_primary>  (65) 
energy

$$$$
65:0
     RDKit          3D

 43 45  0  0  0  0  0  0  0  0999 V2000
   60.5570   29.1870   46.9220 O   0  0  0  0  0  0  0  0  0  0  0  0
   59.5820   29.8180   46.4250 C   0  0  0  0  0  0  0  0  0  0  0  0
   58.8700   29.2550   45.3520 C   0  0  0  0  0  0  0  0  0  0  0  0
   59.2040   28.0040   44.7980 C   0  0  0  0  0  0  0  0  0  0  0  0
   58.4630   27.4910   43.7280 C   0  0  0  0  0  0  0  0  0  0  0  0
   57.3900   28.2170   43.2040 C   0  0  0  0  0  0  0  0  0  0  0  0
   57.0530   29.4600   43.7480 C   0  0  0  0  0  0  0  0  0  0  0  0
   57.7900   29.9770   44.8210 C   0  0  0  0  0  0  0  0  0  0  0  0
   57.4540   31.1730   45.3570 N   0  0  0  0  0  0  0  0  0  0  0  0
   58.1380   31.7090   46.3990 C   0  0  0  0  0  0  0  0  0  0  0  0
   57.5460   33.2880   47.0380 S   0  0  0  0  0  0  0  0  0  0  0  0
   57.8030   34.2080   45.4760 C   0  0  0  0  0  0  0  0  0  0  0  0
   59.2920   34.4390   45.1910 C   0  0  0  0  0  0  0  0  0  0  0  0
   60.0470   35.0440   46.3770 C   0  0  0  0  0  0  0  0  0  0  0  0
   60.6950   34.0210   47.1260 O   0  0  0  0  0  0  0  0  0  0  0  0
   61.9040   33.4800   46.7340 N   0  0  0  0  0  0  0  0  0  0  0  0
   62.8440   34.2110   46.3580 O   0  0  0  0  0  0  0  0  0  0  0  0
   62.0770   32.1180   46.7680 O   0  0  0  0  0  0  0  0  0  0  0  0
   59.2240   31.0460   46.9350 N   0  0  0  0  0  0  0  0  0  0  0  0
   59.9850   31.6060   48.0000 N   0  0  0  0  0  0  0  0  0  0  0  0
   59.2550   31.4770   49.2410 C   0  0  0  0  0  0  0  0  0  0  0  0
   58.9000   32.6190   49.9830 C   0  0  0  0  0  0  0  0  0  0  0  0
   58.1870   32.4930   51.1800 C   0  0  0  0  0  0  0  0  0  0  0  0
   57.8260   31.2270   51.6480 C   0  0  0  0  0  0  0  0  0  0  0  0
   58.1770   30.0870   50.9220 C   0  0  0  0  0  0  0  0  0  0  0  0
   58.8890   30.2080   49.7250 C   0  0  0  0  0  0  0  0  0  0  0  0
   60.0483   27.4297   45.2070 H   0  0  0  0  0  0  0  0  0  0  0  0
   58.7257   26.5133   43.2978 H   0  0  0  0  0  0  0  0  0  0  0  0
   56.8100   27.8100   42.3626 H   0  0  0  0  0  0  0  0  0  0  0  0
   56.2095   30.0316   43.3336 H   0  0  0  0  0  0  0  0  0  0  0  0
   57.3668   33.6314   44.6470 H   0  0  0  0  0  0  0  0  0  0  0  0
   57.3165   35.1898   45.5728 H   0  0  0  0  0  0  0  0  0  0  0  0
   59.7536   33.4728   44.9391 H   0  0  0  0  0  0  0  0  0  0  0  0
   59.3579   35.1578   44.3610 H   0  0  0  0  0  0  0  0  0  0  0  0
   60.8008   35.7527   46.0035 H   0  0  0  0  0  0  0  0  0  0  0  0
   59.3299   35.5642   47.0290 H   0  0  0  0  0  0  0  0  0  0  0  0
   60.1890   32.6100   47.7840 H   0  0  0  0  0  0  0  0  0  0  0  0
   60.9160   31.1480   48.1010 H   0  0  0  0  0  0  0  0  0  0  0  0
   59.1851   33.6172   49.6193 H   0  0  0  0  0  0  0  0  0  0  0  0
   57.9106   33.3906   51.7527 H   0  0  0  0  0  0  0  0  0  0  0  0
   57.2649   31.1282   52.5890 H   0  0  0  0  0  0  0  0  0  0  0  0
   57.8925   29.0912   51.2929 H   0  0  0  0  0  0  0  0  0  0  0  0
   59.1645   29.3061   49.1587 H   0  0  0  0  0  0  0  0  0  0  0  0
  1  2  2  0
  2  3  1  0
  3  4  2  0
  4  5  1  0
  5  6  2  0
  6  7  1  0
  7  8  2  0
  8  9  1  0
  9 10  2  0
 10 11  1  0
 11 12  1  0
 12 13  1  0
 13 14  1  0
 14 15  1  0
 15 16  1  0
 16 17  2  0
 16 18  1  0
 10 19  1  0
 19 20  1  0
 20 21  1  0
 21 22  2  0
 22 23  1  0
 23 24  2  0
 24 25  1  0
 25 26  2  0
 19  2  1  0
 26 21  1  0
  8  3  1  0
  4 27  1  0
  5 28  1  0
  6 29  1  0
  7 30  1  0
 12 31  1  0
 12 32  1  0
 13 33  1  0
 13 34  1  0
 14 35  1  0
 14 36  1  0
 20 37  1  0
 20 38  1  0
 22 39  1  0
 23 40  1  0
 24 41  1  0
 25 42  1  0
 26 43  1  0
M  CHG  3  16   1  18  -1  20   1
M  END
>  <UniqueID>  (66) 
59

>  <SMILES>  (66) 
O=c1c2ccccc2nc(SCCCO[N+](=O)[O-])n1[NH2+]c1ccccc1

>  <Energy>  (66) 
48.02596416961148

>  <Genealogy>  (66) 
O=c1c2ccccc2nc(SCCCO[N+](=O)[O-])n1[NH2+]c1ccccc1 (protonated)
O=c1c2ccccc2nc(SCCCO[N+](=O)[O-])n1[NH2+]c1ccccc1 (3D coordinates assigned)
O=c1c2ccccc2nc(SCCCO[N+](=O)[O-])n1[NH2+]c1ccccc1 (optimized conformer: 48.02596416961148 kcal/mol)

>  <smiles>  (66) 
O=c1c2ccccc2nc(SCCCO[N+](=O)[O-])n1Nc1ccccc1

>  <score_type>  (66) 
oracle

>  <origin>  (66) 
adg

>  <m_score__min__energy>  (66) 
-5.6900000000000004

>  <m_primary>  (66) 
energy

$$$$
66:0
     RDKit          3D

 53 55  0  0  0  0  0  0  0  0999 V2000
   54.6950   27.0900   45.9300 H   0  0  0  0  0  0  0  0  0  0  0  0
   59.0070   25.2910   47.0640 N   0  0  0  0  0  0  0  0  0  0  0  0
   57.7800   24.8850   46.9360 C   0  0  0  0  0  0  0  0  0  0  0  0
   55.2240   24.0000   46.6740 N   0  0  0  0  0  0  0  0  0  0  0  0
   56.1760   23.1710   47.1800 C   0  0  0  0  0  0  0  0  0  0  0  0
   55.8370   21.8230   47.5650 N   0  0  0  0  0  0  0  0  0  0  0  0
   56.5640   20.6930   46.9750 C   0  0  0  0  0  0  0  0  0  0  0  0
   56.9712   20.0600   47.7772 H   0  0  0  0  0  0  0  0  0  0  0  0
   55.8775   20.1000   46.3528 H   0  0  0  0  0  0  0  0  0  0  0  0
   57.3882   21.0719   46.3528 H   0  0  0  0  0  0  0  0  0  0  0  0
   54.7490   21.5930   48.5200 C   0  0  0  0  0  0  0  0  0  0  0  0
   55.1379   21.6752   49.5457 H   0  0  0  0  0  0  0  0  0  0  0  0
   53.9606   22.3443   48.3655 H   0  0  0  0  0  0  0  0  0  0  0  0
   54.3321   20.5869   48.3655 H   0  0  0  0  0  0  0  0  0  0  0  0
   57.4520   23.6220   47.3080 N   0  0  0  0  0  0  0  0  0  0  0  0
   55.5450   25.2660   46.2980 C   0  0  0  0  0  0  0  0  0  0  0  0
   54.6400   26.0520   45.8110 N   0  0  0  0  0  0  0  0  0  0  0  0
   59.6140   26.3390   46.2490 C   0  0  0  0  0  0  0  0  0  0  0  0
   60.5158   25.9404   45.7613 H   0  0  0  0  0  0  0  0  0  0  0  0
   58.8847   26.6665   45.4935 H   0  0  0  0  0  0  0  0  0  0  0  0
   60.0030   27.5500   47.1200 C   0  0  0  0  0  0  0  0  0  0  0  0
   59.5366   27.4236   48.1082 H   0  0  0  0  0  0  0  0  0  0  0  0
   61.1024   27.5634   47.1547 H   0  0  0  0  0  0  0  0  0  0  0  0
   59.5890   28.8680   46.5810 N   0  0  0  0  0  0  0  0  0  0  0  0
   60.3210   30.0030   47.1780 C   0  0  0  0  0  0  0  0  0  0  0  0
   61.2936   29.6533   47.5545 H   0  0  0  0  0  0  0  0  0  0  0  0
   60.4776   30.7779   46.4131 H   0  0  0  0  0  0  0  0  0  0  0  0
   59.5230   30.5800   48.3150 C   0  0  0  0  0  0  0  0  0  0  0  0
   59.2240   31.9530   48.3350 C   0  0  0  0  0  0  0  0  0  0  0  0
   59.5940   32.6061   47.5309 H   0  0  0  0  0  0  0  0  0  0  0  0
   58.4580   32.4920   49.3730 C   0  0  0  0  0  0  0  0  0  0  0  0
   58.2311   33.5683   49.3861 H   0  0  0  0  0  0  0  0  0  0  0  0
   57.9800   31.6660   50.3940 C   0  0  0  0  0  0  0  0  0  0  0  0
   57.3764   32.0922   51.2089 H   0  0  0  0  0  0  0  0  0  0  0  0
   58.2690   30.2970   50.3800 C   0  0  0  0  0  0  0  0  0  0  0  0
   57.7910   29.4750   51.3940 O   0  0  0  0  0  0  0  0  0  0  0  0
   59.0370   29.7540   49.3430 C   0  0  0  0  0  0  0  0  0  0  0  0
   59.2608   28.6771   49.3328 H   0  0  0  0  0  0  0  0  0  0  0  0
   58.1250   29.0810   46.5670 C   0  0  0  0  0  0  0  0  0  0  0  0
   57.6169   28.1092   46.6532 H   0  0  0  0  0  0  0  0  0  0  0  0
   57.8514   29.7282   47.4133 H   0  0  0  0  0  0  0  0  0  0  0  0
   57.7010   29.7510   45.2830 C   0  0  0  0  0  0  0  0  0  0  0  0
   58.5590   30.6920   44.6880 C   0  0  0  0  0  0  0  0  0  0  0  0
   59.5231   30.9279   45.1623 H   0  0  0  0  0  0  0  0  0  0  0  0
   58.1970   31.3300   43.4990 C   0  0  0  0  0  0  0  0  0  0  0  0
   58.8785   32.0599   43.0377 H   0  0  0  0  0  0  0  0  0  0  0  0
   56.9700   31.0420   42.8950 C   0  0  0  0  0  0  0  0  0  0  0  0
   56.6110   31.6750   41.7110 O   0  0  0  0  0  0  0  0  0  0  0  0
   56.1020   30.1160   43.4820 C   0  0  0  0  0  0  0  0  0  0  0  0
   55.1351   29.8936   43.0069 H   0  0  0  0  0  0  0  0  0  0  0  0
   56.4590   29.4710   44.6720 C   0  0  0  0  0  0  0  0  0  0  0  0
   55.5750   28.5570   45.2340 O   0  0  0  0  0  0  0  0  0  0  0  0
   56.8210   25.7050   46.4280 N   0  0  0  0  0  0  0  0  0  0  0  0
  1  2  1  0
  2  3  2  0
  3  4  1  0
  4  5  2  0
  5  6  1  0
  6  7  1  0
  7  8  1  0
  7  9  1  0
  7 10  1  0
  6 11  1  0
 11 12  1  0
 11 13  1  0
 11 14  1  0
  5 15  1  0
 15 16  1  0
 16 17  2  0
 17 18  1  0
 18 19  1  0
 18 20  1  0
 18 21  1  0
 21 22  1  0
 21 23  1  0
 21 24  1  0
 24 25  1  0
 25 26  1  0
 25 27  1  0
 25 28  1  0
 28 29  2  0
 29 30  1  0
 29 31  1  0
 31 32  1  0
 31 33  2  0
 33 34  1  0
 33 35  1  0
 35 36  1  0
 35 37  2  0
 37 38  1  0
 24 39  1  0
 39 40  1  0
 39 41  1  0
 39 42  1  0
 42 43  2  0
 43 44  1  0
 43 45  1  0
 45 46  1  0
 45 47  2  0
 47 48  1  0
 47 49  1  0
 49 50  1  0
 49 51  2  0
 51 52  1  0
 16 53  1  0
 53  3  1  0
 37 28  1  0
 51 42  1  0
M  CHG  5  15  -1  36  -1  48  -1  52  -1  53  -1
M  END
>  <UniqueID>  (67) 
60

>  <SMILES>  (67) 
[H]/N=c1\nc(N(C)C)[n-]/c(=N/CCN(Cc2cccc([O-])c2)Cc2ccc([O-])cc2[O-])[n-]1

>  <Energy>  (67) 
56.163679762009856

>  <Genealogy>  (67) 
CN(C)c1nc(=N)[n-]c(=NCCN(Cc2cccc([O-])c2)Cc2ccc([O-])cc2[O-])[n-]1 (protonated)
[H]/N=c1\nc(N(C)C)[n-]/c(=N/CCN(Cc2cccc([O-])c2)Cc2ccc([O-])cc2[O-])[n-]1 (cis-trans isomerization)
[H]/N=c1\nc(N(C)C)[n-]/c(=N/CCN(Cc2cccc([O-])c2)Cc2ccc([O-])cc2[O-])[n-]1 (3D coordinates assigned)
[H]/N=c1\nc(N(C)C)[n-]/c(=N/CCN(Cc2cccc([O-])c2)Cc2ccc([O-])cc2[O-])[n-]1 (optimized conformer: 56.163679762009856 kcal/mol)

>  <smiles>  (67) 
CN(C)c1nc(=N)[nH]c(=NCCN(Cc2cccc(O)c2)Cc2ccc(O)cc2O)[nH]1

>  <score_type>  (67) 
oracle

>  <origin>  (67) 
adg

>  <m_score__min__energy>  (67) 
-18.190000000000001

>  <m_primary>  (67) 
energy

$$$$
67:0
     RDKit          3D

 39 41  0  0  0  0  0  0  0  0999 V2000
   56.7660   32.7330   44.5330 H   0  0  0  0  0  0  0  0  0  0  0  0
   57.1300   33.6180   44.8640 O   0  0  0  0  0  0  0  0  0  0  0  0
   58.2450   33.6840   45.6990 C   0  0  0  0  0  0  0  0  0  0  0  0
   58.9300   34.8960   45.8650 C   0  0  0  0  0  0  0  0  0  0  0  0
   58.5864   35.7966   45.3351 H   0  0  0  0  0  0  0  0  0  0  0  0
   60.0460   34.9640   46.7000 C   0  0  0  0  0  0  0  0  0  0  0  0
   60.5841   35.9155   46.8230 H   0  0  0  0  0  0  0  0  0  0  0  0
   60.4790   33.8240   47.3790 C   0  0  0  0  0  0  0  0  0  0  0  0
   61.3574   33.8792   48.0389 H   0  0  0  0  0  0  0  0  0  0  0  0
   59.8000   32.6130   47.2230 C   0  0  0  0  0  0  0  0  0  0  0  0
   60.1414   31.7206   47.7681 H   0  0  0  0  0  0  0  0  0  0  0  0
   58.6810   32.5280   46.3720 C   0  0  0  0  0  0  0  0  0  0  0  0
   57.9530   31.3060   46.1710 N   0  0  0  0  0  0  0  0  0  0  0  0
   57.3190   30.6820   44.6790 S   0  0  0  0  0  0  0  0  0  0  0  0
   58.0960   31.3020   43.5520 O   0  0  0  0  0  0  0  0  0  0  0  0
   55.8760   31.0610   44.5030 O   0  0  0  0  0  0  0  0  0  0  0  0
   57.5070   28.9280   44.6270 C   0  0  0  0  0  0  0  0  0  0  0  0
   57.6480   28.2660   43.4020 C   0  0  0  0  0  0  0  0  0  0  0  0
   57.6420   28.8411   42.4643 H   0  0  0  0  0  0  0  0  0  0  0  0
   57.7960   26.8800   43.3660 C   0  0  0  0  0  0  0  0  0  0  0  0
   57.8958   26.3687   42.3972 H   0  0  0  0  0  0  0  0  0  0  0  0
   57.8190   26.1320   44.5490 C   0  0  0  0  0  0  0  0  0  0  0  0
   57.9540   24.3830   44.3880 Cl  0  0  0  0  0  0  0  0  0  0  0  0
   57.6970   26.7880   45.8010 C   0  0  0  0  0  0  0  0  0  0  0  0
   57.7380   26.0590   47.0980 C   0  0  0  0  0  0  0  0  0  0  0  0
   58.6910   26.2360   47.9030 O   0  0  0  0  0  0  0  0  0  0  0  0
   56.6170   25.2560   47.5010 N   0  0  0  0  0  0  0  0  0  0  0  0
   55.8410   24.4980   46.7760 C   0  0  0  0  0  0  0  0  0  0  0  0
   56.0580   23.1550   46.8170 N   0  0  0  0  0  0  0  0  0  0  0  0
   55.3210   22.2690   46.0980 C   0  0  0  0  0  0  0  0  0  0  0  0
   55.5379   21.1925   46.1622 H   0  0  0  0  0  0  0  0  0  0  0  0
   54.2900   22.7250   45.2790 C   0  0  0  0  0  0  0  0  0  0  0  0
   53.7007   22.0156   44.6795 H   0  0  0  0  0  0  0  0  0  0  0  0
   54.0140   24.0900   45.2280 C   0  0  0  0  0  0  0  0  0  0  0  0
   53.1998   24.4611   44.5881 H   0  0  0  0  0  0  0  0  0  0  0  0
   54.7680   24.9890   45.9870 C   0  0  0  0  0  0  0  0  0  0  0  0
   54.4010   26.3300   45.9760 O   0  0  0  0  0  0  0  0  0  0  0  0
   57.5300   28.1870   45.8140 C   0  0  0  0  0  0  0  0  0  0  0  0
   57.4154   28.7072   46.7764 H   0  0  0  0  0  0  0  0  0  0  0  0
  1  2  1  0
  2  3  1  0
  3  4  2  0
  4  5  1  0
  4  6  1  0
  6  7  1  0
  6  8  2  0
  8  9  1  0
  8 10  1  0
 10 11  1  0
 10 12  2  0
 12 13  1  0
 13 14  1  0
 14 15  2  0
 14 16  2  0
 14 17  1  0
 17 18  2  0
 18 19  1  0
 18 20  1  0
 20 21  1  0
 20 22  2  0
 22 23  1  0
 22 24  1  0
 24 25  1  0
 25 26  2  0
 25 27  1  0
 27 28  2  0
 28 29  1  0
 29 30  1  0
 30 31  1  0
 30 32  2  0
 32 33  1  0
 32 34  1  0
 34 35  1  0
 34 36  2  0
 36 37  1  0
 24 38  2  0
 38 39  1  0
 12  3  1  0
 38 17  1  0
 36 28  1  0
M  CHG  3  13  -1  29  -1  37  -1
M  END
>  <UniqueID>  (68) 
61

>  <SMILES>  (68) 
O=C(/N=c1/[n-]cccc1[O-])c1cc(S(=O)(=O)[N-]c2ccccc2O)ccc1Cl

>  <Energy>  (68) 
64.35077484095315

>  <Genealogy>  (68) 
O=C(N=c1[n-]cccc1[O-])c1cc(S(=O)(=O)[N-]c2ccccc2O)ccc1Cl (protonated)
O=C(/N=c1/[n-]cccc1[O-])c1cc(S(=O)(=O)[N-]c2ccccc2O)ccc1Cl (cis-trans isomerization)
O=C(/N=c1/[n-]cccc1[O-])c1cc(S(=O)(=O)[N-]c2ccccc2O)ccc1Cl (3D coordinates assigned)
O=C(/N=c1/[n-]cccc1[O-])c1cc(S(=O)(=O)[N-]c2ccccc2O)ccc1Cl (optimized conformer: 64.35077484095315 kcal/mol)

>  <smiles>  (68) 
O=C(N=c1[nH]cccc1O)c1cc(S(=O)(=O)Nc2ccccc2O)ccc1Cl

>  <score_type>  (68) 
oracle

>  <origin>  (68) 
adg

>  <m_score__min__energy>  (68) 
-14.619999999999999

>  <m_primary>  (68) 
energy

$$$$
68:0
     RDKit          3D

 34 36  0  0  0  0  0  0  0  0999 V2000
   59.7640   35.3590   46.3830 C   0  0  0  0  0  0  0  0  0  0  0  0
   59.6110   34.5050   47.6010 C   0  0  0  0  0  0  0  0  0  0  0  0
   60.4280   34.5700   48.6660 N   0  0  0  0  0  0  0  0  0  0  0  0
   59.9320   33.6430   49.5120 C   0  0  0  0  0  0  0  0  0  0  0  0
   58.8470   32.9960   49.0360 N   0  0  0  0  0  0  0  0  0  0  0  0
   58.6530   33.5390   47.8210 C   0  0  0  0  0  0  0  0  0  0  0  0
   57.5060   33.1790   46.9270 C   0  0  0  0  0  0  0  0  0  0  0  0
   58.0930   32.3160   45.4790 S   0  0  0  0  0  0  0  0  0  0  0  0
   57.3430   32.8040   44.2720 O   0  0  0  0  0  0  0  0  0  0  0  0
   59.5560   32.5940   45.2800 O   0  0  0  0  0  0  0  0  0  0  0  0
   57.8410   30.5840   45.6740 C   0  0  0  0  0  0  0  0  0  0  0  0
   58.4220   29.9070   46.7530 C   0  0  0  0  0  0  0  0  0  0  0  0
   58.1760   28.5450   46.9440 C   0  0  0  0  0  0  0  0  0  0  0  0
   57.3350   27.8450   46.0620 C   0  0  0  0  0  0  0  0  0  0  0  0
   57.0740   26.4030   46.2440 C   0  0  0  0  0  0  0  0  0  0  0  0
   58.0450   25.5010   46.4760 N   0  0  0  0  0  0  0  0  0  0  0  0
   57.3720   24.3370   46.6010 C   0  0  0  0  0  0  0  0  0  0  0  0
   57.9480   23.2430   46.8350 O   0  0  0  0  0  0  0  0  0  0  0  0
   56.0350   24.4380   46.4520 N   0  0  0  0  0  0  0  0  0  0  0  0
   55.8560   25.7490   46.2170 C   0  0  0  0  0  0  0  0  0  0  0  0
   54.6090   26.3040   45.9380 O   0  0  0  0  0  0  0  0  0  0  0  0
   56.7760   28.5220   44.9660 C   0  0  0  0  0  0  0  0  0  0  0  0
   57.0190   29.8850   44.7800 C   0  0  0  0  0  0  0  0  0  0  0  0
   59.9505   36.3999   46.6860 H   0  0  0  0  0  0  0  0  0  0  0  0
   60.6111   34.9943   45.7835 H   0  0  0  0  0  0  0  0  0  0  0  0
   58.8430   35.3111   45.7835 H   0  0  0  0  0  0  0  0  0  0  0  0
   60.3713   33.4338   50.4985 H   0  0  0  0  0  0  0  0  0  0  0  0
   56.8074   32.5311   47.4768 H   0  0  0  0  0  0  0  0  0  0  0  0
   56.9968   34.1014   46.6108 H   0  0  0  0  0  0  0  0  0  0  0  0
   59.0746   30.4494   47.4530 H   0  0  0  0  0  0  0  0  0  0  0  0
   58.6429   28.0179   47.7890 H   0  0  0  0  0  0  0  0  0  0  0  0
   53.7610   25.9630   46.3710 H   0  0  0  0  0  0  0  0  0  0  0  0
   56.1436   27.9763   44.2503 H   0  0  0  0  0  0  0  0  0  0  0  0
   56.5633   30.4116   43.9285 H   0  0  0  0  0  0  0  0  0  0  0  0
  1  2  1  0
  2  3  1  0
  3  4  1  0
  4  5  2  0
  5  6  1  0
  6  7  1  0
  7  8  1  0
  8  9  2  0
  8 10  2  0
  8 11  1  0
 11 12  2  0
 12 13  1  0
 13 14  2  0
 14 15  1  0
 15 16  1  0
 16 17  1  0
 17 18  2  0
 17 19  1  0
 19 20  1  0
 20 21  1  0
 14 22  1  0
 22 23  2  0
  6  2  2  0
 23 11  1  0
 20 15  2  0
  1 24  1  0
  1 25  1  0
  1 26  1  0
  4 27  1  0
  7 28  1  0
  7 29  1  0
 12 30  1  0
 13 31  1  0
 21 32  1  0
 22 33  1  0
 23 34  1  0
M  CHG  3   3  -1  16  -1  19  -1
M  END
>  <UniqueID>  (69) 
62

>  <SMILES>  (69) 
Cc1[n-]cnc1CS(=O)(=O)c1ccc(-c2[n-]c(=O)[n-]c2O)cc1

>  <Energy>  (69) 
90.7180952888934

>  <Genealogy>  (69) 
Cc1[n-]cnc1CS(=O)(=O)c1ccc(-c2[n-]c(=O)[n-]c2O)cc1 (protonated)
Cc1[n-]cnc1CS(=O)(=O)c1ccc(-c2[n-]c(=O)[n-]c2O)cc1 (3D coordinates assigned)
Cc1[n-]cnc1CS(=O)(=O)c1ccc(-c2[n-]c(=O)[n-]c2O)cc1 (optimized conformer: 90.7180952888934 kcal/mol)

>  <smiles>  (69) 
Cc1[nH]cnc1CS(=O)(=O)c1ccc(-c2[nH]c(=O)[nH]c2O)cc1

>  <score_type>  (69) 
oracle

>  <origin>  (69) 
adg

>  <m_score__min__energy>  (69) 
-12.09

>  <m_primary>  (69) 
energy

$$$$
69:0
     RDKit          3D

 37 38  0  0  0  0  0  0  0  0999 V2000
   57.8336   35.0047   46.8938 H   0  0  0  0  0  0  0  0  0  0  0  0
   57.7740   34.1020   46.2680 C   0  0  0  0  0  0  0  0  0  0  0  0
   57.8710   32.8340   46.8480 C   0  0  0  0  0  0  0  0  0  0  0  0
   58.0770   32.7280   48.2270 O   0  0  0  0  0  0  0  0  0  0  0  0
   59.2480   33.2030   48.8890 C   0  0  0  0  0  0  0  0  0  0  0  0
   59.4549   32.5650   49.7609 H   0  0  0  0  0  0  0  0  0  0  0  0
   59.0785   34.2412   49.2105 H   0  0  0  0  0  0  0  0  0  0  0  0
   60.4460   33.1680   47.9460 C   0  0  0  0  0  0  0  0  0  0  0  0
   61.3751   33.1409   48.5343 H   0  0  0  0  0  0  0  0  0  0  0  0
   60.3873   32.2712   47.3117 H   0  0  0  0  0  0  0  0  0  0  0  0
   60.4398   34.0667   47.3117 H   0  0  0  0  0  0  0  0  0  0  0  0
   57.7730   31.7230   46.0630 N   0  0  0  0  0  0  0  0  0  0  0  0
   57.5900   31.8040   44.7150 C   0  0  0  0  0  0  0  0  0  0  0  0
   57.5230   30.7360   43.9770 N   0  0  0  0  0  0  0  0  0  0  0  0
   56.8540   29.5100   44.3040 C   0  0  0  0  0  0  0  0  0  0  0  0
   55.7220   29.5770   44.8520 O   0  0  0  0  0  0  0  0  0  0  0  0
   57.5800   28.1850   44.2240 C   0  0  0  0  0  0  0  0  0  0  0  0
   57.1163   27.5853   43.4269 H   0  0  0  0  0  0  0  0  0  0  0  0
   58.6369   28.4157   44.0245 H   0  0  0  0  0  0  0  0  0  0  0  0
   57.5450   27.3660   45.5260 C   0  0  0  0  0  0  0  0  0  0  0  0
   58.5727   27.2550   45.9022 H   0  0  0  0  0  0  0  0  0  0  0  0
   56.9106   27.9038   46.2459 H   0  0  0  0  0  0  0  0  0  0  0  0
   56.9510   25.9920   45.3210 C   0  0  0  0  0  0  0  0  0  0  0  0
   57.7640   24.9610   44.8150 C   0  0  0  0  0  0  0  0  0  0  0  0
   58.8149   25.1675   44.5641 H   0  0  0  0  0  0  0  0  0  0  0  0
   57.2460   23.6770   44.6290 C   0  0  0  0  0  0  0  0  0  0  0  0
   57.8914   22.8752   44.2410 H   0  0  0  0  0  0  0  0  0  0  0  0
   55.9100   23.4100   44.9350 C   0  0  0  0  0  0  0  0  0  0  0  0
   55.5020   22.4001   44.7812 H   0  0  0  0  0  0  0  0  0  0  0  0
   55.0920   24.4240   45.4360 C   0  0  0  0  0  0  0  0  0  0  0  0
   54.0389   24.2116   45.6723 H   0  0  0  0  0  0  0  0  0  0  0  0
   55.6060   25.7100   45.6390 C   0  0  0  0  0  0  0  0  0  0  0  0
   54.7760   26.6920   46.1660 O   0  0  0  0  0  0  0  0  0  0  0  0
   57.5180   33.0610   44.1040 C   0  0  0  0  0  0  0  0  0  0  0  0
   57.3969   33.1412   43.0136 H   0  0  0  0  0  0  0  0  0  0  0  0
   57.6010   34.2120   44.8890 C   0  0  0  0  0  0  0  0  0  0  0  0
   57.5300   35.2046   44.4203 H   0  0  0  0  0  0  0  0  0  0  0  0
  1  2  1  0
  2  3  2  0
  3  4  1  0
  4  5  1  0
  5  6  1  0
  5  7  1  0
  5  8  1  0
  8  9  1  0
  8 10  1  0
  8 11  1  0
  3 12  1  0
 12 13  1  0
 13 14  2  0
 14 15  1  0
 15 16  2  0
 15 17  1  0
 17 18  1  0
 17 19  1  0
 17 20  1  0
 20 21  1  0
 20 22  1  0
 20 23  1  0
 23 24  2  0
 24 25  1  0
 24 26  1  0
 26 27  1  0
 26 28  2  0
 28 29  1  0
 28 30  1  0
 30 31  1  0
 30 32  2  0
 32 33  1  0
 13 34  1  0
 34 35  1  0
 34 36  2  0
 36 37  1  0
 36  2  1  0
 32 23  1  0
M  CHG  2  12  -1  33  -1
M  END
>  <UniqueID>  (70) 
63

>  <SMILES>  (70) 
CCOc1ccc/c(=N/C(=O)CCc2ccccc2[O-])[n-]1

>  <Energy>  (70) 
38.50958324978699

>  <Genealogy>  (70) 
CCOc1cccc(=NC(=O)CCc2ccccc2[O-])[n-]1 (protonated)
CCOc1ccc/c(=N/C(=O)CCc2ccccc2[O-])[n-]1 (cis-trans isomerization)
CCOc1ccc/c(=N/C(=O)CCc2ccccc2[O-])[n-]1 (3D coordinates assigned)
CCOc1ccc/c(=N/C(=O)CCc2ccccc2[O-])[n-]1 (optimized conformer: 38.50958324978699 kcal/mol)

>  <smiles>  (70) 
CCOc1cccc(=NC(=O)CCc2ccccc2O)[nH]1

>  <score_type>  (70) 
oracle

>  <origin>  (70) 
adg

>  <m_score__min__energy>  (70) 
-12.5

>  <m_primary>  (70) 
energy

$$$$
70:0
     RDKit          3D

 36 38  0  0  0  0  0  0  0  0999 V2000
   60.2996   35.1401   46.4880 H   0  0  0  0  0  0  0  0  0  0  0  0
   59.8990   34.4520   47.2470 C   0  0  0  0  0  0  0  0  0  0  0  0
   58.8280   33.6110   46.9330 C   0  0  0  0  0  0  0  0  0  0  0  0
   58.3892   33.6343   45.9246 H   0  0  0  0  0  0  0  0  0  0  0  0
   58.3130   32.7400   47.8980 C   0  0  0  0  0  0  0  0  0  0  0  0
   57.4788   32.0700   47.6427 H   0  0  0  0  0  0  0  0  0  0  0  0
   58.8580   32.7180   49.1930 C   0  0  0  0  0  0  0  0  0  0  0  0
   58.3420   31.7820   50.2110 C   0  0  0  0  0  0  0  0  0  0  0  0
   57.1830   32.0590   50.8710 N   0  0  0  0  0  0  0  0  0  0  0  0
   56.9110   31.1520   51.8330 C   0  0  0  0  0  0  0  0  0  0  0  0
   55.8290   31.2160   52.5510 N   0  0  0  0  0  0  0  0  0  0  0  0
   54.5950   30.5200   52.3180 C   0  0  0  0  0  0  0  0  0  0  0  0
   54.6410   29.3410   51.8740 O   0  0  0  0  0  0  0  0  0  0  0  0
   53.2560   31.1690   52.5500 C   0  0  0  0  0  0  0  0  0  0  0  0
   52.7556   30.6692   53.3925 H   0  0  0  0  0  0  0  0  0  0  0  0
   53.4178   32.2339   52.7731 H   0  0  0  0  0  0  0  0  0  0  0  0
   52.3870   31.0640   51.3320 C   0  0  0  0  0  0  0  0  0  0  0  0
   51.4150   31.9500   50.9280 C   0  0  0  0  0  0  0  0  0  0  0  0
   51.0230   33.0930   51.6140 O   0  0  0  0  0  0  0  0  0  0  0  0
   50.8860   31.5660   49.7510 N   0  0  0  0  0  0  0  0  0  0  0  0
   51.5740   30.4390   49.4680 C   0  0  0  0  0  0  0  0  0  0  0  0
   51.3790   29.7610   48.4240 O   0  0  0  0  0  0  0  0  0  0  0  0
   52.4940   30.1080   50.3960 N   0  0  0  0  0  0  0  0  0  0  0  0
   53.1490   29.2940   50.3850 H   0  0  0  0  0  0  0  0  0  0  0  0
   58.0850   29.9450   51.8930 S   0  0  0  0  0  0  0  0  0  0  0  0
   58.9920   30.6110   50.6400 C   0  0  0  0  0  0  0  0  0  0  0  0
   60.1900   29.9550   50.0740 C   0  0  0  0  0  0  0  0  0  0  0  0
   60.0460   28.9020   49.3980 O   0  0  0  0  0  0  0  0  0  0  0  0
   61.5650   30.5240   50.2360 C   0  0  0  0  0  0  0  0  0  0  0  0
   61.7981   30.6205   51.3067 H   0  0  0  0  0  0  0  0  0  0  0  0
   62.2971   29.8549   49.7602 H   0  0  0  0  0  0  0  0  0  0  0  0
   61.6102   31.5147   49.7602 H   0  0  0  0  0  0  0  0  0  0  0  0
   59.9480   33.5490   49.4950 C   0  0  0  0  0  0  0  0  0  0  0  0
   60.4005   33.5166   50.4971 H   0  0  0  0  0  0  0  0  0  0  0  0
   60.4610   34.4180   48.5270 C   0  0  0  0  0  0  0  0  0  0  0  0
   61.3078   35.0757   48.7727 H   0  0  0  0  0  0  0  0  0  0  0  0
  1  2  1  0
  2  3  2  0
  3  4  1  0
  3  5  1  0
  5  6  1  0
  5  7  2  0
  7  8  1  0
  8  9  1  0
  9 10  1  0
 10 11  2  0
 11 12  1  0
 12 13  2  0
 12 14  1  0
 14 15  1  0
 14 16  1  0
 14 17  1  0
 17 18  2  0
 18 19  1  0
 18 20  1  0
 20 21  1  0
 21 22  2  0
 21 23  1  0
 23 24  1  0
 10 25  1  0
 25 26  1  0
 26 27  1  0
 27 28  2  0
 27 29  1  0
 29 30  1  0
 29 31  1  0
 29 32  1  0
  7 33  1  0
 33 34  1  0
 33 35  2  0
 35 36  1  0
 35  2  1  0
 26  8  2  0
 23 17  1  0
M  CHG  3   9  -1  19  -1  20  -1
M  END
>  <UniqueID>  (71) 
64

>  <SMILES>  (71) 
CC(=O)c1s/c(=N\C(=O)Cc2[nH]c(=O)[n-]c2[O-])[n-]c1-c1ccccc1

>  <Energy>  (71) 
111.27783638372449

>  <Genealogy>  (71) 
CC(=O)c1sc(=NC(=O)Cc2[nH]c(=O)[n-]c2[O-])[n-]c1-c1ccccc1 (protonated)
CC(=O)c1s/c(=N\C(=O)Cc2[nH]c(=O)[n-]c2[O-])[n-]c1-c1ccccc1 (cis-trans isomerization)
CC(=O)c1s/c(=N\C(=O)Cc2[nH]c(=O)[n-]c2[O-])[n-]c1-c1ccccc1 (3D coordinates assigned)
CC(=O)c1s/c(=N\C(=O)Cc2[nH]c(=O)[n-]c2[O-])[n-]c1-c1ccccc1 (optimized conformer: 111.27783638372449 kcal/mol)

>  <smiles>  (71) 
CC(=O)c1sc(=NC(=O)Cc2[nH]c(=O)[nH]c2O)[nH]c1-c1ccccc1

>  <score_type>  (71) 
oracle

>  <origin>  (71) 
adg

>  <m_score__min__energy>  (71) 
-15.470000000000001

>  <m_primary>  (71) 
energy

$$$$
71:0
     RDKit          3D

 42 44  0  0  0  0  0  0  0  0999 V2000
   63.2000   33.2680   47.6730 C   0  0  0  0  0  0  0  0  0  0  0  0
   62.5200   33.6890   46.3760 C   0  0  0  0  0  0  0  0  0  0  0  0
   61.4620   34.6080   46.6370 O   0  0  0  0  0  0  0  0  0  0  0  0
   60.1610   34.4500   46.1450 C   0  0  0  0  0  0  0  0  0  0  0  0
   59.6080   35.3780   45.4950 O   0  0  0  0  0  0  0  0  0  0  0  0
   59.4530   33.1820   46.3890 C   0  0  0  0  0  0  0  0  0  0  0  0
   60.0110   31.9810   47.4300 S   0  0  0  0  0  0  0  0  0  0  0  0
   58.6950   30.9680   47.1400 C   0  0  0  0  0  0  0  0  0  0  0  0
   58.4920   29.7920   47.6590 N   0  0  0  0  0  0  0  0  0  0  0  0
   57.9390   28.6360   47.0120 C   0  0  0  0  0  0  0  0  0  0  0  0
   57.2530   28.7360   45.9590 O   0  0  0  0  0  0  0  0  0  0  0  0
   58.2390   27.2790   47.5660 C   0  0  0  0  0  0  0  0  0  0  0  0
   57.6440   26.2450   46.7140 N   0  0  0  0  0  0  0  0  0  0  0  0
   56.3230   26.2730   46.5220 N   0  0  0  0  0  0  0  0  0  0  0  0
   55.6750   25.3480   45.7700 C   0  0  0  0  0  0  0  0  0  0  0  0
   54.4250   25.4330   45.6310 O   0  0  0  0  0  0  0  0  0  0  0  0
   56.4030   24.3150   45.1650 C   0  0  0  0  0  0  0  0  0  0  0  0
   55.7770   23.3350   44.3720 C   0  0  0  0  0  0  0  0  0  0  0  0
   56.5300   22.3140   43.7860 C   0  0  0  0  0  0  0  0  0  0  0  0
   55.8980   21.3540   43.0030 O   0  0  0  0  0  0  0  0  0  0  0  0
   57.9140   22.2590   43.9830 C   0  0  0  0  0  0  0  0  0  0  0  0
   58.6550   21.2370   43.3900 O   0  0  0  0  0  0  0  0  0  0  0  0
   58.5470   23.2280   44.7730 C   0  0  0  0  0  0  0  0  0  0  0  0
   57.7990   24.2620   45.3680 C   0  0  0  0  0  0  0  0  0  0  0  0
   58.4090   25.2480   46.1650 C   0  0  0  0  0  0  0  0  0  0  0  0
   59.6550   25.2140   46.3750 O   0  0  0  0  0  0  0  0  0  0  0  0
   57.8290   31.5190   46.2640 N   0  0  0  0  0  0  0  0  0  0  0  0
   58.2370   32.7470   45.8400 C   0  0  0  0  0  0  0  0  0  0  0  0
   57.4150   33.5380   44.8720 C   0  0  0  0  0  0  0  0  0  0  0  0
   62.6131   33.6314   48.5294 H   0  0  0  0  0  0  0  0  0  0  0  0
   63.2661   32.1707   47.7129 H   0  0  0  0  0  0  0  0  0  0  0  0
   64.2117   33.6980   47.7129 H   0  0  0  0  0  0  0  0  0  0  0  0
   63.2607   34.1683   45.7190 H   0  0  0  0  0  0  0  0  0  0  0  0
   62.1006   32.7955   45.8904 H   0  0  0  0  0  0  0  0  0  0  0  0
   59.3288   27.1350   47.6060 H   0  0  0  0  0  0  0  0  0  0  0  0
   57.8141   27.2008   48.5776 H   0  0  0  0  0  0  0  0  0  0  0  0
   54.6893   23.3730   44.2127 H   0  0  0  0  0  0  0  0  0  0  0  0
   58.2140   20.3920   43.0480 H   0  0  0  0  0  0  0  0  0  0  0  0
   59.6348   23.1806   44.9292 H   0  0  0  0  0  0  0  0  0  0  0  0
   56.7300   34.1971   45.4255 H   0  0  0  0  0  0  0  0  0  0  0  0
   58.0781   34.1464   44.2394 H   0  0  0  0  0  0  0  0  0  0  0  0
   56.8325   32.8521   44.2394 H   0  0  0  0  0  0  0  0  0  0  0  0
  1  2  1  0
  2  3  1  0
  3  4  1  0
  4  5  2  0
  4  6  1  0
  6  7  1  0
  7  8  1  0
  8  9  2  3
  9 10  1  0
 10 11  2  0
 10 12  1  0
 12 13  1  0
 13 14  1  0
 14 15  1  0
 15 16  2  0
 15 17  1  0
 17 18  2  0
 18 19  1  0
 19 20  1  0
 19 21  2  0
 21 22  1  0
 21 23  1  0
 23 24  2  0
 24 25  1  0
 25 26  2  0
  8 27  1  0
 27 28  1  0
 28 29  1  0
 28  6  2  0
 25 13  1  0
 24 17  1  0
  1 30  1  0
  1 31  1  0
  1 32  1  0
  2 33  1  0
  2 34  1  0
 12 35  1  0
 12 36  1  0
 18 37  1  0
 22 38  1  0
 23 39  1  0
 29 40  1  0
 29 41  1  0
 29 42  1  0
M  CHG  3  14  -1  20  -1  27  -1
M  END
>  <UniqueID>  (72) 
65

>  <SMILES>  (72) 
CCOC(=O)c1sc(=NC(=O)Cn2[n-]c(=O)c3cc([O-])c(O)cc3c2=O)[n-]c1C

>  <Energy>  (72) 
78.7953914378413

>  <Genealogy>  (72) 
CCOC(=O)c1sc(=NC(=O)Cn2[n-]c(=O)c3cc([O-])c(O)cc3c2=O)[n-]c1C (protonated)
CCOC(=O)c1sc(=NC(=O)Cn2[n-]c(=O)c3cc([O-])c(O)cc3c2=O)[n-]c1C (3D coordinates assigned)
CCOC(=O)c1sc(=NC(=O)Cn2[n-]c(=O)c3cc([O-])c(O)cc3c2=O)[n-]c1C (optimized conformer: 78.7953914378413 kcal/mol)

>  <smiles>  (72) 
CCOC(=O)c1sc(=NC(=O)Cn2[nH]c(=O)c3cc(O)c(O)cc3c2=O)[nH]c1C

>  <score_type>  (72) 
oracle

>  <origin>  (72) 
adg

>  <m_score__min__energy>  (72) 
-12.93

>  <m_primary>  (72) 
energy

$$$$
72:0
     RDKit          3D

 79 82  0  0  0  0  0  0  0  0999 V2000
   60.3500   28.5220   47.6290 C   0  0  0  0  0  0  0  0  0  0  0  0
   60.4460   29.8530   48.3840 C   0  0  0  0  0  0  0  0  0  0  0  0
   60.0640   29.7830   49.8890 C   0  0  2  0  0  0  0  0  0  0  0  0
   58.5320   29.7210   50.0580 C   0  0  0  0  0  0  0  0  0  0  0  0
   60.6860   30.9260   50.7490 C   0  0  1  0  0  0  0  0  0  0  0  0
   62.1480   30.9140   50.6260 N   0  0  0  0  0  0  0  0  0  0  0  0
   63.0230   31.5410   51.5720 C   0  0  0  0  0  0  0  0  0  0  0  0
   62.5550   32.1560   52.5690 O   0  0  0  0  0  0  0  0  0  0  0  0
   64.4050   31.4530   51.3800 O   0  0  0  0  0  0  0  0  0  0  0  0
   65.0680   31.9390   50.2150 C   0  0  0  0  0  0  0  0  0  0  0  0
   64.0920   32.5750   49.2640 C   0  0  0  0  0  0  0  0  0  0  0  0
   63.5110   33.8180   49.5630 C   0  0  0  0  0  0  0  0  0  0  0  0
   62.6290   34.4180   48.6600 C   0  0  0  0  0  0  0  0  0  0  0  0
   62.3140   33.7780   47.4590 C   0  0  0  0  0  0  0  0  0  0  0  0
   62.8840   32.5390   47.1570 C   0  0  0  0  0  0  0  0  0  0  0  0
   63.7660   31.9340   48.0570 C   0  0  0  0  0  0  0  0  0  0  0  0
   60.2030   32.3130   50.3660 C   0  0  0  0  0  0  0  0  0  0  0  0
   60.7030   33.3360   50.9080 O   0  0  0  0  0  0  0  0  0  0  0  0
   59.0790   32.4880   49.4920 N   0  0  0  0  0  0  0  0  0  0  0  0
   59.1180   33.1900   48.2450 C   0  0  0  0  0  0  0  0  0  0  0  0
   59.2800   34.5790   48.2420 C   0  0  0  0  0  0  0  0  0  0  0  0
   59.2980   35.2810   47.0340 C   0  0  0  0  0  0  0  0  0  0  0  0
   59.1580   34.5960   45.8250 C   0  0  0  0  0  0  0  0  0  0  0  0
   59.0400   33.1970   45.8140 C   0  0  0  0  0  0  0  0  0  0  0  0
   58.8910   32.4500   44.5150 C   0  0  0  0  0  0  0  0  0  0  0  0
   57.8680   31.3550   44.6480 C   0  0  0  0  0  0  0  0  0  0  0  0
   56.5990   31.5000   44.0670 C   0  0  0  0  0  0  0  0  0  0  0  0
   55.6620   30.4680   44.1520 C   0  0  0  0  0  0  0  0  0  0  0  0
   55.9740   29.2940   44.8380 C   0  0  0  0  0  0  0  0  0  0  0  0
   57.2270   29.1480   45.4580 C   0  0  0  0  0  0  0  0  0  0  0  0
   57.5670   27.9560   46.1810 N   0  0  0  0  0  0  0  0  0  0  0  0
   57.2270   26.6210   45.7890 C   0  0  0  0  0  0  0  0  0  0  0  0
   57.9700   26.0260   44.9660 O   0  0  0  0  0  0  0  0  0  0  0  0
   56.0770   25.9150   46.3950 C   0  0  0  0  0  0  0  0  0  0  0  0
   56.2580   25.2520   47.4470 O   0  0  0  0  0  0  0  0  0  0  0  0
   54.7570   25.9790   45.8410 N   0  0  0  0  0  0  0  0  0  0  0  0
   53.9120   24.8240   45.5650 C   0  0  0  0  0  0  0  0  0  0  0  0
   54.7590   23.6940   45.0550 C   0  0  0  0  0  0  0  0  0  0  0  0
   55.2210   22.7050   45.9360 C   0  0  0  0  0  0  0  0  0  0  0  0
   56.0090   21.6570   45.4570 C   0  0  0  0  0  0  0  0  0  0  0  0
   56.3330   21.6060   44.0990 C   0  0  0  0  0  0  0  0  0  0  0  0
   55.8850   22.5740   43.2560 N   0  0  0  0  0  0  0  0  0  0  0  0
   55.1140   23.6070   43.6980 C   0  0  0  0  0  0  0  0  0  0  0  0
   58.1810   30.1680   45.3290 C   0  0  0  0  0  0  0  0  0  0  0  0
   59.0270   32.4980   47.0310 C   0  0  0  0  0  0  0  0  0  0  0  0
   60.2903   27.6943   48.3511 H   0  0  0  0  0  0  0  0  0  0  0  0
   59.4496   28.5230   46.9971 H   0  0  0  0  0  0  0  0  0  0  0  0
   61.2412   28.3938   46.9971 H   0  0  0  0  0  0  0  0  0  0  0  0
   61.4830   30.2125   48.3114 H   0  0  0  0  0  0  0  0  0  0  0  0
   59.7162   30.5275   47.9124 H   0  0  0  0  0  0  0  0  0  0  0  0
   60.5039   28.8523   50.2768 H   0  0  0  0  0  0  0  0  0  0  0  0
   58.2814   29.7109   51.1290 H   0  0  0  0  0  0  0  0  0  0  0  0
   58.0748   30.6014   49.5827 H   0  0  0  0  0  0  0  0  0  0  0  0
   58.1474   28.8066   49.5827 H   0  0  0  0  0  0  0  0  0  0  0  0
   60.3612   30.7251   51.7806 H   0  0  0  0  0  0  0  0  0  0  0  0
   62.5800   30.3520   49.8570 H   0  0  0  0  0  0  0  0  0  0  0  0
   65.8180   32.6862   50.5135 H   0  0  0  0  0  0  0  0  0  0  0  0
   65.5496   31.0906   49.7068 H   0  0  0  0  0  0  0  0  0  0  0  0
   63.7509   34.3212   50.5113 H   0  0  0  0  0  0  0  0  0  0  0  0
   62.1824   35.3953   48.8953 H   0  0  0  0  0  0  0  0  0  0  0  0
   61.6169   34.2498   46.7509 H   0  0  0  0  0  0  0  0  0  0  0  0
   62.6383   32.0383   46.2089 H   0  0  0  0  0  0  0  0  0  0  0  0
   64.2057   30.9540   47.8198 H   0  0  0  0  0  0  0  0  0  0  0  0
   59.3935   35.1202   49.1929 H   0  0  0  0  0  0  0  0  0  0  0  0
   59.4225   36.3739   47.0352 H   0  0  0  0  0  0  0  0  0  0  0  0
   59.1401   35.1548   44.8776 H   0  0  0  0  0  0  0  0  0  0  0  0
   58.5706   33.1506   43.7298 H   0  0  0  0  0  0  0  0  0  0  0  0
   59.8596   32.0002   44.2516 H   0  0  0  0  0  0  0  0  0  0  0  0
   56.3409   32.4314   43.5418 H   0  0  0  0  0  0  0  0  0  0  0  0
   54.6762   30.5810   43.6772 H   0  0  0  0  0  0  0  0  0  0  0  0
   55.2367   28.4796   44.8939 H   0  0  0  0  0  0  0  0  0  0  0  0
   53.4034   24.5127   46.4893 H   0  0  0  0  0  0  0  0  0  0  0  0
   53.1622   25.0915   44.8059 H   0  0  0  0  0  0  0  0  0  0  0  0
   54.9624   22.7553   47.0040 H   0  0  0  0  0  0  0  0  0  0  0  0
   56.3719   20.8777   46.1432 H   0  0  0  0  0  0  0  0  0  0  0  0
   56.9508   20.7824   43.7117 H   0  0  0  0  0  0  0  0  0  0  0  0
   54.7684   24.3751   42.9905 H   0  0  0  0  0  0  0  0  0  0  0  0
   59.1824   30.0368   45.7649 H   0  0  0  0  0  0  0  0  0  0  0  0
   58.9449   31.4011   47.0312 H   0  0  0  0  0  0  0  0  0  0  0  0
  1  2  1  0
  2  3  1  0
  3  4  1  0
  3  5  1  0
  5  6  1  0
  6  7  1  0
  7  8  2  0
  7  9  1  0
  9 10  1  0
 10 11  1  0
 11 12  2  0
 12 13  1  0
 13 14  2  0
 14 15  1  0
 15 16  2  0
  5 17  1  0
 17 18  2  0
 17 19  1  0
 19 20  1  0
 20 21  2  0
 21 22  1  0
 22 23  2  0
 23 24  1  0
 24 25  1  0
 25 26  1  0
 26 27  2  0
 27 28  1  0
 28 29  2  0
 29 30  1  0
 30 31  1  0
 31 32  1  0
 32 33  2  0
 32 34  1  0
 34 35  2  0
 34 36  1  0
 36 37  1  0
 37 38  1  0
 38 39  2  0
 39 40  1  0
 40 41  2  0
 41 42  1  0
 42 43  2  0
 30 44  2  0
 24 45  2  0
 16 11  1  0
 45 20  1  0
 44 26  1  0
 43 38  1  0
  1 46  1  0
  1 47  1  0
  1 48  1  0
  2 49  1  0
  2 50  1  0
  3 51  1  1
  4 52  1  0
  4 53  1  0
  4 54  1  0
  5 55  1  1
  6 56  1  0
 10 57  1  0
 10 58  1  0
 12 59  1  0
 13 60  1  0
 14 61  1  0
 15 62  1  0
 16 63  1  0
 21 64  1  0
 22 65  1  0
 23 66  1  0
 25 67  1  0
 25 68  1  0
 27 69  1  0
 28 70  1  0
 29 71  1  0
 37 72  1  0
 37 73  1  0
 39 74  1  0
 40 75  1  0
 41 76  1  0
 43 77  1  0
 44 78  1  0
 45 79  1  0
M  CHG  3  19  -1  31  -1  36  -1
M  END
>  <UniqueID>  (73) 
66

>  <SMILES>  (73) 
CC[C@H](C)[C@@H](NC(=O)OCc1ccccc1)C(=O)[N-]c1cccc(Cc2cccc([N-]C(=O)C(=O)[N-]Cc3cccnc3)c2)c1

>  <Energy>  (73) 
77.75018341575857

>  <Genealogy>  (73) 
CCC(C)C(NC(=O)OCc1ccccc1)C(=O)[N-]c1cccc(Cc2cccc([N-]C(=O)C(=O)[N-]Cc3cccnc3)c2)c1 (protonated)
CC[C@H](C)[C@@H](NC(=O)OCc1ccccc1)C(=O)[N-]c1cccc(Cc2cccc([N-]C(=O)C(=O)[N-]Cc3cccnc3)c2)c1 (chirality)
CC[C@H](C)[C@@H](NC(=O)OCc1ccccc1)C(=O)[N-]c1cccc(Cc2cccc([N-]C(=O)C(=O)[N-]Cc3cccnc3)c2)c1 (3D coordinates assigned)
CC[C@H](C)[C@@H](NC(=O)OCc1ccccc1)C(=O)[N-]c1cccc(Cc2cccc([N-]C(=O)C(=O)[N-]Cc3cccnc3)c2)c1 (optimized conformer: 77.75018341575857 kcal/mol)

>  <smiles>  (73) 
CCC(C)C(NC(=O)OCc1ccccc1)C(=O)Nc1cccc(Cc2cccc(NC(=O)C(=O)NCc3cccnc3)c2)c1

>  <score_type>  (73) 
oracle

>  <origin>  (73) 
adg

>  <m_score__min__energy>  (73) 
-14.24

>  <m_primary>  (73) 
energy

$$$$
73:0
     RDKit          3D

 49 51  0  0  0  0  0  0  0  0999 V2000
   57.0010   34.4060   44.8870 C   0  0  0  0  0  0  0  0  0  0  0  0
   58.2200   33.9900   45.6480 C   0  0  0  0  0  0  0  0  0  0  0  0
   58.2690   32.7440   46.2850 C   0  0  0  0  0  0  0  0  0  0  0  0
   59.4140   32.3400   46.9740 C   0  0  0  0  0  0  0  0  0  0  0  0
   60.5400   33.1810   47.0050 C   0  0  0  0  0  0  0  0  0  0  0  0
   62.0210   32.6710   47.8100 S   0  0  0  0  0  0  0  0  0  0  0  0
   62.5720   31.4720   47.1070 O   0  0  0  0  0  0  0  0  0  0  0  0
   63.0440   33.7680   47.7560 O   0  0  0  0  0  0  0  0  0  0  0  0
   61.6660   32.2750   49.4590 N   0  0  0  0  0  0  0  0  0  0  0  0
   60.8550   33.6390   50.1990 S   0  0  0  0  0  0  0  0  0  0  0  0
   61.8660   34.2020   51.1860 O   0  0  0  0  0  0  0  0  0  0  0  0
   59.5950   32.9130   51.2240 C   0  0  0  0  0  0  0  0  0  0  0  0
   59.0880   31.6470   50.8920 C   0  0  0  0  0  0  0  0  0  0  0  0
   58.1440   31.0240   51.7160 C   0  0  0  0  0  0  0  0  0  0  0  0
   57.6780   31.6820   52.8740 C   0  0  0  0  0  0  0  0  0  0  0  0
   56.6970   31.0850   53.7370 N   0  0  0  0  0  0  0  0  0  0  0  0
   55.6360   29.7870   53.2940 S   0  0  0  0  0  0  0  0  0  0  0  0
   56.1430   29.1460   52.0360 O   0  0  0  0  0  0  0  0  0  0  0  0
   55.6500   28.7570   54.3850 O   0  0  0  0  0  0  0  0  0  0  0  0
   53.9900   30.3670   53.0560 C   0  0  0  0  0  0  0  0  0  0  0  0
   53.1850   30.6810   54.1580 C   0  0  0  0  0  0  0  0  0  0  0  0
   51.8670   31.1090   53.9680 C   0  0  0  0  0  0  0  0  0  0  0  0
   51.3480   31.2420   52.6790 C   0  0  0  0  0  0  0  0  0  0  0  0
   52.1440   30.9420   51.5590 C   0  0  0  0  0  0  0  0  0  0  0  0
   51.5980   31.0860   50.1860 C   0  0  0  0  0  0  0  0  0  0  0  0
   51.0100   32.3190   49.7550 N   0  0  0  0  0  0  0  0  0  0  0  0
   51.6500   30.1200   49.3790 O   0  0  0  0  0  0  0  0  0  0  0  0
   53.4710   30.5030   51.7630 C   0  0  0  0  0  0  0  0  0  0  0  0
   58.1890   32.9480   53.1970 C   0  0  0  0  0  0  0  0  0  0  0  0
   59.1570   33.5490   52.3870 C   0  0  0  0  0  0  0  0  0  0  0  0
   60.4980   34.4310   46.3670 C   0  0  0  0  0  0  0  0  0  0  0  0
   59.3410   34.8310   45.6950 C   0  0  0  0  0  0  0  0  0  0  0  0
   56.2030   34.6783   45.5934 H   0  0  0  0  0  0  0  0  0  0  0  0
   57.2419   35.2728   44.2540 H   0  0  0  0  0  0  0  0  0  0  0  0
   56.6618   33.5728   44.2540 H   0  0  0  0  0  0  0  0  0  0  0  0
   57.3959   32.0763   46.2421 H   0  0  0  0  0  0  0  0  0  0  0  0
   59.4350   31.3687   47.4899 H   0  0  0  0  0  0  0  0  0  0  0  0
   62.5760   32.1620   49.9540 H   0  0  0  0  0  0  0  0  0  0  0  0
   59.4348   31.1415   49.9786 H   0  0  0  0  0  0  0  0  0  0  0  0
   57.7658   30.0229   51.4614 H   0  0  0  0  0  0  0  0  0  0  0  0
   53.5906   30.5907   55.1765 H   0  0  0  0  0  0  0  0  0  0  0  0
   51.2363   31.3419   54.8386 H   0  0  0  0  0  0  0  0  0  0  0  0
   50.3117   31.5830   52.5386 H   0  0  0  0  0  0  0  0  0  0  0  0
   51.4750   32.9100   49.0350 H   0  0  0  0  0  0  0  0  0  0  0  0
   54.1041   30.2652   50.8955 H   0  0  0  0  0  0  0  0  0  0  0  0
   57.8255   33.4713   54.0937 H   0  0  0  0  0  0  0  0  0  0  0  0
   59.5753   34.5270   52.6672 H   0  0  0  0  0  0  0  0  0  0  0  0
   61.3751   35.0942   46.3964 H   0  0  0  0  0  0  0  0  0  0  0  0
   59.3089   35.8124   45.1992 H   0  0  0  0  0  0  0  0  0  0  0  0
  1  2  1  0
  2  3  2  0
  3  4  1  0
  4  5  2  0
  5  6  1  0
  6  7  2  0
  6  8  2  0
  6  9  1  0
 10  9  1  6
 10 11  2  0
 10 12  1  0
 12 13  2  0
 13 14  1  0
 14 15  2  0
 15 16  1  0
 16 17  1  0
 17 18  2  0
 17 19  2  0
 17 20  1  0
 20 21  2  0
 21 22  1  0
 22 23  2  0
 23 24  1  0
 24 25  1  0
 25 26  1  0
 25 27  2  0
 24 28  2  0
 15 29  1  0
 29 30  2  0
  5 31  1  0
 31 32  2  0
 32  2  1  0
 30 12  1  0
 28 20  1  0
  1 33  1  0
  1 34  1  0
  1 35  1  0
  3 36  1  0
  4 37  1  0
  9 38  1  0
 13 39  1  0
 14 40  1  0
 21 41  1  0
 22 42  1  0
 23 43  1  0
 26 44  1  0
 28 45  1  0
 29 46  1  0
 30 47  1  0
 31 48  1  0
 32 49  1  0
M  CHG  2  16  -1  26  -1
M  END
>  <UniqueID>  (74) 
67

>  <SMILES>  (74) 
Cc1ccc(S(=O)(=O)N[S@](=O)c2ccc([N-]S(=O)(=O)c3cccc(C([NH-])=O)c3)cc2)cc1

>  <Energy>  (74) 
47.18658686327139

>  <Genealogy>  (74) 
Cc1ccc(S(=O)(=O)NS(=O)c2ccc([N-]S(=O)(=O)c3cccc(C([NH-])=O)c3)cc2)cc1 (protonated)
Cc1ccc(S(=O)(=O)N[S@](=O)c2ccc([N-]S(=O)(=O)c3cccc(C([NH-])=O)c3)cc2)cc1 (chirality)
Cc1ccc(S(=O)(=O)N[S@](=O)c2ccc([N-]S(=O)(=O)c3cccc(C([NH-])=O)c3)cc2)cc1 (3D coordinates assigned)
Cc1ccc(S(=O)(=O)N[S@](=O)c2ccc([N-]S(=O)(=O)c3cccc(C([NH-])=O)c3)cc2)cc1 (optimized conformer: 47.18658686327139 kcal/mol)

>  <smiles>  (74) 
Cc1ccc(S(=O)(=O)NS(=O)c2ccc(NS(=O)(=O)c3cccc(C(N)=O)c3)cc2)cc1

>  <score_type>  (74) 
oracle

>  <origin>  (74) 
adg

>  <m_score__min__energy>  (74) 
-14.539999999999999

>  <m_primary>  (74) 
energy

$$$$
74:0
     RDKit          3D

 47 49  0  0  0  0  0  0  0  0999 V2000
   62.6100   30.8540   50.7140 C   0  0  0  0  0  0  0  0  0  0  0  0
   63.1530   31.9300   51.6500 C   0  0  0  0  0  0  0  0  0  0  0  0
   63.2360   33.2650   50.9620 C   0  0  0  0  0  0  0  0  0  0  0  0
   63.3900   34.3080   51.6530 O   0  0  0  0  0  0  0  0  0  0  0  0
   63.1790   33.3720   49.5320 N   0  0  0  0  0  0  0  0  0  0  0  0
   64.2990   33.0320   48.6530 C   0  0  0  0  0  0  0  0  0  0  0  0
   63.7480   33.1130   47.2090 C   0  0  0  0  0  0  0  0  0  0  0  0
   62.3510   33.5920   47.3990 C   0  0  0  0  0  0  0  0  0  0  0  0
   61.4190   33.9200   46.4140 C   0  0  0  0  0  0  0  0  0  0  0  0
   60.1630   34.4210   46.8090 C   0  0  0  0  0  0  0  0  0  0  0  0
   59.1290   34.7560   45.7690 C   0  0  0  0  0  0  0  0  0  0  0  0
   58.7030   33.5450   45.0710 N   0  0  0  0  0  0  0  0  0  0  0  0
   58.0450   32.4620   45.7500 C   0  0  0  0  0  0  0  0  0  0  0  0
   57.8810   32.5170   46.9990 O   0  0  0  0  0  0  0  0  0  0  0  0
   57.5730   31.2670   45.0100 C   0  0  0  0  0  0  0  0  0  0  0  0
   57.1180   31.3640   43.6830 C   0  0  0  0  0  0  0  0  0  0  0  0
   56.6780   30.2270   43.0010 C   0  0  0  0  0  0  0  0  0  0  0  0
   56.6780   28.9830   43.6340 C   0  0  0  0  0  0  0  0  0  0  0  0
   57.1080   28.8710   44.9610 C   0  0  0  0  0  0  0  0  0  0  0  0
   57.1200   27.3040   45.7640 S   0  0  0  0  0  0  0  0  0  0  0  0
   55.4950   26.7650   46.0020 N   0  0  0  0  0  0  0  0  0  0  0  0
   57.8070   27.4150   47.0970 O   0  0  0  0  0  0  0  0  0  0  0  0
   57.8640   26.3080   44.9200 O   0  0  0  0  0  0  0  0  0  0  0  0
   57.5560   30.0100   45.6450 C   0  0  0  0  0  0  0  0  0  0  0  0
   59.8810   34.5940   48.1830 C   0  0  0  0  0  0  0  0  0  0  0  0
   60.8400   34.2610   49.1540 C   0  0  0  0  0  0  0  0  0  0  0  0
   62.0640   33.7300   48.7300 C   0  0  0  0  0  0  0  0  0  0  0  0
   62.1929   30.0276   51.3082 H   0  0  0  0  0  0  0  0  0  0  0  0
   61.8210   31.2840   50.0796 H   0  0  0  0  0  0  0  0  0  0  0  0
   63.4247   30.4748   50.0796 H   0  0  0  0  0  0  0  0  0  0  0  0
   62.4861   32.0168   52.5205 H   0  0  0  0  0  0  0  0  0  0  0  0
   64.1665   31.6379   51.9623 H   0  0  0  0  0  0  0  0  0  0  0  0
   65.1225   33.7486   48.7886 H   0  0  0  0  0  0  0  0  0  0  0  0
   64.6973   32.0313   48.8767 H   0  0  0  0  0  0  0  0  0  0  0  0
   64.3296   33.8251   46.6052 H   0  0  0  0  0  0  0  0  0  0  0  0
   63.8040   32.1537   46.6736 H   0  0  0  0  0  0  0  0  0  0  0  0
   61.6604   33.7898   45.3487 H   0  0  0  0  0  0  0  0  0  0  0  0
   58.2589   35.2185   46.2578 H   0  0  0  0  0  0  0  0  0  0  0  0
   59.5665   35.4545   45.0405 H   0  0  0  0  0  0  0  0  0  0  0  0
   58.9560   33.4530   44.0630 H   0  0  0  0  0  0  0  0  0  0  0  0
   57.1085   32.3415   43.1787 H   0  0  0  0  0  0  0  0  0  0  0  0
   56.3301   30.3124   41.9610 H   0  0  0  0  0  0  0  0  0  0  0  0
   56.3395   28.0894   43.0890 H   0  0  0  0  0  0  0  0  0  0  0  0
   55.0160   26.8240   45.0740 H   0  0  0  0  0  0  0  0  0  0  0  0
   57.8973   29.9210   46.6869 H   0  0  0  0  0  0  0  0  0  0  0  0
   58.9039   34.9921   48.4942 H   0  0  0  0  0  0  0  0  0  0  0  0
   60.6338   34.4141   50.2236 H   0  0  0  0  0  0  0  0  0  0  0  0
  1  2  1  0
  2  3  1  0
  3  4  2  0
  3  5  1  0
  5  6  1  0
  6  7  1  0
  7  8  1  0
  8  9  2  0
  9 10  1  0
 10 11  1  0
 11 12  1  0
 12 13  1  0
 13 14  2  0
 13 15  1  0
 15 16  2  0
 16 17  1  0
 17 18  2  0
 18 19  1  0
 19 20  1  0
 20 21  1  0
 20 22  2  0
 20 23  2  0
 19 24  2  0
 10 25  2  0
 25 26  1  0
 26 27  2  0
 27  5  1  0
 27  8  1  0
 24 15  1  0
  1 28  1  0
  1 29  1  0
  1 30  1  0
  2 31  1  0
  2 32  1  0
  6 33  1  0
  6 34  1  0
  7 35  1  0
  7 36  1  0
  9 37  1  0
 11 38  1  0
 11 39  1  0
 12 40  1  0
 16 41  1  0
 17 42  1  0
 18 43  1  0
 21 44  1  0
 24 45  1  0
 25 46  1  0
 26 47  1  0
M  CHG  1  21  -1
M  END
>  <UniqueID>  (75) 
68

>  <SMILES>  (75) 
CCC(=O)N1CCc2cc(CNC(=O)c3cccc(S([NH-])(=O)=O)c3)ccc21

>  <Energy>  (75) 
63.42347134932478

>  <Genealogy>  (75) 
CCC(=O)N1CCc2cc(CNC(=O)c3cccc(S([NH-])(=O)=O)c3)ccc21 (protonated)
CCC(=O)N1CCc2cc(CNC(=O)c3cccc(S([NH-])(=O)=O)c3)ccc21 (3D coordinates assigned)
CCC(=O)N1CCc2cc(CNC(=O)c3cccc(S([NH-])(=O)=O)c3)ccc21 (nonaromatic ring conformer: 63.42347134932478 kcal/mol)

>  <smiles>  (75) 
CCC(=O)N1CCc2cc(CNC(=O)c3cccc(S(N)(=O)=O)c3)ccc21

>  <score_type>  (75) 
oracle

>  <origin>  (75) 
adg

>  <m_score__min__energy>  (75) 
-11.640000000000001

>  <m_primary>  (75) 
energy

$$$$
75:0
     RDKit          3D

 58 59  0  0  0  0  0  0  0  0999 V2000
   58.5470   32.4740   48.6430 C   0  0  0  0  0  0  0  0  0  0  0  0
   59.5000   33.6340   48.4760 C   0  0  0  0  0  0  0  0  0  0  0  0
   60.7490   33.7120   49.3350 C   0  0  0  0  0  0  0  0  0  0  0  0
   59.2960   34.6000   47.5510 C   0  0  0  0  0  0  0  0  0  0  0  0
   60.1390   34.7890   46.3150 C   0  0  0  0  0  0  0  0  0  0  0  0
   59.2710   35.2320   45.1270 C   0  0  0  0  0  0  0  0  0  0  0  0
   58.1780   34.2190   44.8620 C   0  0  0  0  0  0  0  0  0  0  0  0
   56.7460   34.5730   45.2030 C   0  0  0  0  0  0  0  0  0  0  0  0
   58.5100   33.0070   44.3490 C   0  0  0  0  0  0  0  0  0  0  0  0
   58.2860   31.7030   45.0840 C   0  0  0  0  0  0  0  0  0  0  0  0
   58.2030   30.5780   44.1490 N   0  0  0  0  0  0  0  0  0  0  0  0
   57.0720   29.6800   44.1600 C   0  0  0  0  0  0  0  0  0  0  0  0
   56.0620   29.9480   44.8620 O   0  0  0  0  0  0  0  0  0  0  0  0
   57.0530   28.4850   43.3680 N   0  0  0  0  0  0  0  0  0  0  0  0
   58.1090   27.4770   43.3010 C   0  0  0  0  0  0  0  0  0  0  0  0
   57.9950   26.4510   44.4070 C   0  0  0  0  0  0  0  0  0  0  0  0
   57.4370   25.1930   44.1170 C   0  0  0  0  0  0  0  0  0  0  0  0
   57.3030   24.2200   45.1150 C   0  0  0  0  0  0  0  0  0  0  0  0
   57.7420   24.4830   46.4150 C   0  0  0  0  0  0  0  0  0  0  0  0
   58.3200   25.7190   46.7190 C   0  0  0  0  0  0  0  0  0  0  0  0
   58.4560   26.7090   45.7240 C   0  0  0  0  0  0  0  0  0  0  0  0
   59.0970   27.9530   46.0520 N   0  0  0  0  0  0  0  0  0  0  0  0
   58.7700   28.7020   47.2530 C   0  0  0  0  0  0  0  0  0  0  0  0
   59.9240   29.6830   47.4550 C   0  0  0  0  0  0  0  0  0  0  0  0
   60.7700   29.6310   46.1790 C   0  0  0  0  0  0  0  0  0  0  0  0
   60.3630   28.3540   45.4550 C   0  0  0  0  0  0  0  0  0  0  0  0
   58.3885   32.2810   49.7143 H   0  0  0  0  0  0  0  0  0  0  0  0
   57.5853   32.7183   48.1682 H   0  0  0  0  0  0  0  0  0  0  0  0
   58.9733   31.5780   48.1682 H   0  0  0  0  0  0  0  0  0  0  0  0
   60.4649   33.6943   50.3975 H   0  0  0  0  0  0  0  0  0  0  0  0
   61.3996   32.8527   49.1150 H   0  0  0  0  0  0  0  0  0  0  0  0
   61.2876   34.6455   49.1150 H   0  0  0  0  0  0  0  0  0  0  0  0
   58.4584   35.2947   47.7114 H   0  0  0  0  0  0  0  0  0  0  0  0
   60.9009   35.5577   46.5118 H   0  0  0  0  0  0  0  0  0  0  0  0
   60.6184   33.8312   46.0645 H   0  0  0  0  0  0  0  0  0  0  0  0
   58.8140   36.2060   45.3559 H   0  0  0  0  0  0  0  0  0  0  0  0
   59.9063   35.3120   44.2326 H   0  0  0  0  0  0  0  0  0  0  0  0
   56.6260   34.6027   46.2960 H   0  0  0  0  0  0  0  0  0  0  0  0
   56.5014   35.5587   44.7804 H   0  0  0  0  0  0  0  0  0  0  0  0
   56.0703   33.8149   44.7804 H   0  0  0  0  0  0  0  0  0  0  0  0
   58.9650   32.9706   43.3482 H   0  0  0  0  0  0  0  0  0  0  0  0
   59.1230   31.5330   45.7772 H   0  0  0  0  0  0  0  0  0  0  0  0
   57.3359   31.7708   45.6342 H   0  0  0  0  0  0  0  0  0  0  0  0
   58.9430   30.4830   43.3950 H   0  0  0  0  0  0  0  0  0  0  0  0
   58.0443   26.9609   42.3318 H   0  0  0  0  0  0  0  0  0  0  0  0
   59.0737   27.9923   43.4184 H   0  0  0  0  0  0  0  0  0  0  0  0
   57.1016   24.9706   43.0932 H   0  0  0  0  0  0  0  0  0  0  0  0
   56.8510   23.2463   44.8749 H   0  0  0  0  0  0  0  0  0  0  0  0
   57.6330   23.7185   47.1983 H   0  0  0  0  0  0  0  0  0  0  0  0
   58.6713   25.9208   47.7417 H   0  0  0  0  0  0  0  0  0  0  0  0
   57.8231   29.2458   47.1201 H   0  0  0  0  0  0  0  0  0  0  0  0
   58.6426   28.0402   48.1223 H   0  0  0  0  0  0  0  0  0  0  0  0
   59.5349   30.6999   47.6114 H   0  0  0  0  0  0  0  0  0  0  0  0
   60.5219   29.4161   48.3389 H   0  0  0  0  0  0  0  0  0  0  0  0
   60.5651   30.5091   45.5489 H   0  0  0  0  0  0  0  0  0  0  0  0
   61.8457   29.6375   46.4091 H   0  0  0  0  0  0  0  0  0  0  0  0
   60.2367   28.5459   44.3793 H   0  0  0  0  0  0  0  0  0  0  0  0
   61.1268   27.5686   45.5537 H   0  0  0  0  0  0  0  0  0  0  0  0
  1  2  1  0
  2  3  1  0
  2  4  2  3
  4  5  1  0
  5  6  1  0
  6  7  1  0
  7  8  1  0
  7  9  2  3
  9 10  1  0
 10 11  1  0
 11 12  1  0
 12 13  2  0
 12 14  1  0
 14 15  1  0
 15 16  1  0
 16 17  2  0
 17 18  1  0
 18 19  2  0
 19 20  1  0
 20 21  2  0
 21 22  1  0
 22 23  1  0
 23 24  1  0
 24 25  1  0
 25 26  1  0
 21 16  1  0
 26 22  1  0
  1 27  1  0
  1 28  1  0
  1 29  1  0
  3 30  1  0
  3 31  1  0
  3 32  1  0
  4 33  1  0
  5 34  1  0
  5 35  1  0
  6 36  1  0
  6 37  1  0
  8 38  1  0
  8 39  1  0
  8 40  1  0
  9 41  1  0
 10 42  1  0
 10 43  1  0
 11 44  1  0
 15 45  1  0
 15 46  1  0
 17 47  1  0
 18 48  1  0
 19 49  1  0
 20 50  1  0
 23 51  1  0
 23 52  1  0
 24 53  1  0
 24 54  1  0
 25 55  1  0
 25 56  1  0
 26 57  1  0
 26 58  1  0
M  CHG  1  14  -1
M  END
>  <UniqueID>  (76) 
69

>  <SMILES>  (76) 
CC(C)=CCCC(C)=CCNC(=O)[N-]Cc1ccccc1N1CCCC1

>  <Energy>  (76) 
50.64598787693636

>  <Genealogy>  (76) 
CC(C)=CCCC(C)=CCNC(=O)[N-]Cc1ccccc1N1CCCC1 (protonated)
CC(C)=CCCC(C)=CCNC(=O)[N-]Cc1ccccc1N1CCCC1 (3D coordinates assigned)
CC(C)=CCCC(C)=CCNC(=O)[N-]Cc1ccccc1N1CCCC1 (nonaromatic ring conformer: 50.64598787693636 kcal/mol)

>  <smiles>  (76) 
CC(C)=CCCC(C)=CCNC(=O)NCc1ccccc1N1CCCC1

>  <score_type>  (76) 
oracle

>  <origin>  (76) 
adg

>  <m_score__min__energy>  (76) 
-9.2200000000000006

>  <m_primary>  (76) 
energy

$$$$
76:0
     RDKit          3D

 74 78  0  0  1  0  0  0  0  0999 V2000
   62.0490   33.8180   46.4390 C   0  0  0  0  0  0  0  0  0  0  0  0
   60.6570   33.3900   46.6980 C   0  0  0  0  0  0  0  0  0  0  0  0
   60.3760   32.8840   47.9600 C   0  0  0  0  0  0  0  0  0  0  0  0
   59.1110   32.4600   48.3060 C   0  0  0  0  0  0  0  0  0  0  0  0
   58.1170   32.5520   47.3530 C   0  0  0  0  0  0  0  0  0  0  0  0
   58.4130   33.0600   46.0920 C   0  0  0  0  0  0  0  0  0  0  0  0
   57.2600   33.1100   45.1630 C   0  0  0  0  0  0  0  0  0  0  0  0
   56.3320   33.9460   45.3080 O   0  0  0  0  0  0  0  0  0  0  0  0
   57.2940   32.1490   44.1130 N   0  0  0  0  0  0  0  0  0  0  0  0
   56.9450   30.9420   44.3790 C   0  0  0  0  0  0  0  0  0  0  0  0
   55.7110   30.4640   44.1990 N   0  0  0  0  0  0  0  0  0  0  0  0
   55.6340   29.1900   44.5560 N   0  0  0  0  0  0  0  0  0  0  0  0
   56.8590   28.8360   44.9790 C   0  0  0  0  0  0  0  0  0  0  0  0
   57.7180   29.9360   44.8770 C   0  0  0  0  0  0  0  0  0  0  0  0
   59.0490   29.4790   45.3630 C   0  0  0  0  0  0  0  0  0  0  0  0
   58.7830   28.3260   46.1960 N   0  0  0  0  0  0  0  0  0  0  0  0
   59.3720   27.8260   47.3670 C   0  0  0  0  0  0  0  0  0  0  0  0
   59.8280   26.6180   47.3360 O   0  0  0  0  0  0  0  0  0  0  0  0
   59.5350   28.4810   48.5970 N   0  0  0  0  0  0  0  0  0  0  0  0
   60.7780   28.1950   49.3320 C   0  0  0  0  0  0  0  0  0  0  0  0
   61.4510   29.5670   49.5220 C   0  0  0  0  0  0  0  0  0  0  0  0
   60.5630   30.5000   50.1320 N   0  0  0  0  0  0  0  0  0  0  0  0
   61.1480   31.2970   51.1450 C   0  0  0  0  0  0  0  0  0  0  0  0
   62.1490   32.3180   50.7530 C   0  0  0  0  0  0  0  0  0  0  0  0
   61.7360   33.7480   50.8370 C   0  0  0  0  0  0  0  0  0  0  0  0
   62.7750   34.5860   50.1020 C   0  0  0  0  0  0  0  0  0  0  0  0
   63.9100   33.8070   49.8170 O   0  0  0  0  0  0  0  0  0  0  0  0
   64.4130   33.2160   50.9670 C   0  0  0  0  0  0  0  0  0  0  0  0
   63.4570   32.1810   51.5100 C   0  0  0  0  0  0  0  0  0  0  0  0
   59.3200   29.8960   50.5090 C   0  0  1  0  0  0  0  0  0  0  0  0
   58.4420   30.8970   51.2050 C   0  0  0  0  0  0  0  0  0  0  0  0
   58.6250   29.3970   49.2280 C   0  0  0  0  0  0  0  0  0  0  0  0
   57.6320   27.6840   45.5210 C   0  0  0  0  0  0  0  0  0  0  0  0
   58.0470   26.7900   44.4020 C   0  0  0  0  0  0  0  0  0  0  0  0
   56.7680   26.9330   46.5020 C   0  0  0  0  0  0  0  0  0  0  0  0
   59.6660   33.4860   45.7310 C   0  0  0  0  0  0  0  0  0  0  0  0
   62.5676   33.9775   47.3959 H   0  0  0  0  0  0  0  0  0  0  0  0
   62.5712   33.0389   45.8643 H   0  0  0  0  0  0  0  0  0  0  0  0
   62.0433   34.7559   45.8643 H   0  0  0  0  0  0  0  0  0  0  0  0
   61.1843   32.8198   48.7033 H   0  0  0  0  0  0  0  0  0  0  0  0
   58.9005   32.0612   49.3093 H   0  0  0  0  0  0  0  0  0  0  0  0
   57.0938   32.2247   47.5897 H   0  0  0  0  0  0  0  0  0  0  0  0
   54.8810   31.0090   43.8210 H   0  0  0  0  0  0  0  0  0  0  0  0
   54.7800   28.5910   44.5110 H   0  0  0  0  0  0  0  0  0  0  0  0
   59.6925   29.2004   44.5155 H   0  0  0  0  0  0  0  0  0  0  0  0
   59.5738   30.2704   45.9182 H   0  0  0  0  0  0  0  0  0  0  0  0
   60.5545   27.7354   50.3061 H   0  0  0  0  0  0  0  0  0  0  0  0
   61.4248   27.4879   48.7920 H   0  0  0  0  0  0  0  0  0  0  0  0
   62.3377   29.4455   50.1616 H   0  0  0  0  0  0  0  0  0  0  0  0
   61.7348   29.9542   48.5323 H   0  0  0  0  0  0  0  0  0  0  0  0
   60.3293   31.8246   51.6562 H   0  0  0  0  0  0  0  0  0  0  0  0
   61.7187   30.5810   51.7546 H   0  0  0  0  0  0  0  0  0  0  0  0
   62.2666   32.0831   49.6848 H   0  0  0  0  0  0  0  0  0  0  0  0
   60.7505   33.8795   50.3664 H   0  0  0  0  0  0  0  0  0  0  0  0
   61.6675   34.0632   51.8886 H   0  0  0  0  0  0  0  0  0  0  0  0
   62.3432   34.9577   49.1611 H   0  0  0  0  0  0  0  0  0  0  0  0
   63.0702   35.4331   50.7386 H   0  0  0  0  0  0  0  0  0  0  0  0
   65.3717   32.7308   50.7316 H   0  0  0  0  0  0  0  0  0  0  0  0
   64.5514   33.9972   51.7290 H   0  0  0  0  0  0  0  0  0  0  0  0
   63.8720   31.1732   51.3613 H   0  0  0  0  0  0  0  0  0  0  0  0
   63.2960   32.3333   52.5874 H   0  0  0  0  0  0  0  0  0  0  0  0
   59.5036   29.0601   51.2000 H   0  0  0  0  0  0  0  0  0  0  0  0
   58.5445   30.7801   52.2940 H   0  0  0  0  0  0  0  0  0  0  0  0
   58.7445   31.9141   50.9153 H   0  0  0  0  0  0  0  0  0  0  0  0
   57.3941   30.7296   50.9153 H   0  0  0  0  0  0  0  0  0  0  0  0
   57.6853   28.8844   49.4812 H   0  0  0  0  0  0  0  0  0  0  0  0
   58.3778   30.2345   48.5590 H   0  0  0  0  0  0  0  0  0  0  0  0
   58.4767   25.8643   44.8123 H   0  0  0  0  0  0  0  0  0  0  0  0
   57.1706   26.5450   43.7841 H   0  0  0  0  0  0  0  0  0  0  0  0
   58.7999   27.3013   43.7841 H   0  0  0  0  0  0  0  0  0  0  0  0
   57.0672   27.1931   47.5281 H   0  0  0  0  0  0  0  0  0  0  0  0
   55.7140   27.2069   46.3468 H   0  0  0  0  0  0  0  0  0  0  0  0
   56.8924   25.8511   46.3468 H   0  0  0  0  0  0  0  0  0  0  0  0
   59.8746   33.8833   44.7267 H   0  0  0  0  0  0  0  0  0  0  0  0
  1  2  1  0
  2  3  2  0
  3  4  1  0
  4  5  2  0
  5  6  1  0
  6  7  1  0
  7  8  2  0
  7  9  1  0
  9 10  2  0
 10 11  1  0
 11 12  1  0
 12 13  1  0
 13 14  2  0
 14 15  1  0
 15 16  1  0
 16 17  1  0
 17 18  2  0
 17 19  1  0
 19 20  1  0
 20 21  1  0
 21 22  1  0
 22 23  1  0
 23 24  1  0
 24 25  1  0
 25 26  1  0
 26 27  1  0
 27 28  1  0
 28 29  1  0
 22 30  1  0
 30 31  1  0
 30 32  1  0
 16 33  1  0
 33 34  1  0
 33 35  1  0
  6 36  2  0
 36  2  1  0
 14 10  1  0
 32 19  1  0
 33 13  1  0
 29 24  1  0
  1 37  1  0
  1 38  1  0
  1 39  1  0
  3 40  1  0
  4 41  1  0
  5 42  1  0
 11 43  1  0
 12 44  1  0
 15 45  1  0
 15 46  1  0
 20 47  1  0
 20 48  1  0
 21 49  1  0
 21 50  1  0
 23 51  1  0
 23 52  1  0
 24 53  1  0
 25 54  1  0
 25 55  1  0
 26 56  1  0
 26 57  1  0
 28 58  1  0
 28 59  1  0
 29 60  1  0
 29 61  1  0
 30 62  1  1
 31 63  1  0
 31 64  1  0
 31 65  1  0
 32 66  1  0
 32 67  1  0
 34 68  1  0
 34 69  1  0
 34 70  1  0
 35 71  1  0
 35 72  1  0
 35 73  1  0
 36 74  1  0
M  END
>  <smiles>  (77) 
Cc1cccc(C(=O)N=c2[nH][nH]c3c2CN(C(=O)N2CCN(CC4CCOCC4)C(C)C2)C3(C)C)c1

>  <score_type>  (77) 
oracle

>  <origin>  (77) 
adg

>  <m_score__min__energy>  (77) 
-10.94

>  <m_primary>  (77) 
energy

$$$$
77:0
     RDKit          3D

 50 53  0  0  0  0  0  0  0  0999 V2000
   56.2180   28.5490   44.2490 H   0  0  0  0  0  0  0  0  0  0  0  0
   56.1060   28.3880   45.2430 O   0  0  0  0  0  0  0  0  0  0  0  0
   56.1670   27.1000   45.7630 C   0  0  0  0  0  0  0  0  0  0  0  0
   55.0960   26.3000   45.9060 N   0  0  0  0  0  0  0  0  0  0  0  0
   55.6410   25.1560   46.3700 C   0  0  0  0  0  0  0  0  0  0  0  0
   54.9530   24.1350   46.6320 O   0  0  0  0  0  0  0  0  0  0  0  0
   56.9820   25.1870   46.5240 N   0  0  0  0  0  0  0  0  0  0  0  0
   57.3100   26.4390   46.1590 C   0  0  0  0  0  0  0  0  0  0  0  0
   58.7010   26.9230   46.0870 C   0  0  0  0  0  0  0  0  0  0  0  0
   59.4005   26.3872   45.4285 H   0  0  0  0  0  0  0  0  0  0  0  0
   59.1680   27.9810   46.7780 C   0  0  0  0  0  0  0  0  0  0  0  0
   59.2560   28.0870   48.1600 C   0  0  0  0  0  0  0  0  0  0  0  0
   58.9327   27.3386   48.8985 H   0  0  0  0  0  0  0  0  0  0  0  0
   59.8280   29.3140   48.4260 C   0  0  0  0  0  0  0  0  0  0  0  0
   60.1310   29.8320   49.8000 C   0  0  0  0  0  0  0  0  0  0  0  0
   59.7252   29.1383   50.5511 H   0  0  0  0  0  0  0  0  0  0  0  0
   61.2203   29.9154   49.9285 H   0  0  0  0  0  0  0  0  0  0  0  0
   59.6698   30.8223   49.9285 H   0  0  0  0  0  0  0  0  0  0  0  0
   60.1160   29.9620   47.2750 N   0  0  0  0  0  0  0  0  0  0  0  0
   60.7130   31.2660   47.1700 C   0  0  0  0  0  0  0  0  0  0  0  0
   62.1030   31.4170   47.2800 C   0  0  0  0  0  0  0  0  0  0  0  0
   62.7389   30.5357   47.4502 H   0  0  0  0  0  0  0  0  0  0  0  0
   62.6820   32.6840   47.1740 C   0  0  0  0  0  0  0  0  0  0  0  0
   63.7727   32.7981   47.2599 H   0  0  0  0  0  0  0  0  0  0  0  0
   61.8780   33.8070   46.9590 C   0  0  0  0  0  0  0  0  0  0  0  0
   62.3395   34.8014   46.8685 H   0  0  0  0  0  0  0  0  0  0  0  0
   60.4850   33.6720   46.8580 C   0  0  0  0  0  0  0  0  0  0  0  0
   59.6280   34.8790   46.5930 C   0  0  0  0  0  0  0  0  0  0  0  0
   58.8012   34.9039   47.3181 H   0  0  0  0  0  0  0  0  0  0  0  0
   60.2432   35.7853   46.6939 H   0  0  0  0  0  0  0  0  0  0  0  0
   59.0820   34.8220   45.2410 N   0  0  0  0  0  0  0  0  0  0  0  0
   58.0200   33.9450   44.8500 C   0  0  0  0  0  0  0  0  0  0  0  0
   56.8190   34.2960   45.0050 O   0  0  0  0  0  0  0  0  0  0  0  0
   58.3410   32.5620   44.3470 C   0  0  0  0  0  0  0  0  0  0  0  0
   59.3988   32.5164   44.6454 H   0  0  0  0  0  0  0  0  0  0  0  0
   57.3620   31.4790   44.8020 C   0  0  0  0  0  0  0  0  0  0  0  0
   57.8404   30.6198   45.2949 H   0  0  0  0  0  0  0  0  0  0  0  0
   56.5935   31.7051   45.5558 H   0  0  0  0  0  0  0  0  0  0  0  0
   56.9680   31.2240   43.3530 C   0  0  0  0  0  0  0  0  0  0  0  0
   57.2262   30.2189   42.9883 H   0  0  0  0  0  0  0  0  0  0  0  0
   55.9104   31.2519   43.0520 H   0  0  0  0  0  0  0  0  0  0  0  0
   57.9260   32.3150   42.8960 C   0  0  0  0  0  0  0  0  0  0  0  0
   58.7413   31.9550   42.2512 H   0  0  0  0  0  0  0  0  0  0  0  0
   57.5653   33.1459   42.2719 H   0  0  0  0  0  0  0  0  0  0  0  0
   59.9080   32.3960   46.9640 C   0  0  0  0  0  0  0  0  0  0  0  0
   58.8168   32.2819   46.8849 H   0  0  0  0  0  0  0  0  0  0  0  0
   59.7190   29.1560   46.2570 C   0  0  0  0  0  0  0  0  0  0  0  0
   59.8680   29.4590   44.9580 C   0  0  0  0  0  0  0  0  0  0  0  0
   60.3175   30.4193   44.6653 H   0  0  0  0  0  0  0  0  0  0  0  0
   59.5406   28.7470   44.1861 H   0  0  0  0  0  0  0  0  0  0  0  0
  1  2  1  0
  2  3  1  0
  3  4  1  0
  4  5  1  0
  5  6  2  0
  5  7  1  0
  7  8  1  0
  8  9  1  0
  9 10  1  0
  9 11  2  0
 11 12  1  0
 12 13  1  0
 12 14  2  0
 14 15  1  0
 15 16  1  0
 15 17  1  0
 15 18  1  0
 14 19  1  0
 19 20  1  0
 20 21  2  0
 21 22  1  0
 21 23  1  0
 23 24  1  0
 23 25  2  0
 25 26  1  0
 25 27  1  0
 27 28  1  0
 28 29  1  0
 28 30  1  0
 28 31  1  0
 31 32  1  0
 32 33  2  0
 32 34  1  0
 34 35  1  0
 34 36  1  0
 36 37  1  0
 36 38  1  0
 36 39  1  0
 39 40  1  0
 39 41  1  0
 39 42  1  0
 42 43  1  0
 42 44  1  0
 27 45  2  0
 45 46  1  0
 19 47  1  0
 47 48  2  0
 48 49  1  0
 48 50  1  0
  8  3  2  0
 47 11  1  0
 45 20  1  0
 42 34  1  0
M  CHG  3   4  -1   7  -1  31  -1
M  END
>  <UniqueID>  (78) 
70

>  <SMILES>  (78) 
C=c1/c(=C/c2[n-]c(=O)[n-]c2O)cc(C)n1-c1cccc(C[N-]C(=O)C2CCC2)c1

>  <Energy>  (78) 
179.83417926155255

>  <Genealogy>  (78) 
C=c1c(=Cc2[n-]c(=O)[n-]c2O)cc(C)n1-c1cccc(C[N-]C(=O)C2CCC2)c1 (protonated)
C=c1/c(=C/c2[n-]c(=O)[n-]c2O)cc(C)n1-c1cccc(C[N-]C(=O)C2CCC2)c1 (cis-trans isomerization)
C=c1/c(=C/c2[n-]c(=O)[n-]c2O)cc(C)n1-c1cccc(C[N-]C(=O)C2CCC2)c1 (3D coordinates assigned)
C=c1/c(=C/c2[n-]c(=O)[n-]c2O)cc(C)n1-c1cccc(C[N-]C(=O)C2CCC2)c1 (nonaromatic ring conformer: 179.83417926155255 kcal/mol)

>  <smiles>  (78) 
C=c1c(=Cc2[nH]c(=O)[nH]c2O)cc(C)n1-c1cccc(CNC(=O)C2CCC2)c1

>  <score_type>  (78) 
oracle

>  <origin>  (78) 
adg

>  <m_score__min__energy>  (78) 
-14.99

>  <m_primary>  (78) 
energy

$$$$
78:0
     RDKit          3D

 27 28  0  0  0  0  0  0  0  0999 V2000
   59.8920   27.3860   46.8070 C   0  0  0  0  0  0  0  0  0  0  0  0
   59.1970   27.2360   45.4580 C   0  0  0  0  0  0  0  0  0  0  0  0
   57.7400   26.9180   45.6360 C   0  0  0  0  0  0  0  0  0  0  0  0
   57.3040   25.6880   45.9690 N   0  0  0  0  0  0  0  0  0  0  0  0
   55.9700   25.8410   46.0670 C   0  0  0  0  0  0  0  0  0  0  0  0
   55.1970   24.8930   46.3610 O   0  0  0  0  0  0  0  0  0  0  0  0
   55.5290   27.0920   45.8270 N   0  0  0  0  0  0  0  0  0  0  0  0
   56.6530   27.7810   45.5590 C   0  0  0  0  0  0  0  0  0  0  0  0
   56.6430   29.2220   45.2470 C   0  0  0  0  0  0  0  0  0  0  0  0
   55.5540   29.7730   44.9310 O   0  0  0  0  0  0  0  0  0  0  0  0
   57.8380   30.0040   45.3330 N   0  0  0  0  0  0  0  0  0  0  0  0
   57.8630   31.4300   45.4630 C   0  0  0  0  0  0  0  0  0  0  0  0
   58.1590   31.9820   46.7170 C   0  0  0  0  0  0  0  0  0  0  0  0
   58.1940   33.3680   46.8880 C   0  0  0  0  0  0  0  0  0  0  0  0
   57.9530   34.2120   45.8020 C   0  0  0  0  0  0  0  0  0  0  0  0
   57.6900   33.6720   44.5410 C   0  0  0  0  0  0  0  0  0  0  0  0
   57.6520   32.2840   44.3600 C   0  0  0  0  0  0  0  0  0  0  0  0
   57.4170   31.6110   42.5800 Br  0  0  0  0  0  0  0  0  0  0  0  0
   59.1623   27.2285   47.6149 H   0  0  0  0  0  0  0  0  0  0  0  0
   60.6970   26.6409   46.8896 H   0  0  0  0  0  0  0  0  0  0  0  0
   60.3180   28.3968   46.8896 H   0  0  0  0  0  0  0  0  0  0  0  0
   59.2939   28.1771   44.8967 H   0  0  0  0  0  0  0  0  0  0  0  0
   59.6717   26.4094   44.9090 H   0  0  0  0  0  0  0  0  0  0  0  0
   58.3649   31.3201   47.5711 H   0  0  0  0  0  0  0  0  0  0  0  0
   58.4114   33.7946   47.8783 H   0  0  0  0  0  0  0  0  0  0  0  0
   57.9703   35.3032   45.9397 H   0  0  0  0  0  0  0  0  0  0  0  0
   57.5118   34.3405   43.6858 H   0  0  0  0  0  0  0  0  0  0  0  0
  1  2  1  0
  2  3  1  0
  3  4  1  0
  4  5  1  0
  5  6  2  0
  5  7  1  0
  7  8  1  0
  8  9  1  0
  9 10  2  0
  9 11  1  0
 11 12  1  0
 12 13  2  0
 13 14  1  0
 14 15  2  0
 15 16  1  0
 16 17  2  0
 17 18  1  0
  8  3  2  0
 17 12  1  0
  1 19  1  0
  1 20  1  0
  1 21  1  0
  2 22  1  0
  2 23  1  0
 13 24  1  0
 14 25  1  0
 15 26  1  0
 16 27  1  0
M  CHG  3   4  -1   7  -1  11  -1
M  END
>  <UniqueID>  (79) 
71

>  <SMILES>  (79) 
CCc1[n-]c(=O)[n-]c1C(=O)[N-]c1ccccc1Br

>  <Energy>  (79) 
59.58790254198282

>  <Genealogy>  (79) 
CCc1[n-]c(=O)[n-]c1C(=O)[N-]c1ccccc1Br (protonated)
CCc1[n-]c(=O)[n-]c1C(=O)[N-]c1ccccc1Br (3D coordinates assigned)
CCc1[n-]c(=O)[n-]c1C(=O)[N-]c1ccccc1Br (optimized conformer: 59.58790254198282 kcal/mol)

>  <smiles>  (79) 
CCc1[nH]c(=O)[nH]c1C(=O)Nc1ccccc1Br

>  <score_type>  (79) 
oracle

>  <origin>  (79) 
adg

>  <m_score__min__energy>  (79) 
-12.619999999999999

>  <m_primary>  (79) 
energy

$$$$
79:0
     RDKit          3D

 51 53  0  0  0  0  0  0  0  0999 V2000
   59.7650   28.6540   44.6880 O   0  0  0  0  0  0  0  0  0  0  0  0
   58.6050   28.1660   44.6440 C   0  0  0  0  0  0  0  0  0  0  0  0
   58.1270   27.3010   45.7640 C   0  0  0  0  0  0  0  0  0  0  0  0
   58.9180   27.6060   47.0070 C   0  0  0  0  0  0  0  0  0  0  0  0
   60.0110   26.8000   47.3670 C   0  0  0  0  0  0  0  0  0  0  0  0
   60.7750   27.1140   48.4950 C   0  0  0  0  0  0  0  0  0  0  0  0
   60.4610   28.2360   49.2650 C   0  0  0  0  0  0  0  0  0  0  0  0
   59.3810   29.0540   48.9070 C   0  0  0  0  0  0  0  0  0  0  0  0
   59.0600   30.1770   49.6650 O   0  0  0  0  0  0  0  0  0  0  0  0
   58.6170   28.7420   47.7770 C   0  0  0  0  0  0  0  0  0  0  0  0
   57.7570   28.3910   43.5110 N   0  0  0  0  0  0  0  0  0  0  0  0
   57.0140   29.6230   43.2550 C   0  0  0  0  0  0  0  0  0  0  0  0
   56.2670   30.0940   44.4740 C   0  0  0  0  0  0  0  0  0  0  0  0
   55.5180   29.2840   45.0830 O   0  0  0  0  0  0  0  0  0  0  0  0
   56.2550   31.4740   44.8710 N   0  0  0  0  0  0  0  0  0  0  0  0
   57.3930   32.2940   45.1780 C   0  0  0  0  0  0  0  0  0  0  0  0
   57.8990   33.1500   44.1910 C   0  0  0  0  0  0  0  0  0  0  0  0
   58.9830   33.9870   44.4720 C   0  0  0  0  0  0  0  0  0  0  0  0
   59.5600   33.9860   45.7450 C   0  0  0  0  0  0  0  0  0  0  0  0
   59.0460   33.1530   46.7480 C   0  0  0  0  0  0  0  0  0  0  0  0
   59.7430   33.1830   48.3670 S   0  0  0  0  0  0  0  0  0  0  0  0
   60.1700   34.5850   48.7060 O   0  0  0  0  0  0  0  0  0  0  0  0
   58.6830   32.7650   49.3460 O   0  0  0  0  0  0  0  0  0  0  0  0
   61.1000   32.0790   48.4810 N   0  0  0  0  0  0  0  0  0  0  0  0
   61.8100   31.9420   47.1960 C   0  0  0  0  0  0  0  0  0  0  0  0
   62.6670   33.1880   46.8630 C   0  0  0  0  0  0  0  0  0  0  0  0
   62.9430   34.0050   47.9870 O   0  0  0  0  0  0  0  0  0  0  0  0
   63.2600   33.2060   49.1040 C   0  0  0  0  0  0  0  0  0  0  0  0
   62.0110   32.4450   49.5880 C   0  0  0  0  0  0  0  0  0  0  0  0
   57.9530   32.3240   46.4660 C   0  0  0  0  0  0  0  0  0  0  0  0
   57.0610   27.4983   45.9503 H   0  0  0  0  0  0  0  0  0  0  0  0
   58.2627   26.2434   45.4937 H   0  0  0  0  0  0  0  0  0  0  0  0
   60.2664   25.9192   46.7595 H   0  0  0  0  0  0  0  0  0  0  0  0
   61.6255   26.4758   48.7767 H   0  0  0  0  0  0  0  0  0  0  0  0
   61.0623   28.4780   50.1538 H   0  0  0  0  0  0  0  0  0  0  0  0
   59.4080   31.0980   49.4230 H   0  0  0  0  0  0  0  0  0  0  0  0
   57.7758   29.3900   47.4898 H   0  0  0  0  0  0  0  0  0  0  0  0
   57.7214   30.4070   42.9469 H   0  0  0  0  0  0  0  0  0  0  0  0
   56.2782   29.4180   42.4634 H   0  0  0  0  0  0  0  0  0  0  0  0
   57.4414   33.1636   43.1908 H   0  0  0  0  0  0  0  0  0  0  0  0
   59.3829   34.6481   43.6891 H   0  0  0  0  0  0  0  0  0  0  0  0
   60.4183   34.6396   45.9598 H   0  0  0  0  0  0  0  0  0  0  0  0
   62.4690   31.0628   47.2479 H   0  0  0  0  0  0  0  0  0  0  0  0
   61.0547   31.8313   46.4040 H   0  0  0  0  0  0  0  0  0  0  0  0
   63.6227   32.8487   46.4370 H   0  0  0  0  0  0  0  0  0  0  0  0
   62.0863   33.7986   46.1560 H   0  0  0  0  0  0  0  0  0  0  0  0
   64.0397   32.4826   48.8233 H   0  0  0  0  0  0  0  0  0  0  0  0
   63.6219   33.8535   49.9163 H   0  0  0  0  0  0  0  0  0  0  0  0
   62.3347   31.5247   50.0961 H   0  0  0  0  0  0  0  0  0  0  0  0
   61.4582   33.1116   50.2663 H   0  0  0  0  0  0  0  0  0  0  0  0
   57.5295   31.6911   47.2597 H   0  0  0  0  0  0  0  0  0  0  0  0
  1  2  2  0
  2  3  1  0
  3  4  1  0
  4  5  2  0
  5  6  1  0
  6  7  2  0
  7  8  1  0
  8  9  1  0
  8 10  2  0
  2 11  1  0
 11 12  1  0
 12 13  1  0
 13 14  2  0
 13 15  1  0
 15 16  1  0
 16 17  2  0
 17 18  1  0
 18 19  2  0
 19 20  1  0
 20 21  1  0
 21 22  2  0
 21 23  2  0
 21 24  1  0
 24 25  1  0
 25 26  1  0
 26 27  1  0
 27 28  1  0
 28 29  1  0
 20 30  2  0
 10  4  1  0
 30 16  1  0
 29 24  1  0
  3 31  1  0
  3 32  1  0
  5 33  1  0
  6 34  1  0
  7 35  1  0
  9 36  1  0
 10 37  1  0
 12 38  1  0
 12 39  1  0
 17 40  1  0
 18 41  1  0
 19 42  1  0
 25 43  1  0
 25 44  1  0
 26 45  1  0
 26 46  1  0
 28 47  1  0
 28 48  1  0
 29 49  1  0
 29 50  1  0
 30 51  1  0
M  CHG  2  11  -1  15  -1
M  END
>  <UniqueID>  (80) 
72

>  <SMILES>  (80) 
O=C(Cc1cccc(O)c1)[N-]CC(=O)[N-]c1cccc(S(=O)(=O)N2CCOCC2)c1

>  <Energy>  (80) 
61.85967350610887

>  <Genealogy>  (80) 
O=C(Cc1cccc(O)c1)[N-]CC(=O)[N-]c1cccc(S(=O)(=O)N2CCOCC2)c1 (protonated)
O=C(Cc1cccc(O)c1)[N-]CC(=O)[N-]c1cccc(S(=O)(=O)N2CCOCC2)c1 (3D coordinates assigned)
O=C(Cc1cccc(O)c1)[N-]CC(=O)[N-]c1cccc(S(=O)(=O)N2CCOCC2)c1 (nonaromatic ring conformer: 61.85967350610887 kcal/mol)

>  <smiles>  (80) 
O=C(Cc1cccc(O)c1)NCC(=O)Nc1cccc(S(=O)(=O)N2CCOCC2)c1

>  <score_type>  (80) 
oracle

>  <origin>  (80) 
adg

>  <m_score__min__energy>  (80) 
-12.83

>  <m_primary>  (80) 
energy

$$$$
80:0
     RDKit          3D

 48 51  0  0  0  0  0  0  0  0999 V2000
   54.9004   31.1240   44.4170 H   0  0  0  0  0  0  0  0  0  0  0  0
   55.7920   30.4840   44.4910 C   0  0  0  0  0  0  0  0  0  0  0  0
   55.7300   29.1800   44.8680 N   0  0  0  0  0  0  0  0  0  0  0  0
   56.9560   28.6080   44.8730 C   0  0  0  0  0  0  0  0  0  0  0  0
   57.1750   27.3720   45.1960 N   0  0  0  0  0  0  0  0  0  0  0  0
   58.2720   26.9010   46.4530 S   0  0  0  0  0  0  0  0  0  0  0  0
   57.5000   26.2930   47.5900 O   0  0  0  0  0  0  0  0  0  0  0  0
   59.2260   25.8710   45.9170 O   0  0  0  0  0  0  0  0  0  0  0  0
   59.1880   28.3030   46.9970 C   0  0  0  0  0  0  0  0  0  0  0  0
   60.3930   28.6300   46.3730 C   0  0  0  0  0  0  0  0  0  0  0  0
   60.7723   28.0009   45.5543 H   0  0  0  0  0  0  0  0  0  0  0  0
   61.1210   29.7510   46.7810 C   0  0  0  0  0  0  0  0  0  0  0  0
   62.0717   29.9898   46.2818 H   0  0  0  0  0  0  0  0  0  0  0  0
   60.6550   30.5840   47.8260 C   0  0  0  0  0  0  0  0  0  0  0  0
   61.4100   31.7610   48.2530 N   0  0  0  0  0  0  0  0  0  0  0  0
   62.6290   32.1480   47.5120 C   0  0  0  0  0  0  0  0  0  0  0  0
   63.3163   31.2892   47.5010 H   0  0  0  0  0  0  0  0  0  0  0  0
   62.3112   32.4434   46.5012 H   0  0  0  0  0  0  0  0  0  0  0  0
   63.3620   33.3460   48.1190 C   0  0  0  0  0  0  0  0  0  0  0  0
   63.9868   32.9997   48.9555 H   0  0  0  0  0  0  0  0  0  0  0  0
   63.9851   33.8083   47.3392 H   0  0  0  0  0  0  0  0  0  0  0  0
   62.4490   34.3070   48.5930 O   0  0  0  0  0  0  0  0  0  0  0  0
   61.7920   33.7740   49.7190 C   0  0  0  0  0  0  0  0  0  0  0  0
   62.5434   33.3986   50.4292 H   0  0  0  0  0  0  0  0  0  0  0  0
   61.1878   34.5691   50.1802 H   0  0  0  0  0  0  0  0  0  0  0  0
   60.8620   32.6250   49.3210 C   0  0  0  0  0  0  0  0  0  0  0  0
   60.6770   32.0039   50.2098 H   0  0  0  0  0  0  0  0  0  0  0  0
   59.9403   33.0783   48.9273 H   0  0  0  0  0  0  0  0  0  0  0  0
   59.4320   30.2320   48.4460 C   0  0  0  0  0  0  0  0  0  0  0  0
   59.0434   30.8534   49.2663 H   0  0  0  0  0  0  0  0  0  0  0  0
   58.7100   29.1090   48.0340 C   0  0  0  0  0  0  0  0  0  0  0  0
   57.7601   28.8578   48.5285 H   0  0  0  0  0  0  0  0  0  0  0  0
   58.1650   29.6770   44.4080 S   0  0  0  0  0  0  0  0  0  0  0  0
   57.0740   30.9450   44.2060 C   0  0  0  0  0  0  0  0  0  0  0  0
   57.4210   32.3090   43.6990 C   0  0  0  0  0  0  0  0  0  0  0  0
   58.1385   32.2177   42.8702 H   0  0  0  0  0  0  0  0  0  0  0  0
   56.5052   32.8067   43.3473 H   0  0  0  0  0  0  0  0  0  0  0  0
   58.0350   33.1280   44.8010 C   0  0  0  0  0  0  0  0  0  0  0  0
   58.9950   34.1100   44.5020 C   0  0  0  0  0  0  0  0  0  0  0  0
   59.2767   34.3009   43.4560 H   0  0  0  0  0  0  0  0  0  0  0  0
   59.5930   34.8450   45.5300 C   0  0  0  0  0  0  0  0  0  0  0  0
   60.3391   35.6171   45.2910 H   0  0  0  0  0  0  0  0  0  0  0  0
   59.2440   34.6000   46.8610 C   0  0  0  0  0  0  0  0  0  0  0  0
   59.7127   35.1821   47.6682 H   0  0  0  0  0  0  0  0  0  0  0  0
   58.3000   33.6160   47.1670 C   0  0  0  0  0  0  0  0  0  0  0  0
   58.0287   33.4219   48.2152 H   0  0  0  0  0  0  0  0  0  0  0  0
   57.7000   32.8780   46.1420 C   0  0  0  0  0  0  0  0  0  0  0  0
   56.9630   32.0989   46.3867 H   0  0  0  0  0  0  0  0  0  0  0  0
  1  2  1  0
  2  3  1  0
  3  4  1  0
  4  5  2  0
  5  6  1  0
  6  7  2  0
  6  8  2  0
  6  9  1  0
  9 10  2  0
 10 11  1  0
 10 12  1  0
 12 13  1  0
 12 14  2  0
 14 15  1  0
 15 16  1  0
 16 17  1  0
 16 18  1  0
 16 19  1  0
 19 20  1  0
 19 21  1  0
 19 22  1  0
 22 23  1  0
 23 24  1  0
 23 25  1  0
 23 26  1  0
 26 27  1  0
 26 28  1  0
 14 29  1  0
 29 30  1  0
 29 31  2  0
 31 32  1  0
  4 33  1  0
 33 34  1  0
 34 35  1  0
 35 36  1  0
 35 37  1  0
 35 38  1  0
 38 39  2  0
 39 40  1  0
 39 41  1  0
 41 42  1  0
 41 43  2  0
 43 44  1  0
 43 45  1  0
 45 46  1  0
 45 47  2  0
 47 48  1  0
 34  2  2  0
 47 38  1  0
 31  9  1  0
 26 15  1  0
M  CHG  1   3  -1
M  END
>  <UniqueID>  (81) 
73

>  <SMILES>  (81) 
O=S(=O)(/N=c1\[n-]cc(Cc2ccccc2)s1)c1ccc(N2CCOCC2)cc1

>  <Energy>  (81) 
90.05339456568865

>  <Genealogy>  (81) 
O=S(=O)(N=c1[n-]cc(Cc2ccccc2)s1)c1ccc(N2CCOCC2)cc1 (protonated)
O=S(=O)(/N=c1\[n-]cc(Cc2ccccc2)s1)c1ccc(N2CCOCC2)cc1 (cis-trans isomerization)
O=S(=O)(/N=c1\[n-]cc(Cc2ccccc2)s1)c1ccc(N2CCOCC2)cc1 (3D coordinates assigned)
O=S(=O)(/N=c1\[n-]cc(Cc2ccccc2)s1)c1ccc(N2CCOCC2)cc1 (nonaromatic ring conformer: 90.05339456568865 kcal/mol)

>  <smiles>  (81) 
O=S(=O)(N=c1[nH]cc(Cc2ccccc2)s1)c1ccc(N2CCOCC2)cc1

>  <score_type>  (81) 
oracle

>  <origin>  (81) 
adg

>  <m_score__min__energy>  (81) 
-10.58

>  <m_primary>  (81) 
energy

$$$$
81:0
     RDKit          3D

 54 56  0  0  0  0  0  0  0  0999 V2000
   64.9020   32.7330   49.3890 C   0  0  0  0  0  0  0  0  0  0  0  0
   63.5360   32.2750   49.0860 N   0  0  1  0  0  0  0  0  0  0  0  0
   62.7560   32.0120   50.3200 C   0  0  0  0  0  0  0  0  0  0  0  0
   62.4250   30.5210   50.5350 C   0  0  0  0  0  0  0  0  0  0  0  0
   61.0680   30.1540   49.9930 C   0  0  0  0  0  0  0  0  0  0  0  0
   60.8760   28.9240   49.3400 C   0  0  0  0  0  0  0  0  0  0  0  0
   59.6120   28.5710   48.8590 C   0  0  0  0  0  0  0  0  0  0  0  0
   58.5310   29.4410   49.0270 C   0  0  0  0  0  0  0  0  0  0  0  0
   58.7120   30.6650   49.6770 C   0  0  0  0  0  0  0  0  0  0  0  0
   59.9740   31.0220   50.1590 C   0  0  0  0  0  0  0  0  0  0  0  0
   62.7170   33.4890   48.1290 S   0  0  0  0  0  0  0  0  0  0  0  0
   63.6690   34.0530   47.1100 O   0  0  0  0  0  0  0  0  0  0  0  0
   62.2590   34.6160   49.0120 O   0  0  0  0  0  0  0  0  0  0  0  0
   61.3250   32.7910   47.3010 C   0  0  0  0  0  0  0  0  0  0  0  0
   60.1870   33.5700   47.0540 C   0  0  0  0  0  0  0  0  0  0  0  0
   59.0420   32.9850   46.5030 C   0  0  0  0  0  0  0  0  0  0  0  0
   59.0140   31.6170   46.2110 C   0  0  0  0  0  0  0  0  0  0  0  0
   57.8060   31.0580   45.7570 O   0  0  0  0  0  0  0  0  0  0  0  0
   57.6920   29.9730   44.8330 C   0  0  0  0  0  0  0  0  0  0  0  0
   56.5630   29.0580   45.2130 C   0  0  0  0  0  0  0  0  0  0  0  0
   55.3850   29.3580   44.8780 O   0  0  0  0  0  0  0  0  0  0  0  0
   56.8460   27.8360   45.9150 N   0  0  0  0  0  0  0  0  0  0  0  0
   56.4290   26.6390   45.6260 C   0  0  0  0  0  0  0  0  0  0  0  0
   57.2500   25.7210   45.0470 N   0  0  0  0  0  0  0  0  0  0  0  0
   56.8080   24.4730   44.7470 C   0  0  0  0  0  0  0  0  0  0  0  0
   55.4860   24.1060   45.0320 C   0  0  0  0  0  0  0  0  0  0  0  0
   54.9880   22.7500   44.7220 C   0  0  0  0  0  0  0  0  0  0  0  0
   55.6250   21.9980   43.9370 O   0  0  0  0  0  0  0  0  0  0  0  0
   53.8070   22.2860   45.2890 O   0  0  0  0  0  0  0  0  0  0  0  0
   54.6580   25.0680   45.6260 C   0  0  0  0  0  0  0  0  0  0  0  0
   55.1430   26.3050   45.9080 N   0  0  0  0  0  0  0  0  0  0  0  0
   60.1790   30.8500   46.4050 C   0  0  0  0  0  0  0  0  0  0  0  0
   61.3220   31.4350   46.9540 C   0  0  0  0  0  0  0  0  0  0  0  0
   65.0398   32.7792   50.4794 H   0  0  0  0  0  0  0  0  0  0  0  0
   65.6289   32.0294   48.9570 H   0  0  0  0  0  0  0  0  0  0  0  0
   65.0579   33.7325   48.9570 H   0  0  0  0  0  0  0  0  0  0  0  0
   63.5890   31.4120   48.5000 H   0  0  0  0  0  0  0  0  0  0  0  0
   63.3395   32.3666   51.1824 H   0  0  0  0  0  0  0  0  0  0  0  0
   61.7985   32.5433   50.2159 H   0  0  0  0  0  0  0  0  0  0  0  0
   63.1863   29.9123   50.0252 H   0  0  0  0  0  0  0  0  0  0  0  0
   62.4183   30.3300   51.6183 H   0  0  0  0  0  0  0  0  0  0  0  0
   61.7242   28.2363   49.2070 H   0  0  0  0  0  0  0  0  0  0  0  0
   59.4679   27.6077   48.3478 H   0  0  0  0  0  0  0  0  0  0  0  0
   57.5370   29.1621   48.6473 H   0  0  0  0  0  0  0  0  0  0  0  0
   57.8600   31.3481   49.8093 H   0  0  0  0  0  0  0  0  0  0  0  0
   60.1124   31.9860   50.6704 H   0  0  0  0  0  0  0  0  0  0  0  0
   60.1939   34.6435   47.2938 H   0  0  0  0  0  0  0  0  0  0  0  0
   58.1570   33.6052   46.2978 H   0  0  0  0  0  0  0  0  0  0  0  0
   57.5052   30.3758   43.8266 H   0  0  0  0  0  0  0  0  0  0  0  0
   58.6297   29.3982   44.8504 H   0  0  0  0  0  0  0  0  0  0  0  0
   57.4897   23.7477   44.2788 H   0  0  0  0  0  0  0  0  0  0  0  0
   53.6130   24.8208   45.8644 H   0  0  0  0  0  0  0  0  0  0  0  0
   60.1887   29.7868   46.1232 H   0  0  0  0  0  0  0  0  0  0  0  0
   62.2246   30.8271   47.1146 H   0  0  0  0  0  0  0  0  0  0  0  0
  1  2  1  0
  2  3  1  0
  3  4  1  0
  4  5  1  0
  5  6  2  0
  6  7  1  0
  7  8  2  0
  8  9  1  0
  9 10  2  0
  2 11  1  0
 11 12  2  0
 11 13  2  0
 11 14  1  0
 14 15  2  0
 15 16  1  0
 16 17  2  0
 17 18  1  0
 18 19  1  0
 19 20  1  0
 20 21  2  0
 20 22  1  0
 22 23  2  3
 23 24  1  0
 24 25  2  0
 25 26  1  0
 26 27  1  0
 27 28  2  0
 27 29  1  0
 26 30  2  0
 30 31  1  0
 17 32  1  0
 32 33  2  0
 10  5  1  0
 33 14  1  0
 31 23  1  0
  1 34  1  0
  1 35  1  0
  1 36  1  0
  2 37  1  6
  3 38  1  0
  3 39  1  0
  4 40  1  0
  4 41  1  0
  6 42  1  0
  7 43  1  0
  8 44  1  0
  9 45  1  0
 10 46  1  0
 15 47  1  0
 16 48  1  0
 19 49  1  0
 19 50  1  0
 25 51  1  0
 30 52  1  0
 32 53  1  0
 33 54  1  0
M  CHG  3   2   1  29  -1  31  -1
M  END
>  <UniqueID>  (82) 
74

>  <SMILES>  (82) 
C[N@@H+](CCc1ccccc1)S(=O)(=O)c1ccc(OCC(=O)N=c2ncc(C(=O)[O-])c[n-]2)cc1

>  <Energy>  (82) 
56.87965019404867

>  <Genealogy>  (82) 
C[NH+](CCc1ccccc1)S(=O)(=O)c1ccc(OCC(=O)N=c2ncc(C(=O)[O-])c[n-]2)cc1 (protonated)
C[N@@H+](CCc1ccccc1)S(=O)(=O)c1ccc(OCC(=O)N=c2ncc(C(=O)[O-])c[n-]2)cc1 (chirality)
C[N@@H+](CCc1ccccc1)S(=O)(=O)c1ccc(OCC(=O)N=c2ncc(C(=O)[O-])c[n-]2)cc1 (3D coordinates assigned)
C[N@@H+](CCc1ccccc1)S(=O)(=O)c1ccc(OCC(=O)N=c2ncc(C(=O)[O-])c[n-]2)cc1 (optimized conformer: 56.87965019404867 kcal/mol)

>  <smiles>  (82) 
CN(CCc1ccccc1)S(=O)(=O)c1ccc(OCC(=O)N=c2ncc(C(=O)O)c[nH]2)cc1

>  <score_type>  (82) 
oracle

>  <origin>  (82) 
adg

>  <m_score__min__energy>  (82) 
-11.94

>  <m_primary>  (82) 
energy

$$$$
82:0
     RDKit          3D

 36 38  0  0  1  0  0  0  0  0999 V2000
   59.8380   30.1680   46.8350 C   0  0  0  0  0  0  0  0  0  0  0  0
   58.8230   29.2940   46.1620 C   0  0  0  0  0  0  0  0  0  0  0  0
   58.3400   28.0710   46.5750 C   0  0  0  0  0  0  0  0  0  0  0  0
   57.4170   27.6620   45.6140 C   0  0  0  0  0  0  0  0  0  0  0  0
   56.6480   26.4210   45.6300 C   0  0  0  0  0  0  0  0  0  0  0  0
   57.0840   25.3230   45.2320 O   0  0  0  0  0  0  0  0  0  0  0  0
   55.3380   26.4380   46.1160 O   0  0  0  0  0  0  0  0  0  0  0  0
   57.3910   28.6260   44.7010 N   0  0  0  0  0  0  0  0  0  0  0  0
   58.2140   29.6210   44.9840 N   0  0  0  0  0  0  0  0  0  0  0  0
   58.4560   30.8280   44.2380 C   0  0  0  0  0  0  0  0  0  0  0  0
   57.4300   31.8710   44.4950 C   0  0  0  0  0  0  0  0  0  0  0  0
   56.2850   31.5140   44.8320 O   0  0  0  0  0  0  0  0  0  0  0  0
   57.8350   33.2260   44.3380 N   0  0  0  0  0  0  0  0  0  0  0  0
   58.4080   33.8180   45.3300 C   0  0  0  0  0  0  0  0  0  0  0  0
   58.5750   33.4040   46.6340 C   0  0  0  0  0  0  0  0  0  0  0  0
   59.2650   34.4200   47.3030 C   0  0  0  0  0  0  0  0  0  0  0  0
   59.6580   34.3900   48.7370 C   0  0  0  0  0  0  0  0  0  0  0  0
   60.9610   33.8310   49.1660 C   0  0  0  0  0  0  0  0  0  0  0  0
   59.6870   33.0920   49.4560 C   0  0  0  0  0  0  0  0  0  0  0  0
   59.4810   35.3870   46.3820 N   0  0  0  0  0  0  0  0  0  0  0  0
   58.9740   35.0340   45.2120 N   0  0  0  0  0  0  0  0  0  0  0  0
   59.7334   30.0780   47.9263 H   0  0  0  0  0  0  0  0  0  0  0  0
   60.8487   29.8531   46.5363 H   0  0  0  0  0  0  0  0  0  0  0  0
   59.6766   31.2143   46.5363 H   0  0  0  0  0  0  0  0  0  0  0  0
   58.6270   27.5244   47.4854 H   0  0  0  0  0  0  0  0  0  0  0  0
   55.0990   26.3420   47.0810 H   0  0  0  0  0  0  0  0  0  0  0  0
   59.4418   31.2257   44.5207 H   0  0  0  0  0  0  0  0  0  0  0  0
   58.4138   30.5740   43.1685 H   0  0  0  0  0  0  0  0  0  0  0  0
   58.2304   32.4533   47.0670 H   0  0  0  0  0  0  0  0  0  0  0  0
   59.1587   35.3587   48.8866 H   0  0  0  0  0  0  0  0  0  0  0  0
   61.6662   33.4405   48.4175 H   0  0  0  0  0  0  0  0  0  0  0  0
   61.8053   34.1959   49.7693 H   0  0  0  0  0  0  0  0  0  0  0  0
   59.4562   32.1595   48.9201 H   0  0  0  0  0  0  0  0  0  0  0  0
   59.2065   32.6892   50.3598 H   0  0  0  0  0  0  0  0  0  0  0  0
   59.9880   36.2680   46.6410 H   0  0  0  0  0  0  0  0  0  0  0  0
   59.0430   35.6580   44.3680 H   0  0  0  0  0  0  0  0  0  0  0  0
  1  2  1  0
  2  3  2  0
  3  4  1  0
  4  5  1  0
  5  6  2  0
  5  7  1  0
  4  8  2  0
  8  9  1  0
  9 10  1  0
 10 11  1  0
 11 12  2  0
 11 13  1  0
 13 14  2  0
 14 15  1  0
 15 16  2  0
 16 17  1  0
 17 18  1  0
 18 19  1  0
 16 20  1  0
 20 21  1  0
  9  2  1  0
 21 14  1  0
 19 17  1  0
  1 22  1  0
  1 23  1  0
  1 24  1  0
  3 25  1  0
  7 26  1  0
 10 27  1  0
 10 28  1  0
 15 29  1  0
 17 30  1  0
 18 31  1  0
 18 32  1  0
 19 33  1  0
 19 34  1  0
 20 35  1  0
 21 36  1  0
M  END
>  <smiles>  (83) 
Cc1cc(C(=O)O)nn1CC(=O)N=c1cc(C2CC2)[nH][nH]1

>  <score_type>  (83) 
oracle

>  <origin>  (83) 
adg

>  <m_score__min__energy>  (83) 
-8.4700000000000006

>  <m_primary>  (83) 
energy

$$$$
83:0
     RDKit          3D

 51 53  0  0  0  0  0  0  0  0999 V2000
   58.4860   21.4740   44.1490 C   0  0  0  0  0  0  0  0  0  0  0  0
   59.2290   22.5070   44.9310 C   0  0  0  0  0  0  0  0  0  0  0  0
   60.4070   22.2730   45.3130 O   0  0  0  0  0  0  0  0  0  0  0  0
   58.5990   23.7580   45.2470 N   0  0  0  0  0  0  0  0  0  0  0  0
   59.3220   24.8720   45.8540 C   0  0  0  0  0  0  0  0  0  0  0  0
   58.6060   26.1630   45.5640 C   0  0  0  0  0  0  0  0  0  0  0  0
   58.0440   26.9160   46.6050 C   0  0  0  0  0  0  0  0  0  0  0  0
   57.3510   28.0980   46.3270 C   0  0  0  0  0  0  0  0  0  0  0  0
   57.1800   28.5290   45.0000 C   0  0  0  0  0  0  0  0  0  0  0  0
   56.4190   29.7650   44.6880 C   0  0  0  0  0  0  0  0  0  0  0  0
   55.2010   29.6790   44.3790 O   0  0  0  0  0  0  0  0  0  0  0  0
   57.0340   31.0620   44.6860 N   0  0  0  0  0  0  0  0  0  0  0  0
   57.8230   31.6350   45.7390 C   0  0  0  0  0  0  0  0  0  0  0  0
   58.7670   30.8760   46.4520 C   0  0  0  0  0  0  0  0  0  0  0  0
   59.5200   31.4670   47.4710 C   0  0  0  0  0  0  0  0  0  0  0  0
   59.3210   32.8140   47.8060 C   0  0  0  0  0  0  0  0  0  0  0  0
   60.2630   33.5540   49.1030 S   0  0  0  0  0  0  0  0  0  0  0  0
   59.7850   34.9630   49.3170 O   0  0  0  0  0  0  0  0  0  0  0  0
   60.0360   32.7890   50.3770 O   0  0  0  0  0  0  0  0  0  0  0  0
   61.9710   33.5690   48.7400 N   0  0  0  0  0  0  0  0  0  0  0  0
   62.6590   32.4860   49.4610 C   0  0  0  0  0  0  0  0  0  0  0  0
   64.1310   32.3880   49.0140 C   0  0  0  0  0  0  0  0  0  0  0  0
   64.4880   33.4680   48.1720 O   0  0  0  0  0  0  0  0  0  0  0  0
   63.7070   33.4280   46.9900 C   0  0  0  0  0  0  0  0  0  0  0  0
   62.1930   33.4340   47.2930 C   0  0  0  0  0  0  0  0  0  0  0  0
   58.3600   33.5630   47.1130 C   0  0  0  0  0  0  0  0  0  0  0  0
   57.6110   32.9730   46.0920 C   0  0  0  0  0  0  0  0  0  0  0  0
   57.7500   27.7750   43.9620 C   0  0  0  0  0  0  0  0  0  0  0  0
   58.4570   26.6030   44.2410 C   0  0  0  0  0  0  0  0  0  0  0  0
   57.9865   20.7796   44.8406 H   0  0  0  0  0  0  0  0  0  0  0  0
   57.7330   21.9652   43.5152 H   0  0  0  0  0  0  0  0  0  0  0  0
   59.1913   20.9164   43.5152 H   0  0  0  0  0  0  0  0  0  0  0  0
   57.6240   23.9190   44.9140 H   0  0  0  0  0  0  0  0  0  0  0  0
   59.3774   24.7217   46.9423 H   0  0  0  0  0  0  0  0  0  0  0  0
   60.3376   24.9177   45.4339 H   0  0  0  0  0  0  0  0  0  0  0  0
   58.1489   26.5750   47.6455 H   0  0  0  0  0  0  0  0  0  0  0  0
   56.9366   28.6950   47.1527 H   0  0  0  0  0  0  0  0  0  0  0  0
   58.9138   29.8136   46.2075 H   0  0  0  0  0  0  0  0  0  0  0  0
   60.2714   30.8731   48.0120 H   0  0  0  0  0  0  0  0  0  0  0  0
   62.6218   32.6900   50.5413 H   0  0  0  0  0  0  0  0  0  0  0  0
   62.1555   31.5341   49.2366 H   0  0  0  0  0  0  0  0  0  0  0  0
   64.7769   32.3996   49.9043 H   0  0  0  0  0  0  0  0  0  0  0  0
   64.2600   31.4523   48.4503 H   0  0  0  0  0  0  0  0  0  0  0  0
   63.9490   34.3074   46.3752 H   0  0  0  0  0  0  0  0  0  0  0  0
   63.9425   32.4932   46.4602 H   0  0  0  0  0  0  0  0  0  0  0  0
   61.7203   34.2793   46.7714 H   0  0  0  0  0  0  0  0  0  0  0  0
   61.7513   32.4881   46.9464 H   0  0  0  0  0  0  0  0  0  0  0  0
   58.1951   34.6188   47.3740 H   0  0  0  0  0  0  0  0  0  0  0  0
   56.8495   33.5638   45.5618 H   0  0  0  0  0  0  0  0  0  0  0  0
   57.6389   28.1100   42.9201 H   0  0  0  0  0  0  0  0  0  0  0  0
   58.8993   26.0221   43.4183 H   0  0  0  0  0  0  0  0  0  0  0  0
  1  2  1  0
  2  3  2  0
  2  4  1  0
  4  5  1  0
  5  6  1  0
  6  7  2  0
  7  8  1  0
  8  9  2  0
  9 10  1  0
 10 11  2  0
 10 12  1  0
 12 13  1  0
 13 14  2  0
 14 15  1  0
 15 16  2  0
 16 17  1  0
 17 18  2  0
 17 19  2  0
 17 20  1  0
 20 21  1  0
 21 22  1  0
 22 23  1  0
 23 24  1  0
 24 25  1  0
 16 26  1  0
 26 27  2  0
  9 28  1  0
 28 29  2  0
 29  6  1  0
 27 13  1  0
 25 20  1  0
  1 30  1  0
  1 31  1  0
  1 32  1  0
  4 33  1  0
  5 34  1  0
  5 35  1  0
  7 36  1  0
  8 37  1  0
 14 38  1  0
 15 39  1  0
 21 40  1  0
 21 41  1  0
 22 42  1  0
 22 43  1  0
 24 44  1  0
 24 45  1  0
 25 46  1  0
 25 47  1  0
 26 48  1  0
 27 49  1  0
 28 50  1  0
 29 51  1  0
M  CHG  1  12  -1
M  END
>  <UniqueID>  (84) 
75

>  <SMILES>  (84) 
CC(=O)NCc1ccc(C(=O)[N-]c2ccc(S(=O)(=O)N3CCOCC3)cc2)cc1

>  <Energy>  (84) 
62.2828844727013

>  <Genealogy>  (84) 
CC(=O)NCc1ccc(C(=O)[N-]c2ccc(S(=O)(=O)N3CCOCC3)cc2)cc1 (protonated)
CC(=O)NCc1ccc(C(=O)[N-]c2ccc(S(=O)(=O)N3CCOCC3)cc2)cc1 (3D coordinates assigned)
CC(=O)NCc1ccc(C(=O)[N-]c2ccc(S(=O)(=O)N3CCOCC3)cc2)cc1 (nonaromatic ring conformer: 62.2828844727013 kcal/mol)

>  <smiles>  (84) 
CC(=O)NCc1ccc(C(=O)Nc2ccc(S(=O)(=O)N3CCOCC3)cc2)cc1

>  <score_type>  (84) 
oracle

>  <origin>  (84) 
adg

>  <m_score__min__energy>  (84) 
-10.27

>  <m_primary>  (84) 
energy

$$$$
84:0
     RDKit          3D

 44 46  0  0  0  0  0  0  0  0999 V2000
   59.4288   25.3581   46.8001 H   0  0  0  0  0  0  0  0  0  0  0  0
   58.6110   26.0150   46.4690 C   0  0  0  0  0  0  0  0  0  0  0  0
   58.8510   27.3300   46.2320 N   0  0  0  0  0  0  0  0  0  0  0  0
   57.8690   28.1830   45.8160 C   0  0  0  0  0  0  0  0  0  0  0  0
   58.1170   29.4480   45.6240 N   0  0  0  0  0  0  0  0  0  0  0  0
   59.0000   30.2560   46.4170 C   0  0  0  0  0  0  0  0  0  0  0  0
   60.0830   30.6490   45.9080 O   0  0  0  0  0  0  0  0  0  0  0  0
   58.6980   30.5900   47.8270 C   0  0  0  0  0  0  0  0  0  0  0  0
   58.5610   31.9280   48.2280 C   0  0  0  0  0  0  0  0  0  0  0  0
   58.6733   32.7347   47.4887 H   0  0  0  0  0  0  0  0  0  0  0  0
   58.2830   32.2410   49.5600 C   0  0  0  0  0  0  0  0  0  0  0  0
   58.1617   33.2919   49.8616 H   0  0  0  0  0  0  0  0  0  0  0  0
   58.1580   31.2240   50.5130 C   0  0  0  0  0  0  0  0  0  0  0  0
   57.8780   31.6330   52.2040 S   0  0  0  0  0  0  0  0  0  0  0  0
   59.1680   32.0980   52.8180 O   0  0  0  0  0  0  0  0  0  0  0  0
   56.8550   32.7310   52.3060 O   0  0  0  0  0  0  0  0  0  0  0  0
   57.3070   30.2330   53.0600 N   0  0  0  0  0  0  0  0  0  0  0  0
   56.2490   30.6100   53.9970 C   0  0  0  0  0  0  0  0  0  0  0  0
   56.6208   30.5073   55.0272 H   0  0  0  0  0  0  0  0  0  0  0  0
   55.9547   31.6532   53.8096 H   0  0  0  0  0  0  0  0  0  0  0  0
   55.0330   29.7020   53.8040 C   0  0  0  0  0  0  0  0  0  0  0  0
   55.3168   28.8516   53.1666 H   0  0  0  0  0  0  0  0  0  0  0  0
   54.6990   29.3498   54.7911 H   0  0  0  0  0  0  0  0  0  0  0  0
   53.8980   30.4490   53.1520 C   0  0  0  0  0  0  0  0  0  0  0  0
   53.9950   30.8520   51.8090 C   0  0  0  0  0  0  0  0  0  0  0  0
   54.9232   30.6695   51.2477 H   0  0  0  0  0  0  0  0  0  0  0  0
   52.9160   31.4840   51.1840 C   0  0  0  0  0  0  0  0  0  0  0  0
   52.9998   31.8020   50.1343 H   0  0  0  0  0  0  0  0  0  0  0  0
   51.7310   31.7130   51.8890 C   0  0  0  0  0  0  0  0  0  0  0  0
   50.6580   32.3340   51.2630 O   0  0  0  0  0  0  0  0  0  0  0  0
   51.6260   31.3130   53.2250 C   0  0  0  0  0  0  0  0  0  0  0  0
   50.6953   31.4970   53.7817 H   0  0  0  0  0  0  0  0  0  0  0  0
   52.7030   30.6790   53.8550 C   0  0  0  0  0  0  0  0  0  0  0  0
   52.6139   30.3597   54.9038 H   0  0  0  0  0  0  0  0  0  0  0  0
   58.2670   29.8850   50.1150 C   0  0  0  0  0  0  0  0  0  0  0  0
   58.1478   29.0807   50.8559 H   0  0  0  0  0  0  0  0  0  0  0  0
   58.5270   29.5690   48.7780 C   0  0  0  0  0  0  0  0  0  0  0  0
   58.5981   28.5158   48.4687 H   0  0  0  0  0  0  0  0  0  0  0  0
   56.5660   27.6960   45.6360 C   0  0  0  0  0  0  0  0  0  0  0  0
   55.5410   28.5410   45.2240 O   0  0  0  0  0  0  0  0  0  0  0  0
   56.3020   26.3430   45.8730 C   0  0  0  0  0  0  0  0  0  0  0  0
   55.2860   25.9470   45.7283 H   0  0  0  0  0  0  0  0  0  0  0  0
   57.3280   25.4960   46.2930 C   0  0  0  0  0  0  0  0  0  0  0  0
   57.1277   24.4312   46.4832 H   0  0  0  0  0  0  0  0  0  0  0  0
  1  2  1  0
  2  3  1  0
  3  4  1  0
  4  5  2  0
  5  6  1  0
  6  7  2  0
  6  8  1  0
  8  9  2  0
  9 10  1  0
  9 11  1  0
 11 12  1  0
 11 13  2  0
 13 14  1  0
 14 15  2  0
 14 16  2  0
 14 17  1  0
 17 18  1  0
 18 19  1  0
 18 20  1  0
 18 21  1  0
 21 22  1  0
 21 23  1  0
 21 24  1  0
 24 25  2  0
 25 26  1  0
 25 27  1  0
 27 28  1  0
 27 29  2  0
 29 30  1  0
 29 31  1  0
 31 32  1  0
 31 33  2  0
 33 34  1  0
 13 35  1  0
 35 36  1  0
 35 37  2  0
 37 38  1  0
  4 39  1  0
 39 40  1  0
 39 41  2  0
 41 42  1  0
 41 43  1  0
 43 44  1  0
 43  2  2  0
 37  8  1  0
 33 24  1  0
M  CHG  4   3  -1  17  -1  30  -1  40  -1
M  END
>  <UniqueID>  (85) 
76

>  <SMILES>  (85) 
O=C(/N=c1\[n-]cccc1[O-])c1ccc(S(=O)(=O)[N-]CCc2ccc([O-])cc2)cc1

>  <Energy>  (85) 
47.16508509118419

>  <Genealogy>  (85) 
O=C(N=c1[n-]cccc1[O-])c1ccc(S(=O)(=O)[N-]CCc2ccc([O-])cc2)cc1 (protonated)
O=C(/N=c1\[n-]cccc1[O-])c1ccc(S(=O)(=O)[N-]CCc2ccc([O-])cc2)cc1 (cis-trans isomerization)
O=C(/N=c1\[n-]cccc1[O-])c1ccc(S(=O)(=O)[N-]CCc2ccc([O-])cc2)cc1 (3D coordinates assigned)
O=C(/N=c1\[n-]cccc1[O-])c1ccc(S(=O)(=O)[N-]CCc2ccc([O-])cc2)cc1 (optimized conformer: 47.16508509118419 kcal/mol)

>  <smiles>  (85) 
O=C(N=c1[nH]cccc1O)c1ccc(S(=O)(=O)NCCc2ccc(O)cc2)cc1

>  <score_type>  (85) 
oracle

>  <origin>  (85) 
adg

>  <m_score__min__energy>  (85) 
-17.27

>  <m_primary>  (85) 
energy

$$$$
85:0
     RDKit          3D

 54 56  0  0  0  0  0  0  0  0999 V2000
   56.7090   25.9430   43.0240 H   0  0  0  0  0  0  0  0  0  0  0  0
   57.3820   25.2200   42.8930 O   0  0  0  0  0  0  0  0  0  0  0  0
   56.8270   24.0430   43.4180 C   0  0  0  0  0  0  0  0  0  0  0  0
   57.6043   23.2657   43.4564 H   0  0  0  0  0  0  0  0  0  0  0  0
   55.9968   23.7290   42.7683 H   0  0  0  0  0  0  0  0  0  0  0  0
   56.2760   24.2730   44.8370 C   0  0  1  0  0  0  0  0  0  0  0  0
   56.7414   23.5263   45.4972 H   0  0  0  0  0  0  0  0  0  0  0  0
   56.6230   25.6220   45.2990 N   0  0  0  0  0  0  0  0  0  0  0  0
   56.4780   26.4380   44.6580 H   0  0  0  0  0  0  0  0  0  0  0  0
   57.0570   25.8860   46.6400 C   0  0  0  0  0  0  0  0  0  0  0  0
   57.1490   24.9370   47.4720 O   0  0  0  0  0  0  0  0  0  0  0  0
   57.3940   27.2710   47.0370 C   0  0  0  0  0  0  0  0  0  0  0  0
   56.9784   27.6388   47.9868 H   0  0  0  0  0  0  0  0  0  0  0  0
   58.1650   28.1160   46.3340 C   0  0  0  0  0  0  0  0  0  0  0  0
   59.2429   27.9011   46.2899 H   0  0  0  0  0  0  0  0  0  0  0  0
   57.6780   29.3150   45.6130 C   0  0  0  0  0  0  0  0  0  0  0  0
   58.4900   30.4580   45.4880 C   0  0  0  0  0  0  0  0  0  0  0  0
   59.4953   30.4625   45.9344 H   0  0  0  0  0  0  0  0  0  0  0  0
   58.0310   31.5920   44.8000 C   0  0  0  0  0  0  0  0  0  0  0  0
   58.8470   32.7590   44.6170 N   0  0  0  0  0  0  0  0  0  0  0  0
   58.8330   34.1540   45.6480 S   0  0  0  0  0  0  0  0  0  0  0  0
   57.5210   34.2180   46.3770 O   0  0  0  0  0  0  0  0  0  0  0  0
   58.9770   35.3990   44.8140 O   0  0  0  0  0  0  0  0  0  0  0  0
   60.1350   34.0350   46.8310 C   0  0  0  0  0  0  0  0  0  0  0  0
   61.4440   33.7040   46.4340 C   0  0  0  0  0  0  0  0  0  0  0  0
   61.6674   33.5308   45.3709 H   0  0  0  0  0  0  0  0  0  0  0  0
   62.4680   33.5940   47.3930 C   0  0  0  0  0  0  0  0  0  0  0  0
   63.4898   33.3317   47.0813 H   0  0  0  0  0  0  0  0  0  0  0  0
   62.1830   33.8190   48.7430 C   0  0  0  0  0  0  0  0  0  0  0  0
   62.9801   33.7331   49.4962 H   0  0  0  0  0  0  0  0  0  0  0  0
   60.8770   34.1550   49.1360 C   0  0  0  0  0  0  0  0  0  0  0  0
   60.6563   34.3393   50.1978 H   0  0  0  0  0  0  0  0  0  0  0  0
   59.8530   34.2570   48.1840 C   0  0  0  0  0  0  0  0  0  0  0  0
   58.8303   34.5109   48.4995 H   0  0  0  0  0  0  0  0  0  0  0  0
   56.7320   31.5910   44.2710 C   0  0  0  0  0  0  0  0  0  0  0  0
   56.3644   32.4728   43.7257 H   0  0  0  0  0  0  0  0  0  0  0  0
   55.9010   30.4790   44.4310 C   0  0  0  0  0  0  0  0  0  0  0  0
   54.8770   30.4966   44.0295 H   0  0  0  0  0  0  0  0  0  0  0  0
   56.3690   29.3430   45.1010 C   0  0  0  0  0  0  0  0  0  0  0  0
   55.5300   28.2420   45.2410 O   0  0  0  0  0  0  0  0  0  0  0  0
   54.7490   24.0640   44.9080 C   0  0  0  0  0  0  0  0  0  0  0  0
   54.2576   25.0466   44.9640 H   0  0  0  0  0  0  0  0  0  0  0  0
   54.4373   23.5160   44.0066 H   0  0  0  0  0  0  0  0  0  0  0  0
   54.3490   23.2490   46.1130 C   0  0  0  0  0  0  0  0  0  0  0  0
   55.3150   22.8250   47.0440 C   0  0  0  0  0  0  0  0  0  0  0  0
   56.3758   23.0674   46.8828 H   0  0  0  0  0  0  0  0  0  0  0  0
   54.9300   22.0960   48.1740 C   0  0  0  0  0  0  0  0  0  0  0  0
   55.6882   21.7652   48.8991 H   0  0  0  0  0  0  0  0  0  0  0  0
   53.5810   21.7870   48.3830 C   0  0  0  0  0  0  0  0  0  0  0  0
   53.2806   21.2116   49.2710 H   0  0  0  0  0  0  0  0  0  0  0  0
   52.6140   22.2090   47.4640 C   0  0  0  0  0  0  0  0  0  0  0  0
   51.5542   21.9653   47.6296 H   0  0  0  0  0  0  0  0  0  0  0  0
   52.9950   22.9400   46.3360 C   0  0  0  0  0  0  0  0  0  0  0  0
   52.2319   23.2757   45.6183 H   0  0  0  0  0  0  0  0  0  0  0  0
  1  2  1  0
  2  3  1  0
  3  4  1  0
  3  5  1  0
  3  6  1  0
  6  7  1  1
  6  8  1  0
  8  9  1  0
  8 10  1  0
 10 11  2  0
 10 12  1  0
 12 13  1  0
 12 14  2  0
 14 15  1  0
 14 16  1  0
 16 17  2  0
 17 18  1  0
 17 19  1  0
 19 20  1  0
 20 21  1  0
 21 22  2  0
 21 23  2  0
 21 24  1  0
 24 25  2  0
 25 26  1  0
 25 27  1  0
 27 28  1  0
 27 29  2  0
 29 30  1  0
 29 31  1  0
 31 32  1  0
 31 33  2  0
 33 34  1  0
 19 35  2  0
 35 36  1  0
 35 37  1  0
 37 38  1  0
 37 39  2  0
 39 40  1  0
  6 41  1  0
 41 42  1  0
 41 43  1  0
 41 44  1  0
 44 45  2  0
 45 46  1  0
 45 47  1  0
 47 48  1  0
 47 49  2  0
 49 50  1  0
 49 51  1  0
 51 52  1  0
 51 53  2  0
 53 54  1  0
 39 16  1  0
 53 44  1  0
 33 24  1  0
M  CHG  2  20  -1  40  -1
M  END
>  <UniqueID>  (86) 
77

>  <SMILES>  (86) 
O=C(/C=C\c1cc([N-]S(=O)(=O)c2ccccc2)ccc1[O-])N[C@H](CO)Cc1ccccc1

>  <Energy>  (86) 
62.258111997890765

>  <Genealogy>  (86) 
O=C(C=Cc1cc([N-]S(=O)(=O)c2ccccc2)ccc1[O-])NC(CO)Cc1ccccc1 (protonated)
O=C(C=Cc1cc([N-]S(=O)(=O)c2ccccc2)ccc1[O-])N[C@H](CO)Cc1ccccc1 (chirality)
O=C(/C=C\c1cc([N-]S(=O)(=O)c2ccccc2)ccc1[O-])N[C@H](CO)Cc1ccccc1 (cis-trans isomerization)
O=C(/C=C\c1cc([N-]S(=O)(=O)c2ccccc2)ccc1[O-])N[C@H](CO)Cc1ccccc1 (3D coordinates assigned)
O=C(/C=C\c1cc([N-]S(=O)(=O)c2ccccc2)ccc1[O-])N[C@H](CO)Cc1ccccc1 (optimized conformer: 62.258111997890765 kcal/mol)

>  <smiles>  (86) 
O=C(C=Cc1cc(NS(=O)(=O)c2ccccc2)ccc1O)NC(CO)Cc1ccccc1

>  <score_type>  (86) 
oracle

>  <origin>  (86) 
adg

>  <m_score__min__energy>  (86) 
-13.27

>  <m_primary>  (86) 
energy

$$$$
86:0
     RDKit          3D

 46 48  0  0  0  0  0  0  0  0999 V2000
   60.5350   33.7960   50.1540 C   0  0  0  0  0  0  0  0  0  0  0  0
   61.1820   33.6590   48.8110 C   0  0  0  0  0  0  0  0  0  0  0  0
   62.3800   33.0270   48.6710 N   0  0  0  0  0  0  0  0  0  0  0  0
   62.8270   33.0460   47.3950 C   0  0  0  0  0  0  0  0  0  0  0  0
   61.7560   33.8650   46.3920 S   0  0  0  0  0  0  0  0  0  0  0  0
   60.6790   34.2170   47.6350 C   0  0  0  0  0  0  0  0  0  0  0  0
   59.3900   34.9640   47.4630 C   0  0  0  0  0  0  0  0  0  0  0  0
   59.0060   34.9990   46.0570 N   0  0  0  0  0  0  0  0  0  0  0  0
   58.0900   34.0720   45.4600 C   0  0  0  0  0  0  0  0  0  0  0  0
   56.9990   34.4910   44.9830 O   0  0  0  0  0  0  0  0  0  0  0  0
   58.4230   32.6300   45.3970 C   0  0  0  0  0  0  0  0  0  0  0  0
   59.0250   31.9890   46.4950 C   0  0  0  0  0  0  0  0  0  0  0  0
   59.3370   30.6270   46.4400 C   0  0  0  0  0  0  0  0  0  0  0  0
   59.0400   29.8780   45.2920 C   0  0  0  0  0  0  0  0  0  0  0  0
   59.4130   28.4260   45.2160 C   0  0  0  0  0  0  0  0  0  0  0  0
   58.2650   27.6140   45.6010 N   0  0  0  0  0  0  0  0  0  0  0  0
   58.2440   26.7140   46.7160 C   0  0  0  0  0  0  0  0  0  0  0  0
   59.2950   26.5700   47.3960 O   0  0  0  0  0  0  0  0  0  0  0  0
   56.9870   25.9910   47.1280 C   0  0  0  0  0  0  0  0  0  0  0  0
   56.5910   24.9970   46.1120 N   0  0  0  0  0  0  0  0  0  0  0  0
   55.3390   25.0570   45.5510 C   0  0  0  0  0  0  0  0  0  0  0  0
   54.4270   26.0350   45.9380 O   0  0  0  0  0  0  0  0  0  0  0  0
   54.9520   24.1330   44.5810 C   0  0  0  0  0  0  0  0  0  0  0  0
   55.8510   23.1420   44.2070 C   0  0  0  0  0  0  0  0  0  0  0  0
   55.5330   22.2930   43.3340 O   0  0  0  0  0  0  0  0  0  0  0  0
   57.0700   23.0860   44.7920 N   0  0  0  0  0  0  0  0  0  0  0  0
   57.4490   23.9840   45.7390 C   0  0  0  0  0  0  0  0  0  0  0  0
   58.7120   23.8290   46.3160 O   0  0  0  0  0  0  0  0  0  0  0  0
   58.4530   30.5150   44.1890 C   0  0  0  0  0  0  0  0  0  0  0  0
   58.1440   31.8780   44.2420 C   0  0  0  0  0  0  0  0  0  0  0  0
   61.2867   33.6368   50.9411 H   0  0  0  0  0  0  0  0  0  0  0  0
   60.1075   34.8046   50.2539 H   0  0  0  0  0  0  0  0  0  0  0  0
   59.7354   33.0473   50.2539 H   0  0  0  0  0  0  0  0  0  0  0  0
   63.7676   32.5860   47.0580 H   0  0  0  0  0  0  0  0  0  0  0  0
   58.6005   34.4624   48.0419 H   0  0  0  0  0  0  0  0  0  0  0  0
   59.5248   35.9951   47.8216 H   0  0  0  0  0  0  0  0  0  0  0  0
   59.2523   32.5641   47.4047 H   0  0  0  0  0  0  0  0  0  0  0  0
   59.8178   30.1406   47.3015 H   0  0  0  0  0  0  0  0  0  0  0  0
   59.7114   28.1764   44.1871 H   0  0  0  0  0  0  0  0  0  0  0  0
   60.2526   28.2246   45.8975 H   0  0  0  0  0  0  0  0  0  0  0  0
   57.1648   25.4768   48.0840 H   0  0  0  0  0  0  0  0  0  0  0  0
   56.1769   26.7280   47.2313 H   0  0  0  0  0  0  0  0  0  0  0  0
   53.9543   24.1877   44.1209 H   0  0  0  0  0  0  0  0  0  0  0  0
   59.3400   24.5950   46.5190 H   0  0  0  0  0  0  0  0  0  0  0  0
   58.2345   29.9395   43.2774 H   0  0  0  0  0  0  0  0  0  0  0  0
   57.6788   32.3659   43.3728 H   0  0  0  0  0  0  0  0  0  0  0  0
  1  2  1  0
  2  3  1  0
  3  4  2  0
  4  5  1  0
  5  6  1  0
  6  7  1  0
  7  8  1  0
  8  9  1  0
  9 10  2  0
  9 11  1  0
 11 12  2  0
 12 13  1  0
 13 14  2  0
 14 15  1  0
 15 16  1  0
 16 17  1  0
 17 18  2  0
 17 19  1  0
 19 20  1  0
 20 21  1  0
 21 22  1  0
 21 23  2  0
 23 24  1  0
 24 25  2  0
 24 26  1  0
 26 27  2  0
 27 28  1  0
 14 29  1  0
 29 30  2  0
  6  2  2  0
 30 11  1  0
 27 20  1  0
  1 31  1  0
  1 32  1  0
  1 33  1  0
  4 34  1  0
  7 35  1  0
  7 36  1  0
 12 37  1  0
 13 38  1  0
 15 39  1  0
 15 40  1  0
 19 41  1  0
 19 42  1  0
 23 43  1  0
 28 44  1  0
 29 45  1  0
 30 46  1  0
M  CHG  3   8  -1  16  -1  22  -1
M  END
>  <UniqueID>  (87) 
78

>  <SMILES>  (87) 
Cc1ncsc1C[N-]C(=O)c1ccc(C[N-]C(=O)Cn2c([O-])cc(=O)nc2O)cc1

>  <Energy>  (87) 
77.15452968414607

>  <Genealogy>  (87) 
Cc1ncsc1C[N-]C(=O)c1ccc(C[N-]C(=O)Cn2c([O-])cc(=O)nc2O)cc1 (protonated)
Cc1ncsc1C[N-]C(=O)c1ccc(C[N-]C(=O)Cn2c([O-])cc(=O)nc2O)cc1 (3D coordinates assigned)
Cc1ncsc1C[N-]C(=O)c1ccc(C[N-]C(=O)Cn2c([O-])cc(=O)nc2O)cc1 (optimized conformer: 77.15452968414607 kcal/mol)

>  <smiles>  (87) 
Cc1ncsc1CNC(=O)c1ccc(CNC(=O)Cn2c(O)cc(=O)nc2O)cc1

>  <score_type>  (87) 
oracle

>  <origin>  (87) 
adg

>  <m_score__min__energy>  (87) 
-13.42

>  <m_primary>  (87) 
energy

$$$$
87:0
     RDKit          3D

 51 52  0  0  0  0  0  0  0  0999 V2000
   63.7100   30.3380   50.9720 H   0  0  0  0  0  0  0  0  0  0  0  0
   63.0540   30.5340   50.1860 N   0  0  0  0  0  0  0  0  0  0  0  0
   62.3510   31.6210   50.0960 C   0  0  0  0  0  0  0  0  0  0  0  0
   62.6440   32.6300   49.1100 N   0  0  0  0  0  0  0  0  0  0  0  0
   62.0740   33.5070   49.1260 H   0  0  0  0  0  0  0  0  0  0  0  0
   63.6740   32.4760   48.0820 C   0  0  0  0  0  0  0  0  0  0  0  0
   64.6657   32.5396   48.5537 H   0  0  0  0  0  0  0  0  0  0  0  0
   63.5413   31.4983   47.5957 H   0  0  0  0  0  0  0  0  0  0  0  0
   63.5560   33.5510   47.0380 C   0  0  0  0  0  0  0  0  0  0  0  0
   64.4537   34.1124   46.7397 H   0  0  0  0  0  0  0  0  0  0  0  0
   62.3850   33.8390   46.4650 C   0  0  0  0  0  0  0  0  0  0  0  0
   62.3252   34.6304   45.7034 H   0  0  0  0  0  0  0  0  0  0  0  0
   61.4800   33.2849   46.7545 H   0  0  0  0  0  0  0  0  0  0  0  0
   61.1660   31.7980   51.0020 C   0  0  0  0  0  0  0  0  0  0  0  0
   61.5081   32.2163   51.9601 H   0  0  0  0  0  0  0  0  0  0  0  0
   60.4540   32.4768   50.5099 H   0  0  0  0  0  0  0  0  0  0  0  0
   60.4550   30.4640   51.2660 C   0  0  0  0  0  0  0  0  0  0  0  0
   61.0899   29.8423   51.9143 H   0  0  0  0  0  0  0  0  0  0  0  0
   59.4907   30.6759   51.7510 H   0  0  0  0  0  0  0  0  0  0  0  0
   60.1950   29.7420   50.0210 N   0  0  0  0  0  0  0  0  0  0  0  0
   60.7420   28.8690   49.8470 H   0  0  0  0  0  0  0  0  0  0  0  0
   59.3100   30.2460   49.0070 C   0  0  0  0  0  0  0  0  0  0  0  0
   58.6170   31.2750   49.2340 O   0  0  0  0  0  0  0  0  0  0  0  0
   59.2360   29.6040   47.6770 C   0  0  0  0  0  0  0  0  0  0  0  0
   60.2050   28.6730   47.2640 C   0  0  0  0  0  0  0  0  0  0  0  0
   61.0274   28.4019   47.9424 H   0  0  0  0  0  0  0  0  0  0  0  0
   60.1290   28.0900   45.9960 C   0  0  0  0  0  0  0  0  0  0  0  0
   60.8949   27.3672   45.6783 H   0  0  0  0  0  0  0  0  0  0  0  0
   59.0840   28.4220   45.1310 C   0  0  0  0  0  0  0  0  0  0  0  0
   59.0323   27.9669   44.1309 H   0  0  0  0  0  0  0  0  0  0  0  0
   58.1010   29.3350   45.5370 C   0  0  0  0  0  0  0  0  0  0  0  0
   56.7470   29.7290   44.4820 S   0  0  0  0  0  0  0  0  0  0  0  0
   57.1040   29.3350   43.0770 O   0  0  0  0  0  0  0  0  0  0  0  0
   55.5190   28.9670   44.8980 O   0  0  0  0  0  0  0  0  0  0  0  0
   56.4200   31.4390   44.5270 N   0  0  0  0  0  0  0  0  0  0  0  0
   57.5290   32.2140   43.9660 C   0  0  0  0  0  0  0  0  0  0  0  0
   58.3047   31.5227   43.6049 H   0  0  0  0  0  0  0  0  0  0  0  0
   57.1446   32.8277   43.1380 H   0  0  0  0  0  0  0  0  0  0  0  0
   58.1270   33.1270   45.0030 C   0  0  0  0  0  0  0  0  0  0  0  0
   57.8260   32.9420   46.3630 C   0  0  0  0  0  0  0  0  0  0  0  0
   57.1799   32.1072   46.6724 H   0  0  0  0  0  0  0  0  0  0  0  0
   58.3440   33.8140   47.3240 C   0  0  0  0  0  0  0  0  0  0  0  0
   58.1019   33.6665   48.3868 H   0  0  0  0  0  0  0  0  0  0  0  0
   59.1690   34.8730   46.9370 C   0  0  0  0  0  0  0  0  0  0  0  0
   59.5701   35.5624   47.6945 H   0  0  0  0  0  0  0  0  0  0  0  0
   59.4850   35.0570   45.5880 C   0  0  0  0  0  0  0  0  0  0  0  0
   60.1380   35.8888   45.2852 H   0  0  0  0  0  0  0  0  0  0  0  0
   58.9720   34.1850   44.6230 C   0  0  0  0  0  0  0  0  0  0  0  0
   59.2301   34.3269   43.5632 H   0  0  0  0  0  0  0  0  0  0  0  0
   58.1830   29.9260   46.8030 C   0  0  0  0  0  0  0  0  0  0  0  0
   57.4162   30.6494   47.1172 H   0  0  0  0  0  0  0  0  0  0  0  0
  1  2  1  0
  2  3  2  0
  3  4  1  0
  4  5  1  0
  4  6  1  0
  6  7  1  0
  6  8  1  0
  6  9  1  0
  9 10  1  0
  9 11  2  0
 11 12  1  0
 11 13  1  0
  3 14  1  0
 14 15  1  0
 14 16  1  0
 14 17  1  0
 17 18  1  0
 17 19  1  0
 17 20  1  0
 20 21  1  0
 20 22  1  0
 22 23  2  0
 22 24  1  0
 24 25  2  0
 25 26  1  0
 25 27  1  0
 27 28  1  0
 27 29  2  0
 29 30  1  0
 29 31  1  0
 31 32  1  0
 32 33  2  0
 32 34  2  0
 32 35  1  0
 35 36  1  0
 36 37  1  0
 36 38  1  0
 36 39  1  0
 39 40  2  0
 40 41  1  0
 40 42  1  0
 42 43  1  0
 42 44  2  0
 44 45  1  0
 44 46  1  0
 46 47  1  0
 46 48  2  0
 48 49  1  0
 31 50  2  0
 50 51  1  0
 50 24  1  0
 48 39  1  0
M  CHG  1  35  -1
M  END
>  <UniqueID>  (88) 
79

>  <SMILES>  (88) 
[H]/N=C(/CCNC(=O)c1cccc(S(=O)(=O)[N-]Cc2ccccc2)c1)NCC=C

>  <Energy>  (88) 
36.62271727218509

>  <Genealogy>  (88) 
C=CCNC(=N)CCNC(=O)c1cccc(S(=O)(=O)[N-]Cc2ccccc2)c1 (protonated)
[H]/N=C(/CCNC(=O)c1cccc(S(=O)(=O)[N-]Cc2ccccc2)c1)NCC=C (cis-trans isomerization)
[H]/N=C(/CCNC(=O)c1cccc(S(=O)(=O)[N-]Cc2ccccc2)c1)NCC=C (3D coordinates assigned)
[H]/N=C(/CCNC(=O)c1cccc(S(=O)(=O)[N-]Cc2ccccc2)c1)NCC=C (optimized conformer: 36.62271727218509 kcal/mol)

>  <smiles>  (88) 
C=CCNC(=N)CCNC(=O)c1cccc(S(=O)(=O)NCc2ccccc2)c1

>  <score_type>  (88) 
oracle

>  <origin>  (88) 
adg

>  <m_score__min__energy>  (88) 
-9.3800000000000008

>  <m_primary>  (88) 
energy

$$$$
88:0
     RDKit          3D

 44 46  0  0  0  0  0  0  0  0999 V2000
   55.8620   22.6220   48.4390 C   0  0  0  0  0  0  0  0  0  0  0  0
   55.0510   22.7150   47.2730 O   0  0  0  0  0  0  0  0  0  0  0  0
   55.5460   22.7720   45.9610 C   0  0  0  0  0  0  0  0  0  0  0  0
   56.5600   21.9000   45.5140 C   0  0  0  0  0  0  0  0  0  0  0  0
   57.0450   21.9880   44.2080 C   0  0  0  0  0  0  0  0  0  0  0  0
   56.5320   22.9440   43.3340 C   0  0  0  0  0  0  0  0  0  0  0  0
   55.5310   23.8170   43.7610 C   0  0  0  0  0  0  0  0  0  0  0  0
   55.0200   23.7320   45.0680 C   0  0  0  0  0  0  0  0  0  0  0  0
   53.9960   24.7420   45.5220 C   0  0  0  0  0  0  0  0  0  0  0  0
   54.6770   25.9620   45.9360 N   0  0  0  0  0  0  0  0  0  0  0  0
   56.0650   25.9970   46.2730 C   0  0  0  0  0  0  0  0  0  0  0  0
   56.4630   25.5390   47.3780 O   0  0  0  0  0  0  0  0  0  0  0  0
   57.0530   26.4860   45.2650 C   0  0  0  0  0  0  0  0  0  0  0  0
   57.7440   27.7060   45.8120 C   0  0  0  0  0  0  0  0  0  0  0  0
   57.4110   29.0560   45.6160 C   0  0  0  0  0  0  0  0  0  0  0  0
   56.3660   29.5640   44.6950 C   0  0  0  0  0  0  0  0  0  0  0  0
   55.1510   29.3130   44.9010 O   0  0  0  0  0  0  0  0  0  0  0  0
   56.7120   30.3220   43.5840 O   0  0  0  0  0  0  0  0  0  0  0  0
   58.1940   29.8480   46.4020 N   0  0  0  0  0  0  0  0  0  0  0  0
   58.1230   31.3060   46.5260 C   0  0  0  0  0  0  0  0  0  0  0  0
   59.0210   29.0160   47.0740 C   0  0  0  0  0  0  0  0  0  0  0  0
   60.0110   29.3450   48.0100 C   0  0  0  0  0  0  0  0  0  0  0  0
   60.7220   28.2980   48.6200 C   0  0  0  0  0  0  0  0  0  0  0  0
   60.4390   26.9560   48.2940 C   0  0  0  0  0  0  0  0  0  0  0  0
   59.4480   26.6490   47.3480 C   0  0  0  0  0  0  0  0  0  0  0  0
   58.7610   27.7080   46.7490 C   0  0  0  0  0  0  0  0  0  0  0  0
   55.2269   22.6948   49.3342 H   0  0  0  0  0  0  0  0  0  0  0  0
   56.3906   21.6573   48.4420 H   0  0  0  0  0  0  0  0  0  0  0  0
   56.5953   23.4419   48.4420 H   0  0  0  0  0  0  0  0  0  0  0  0
   56.9719   21.1448   46.1996 H   0  0  0  0  0  0  0  0  0  0  0  0
   57.8340   21.3010   43.8682 H   0  0  0  0  0  0  0  0  0  0  0  0
   56.9168   23.0106   42.3057 H   0  0  0  0  0  0  0  0  0  0  0  0
   55.1386   24.5775   43.0699 H   0  0  0  0  0  0  0  0  0  0  0  0
   53.3089   24.9674   44.6931 H   0  0  0  0  0  0  0  0  0  0  0  0
   53.4235   24.3332   46.3676 H   0  0  0  0  0  0  0  0  0  0  0  0
   57.7957   25.6998   45.0643 H   0  0  0  0  0  0  0  0  0  0  0  0
   56.5353   26.7394   44.3281 H   0  0  0  0  0  0  0  0  0  0  0  0
   58.1095   31.5832   47.5904 H   0  0  0  0  0  0  0  0  0  0  0  0
   59.0002   31.7584   46.0404 H   0  0  0  0  0  0  0  0  0  0  0  0
   57.2060   31.6711   46.0404 H   0  0  0  0  0  0  0  0  0  0  0  0
   60.2255   30.3945   48.2602 H   0  0  0  0  0  0  0  0  0  0  0  0
   61.5053   28.5271   49.3575 H   0  0  0  0  0  0  0  0  0  0  0  0
   60.9978   26.1448   48.7836 H   0  0  0  0  0  0  0  0  0  0  0  0
   59.2192   25.6054   47.0861 H   0  0  0  0  0  0  0  0  0  0  0  0
  1  2  1  0
  2  3  1  0
  3  4  2  0
  4  5  1  0
  5  6  2  0
  6  7  1  0
  7  8  2  0
  8  9  1  0
  9 10  1  0
 10 11  1  0
 11 12  2  0
 11 13  1  0
 13 14  1  0
 14 15  2  0
 15 16  1  0
 16 17  2  0
 16 18  1  0
 15 19  1  0
 19 20  1  0
 19 21  1  0
 21 22  2  0
 22 23  1  0
 23 24  2  0
 24 25  1  0
 25 26  2  0
  8  3  1  0
 26 14  1  0
 26 21  1  0
  1 27  1  0
  1 28  1  0
  1 29  1  0
  4 30  1  0
  5 31  1  0
  6 32  1  0
  7 33  1  0
  9 34  1  0
  9 35  1  0
 13 36  1  0
 13 37  1  0
 20 38  1  0
 20 39  1  0
 20 40  1  0
 22 41  1  0
 23 42  1  0
 24 43  1  0
 25 44  1  0
M  CHG  2  10  -1  18  -1
M  END
>  <UniqueID>  (89) 
80

>  <SMILES>  (89) 
COc1ccccc1C[N-]C(=O)Cc1c(C(=O)[O-])n(C)c2ccccc12

>  <Energy>  (89) 
74.46178748032885

>  <Genealogy>  (89) 
COc1ccccc1C[N-]C(=O)Cc1c(C(=O)[O-])n(C)c2ccccc12 (protonated)
COc1ccccc1C[N-]C(=O)Cc1c(C(=O)[O-])n(C)c2ccccc12 (3D coordinates assigned)
COc1ccccc1C[N-]C(=O)Cc1c(C(=O)[O-])n(C)c2ccccc12 (optimized conformer: 74.46178748032885 kcal/mol)

>  <smiles>  (89) 
COc1ccccc1CNC(=O)Cc1c(C(=O)O)n(C)c2ccccc12

>  <score_type>  (89) 
oracle

>  <origin>  (89) 
adg

>  <m_score__min__energy>  (89) 
-11.91

>  <m_primary>  (89) 
energy

$$$$
89:0
     RDKit          3D

 51 53  0  0  0  0  0  0  0  0999 V2000
   55.5920   30.0040   44.7600 O   0  0  0  0  0  0  0  0  0  0  0  0
   56.7020   29.5120   44.4180 C   0  0  0  0  0  0  0  0  0  0  0  0
   57.0520   28.1220   44.8530 C   0  0  0  0  0  0  0  0  0  0  0  0
   58.3370   28.1240   45.5420 N   0  0  0  0  0  0  0  0  0  0  0  0
   58.4760   28.1970   46.9660 C   0  0  0  0  0  0  0  0  0  0  0  0
   58.1590   27.2020   47.6760 O   0  0  0  0  0  0  0  0  0  0  0  0
   58.9940   29.4290   47.6030 C   0  0  0  0  0  0  0  0  0  0  0  0
   59.2680   30.5740   46.8300 C   0  0  0  0  0  0  0  0  0  0  0  0
   59.7550   31.7350   47.4350 C   0  0  0  0  0  0  0  0  0  0  0  0
   59.9770   31.7750   48.8160 C   0  0  0  0  0  0  0  0  0  0  0  0
   60.6260   33.2400   49.5510 S   0  0  0  0  0  0  0  0  0  0  0  0
   59.6580   34.3650   49.3160 O   0  0  0  0  0  0  0  0  0  0  0  0
   60.7910   33.0460   51.0340 O   0  0  0  0  0  0  0  0  0  0  0  0
   62.1670   33.6270   48.8260 N   0  0  0  0  0  0  0  0  0  0  0  0
   61.9830   33.9740   47.4040 C   0  0  0  0  0  0  0  0  0  0  0  0
   63.3030   33.8160   46.6320 C   0  0  0  0  0  0  0  0  0  0  0  0
   63.8360   32.4980   46.6570 O   0  0  0  0  0  0  0  0  0  0  0  0
   63.3770   31.7140   47.7500 C   0  0  0  0  0  0  0  0  0  0  0  0
   63.1450   32.5340   49.0320 C   0  0  0  0  0  0  0  0  0  0  0  0
   59.7160   30.6370   49.5910 C   0  0  0  0  0  0  0  0  0  0  0  0
   59.2260   29.4740   48.9890 C   0  0  0  0  0  0  0  0  0  0  0  0
   57.5990   30.2570   43.5810 N   0  0  0  0  0  0  0  0  0  0  0  0
   57.3230   31.6240   43.1450 C   0  0  0  0  0  0  0  0  0  0  0  0
   57.7660   32.5930   44.2050 C   0  0  0  0  0  0  0  0  0  0  0  0
   58.8480   33.4570   43.9700 C   0  0  0  0  0  0  0  0  0  0  0  0
   59.2300   34.3880   44.9420 C   0  0  0  0  0  0  0  0  0  0  0  0
   58.5300   34.4660   46.1500 C   0  0  0  0  0  0  0  0  0  0  0  0
   58.9000   35.3710   47.0910 F   0  0  0  0  0  0  0  0  0  0  0  0
   57.4430   33.6200   46.3850 C   0  0  0  0  0  0  0  0  0  0  0  0
   57.0580   32.6900   45.4150 C   0  0  0  0  0  0  0  0  0  0  0  0
   56.2740   27.7466   45.5341 H   0  0  0  0  0  0  0  0  0  0  0  0
   57.1178   27.4723   43.9678 H   0  0  0  0  0  0  0  0  0  0  0  0
   59.0975   30.5539   45.7435 H   0  0  0  0  0  0  0  0  0  0  0  0
   59.9654   32.6237   46.8218 H   0  0  0  0  0  0  0  0  0  0  0  0
   61.2256   33.3081   46.9647 H   0  0  0  0  0  0  0  0  0  0  0  0
   61.6555   35.0218   47.3347 H   0  0  0  0  0  0  0  0  0  0  0  0
   63.1257   34.0971   45.5834 H   0  0  0  0  0  0  0  0  0  0  0  0
   64.0398   34.4656   47.1272 H   0  0  0  0  0  0  0  0  0  0  0  0
   62.4278   31.2375   47.4637 H   0  0  0  0  0  0  0  0  0  0  0  0
   64.1608   30.9751   47.9730 H   0  0  0  0  0  0  0  0  0  0  0  0
   62.7672   31.8637   49.8181 H   0  0  0  0  0  0  0  0  0  0  0  0
   64.1041   32.9883   49.3212 H   0  0  0  0  0  0  0  0  0  0  0  0
   59.8971   30.6587   50.6758 H   0  0  0  0  0  0  0  0  0  0  0  0
   59.0202   28.5864   49.6052 H   0  0  0  0  0  0  0  0  0  0  0  0
   58.5360   29.8520   43.3570 H   0  0  0  0  0  0  0  0  0  0  0  0
   57.8693   31.8276   42.2122 H   0  0  0  0  0  0  0  0  0  0  0  0
   56.2427   31.7405   42.9735 H   0  0  0  0  0  0  0  0  0  0  0  0
   59.3970   33.4015   43.0184 H   0  0  0  0  0  0  0  0  0  0  0  0
   60.0815   35.0590   44.7558 H   0  0  0  0  0  0  0  0  0  0  0  0
   56.8901   33.6859   47.3336 H   0  0  0  0  0  0  0  0  0  0  0  0
   56.1968   32.0310   45.5997 H   0  0  0  0  0  0  0  0  0  0  0  0
  1  2  2  0
  2  3  1  0
  3  4  1  0
  4  5  1  0
  5  6  2  0
  5  7  1  0
  7  8  2  0
  8  9  1  0
  9 10  2  0
 10 11  1  0
 11 12  2  0
 11 13  2  0
 11 14  1  0
 14 15  1  0
 15 16  1  0
 16 17  1  0
 17 18  1  0
 18 19  1  0
 10 20  1  0
 20 21  2  0
  2 22  1  0
 22 23  1  0
 23 24  1  0
 24 25  2  0
 25 26  1  0
 26 27  2  0
 27 28  1  0
 27 29  1  0
 29 30  2  0
 21  7  1  0
 30 24  1  0
 19 14  1  0
  3 31  1  0
  3 32  1  0
  8 33  1  0
  9 34  1  0
 15 35  1  0
 15 36  1  0
 16 37  1  0
 16 38  1  0
 18 39  1  0
 18 40  1  0
 19 41  1  0
 19 42  1  0
 20 43  1  0
 21 44  1  0
 22 45  1  0
 23 46  1  0
 23 47  1  0
 25 48  1  0
 26 49  1  0
 29 50  1  0
 30 51  1  0
M  CHG  1   4  -1
M  END
>  <UniqueID>  (90) 
81

>  <SMILES>  (90) 
O=C(C[N-]C(=O)c1ccc(S(=O)(=O)N2CCOCC2)cc1)NCc1ccc(F)cc1

>  <Energy>  (90) 
60.112094530038284

>  <Genealogy>  (90) 
O=C(C[N-]C(=O)c1ccc(S(=O)(=O)N2CCOCC2)cc1)NCc1ccc(F)cc1 (protonated)
O=C(C[N-]C(=O)c1ccc(S(=O)(=O)N2CCOCC2)cc1)NCc1ccc(F)cc1 (3D coordinates assigned)
O=C(C[N-]C(=O)c1ccc(S(=O)(=O)N2CCOCC2)cc1)NCc1ccc(F)cc1 (nonaromatic ring conformer: 60.112094530038284 kcal/mol)

>  <smiles>  (90) 
O=C(CNC(=O)c1ccc(S(=O)(=O)N2CCOCC2)cc1)NCc1ccc(F)cc1

>  <score_type>  (90) 
oracle

>  <origin>  (90) 
adg

>  <m_score__min__energy>  (90) 
-10.44

>  <m_primary>  (90) 
energy

$$$$
90:0
     RDKit          3D

 36 38  0  0  0  0  0  0  0  0999 V2000
   57.7750   27.3890   43.4350 N   0  0  0  0  0  0  0  0  0  0  0  0
   58.4790   28.1990   44.3790 C   0  0  0  0  0  0  0  0  0  0  0  0
   59.5290   27.7450   44.9070 O   0  0  0  0  0  0  0  0  0  0  0  0
   57.9990   29.5550   44.7230 C   0  0  0  0  0  0  0  0  0  0  0  0
   58.7970   30.6480   45.0030 C   0  0  0  0  0  0  0  0  0  0  0  0
   57.9370   31.6880   45.3090 C   0  0  0  0  0  0  0  0  0  0  0  0
   58.3490   33.0550   45.6640 C   0  0  0  0  0  0  0  0  0  0  0  0
   57.7130   34.0420   45.2040 O   0  0  0  0  0  0  0  0  0  0  0  0
   59.4720   33.2740   46.5330 N   0  0  0  0  0  0  0  0  0  0  0  0
   60.6280   33.9890   45.9720 C   0  0  0  0  0  0  0  0  0  0  0  0
   61.8790   33.7690   46.8220 C   0  0  0  0  0  0  0  0  0  0  0  0
   61.6140   34.1880   48.2670 C   0  0  0  0  0  0  0  0  0  0  0  0
   60.4070   33.4780   48.8220 C   0  0  0  0  0  0  0  0  0  0  0  0
   60.2970   33.2830   50.2080 C   0  0  0  0  0  0  0  0  0  0  0  0
   59.1830   32.6360   50.7430 C   0  0  0  0  0  0  0  0  0  0  0  0
   58.1670   32.1820   49.9020 C   0  0  0  0  0  0  0  0  0  0  0  0
   58.2540   32.3870   48.5230 C   0  0  0  0  0  0  0  0  0  0  0  0
   59.3620   33.0590   47.9640 C   0  0  0  0  0  0  0  0  0  0  0  0
   56.6500   31.2990   45.2250 N   0  0  0  0  0  0  0  0  0  0  0  0
   56.6900   30.0000   44.8720 C   0  0  0  0  0  0  0  0  0  0  0  0
   55.5050   29.2340   44.6490 N   0  0  0  0  0  0  0  0  0  0  0  0
   58.1440   26.4470   43.1770 H   0  0  0  0  0  0  0  0  0  0  0  0
   56.8710   27.6980   43.0160 H   0  0  0  0  0  0  0  0  0  0  0  0
   59.8963   30.6841   44.9860 H   0  0  0  0  0  0  0  0  0  0  0  0
   60.8174   33.6212   44.9528 H   0  0  0  0  0  0  0  0  0  0  0  0
   60.3998   35.0650   45.9596 H   0  0  0  0  0  0  0  0  0  0  0  0
   62.1531   32.7040   46.7967 H   0  0  0  0  0  0  0  0  0  0  0  0
   62.7007   34.3774   46.4163 H   0  0  0  0  0  0  0  0  0  0  0  0
   62.4920   33.9383   48.8808 H   0  0  0  0  0  0  0  0  0  0  0  0
   61.4242   35.2713   48.2887 H   0  0  0  0  0  0  0  0  0  0  0  0
   61.0938   33.6424   50.8758 H   0  0  0  0  0  0  0  0  0  0  0  0
   59.1056   32.4836   51.8296 H   0  0  0  0  0  0  0  0  0  0  0  0
   57.2955   31.6615   50.3256 H   0  0  0  0  0  0  0  0  0  0  0  0
   57.4510   32.0211   47.8663 H   0  0  0  0  0  0  0  0  0  0  0  0
   55.5350   28.2280   44.3820 H   0  0  0  0  0  0  0  0  0  0  0  0
   54.5720   29.7020   44.6970 H   0  0  0  0  0  0  0  0  0  0  0  0
  1  2  1  0
  2  3  2  0
  2  4  1  0
  4  5  1  0
  5  6  2  0
  6  7  1  0
  7  8  2  0
  7  9  1  0
  9 10  1  0
 10 11  1  0
 11 12  1  0
 12 13  1  0
 13 14  2  0
 14 15  1  0
 15 16  2  0
 16 17  1  0
 17 18  2  0
  6 19  1  0
 19 20  1  0
 20 21  1  0
 20  4  2  0
 18  9  1  0
 18 13  1  0
  1 22  1  0
  1 23  1  0
  5 24  1  0
 10 25  1  0
 10 26  1  0
 11 27  1  0
 11 28  1  0
 12 29  1  0
 12 30  1  0
 14 31  1  0
 15 32  1  0
 16 33  1  0
 17 34  1  0
 21 35  1  0
 21 36  1  0
M  CHG  1  19  -1
M  END
>  <UniqueID>  (91) 
82

>  <SMILES>  (91) 
NC(=O)c1cc(C(=O)N2CCCc3ccccc32)[n-]c1N

>  <Energy>  (91) 
68.96317757416222

>  <Genealogy>  (91) 
NC(=O)c1cc(C(=O)N2CCCc3ccccc32)[n-]c1N (protonated)
NC(=O)c1cc(C(=O)N2CCCc3ccccc32)[n-]c1N (3D coordinates assigned)
NC(=O)c1cc(C(=O)N2CCCc3ccccc32)[n-]c1N (nonaromatic ring conformer: 68.96317757416222 kcal/mol)

>  <smiles>  (91) 
NC(=O)c1cc(C(=O)N2CCCc3ccccc32)[nH]c1N

>  <score_type>  (91) 
oracle

>  <origin>  (91) 
adg

>  <m_score__min__energy>  (91) 
-9.9800000000000004

>  <m_primary>  (91) 
energy

$$$$
91:0
     RDKit          3D

 37 39  0  0  0  0  0  0  0  0999 V2000
   55.1410   26.5140   46.0000 O   0  0  0  0  0  0  0  0  0  0  0  0
   56.2570   26.1730   46.4690 C   0  0  0  0  0  0  0  0  0  0  0  0
   57.4630   27.0240   46.1650 C   0  0  0  0  0  0  0  0  0  0  0  0
   57.0800   28.3870   45.6590 C   0  0  0  0  0  0  0  0  0  0  0  0
   55.9880   28.6000   44.9040 N   0  0  0  0  0  0  0  0  0  0  0  0
   56.0070   29.9280   44.6840 C   0  0  0  0  0  0  0  0  0  0  0  0
   55.1280   30.5180   44.0050 O   0  0  0  0  0  0  0  0  0  0  0  0
   57.0460   30.5760   45.2480 N   0  0  0  0  0  0  0  0  0  0  0  0
   57.7310   29.5970   45.8680 C   0  0  0  0  0  0  0  0  0  0  0  0
   58.9760   29.8530   46.6160 C   0  0  0  0  0  0  0  0  0  0  0  0
   60.0780   29.5170   46.1040 O   0  0  0  0  0  0  0  0  0  0  0  0
   58.9440   30.4690   47.9050 N   0  0  0  0  0  0  0  0  0  0  0  0
   59.5110   31.7820   48.1970 C   0  0  0  0  0  0  0  0  0  0  0  0
   59.1210   32.7760   47.1270 C   0  0  0  0  0  0  0  0  0  0  0  0
   57.7580   32.9180   46.8060 C   0  0  0  0  0  0  0  0  0  0  0  0
   57.3490   33.8160   45.8170 C   0  0  0  0  0  0  0  0  0  0  0  0
   58.2950   34.5850   45.1390 C   0  0  0  0  0  0  0  0  0  0  0  0
   59.6510   34.4600   45.4470 C   0  0  0  0  0  0  0  0  0  0  0  0
   60.0740   33.5620   46.4350 C   0  0  0  0  0  0  0  0  0  0  0  0
   61.8000   33.4610   46.7690 Cl  0  0  0  0  0  0  0  0  0  0  0  0
   56.3390   24.9680   47.2440 N   0  0  0  0  0  0  0  0  0  0  0  0
   55.6530   23.7420   46.9710 C   0  0  0  0  0  0  0  0  0  0  0  0
   54.4540   23.5810   46.3090 C   0  0  0  0  0  0  0  0  0  0  0  0
   54.2800   22.2130   46.2260 C   0  0  0  0  0  0  0  0  0  0  0  0
   53.1880   21.5960   45.6300 O   0  0  0  0  0  0  0  0  0  0  0  0
   55.3040   21.5280   46.7800 N   0  0  0  0  0  0  0  0  0  0  0  0
   56.1440   22.4830   47.2230 C   0  0  0  0  0  0  0  0  0  0  0  0
   57.3520   22.2060   47.8520 O   0  0  0  0  0  0  0  0  0  0  0  0
   58.0558   27.1405   47.0843 H   0  0  0  0  0  0  0  0  0  0  0  0
   58.0430   26.5208   45.3774 H   0  0  0  0  0  0  0  0  0  0  0  0
   59.1345   32.1308   49.1699 H   0  0  0  0  0  0  0  0  0  0  0  0
   60.6075   31.6986   48.2230 H   0  0  0  0  0  0  0  0  0  0  0  0
   57.0074   32.3160   47.3391 H   0  0  0  0  0  0  0  0  0  0  0  0
   56.2811   33.9167   45.5730 H   0  0  0  0  0  0  0  0  0  0  0  0
   57.9719   35.2913   44.3601 H   0  0  0  0  0  0  0  0  0  0  0  0
   60.3919   35.0707   44.9102 H   0  0  0  0  0  0  0  0  0  0  0  0
   53.7845   24.3676   45.9308 H   0  0  0  0  0  0  0  0  0  0  0  0
  1  2  2  0
  2  3  1  0
  3  4  1  0
  4  5  1  0
  5  6  1  0
  6  7  2  0
  6  8  1  0
  8  9  1  0
  9 10  1  0
 10 11  2  0
 10 12  1  0
 12 13  1  0
 13 14  1  0
 14 15  2  0
 15 16  1  0
 16 17  2  0
 17 18  1  0
 18 19  2  0
 19 20  1  0
  2 21  1  0
 21 22  1  0
 22 23  1  0
 23 24  2  0
 24 25  1  0
 24 26  1  0
 26 27  1  0
 27 28  1  0
  9  4  2  0
 19 14  1  0
 27 22  2  0
  3 29  1  0
  3 30  1  0
 13 31  1  0
 13 32  1  0
 15 33  1  0
 16 34  1  0
 17 35  1  0
 18 36  1  0
 23 37  1  0
M  CHG  7   5  -1   8  -1  12  -1  21  -1  25  -1  26  -1  28  -1
M  END
>  <UniqueID>  (92) 
83

>  <SMILES>  (92) 
O=C(Cc1[n-]c(=O)[n-]c1C(=O)[N-]Cc1ccccc1Cl)[N-]c1cc([O-])[n-]c1[O-]

>  <Energy>  (92) 
96.70171312827193

>  <Genealogy>  (92) 
O=C(Cc1[n-]c(=O)[n-]c1C(=O)[N-]Cc1ccccc1Cl)[N-]c1cc([O-])[n-]c1[O-] (protonated)
O=C(Cc1[n-]c(=O)[n-]c1C(=O)[N-]Cc1ccccc1Cl)[N-]c1cc([O-])[n-]c1[O-] (3D coordinates assigned)
O=C(Cc1[n-]c(=O)[n-]c1C(=O)[N-]Cc1ccccc1Cl)[N-]c1cc([O-])[n-]c1[O-] (optimized conformer: 96.70171312827193 kcal/mol)

>  <smiles>  (92) 
O=C(Cc1[nH]c(=O)[nH]c1C(=O)NCc1ccccc1Cl)Nc1cc(O)[nH]c1O

>  <score_type>  (92) 
oracle

>  <origin>  (92) 
adg

>  <m_score__min__energy>  (92) 
-21.210000000000001

>  <m_primary>  (92) 
energy

$$$$
92:0
     RDKit          3D

 31 32  0  0  0  0  0  0  0  0999 V2000
   61.3619   27.3312   45.8509 H   0  0  0  0  0  0  0  0  0  0  0  0
   60.4010   27.8280   45.6510 C   0  0  0  0  0  0  0  0  0  0  0  0
   60.3590   28.9580   44.8400 C   0  0  0  0  0  0  0  0  0  0  0  0
   61.2874   29.3562   44.4047 H   0  0  0  0  0  0  0  0  0  0  0  0
   59.1410   29.5870   44.5780 C   0  0  0  0  0  0  0  0  0  0  0  0
   59.1165   30.4736   43.9274 H   0  0  0  0  0  0  0  0  0  0  0  0
   57.9410   29.1000   45.1370 C   0  0  0  0  0  0  0  0  0  0  0  0
   56.6640   29.8010   44.8290 C   0  0  0  0  0  0  0  0  0  0  0  0
   55.5700   29.1770   44.8860 O   0  0  0  0  0  0  0  0  0  0  0  0
   56.6720   31.2150   44.5720 N   0  0  0  0  0  0  0  0  0  0  0  0
   57.3990   32.1390   45.1390 C   0  0  0  0  0  0  0  0  0  0  0  0
   57.7330   33.2740   44.3860 C   0  0  0  0  0  0  0  0  0  0  0  0
   57.3876   33.3676   43.3458 H   0  0  0  0  0  0  0  0  0  0  0  0
   58.5050   34.2840   44.9610 C   0  0  0  0  0  0  0  0  0  0  0  0
   58.7783   35.1720   44.3722 H   0  0  0  0  0  0  0  0  0  0  0  0
   58.9290   34.1650   46.2830 C   0  0  0  0  0  0  0  0  0  0  0  0
   59.5461   34.9514   46.7421 H   0  0  0  0  0  0  0  0  0  0  0  0
   58.5620   33.0370   47.0180 C   0  0  0  0  0  0  0  0  0  0  0  0
   58.8845   32.9379   48.0650 H   0  0  0  0  0  0  0  0  0  0  0  0
   57.8060   32.0570   46.4460 N   0  0  0  0  0  0  0  0  0  0  0  0
   57.5200   31.2670   47.0630 H   0  0  0  0  0  0  0  0  0  0  0  0
   57.9910   27.9590   45.9800 C   0  0  0  0  0  0  0  0  0  0  0  0
   56.7770   27.4080   46.5180 N   0  0  0  0  0  0  0  0  0  0  0  0
   56.0280   26.3090   45.9850 C   0  0  0  0  0  0  0  0  0  0  0  0
   54.7690   26.3240   45.9830 O   0  0  0  0  0  0  0  0  0  0  0  0
   56.7470   25.1520   45.3780 C   0  0  0  0  0  0  0  0  0  0  0  0
   57.1466   24.5090   46.1761 H   0  0  0  0  0  0  0  0  0  0  0  0
   56.0495   24.5727   44.7551 H   0  0  0  0  0  0  0  0  0  0  0  0
   57.5752   25.5209   44.7551 H   0  0  0  0  0  0  0  0  0  0  0  0
   59.2270   27.3240   46.2110 C   0  0  0  0  0  0  0  0  0  0  0  0
   59.2668   26.4219   46.8391 H   0  0  0  0  0  0  0  0  0  0  0  0
  1  2  1  0
  2  3  2  0
  3  4  1  0
  3  5  1  0
  5  6  1  0
  5  7  2  0
  7  8  1  0
  8  9  2  0
  8 10  1  0
 10 11  2  0
 11 12  1  0
 12 13  1  0
 12 14  2  0
 14 15  1  0
 14 16  1  0
 16 17  1  0
 16 18  2  0
 18 19  1  0
 18 20  1  0
 20 21  1  0
  7 22  1  0
 22 23  1  0
 23 24  1  0
 24 25  2  0
 24 26  1  0
 26 27  1  0
 26 28  1  0
 26 29  1  0
 22 30  2  0
 30 31  1  0
 30  2  1  0
 20 11  1  0
M  CHG  1  23  -1
M  END
>  <UniqueID>  (93) 
84

>  <SMILES>  (93) 
CC(=O)[N-]c1ccccc1C(=O)/N=c1/cccc[nH]1

>  <Energy>  (93) 
44.29270731577628

>  <Genealogy>  (93) 
CC(=O)[N-]c1ccccc1C(=O)N=c1cccc[nH]1 (protonated)
CC(=O)[N-]c1ccccc1C(=O)/N=c1/cccc[nH]1 (cis-trans isomerization)
CC(=O)[N-]c1ccccc1C(=O)/N=c1/cccc[nH]1 (3D coordinates assigned)
CC(=O)[N-]c1ccccc1C(=O)/N=c1/cccc[nH]1 (optimized conformer: 44.29270731577628 kcal/mol)

>  <smiles>  (93) 
CC(=O)Nc1ccccc1C(=O)N=c1cccc[nH]1

>  <score_type>  (93) 
oracle

>  <origin>  (93) 
adg

>  <m_score__min__energy>  (93) 
-9.4499999999999993

>  <m_primary>  (93) 
energy

$$$$
93:0
     RDKit          3D

 54 57  0  0  0  0  0  0  0  0999 V2000
   61.2170   28.5400   44.5500 C   0  0  0  0  0  0  0  0  0  0  0  0
   60.6100   27.8340   45.6270 O   0  0  0  0  0  0  0  0  0  0  0  0
   59.2420   27.5220   45.7080 C   0  0  0  0  0  0  0  0  0  0  0  0
   58.7780   26.1980   45.5920 C   0  0  0  0  0  0  0  0  0  0  0  0
   57.4090   25.9060   45.6730 C   0  0  0  0  0  0  0  0  0  0  0  0
   56.9440   24.5050   45.5370 C   0  0  0  0  0  0  0  0  0  0  0  0
   56.6740   23.7720   46.7010 C   0  0  0  0  0  0  0  0  0  0  0  0
   56.1970   22.4670   46.6030 C   0  0  0  0  0  0  0  0  0  0  0  0
   55.9880   21.9090   45.3840 N   0  0  0  0  0  0  0  0  0  0  0  0
   56.2430   22.5810   44.2300 C   0  0  0  0  0  0  0  0  0  0  0  0
   56.0200   22.0110   43.1280 O   0  0  0  0  0  0  0  0  0  0  0  0
   56.7510   23.8960   44.2720 C   0  0  0  0  0  0  0  0  0  0  0  0
   57.0430   24.6400   42.9890 C   0  0  0  0  0  0  0  0  0  0  0  0
   56.4900   26.9510   45.8590 C   0  0  0  0  0  0  0  0  0  0  0  0
   55.1270   26.6880   45.9430 O   0  0  0  0  0  0  0  0  0  0  0  0
   56.9410   28.2660   45.9720 C   0  0  0  0  0  0  0  0  0  0  0  0
   58.3110   28.5640   45.9010 C   0  0  0  0  0  0  0  0  0  0  0  0
   58.7450   30.0060   46.0060 C   0  0  0  0  0  0  0  0  0  0  0  0
   58.8520   30.4000   47.4260 N   0  0  0  0  0  0  0  0  0  0  0  0
   58.7080   31.8680   47.5890 C   0  0  0  0  0  0  0  0  0  0  0  0
   59.7340   32.6680   46.7440 C   0  0  0  0  0  0  0  0  0  0  0  0
   61.1250   32.7430   47.3430 C   0  0  0  0  0  0  0  0  0  0  0  0
   61.6520   33.9860   47.7350 C   0  0  0  0  0  0  0  0  0  0  0  0
   62.9360   34.0710   48.2790 C   0  0  0  0  0  0  0  0  0  0  0  0
   63.7120   32.9180   48.4380 C   0  0  0  0  0  0  0  0  0  0  0  0
   64.9910   32.9920   48.9840 O   0  0  0  0  0  0  0  0  0  0  0  0
   63.2000   31.6770   48.0490 C   0  0  0  0  0  0  0  0  0  0  0  0
   61.9160   31.5790   47.4910 C   0  0  0  0  0  0  0  0  0  0  0  0
   61.3440   30.2280   47.1370 C   0  0  0  0  0  0  0  0  0  0  0  0
   60.1200   29.8990   48.0070 C   0  0  0  0  0  0  0  0  0  0  0  0
   61.8848   29.3167   44.9509 H   0  0  0  0  0  0  0  0  0  0  0  0
   61.7986   27.8388   43.9335 H   0  0  0  0  0  0  0  0  0  0  0  0
   60.4366   29.0099   43.9335 H   0  0  0  0  0  0  0  0  0  0  0  0
   59.4988   25.3819   45.4358 H   0  0  0  0  0  0  0  0  0  0  0  0
   56.8384   24.2262   47.6892 H   0  0  0  0  0  0  0  0  0  0  0  0
   55.9895   21.8881   47.5150 H   0  0  0  0  0  0  0  0  0  0  0  0
   57.4354   25.6399   43.2261 H   0  0  0  0  0  0  0  0  0  0  0  0
   57.7891   24.0826   42.4036 H   0  0  0  0  0  0  0  0  0  0  0  0
   56.1170   24.7389   42.4036 H   0  0  0  0  0  0  0  0  0  0  0  0
   56.2147   29.0791   46.1185 H   0  0  0  0  0  0  0  0  0  0  0  0
   59.7240   30.1280   45.5195 H   0  0  0  0  0  0  0  0  0  0  0  0
   57.9992   30.6443   45.5096 H   0  0  0  0  0  0  0  0  0  0  0  0
   57.6936   32.1587   47.2784 H   0  0  0  0  0  0  0  0  0  0  0  0
   58.8930   32.1044   48.6472 H   0  0  0  0  0  0  0  0  0  0  0  0
   59.8114   32.1903   45.7562 H   0  0  0  0  0  0  0  0  0  0  0  0
   59.3596   33.7012   46.6962 H   0  0  0  0  0  0  0  0  0  0  0  0
   61.0492   34.8979   47.6125 H   0  0  0  0  0  0  0  0  0  0  0  0
   63.3384   35.0484   48.5835 H   0  0  0  0  0  0  0  0  0  0  0  0
   65.1900   32.6480   49.9160 H   0  0  0  0  0  0  0  0  0  0  0  0
   63.8082   30.7700   48.1812 H   0  0  0  0  0  0  0  0  0  0  0  0
   61.0421   30.2318   46.0792 H   0  0  0  0  0  0  0  0  0  0  0  0
   62.1152   29.4645   47.3167 H   0  0  0  0  0  0  0  0  0  0  0  0
   60.0494   28.8067   48.1159 H   0  0  0  0  0  0  0  0  0  0  0  0
   60.2596   30.3973   48.9777 H   0  0  0  0  0  0  0  0  0  0  0  0
  1  2  1  0
  2  3  1  0
  3  4  2  0
  4  5  1  0
  5  6  1  0
  6  7  1  0
  7  8  2  0
  8  9  1  0
  9 10  1  0
 10 11  2  0
 10 12  1  0
 12 13  1  0
  5 14  2  0
 14 15  1  0
 14 16  1  0
 16 17  2  0
 17 18  1  0
 18 19  1  0
 19 20  1  0
 20 21  1  0
 21 22  1  0
 22 23  2  0
 23 24  1  0
 24 25  2  0
 25 26  1  0
 25 27  1  0
 27 28  2  0
 28 29  1  0
 29 30  1  0
 17  3  1  0
 30 19  1  0
 12  6  2  0
 28 22  1  0
  1 31  1  0
  1 32  1  0
  1 33  1  0
  4 34  1  0
  7 35  1  0
  8 36  1  0
 13 37  1  0
 13 38  1  0
 13 39  1  0
 16 40  1  0
 18 41  1  0
 18 42  1  0
 20 43  1  0
 20 44  1  0
 21 45  1  0
 21 46  1  0
 23 47  1  0
 24 48  1  0
 26 49  1  0
 27 50  1  0
 29 51  1  0
 29 52  1  0
 30 53  1  0
 30 54  1  0
M  CHG  2   9  -1  15  -1
M  END
>  <UniqueID>  (94) 
85

>  <SMILES>  (94) 
COc1cc(-c2cc[n-]c(=O)c2C)c([O-])cc1CN1CCc2ccc(O)cc2CC1

>  <Energy>  (94) 
77.61128436847147

>  <Genealogy>  (94) 
COc1cc(-c2cc[n-]c(=O)c2C)c([O-])cc1CN1CCc2ccc(O)cc2CC1 (protonated)
COc1cc(-c2cc[n-]c(=O)c2C)c([O-])cc1CN1CCc2ccc(O)cc2CC1 (3D coordinates assigned)
COc1cc(-c2cc[n-]c(=O)c2C)c([O-])cc1CN1CCc2ccc(O)cc2CC1 (nonaromatic ring conformer: 77.61128436847147 kcal/mol)

>  <smiles>  (94) 
COc1cc(-c2cc[nH]c(=O)c2C)c(O)cc1CN1CCc2ccc(O)cc2CC1

>  <score_type>  (94) 
oracle

>  <origin>  (94) 
adg

>  <m_score__min__energy>  (94) 
-11.56

>  <m_primary>  (94) 
energy

$$$$
94:0
     RDKit          3D

 56 59  0  0  0  0  0  0  0  0999 V2000
   55.3090   29.3290   44.9140 O   0  0  0  0  0  0  0  0  0  0  0  0
   56.5610   29.3840   44.7920 C   0  0  0  0  0  0  0  0  0  0  0  0
   57.3080   28.1790   44.6080 N   0  0  0  0  0  0  0  0  0  0  0  0
   58.1890   27.4280   45.8930 S   0  0  0  0  0  0  0  0  0  0  0  0
   57.2370   26.9140   46.9350 O   0  0  0  0  0  0  0  0  0  0  0  0
   58.9750   26.2700   45.3470 O   0  0  0  0  0  0  0  0  0  0  0  0
   59.2880   28.6150   46.5820 C   0  0  0  0  0  0  0  0  0  0  0  0
   59.2560   28.8780   47.9550 C   0  0  0  0  0  0  0  0  0  0  0  0
   60.1990   29.7340   48.5300 C   0  0  0  0  0  0  0  0  0  0  0  0
   61.1930   30.3380   47.7400 C   0  0  0  0  0  0  0  0  0  0  0  0
   62.2240   31.1400   48.3560 N   0  0  0  0  0  0  0  0  0  0  0  0
   62.7280   30.8600   49.6970 C   0  0  0  0  0  0  0  0  0  0  0  0
   62.3090   31.9970   50.6320 C   0  0  0  0  0  0  0  0  0  0  0  0
   62.5120   33.3590   50.0500 N   0  0  0  0  0  0  0  0  0  0  0  0
   61.2970   34.2200   50.1130 C   0  0  0  0  0  0  0  0  0  0  0  0
   60.0200   33.5020   50.5070 C   0  0  0  0  0  0  0  0  0  0  0  0
   59.3160   32.7450   49.5520 C   0  0  0  0  0  0  0  0  0  0  0  0
   58.1390   32.0750   49.9060 C   0  0  0  0  0  0  0  0  0  0  0  0
   57.6410   32.1760   51.2070 C   0  0  0  0  0  0  0  0  0  0  0  0
   58.3090   32.9600   52.1500 C   0  0  0  0  0  0  0  0  0  0  0  0
   59.4890   33.6280   51.8020 C   0  0  0  0  0  0  0  0  0  0  0  0
   63.2140   33.3950   48.7350 C   0  0  0  0  0  0  0  0  0  0  0  0
   62.6810   32.3730   47.7080 C   0  0  0  0  0  0  0  0  0  0  0  0
   61.2070   30.0800   46.3560 C   0  0  0  0  0  0  0  0  0  0  0  0
   60.2620   29.2230   45.7830 C   0  0  0  0  0  0  0  0  0  0  0  0
   57.2620   30.6890   44.8560 C   0  0  0  0  0  0  0  0  0  0  0  0
   57.7770   31.1490   46.0840 C   0  0  0  0  0  0  0  0  0  0  0  0
   58.4200   32.3870   46.1650 C   0  0  0  0  0  0  0  0  0  0  0  0
   58.5670   33.1780   45.0220 C   0  0  0  0  0  0  0  0  0  0  0  0
   59.3770   34.7290   45.1270 Cl  0  0  0  0  0  0  0  0  0  0  0  0
   58.0650   32.7310   43.7980 C   0  0  0  0  0  0  0  0  0  0  0  0
   57.4120   31.4970   43.7100 C   0  0  0  0  0  0  0  0  0  0  0  0
   56.9440   31.0930   42.5000 F   0  0  0  0  0  0  0  0  0  0  0  0
   58.4856   28.4093   48.5848 H   0  0  0  0  0  0  0  0  0  0  0  0
   60.1634   29.9372   49.6105 H   0  0  0  0  0  0  0  0  0  0  0  0
   62.3070   29.9104   50.0588 H   0  0  0  0  0  0  0  0  0  0  0  0
   63.8250   30.7818   49.6739 H   0  0  0  0  0  0  0  0  0  0  0  0
   61.2417   31.8762   50.8692 H   0  0  0  0  0  0  0  0  0  0  0  0
   62.9474   31.9306   51.5253 H   0  0  0  0  0  0  0  0  0  0  0  0
   63.1800   33.8340   50.7060 H   0  0  0  0  0  0  0  0  0  0  0  0
   61.4813   35.0164   50.8491 H   0  0  0  0  0  0  0  0  0  0  0  0
   61.1347   34.5964   49.0922 H   0  0  0  0  0  0  0  0  0  0  0  0
   59.6931   32.6794   48.5207 H   0  0  0  0  0  0  0  0  0  0  0  0
   57.6059   31.4685   49.1590 H   0  0  0  0  0  0  0  0  0  0  0  0
   56.7235   31.6385   51.4885 H   0  0  0  0  0  0  0  0  0  0  0  0
   57.9067   33.0530   53.1696 H   0  0  0  0  0  0  0  0  0  0  0  0
   60.0030   34.2545   52.5458 H   0  0  0  0  0  0  0  0  0  0  0  0
   63.1002   34.4032   48.3101 H   0  0  0  0  0  0  0  0  0  0  0  0
   64.2643   33.1318   48.9287 H   0  0  0  0  0  0  0  0  0  0  0  0
   61.8381   32.8224   47.1626 H   0  0  0  0  0  0  0  0  0  0  0  0
   63.5022   32.1158   47.0228 H   0  0  0  0  0  0  0  0  0  0  0  0
   61.9676   30.5565   45.7201 H   0  0  0  0  0  0  0  0  0  0  0  0
   60.2847   29.0265   44.7009 H   0  0  0  0  0  0  0  0  0  0  0  0
   57.6721   30.5286   46.9863 H   0  0  0  0  0  0  0  0  0  0  0  0
   58.8114   32.7399   47.1305 H   0  0  0  0  0  0  0  0  0  0  0  0
   58.1837   33.3525   42.8982 H   0  0  0  0  0  0  0  0  0  0  0  0
  1  2  2  0
  2  3  1  0
  3  4  1  0
  4  5  2  0
  4  6  2  0
  4  7  1  0
  7  8  2  0
  8  9  1  0
  9 10  2  0
 10 11  1  0
 11 12  1  0
 12 13  1  0
 13 14  1  0
 14 15  1  0
 15 16  1  0
 16 17  2  0
 17 18  1  0
 18 19  2  0
 19 20  1  0
 20 21  2  0
 14 22  1  0
 22 23  1  0
 10 24  1  0
 24 25  2  0
  2 26  1  0
 26 27  2  0
 27 28  1  0
 28 29  2  0
 29 30  1  0
 29 31  1  0
 31 32  2  0
 32 33  1  0
 25  7  1  0
 32 26  1  0
 23 11  1  0
 21 16  1  0
  8 34  1  0
  9 35  1  0
 12 36  1  0
 12 37  1  0
 13 38  1  0
 13 39  1  0
 14 40  1  0
 15 41  1  0
 15 42  1  0
 17 43  1  0
 18 44  1  0
 19 45  1  0
 20 46  1  0
 21 47  1  0
 22 48  1  0
 22 49  1  0
 23 50  1  0
 23 51  1  0
 24 52  1  0
 25 53  1  0
 27 54  1  0
 28 55  1  0
 31 56  1  0
M  CHG  2   3  -1  14   1
M  END
>  <UniqueID>  (95) 
86

>  <SMILES>  (95) 
O=C([N-]S(=O)(=O)c1ccc(N2CC[NH+](Cc3ccccc3)CC2)cc1)c1ccc(Cl)cc1F

>  <Energy>  (95) 
77.54883176845863

>  <Genealogy>  (95) 
O=C([N-]S(=O)(=O)c1ccc(N2CC[NH+](Cc3ccccc3)CC2)cc1)c1ccc(Cl)cc1F (protonated)
O=C([N-]S(=O)(=O)c1ccc(N2CC[NH+](Cc3ccccc3)CC2)cc1)c1ccc(Cl)cc1F (3D coordinates assigned)
O=C([N-]S(=O)(=O)c1ccc(N2CC[NH+](Cc3ccccc3)CC2)cc1)c1ccc(Cl)cc1F (nonaromatic ring conformer: 77.54883176845863 kcal/mol)

>  <smiles>  (95) 
O=C(NS(=O)(=O)c1ccc(N2CCN(Cc3ccccc3)CC2)cc1)c1ccc(Cl)cc1F

>  <score_type>  (95) 
oracle

>  <origin>  (95) 
adg

>  <m_score__min__energy>  (95) 
-10.07

>  <m_primary>  (95) 
energy

$$$$
