0:0
     RDKit          3D

 45 47  0  0  0  0  0  0  0  0999 V2000
   55.1540   26.6570   46.0040 N   0  0  0  0  0  0  0  0  0  0  0  0
   56.6230   25.7740   46.2260 S   0  0  0  0  0  0  0  0  0  0  0  0
   56.5510   25.0100   47.5180 O   0  0  0  0  0  0  0  0  0  0  0  0
   56.8110   24.8060   45.0910 O   0  0  0  0  0  0  0  0  0  0  0  0
   57.9730   26.8900   46.2730 C   0  0  0  0  0  0  0  0  0  0  0  0
   58.4680   27.5240   47.4020 C   0  0  0  0  0  0  0  0  0  0  0  0
   59.5400   28.3770   47.1150 C   0  0  0  0  0  0  0  0  0  0  0  0
   60.3450   29.3430   48.3410 S   0  0  0  0  0  0  0  0  0  0  0  0
   60.7610   28.4420   49.4700 O   0  0  0  0  0  0  0  0  0  0  0  0
   61.5630   30.0080   47.7670 O   0  0  0  0  0  0  0  0  0  0  0  0
   59.2610   30.5560   48.9440 N   0  0  0  0  0  0  0  0  0  0  0  0
   59.0850   31.8400   48.3220 C   0  0  0  0  0  0  0  0  0  0  0  0
   59.4220   33.0330   48.9850 C   0  0  0  0  0  0  0  0  0  0  0  0
   59.2500   34.2650   48.3500 C   0  0  0  0  0  0  0  0  0  0  0  0
   58.7460   34.3210   47.0500 C   0  0  0  0  0  0  0  0  0  0  0  0
   58.4090   33.1410   46.3690 C   0  0  0  0  0  0  0  0  0  0  0  0
   57.8670   33.1960   44.9940 C   0  0  0  0  0  0  0  0  0  0  0  0
   57.4450   34.2950   44.5390 O   0  0  0  0  0  0  0  0  0  0  0  0
   57.8040   32.0200   44.1680 N   0  0  0  0  0  0  0  0  0  0  0  0
   57.2020   30.7880   44.7020 C   0  0  0  0  0  0  0  0  0  0  0  0
   57.0500   29.7190   43.6130 C   0  0  0  0  0  0  0  0  0  0  0  0
   56.3780   30.3010   42.3620 C   0  0  0  0  0  0  0  0  0  0  0  0
   57.0210   31.6200   41.8690 C   0  0  0  0  0  0  0  0  0  0  0  0
   58.1800   32.0980   42.7510 C   0  0  0  0  0  0  0  0  0  0  0  0
   58.5620   31.9060   47.0210 C   0  0  0  0  0  0  0  0  0  0  0  0
   59.8890   28.4140   45.7690 C   0  0  0  0  0  0  0  0  0  0  0  0
   58.8570   27.3830   44.9330 S   0  0  0  0  0  0  0  0  0  0  0  0
   55.2020   27.0950   45.0550 H   0  0  0  0  0  0  0  0  0  0  0  0
   58.0625   27.3732   48.4133 H   0  0  0  0  0  0  0  0  0  0  0  0
   58.6110   30.2700   49.7100 H   0  0  0  0  0  0  0  0  0  0  0  0
   59.8230   32.9960   50.0086 H   0  0  0  0  0  0  0  0  0  0  0  0
   59.5127   35.1944   48.8765 H   0  0  0  0  0  0  0  0  0  0  0  0
   58.6121   35.2949   46.5565 H   0  0  0  0  0  0  0  0  0  0  0  0
   57.8452   30.3938   45.5026 H   0  0  0  0  0  0  0  0  0  0  0  0
   56.2013   31.0321   45.0881 H   0  0  0  0  0  0  0  0  0  0  0  0
   58.0454   29.3372   43.3421 H   0  0  0  0  0  0  0  0  0  0  0  0
   56.4195   28.9069   44.0042 H   0  0  0  0  0  0  0  0  0  0  0  0
   56.4455   29.5580   41.5537 H   0  0  0  0  0  0  0  0  0  0  0  0
   55.3372   30.5316   42.6331 H   0  0  0  0  0  0  0  0  0  0  0  0
   57.4009   31.4629   40.8487 H   0  0  0  0  0  0  0  0  0  0  0  0
   56.2420   32.3957   41.9072 H   0  0  0  0  0  0  0  0  0  0  0  0
   59.0590   31.4612   42.5727 H   0  0  0  0  0  0  0  0  0  0  0  0
   58.4158   33.1425   42.4991 H   0  0  0  0  0  0  0  0  0  0  0  0
   58.2684   30.9795   46.5058 H   0  0  0  0  0  0  0  0  0  0  0  0
   60.6992   29.0135   45.3282 H   0  0  0  0  0  0  0  0  0  0  0  0
  1  2  1  0
  2  3  2  0
  2  4  2  0
  2  5  1  0
  5  6  2  0
  6  7  1  0
  7  8  1  0
  8  9  2  0
  8 10  2  0
  8 11  1  0
 11 12  1  0
 12 13  2  0
 13 14  1  0
 14 15  2  0
 15 16  1  0
 16 17  1  0
 17 18  2  0
 17 19  1  0
 19 20  1  0
 20 21  1  0
 21 22  1  0
 22 23  1  0
 23 24  1  0
 16 25  2  0
  7 26  2  0
 26 27  1  0
 27  5  1  0
 25 12  1  0
 24 19  1  0
  1 28  1  0
  6 29  1  0
 11 30  1  0
 13 31  1  0
 14 32  1  0
 15 33  1  0
 20 34  1  0
 20 35  1  0
 21 36  1  0
 21 37  1  0
 22 38  1  0
 22 39  1  0
 23 40  1  0
 23 41  1  0
 24 42  1  0
 24 43  1  0
 25 44  1  0
 26 45  1  0
M  CHG  1   1  -1
M  END
>  <UniqueID>  (1) 
1

>  <SMILES>  (1) 
[NH-]S(=O)(=O)c1cc(S(=O)(=O)Nc2cccc(C(=O)N3CCCCC3)c2)cs1

>  <Energy>  (1) 
80.36104871980409

>  <Genealogy>  (1) 
[NH-]S(=O)(=O)c1cc(S(=O)(=O)Nc2cccc(C(=O)N3CCCCC3)c2)cs1 (protonated)
[NH-]S(=O)(=O)c1cc(S(=O)(=O)Nc2cccc(C(=O)N3CCCCC3)c2)cs1 (3D coordinates assigned)
[NH-]S(=O)(=O)c1cc(S(=O)(=O)Nc2cccc(C(=O)N3CCCCC3)c2)cs1 (nonaromatic ring conformer: 80.36104871980409 kcal/mol)

>  <smiles>  (1) 
NS(=O)(=O)c1cc(S(=O)(=O)Nc2cccc(C(=O)N3CCCCC3)c2)cs1

>  <score_type>  (1) 
oracle

>  <origin>  (1) 
adg

>  <m_score__min__energy>  (1) 
-12.710000000000001

>  <m_primary>  (1) 
energy

$$$$
1:0
     RDKit          3D

 30 32  0  0  0  0  0  0  0  0999 V2000
   58.9179   34.8912   44.8785 H   0  0  0  0  0  0  0  0  0  0  0  0
   58.3200   33.9680   44.8630 C   0  0  0  0  0  0  0  0  0  0  0  0
   58.3030   33.0670   43.8620 N   0  0  0  0  0  0  0  0  0  0  0  0
   57.4330   32.1350   44.3080 C   0  0  0  0  0  0  0  0  0  0  0  0
   57.1060   31.0630   43.6490 N   0  0  0  0  0  0  0  0  0  0  0  0
   56.4170   29.9200   44.1790 C   0  0  0  0  0  0  0  0  0  0  0  0
   55.2110   29.9940   44.5400 O   0  0  0  0  0  0  0  0  0  0  0  0
   57.1360   28.6130   44.2710 C   0  0  0  0  0  0  0  0  0  0  0  0
   56.4334   27.7951   44.0535 H   0  0  0  0  0  0  0  0  0  0  0  0
   57.9594   28.6028   43.5417 H   0  0  0  0  0  0  0  0  0  0  0  0
   57.7000   28.4300   45.6530 C   0  0  0  0  0  0  0  0  0  0  0  0
   57.3920   27.4410   46.5990 C   0  0  0  0  0  0  0  0  0  0  0  0
   56.3970   26.3590   46.4730 C   0  0  0  0  0  0  0  0  0  0  0  0
   56.6610   25.1840   46.8360 O   0  0  0  0  0  0  0  0  0  0  0  0
   55.1390   26.6380   45.9500 O   0  0  0  0  0  0  0  0  0  0  0  0
   58.1730   27.5820   47.6980 N   0  0  0  0  0  0  0  0  0  0  0  0
   58.1690   26.9860   48.5570 H   0  0  0  0  0  0  0  0  0  0  0  0
   58.9780   28.6290   47.4540 C   0  0  0  0  0  0  0  0  0  0  0  0
   59.9730   29.1370   48.2880 C   0  0  0  0  0  0  0  0  0  0  0  0
   60.1633   28.6959   49.2775 H   0  0  0  0  0  0  0  0  0  0  0  0
   60.7260   30.2310   47.8250 C   0  0  0  0  0  0  0  0  0  0  0  0
   61.9910   30.9090   48.8340 Cl  0  0  0  0  0  0  0  0  0  0  0  0
   60.4720   30.7840   46.5500 C   0  0  0  0  0  0  0  0  0  0  0  0
   61.0673   31.6386   46.1962 H   0  0  0  0  0  0  0  0  0  0  0  0
   59.4620   30.2480   45.7300 C   0  0  0  0  0  0  0  0  0  0  0  0
   59.2580   30.6681   44.7341 H   0  0  0  0  0  0  0  0  0  0  0  0
   58.7270   29.1670   46.2190 C   0  0  0  0  0  0  0  0  0  0  0  0
   56.9370   32.4150   45.4900 O   0  0  0  0  0  0  0  0  0  0  0  0
   57.4700   33.5510   45.8650 C   0  0  0  0  0  0  0  0  0  0  0  0
   57.2744   34.0781   46.8104 H   0  0  0  0  0  0  0  0  0  0  0  0
  1  2  1  0
  2  3  1  0
  3  4  1  0
  4  5  2  0
  5  6  1  0
  6  7  2  0
  6  8  1  0
  8  9  1  0
  8 10  1  0
  8 11  1  0
 11 12  2  0
 12 13  1  0
 13 14  2  0
 13 15  1  0
 12 16  1  0
 16 17  1  0
 16 18  1  0
 18 19  2  0
 19 20  1  0
 19 21  1  0
 21 22  1  0
 21 23  2  0
 23 24  1  0
 23 25  1  0
 25 26  1  0
 25 27  2  0
  4 28  1  0
 28 29  1  0
 29 30  1  0
 29  2  2  0
 27 11  1  0
 27 18  1  0
M  CHG  2   3  -1  15  -1
M  END
>  <UniqueID>  (2) 
2

>  <SMILES>  (2) 
O=C(Cc1c(C(=O)[O-])[nH]c2cc(Cl)ccc12)/N=c1\[n-]cco1

>  <Energy>  (2) 
95.26087786867859

>  <Genealogy>  (2) 
O=C(Cc1c(C(=O)[O-])[nH]c2cc(Cl)ccc12)N=c1[n-]cco1 (protonated)
O=C(Cc1c(C(=O)[O-])[nH]c2cc(Cl)ccc12)/N=c1\[n-]cco1 (cis-trans isomerization)
O=C(Cc1c(C(=O)[O-])[nH]c2cc(Cl)ccc12)/N=c1\[n-]cco1 (3D coordinates assigned)
O=C(Cc1c(C(=O)[O-])[nH]c2cc(Cl)ccc12)/N=c1\[n-]cco1 (optimized conformer: 95.26087786867859 kcal/mol)

>  <smiles>  (2) 
O=C(Cc1c(C(=O)O)[nH]c2cc(Cl)ccc12)N=c1[nH]cco1

>  <score_type>  (2) 
oracle

>  <origin>  (2) 
adg

>  <m_score__min__energy>  (2) 
-11

>  <m_primary>  (2) 
energy

$$$$
2:0
     RDKit          3D

 50 52  0  0  0  0  0  0  0  0999 V2000
   59.1380   28.9750   44.1600 C   0  0  0  0  0  0  0  0  0  0  0  0
   57.8520   28.6510   43.5320 N   0  0  0  0  0  0  0  0  0  0  0  0
   57.7790   27.2140   43.2450 C   0  0  0  0  0  0  0  0  0  0  0  0
   56.5550   29.0990   44.6100 S   0  0  0  0  0  0  0  0  0  0  0  0
   55.3790   29.5720   43.8020 O   0  0  0  0  0  0  0  0  0  0  0  0
   57.0090   30.2280   45.4930 O   0  0  0  0  0  0  0  0  0  0  0  0
   56.1130   27.7500   45.6130 N   0  0  0  0  0  0  0  0  0  0  0  0
   57.0080   27.0690   46.4970 C   0  0  0  0  0  0  0  0  0  0  0  0
   56.6440   25.9760   47.0050 O   0  0  0  0  0  0  0  0  0  0  0  0
   58.3160   27.6350   46.8690 C   0  0  0  0  0  0  0  0  0  0  0  0
   58.5660   28.9410   47.0670 N   0  0  0  0  0  0  0  0  0  0  0  0
   59.8640   28.9920   47.4410 C   0  0  0  0  0  0  0  0  0  0  0  0
   60.5950   30.2320   47.7510 C   0  0  0  0  0  0  0  0  0  0  0  0
   60.9930   30.9840   46.7680 N   0  0  0  0  0  0  0  0  0  0  0  0
   61.6340   32.1970   46.9510 O   0  0  0  0  0  0  0  0  0  0  0  0
   61.7170   32.8350   48.2270 C   0  0  1  0  0  0  0  0  0  0  0  0
   62.9620   33.7410   48.2360 C   0  0  0  0  0  0  0  0  0  0  0  0
   60.4320   33.6740   48.4790 C   0  0  0  0  0  0  0  0  0  0  0  0
   59.5280   33.7510   47.2720 C   0  0  0  0  0  0  0  0  0  0  0  0
   58.3110   33.0460   47.2500 C   0  0  0  0  0  0  0  0  0  0  0  0
   57.4820   33.1070   46.1260 C   0  0  0  0  0  0  0  0  0  0  0  0
   57.8590   33.8680   45.0170 C   0  0  0  0  0  0  0  0  0  0  0  0
   59.0670   34.5710   45.0290 C   0  0  0  0  0  0  0  0  0  0  0  0
   59.8990   34.5150   46.1520 C   0  0  0  0  0  0  0  0  0  0  0  0
   61.8780   31.7470   49.3110 C   0  0  0  0  0  0  0  0  0  0  0  0
   60.8120   30.6520   49.1840 C   0  0  0  0  0  0  0  0  0  0  0  0
   60.4090   27.7930   47.4930 O   0  0  0  0  0  0  0  0  0  0  0  0
   59.4710   26.9420   47.1530 C   0  0  0  0  0  0  0  0  0  0  0  0
   59.6440   25.5650   47.0930 O   0  0  0  0  0  0  0  0  0  0  0  0
   59.0289   28.9475   45.2542 H   0  0  0  0  0  0  0  0  0  0  0  0
   59.8940   28.2393   43.8483 H   0  0  0  0  0  0  0  0  0  0  0  0
   59.4551   29.9811   43.8483 H   0  0  0  0  0  0  0  0  0  0  0  0
   57.7505   26.6523   44.1903 H   0  0  0  0  0  0  0  0  0  0  0  0
   56.8689   27.0018   42.6647 H   0  0  0  0  0  0  0  0  0  0  0  0
   58.6629   26.9106   42.6647 H   0  0  0  0  0  0  0  0  0  0  0  0
   57.8940   29.7340   46.9750 H   0  0  0  0  0  0  0  0  0  0  0  0
   63.2536   33.9532   49.2752 H   0  0  0  0  0  0  0  0  0  0  0  0
   63.7894   33.2323   47.7196 H   0  0  0  0  0  0  0  0  0  0  0  0
   62.7325   34.6847   47.7196 H   0  0  0  0  0  0  0  0  0  0  0  0
   59.8717   33.2157   49.3073 H   0  0  0  0  0  0  0  0  0  0  0  0
   60.7514   34.6998   48.7152 H   0  0  0  0  0  0  0  0  0  0  0  0
   58.0105   32.4444   48.1205 H   0  0  0  0  0  0  0  0  0  0  0  0
   56.5308   32.5546   46.1149 H   0  0  0  0  0  0  0  0  0  0  0  0
   57.2049   33.9140   44.1338 H   0  0  0  0  0  0  0  0  0  0  0  0
   59.3636   35.1688   44.1546 H   0  0  0  0  0  0  0  0  0  0  0  0
   60.8479   35.0714   46.1587 H   0  0  0  0  0  0  0  0  0  0  0  0
   62.8728   31.2885   49.2098 H   0  0  0  0  0  0  0  0  0  0  0  0
   61.7603   32.2253   50.2946 H   0  0  0  0  0  0  0  0  0  0  0  0
   61.1335   29.7753   49.7654 H   0  0  0  0  0  0  0  0  0  0  0  0
   59.8632   31.0583   49.5644 H   0  0  0  0  0  0  0  0  0  0  0  0
  1  2  1  0
  2  3  1  0
  2  4  1  0
  4  5  2  0
  4  6  2  0
  4  7  1  0
  7  8  1  0
  8  9  2  0
  8 10  1  0
 10 11  1  0
 11 12  2  0
 12 13  1  0
 13 14  2  0
 14 15  1  0
 15 16  1  0
 16 17  1  6
 16 18  1  0
 18 19  1  0
 19 20  2  0
 20 21  1  0
 21 22  2  0
 22 23  1  0
 23 24  2  0
 16 25  1  0
 25 26  1  0
 12 27  1  0
 27 28  1  0
 28 29  1  0
 28 10  2  0
 26 13  1  0
 24 19  1  0
  1 30  1  0
  1 31  1  0
  1 32  1  0
  3 33  1  0
  3 34  1  0
  3 35  1  0
 11 36  1  0
 17 37  1  0
 17 38  1  0
 17 39  1  0
 18 40  1  0
 18 41  1  0
 20 42  1  0
 21 43  1  0
 22 44  1  0
 23 45  1  0
 24 46  1  0
 25 47  1  0
 25 48  1  0
 26 49  1  0
 26 50  1  0
M  CHG  3   7  -1  11   1  29  -1
M  END
>  <UniqueID>  (3) 
3

>  <SMILES>  (3) 
CN(C)S(=O)(=O)[N-]C(=O)c1[nH+]c(C2=NO[C@@](C)(Cc3ccccc3)CC2)oc1[O-]

>  <Energy>  (3) 
84.32806124832575

>  <Genealogy>  (3) 
CN(C)S(=O)(=O)[N-]C(=O)c1[nH+]c(C2=NOC(C)(Cc3ccccc3)CC2)oc1[O-] (protonated)
CN(C)S(=O)(=O)[N-]C(=O)c1[nH+]c(C2=NO[C@@](C)(Cc3ccccc3)CC2)oc1[O-] (chirality)
CN(C)S(=O)(=O)[N-]C(=O)c1[nH+]c(C2=NO[C@@](C)(Cc3ccccc3)CC2)oc1[O-] (3D coordinates assigned)
CN(C)S(=O)(=O)[N-]C(=O)c1[nH+]c(C2=NO[C@@](C)(Cc3ccccc3)CC2)oc1[O-] (nonaromatic ring conformer: 84.32806124832575 kcal/mol)

>  <smiles>  (3) 
CN(C)S(=O)(=O)NC(=O)c1nc(C2=NOC(C)(Cc3ccccc3)CC2)oc1O

>  <score_type>  (3) 
oracle

>  <origin>  (3) 
adg

>  <m_score__min__energy>  (3) 
-11.41

>  <m_primary>  (3) 
energy

$$$$
3:0
     RDKit          3D

 47 50  0  0  0  0  0  0  0  0999 V2000
   55.5570   28.7500   44.9220 O   0  0  0  0  0  0  0  0  0  0  0  0
   56.2630   27.9130   45.5440 C   0  0  0  0  0  0  0  0  0  0  0  0
   55.6440   26.7090   46.0190 N   0  0  0  0  0  0  0  0  0  0  0  0
   55.8590   25.3870   45.5040 C   0  0  0  0  0  0  0  0  0  0  0  0
   54.7920   24.5020   45.2610 C   0  0  0  0  0  0  0  0  0  0  0  0
   55.0400   23.2240   44.7520 C   0  0  0  0  0  0  0  0  0  0  0  0
   56.3490   22.8240   44.4680 C   0  0  0  0  0  0  0  0  0  0  0  0
   56.6860   21.0780   43.7710 Br  0  0  0  0  0  0  0  0  0  0  0  0
   57.4110   23.7080   44.6840 C   0  0  0  0  0  0  0  0  0  0  0  0
   57.1650   24.9860   45.1940 C   0  0  0  0  0  0  0  0  0  0  0  0
   57.7070   28.1850   45.7330 C   0  0  0  0  0  0  0  0  0  0  0  0
   58.1370   28.8430   46.8980 C   0  0  0  0  0  0  0  0  0  0  0  0
   59.5010   29.1000   47.1260 C   0  0  0  0  0  0  0  0  0  0  0  0
   59.9150   29.7630   48.3390 N   0  0  0  0  0  0  0  0  0  0  0  0
   59.3690   30.8510   48.9190 C   0  0  0  0  0  0  0  0  0  0  0  0
   60.1090   31.0950   50.0540 C   0  0  0  0  0  0  0  0  0  0  0  0
   59.9120   32.2120   51.0320 C   0  0  0  0  0  0  0  0  0  0  0  0
   60.0920   33.5080   50.3770 N   0  0  0  0  0  0  0  0  0  0  0  0
   60.2740   33.6850   48.9590 C   0  0  0  0  0  0  0  0  0  0  0  0
   61.5770   33.7050   48.4340 C   0  0  0  0  0  0  0  0  0  0  0  0
   61.7890   33.8670   47.0600 C   0  0  0  0  0  0  0  0  0  0  0  0
   63.4210   33.8840   46.4190 Cl  0  0  0  0  0  0  0  0  0  0  0  0
   60.6980   34.0140   46.1980 C   0  0  0  0  0  0  0  0  0  0  0  0
   59.3970   34.0020   46.7080 C   0  0  0  0  0  0  0  0  0  0  0  0
   57.9090   34.2050   45.5270 Br  0  0  0  0  0  0  0  0  0  0  0  0
   59.1840   33.8400   48.0810 C   0  0  0  0  0  0  0  0  0  0  0  0
   61.0840   30.1710   50.1360 N   0  0  0  0  0  0  0  0  0  0  0  0
   60.9390   29.3750   49.0860 N   0  0  0  0  0  0  0  0  0  0  0  0
   60.4360   28.6970   46.1560 C   0  0  0  0  0  0  0  0  0  0  0  0
   60.0150   28.0620   44.9860 C   0  0  0  0  0  0  0  0  0  0  0  0
   58.6560   27.8120   44.7610 C   0  0  0  0  0  0  0  0  0  0  0  0
   58.2510   27.2150   43.5680 O   0  0  0  0  0  0  0  0  0  0  0  0
   53.7595   24.8171   45.4723 H   0  0  0  0  0  0  0  0  0  0  0  0
   54.2037   22.5318   44.5746 H   0  0  0  0  0  0  0  0  0  0  0  0
   58.4405   23.3974   44.4524 H   0  0  0  0  0  0  0  0  0  0  0  0
   58.0024   25.6814   45.3530 H   0  0  0  0  0  0  0  0  0  0  0  0
   57.3944   29.1624   47.6440 H   0  0  0  0  0  0  0  0  0  0  0  0
   58.5051   31.4281   48.5576 H   0  0  0  0  0  0  0  0  0  0  0  0
   58.8946   32.1545   51.4462 H   0  0  0  0  0  0  0  0  0  0  0  0
   60.6564   32.1147   51.8360 H   0  0  0  0  0  0  0  0  0  0  0  0
   60.1150   34.3530   50.9920 H   0  0  0  0  0  0  0  0  0  0  0  0
   62.4383   33.5923   49.1088 H   0  0  0  0  0  0  0  0  0  0  0  0
   60.8639   34.1392   45.1178 H   0  0  0  0  0  0  0  0  0  0  0  0
   58.1580   33.8336   48.4776 H   0  0  0  0  0  0  0  0  0  0  0  0
   61.5075   28.8835   46.3203 H   0  0  0  0  0  0  0  0  0  0  0  0
   60.7575   27.7555   44.2345 H   0  0  0  0  0  0  0  0  0  0  0  0
   57.2720   27.0820   43.3450 H   0  0  0  0  0  0  0  0  0  0  0  0
  1  2  2  0
  2  3  1  0
  3  4  1  0
  4  5  2  0
  5  6  1  0
  6  7  2  0
  7  8  1  0
  7  9  1  0
  9 10  2  0
  2 11  1  0
 11 12  2  0
 12 13  1  0
 13 14  1  0
 14 15  1  0
 15 16  2  0
 16 17  1  0
 17 18  1  0
 18 19  1  0
 19 20  2  0
 20 21  1  0
 21 22  1  0
 21 23  2  0
 23 24  1  0
 24 25  1  0
 24 26  2  0
 16 27  1  0
 27 28  2  0
 13 29  2  0
 29 30  1  0
 30 31  2  0
 31 32  1  0
 10  4  1  0
 31 11  1  0
 28 14  1  0
 26 19  1  0
  5 33  1  0
  6 34  1  0
  9 35  1  0
 10 36  1  0
 12 37  1  0
 15 38  1  0
 17 39  1  0
 17 40  1  0
 18 41  1  0
 20 42  1  0
 23 43  1  0
 26 44  1  0
 29 45  1  0
 30 46  1  0
 32 47  1  0
M  CHG  1   3  -1
M  END
>  <UniqueID>  (4) 
4

>  <SMILES>  (4) 
O=C([N-]c1ccc(Br)cc1)c1cc(-n2cc(CNc3cc(Cl)cc(Br)c3)nn2)ccc1O

>  <Energy>  (4) 
95.10369905552298

>  <Genealogy>  (4) 
O=C([N-]c1ccc(Br)cc1)c1cc(-n2cc(CNc3cc(Cl)cc(Br)c3)nn2)ccc1O (protonated)
O=C([N-]c1ccc(Br)cc1)c1cc(-n2cc(CNc3cc(Cl)cc(Br)c3)nn2)ccc1O (3D coordinates assigned)
O=C([N-]c1ccc(Br)cc1)c1cc(-n2cc(CNc3cc(Cl)cc(Br)c3)nn2)ccc1O (optimized conformer: 95.10369905552298 kcal/mol)

>  <smiles>  (4) 
O=C(Nc1ccc(Br)cc1)c1cc(-n2cc(CNc3cc(Cl)cc(Br)c3)nn2)ccc1O

>  <score_type>  (4) 
oracle

>  <origin>  (4) 
adg

>  <m_score__min__energy>  (4) 
-11.210000000000001

>  <m_primary>  (4) 
energy

$$$$
4:0
     RDKit          3D

 22 23  0  0  0  0  0  0  0  0999 V2000
   55.8080   29.1530   44.5720 N   0  0  0  0  0  0  0  0  0  0  0  0
   56.4110   30.2140   44.1320 C   0  0  0  0  0  0  0  0  0  0  0  0
   57.0230   31.0640   44.9770 N   0  0  0  0  0  0  0  0  0  0  0  0
   57.6470   32.1620   44.5170 C   0  0  0  0  0  0  0  0  0  0  0  0
   58.3290   33.1220   45.3780 C   0  0  0  0  0  0  0  0  0  0  0  0
   58.3290   32.9720   46.7700 C   0  0  0  0  0  0  0  0  0  0  0  0
   58.9660   33.8680   47.6000 C   0  0  0  0  0  0  0  0  0  0  0  0
   59.6360   34.9590   47.0860 C   0  0  0  0  0  0  0  0  0  0  0  0
   59.6500   35.1310   45.7160 C   0  0  0  0  0  0  0  0  0  0  0  0
   59.0070   34.2230   44.9010 C   0  0  0  0  0  0  0  0  0  0  0  0
   57.6420   32.3880   43.1910 N   0  0  0  0  0  0  0  0  0  0  0  0
   57.0300   31.5420   42.3300 C   0  0  0  0  0  0  0  0  0  0  0  0
   57.0620   31.8080   41.1180 O   0  0  0  0  0  0  0  0  0  0  0  0
   56.3970   30.4280   42.7940 N   0  0  0  0  0  0  0  0  0  0  0  0
   56.1340   28.2400   44.1410 H   0  0  0  0  0  0  0  0  0  0  0  0
   57.0090   30.8630   45.9900 H   0  0  0  0  0  0  0  0  0  0  0  0
   57.8047   32.1130   47.2141 H   0  0  0  0  0  0  0  0  0  0  0  0
   58.9401   33.7113   48.6885 H   0  0  0  0  0  0  0  0  0  0  0  0
   60.1455   35.6729   47.7499 H   0  0  0  0  0  0  0  0  0  0  0  0
   60.1738   35.9918   45.2748 H   0  0  0  0  0  0  0  0  0  0  0  0
   59.0369   34.3861   43.8136 H   0  0  0  0  0  0  0  0  0  0  0  0
   55.9260   29.7760   42.1300 H   0  0  0  0  0  0  0  0  0  0  0  0
  1  2  2  3
  2  3  1  0
  3  4  1  0
  4  5  1  0
  5  6  2  0
  6  7  1  0
  7  8  2  0
  8  9  1  0
  9 10  2  0
  4 11  2  0
 11 12  1  0
 12 13  2  0
 12 14  1  0
 14  2  1  0
 10  5  1  0
  1 15  1  0
  3 16  1  0
  6 17  1  0
  7 18  1  0
  8 19  1  0
  9 20  1  0
 10 21  1  0
 14 22  1  0
M  END
>  <smiles>  (5) 
N=c1[nH]c(-c2ccccc2)nc(=O)[nH]1

>  <score_type>  (5) 
oracle

>  <origin>  (5) 
adg

>  <m_score__min__energy>  (5) 
-6.29

>  <m_primary>  (5) 
energy

$$$$
5:0
     RDKit          3D

 50 53  0  0  0  0  0  0  0  0999 V2000
   58.4828   33.3271   42.3524 H   0  0  0  0  0  0  0  0  0  0  0  0
   58.4670   33.1020   43.4290 C   0  0  0  0  0  0  0  0  0  0  0  0
   57.7660   32.0350   43.8880 N   0  0  0  0  0  0  0  0  0  0  0  0
   57.7020   31.7260   45.2140 C   0  0  0  0  0  0  0  0  0  0  0  0
   57.0210   30.6960   45.6200 N   0  0  0  0  0  0  0  0  0  0  0  0
   56.7190   29.3010   44.6350 S   0  0  0  0  0  0  0  0  0  0  0  0
   55.2360   29.0690   44.5360 O   0  0  0  0  0  0  0  0  0  0  0  0
   57.2560   29.5470   43.2530 O   0  0  0  0  0  0  0  0  0  0  0  0
   57.4820   27.8830   45.3660 C   0  0  0  0  0  0  0  0  0  0  0  0
   56.6800   26.8900   45.9520 C   0  0  0  0  0  0  0  0  0  0  0  0
   55.5869   27.0117   45.9720 H   0  0  0  0  0  0  0  0  0  0  0  0
   57.2620   25.7480   46.5100 C   0  0  0  0  0  0  0  0  0  0  0  0
   56.6268   24.9748   46.9668 H   0  0  0  0  0  0  0  0  0  0  0  0
   58.6480   25.5880   46.4880 C   0  0  0  0  0  0  0  0  0  0  0  0
   59.1045   24.6891   46.9280 H   0  0  0  0  0  0  0  0  0  0  0  0
   59.4560   26.5680   45.9080 C   0  0  0  0  0  0  0  0  0  0  0  0
   60.5483   26.4391   45.8952 H   0  0  0  0  0  0  0  0  0  0  0  0
   58.8830   27.7150   45.3420 C   0  0  0  0  0  0  0  0  0  0  0  0
   59.9510   28.9060   44.6080 Cl  0  0  0  0  0  0  0  0  0  0  0  0
   58.3730   32.5280   46.1510 C   0  0  0  0  0  0  0  0  0  0  0  0
   58.3040   32.1960   47.5140 O   0  0  0  0  0  0  0  0  0  0  0  0
   59.0310   31.1660   48.1250 C   0  0  0  0  0  0  0  0  0  0  0  0
   60.0100   30.4360   47.4250 C   0  0  0  0  0  0  0  0  0  0  0  0
   60.2209   30.6716   46.3714 H   0  0  0  0  0  0  0  0  0  0  0  0
   60.7140   29.4140   48.0640 C   0  0  0  0  0  0  0  0  0  0  0  0
   61.4733   28.8415   47.5111 H   0  0  0  0  0  0  0  0  0  0  0  0
   60.4560   29.1170   49.4040 C   0  0  0  0  0  0  0  0  0  0  0  0
   61.0141   28.3112   49.9033 H   0  0  0  0  0  0  0  0  0  0  0  0
   59.4890   29.8410   50.1160 C   0  0  0  0  0  0  0  0  0  0  0  0
   59.1950   29.4830   51.5440 C   0  0  0  0  0  0  0  0  0  0  0  0
   59.7493   30.1579   52.2128 H   0  0  0  0  0  0  0  0  0  0  0  0
   58.1161   29.5844   51.7328 H   0  0  0  0  0  0  0  0  0  0  0  0
   59.5042   28.4444   51.7328 H   0  0  0  0  0  0  0  0  0  0  0  0
   58.7910   30.8780   49.4730 C   0  0  0  0  0  0  0  0  0  0  0  0
   58.0506   31.4674   50.0338 H   0  0  0  0  0  0  0  0  0  0  0  0
   59.1470   33.6140   45.6930 C   0  0  0  0  0  0  0  0  0  0  0  0
   59.8830   34.3750   46.6160 O   0  0  0  0  0  0  0  0  0  0  0  0
   61.0220   33.9240   47.2920 C   0  0  0  0  0  0  0  0  0  0  0  0
   62.1850   33.6690   46.5530 C   0  0  0  0  0  0  0  0  0  0  0  0
   62.1886   33.8332   45.4653 H   0  0  0  0  0  0  0  0  0  0  0  0
   63.3410   33.2070   47.1900 C   0  0  0  0  0  0  0  0  0  0  0  0
   64.2464   32.9975   46.6014 H   0  0  0  0  0  0  0  0  0  0  0  0
   63.3470   33.0110   48.5750 C   0  0  0  0  0  0  0  0  0  0  0  0
   64.7990   32.4320   49.3730 Cl  0  0  0  0  0  0  0  0  0  0  0  0
   62.2000   33.2900   49.3250 C   0  0  0  0  0  0  0  0  0  0  0  0
   62.2097   33.1456   50.4154 H   0  0  0  0  0  0  0  0  0  0  0  0
   61.0380   33.7530   48.6920 C   0  0  0  0  0  0  0  0  0  0  0  0
   59.6490   34.1790   49.6850 Cl  0  0  0  0  0  0  0  0  0  0  0  0
   59.1670   33.9130   44.3200 C   0  0  0  0  0  0  0  0  0  0  0  0
   59.7317   34.7818   43.9510 H   0  0  0  0  0  0  0  0  0  0  0  0
  1  2  1  0
  2  3  1  0
  3  4  1  0
  4  5  2  0
  5  6  1  0
  6  7  2  0
  6  8  2  0
  6  9  1  0
  9 10  2  0
 10 11  1  0
 10 12  1  0
 12 13  1  0
 12 14  2  0
 14 15  1  0
 14 16  1  0
 16 17  1  0
 16 18  2  0
 18 19  1  0
  4 20  1  0
 20 21  1  0
 21 22  1  0
 22 23  2  0
 23 24  1  0
 23 25  1  0
 25 26  1  0
 25 27  2  0
 27 28  1  0
 27 29  1  0
 29 30  1  0
 30 31  1  0
 30 32  1  0
 30 33  1  0
 29 34  2  0
 34 35  1  0
 20 36  2  0
 36 37  1  0
 37 38  1  0
 38 39  2  0
 39 40  1  0
 39 41  1  0
 41 42  1  0
 41 43  2  0
 43 44  1  0
 43 45  1  0
 45 46  1  0
 45 47  2  0
 47 48  1  0
 36 49  1  0
 49 50  1  0
 49  2  2  0
 18  9  1  0
 34 22  1  0
 47 38  1  0
M  CHG  1   3  -1
M  END
>  <UniqueID>  (6) 
5

>  <SMILES>  (6) 
Cc1cccc(Oc2c(Oc3ccc(Cl)cc3Cl)cc[n-]/c2=N\S(=O)(=O)c2ccccc2Cl)c1

>  <Energy>  (6) 
74.73089274552777

>  <Genealogy>  (6) 
Cc1cccc(Oc2c(Oc3ccc(Cl)cc3Cl)cc[n-]c2=NS(=O)(=O)c2ccccc2Cl)c1 (protonated)
Cc1cccc(Oc2c(Oc3ccc(Cl)cc3Cl)cc[n-]/c2=N\S(=O)(=O)c2ccccc2Cl)c1 (cis-trans isomerization)
Cc1cccc(Oc2c(Oc3ccc(Cl)cc3Cl)cc[n-]/c2=N\S(=O)(=O)c2ccccc2Cl)c1 (3D coordinates assigned)
Cc1cccc(Oc2c(Oc3ccc(Cl)cc3Cl)cc[n-]/c2=N\S(=O)(=O)c2ccccc2Cl)c1 (optimized conformer: 74.73089274552777 kcal/mol)

>  <smiles>  (6) 
Cc1cccc(Oc2c(Oc3ccc(Cl)cc3Cl)cc[nH]c2=NS(=O)(=O)c2ccccc2Cl)c1

>  <score_type>  (6) 
oracle

>  <origin>  (6) 
adg

>  <m_score__min__energy>  (6) 
-12.4

>  <m_primary>  (6) 
energy

$$$$
6:0
     RDKit          3D

 60 61  0  0  0  0  0  0  0  0999 V2000
   57.3510   28.9080   43.3810 C   0  0  0  0  0  0  0  0  0  0  0  0
   57.9570   30.0640   44.1890 C   0  0  1  0  0  0  0  0  0  0  0  0
   56.9290   31.1310   44.4420 C   0  0  0  0  0  0  0  0  0  0  0  0
   55.7080   30.8130   44.5070 O   0  0  0  0  0  0  0  0  0  0  0  0
   57.3280   32.4930   44.6330 N   0  0  0  0  0  0  0  0  0  0  0  0
   58.7110   32.8600   44.9060 C   0  0  0  0  0  0  0  0  0  0  0  0
   58.9590   32.8930   46.3910 C   0  0  0  0  0  0  0  0  0  0  0  0
   57.9340   32.5410   47.2830 C   0  0  0  0  0  0  0  0  0  0  0  0
   58.1310   32.6420   48.6620 C   0  0  0  0  0  0  0  0  0  0  0  0
   59.3500   33.1130   49.1760 C   0  0  0  0  0  0  0  0  0  0  0  0
   59.5570   33.1740   50.6690 C   0  0  0  0  0  0  0  0  0  0  0  0
   59.0440   34.3430   51.2030 F   0  0  0  0  0  0  0  0  0  0  0  0
   58.9260   32.1050   51.2770 F   0  0  0  0  0  0  0  0  0  0  0  0
   60.9100   33.1130   50.9430 F   0  0  0  0  0  0  0  0  0  0  0  0
   60.3870   33.4390   48.2840 C   0  0  0  0  0  0  0  0  0  0  0  0
   60.1960   33.3330   46.8970 C   0  0  0  0  0  0  0  0  0  0  0  0
   61.2400   33.6260   46.0150 O   0  0  0  0  0  0  0  0  0  0  0  0
   62.5810   33.8500   46.4430 C   0  0  0  0  0  0  0  0  0  0  0  0
   63.1670   32.5520   47.0130 C   0  0  0  0  0  0  0  0  0  0  0  0
   63.7520   32.7560   48.3560 N   0  0  0  0  0  0  0  0  0  0  0  0
   63.3460   34.0520   48.9270 C   0  0  0  0  0  0  0  0  0  0  0  0
   63.3230   31.6700   49.2530 C   0  0  0  0  0  0  0  0  0  0  0  0
   58.5950   29.6060   45.4890 C   0  0  0  0  0  0  0  0  0  0  0  0
   57.9070   28.7890   46.4040 C   0  0  0  0  0  0  0  0  0  0  0  0
   58.5200   28.3730   47.5870 C   0  0  0  0  0  0  0  0  0  0  0  0
   59.8260   28.7900   47.9020 C   0  0  0  0  0  0  0  0  0  0  0  0
   60.4740   28.3880   49.1230 N   0  0  0  0  0  0  0  0  0  0  0  0
   60.1280   29.0660   50.6830 S   0  0  0  0  0  0  0  0  0  0  0  0
   60.6330   27.9400   51.9660 C   0  0  0  0  0  0  0  0  0  0  0  0
   58.6600   29.3690   50.8020 O   0  0  0  0  0  0  0  0  0  0  0  0
   60.8990   30.3460   50.8380 O   0  0  0  0  0  0  0  0  0  0  0  0
   60.4950   29.6490   47.0130 C   0  0  0  0  0  0  0  0  0  0  0  0
   61.7470   30.0920   47.2950 F   0  0  0  0  0  0  0  0  0  0  0  0
   59.8860   30.0500   45.8210 C   0  0  0  0  0  0  0  0  0  0  0  0
   56.9528   28.1484   44.0698 H   0  0  0  0  0  0  0  0  0  0  0  0
   56.5375   29.2906   42.7471 H   0  0  0  0  0  0  0  0  0  0  0  0
   58.1284   28.4566   42.7471 H   0  0  0  0  0  0  0  0  0  0  0  0
   58.7667   30.4878   43.5769 H   0  0  0  0  0  0  0  0  0  0  0  0
   59.3810   32.1209   44.4424 H   0  0  0  0  0  0  0  0  0  0  0  0
   58.9056   33.8588   44.4882 H   0  0  0  0  0  0  0  0  0  0  0  0
   56.9695   32.1833   46.8935 H   0  0  0  0  0  0  0  0  0  0  0  0
   57.3247   32.3502   49.3511 H   0  0  0  0  0  0  0  0  0  0  0  0
   61.3564   33.7801   48.6763 H   0  0  0  0  0  0  0  0  0  0  0  0
   63.1876   34.1796   45.5866 H   0  0  0  0  0  0  0  0  0  0  0  0
   62.5891   34.6258   47.2227 H   0  0  0  0  0  0  0  0  0  0  0  0
   62.3664   31.8010   47.0838 H   0  0  0  0  0  0  0  0  0  0  0  0
   63.9681   32.2140   46.3392 H   0  0  0  0  0  0  0  0  0  0  0  0
   63.3651   33.9910   50.0251 H   0  0  0  0  0  0  0  0  0  0  0  0
   64.0419   34.8348   48.5911 H   0  0  0  0  0  0  0  0  0  0  0  0
   62.3278   34.2978   48.5911 H   0  0  0  0  0  0  0  0  0  0  0  0
   63.4483   31.9872   50.2988 H   0  0  0  0  0  0  0  0  0  0  0  0
   62.2648   31.4357   49.0652 H   0  0  0  0  0  0  0  0  0  0  0  0
   63.9354   30.7758   49.0652 H   0  0  0  0  0  0  0  0  0  0  0  0
   56.8758   28.4748   46.1852 H   0  0  0  0  0  0  0  0  0  0  0  0
   57.9768   27.7130   48.2793 H   0  0  0  0  0  0  0  0  0  0  0  0
   61.1280   27.5720   49.1070 H   0  0  0  0  0  0  0  0  0  0  0  0
   60.4311   28.3901   52.9492 H   0  0  0  0  0  0  0  0  0  0  0  0
   60.0705   26.9995   51.8708 H   0  0  0  0  0  0  0  0  0  0  0  0
   61.7095   27.7346   51.8708 H   0  0  0  0  0  0  0  0  0  0  0  0
   60.4235   30.7209   45.1347 H   0  0  0  0  0  0  0  0  0  0  0  0
  1  2  1  0
  2  3  1  0
  3  4  2  0
  3  5  1  0
  5  6  1  0
  6  7  1  0
  7  8  2  0
  8  9  1  0
  9 10  2  0
 10 11  1  0
 11 12  1  0
 11 13  1  0
 11 14  1  0
 10 15  1  0
 15 16  2  0
 16 17  1  0
 17 18  1  0
 18 19  1  0
 19 20  1  0
 20 21  1  0
 20 22  1  0
  2 23  1  0
 23 24  2  0
 24 25  1  0
 25 26  2  0
 26 27  1  0
 27 28  1  0
 28 29  1  0
 28 30  2  0
 28 31  2  0
 26 32  1  0
 32 33  1  0
 32 34  2  0
 16  7  1  0
 34 23  1  0
  1 35  1  0
  1 36  1  0
  1 37  1  0
  2 38  1  6
  6 39  1  0
  6 40  1  0
  8 41  1  0
  9 42  1  0
 15 43  1  0
 18 44  1  0
 18 45  1  0
 19 46  1  0
 19 47  1  0
 21 48  1  0
 21 49  1  0
 21 50  1  0
 22 51  1  0
 22 52  1  0
 22 53  1  0
 24 54  1  0
 25 55  1  0
 27 56  1  0
 29 57  1  0
 29 58  1  0
 29 59  1  0
 34 60  1  0
M  CHG  1   5  -1
M  END
>  <UniqueID>  (7) 
6

>  <SMILES>  (7) 
C[C@@H](C(=O)[N-]Cc1ccc(C(F)(F)F)cc1OCCN(C)C)c1ccc(NS(C)(=O)=O)c(F)c1

>  <Energy>  (7) 
55.56371320391118

>  <Genealogy>  (7) 
CC(C(=O)[N-]Cc1ccc(C(F)(F)F)cc1OCCN(C)C)c1ccc(NS(C)(=O)=O)c(F)c1 (protonated)
C[C@@H](C(=O)[N-]Cc1ccc(C(F)(F)F)cc1OCCN(C)C)c1ccc(NS(C)(=O)=O)c(F)c1 (chirality)
C[C@@H](C(=O)[N-]Cc1ccc(C(F)(F)F)cc1OCCN(C)C)c1ccc(NS(C)(=O)=O)c(F)c1 (3D coordinates assigned)
C[C@@H](C(=O)[N-]Cc1ccc(C(F)(F)F)cc1OCCN(C)C)c1ccc(NS(C)(=O)=O)c(F)c1 (optimized conformer: 55.56371320391118 kcal/mol)

>  <smiles>  (7) 
CC(C(=O)NCc1ccc(C(F)(F)F)cc1OCCN(C)C)c1ccc(NS(C)(=O)=O)c(F)c1

>  <score_type>  (7) 
oracle

>  <origin>  (7) 
adg

>  <m_score__min__energy>  (7) 
-10.18

>  <m_primary>  (7) 
energy

$$$$
7:0
     RDKit          3D

 35 36  0  0  0  0  0  0  0  0999 V2000
   57.3340   24.5940   44.0970 C   0  0  0  0  0  0  0  0  0  0  0  0
   56.0860   24.3340   44.8050 N   0  0  0  0  0  0  0  0  0  0  0  0
   55.7840   25.6120   45.9430 S   0  0  0  0  0  0  0  0  0  0  0  0
   56.2380   25.2050   47.3170 O   0  0  0  0  0  0  0  0  0  0  0  0
   54.3120   25.9150   45.9750 O   0  0  0  0  0  0  0  0  0  0  0  0
   56.6400   27.0360   45.4490 N   0  0  0  0  0  0  0  0  0  0  0  0
   57.9270   27.4010   45.9780 C   0  0  0  0  0  0  0  0  0  0  0  0
   58.4120   26.8260   47.1670 C   0  0  0  0  0  0  0  0  0  0  0  0
   59.6730   27.1750   47.6600 C   0  0  0  0  0  0  0  0  0  0  0  0
   60.4610   28.1010   46.9750 C   0  0  0  0  0  0  0  0  0  0  0  0
   59.9900   28.6850   45.7980 C   0  0  0  0  0  0  0  0  0  0  0  0
   58.7260   28.3470   45.3000 C   0  0  0  0  0  0  0  0  0  0  0  0
   58.2760   28.9310   44.0780 N   0  0  0  0  0  0  0  0  0  0  0  0
   57.0740   30.1720   44.0970 S   0  0  0  0  0  0  0  0  0  0  0  0
   56.6470   30.4680   42.6870 O   0  0  0  0  0  0  0  0  0  0  0  0
   55.8760   29.7100   44.8760 O   0  0  0  0  0  0  0  0  0  0  0  0
   57.7540   31.6260   44.8230 C   0  0  0  0  0  0  0  0  0  0  0  0
   57.9330   32.7830   44.0530 C   0  0  0  0  0  0  0  0  0  0  0  0
   58.5030   33.9250   44.6250 C   0  0  0  0  0  0  0  0  0  0  0  0
   58.8990   33.9150   45.9670 C   0  0  0  0  0  0  0  0  0  0  0  0
   59.6160   35.3470   46.6810 Cl  0  0  0  0  0  0  0  0  0  0  0  0
   58.7350   32.7560   46.7340 C   0  0  0  0  0  0  0  0  0  0  0  0
   58.1670   31.6130   46.1630 C   0  0  0  0  0  0  0  0  0  0  0  0
   58.1408   24.7621   44.8256 H   0  0  0  0  0  0  0  0  0  0  0  0
   57.5845   23.7288   43.4656 H   0  0  0  0  0  0  0  0  0  0  0  0
   57.2182   25.4873   43.4656 H   0  0  0  0  0  0  0  0  0  0  0  0
   56.2440   27.5620   44.6370 H   0  0  0  0  0  0  0  0  0  0  0  0
   57.7949   26.0969   47.7125 H   0  0  0  0  0  0  0  0  0  0  0  0
   60.0446   26.7189   48.5894 H   0  0  0  0  0  0  0  0  0  0  0  0
   61.4543   28.3709   47.3630 H   0  0  0  0  0  0  0  0  0  0  0  0
   60.6142   29.4135   45.2598 H   0  0  0  0  0  0  0  0  0  0  0  0
   57.6248   32.7931   42.9971 H   0  0  0  0  0  0  0  0  0  0  0  0
   58.6402   34.8326   44.0188 H   0  0  0  0  0  0  0  0  0  0  0  0
   59.0532   32.7442   47.7869 H   0  0  0  0  0  0  0  0  0  0  0  0
   58.0438   30.7015   46.7663 H   0  0  0  0  0  0  0  0  0  0  0  0
  1  2  1  0
  2  3  1  0
  3  4  2  0
  3  5  2  0
  3  6  1  0
  6  7  1  0
  7  8  2  0
  8  9  1  0
  9 10  2  0
 10 11  1  0
 11 12  2  0
 12 13  1  0
 13 14  1  0
 14 15  2  0
 14 16  2  0
 14 17  1  0
 17 18  2  0
 18 19  1  0
 19 20  2  0
 20 21  1  0
 20 22  1  0
 22 23  2  0
 12  7  1  0
 23 17  1  0
  1 24  1  0
  1 25  1  0
  1 26  1  0
  6 27  1  0
  8 28  1  0
  9 29  1  0
 10 30  1  0
 11 31  1  0
 18 32  1  0
 19 33  1  0
 22 34  1  0
 23 35  1  0
M  CHG  2   2  -1  13  -1
M  END
>  <UniqueID>  (8) 
7

>  <SMILES>  (8) 
C[N-]S(=O)(=O)Nc1ccccc1[N-]S(=O)(=O)c1ccc(Cl)cc1

>  <Energy>  (8) 
41.11425683786995

>  <Genealogy>  (8) 
C[N-]S(=O)(=O)Nc1ccccc1[N-]S(=O)(=O)c1ccc(Cl)cc1 (protonated)
C[N-]S(=O)(=O)Nc1ccccc1[N-]S(=O)(=O)c1ccc(Cl)cc1 (3D coordinates assigned)
C[N-]S(=O)(=O)Nc1ccccc1[N-]S(=O)(=O)c1ccc(Cl)cc1 (optimized conformer: 41.11425683786995 kcal/mol)

>  <smiles>  (8) 
CNS(=O)(=O)Nc1ccccc1NS(=O)(=O)c1ccc(Cl)cc1

>  <score_type>  (8) 
oracle

>  <origin>  (8) 
adg

>  <m_score__min__energy>  (8) 
-11.779999999999999

>  <m_primary>  (8) 
energy

$$$$
8:0
     RDKit          3D

 42 44  0  0  1  0  0  0  0  0999 V2000
   60.0800   28.8410   49.3880 C   0  0  0  0  0  0  0  0  0  0  0  0
   59.1110   28.4360   48.2800 C   0  0  0  0  0  0  0  0  0  0  0  0
   58.5160   29.6280   47.7740 N   0  0  0  0  0  0  0  0  0  0  0  0
   58.9290   30.1150   46.6100 C   0  0  0  0  0  0  0  0  0  0  0  0
   59.7170   31.3140   46.7030 C   0  0  0  0  0  0  0  0  0  0  0  0
   61.0530   31.1890   47.1170 C   0  0  0  0  0  0  0  0  0  0  0  0
   61.9040   32.2620   47.2390 C   0  0  0  0  0  0  0  0  0  0  0  0
   61.4850   33.5390   46.9560 C   0  0  0  0  0  0  0  0  0  0  0  0
   60.1850   33.6930   46.5490 C   0  0  0  0  0  0  0  0  0  0  0  0
   59.3080   32.5890   46.4240 C   0  0  0  0  0  0  0  0  0  0  0  0
   57.9530   32.9710   45.9780 C   0  0  0  0  0  0  0  0  0  0  0  0
   58.1770   33.6390   44.6010 C   0  0  0  0  0  0  0  0  0  0  0  0
   58.8750   34.9480   44.8830 C   0  0  0  0  0  0  0  0  0  0  0  0
   59.5760   35.0060   46.2010 C   0  0  0  0  0  0  0  0  0  0  0  0
   58.5180   29.3460   45.4810 C   0  0  0  0  0  0  0  0  0  0  0  0
   59.3460   28.4830   44.7440 C   0  0  0  0  0  0  0  0  0  0  0  0
   60.7830   28.2380   45.0860 C   0  0  0  0  0  0  0  0  0  0  0  0
   58.6230   27.9610   43.7340 N   0  0  0  0  0  0  0  0  0  0  0  0
   57.3940   28.4450   43.7960 N   0  0  0  0  0  0  0  0  0  0  0  0
   57.2730   29.2960   44.8430 C   0  0  0  0  0  0  0  0  0  0  0  0
   56.2460   29.9420   45.2060 O   0  0  0  0  0  0  0  0  0  0  0  0
   59.6183   28.6480   50.3676 H   0  0  0  0  0  0  0  0  0  0  0  0
   61.0063   28.2547   49.2974 H   0  0  0  0  0  0  0  0  0  0  0  0
   60.3136   29.9121   49.2974 H   0  0  0  0  0  0  0  0  0  0  0  0
   59.6548   27.9174   47.4766 H   0  0  0  0  0  0  0  0  0  0  0  0
   58.3409   27.7538   48.6693 H   0  0  0  0  0  0  0  0  0  0  0  0
   61.4366   30.1858   47.3548 H   0  0  0  0  0  0  0  0  0  0  0  0
   62.9398   32.0946   47.5694 H   0  0  0  0  0  0  0  0  0  0  0  0
   62.1626   34.4002   47.0517 H   0  0  0  0  0  0  0  0  0  0  0  0
   57.3104   32.0836   45.8805 H   0  0  0  0  0  0  0  0  0  0  0  0
   57.4488   33.6391   46.6917 H   0  0  0  0  0  0  0  0  0  0  0  0
   58.8058   32.9999   43.9638 H   0  0  0  0  0  0  0  0  0  0  0  0
   57.2268   33.7950   44.0692 H   0  0  0  0  0  0  0  0  0  0  0  0
   59.6188   35.1182   44.0907 H   0  0  0  0  0  0  0  0  0  0  0  0
   58.0918   35.7199   44.9115 H   0  0  0  0  0  0  0  0  0  0  0  0
   60.3690   35.7668   46.1517 H   0  0  0  0  0  0  0  0  0  0  0  0
   58.8379   35.2621   46.9754 H   0  0  0  0  0  0  0  0  0  0  0  0
   60.9014   28.2178   46.1794 H   0  0  0  0  0  0  0  0  0  0  0  0
   61.1007   27.2727   44.6649 H   0  0  0  0  0  0  0  0  0  0  0  0
   61.4026   29.0435   44.6649 H   0  0  0  0  0  0  0  0  0  0  0  0
   59.0450   27.2850   43.0520 H   0  0  0  0  0  0  0  0  0  0  0  0
   56.6420   28.1930   43.1220 H   0  0  0  0  0  0  0  0  0  0  0  0
  1  2  1  0
  2  3  1  0
  3  4  2  0
  4  5  1  0
  5  6  2  0
  6  7  1  0
  7  8  2  0
  8  9  1  0
  9 10  2  0
 10 11  1  0
 11 12  1  0
 12 13  1  0
 13 14  1  0
  4 15  1  0
 15 16  2  0
 16 17  1  0
 16 18  1  0
 18 19  1  0
 19 20  1  0
 20 21  2  0
 10  5  1  0
 20 15  1  0
 14  9  1  0
  1 22  1  0
  1 23  1  0
  1 24  1  0
  2 25  1  0
  2 26  1  0
  6 27  1  0
  7 28  1  0
  8 29  1  0
 11 30  1  0
 11 31  1  0
 12 32  1  0
 12 33  1  0
 13 34  1  0
 13 35  1  0
 14 36  1  0
 14 37  1  0
 17 38  1  0
 17 39  1  0
 17 40  1  0
 18 41  1  0
 19 42  1  0
M  END
>  <smiles>  (9) 
CCN=C(c1cccc2c1CCCC2)c1c(C)[nH][nH]c1=O

>  <score_type>  (9) 
oracle

>  <origin>  (9) 
adg

>  <m_score__min__energy>  (9) 
-8.1099999999999994

>  <m_primary>  (9) 
energy

$$$$
9:0
     RDKit          3D

 61 63  0  0  0  0  0  0  0  0999 V2000
   59.5910   34.6820   45.4360 C   0  0  0  0  0  0  0  0  0  0  0  0
   60.0530   34.4700   46.8800 C   0  0  0  0  0  0  0  0  0  0  0  0
   58.8870   34.6750   47.8470 C   0  0  0  0  0  0  0  0  0  0  0  0
   60.5680   33.1510   47.0480 O   0  0  0  0  0  0  0  0  0  0  0  0
   61.7270   32.8890   47.7820 C   0  0  0  0  0  0  0  0  0  0  0  0
   62.9650   33.2670   47.2440 C   0  0  0  0  0  0  0  0  0  0  0  0
   63.0260   33.8520   46.0210 F   0  0  0  0  0  0  0  0  0  0  0  0
   64.1400   33.0660   47.9710 C   0  0  0  0  0  0  0  0  0  0  0  0
   64.0880   32.4750   49.2340 C   0  0  0  0  0  0  0  0  0  0  0  0
   62.8620   32.0710   49.7670 C   0  0  0  0  0  0  0  0  0  0  0  0
   61.6710   32.2640   49.0470 C   0  0  0  0  0  0  0  0  0  0  0  0
   60.4320   31.7520   49.5750 N   0  0  0  0  0  0  0  0  0  0  0  0
   59.8640   32.4140   50.7640 C   0  0  0  0  0  0  0  0  0  0  0  0
   58.6010   31.7520   51.2790 C   0  0  0  0  0  0  0  0  0  0  0  0
   57.4460   32.5220   51.4910 C   0  0  0  0  0  0  0  0  0  0  0  0
   56.2720   31.9260   51.9620 C   0  0  0  0  0  0  0  0  0  0  0  0
   56.2350   30.5490   52.2210 C   0  0  0  0  0  0  0  0  0  0  0  0
   54.9860   29.9170   52.6860 C   0  0  0  0  0  0  0  0  0  0  0  0
   54.8680   29.6170   53.9030 O   0  0  0  0  0  0  0  0  0  0  0  0
   53.8960   29.6410   51.7960 N   0  0  0  0  0  0  0  0  0  0  0  0
   53.0630   30.6460   51.1400 C   0  0  0  0  0  0  0  0  0  0  0  0
   52.2440   31.4240   52.1730 C   0  0  0  0  0  0  0  0  0  0  0  0
   51.2640   32.3330   51.4990 C   0  0  0  0  0  0  0  0  0  0  0  0
   51.4170   32.6420   50.2880 O   0  0  0  0  0  0  0  0  0  0  0  0
   50.1970   32.8590   52.2140 O   0  0  0  0  0  0  0  0  0  0  0  0
   57.4000   29.7880   52.0610 C   0  0  0  0  0  0  0  0  0  0  0  0
   58.5730   30.3840   51.5960 C   0  0  0  0  0  0  0  0  0  0  0  0
   59.6180   30.9270   48.7170 C   0  0  0  0  0  0  0  0  0  0  0  0
   59.8600   29.6940   48.6000 O   0  0  0  0  0  0  0  0  0  0  0  0
   58.5130   31.5090   48.0150 N   0  0  0  0  0  0  0  0  0  0  0  0
   58.1830   31.2600   46.6420 C   0  0  0  0  0  0  0  0  0  0  0  0
   57.6820   32.2770   45.8060 C   0  0  0  0  0  0  0  0  0  0  0  0
   57.3410   31.9940   44.4800 C   0  0  0  0  0  0  0  0  0  0  0  0
   57.4890   30.6970   43.9810 C   0  0  0  0  0  0  0  0  0  0  0  0
   57.9660   29.6770   44.8120 C   0  0  0  0  0  0  0  0  0  0  0  0
   58.1320   28.0460   44.1880 Cl  0  0  0  0  0  0  0  0  0  0  0  0
   58.3000   29.9570   46.1420 C   0  0  0  0  0  0  0  0  0  0  0  0
   58.5912   35.1408   45.4345 H   0  0  0  0  0  0  0  0  0  0  0  0
   60.2995   35.3451   44.9180 H   0  0  0  0  0  0  0  0  0  0  0  0
   59.5503   33.7125   44.9180 H   0  0  0  0  0  0  0  0  0  0  0  0
   60.8437   35.2034   47.0968 H   0  0  0  0  0  0  0  0  0  0  0  0
   59.2535   34.6106   48.8822 H   0  0  0  0  0  0  0  0  0  0  0  0
   58.4398   35.6656   47.6774 H   0  0  0  0  0  0  0  0  0  0  0  0
   58.1287   33.8964   47.6774 H   0  0  0  0  0  0  0  0  0  0  0  0
   65.1075   33.3738   47.5477 H   0  0  0  0  0  0  0  0  0  0  0  0
   65.0133   32.3272   49.8102 H   0  0  0  0  0  0  0  0  0  0  0  0
   62.8285   31.5975   50.7593 H   0  0  0  0  0  0  0  0  0  0  0  0
   60.6175   32.3972   51.5652 H   0  0  0  0  0  0  0  0  0  0  0  0
   59.5944   33.4381   50.4664 H   0  0  0  0  0  0  0  0  0  0  0  0
   57.4649   33.6024   51.2850 H   0  0  0  0  0  0  0  0  0  0  0  0
   55.3747   32.5398   52.1298 H   0  0  0  0  0  0  0  0  0  0  0  0
   53.7078   31.3459   50.5883 H   0  0  0  0  0  0  0  0  0  0  0  0
   52.3732   30.1391   50.4491 H   0  0  0  0  0  0  0  0  0  0  0  0
   51.6973   30.7128   52.8097 H   0  0  0  0  0  0  0  0  0  0  0  0
   52.9297   32.0329   52.7805 H   0  0  0  0  0  0  0  0  0  0  0  0
   57.3902   28.7150   52.3031 H   0  0  0  0  0  0  0  0  0  0  0  0
   59.4830   29.7776   51.4768 H   0  0  0  0  0  0  0  0  0  0  0  0
   57.5586   33.2974   46.1978 H   0  0  0  0  0  0  0  0  0  0  0  0
   56.9560   32.7927   43.8290 H   0  0  0  0  0  0  0  0  0  0  0  0
   57.2304   30.4778   42.9345 H   0  0  0  0  0  0  0  0  0  0  0  0
   58.6563   29.1493   46.7982 H   0  0  0  0  0  0  0  0  0  0  0  0
  1  2  1  0
  2  3  1  0
  2  4  1  0
  4  5  1  0
  5  6  2  0
  6  7  1  0
  6  8  1  0
  8  9  2  0
  9 10  1  0
 10 11  2  0
 11 12  1  0
 12 13  1  0
 13 14  1  0
 14 15  2  0
 15 16  1  0
 16 17  2  0
 17 18  1  0
 18 19  2  0
 18 20  1  0
 20 21  1  0
 21 22  1  0
 22 23  1  0
 23 24  2  0
 23 25  1  0
 17 26  1  0
 26 27  2  0
 12 28  1  0
 28 29  2  0
 28 30  1  0
 30 31  1  0
 31 32  2  0
 32 33  1  0
 33 34  2  0
 34 35  1  0
 35 36  1  0
 35 37  2  0
 11  5  1  0
 27 14  1  0
 37 31  1  0
  1 38  1  0
  1 39  1  0
  1 40  1  0
  2 41  1  0
  3 42  1  0
  3 43  1  0
  3 44  1  0
  8 45  1  0
  9 46  1  0
 10 47  1  0
 13 48  1  0
 13 49  1  0
 15 50  1  0
 16 51  1  0
 21 52  1  0
 21 53  1  0
 22 54  1  0
 22 55  1  0
 26 56  1  0
 27 57  1  0
 32 58  1  0
 33 59  1  0
 34 60  1  0
 37 61  1  0
M  CHG  3  20  -1  25  -1  30  -1
M  END
>  <UniqueID>  (10) 
8

>  <SMILES>  (10) 
CC(C)Oc1c(F)cccc1N(Cc1ccc(C(=O)[N-]CCC(=O)[O-])cc1)C(=O)[N-]c1cccc(Cl)c1

>  <Energy>  (10) 
74.45846783949135

>  <Genealogy>  (10) 
CC(C)Oc1c(F)cccc1N(Cc1ccc(C(=O)[N-]CCC(=O)[O-])cc1)C(=O)[N-]c1cccc(Cl)c1 (protonated)
CC(C)Oc1c(F)cccc1N(Cc1ccc(C(=O)[N-]CCC(=O)[O-])cc1)C(=O)[N-]c1cccc(Cl)c1 (3D coordinates assigned)
CC(C)Oc1c(F)cccc1N(Cc1ccc(C(=O)[N-]CCC(=O)[O-])cc1)C(=O)[N-]c1cccc(Cl)c1 (optimized conformer: 74.45846783949135 kcal/mol)

>  <smiles>  (10) 
CC(C)Oc1c(F)cccc1N(Cc1ccc(C(=O)NCCC(=O)O)cc1)C(=O)Nc1cccc(Cl)c1

>  <score_type>  (10) 
oracle

>  <origin>  (10) 
adg

>  <m_score__min__energy>  (10) 
-15.34

>  <m_primary>  (10) 
energy

$$$$
10:0
     RDKit          3D

 40 41  0  0  0  0  0  0  0  0999 V2000
   51.6900   24.1250   44.7050 C   0  0  0  0  0  0  0  0  0  0  0  0
   52.6350   23.0610   44.7450 O   0  0  0  0  0  0  0  0  0  0  0  0
   54.0120   23.2260   44.9680 C   0  0  0  0  0  0  0  0  0  0  0  0
   54.8150   24.0010   44.1090 C   0  0  0  0  0  0  0  0  0  0  0  0
   56.1770   24.1670   44.3720 C   0  0  0  0  0  0  0  0  0  0  0  0
   56.7540   23.5640   45.4960 C   0  0  0  0  0  0  0  0  0  0  0  0
   58.1370   23.7590   45.8050 N   0  0  0  0  0  0  0  0  0  0  0  0
   58.6760   24.9060   46.4770 C   0  0  0  0  0  0  0  0  0  0  0  0
   59.9220   24.9780   46.6470 O   0  0  0  0  0  0  0  0  0  0  0  0
   57.8010   26.0090   47.0200 C   0  0  0  0  0  0  0  0  0  0  0  0
   57.8930   27.2260   46.2050 N   0  0  0  0  0  0  0  0  0  0  0  0
   58.9940   27.9530   45.8890 C   0  0  0  0  0  0  0  0  0  0  0  0
   60.3810   27.6390   46.3530 C   0  0  0  0  0  0  0  0  0  0  0  0
   58.7070   29.0490   45.1480 N   0  0  0  0  0  0  0  0  0  0  0  0
   57.3730   28.9840   44.9710 C   0  0  0  0  0  0  0  0  0  0  0  0
   56.4350   30.1740   44.0900 S   0  0  0  0  0  0  0  0  0  0  0  0
   54.7870   29.6610   44.0040 N   0  0  0  0  0  0  0  0  0  0  0  0
   56.5200   31.5000   44.7910 O   0  0  0  0  0  0  0  0  0  0  0  0
   56.9890   30.3170   42.7000 O   0  0  0  0  0  0  0  0  0  0  0  0
   56.8810   27.8690   45.6000 C   0  0  0  0  0  0  0  0  0  0  0  0
   55.5530   27.4590   45.6190 O   0  0  0  0  0  0  0  0  0  0  0  0
   55.9730   22.7600   46.3290 C   0  0  0  0  0  0  0  0  0  0  0  0
   54.6010   22.6000   46.0820 C   0  0  0  0  0  0  0  0  0  0  0  0
   53.6160   21.6310   47.1790 S   0  0  0  0  0  0  0  0  0  0  0  0
   52.6300   20.5460   46.2650 N   0  0  0  0  0  0  0  0  0  0  0  0
   54.4910   20.8310   48.1050 O   0  0  0  0  0  0  0  0  0  0  0  0
   52.7420   22.5380   47.9990 O   0  0  0  0  0  0  0  0  0  0  0  0
   51.4273   24.4208   45.7314 H   0  0  0  0  0  0  0  0  0  0  0  0
   52.1278   24.9846   44.1764 H   0  0  0  0  0  0  0  0  0  0  0  0
   50.7848   23.7917   44.1764 H   0  0  0  0  0  0  0  0  0  0  0  0
   54.3669   24.4787   43.2253 H   0  0  0  0  0  0  0  0  0  0  0  0
   56.7971   24.7726   43.6947 H   0  0  0  0  0  0  0  0  0  0  0  0
   56.7566   25.6639   47.0286 H   0  0  0  0  0  0  0  0  0  0  0  0
   58.1449   26.2504   48.0366 H   0  0  0  0  0  0  0  0  0  0  0  0
   60.4072   27.6331   47.4527 H   0  0  0  0  0  0  0  0  0  0  0  0
   60.6795   26.6505   45.9738 H   0  0  0  0  0  0  0  0  0  0  0  0
   61.0762   28.4025   45.9738 H   0  0  0  0  0  0  0  0  0  0  0  0
   54.5160   29.3460   44.9620 H   0  0  0  0  0  0  0  0  0  0  0  0
   56.4368   22.2483   47.1852 H   0  0  0  0  0  0  0  0  0  0  0  0
   52.4410   21.0070   45.3470 H   0  0  0  0  0  0  0  0  0  0  0  0
  1  2  1  0
  2  3  1  0
  3  4  2  0
  4  5  1  0
  5  6  2  0
  6  7  1  0
  7  8  1  0
  8  9  2  0
  8 10  1  0
 10 11  1  0
 11 12  1  0
 12 13  1  0
 12 14  2  0
 14 15  1  0
 15 16  1  0
 16 17  1  0
 16 18  2  0
 16 19  2  0
 15 20  2  0
 20 21  1  0
  6 22  1  0
 22 23  2  0
 23 24  1  0
 24 25  1  0
 24 26  2  0
 24 27  2  0
 23  3  1  0
 20 11  1  0
  1 28  1  0
  1 29  1  0
  1 30  1  0
  4 31  1  0
  5 32  1  0
 10 33  1  0
 10 34  1  0
 13 35  1  0
 13 36  1  0
 13 37  1  0
 17 38  1  0
 22 39  1  0
 25 40  1  0
M  CHG  4   7  -1  17  -1  21  -1  25  -1
M  END
>  <UniqueID>  (11) 
9

>  <SMILES>  (11) 
COc1ccc([N-]C(=O)Cn2c(C)nc(S([NH-])(=O)=O)c2[O-])cc1S([NH-])(=O)=O

>  <Energy>  (11) 
70.34829535708552

>  <Genealogy>  (11) 
COc1ccc([N-]C(=O)Cn2c(C)nc(S([NH-])(=O)=O)c2[O-])cc1S([NH-])(=O)=O (protonated)
COc1ccc([N-]C(=O)Cn2c(C)nc(S([NH-])(=O)=O)c2[O-])cc1S([NH-])(=O)=O (3D coordinates assigned)
COc1ccc([N-]C(=O)Cn2c(C)nc(S([NH-])(=O)=O)c2[O-])cc1S([NH-])(=O)=O (optimized conformer: 70.34829535708552 kcal/mol)

>  <smiles>  (11) 
COc1ccc(NC(=O)Cn2c(C)nc(S(N)(=O)=O)c2O)cc1S(N)(=O)=O

>  <score_type>  (11) 
oracle

>  <origin>  (11) 
adg

>  <m_score__min__energy>  (11) 
-15.69

>  <m_primary>  (11) 
energy

$$$$
11:0
     RDKit          3D

 28 29  0  0  0  0  0  0  0  0999 V2000
   55.1960   29.3540   44.8810 N   0  0  0  0  0  0  0  0  0  0  0  0
   56.5640   30.2660   44.3450 S   0  0  0  0  0  0  0  0  0  0  0  0
   56.8180   29.9910   42.8900 O   0  0  0  0  0  0  0  0  0  0  0  0
   56.2670   31.7310   44.5110 O   0  0  0  0  0  0  0  0  0  0  0  0
   57.9870   29.8190   45.2940 C   0  0  0  0  0  0  0  0  0  0  0  0
   58.8480   30.8240   45.7610 C   0  0  0  0  0  0  0  0  0  0  0  0
   59.9760   30.4950   46.5150 C   0  0  0  0  0  0  0  0  0  0  0  0
   60.2570   29.1610   46.8060 C   0  0  0  0  0  0  0  0  0  0  0  0
   59.4060   28.1500   46.3530 C   0  0  0  0  0  0  0  0  0  0  0  0
   58.2520   28.4680   45.6060 C   0  0  0  0  0  0  0  0  0  0  0  0
   57.3590   27.4490   45.1200 N   0  0  0  0  0  0  0  0  0  0  0  0
   57.6640   26.2090   44.8750 C   0  0  0  0  0  0  0  0  0  0  0  0
   56.7340   25.1150   45.2480 C   0  0  0  0  0  0  0  0  0  0  0  0
   55.4670   25.3890   45.8180 C   0  0  0  0  0  0  0  0  0  0  0  0
   54.9880   26.6890   45.9940 O   0  0  0  0  0  0  0  0  0  0  0  0
   54.6640   24.3610   46.1930 N   0  0  0  0  0  0  0  0  0  0  0  0
   55.0380   23.0690   46.0250 C   0  0  0  0  0  0  0  0  0  0  0  0
   54.0370   21.8640   46.4860 S   0  0  0  0  0  0  0  0  0  0  0  0
   56.2380   22.7770   45.4720 N   0  0  0  0  0  0  0  0  0  0  0  0
   57.0920   23.7590   45.0840 C   0  0  0  0  0  0  0  0  0  0  0  0
   58.2070   23.4360   44.5950 O   0  0  0  0  0  0  0  0  0  0  0  0
   55.5500   28.6150   45.5260 H   0  0  0  0  0  0  0  0  0  0  0  0
   58.6327   31.8780   45.5314 H   0  0  0  0  0  0  0  0  0  0  0  0
   60.6438   31.2893   46.8799 H   0  0  0  0  0  0  0  0  0  0  0  0
   61.1507   28.9039   47.3935 H   0  0  0  0  0  0  0  0  0  0  0  0
   59.6371   27.0988   46.5802 H   0  0  0  0  0  0  0  0  0  0  0  0
   58.6201   25.9690   44.3868 H   0  0  0  0  0  0  0  0  0  0  0  0
   55.1380   27.4380   45.3310 H   0  0  0  0  0  0  0  0  0  0  0  0
  1  2  1  0
  2  3  2  0
  2  4  2  0
  2  5  1  0
  5  6  2  0
  6  7  1  0
  7  8  2  0
  8  9  1  0
  9 10  2  0
 10 11  1  0
 11 12  2  3
 12 13  1  0
 13 14  2  0
 14 15  1  0
 14 16  1  0
 16 17  1  0
 17 18  2  0
 17 19  1  0
 19 20  1  0
 20 21  2  0
 10  5  1  0
 20 13  1  0
  1 22  1  0
  6 23  1  0
  7 24  1  0
  8 25  1  0
  9 26  1  0
 12 27  1  0
 15 28  1  0
M  CHG  3   1  -1  16  -1  19  -1
M  END
>  <UniqueID>  (12) 
10

>  <SMILES>  (12) 
[NH-]S(=O)(=O)c1ccccc1N=Cc1c(O)[n-]c(=S)[n-]c1=O

>  <Energy>  (12) 
38.065609749298176

>  <Genealogy>  (12) 
[NH-]S(=O)(=O)c1ccccc1N=Cc1c(O)[n-]c(=S)[n-]c1=O (protonated)
[NH-]S(=O)(=O)c1ccccc1N=Cc1c(O)[n-]c(=S)[n-]c1=O (3D coordinates assigned)
[NH-]S(=O)(=O)c1ccccc1N=Cc1c(O)[n-]c(=S)[n-]c1=O (optimized conformer: 38.065609749298176 kcal/mol)

>  <smiles>  (12) 
NS(=O)(=O)c1ccccc1N=Cc1c(O)[nH]c(=S)[nH]c1=O

>  <score_type>  (12) 
oracle

>  <origin>  (12) 
adg

>  <m_score__min__energy>  (12) 
-14.09

>  <m_primary>  (12) 
energy

$$$$
12:0
     RDKit          3D

 45 47  0  0  0  0  0  0  0  0999 V2000
   51.7560   28.1280   49.2560 H   0  0  0  0  0  0  0  0  0  0  0  0
   51.7640   29.1300   49.1060 O   0  0  0  0  0  0  0  0  0  0  0  0
   58.0090   31.1080   44.2420 C   0  0  0  0  0  0  0  0  0  0  0  0
   56.8490   30.3230   44.2660 C   0  0  0  0  0  0  0  0  0  0  0  0
   56.0687   30.4784   43.5064 H   0  0  0  0  0  0  0  0  0  0  0  0
   56.6760   29.3440   45.2480 C   0  0  0  0  0  0  0  0  0  0  0  0
   55.5290   28.5610   45.2510 O   0  0  0  0  0  0  0  0  0  0  0  0
   53.3280   29.7760   50.8470 C   0  0  0  0  0  0  0  0  0  0  0  0
   53.9398   28.8880   50.6296 H   0  0  0  0  0  0  0  0  0  0  0  0
   58.8120   29.9490   46.2350 C   0  0  0  0  0  0  0  0  0  0  0  0
   59.8780   29.7500   47.2430 C   0  0  0  0  0  0  0  0  0  0  0  0
   60.6019   28.9423   47.0600 H   0  0  0  0  0  0  0  0  0  0  0  0
   54.9720   30.3750   52.6120 C   0  0  0  0  0  0  0  0  0  0  0  0
   54.9950   29.4935   53.2696 H   0  0  0  0  0  0  0  0  0  0  0  0
   53.7240   30.6620   51.8640 C   0  0  0  0  0  0  0  0  0  0  0  0
   52.9430   31.8090   52.1100 C   0  0  0  0  0  0  0  0  0  0  0  0
   53.2499   32.5228   52.8886 H   0  0  0  0  0  0  0  0  0  0  0  0
   57.7860   29.8000   51.3190 C   0  0  0  0  0  0  0  0  0  0  0  0
   57.5885   28.9774   52.0221 H   0  0  0  0  0  0  0  0  0  0  0  0
   57.0760   31.0040   51.4420 C   0  0  0  0  0  0  0  0  0  0  0  0
   56.0760   31.1360   52.5280 C   0  0  0  0  0  0  0  0  0  0  0  0
   56.2465   31.8959   53.3049 H   0  0  0  0  0  0  0  0  0  0  0  0
   60.0330   30.4750   48.3620 C   0  0  0  0  0  0  0  0  0  0  0  0
   61.0062   30.9638   48.5168 H   0  0  0  0  0  0  0  0  0  0  0  0
   59.0010   30.6700   49.4040 C   0  0  0  0  0  0  0  0  0  0  0  0
   58.7420   29.6350   50.3120 C   0  0  0  0  0  0  0  0  0  0  0  0
   59.2940   28.6869   50.2323 H   0  0  0  0  0  0  0  0  0  0  0  0
   51.7800   32.0450   51.3700 C   0  0  0  0  0  0  0  0  0  0  0  0
   51.0150   33.1770   51.6200 O   0  0  0  0  0  0  0  0  0  0  0  0
   51.3880   31.1460   50.3740 C   0  0  0  0  0  0  0  0  0  0  0  0
   50.4687   31.3309   49.7990 H   0  0  0  0  0  0  0  0  0  0  0  0
   52.1610   30.0130   50.1070 C   0  0  0  0  0  0  0  0  0  0  0  0
   58.1410   32.0680   43.2280 O   0  0  0  0  0  0  0  0  0  0  0  0
   57.5350   31.9700   41.9430 C   0  0  0  0  0  0  0  0  0  0  0  0
   56.4552   31.7954   42.0592 H   0  0  0  0  0  0  0  0  0  0  0  0
   57.6975   32.9061   41.3886 H   0  0  0  0  0  0  0  0  0  0  0  0
   57.9843   31.1328   41.3886 H   0  0  0  0  0  0  0  0  0  0  0  0
   58.3310   31.8960   49.5540 C   0  0  0  0  0  0  0  0  0  0  0  0
   58.5612   32.7311   48.8761 H   0  0  0  0  0  0  0  0  0  0  0  0
   57.3740   32.0610   50.5590 C   0  0  0  0  0  0  0  0  0  0  0  0
   56.8498   33.0226   50.6615 H   0  0  0  0  0  0  0  0  0  0  0  0
   57.6560   29.1490   46.2240 C   0  0  0  0  0  0  0  0  0  0  0  0
   57.5229   28.3672   46.9863 H   0  0  0  0  0  0  0  0  0  0  0  0
   58.9950   30.9090   45.2280 C   0  0  0  0  0  0  0  0  0  0  0  0
   59.9156   31.5108   45.2085 H   0  0  0  0  0  0  0  0  0  0  0  0
  1  2  1  0
  2  3  1  0
  3  4  2  0
  4  5  1  0
  4  6  1  0
  6  7  1  0
  6  8  2  0
  8  9  1  0
  8 10  1  0
 10 11  1  0
 11 12  1  0
 11 13  2  0
 13 14  1  0
 13 15  1  0
 15 16  2  0
 16 17  1  0
 16 18  1  0
 18 19  1  0
 18 20  2  0
 20 21  1  0
 21 22  1  0
 21 23  2  0
 23 24  1  0
 23 25  1  0
 25 26  2  0
 26 27  1  0
 26 28  1  0
 28 29  1  0
 28 30  2  0
 30 31  1  0
 30 32  1  0
 32 33  1  0
 33 34  1  0
 34 35  1  0
 34 36  1  0
 34 37  1  0
 32 38  2  0
 38 39  1  0
 20 40  1  0
 40 41  1  0
 40 42  2  0
 42 43  1  0
 10 44  2  0
 44 45  1  0
 44  3  1  0
 42 15  1  0
 38 25  1  0
M  CHG  2   7  -1  29  -1
M  END
>  <UniqueID>  (13) 
11

>  <SMILES>  (13) 
COc1cc([O-])cc(/C=C\c2ccc(/C=C/c3cc([O-])cc(O)c3)cc2)c1

>  <Energy>  (13) 
61.03607092984401

>  <Genealogy>  (13) 
COc1cc([O-])cc(C=Cc2ccc(C=Cc3cc([O-])cc(O)c3)cc2)c1 (protonated)
COc1cc([O-])cc(/C=C\c2ccc(/C=C/c3cc([O-])cc(O)c3)cc2)c1 (cis-trans isomerization)
COc1cc([O-])cc(/C=C\c2ccc(/C=C/c3cc([O-])cc(O)c3)cc2)c1 (3D coordinates assigned)
COc1cc([O-])cc(/C=C\c2ccc(/C=C/c3cc([O-])cc(O)c3)cc2)c1 (optimized conformer: 61.03607092984401 kcal/mol)

>  <smiles>  (13) 
COc1cc(O)cc(C=Cc2ccc(C=Cc3cc(O)cc(O)c3)cc2)c1

>  <score_type>  (13) 
oracle

>  <origin>  (13) 
adg

>  <m_score__min__energy>  (13) 
-15.140000000000001

>  <m_primary>  (13) 
energy

$$$$
13:0
     RDKit          3D

 45 47  0  0  0  0  0  0  0  0999 V2000
   65.5970   32.8050   50.3380 C   0  0  0  0  0  0  0  0  0  0  0  0
   65.1080   33.0930   49.0320 O   0  0  0  0  0  0  0  0  0  0  0  0
   63.7500   33.1240   48.6830 C   0  0  0  0  0  0  0  0  0  0  0  0
   63.2510   32.4850   47.5310 C   0  0  0  0  0  0  0  0  0  0  0  0
   61.8890   32.5470   47.2260 C   0  0  0  0  0  0  0  0  0  0  0  0
   61.0110   33.2620   48.0490 C   0  0  0  0  0  0  0  0  0  0  0  0
   59.6170   33.2940   47.7200 N   0  0  0  0  0  0  0  0  0  0  0  0
   59.0030   34.1200   46.7210 C   0  0  0  0  0  0  0  0  0  0  0  0
   59.6590   35.0850   46.2470 O   0  0  0  0  0  0  0  0  0  0  0  0
   57.5770   33.9240   46.2780 C   0  0  0  0  0  0  0  0  0  0  0  0
   57.4710   33.5690   44.4880 S   0  0  0  0  0  0  0  0  0  0  0  0
   57.5140   31.7900   44.6880 C   0  0  0  0  0  0  0  0  0  0  0  0
   58.7020   31.1550   44.8520 N   0  0  0  0  0  0  0  0  0  0  0  0
   58.7610   29.8060   45.0040 C   0  0  0  0  0  0  0  0  0  0  0  0
   59.8760   29.2580   45.2040 O   0  0  0  0  0  0  0  0  0  0  0  0
   57.5750   29.0460   44.9710 C   0  0  0  0  0  0  0  0  0  0  0  0
   57.5640   27.6210   45.1420 N   0  0  0  0  0  0  0  0  0  0  0  0
   57.6430   26.9250   46.3940 C   0  0  0  0  0  0  0  0  0  0  0  0
   56.8090   26.0180   46.6610 O   0  0  0  0  0  0  0  0  0  0  0  0
   58.6700   27.3070   47.3920 C   0  0  0  0  0  0  0  0  0  0  0  0
   58.6220   28.5660   48.0210 C   0  0  0  0  0  0  0  0  0  0  0  0
   59.5900   28.9240   48.9640 C   0  0  0  0  0  0  0  0  0  0  0  0
   60.6140   28.0310   49.2910 C   0  0  0  0  0  0  0  0  0  0  0  0
   60.6720   26.7800   48.6750 C   0  0  0  0  0  0  0  0  0  0  0  0
   59.7070   26.4170   47.7310 C   0  0  0  0  0  0  0  0  0  0  0  0
   56.3620   29.7310   44.8400 C   0  0  0  0  0  0  0  0  0  0  0  0
   55.1600   29.0300   44.8460 O   0  0  0  0  0  0  0  0  0  0  0  0
   56.3560   31.0820   44.6950 N   0  0  0  0  0  0  0  0  0  0  0  0
   61.5010   33.8730   49.2120 C   0  0  0  0  0  0  0  0  0  0  0  0
   62.8630   33.8110   49.5190 C   0  0  0  0  0  0  0  0  0  0  0  0
   64.9033   33.2135   51.0876 H   0  0  0  0  0  0  0  0  0  0  0  0
   65.6769   31.7156   50.4676 H   0  0  0  0  0  0  0  0  0  0  0  0
   66.5885   33.2634   50.4676 H   0  0  0  0  0  0  0  0  0  0  0  0
   63.9363   31.9352   46.8691 H   0  0  0  0  0  0  0  0  0  0  0  0
   61.5044   32.0310   46.3340 H   0  0  0  0  0  0  0  0  0  0  0  0
   57.1427   33.0810   46.8354 H   0  0  0  0  0  0  0  0  0  0  0  0
   57.0239   34.8536   46.4777 H   0  0  0  0  0  0  0  0  0  0  0  0
   57.8175   29.2725   47.7687 H   0  0  0  0  0  0  0  0  0  0  0  0
   59.5456   29.9101   49.4494 H   0  0  0  0  0  0  0  0  0  0  0  0
   61.3743   28.3141   50.0339 H   0  0  0  0  0  0  0  0  0  0  0  0
   61.4788   26.0781   48.9329 H   0  0  0  0  0  0  0  0  0  0  0  0
   59.7582   25.4292   47.2497 H   0  0  0  0  0  0  0  0  0  0  0  0
   55.1480   28.0190   44.9050 H   0  0  0  0  0  0  0  0  0  0  0  0
   60.8110   34.4030   49.8851 H   0  0  0  0  0  0  0  0  0  0  0  0
   63.2408   34.3065   50.4255 H   0  0  0  0  0  0  0  0  0  0  0  0
  1  2  1  0
  2  3  1  0
  3  4  2  0
  4  5  1  0
  5  6  2  0
  6  7  1  0
  7  8  1  0
  8  9  2  0
  8 10  1  0
 10 11  1  0
 11 12  1  0
 12 13  2  0
 13 14  1  0
 14 15  2  0
 14 16  1  0
 16 17  1  0
 17 18  1  0
 18 19  2  0
 18 20  1  0
 20 21  2  0
 21 22  1  0
 22 23  2  0
 23 24  1  0
 24 25  2  0
 16 26  2  0
 26 27  1  0
 26 28  1  0
  6 29  1  0
 29 30  2  0
 30  3  1  0
 28 12  1  0
 25 20  1  0
  1 31  1  0
  1 32  1  0
  1 33  1  0
  4 34  1  0
  5 35  1  0
 10 36  1  0
 10 37  1  0
 21 38  1  0
 22 39  1  0
 23 40  1  0
 24 41  1  0
 25 42  1  0
 27 43  1  0
 29 44  1  0
 30 45  1  0
M  CHG  3   7  -1  17  -1  28  -1
M  END
>  <UniqueID>  (14) 
12

>  <SMILES>  (14) 
COc1ccc([N-]C(=O)CSc2nc(=O)c([N-]C(=O)c3ccccc3)c(O)[n-]2)cc1

>  <Energy>  (14) 
55.12636864765485

>  <Genealogy>  (14) 
COc1ccc([N-]C(=O)CSc2nc(=O)c([N-]C(=O)c3ccccc3)c(O)[n-]2)cc1 (protonated)
COc1ccc([N-]C(=O)CSc2nc(=O)c([N-]C(=O)c3ccccc3)c(O)[n-]2)cc1 (3D coordinates assigned)
COc1ccc([N-]C(=O)CSc2nc(=O)c([N-]C(=O)c3ccccc3)c(O)[n-]2)cc1 (optimized conformer: 55.12636864765485 kcal/mol)

>  <smiles>  (14) 
COc1ccc(NC(=O)CSc2nc(=O)c(NC(=O)c3ccccc3)c(O)[nH]2)cc1

>  <score_type>  (14) 
oracle

>  <origin>  (14) 
adg

>  <m_score__min__energy>  (14) 
-14.65

>  <m_primary>  (14) 
energy

$$$$
14:0
     RDKit          3D

 46 49  0  0  0  0  0  0  0  0999 V2000
   55.5250   27.1200   45.6630 O   0  0  0  0  0  0  0  0  0  0  0  0
   56.3110   28.0180   45.2610 C   0  0  0  0  0  0  0  0  0  0  0  0
   55.7720   29.2810   44.8580 N   0  0  0  0  0  0  0  0  0  0  0  0
   56.5010   30.3500   44.2390 C   0  0  0  0  0  0  0  0  0  0  0  0
   56.6460   30.4390   42.8440 C   0  0  0  0  0  0  0  0  0  0  0  0
   57.3480   31.5080   42.2770 C   0  0  0  0  0  0  0  0  0  0  0  0
   57.8930   32.5000   43.0930 C   0  0  0  0  0  0  0  0  0  0  0  0
   57.7280   32.4390   44.4830 C   0  0  0  0  0  0  0  0  0  0  0  0
   58.4190   33.6950   45.5040 S   0  0  0  0  0  0  0  0  0  0  0  0
   58.1860   35.0340   44.8630 O   0  0  0  0  0  0  0  0  0  0  0  0
   57.7610   33.6690   46.8560 O   0  0  0  0  0  0  0  0  0  0  0  0
   60.1190   33.4040   45.6720 N   0  0  0  0  0  0  0  0  0  0  0  0
   60.8880   33.6590   46.8550 C   0  0  0  0  0  0  0  0  0  0  0  0
   62.2840   33.5690   46.7800 C   0  0  0  0  0  0  0  0  0  0  0  0
   63.0710   33.8120   47.9100 C   0  0  0  0  0  0  0  0  0  0  0  0
   62.4680   34.1460   49.1250 C   0  0  0  0  0  0  0  0  0  0  0  0
   63.2500   34.3880   50.2480 O   0  0  0  0  0  0  0  0  0  0  0  0
   61.0750   34.2390   49.2100 C   0  0  0  0  0  0  0  0  0  0  0  0
   60.2860   33.9960   48.0810 C   0  0  0  0  0  0  0  0  0  0  0  0
   57.0280   31.3640   45.0510 C   0  0  0  0  0  0  0  0  0  0  0  0
   57.7300   27.8180   45.3170 N   0  0  0  0  0  0  0  0  0  0  0  0
   58.6680   28.5700   46.1000 C   0  0  0  0  0  0  0  0  0  0  0  0
   59.7910   29.1090   45.4600 C   0  0  0  0  0  0  0  0  0  0  0  0
   60.7430   29.8330   46.1820 C   0  0  0  0  0  0  0  0  0  0  0  0
   60.5910   30.0150   47.5640 C   0  0  0  0  0  0  0  0  0  0  0  0
   61.5410   30.7420   48.3000 C   0  0  0  0  0  0  0  0  0  0  0  0
   61.3840   30.9050   49.6790 C   0  0  0  0  0  0  0  0  0  0  0  0
   60.2830   30.3460   50.3330 C   0  0  0  0  0  0  0  0  0  0  0  0
   59.3300   29.6200   49.6120 C   0  0  0  0  0  0  0  0  0  0  0  0
   59.4740   29.4510   48.2250 C   0  0  0  0  0  0  0  0  0  0  0  0
   58.5230   28.7260   47.4900 C   0  0  0  0  0  0  0  0  0  0  0  0
   56.2064   29.6662   42.1963 H   0  0  0  0  0  0  0  0  0  0  0  0
   57.4706   31.5667   41.1854 H   0  0  0  0  0  0  0  0  0  0  0  0
   58.4540   33.3326   42.6435 H   0  0  0  0  0  0  0  0  0  0  0  0
   62.7641   33.3055   45.8260 H   0  0  0  0  0  0  0  0  0  0  0  0
   64.1665   33.7400   47.8421 H   0  0  0  0  0  0  0  0  0  0  0  0
   60.5994   34.5036   50.1659 H   0  0  0  0  0  0  0  0  0  0  0  0
   59.1907   34.0687   48.1520 H   0  0  0  0  0  0  0  0  0  0  0  0
   56.8917   31.3164   46.1415 H   0  0  0  0  0  0  0  0  0  0  0  0
   59.9248   28.9609   44.3783 H   0  0  0  0  0  0  0  0  0  0  0  0
   61.6142   30.2615   45.6649 H   0  0  0  0  0  0  0  0  0  0  0  0
   62.4099   31.1837   47.7902 H   0  0  0  0  0  0  0  0  0  0  0  0
   62.1300   31.4755   50.2518 H   0  0  0  0  0  0  0  0  0  0  0  0
   60.1656   30.4775   51.4188 H   0  0  0  0  0  0  0  0  0  0  0  0
   58.4660   29.1804   50.1319 H   0  0  0  0  0  0  0  0  0  0  0  0
   57.6600   28.2776   48.0039 H   0  0  0  0  0  0  0  0  0  0  0  0
  1  2  2  0
  2  3  1  0
  3  4  1  0
  4  5  2  0
  5  6  1  0
  6  7  2  0
  7  8  1  0
  8  9  1  0
  9 10  2  0
  9 11  2  0
  9 12  1  0
 12 13  1  0
 13 14  2  0
 14 15  1  0
 15 16  2  0
 16 17  1  0
 16 18  1  0
 18 19  2  0
  8 20  2  0
  2 21  1  0
 21 22  1  0
 22 23  2  0
 23 24  1  0
 24 25  2  0
 25 26  1  0
 26 27  2  0
 27 28  1  0
 28 29  2  0
 29 30  1  0
 30 31  2  0
 20  4  1  0
 31 22  1  0
 19 13  1  0
 30 25  1  0
  5 32  1  0
  6 33  1  0
  7 34  1  0
 14 35  1  0
 15 36  1  0
 18 37  1  0
 19 38  1  0
 20 39  1  0
 23 40  1  0
 24 41  1  0
 26 42  1  0
 27 43  1  0
 28 44  1  0
 29 45  1  0
 31 46  1  0
M  CHG  4   3  -1  12  -1  17  -1  21  -1
M  END
>  <UniqueID>  (15) 
13

>  <SMILES>  (15) 
O=C([N-]c1cccc(S(=O)(=O)[N-]c2ccc([O-])cc2)c1)[N-]c1ccc2ccccc2c1

>  <Energy>  (15) 
64.96544266729408

>  <Genealogy>  (15) 
O=C([N-]c1cccc(S(=O)(=O)[N-]c2ccc([O-])cc2)c1)[N-]c1ccc2ccccc2c1 (protonated)
O=C([N-]c1cccc(S(=O)(=O)[N-]c2ccc([O-])cc2)c1)[N-]c1ccc2ccccc2c1 (3D coordinates assigned)
O=C([N-]c1cccc(S(=O)(=O)[N-]c2ccc([O-])cc2)c1)[N-]c1ccc2ccccc2c1 (optimized conformer: 64.96544266729408 kcal/mol)

>  <smiles>  (15) 
O=C(Nc1cccc(S(=O)(=O)Nc2ccc(O)cc2)c1)Nc1ccc2ccccc2c1

>  <score_type>  (15) 
oracle

>  <origin>  (15) 
adg

>  <m_score__min__energy>  (15) 
-15.81

>  <m_primary>  (15) 
energy

$$$$
15:0
     RDKit          3D

 41 43  0  0  0  0  0  0  0  0999 V2000
   54.9590   26.2990   45.9920 N   0  0  0  0  0  0  0  0  0  0  0  0
   56.4870   25.5980   46.3940 S   0  0  0  0  0  0  0  0  0  0  0  0
   56.9060   24.6470   45.3070 O   0  0  0  0  0  0  0  0  0  0  0  0
   56.3660   24.8340   47.6830 O   0  0  0  0  0  0  0  0  0  0  0  0
   57.6870   26.8730   46.5630 C   0  0  0  0  0  0  0  0  0  0  0  0
   58.8300   26.6650   47.3380 C   0  0  0  0  0  0  0  0  0  0  0  0
   59.7710   27.6840   47.4850 C   0  0  0  0  0  0  0  0  0  0  0  0
   59.5930   28.9230   46.8550 C   0  0  0  0  0  0  0  0  0  0  0  0
   60.8700   30.1760   47.0770 S   0  0  0  0  0  0  0  0  0  0  0  0
   60.1170   30.8880   48.5530 C   0  0  0  0  0  0  0  0  0  0  0  0
   59.0910   30.1870   49.2050 C   0  0  0  0  0  0  0  0  0  0  0  0
   58.4830   30.7160   50.2970 N   0  0  0  0  0  0  0  0  0  0  0  0
   58.8490   31.9200   50.8040 C   0  0  0  0  0  0  0  0  0  0  0  0
   59.8840   32.6420   50.2120 C   0  0  0  0  0  0  0  0  0  0  0  0
   60.5410   32.1260   49.0850 C   0  0  0  0  0  0  0  0  0  0  0  0
   61.9370   32.9990   48.4300 S   0  0  0  0  0  0  0  0  0  0  0  0
   61.8270   33.0620   46.7050 N   0  0  0  0  0  0  0  0  0  0  0  0
   63.2090   32.2900   48.8030 O   0  0  0  0  0  0  0  0  0  0  0  0
   61.9810   34.3930   48.9850 O   0  0  0  0  0  0  0  0  0  0  0  0
   58.4210   29.1510   46.0890 C   0  0  0  0  0  0  0  0  0  0  0  0
   57.9980   30.7130   45.3570 S   0  0  0  0  0  0  0  0  0  0  0  0
   56.5790   30.6370   44.8660 O   0  0  0  0  0  0  0  0  0  0  0  0
   58.8740   31.0870   44.1970 O   0  0  0  0  0  0  0  0  0  0  0  0
   58.1050   31.9490   46.5670 N   0  0  0  0  0  0  0  0  0  0  0  0
   58.6420   33.1080   46.3480 C   0  0  0  0  0  0  0  0  0  0  0  0
   59.1530   33.4900   45.1570 N   0  0  0  0  0  0  0  0  0  0  0  0
   59.6560   34.7530   45.2170 C   0  0  0  0  0  0  0  0  0  0  0  0
   59.5450   35.3740   46.4570 C   0  0  0  0  0  0  0  0  0  0  0  0
   58.7900   34.3040   47.5150 S   0  0  0  0  0  0  0  0  0  0  0  0
   57.4820   28.1150   45.9540 C   0  0  0  0  0  0  0  0  0  0  0  0
   55.1460   27.0580   45.2980 H   0  0  0  0  0  0  0  0  0  0  0  0
   58.9885   25.6957   47.8334 H   0  0  0  0  0  0  0  0  0  0  0  0
   60.6644   27.5128   48.1035 H   0  0  0  0  0  0  0  0  0  0  0  0
   58.7774   29.2022   48.8285 H   0  0  0  0  0  0  0  0  0  0  0  0
   58.3283   32.3269   51.6834 H   0  0  0  0  0  0  0  0  0  0  0  0
   60.1851   33.6148   50.6279 H   0  0  0  0  0  0  0  0  0  0  0  0
   60.8210   32.9270   46.4580 H   0  0  0  0  0  0  0  0  0  0  0  0
   62.3440   32.2340   46.3350 H   0  0  0  0  0  0  0  0  0  0  0  0
   60.1166   35.2468   44.3487 H   0  0  0  0  0  0  0  0  0  0  0  0
   59.8908   36.3887   46.7035 H   0  0  0  0  0  0  0  0  0  0  0  0
   56.5715   28.2833   45.3601 H   0  0  0  0  0  0  0  0  0  0  0  0
  1  2  1  0
  2  3  2  0
  2  4  2  0
  2  5  1  0
  5  6  2  0
  6  7  1  0
  7  8  2  0
  8  9  1  0
  9 10  1  0
 10 11  2  0
 11 12  1  0
 12 13  2  0
 13 14  1  0
 14 15  2  0
 15 16  1  0
 16 17  1  0
 16 18  2  0
 16 19  2  0
  8 20  1  0
 20 21  1  0
 21 22  2  0
 21 23  2  0
 21 24  1  0
 24 25  2  3
 25 26  1  0
 26 27  1  0
 27 28  2  0
 28 29  1  0
 20 30  2  0
 30  5  1  0
 15 10  1  0
 29 25  1  0
  1 31  1  0
  6 32  1  0
  7 33  1  0
 11 34  1  0
 13 35  1  0
 14 36  1  0
 17 37  1  0
 17 38  1  0
 27 39  1  0
 28 40  1  0
 30 41  1  0
M  CHG  2   1  -1  26  -1
M  END
>  <UniqueID>  (16) 
14

>  <SMILES>  (16) 
[NH-]S(=O)(=O)c1ccc(Sc2cnccc2S(N)(=O)=O)c(S(=O)(=O)N=c2[n-]ccs2)c1

>  <Energy>  (16) 
78.34006611384007

>  <Genealogy>  (16) 
[NH-]S(=O)(=O)c1ccc(Sc2cnccc2S(N)(=O)=O)c(S(=O)(=O)N=c2[n-]ccs2)c1 (protonated)
[NH-]S(=O)(=O)c1ccc(Sc2cnccc2S(N)(=O)=O)c(S(=O)(=O)N=c2[n-]ccs2)c1 (3D coordinates assigned)
[NH-]S(=O)(=O)c1ccc(Sc2cnccc2S(N)(=O)=O)c(S(=O)(=O)N=c2[n-]ccs2)c1 (optimized conformer: 78.34006611384007 kcal/mol)

>  <smiles>  (16) 
NS(=O)(=O)c1ccc(Sc2cnccc2S(N)(=O)=O)c(S(=O)(=O)N=c2[nH]ccs2)c1

>  <score_type>  (16) 
oracle

>  <origin>  (16) 
adg

>  <m_score__min__energy>  (16) 
-13.75

>  <m_primary>  (16) 
energy

$$$$
16:0
     RDKit          3D

 57 59  0  0  0  0  0  0  0  0999 V2000
   53.8380   24.9040   45.6190 C   0  0  0  0  0  0  0  0  0  0  0  0
   54.6730   26.0060   45.9810 O   0  0  0  0  0  0  0  0  0  0  0  0
   56.0840   25.9670   45.9780 C   0  0  0  0  0  0  0  0  0  0  0  0
   56.8090   24.8070   46.3490 C   0  0  0  0  0  0  0  0  0  0  0  0
   58.2110   24.8110   46.3410 C   0  0  0  0  0  0  0  0  0  0  0  0
   58.9060   25.9520   45.9380 C   0  0  0  0  0  0  0  0  0  0  0  0
   58.1990   27.1040   45.5620 C   0  0  0  0  0  0  0  0  0  0  0  0
   56.7860   27.1270   45.6020 C   0  0  0  0  0  0  0  0  0  0  0  0
   56.0460   28.3120   45.2820 N   0  0  0  0  0  0  0  0  0  0  0  0
   56.7500   29.8010   44.7370 S   0  0  0  0  0  0  0  0  0  0  0  0
   57.5430   29.5460   43.4850 O   0  0  0  0  0  0  0  0  0  0  0  0
   55.6530   30.7860   44.4350 O   0  0  0  0  0  0  0  0  0  0  0  0
   57.7760   30.4740   46.0050 C   0  0  0  0  0  0  0  0  0  0  0  0
   58.0950   31.8350   45.9990 C   0  0  0  0  0  0  0  0  0  0  0  0
   58.8590   32.3860   47.0300 C   0  0  0  0  0  0  0  0  0  0  0  0
   59.3180   31.5890   48.0880 C   0  0  0  0  0  0  0  0  0  0  0  0
   60.1010   32.2050   49.1950 C   0  0  0  0  0  0  0  0  0  0  0  0
   61.2870   31.8320   49.4050 O   0  0  0  0  0  0  0  0  0  0  0  0
   59.5180   33.2630   50.0950 C   0  0  0  0  0  0  0  0  0  0  0  0
   58.4550   32.6960   50.9530 N   0  0  0  0  0  0  0  0  0  0  0  0
   58.3340   33.4490   52.2140 C   0  0  0  0  0  0  0  0  0  0  0  0
   58.5870   31.2340   51.1790 C   0  0  0  0  0  0  0  0  0  0  0  0
   57.3010   30.5690   51.5960 C   0  0  0  0  0  0  0  0  0  0  0  0
   57.3230   29.3580   51.9640 O   0  0  0  0  0  0  0  0  0  0  0  0
   56.0840   31.3240   51.6570 N   0  0  0  0  0  0  0  0  0  0  0  0
   54.8370   30.7480   52.0650 C   0  0  0  0  0  0  0  0  0  0  0  0
   53.7300   30.8460   51.2150 C   0  0  0  0  0  0  0  0  0  0  0  0
   52.4990   30.2770   51.5780 C   0  0  0  0  0  0  0  0  0  0  0  0
   52.3760   29.5910   52.7850 C   0  0  0  0  0  0  0  0  0  0  0  0
   53.4920   29.4660   53.6340 C   0  0  0  0  0  0  0  0  0  0  0  0
   54.7160   30.0430   53.2770 C   0  0  0  0  0  0  0  0  0  0  0  0
   55.7870   29.8770   54.0920 F   0  0  0  0  0  0  0  0  0  0  0  0
   59.0200   30.2100   48.0720 C   0  0  0  0  0  0  0  0  0  0  0  0
   58.2590   29.6590   47.0380 C   0  0  0  0  0  0  0  0  0  0  0  0
   53.4651   24.4119   46.5294 H   0  0  0  0  0  0  0  0  0  0  0  0
   52.9872   25.2684   45.0245 H   0  0  0  0  0  0  0  0  0  0  0  0
   54.4190   24.1835   45.0245 H   0  0  0  0  0  0  0  0  0  0  0  0
   56.2675   23.8966   46.6455 H   0  0  0  0  0  0  0  0  0  0  0  0
   58.7642   23.9129   46.6530 H   0  0  0  0  0  0  0  0  0  0  0  0
   60.0058   25.9482   45.9152 H   0  0  0  0  0  0  0  0  0  0  0  0
   58.7493   27.9978   45.2330 H   0  0  0  0  0  0  0  0  0  0  0  0
   57.7422   32.4757   45.1774 H   0  0  0  0  0  0  0  0  0  0  0  0
   59.1036   33.4583   47.0117 H   0  0  0  0  0  0  0  0  0  0  0  0
   60.3151   33.6734   50.7323 H   0  0  0  0  0  0  0  0  0  0  0  0
   59.0809   34.0556   49.4699 H   0  0  0  0  0  0  0  0  0  0  0  0
   58.4447   32.7602   53.0645 H   0  0  0  0  0  0  0  0  0  0  0  0
   59.1203   34.2169   52.2594 H   0  0  0  0  0  0  0  0  0  0  0  0
   57.3467   33.9319   52.2594 H   0  0  0  0  0  0  0  0  0  0  0  0
   58.9325   30.7676   50.2446 H   0  0  0  0  0  0  0  0  0  0  0  0
   59.3021   31.0986   52.0038 H   0  0  0  0  0  0  0  0  0  0  0  0
   56.1390   32.3570   51.5380 H   0  0  0  0  0  0  0  0  0  0  0  0
   53.8250   31.3733   50.2543 H   0  0  0  0  0  0  0  0  0  0  0  0
   51.6309   30.3727   50.9093 H   0  0  0  0  0  0  0  0  0  0  0  0
   51.4108   29.1490   53.0731 H   0  0  0  0  0  0  0  0  0  0  0  0
   53.4017   28.9132   54.5807 H   0  0  0  0  0  0  0  0  0  0  0  0
   59.3902   29.5629   48.8809 H   0  0  0  0  0  0  0  0  0  0  0  0
   58.0380   28.5814   47.0346 H   0  0  0  0  0  0  0  0  0  0  0  0
  1  2  1  0
  2  3  1  0
  3  4  2  0
  4  5  1  0
  5  6  2  0
  6  7  1  0
  7  8  2  0
  8  9  1  0
  9 10  1  0
 10 11  2  0
 10 12  2  0
 10 13  1  0
 13 14  2  0
 14 15  1  0
 15 16  2  0
 16 17  1  0
 17 18  2  0
 17 19  1  0
 19 20  1  0
 20 21  1  0
 20 22  1  0
 22 23  1  0
 23 24  2  0
 23 25  1  0
 25 26  1  0
 26 27  2  0
 27 28  1  0
 28 29  2  0
 29 30  1  0
 30 31  2  0
 31 32  1  0
 16 33  1  0
 33 34  2  0
  8  3  1  0
 34 13  1  0
 31 26  1  0
  1 35  1  0
  1 36  1  0
  1 37  1  0
  4 38  1  0
  5 39  1  0
  6 40  1  0
  7 41  1  0
 14 42  1  0
 15 43  1  0
 19 44  1  0
 19 45  1  0
 21 46  1  0
 21 47  1  0
 21 48  1  0
 22 49  1  0
 22 50  1  0
 25 51  1  0
 27 52  1  0
 28 53  1  0
 29 54  1  0
 30 55  1  0
 33 56  1  0
 34 57  1  0
M  CHG  1   9  -1
M  END
>  <UniqueID>  (17) 
15

>  <SMILES>  (17) 
COc1ccccc1[N-]S(=O)(=O)c1ccc(C(=O)CN(C)CC(=O)Nc2ccccc2F)cc1

>  <Energy>  (17) 
71.41351108563518

>  <Genealogy>  (17) 
COc1ccccc1[N-]S(=O)(=O)c1ccc(C(=O)CN(C)CC(=O)Nc2ccccc2F)cc1 (protonated)
COc1ccccc1[N-]S(=O)(=O)c1ccc(C(=O)CN(C)CC(=O)Nc2ccccc2F)cc1 (3D coordinates assigned)
COc1ccccc1[N-]S(=O)(=O)c1ccc(C(=O)CN(C)CC(=O)Nc2ccccc2F)cc1 (optimized conformer: 71.41351108563518 kcal/mol)

>  <smiles>  (17) 
COc1ccccc1NS(=O)(=O)c1ccc(C(=O)CN(C)CC(=O)Nc2ccccc2F)cc1

>  <score_type>  (17) 
oracle

>  <origin>  (17) 
adg

>  <m_score__min__energy>  (17) 
-11.41

>  <m_primary>  (17) 
energy

$$$$
17:0
     RDKit          3D

 29 31  0  0  1  0  0  0  0  0999 V2000
   56.0940   31.2050   44.8380 O   0  0  0  0  0  0  0  0  0  0  0  0
   57.1120   30.4880   44.7370 C   0  0  0  0  0  0  0  0  0  0  0  0
   56.8840   29.1250   44.3270 N   0  0  0  0  0  0  0  0  0  0  0  0
   57.1470   28.1440   45.1410 C   0  0  0  0  0  0  0  0  0  0  0  0
   56.1480   27.3560   45.6190 N   0  0  0  0  0  0  0  0  0  0  0  0
   56.3880   26.3330   46.4640 C   0  0  0  0  0  0  0  0  0  0  0  0
   57.6450   26.0630   46.8630 N   0  0  0  0  0  0  0  0  0  0  0  0
   58.6850   26.8160   46.4190 C   0  0  0  0  0  0  0  0  0  0  0  0
   60.0100   26.7690   46.6500 N   0  0  0  0  0  0  0  0  0  0  0  0
   60.6020   27.7710   45.9430 C   0  0  0  0  0  0  0  0  0  0  0  0
   59.6290   28.4470   45.2650 N   0  0  0  0  0  0  0  0  0  0  0  0
   58.4410   27.8780   45.5420 C   0  0  0  0  0  0  0  0  0  0  0  0
   58.4120   30.9640   45.0020 N   0  0  0  0  0  0  0  0  0  0  0  0
   58.7670   32.2540   45.4040 C   0  0  0  0  0  0  0  0  0  0  0  0
   58.2400   33.3220   44.6770 C   0  0  0  0  0  0  0  0  0  0  0  0
   58.5430   34.6220   45.0130 C   0  0  0  0  0  0  0  0  0  0  0  0
   59.3730   34.9440   46.0710 C   0  0  0  0  0  0  0  0  0  0  0  0
   59.8960   33.9020   46.7910 C   0  0  0  0  0  0  0  0  0  0  0  0
   59.5850   32.5880   46.4460 C   0  0  0  0  0  0  0  0  0  0  0  0
   55.1500   27.5120   45.3490 H   0  0  0  0  0  0  0  0  0  0  0  0
   55.5532   25.7165   46.8288 H   0  0  0  0  0  0  0  0  0  0  0  0
   60.4850   26.0620   47.2800 H   0  0  0  0  0  0  0  0  0  0  0  0
   61.6784   27.9967   45.9219 H   0  0  0  0  0  0  0  0  0  0  0  0
   59.1840   30.2400   44.8740 H   0  0  0  0  0  0  0  0  0  0  0  0
   57.5740   33.1226   43.8246 H   0  0  0  0  0  0  0  0  0  0  0  0
   58.1076   35.4370   44.4162 H   0  0  0  0  0  0  0  0  0  0  0  0
   59.6031   35.9896   46.3233 H   0  0  0  0  0  0  0  0  0  0  0  0
   60.5624   34.1030   47.6427 H   0  0  0  0  0  0  0  0  0  0  0  0
   60.0219   31.7756   47.0453 H   0  0  0  0  0  0  0  0  0  0  0  0
  1  2  2  0
  2  3  1  0
  3  4  2  0
  4  5  1  0
  5  6  1  0
  6  7  2  0
  7  8  1  0
  8  9  1  0
  9 10  1  0
 10 11  2  0
 11 12  1  0
  2 13  1  0
 13 14  1  0
 14 15  2  0
 15 16  1  0
 16 17  2  0
 17 18  1  0
 18 19  2  0
 12  4  1  0
 19 14  1  0
 12  8  2  0
  5 20  1  0
  6 21  1  0
  9 22  1  0
 10 23  1  0
 13 24  1  0
 15 25  1  0
 16 26  1  0
 17 27  1  0
 18 28  1  0
 19 29  1  0
M  END
>  <smiles>  (18) 
O=C(N=c1[nH]cnc2[nH]cnc12)Nc1ccccc1

>  <score_type>  (18) 
oracle

>  <origin>  (18) 
adg

>  <m_score__min__energy>  (18) 
-6.4000000000000004

>  <m_primary>  (18) 
energy

$$$$
18:0
     RDKit          3D

 43 45  0  0  0  0  0  0  0  0999 V2000
   54.8010   26.3390   45.9190 O   0  0  0  0  0  0  0  0  0  0  0  0
   55.8430   25.6520   46.1030 C   0  0  0  0  0  0  0  0  0  0  0  0
   57.0540   25.9050   45.2640 C   0  0  0  0  0  0  0  0  0  0  0  0
   57.4910   27.3250   45.4200 C   0  0  0  0  0  0  0  0  0  0  0  0
   58.5080   27.7730   46.2560 C   0  0  0  0  0  0  0  0  0  0  0  0
   58.7490   29.1460   46.1430 C   0  0  0  0  0  0  0  0  0  0  0  0
   57.9300   29.7660   45.2080 C   0  0  0  0  0  0  0  0  0  0  0  0
   57.9580   31.4730   44.7950 S   0  0  0  0  0  0  0  0  0  0  0  0
   58.1190   31.6090   43.3060 O   0  0  0  0  0  0  0  0  0  0  0  0
   56.6350   32.0760   45.1770 O   0  0  0  0  0  0  0  0  0  0  0  0
   59.2390   32.3470   45.6120 N   0  0  0  0  0  0  0  0  0  0  0  0
   59.3110   32.0360   47.0510 C   0  0  0  0  0  0  0  0  0  0  0  0
   58.2640   32.8100   47.8860 C   0  0  0  0  0  0  0  0  0  0  0  0
   57.6220   33.8420   47.1640 O   0  0  0  0  0  0  0  0  0  0  0  0
   58.5790   34.6130   46.4750 C   0  0  0  0  0  0  0  0  0  0  0  0
   59.2050   33.7980   45.3310 C   0  0  0  0  0  0  0  0  0  0  0  0
   56.9000   28.6240   44.5290 S   0  0  0  0  0  0  0  0  0  0  0  0
   55.8870   24.6590   47.1320 N   0  0  0  0  0  0  0  0  0  0  0  0
   55.5910   23.2490   46.9100 C   0  0  0  0  0  0  0  0  0  0  0  0
   56.4420   22.7090   45.7980 C   0  0  0  0  0  0  0  0  0  0  0  0
   55.9280   22.5630   44.5010 C   0  0  0  0  0  0  0  0  0  0  0  0
   56.7430   22.0400   43.4950 C   0  0  0  0  0  0  0  0  0  0  0  0
   58.0580   21.6740   43.7880 C   0  0  0  0  0  0  0  0  0  0  0  0
   58.5360   21.8290   45.0900 C   0  0  0  0  0  0  0  0  0  0  0  0
   57.7240   22.3310   46.0590 N   0  0  0  0  0  0  0  0  0  0  0  0
   57.8662   25.2358   45.5842 H   0  0  0  0  0  0  0  0  0  0  0  0
   56.8104   25.7142   44.2084 H   0  0  0  0  0  0  0  0  0  0  0  0
   59.0664   27.1141   46.9372 H   0  0  0  0  0  0  0  0  0  0  0  0
   59.5084   29.6796   46.7334 H   0  0  0  0  0  0  0  0  0  0  0  0
   59.1406   30.9577   47.1862 H   0  0  0  0  0  0  0  0  0  0  0  0
   60.3069   32.3400   47.4055 H   0  0  0  0  0  0  0  0  0  0  0  0
   57.4995   32.0990   48.2324 H   0  0  0  0  0  0  0  0  0  0  0  0
   58.8004   33.2833   48.7216 H   0  0  0  0  0  0  0  0  0  0  0  0
   58.0917   35.5068   46.0582 H   0  0  0  0  0  0  0  0  0  0  0  0
   59.3724   34.9066   47.1781 H   0  0  0  0  0  0  0  0  0  0  0  0
   58.6158   33.9651   44.4173 H   0  0  0  0  0  0  0  0  0  0  0  0
   60.2450   34.1367   45.2141 H   0  0  0  0  0  0  0  0  0  0  0  0
   55.7970   22.6851   47.8317 H   0  0  0  0  0  0  0  0  0  0  0  0
   54.5313   23.1441   46.6341 H   0  0  0  0  0  0  0  0  0  0  0  0
   54.8919   22.8579   44.2784 H   0  0  0  0  0  0  0  0  0  0  0  0
   56.3502   21.9168   42.4749 H   0  0  0  0  0  0  0  0  0  0  0  0
   58.7104   21.2678   43.0010 H   0  0  0  0  0  0  0  0  0  0  0  0
   59.5705   21.5449   45.3329 H   0  0  0  0  0  0  0  0  0  0  0  0
  1  2  2  0
  2  3  1  0
  3  4  1  0
  4  5  2  0
  5  6  1  0
  6  7  2  0
  7  8  1  0
  8  9  2  0
  8 10  2  0
  8 11  1  0
 11 12  1  0
 12 13  1  0
 13 14  1  0
 14 15  1  0
 15 16  1  0
  7 17  1  0
  2 18  1  0
 18 19  1  0
 19 20  1  0
 20 21  2  0
 21 22  1  0
 22 23  2  0
 23 24  1  0
 24 25  2  0
 17  4  1  0
 25 20  1  0
 16 11  1  0
  3 26  1  0
  3 27  1  0
  5 28  1  0
  6 29  1  0
 12 30  1  0
 12 31  1  0
 13 32  1  0
 13 33  1  0
 15 34  1  0
 15 35  1  0
 16 36  1  0
 16 37  1  0
 19 38  1  0
 19 39  1  0
 21 40  1  0
 22 41  1  0
 23 42  1  0
 24 43  1  0
M  CHG  1  18  -1
M  END
>  <UniqueID>  (19) 
16

>  <SMILES>  (19) 
O=C(Cc1ccc(S(=O)(=O)N2CCOCC2)s1)[N-]Cc1ccccn1

>  <Energy>  (19) 
72.9808983870373

>  <Genealogy>  (19) 
O=C(Cc1ccc(S(=O)(=O)N2CCOCC2)s1)[N-]Cc1ccccn1 (protonated)
O=C(Cc1ccc(S(=O)(=O)N2CCOCC2)s1)[N-]Cc1ccccn1 (3D coordinates assigned)
O=C(Cc1ccc(S(=O)(=O)N2CCOCC2)s1)[N-]Cc1ccccn1 (nonaromatic ring conformer: 72.9808983870373 kcal/mol)

>  <smiles>  (19) 
O=C(Cc1ccc(S(=O)(=O)N2CCOCC2)s1)NCc1ccccn1

>  <score_type>  (19) 
oracle

>  <origin>  (19) 
adg

>  <m_score__min__energy>  (19) 
-10.880000000000001

>  <m_primary>  (19) 
energy

$$$$
19:0
     RDKit          3D

 45 47  0  0  0  0  0  0  0  0999 V2000
   56.5140   30.4090   43.8370 C   0  0  0  0  0  0  0  0  0  0  0  0
   56.7670   31.0430   45.0870 O   0  0  0  0  0  0  0  0  0  0  0  0
   57.5710   32.1790   45.2670 C   0  0  0  0  0  0  0  0  0  0  0  0
   57.0830   33.4660   44.9600 C   0  0  0  0  0  0  0  0  0  0  0  0
   57.8860   34.5920   45.1310 C   0  0  0  0  0  0  0  0  0  0  0  0
   59.1780   34.4600   45.6290 C   0  0  0  0  0  0  0  0  0  0  0  0
   59.6770   33.2030   45.9760 C   0  0  0  0  0  0  0  0  0  0  0  0
   61.0150   33.1200   46.4830 N   0  0  0  0  0  0  0  0  0  0  0  0
   61.4210   33.6220   47.7630 C   0  0  0  0  0  0  0  0  0  0  0  0
   62.6460   33.6920   48.0590 O   0  0  0  0  0  0  0  0  0  0  0  0
   60.3890   34.1060   48.7290 C   0  0  0  0  0  0  0  0  0  0  0  0
   59.7440   32.9230   49.4190 C   0  0  0  0  0  0  0  0  0  0  0  0
   59.6110   31.7590   48.7200 N   0  0  0  0  0  0  0  0  0  0  0  0
   59.0210   30.6730   49.2330 N   0  0  0  0  0  0  0  0  0  0  0  0
   58.9190   29.4540   48.4200 C   0  0  0  0  0  0  0  0  0  0  0  0
   58.4900   30.6930   50.4930 C   0  0  0  0  0  0  0  0  0  0  0  0
   57.9220   29.6620   50.9570 O   0  0  0  0  0  0  0  0  0  0  0  0
   58.5760   31.8600   51.2700 C   0  0  0  0  0  0  0  0  0  0  0  0
   58.0400   31.9090   52.5720 C   0  0  0  0  0  0  0  0  0  0  0  0
   58.1280   33.0770   53.3290 C   0  0  0  0  0  0  0  0  0  0  0  0
   58.7430   34.2080   52.7970 C   0  0  0  0  0  0  0  0  0  0  0  0
   59.2810   34.1770   51.5090 C   0  0  0  0  0  0  0  0  0  0  0  0
   59.2100   33.0020   50.7280 C   0  0  0  0  0  0  0  0  0  0  0  0
   58.8970   32.0420   45.7580 C   0  0  0  0  0  0  0  0  0  0  0  0
   59.5030   30.7960   46.0150 O   0  0  0  0  0  0  0  0  0  0  0  0
   59.6410   29.7080   45.1090 C   0  0  0  0  0  0  0  0  0  0  0  0
   56.1115   29.4004   44.0123 H   0  0  0  0  0  0  0  0  0  0  0  0
   55.7834   31.0014   43.2667 H   0  0  0  0  0  0  0  0  0  0  0  0
   57.4517   30.3356   43.2667 H   0  0  0  0  0  0  0  0  0  0  0  0
   56.0568   33.5824   44.5813 H   0  0  0  0  0  0  0  0  0  0  0  0
   57.4971   35.5877   44.8715 H   0  0  0  0  0  0  0  0  0  0  0  0
   59.8107   35.3516   45.7502 H   0  0  0  0  0  0  0  0  0  0  0  0
   60.8657   34.7526   49.4804 H   0  0  0  0  0  0  0  0  0  0  0  0
   59.6202   34.6760   48.1867 H   0  0  0  0  0  0  0  0  0  0  0  0
   59.9860   31.7230   47.7420 H   0  0  0  0  0  0  0  0  0  0  0  0
   58.8457   28.5776   49.0808 H   0  0  0  0  0  0  0  0  0  0  0  0
   58.0225   29.5106   47.7852 H   0  0  0  0  0  0  0  0  0  0  0  0
   59.8125   29.3608   47.7852 H   0  0  0  0  0  0  0  0  0  0  0  0
   57.5488   31.0200   52.9943 H   0  0  0  0  0  0  0  0  0  0  0  0
   57.7115   33.1051   54.3467 H   0  0  0  0  0  0  0  0  0  0  0  0
   58.8051   35.1296   53.3943 H   0  0  0  0  0  0  0  0  0  0  0  0
   59.7646   35.0757   51.0986 H   0  0  0  0  0  0  0  0  0  0  0  0
   59.7597   28.7723   45.6750 H   0  0  0  0  0  0  0  0  0  0  0  0
   58.7440   29.6422   44.4757 H   0  0  0  0  0  0  0  0  0  0  0  0
   60.5260   29.8682   44.4757 H   0  0  0  0  0  0  0  0  0  0  0  0
  1  2  1  0
  2  3  1  0
  3  4  2  0
  4  5  1  0
  5  6  2  0
  6  7  1  0
  7  8  1  0
  8  9  1  0
  9 10  2  0
  9 11  1  0
 11 12  1  0
 12 13  2  0
 13 14  1  0
 14 15  1  0
 14 16  1  0
 16 17  2  0
 16 18  1  0
 18 19  2  0
 19 20  1  0
 20 21  2  0
 21 22  1  0
 22 23  2  0
  7 24  2  0
 24 25  1  0
 25 26  1  0
 24  3  1  0
 23 12  1  0
 23 18  1  0
  1 27  1  0
  1 28  1  0
  1 29  1  0
  4 30  1  0
  5 31  1  0
  6 32  1  0
 11 33  1  0
 11 34  1  0
 13 35  1  0
 15 36  1  0
 15 37  1  0
 15 38  1  0
 19 39  1  0
 20 40  1  0
 21 41  1  0
 22 42  1  0
 26 43  1  0
 26 44  1  0
 26 45  1  0
M  CHG  2   8  -1  13   1
M  END
>  <UniqueID>  (20) 
17

>  <SMILES>  (20) 
COc1cccc([N-]C(=O)Cc2[nH+]n(C)c(=O)c3ccccc23)c1OC

>  <Energy>  (20) 
59.93959309381763

>  <Genealogy>  (20) 
COc1cccc([N-]C(=O)Cc2[nH+]n(C)c(=O)c3ccccc23)c1OC (protonated)
COc1cccc([N-]C(=O)Cc2[nH+]n(C)c(=O)c3ccccc23)c1OC (3D coordinates assigned)
COc1cccc([N-]C(=O)Cc2[nH+]n(C)c(=O)c3ccccc23)c1OC (optimized conformer: 59.93959309381763 kcal/mol)

>  <smiles>  (20) 
COc1cccc(NC(=O)Cc2nn(C)c(=O)c3ccccc23)c1OC

>  <score_type>  (20) 
oracle

>  <origin>  (20) 
adg

>  <m_score__min__energy>  (20) 
-8.8200000000000003

>  <m_primary>  (20) 
energy

$$$$
20:0
     RDKit          3D

 43 45  0  0  0  0  0  0  0  0999 V2000
   58.7520   30.2120   49.6050 O   0  0  0  0  0  0  0  0  0  0  0  0
   59.7900   30.3450   48.9050 C   0  0  0  0  0  0  0  0  0  0  0  0
   60.1600   29.2740   48.0240 N   0  0  0  0  0  0  0  0  0  0  0  0
   59.3760   28.7040   46.9620 C   0  0  0  0  0  0  0  0  0  0  0  0
   59.5740   27.3590   46.6260 C   0  0  0  0  0  0  0  0  0  0  0  0
   58.8450   26.7750   45.5870 C   0  0  0  0  0  0  0  0  0  0  0  0
   57.9130   27.5300   44.8720 C   0  0  0  0  0  0  0  0  0  0  0  0
   57.7110   28.8800   45.1890 C   0  0  0  0  0  0  0  0  0  0  0  0
   56.5090   29.8310   44.3190 S   0  0  0  0  0  0  0  0  0  0  0  0
   56.8050   29.7640   42.8470 O   0  0  0  0  0  0  0  0  0  0  0  0
   55.1430   29.2440   44.5460 O   0  0  0  0  0  0  0  0  0  0  0  0
   56.5440   31.4980   44.8200 N   0  0  0  0  0  0  0  0  0  0  0  0
   57.7060   32.2030   44.2710 C   0  0  0  0  0  0  0  0  0  0  0  0
   58.2950   33.1570   45.2770 C   0  0  0  0  0  0  0  0  0  0  0  0
   58.0480   32.9890   46.6510 C   0  0  0  0  0  0  0  0  0  0  0  0
   58.5910   33.8820   47.5800 C   0  0  0  0  0  0  0  0  0  0  0  0
   59.3910   34.9430   47.1450 C   0  0  0  0  0  0  0  0  0  0  0  0
   59.6550   35.1070   45.7830 C   0  0  0  0  0  0  0  0  0  0  0  0
   59.1140   34.2170   44.8520 C   0  0  0  0  0  0  0  0  0  0  0  0
   58.4600   29.4690   46.2170 C   0  0  0  0  0  0  0  0  0  0  0  0
   60.5520   31.6150   48.9730 C   0  0  0  0  0  0  0  0  0  0  0  0
   61.4710   31.9380   47.9590 C   0  0  0  0  0  0  0  0  0  0  0  0
   62.2260   33.1120   48.0340 C   0  0  0  0  0  0  0  0  0  0  0  0
   63.3890   33.4880   46.7760 Cl  0  0  0  0  0  0  0  0  0  0  0  0
   62.0580   33.9840   49.1120 C   0  0  0  0  0  0  0  0  0  0  0  0
   61.1330   33.6860   50.1150 C   0  0  0  0  0  0  0  0  0  0  0  0
   60.3770   32.5060   50.0530 C   0  0  0  0  0  0  0  0  0  0  0  0
   59.4690   32.2110   51.0700 O   0  0  0  0  0  0  0  0  0  0  0  0
   60.3080   26.7586   47.1835 H   0  0  0  0  0  0  0  0  0  0  0  0
   59.0057   25.7172   45.3314 H   0  0  0  0  0  0  0  0  0  0  0  0
   57.3367   27.0645   44.0589 H   0  0  0  0  0  0  0  0  0  0  0  0
   58.4708   31.4653   43.9867 H   0  0  0  0  0  0  0  0  0  0  0  0
   57.3780   32.7820   43.3952 H   0  0  0  0  0  0  0  0  0  0  0  0
   57.4247   32.1512   46.9967 H   0  0  0  0  0  0  0  0  0  0  0  0
   58.3887   33.7497   48.6531 H   0  0  0  0  0  0  0  0  0  0  0  0
   59.8127   35.6490   47.8756 H   0  0  0  0  0  0  0  0  0  0  0  0
   60.2900   35.9384   45.4430 H   0  0  0  0  0  0  0  0  0  0  0  0
   59.3301   34.3465   43.7812 H   0  0  0  0  0  0  0  0  0  0  0  0
   58.3306   30.5377   46.4430 H   0  0  0  0  0  0  0  0  0  0  0  0
   61.5967   31.2619   47.1005 H   0  0  0  0  0  0  0  0  0  0  0  0
   62.6547   34.9062   49.1711 H   0  0  0  0  0  0  0  0  0  0  0  0
   60.9966   34.3799   50.9576 H   0  0  0  0  0  0  0  0  0  0  0  0
   58.8650   31.3980   51.0260 H   0  0  0  0  0  0  0  0  0  0  0  0
  1  2  2  0
  2  3  1  0
  3  4  1  0
  4  5  2  0
  5  6  1  0
  6  7  2  0
  7  8  1  0
  8  9  1  0
  9 10  2  0
  9 11  2  0
  9 12  1  0
 12 13  1  0
 13 14  1  0
 14 15  2  0
 15 16  1  0
 16 17  2  0
 17 18  1  0
 18 19  2  0
  8 20  2  0
  2 21  1  0
 21 22  2  0
 22 23  1  0
 23 24  1  0
 23 25  2  0
 25 26  1  0
 26 27  2  0
 27 28  1  0
 20  4  1  0
 27 21  1  0
 19 14  1  0
  5 29  1  0
  6 30  1  0
  7 31  1  0
 13 32  1  0
 13 33  1  0
 15 34  1  0
 16 35  1  0
 17 36  1  0
 18 37  1  0
 19 38  1  0
 20 39  1  0
 22 40  1  0
 25 41  1  0
 26 42  1  0
 28 43  1  0
M  CHG  2   3  -1  12  -1
M  END
>  <UniqueID>  (21) 
18

>  <SMILES>  (21) 
O=C([N-]c1cccc(S(=O)(=O)[N-]Cc2ccccc2)c1)c1cc(Cl)ccc1O

>  <Energy>  (21) 
49.34118592472581

>  <Genealogy>  (21) 
O=C([N-]c1cccc(S(=O)(=O)[N-]Cc2ccccc2)c1)c1cc(Cl)ccc1O (protonated)
O=C([N-]c1cccc(S(=O)(=O)[N-]Cc2ccccc2)c1)c1cc(Cl)ccc1O (3D coordinates assigned)
O=C([N-]c1cccc(S(=O)(=O)[N-]Cc2ccccc2)c1)c1cc(Cl)ccc1O (optimized conformer: 49.34118592472581 kcal/mol)

>  <smiles>  (21) 
O=C(Nc1cccc(S(=O)(=O)NCc2ccccc2)c1)c1cc(Cl)ccc1O

>  <score_type>  (21) 
oracle

>  <origin>  (21) 
adg

>  <m_score__min__energy>  (21) 
-12.130000000000001

>  <m_primary>  (21) 
energy

$$$$
21:0
     RDKit          3D

 45 47  0  0  0  0  0  0  0  0999 V2000
   59.2170   30.8370   47.8750 C   0  0  0  0  0  0  0  0  0  0  0  0
   58.1580   30.2110   47.1580 O   0  0  0  0  0  0  0  0  0  0  0  0
   58.1920   28.8920   46.6800 C   0  0  0  0  0  0  0  0  0  0  0  0
   59.1260   27.9510   47.1540 C   0  0  0  0  0  0  0  0  0  0  0  0
   59.1330   26.6490   46.6490 C   0  0  0  0  0  0  0  0  0  0  0  0
   58.2370   26.2700   45.6380 C   0  0  0  0  0  0  0  0  0  0  0  0
   58.2420   24.8490   45.1080 C   0  0  0  0  0  0  0  0  0  0  0  0
   57.0090   24.0620   45.3460 N   0  0  0  0  0  0  0  0  0  0  0  0
   55.7930   24.4660   44.6350 C   0  0  0  0  0  0  0  0  0  0  0  0
   54.5940   23.8230   45.3560 C   0  0  0  0  0  0  0  0  0  0  0  0
   54.7850   23.9020   46.8050 N   0  0  0  0  0  0  0  0  0  0  0  0
   56.4920   23.9910   46.9870 S   0  0  0  0  0  0  0  0  0  0  0  0
   57.0190   22.7520   47.6550 O   0  0  0  0  0  0  0  0  0  0  0  0
   56.8640   25.2140   47.7730 O   0  0  0  0  0  0  0  0  0  0  0  0
   57.2880   27.2000   45.1880 C   0  0  0  0  0  0  0  0  0  0  0  0
   57.2530   28.5040   45.7130 C   0  0  0  0  0  0  0  0  0  0  0  0
   56.3010   29.4690   45.2400 N   0  0  0  0  0  0  0  0  0  0  0  0
   56.4630   30.3320   44.1060 C   0  0  0  0  0  0  0  0  0  0  0  0
   56.0170   29.9550   42.9910 O   0  0  0  0  0  0  0  0  0  0  0  0
   57.1960   31.6130   44.2020 C   0  0  0  0  0  0  0  0  0  0  0  0
   57.4950   32.3030   45.3620 C   0  0  0  0  0  0  0  0  0  0  0  0
   58.2030   33.4170   44.9580 C   0  0  0  0  0  0  0  0  0  0  0  0
   58.7480   34.4710   45.8610 C   0  0  0  0  0  0  0  0  0  0  0  0
   58.3450   33.4190   43.6520 O   0  0  0  0  0  0  0  0  0  0  0  0
   57.7540   32.3510   43.1670 C   0  0  0  0  0  0  0  0  0  0  0  0
   57.7160   32.0210   41.7110 C   0  0  0  0  0  0  0  0  0  0  0  0
   59.0401   30.7325   48.9556 H   0  0  0  0  0  0  0  0  0  0  0  0
   60.1715   30.3579   47.6116 H   0  0  0  0  0  0  0  0  0  0  0  0
   59.2574   31.9042   47.6116 H   0  0  0  0  0  0  0  0  0  0  0  0
   59.8536   28.2428   47.9257 H   0  0  0  0  0  0  0  0  0  0  0  0
   59.8476   25.9138   47.0475 H   0  0  0  0  0  0  0  0  0  0  0  0
   58.4068   24.8958   44.0214 H   0  0  0  0  0  0  0  0  0  0  0  0
   59.0372   24.3288   45.6622 H   0  0  0  0  0  0  0  0  0  0  0  0
   55.6962   25.5616   44.6509 H   0  0  0  0  0  0  0  0  0  0  0  0
   55.8330   24.1379   43.5858 H   0  0  0  0  0  0  0  0  0  0  0  0
   53.6728   24.3568   45.0796 H   0  0  0  0  0  0  0  0  0  0  0  0
   54.5149   22.7672   45.0576 H   0  0  0  0  0  0  0  0  0  0  0  0
   56.5626   26.9056   44.4152 H   0  0  0  0  0  0  0  0  0  0  0  0
   57.2253   32.0231   46.3910 H   0  0  0  0  0  0  0  0  0  0  0  0
   58.5935   34.1723   46.9083 H   0  0  0  0  0  0  0  0  0  0  0  0
   59.8241   34.5966   45.6704 H   0  0  0  0  0  0  0  0  0  0  0  0
   58.2285   35.4217   45.6704 H   0  0  0  0  0  0  0  0  0  0  0  0
   57.5910   30.9355   41.5842 H   0  0  0  0  0  0  0  0  0  0  0  0
   56.8723   32.5450   41.2382 H   0  0  0  0  0  0  0  0  0  0  0  0
   58.6568   32.3395   41.2382 H   0  0  0  0  0  0  0  0  0  0  0  0
  1  2  1  0
  2  3  1  0
  3  4  2  0
  4  5  1  0
  5  6  2  0
  6  7  1  0
  7  8  1  0
  8  9  1  0
  9 10  1  0
 10 11  1  0
 11 12  1  0
 12 13  2  0
 12 14  2  0
  6 15  1  0
 15 16  2  0
 16 17  1  0
 17 18  1  0
 18 19  2  0
 18 20  1  0
 20 21  1  0
 21 22  2  0
 22 23  1  0
 22 24  1  0
 24 25  1  0
 25 26  1  0
 16  3  1  0
 25 20  2  0
 12  8  1  0
  1 27  1  0
  1 28  1  0
  1 29  1  0
  4 30  1  0
  5 31  1  0
  7 32  1  0
  7 33  1  0
  9 34  1  0
  9 35  1  0
 10 36  1  0
 10 37  1  0
 15 38  1  0
 21 39  1  0
 23 40  1  0
 23 41  1  0
 23 42  1  0
 26 43  1  0
 26 44  1  0
 26 45  1  0
M  CHG  2  11  -1  17  -1
M  END
>  <UniqueID>  (22) 
19

>  <SMILES>  (22) 
COc1ccc(CN2CC[N-]S2(=O)=O)cc1[N-]C(=O)c1cc(C)oc1C

>  <Energy>  (22) 
82.7451395042934

>  <Genealogy>  (22) 
COc1ccc(CN2CC[N-]S2(=O)=O)cc1[N-]C(=O)c1cc(C)oc1C (protonated)
COc1ccc(CN2CC[N-]S2(=O)=O)cc1[N-]C(=O)c1cc(C)oc1C (3D coordinates assigned)
COc1ccc(CN2CC[N-]S2(=O)=O)cc1[N-]C(=O)c1cc(C)oc1C (nonaromatic ring conformer: 82.7451395042934 kcal/mol)

>  <smiles>  (22) 
COc1ccc(CN2CCNS2(=O)=O)cc1NC(=O)c1cc(C)oc1C

>  <score_type>  (22) 
oracle

>  <origin>  (22) 
adg

>  <m_score__min__energy>  (22) 
-11.050000000000001

>  <m_primary>  (22) 
energy

$$$$
22:0
     RDKit          3D

 35 37  0  0  0  0  0  0  0  0999 V2000
   54.6500   23.7070   46.0390 C   0  0  0  0  0  0  0  0  0  0  0  0
   55.6410   24.2540   46.9030 O   0  0  0  0  0  0  0  0  0  0  0  0
   56.5920   25.2110   46.5180 C   0  0  0  0  0  0  0  0  0  0  0  0
   57.9750   24.9580   46.5690 C   0  0  0  0  0  0  0  0  0  0  0  0
   58.8990   25.9360   46.1760 C   0  0  0  0  0  0  0  0  0  0  0  0
   60.2640   25.6510   46.2390 O   0  0  0  0  0  0  0  0  0  0  0  0
   58.4410   27.1930   45.7210 C   0  0  0  0  0  0  0  0  0  0  0  0
   59.3090   28.2250   45.3060 C   0  0  0  0  0  0  0  0  0  0  0  0
   60.5610   28.0770   45.3170 O   0  0  0  0  0  0  0  0  0  0  0  0
   58.7750   29.4380   44.8690 C   0  0  0  0  0  0  0  0  0  0  0  0
   57.3870   29.6090   44.8560 C   0  0  0  0  0  0  0  0  0  0  0  0
   56.7780   30.8890   44.3690 C   0  0  0  0  0  0  0  0  0  0  0  0
   57.5650   32.0610   44.8880 C   0  0  0  0  0  0  0  0  0  0  0  0
   57.7620   32.2260   46.2690 C   0  0  0  0  0  0  0  0  0  0  0  0
   58.4620   33.3340   46.7530 C   0  0  0  0  0  0  0  0  0  0  0  0
   58.9610   34.2910   45.8650 C   0  0  0  0  0  0  0  0  0  0  0  0
   58.7560   34.1410   44.4900 C   0  0  0  0  0  0  0  0  0  0  0  0
   58.0570   33.0340   44.0020 C   0  0  0  0  0  0  0  0  0  0  0  0
   56.5900   28.6190   45.2480 O   0  0  0  0  0  0  0  0  0  0  0  0
   57.0480   27.4440   45.6710 C   0  0  0  0  0  0  0  0  0  0  0  0
   56.1390   26.4560   46.0670 C   0  0  0  0  0  0  0  0  0  0  0  0
   54.7730   26.7140   46.0130 O   0  0  0  0  0  0  0  0  0  0  0  0
   53.8439   23.2621   46.6409 H   0  0  0  0  0  0  0  0  0  0  0  0
   54.2363   24.5045   45.4043 H   0  0  0  0  0  0  0  0  0  0  0  0
   55.1043   22.9319   45.4043 H   0  0  0  0  0  0  0  0  0  0  0  0
   58.3357   23.9805   46.9217 H   0  0  0  0  0  0  0  0  0  0  0  0
   60.9610   26.3020   45.8950 H   0  0  0  0  0  0  0  0  0  0  0  0
   59.4385   30.2507   44.5384 H   0  0  0  0  0  0  0  0  0  0  0  0
   56.7873   30.9019   43.2691 H   0  0  0  0  0  0  0  0  0  0  0  0
   55.7424   30.9586   44.7333 H   0  0  0  0  0  0  0  0  0  0  0  0
   57.3635   31.4798   46.9722 H   0  0  0  0  0  0  0  0  0  0  0  0
   58.6207   33.4534   47.8349 H   0  0  0  0  0  0  0  0  0  0  0  0
   59.5144   35.1613   46.2474 H   0  0  0  0  0  0  0  0  0  0  0  0
   59.1457   34.8959   43.7912 H   0  0  0  0  0  0  0  0  0  0  0  0
   57.8913   32.9239   42.9201 H   0  0  0  0  0  0  0  0  0  0  0  0
  1  2  1  0
  2  3  1  0
  3  4  2  0
  4  5  1  0
  5  6  1  0
  5  7  2  0
  7  8  1  0
  8  9  2  0
  8 10  1  0
 10 11  2  0
 11 12  1  0
 12 13  1  0
 13 14  2  0
 14 15  1  0
 15 16  2  0
 16 17  1  0
 17 18  2  0
 11 19  1  0
 19 20  1  0
 20 21  2  0
 21 22  1  0
 21  3  1  0
 20  7  1  0
 18 13  1  0
  1 23  1  0
  1 24  1  0
  1 25  1  0
  4 26  1  0
  6 27  1  0
 10 28  1  0
 12 29  1  0
 12 30  1  0
 14 31  1  0
 15 32  1  0
 16 33  1  0
 17 34  1  0
 18 35  1  0
M  CHG  1  22  -1
M  END
>  <UniqueID>  (23) 
20

>  <SMILES>  (23) 
COc1cc(O)c2c(=O)cc(Cc3ccccc3)oc2c1[O-]

>  <Energy>  (23) 
42.062044117347206

>  <Genealogy>  (23) 
COc1cc(O)c2c(=O)cc(Cc3ccccc3)oc2c1[O-] (protonated)
COc1cc(O)c2c(=O)cc(Cc3ccccc3)oc2c1[O-] (3D coordinates assigned)
COc1cc(O)c2c(=O)cc(Cc3ccccc3)oc2c1[O-] (optimized conformer: 42.062044117347206 kcal/mol)

>  <smiles>  (23) 
COc1cc(O)c2c(=O)cc(Cc3ccccc3)oc2c1O

>  <score_type>  (23) 
oracle

>  <origin>  (23) 
adg

>  <m_score__min__energy>  (23) 
-11.42

>  <m_primary>  (23) 
energy

$$$$
23:0
     RDKit          3D

 67 69  0  0  0  0  0  0  0  0999 V2000
   59.3170   34.9600   46.1930 C   0  0  0  0  0  0  0  0  0  0  0  0
   58.7540   34.4440   44.8720 C   0  0  0  0  0  0  0  0  0  0  0  0
   57.6040   33.4590   45.1090 C   0  0  0  0  0  0  0  0  0  0  0  0
   57.8310   32.1560   44.3350 C   0  0  0  0  0  0  0  0  0  0  0  0
   57.2710   31.0210   45.0660 N   0  0  0  0  0  0  0  0  0  0  0  0
   56.2960   30.0900   44.5740 C   0  0  0  0  0  0  0  0  0  0  0  0
   55.0970   30.4640   44.4880 O   0  0  0  0  0  0  0  0  0  0  0  0
   56.6480   28.6880   44.1450 C   0  0  0  0  0  0  0  0  0  0  0  0
   57.2450   27.9150   45.3010 C   0  0  0  0  0  0  0  0  0  0  0  0
   56.4760   26.9610   45.9880 C   0  0  0  0  0  0  0  0  0  0  0  0
   55.1520   26.7200   45.6350 O   0  0  0  0  0  0  0  0  0  0  0  0
   57.0400   26.2410   47.0360 C   0  0  0  0  0  0  0  0  0  0  0  0
   58.3650   26.4660   47.4020 C   0  0  0  0  0  0  0  0  0  0  0  0
   58.8950   25.7370   48.4640 O   0  0  0  0  0  0  0  0  0  0  0  0
   59.1270   27.3890   46.7300 N   0  0  0  0  0  0  0  0  0  0  0  0
   60.5240   27.6390   47.1440 C   0  0  0  0  0  0  0  0  0  0  0  0
   60.6580   28.9910   47.8630 C   0  0  0  0  0  0  0  0  0  0  0  0
   61.1510   30.1030   46.9170 C   0  0  0  0  0  0  0  0  0  0  0  0
   60.3840   31.3600   47.0360 N   0  0  0  0  0  0  0  0  0  0  0  0
   58.9800   31.1700   47.4760 C   0  0  0  0  0  0  0  0  0  0  0  0
   58.4620   32.3270   48.3310 C   0  0  0  0  0  0  0  0  0  0  0  0
   59.4130   32.5870   49.4110 N   0  0  0  0  0  0  0  0  0  0  0  0
   58.9670   32.6860   50.7700 C   0  0  0  0  0  0  0  0  0  0  0  0
   59.2810   33.8270   51.5240 C   0  0  0  0  0  0  0  0  0  0  0  0
   58.8680   33.9270   52.8540 C   0  0  0  0  0  0  0  0  0  0  0  0
   58.1460   32.8860   53.4410 C   0  0  0  0  0  0  0  0  0  0  0  0
   57.8340   31.7430   52.7020 C   0  0  0  0  0  0  0  0  0  0  0  0
   58.2450   31.6300   51.3580 C   0  0  0  0  0  0  0  0  0  0  0  0
   57.9720   30.4890   50.5880 O   0  0  0  0  0  0  0  0  0  0  0  0
   58.8650   29.3940   50.4190 C   0  0  0  0  0  0  0  0  0  0  0  0
   60.8410   32.7230   49.1110 C   0  0  0  0  0  0  0  0  0  0  0  0
   61.1300   32.5030   47.6160 C   0  0  0  0  0  0  0  0  0  0  0  0
   58.5870   28.1070   45.6880 C   0  0  0  0  0  0  0  0  0  0  0  0
   59.2950   28.9500   45.0680 O   0  0  0  0  0  0  0  0  0  0  0  0
   58.7904   34.4773   47.0295 H   0  0  0  0  0  0  0  0  0  0  0  0
   60.3901   34.7252   46.2509 H   0  0  0  0  0  0  0  0  0  0  0  0
   59.1764   36.0494   46.2509 H   0  0  0  0  0  0  0  0  0  0  0  0
   58.3821   35.2954   44.2831 H   0  0  0  0  0  0  0  0  0  0  0  0
   59.5562   33.9206   44.3312 H   0  0  0  0  0  0  0  0  0  0  0  0
   57.5393   33.2329   46.1836 H   0  0  0  0  0  0  0  0  0  0  0  0
   56.6692   33.9189   44.7559 H   0  0  0  0  0  0  0  0  0  0  0  0
   57.3431   32.2295   43.3519 H   0  0  0  0  0  0  0  0  0  0  0  0
   58.9128   32.0001   44.2113 H   0  0  0  0  0  0  0  0  0  0  0  0
   55.7381   28.1761   43.7985 H   0  0  0  0  0  0  0  0  0  0  0  0
   57.3868   28.7394   43.3316 H   0  0  0  0  0  0  0  0  0  0  0  0
   56.4396   25.4939   47.5758 H   0  0  0  0  0  0  0  0  0  0  0  0
   60.8452   26.8372   47.8251 H   0  0  0  0  0  0  0  0  0  0  0  0
   61.1554   27.6596   46.2435 H   0  0  0  0  0  0  0  0  0  0  0  0
   59.6754   29.2776   48.2659 H   0  0  0  0  0  0  0  0  0  0  0  0
   61.4001   28.8757   48.6667 H   0  0  0  0  0  0  0  0  0  0  0  0
   62.2053   30.3151   47.1484 H   0  0  0  0  0  0  0  0  0  0  0  0
   61.0154   29.7370   45.8886 H   0  0  0  0  0  0  0  0  0  0  0  0
   58.3421   31.0795   46.5844 H   0  0  0  0  0  0  0  0  0  0  0  0
   58.9487   30.2619   48.0960 H   0  0  0  0  0  0  0  0  0  0  0  0
   58.3571   33.2274   47.7078 H   0  0  0  0  0  0  0  0  0  0  0  0
   57.4819   32.0642   48.7556 H   0  0  0  0  0  0  0  0  0  0  0  0
   59.8548   34.6459   51.0655 H   0  0  0  0  0  0  0  0  0  0  0  0
   59.1114   34.8259   53.4394 H   0  0  0  0  0  0  0  0  0  0  0  0
   57.8219   32.9665   54.4891 H   0  0  0  0  0  0  0  0  0  0  0  0
   57.2648   30.9267   53.1707 H   0  0  0  0  0  0  0  0  0  0  0  0
   59.1729   29.0164   51.4052 H   0  0  0  0  0  0  0  0  0  0  0  0
   58.3601   28.5919   49.8606 H   0  0  0  0  0  0  0  0  0  0  0  0
   59.7522   29.7272   49.8606 H   0  0  0  0  0  0  0  0  0  0  0  0
   61.1701   33.7340   49.3930 H   0  0  0  0  0  0  0  0  0  0  0  0
   61.3867   31.9579   49.6827 H   0  0  0  0  0  0  0  0  0  0  0  0
   60.8514   33.4155   47.0686 H   0  0  0  0  0  0  0  0  0  0  0  0
   62.2017   32.2739   47.5218 H   0  0  0  0  0  0  0  0  0  0  0  0
  1  2  1  0
  2  3  1  0
  3  4  1  0
  4  5  1  0
  5  6  1  0
  6  7  2  0
  6  8  1  0
  8  9  1  0
  9 10  2  0
 10 11  1  0
 10 12  1  0
 12 13  2  0
 13 14  1  0
 13 15  1  0
 15 16  1  0
 16 17  1  0
 17 18  1  0
 18 19  1  0
 19 20  1  0
 20 21  1  0
 21 22  1  0
 22 23  1  0
 23 24  2  0
 24 25  1  0
 25 26  2  0
 26 27  1  0
 27 28  2  0
 28 29  1  0
 29 30  1  0
 22 31  1  0
 31 32  1  0
 15 33  1  0
 33 34  2  0
 33  9  1  0
 32 19  1  0
 28 23  1  0
  1 35  1  0
  1 36  1  0
  1 37  1  0
  2 38  1  0
  2 39  1  0
  3 40  1  0
  3 41  1  0
  4 42  1  0
  4 43  1  0
  8 44  1  0
  8 45  1  0
 12 46  1  0
 16 47  1  0
 16 48  1  0
 17 49  1  0
 17 50  1  0
 18 51  1  0
 18 52  1  0
 20 53  1  0
 20 54  1  0
 21 55  1  0
 21 56  1  0
 24 57  1  0
 25 58  1  0
 26 59  1  0
 27 60  1  0
 30 61  1  0
 30 62  1  0
 30 63  1  0
 31 64  1  0
 31 65  1  0
 32 66  1  0
 32 67  1  0
M  CHG  3   5  -1  11  -1  14  -1
M  END
>  <UniqueID>  (24) 
21

>  <SMILES>  (24) 
CCCC[N-]C(=O)Cc1c([O-])cc([O-])n(CCCN2CCN(c3ccccc3OC)CC2)c1=O

>  <Energy>  (24) 
75.63510642885421

>  <Genealogy>  (24) 
CCCC[N-]C(=O)Cc1c([O-])cc([O-])n(CCCN2CCN(c3ccccc3OC)CC2)c1=O (protonated)
CCCC[N-]C(=O)Cc1c([O-])cc([O-])n(CCCN2CCN(c3ccccc3OC)CC2)c1=O (3D coordinates assigned)
CCCC[N-]C(=O)Cc1c([O-])cc([O-])n(CCCN2CCN(c3ccccc3OC)CC2)c1=O (nonaromatic ring conformer: 75.63510642885421 kcal/mol)

>  <smiles>  (24) 
CCCCNC(=O)Cc1c(O)cc(O)n(CCCN2CCN(c3ccccc3OC)CC2)c1=O

>  <score_type>  (24) 
oracle

>  <origin>  (24) 
adg

>  <m_score__min__energy>  (24) 
-15.029999999999999

>  <m_primary>  (24) 
energy

$$$$
24:0
     RDKit          3D

 60 63  0  0  0  0  0  0  0  0999 V2000
   56.7660   31.8960   44.9880 N   0  0  0  0  0  0  0  0  0  0  0  0
   57.6200   33.3940   44.8740 S   0  0  0  0  0  0  0  0  0  0  0  0
   58.4850   33.3870   43.6440 O   0  0  0  0  0  0  0  0  0  0  0  0
   56.6370   34.5280   44.7660 O   0  0  0  0  0  0  0  0  0  0  0  0
   58.6250   33.6060   46.3070 C   0  0  0  0  0  0  0  0  0  0  0  0
   58.2340   33.0610   47.5380 C   0  0  0  0  0  0  0  0  0  0  0  0
   59.0340   33.2390   48.6730 C   0  0  0  0  0  0  0  0  0  0  0  0
   60.2350   33.9560   48.5920 C   0  0  0  0  0  0  0  0  0  0  0  0
   60.9900   34.1840   49.7900 N   0  0  0  0  0  0  0  0  0  0  0  0
   62.3910   33.9260   49.9160 C   0  0  0  0  0  0  0  0  0  0  0  0
   63.1910   34.8760   50.1270 O   0  0  0  0  0  0  0  0  0  0  0  0
   62.8850   32.5130   49.9130 C   0  0  0  0  0  0  0  0  0  0  0  0
   61.8370   31.6330   49.2900 C   0  0  0  0  0  0  0  0  0  0  0  0
   60.8970   30.9760   50.1020 C   0  0  0  0  0  0  0  0  0  0  0  0
   60.0350   30.0230   49.5550 C   0  0  0  0  0  0  0  0  0  0  0  0
   60.0970   29.7150   48.1850 C   0  0  0  0  0  0  0  0  0  0  0  0
   59.2370   28.7170   47.6140 N   0  0  0  0  0  0  0  0  0  0  0  0
   59.4570   28.1510   46.3100 C   0  0  0  0  0  0  0  0  0  0  0  0
   60.2490   28.7150   45.5010 O   0  0  0  0  0  0  0  0  0  0  0  0
   58.7370   26.8990   45.8740 C   0  0  0  0  0  0  0  0  0  0  0  0
   59.6670   25.6630   45.9720 C   0  0  0  0  0  0  0  0  0  0  0  0
   58.8930   24.3430   46.1490 C   0  0  0  0  0  0  0  0  0  0  0  0
   57.5430   24.4470   45.5760 N   0  0  0  0  0  0  0  0  0  0  0  0
   57.1000   23.5260   44.5610 C   0  0  0  0  0  0  0  0  0  0  0  0
   56.0580   23.8750   43.6880 C   0  0  0  0  0  0  0  0  0  0  0  0
   55.6480   22.9620   42.7090 C   0  0  0  0  0  0  0  0  0  0  0  0
   56.2640   21.7540   42.5990 N   0  0  0  0  0  0  0  0  0  0  0  0
   57.2830   21.3940   43.4240 C   0  0  0  0  0  0  0  0  0  0  0  0
   57.7210   22.2720   44.4200 C   0  0  0  0  0  0  0  0  0  0  0  0
   56.6390   25.5120   46.0480 C   0  0  0  0  0  0  0  0  0  0  0  0
   57.4270   26.6850   46.6580 C   0  0  0  0  0  0  0  0  0  0  0  0
   60.9970   30.4080   47.3650 C   0  0  0  0  0  0  0  0  0  0  0  0
   61.8740   31.3490   47.9140 C   0  0  0  0  0  0  0  0  0  0  0  0
   60.6320   34.4920   47.3500 C   0  0  0  0  0  0  0  0  0  0  0  0
   59.8310   34.3160   46.2170 C   0  0  0  0  0  0  0  0  0  0  0  0
   55.7450   32.1260   44.9730 H   0  0  0  0  0  0  0  0  0  0  0  0
   57.2957   32.4917   47.6123 H   0  0  0  0  0  0  0  0  0  0  0  0
   58.7171   32.8125   49.6362 H   0  0  0  0  0  0  0  0  0  0  0  0
   63.8157   32.4483   49.3303 H   0  0  0  0  0  0  0  0  0  0  0  0
   63.0830   32.1848   50.9441 H   0  0  0  0  0  0  0  0  0  0  0  0
   60.8398   31.2136   51.1745 H   0  0  0  0  0  0  0  0  0  0  0  0
   59.3046   29.5113   50.1990 H   0  0  0  0  0  0  0  0  0  0  0  0
   58.3490   28.4900   48.1130 H   0  0  0  0  0  0  0  0  0  0  0  0
   58.4579   27.0295   44.8180 H   0  0  0  0  0  0  0  0  0  0  0  0
   60.2640   25.5990   45.0503 H   0  0  0  0  0  0  0  0  0  0  0  0
   60.3003   25.7961   46.8615 H   0  0  0  0  0  0  0  0  0  0  0  0
   59.4388   23.5343   45.6410 H   0  0  0  0  0  0  0  0  0  0  0  0
   58.8035   24.1289   47.2242 H   0  0  0  0  0  0  0  0  0  0  0  0
   55.5682   24.8563   43.7721 H   0  0  0  0  0  0  0  0  0  0  0  0
   54.8253   23.2222   42.0267 H   0  0  0  0  0  0  0  0  0  0  0  0
   57.7632   20.4112   43.3077 H   0  0  0  0  0  0  0  0  0  0  0  0
   58.5456   21.9840   45.0887 H   0  0  0  0  0  0  0  0  0  0  0  0
   56.0465   25.8818   45.1982 H   0  0  0  0  0  0  0  0  0  0  0  0
   55.9841   25.0921   46.8257 H   0  0  0  0  0  0  0  0  0  0  0  0
   56.8178   27.5995   46.6075 H   0  0  0  0  0  0  0  0  0  0  0  0
   57.6653   26.4554   47.7070 H   0  0  0  0  0  0  0  0  0  0  0  0
   61.0140   30.2109   46.2829 H   0  0  0  0  0  0  0  0  0  0  0  0
   62.5954   31.8688   47.2664 H   0  0  0  0  0  0  0  0  0  0  0  0
   61.5760   35.0512   47.2716 H   0  0  0  0  0  0  0  0  0  0  0  0
   60.1484   34.7363   45.2513 H   0  0  0  0  0  0  0  0  0  0  0  0
  1  2  1  0
  2  3  2  0
  2  4  2  0
  2  5  1  0
  5  6  2  0
  6  7  1  0
  7  8  2  0
  8  9  1  0
  9 10  1  0
 10 11  2  0
 10 12  1  0
 12 13  1  0
 13 14  2  0
 14 15  1  0
 15 16  2  0
 16 17  1  0
 17 18  1  0
 18 19  2  0
 18 20  1  0
 20 21  1  0
 21 22  1  0
 22 23  1  0
 23 24  1  0
 24 25  2  0
 25 26  1  0
 26 27  2  0
 27 28  1  0
 28 29  2  0
 23 30  1  0
 30 31  1  0
 16 32  1  0
 32 33  2  0
  8 34  1  0
 34 35  2  0
 35  5  1  0
 33 13  1  0
 31 20  1  0
 29 24  1  0
  1 36  1  0
  6 37  1  0
  7 38  1  0
 12 39  1  0
 12 40  1  0
 14 41  1  0
 15 42  1  0
 17 43  1  0
 20 44  1  0
 21 45  1  0
 21 46  1  0
 22 47  1  0
 22 48  1  0
 25 49  1  0
 26 50  1  0
 28 51  1  0
 29 52  1  0
 30 53  1  0
 30 54  1  0
 31 55  1  0
 31 56  1  0
 32 57  1  0
 33 58  1  0
 34 59  1  0
 35 60  1  0
M  CHG  2   1  -1   9  -1
M  END
>  <UniqueID>  (25) 
22

>  <SMILES>  (25) 
[NH-]S(=O)(=O)c1ccc([N-]C(=O)Cc2ccc(NC(=O)C3CCN(c4ccncc4)CC3)cc2)cc1

>  <Energy>  (25) 
78.1168646037911

>  <Genealogy>  (25) 
[NH-]S(=O)(=O)c1ccc([N-]C(=O)Cc2ccc(NC(=O)C3CCN(c4ccncc4)CC3)cc2)cc1 (protonated)
[NH-]S(=O)(=O)c1ccc([N-]C(=O)Cc2ccc(NC(=O)C3CCN(c4ccncc4)CC3)cc2)cc1 (3D coordinates assigned)
[NH-]S(=O)(=O)c1ccc([N-]C(=O)Cc2ccc(NC(=O)C3CCN(c4ccncc4)CC3)cc2)cc1 (nonaromatic ring conformer: 78.1168646037911 kcal/mol)

>  <smiles>  (25) 
NS(=O)(=O)c1ccc(NC(=O)Cc2ccc(NC(=O)C3CCN(c4ccncc4)CC3)cc2)cc1

>  <score_type>  (25) 
oracle

>  <origin>  (25) 
adg

>  <m_score__min__energy>  (25) 
-13.029999999999999

>  <m_primary>  (25) 
energy

$$$$
25:0
     RDKit          3D

 25 26  0  0  0  0  0  0  0  0999 V2000
   55.1510   26.3410   46.9320 H   0  0  0  0  0  0  0  0  0  0  0  0
   55.4170   26.4950   45.9670 O   0  0  0  0  0  0  0  0  0  0  0  0
   56.2620   27.5440   45.6240 C   0  0  0  0  0  0  0  0  0  0  0  0
   55.7840   28.7550   45.2330 N   0  0  0  0  0  0  0  0  0  0  0  0
   56.7890   29.6090   44.9440 C   0  0  0  0  0  0  0  0  0  0  0  0
   56.6300   30.8400   44.5550 N   0  0  0  0  0  0  0  0  0  0  0  0
   57.6240   31.7640   44.0770 C   0  0  0  0  0  0  0  0  0  0  0  0
   58.4870   31.3380   43.2650 O   0  0  0  0  0  0  0  0  0  0  0  0
   57.6490   33.2270   44.4420 C   0  0  0  0  0  0  0  0  0  0  0  0
   58.1684   33.7833   43.6478 H   0  0  0  0  0  0  0  0  0  0  0  0
   56.6095   33.5702   44.5502 H   0  0  0  0  0  0  0  0  0  0  0  0
   58.3610   33.4660   45.7520 C   0  0  0  0  0  0  0  0  0  0  0  0
   59.1900   34.5900   45.9160 C   0  0  0  0  0  0  0  0  0  0  0  0
   59.3348   35.2896   45.0796 H   0  0  0  0  0  0  0  0  0  0  0  0
   59.8310   34.8230   47.1360 C   0  0  0  0  0  0  0  0  0  0  0  0
   60.4884   35.6972   47.2527 H   0  0  0  0  0  0  0  0  0  0  0  0
   59.6380   33.9470   48.2080 C   0  0  0  0  0  0  0  0  0  0  0  0
   60.1489   34.1277   49.1652 H   0  0  0  0  0  0  0  0  0  0  0  0
   58.7960   32.8420   48.0630 C   0  0  0  0  0  0  0  0  0  0  0  0
   58.6386   32.1574   48.9095 H   0  0  0  0  0  0  0  0  0  0  0  0
   58.1530   32.6040   46.8450 C   0  0  0  0  0  0  0  0  0  0  0  0
   57.4814   31.7391   46.7402 H   0  0  0  0  0  0  0  0  0  0  0  0
   58.2960   28.9030   45.1740 S   0  0  0  0  0  0  0  0  0  0  0  0
   57.6470   27.4260   45.6560 C   0  0  0  0  0  0  0  0  0  0  0  0
   58.2159   26.5297   45.9441 H   0  0  0  0  0  0  0  0  0  0  0  0
  1  2  1  0
  2  3  1  0
  3  4  1  0
  4  5  1  0
  5  6  2  0
  6  7  1  0
  7  8  2  0
  7  9  1  0
  9 10  1  0
  9 11  1  0
  9 12  1  0
 12 13  2  0
 13 14  1  0
 13 15  1  0
 15 16  1  0
 15 17  2  0
 17 18  1  0
 17 19  1  0
 19 20  1  0
 19 21  2  0
 21 22  1  0
  5 23  1  0
 23 24  1  0
 24 25  1  0
 24  3  2  0
 21 12  1  0
M  CHG  1   4  -1
M  END
>  <UniqueID>  (26) 
23

>  <SMILES>  (26) 
O=C(Cc1ccccc1)/N=c1\[n-]c(O)cs1

>  <Energy>  (26) 
57.70865599998028

>  <Genealogy>  (26) 
O=C(Cc1ccccc1)N=c1[n-]c(O)cs1 (protonated)
O=C(Cc1ccccc1)/N=c1\[n-]c(O)cs1 (cis-trans isomerization)
O=C(Cc1ccccc1)/N=c1\[n-]c(O)cs1 (3D coordinates assigned)
O=C(Cc1ccccc1)/N=c1\[n-]c(O)cs1 (optimized conformer: 57.70865599998028 kcal/mol)

>  <smiles>  (26) 
O=C(Cc1ccccc1)N=c1[nH]c(O)cs1

>  <score_type>  (26) 
oracle

>  <origin>  (26) 
adg

>  <m_score__min__energy>  (26) 
-9.5500000000000007

>  <m_primary>  (26) 
energy

$$$$
26:0
     RDKit          3D

 39 40  0  0  0  0  0  0  0  0999 V2000
   58.6350   31.5940   49.6930 C   0  0  0  0  0  0  0  0  0  0  0  0
   58.8760   32.9500   49.3340 O   0  0  0  0  0  0  0  0  0  0  0  0
   58.9880   33.4180   48.0140 C   0  0  0  0  0  0  0  0  0  0  0  0
   57.8850   33.4210   47.1350 C   0  0  0  0  0  0  0  0  0  0  0  0
   58.0250   33.8860   45.8260 C   0  0  0  0  0  0  0  0  0  0  0  0
   59.2600   34.3510   45.3750 C   0  0  0  0  0  0  0  0  0  0  0  0
   60.3600   34.3540   46.2330 C   0  0  0  0  0  0  0  0  0  0  0  0
   60.2360   33.8960   47.5560 C   0  0  0  0  0  0  0  0  0  0  0  0
   61.4560   33.8840   48.4480 C   0  0  0  0  0  0  0  0  0  0  0  0
   62.4110   32.7360   48.0910 C   0  0  0  0  0  0  0  0  0  0  0  0
   61.6850   31.4220   47.9480 C   0  0  0  0  0  0  0  0  0  0  0  0
   61.6060   30.6580   48.9440 O   0  0  0  0  0  0  0  0  0  0  0  0
   61.1820   30.9630   46.6860 N   0  0  0  0  0  0  0  0  0  0  0  0
   60.0700   30.0820   46.4970 C   0  0  0  0  0  0  0  0  0  0  0  0
   60.0460   28.8050   47.0790 C   0  0  0  0  0  0  0  0  0  0  0  0
   58.9570   27.9560   46.8650 C   0  0  0  0  0  0  0  0  0  0  0  0
   57.8960   28.3670   46.0540 C   0  0  0  0  0  0  0  0  0  0  0  0
   57.9290   29.6250   45.4370 C   0  0  0  0  0  0  0  0  0  0  0  0
   56.5930   30.1460   44.4170 S   0  0  0  0  0  0  0  0  0  0  0  0
   55.1490   29.3340   44.9080 N   0  0  0  0  0  0  0  0  0  0  0  0
   56.4020   31.6320   44.5450 O   0  0  0  0  0  0  0  0  0  0  0  0
   56.8900   29.8200   42.9800 O   0  0  0  0  0  0  0  0  0  0  0  0
   59.0220   30.4760   45.6570 C   0  0  0  0  0  0  0  0  0  0  0  0
   58.6187   31.5022   50.7890 H   0  0  0  0  0  0  0  0  0  0  0  0
   57.6657   31.2730   49.2837 H   0  0  0  0  0  0  0  0  0  0  0  0
   59.4343   30.9587   49.2837 H   0  0  0  0  0  0  0  0  0  0  0  0
   56.9080   33.0546   47.4831 H   0  0  0  0  0  0  0  0  0  0  0  0
   57.1585   33.8856   45.1483 H   0  0  0  0  0  0  0  0  0  0  0  0
   59.3668   34.7154   44.3426 H   0  0  0  0  0  0  0  0  0  0  0  0
   61.3329   34.7180   45.8710 H   0  0  0  0  0  0  0  0  0  0  0  0
   61.9894   34.8393   48.3349 H   0  0  0  0  0  0  0  0  0  0  0  0
   61.1201   33.7397   49.4855 H   0  0  0  0  0  0  0  0  0  0  0  0
   62.9098   32.9717   47.1393 H   0  0  0  0  0  0  0  0  0  0  0  0
   63.1408   32.6342   48.9077 H   0  0  0  0  0  0  0  0  0  0  0  0
   60.8867   28.4717   47.7052 H   0  0  0  0  0  0  0  0  0  0  0  0
   58.9349   26.9621   47.3359 H   0  0  0  0  0  0  0  0  0  0  0  0
   57.0334   27.7021   45.8995 H   0  0  0  0  0  0  0  0  0  0  0  0
   55.1780   28.3780   44.4870 H   0  0  0  0  0  0  0  0  0  0  0  0
   59.0558   31.4598   45.1660 H   0  0  0  0  0  0  0  0  0  0  0  0
  1  2  1  0
  2  3  1  0
  3  4  2  0
  4  5  1  0
  5  6  2  0
  6  7  1  0
  7  8  2  0
  8  9  1  0
  9 10  1  0
 10 11  1  0
 11 12  2  0
 11 13  1  0
 13 14  1  0
 14 15  2  0
 15 16  1  0
 16 17  2  0
 17 18  1  0
 18 19  1  0
 19 20  1  0
 19 21  2  0
 19 22  2  0
 18 23  2  0
  8  3  1  0
 23 14  1  0
  1 24  1  0
  1 25  1  0
  1 26  1  0
  4 27  1  0
  5 28  1  0
  6 29  1  0
  7 30  1  0
  9 31  1  0
  9 32  1  0
 10 33  1  0
 10 34  1  0
 15 35  1  0
 16 36  1  0
 17 37  1  0
 20 38  1  0
 23 39  1  0
M  CHG  2  13  -1  20  -1
M  END
>  <UniqueID>  (27) 
24

>  <SMILES>  (27) 
COc1ccccc1CCC(=O)[N-]c1cccc(S([NH-])(=O)=O)c1

>  <Energy>  (27) 
40.31706024389663

>  <Genealogy>  (27) 
COc1ccccc1CCC(=O)[N-]c1cccc(S([NH-])(=O)=O)c1 (protonated)
COc1ccccc1CCC(=O)[N-]c1cccc(S([NH-])(=O)=O)c1 (3D coordinates assigned)
COc1ccccc1CCC(=O)[N-]c1cccc(S([NH-])(=O)=O)c1 (optimized conformer: 40.31706024389663 kcal/mol)

>  <smiles>  (27) 
COc1ccccc1CCC(=O)Nc1cccc(S(N)(=O)=O)c1

>  <score_type>  (27) 
oracle

>  <origin>  (27) 
adg

>  <m_score__min__energy>  (27) 
-11.91

>  <m_primary>  (27) 
energy

$$$$
27:0
     RDKit          3D

 25 26  0  0  0  0  0  0  0  0999 V2000
   57.1096   24.9691   47.9956 H   0  0  0  0  0  0  0  0  0  0  0  0
   57.0540   24.9730   46.8970 C   0  0  0  0  0  0  0  0  0  0  0  0
   58.0750   25.4370   46.2340 N   0  0  0  0  0  0  0  0  0  0  0  0
   58.3480   26.8180   45.9520 C   0  0  0  0  0  0  0  0  0  0  0  0
   57.2940   27.6390   45.5270 C   0  0  0  0  0  0  0  0  0  0  0  0
   56.2851   27.2148   45.4170 H   0  0  0  0  0  0  0  0  0  0  0  0
   57.5110   28.9970   45.2400 C   0  0  0  0  0  0  0  0  0  0  0  0
   56.3850   29.8610   44.8210 C   0  0  0  0  0  0  0  0  0  0  0  0
   56.5870   31.0610   44.4920 O   0  0  0  0  0  0  0  0  0  0  0  0
   55.0890   29.3610   44.7830 O   0  0  0  0  0  0  0  0  0  0  0  0
   58.8100   29.5200   45.3560 C   0  0  0  0  0  0  0  0  0  0  0  0
   58.9915   30.5846   45.1471 H   0  0  0  0  0  0  0  0  0  0  0  0
   59.8720   28.6960   45.7350 C   0  0  0  0  0  0  0  0  0  0  0  0
   60.8873   29.1128   45.8083 H   0  0  0  0  0  0  0  0  0  0  0  0
   59.6540   27.3450   46.0220 C   0  0  0  0  0  0  0  0  0  0  0  0
   61.0440   26.3270   46.3750 Cl  0  0  0  0  0  0  0  0  0  0  0  0
   55.8220   24.4500   46.2600 C   0  0  0  0  0  0  0  0  0  0  0  0
   54.7660   25.2950   45.8760 C   0  0  0  0  0  0  0  0  0  0  0  0
   54.8510   26.6710   46.0530 O   0  0  0  0  0  0  0  0  0  0  0  0
   53.6580   24.7720   45.2910 N   0  0  0  0  0  0  0  0  0  0  0  0
   53.5560   23.4420   45.0440 C   0  0  0  0  0  0  0  0  0  0  0  0
   52.5160   22.9800   44.5060 O   0  0  0  0  0  0  0  0  0  0  0  0
   54.5780   22.6110   45.3670 N   0  0  0  0  0  0  0  0  0  0  0  0
   55.7070   23.0820   45.9560 C   0  0  0  0  0  0  0  0  0  0  0  0
   56.6380   22.2810   46.2380 O   0  0  0  0  0  0  0  0  0  0  0  0
  1  2  1  0
  2  3  2  0
  3  4  1  0
  4  5  2  0
  5  6  1  0
  5  7  1  0
  7  8  1  0
  8  9  2  0
  8 10  1  0
  7 11  2  0
 11 12  1  0
 11 13  1  0
 13 14  1  0
 13 15  2  0
 15 16  1  0
  2 17  1  0
 17 18  2  0
 18 19  1  0
 18 20  1  0
 20 21  1  0
 21 22  2  0
 21 23  1  0
 23 24  1  0
 24 25  2  0
 15  4  1  0
 24 17  1  0
M  CHG  4  10  -1  19  -1  20  -1  23  -1
M  END
>  <UniqueID>  (28) 
25

>  <SMILES>  (28) 
O=C([O-])c1ccc(Cl)c(/N=C\c2c([O-])[n-]c(=O)[n-]c2=O)c1

>  <Energy>  (28) 
43.99653120241122

>  <Genealogy>  (28) 
O=C([O-])c1ccc(Cl)c(N=Cc2c([O-])[n-]c(=O)[n-]c2=O)c1 (protonated)
O=C([O-])c1ccc(Cl)c(/N=C\c2c([O-])[n-]c(=O)[n-]c2=O)c1 (cis-trans isomerization)
O=C([O-])c1ccc(Cl)c(/N=C\c2c([O-])[n-]c(=O)[n-]c2=O)c1 (3D coordinates assigned)
O=C([O-])c1ccc(Cl)c(/N=C\c2c([O-])[n-]c(=O)[n-]c2=O)c1 (optimized conformer: 43.99653120241122 kcal/mol)

>  <smiles>  (28) 
O=C(O)c1ccc(Cl)c(N=Cc2c(O)[nH]c(=O)[nH]c2=O)c1

>  <score_type>  (28) 
oracle

>  <origin>  (28) 
adg

>  <m_score__min__energy>  (28) 
-16.210000000000001

>  <m_primary>  (28) 
energy

$$$$
28:0
     RDKit          3D

 33 35  0  0  0  0  0  0  0  0999 V2000
   55.5850   26.9830   45.9830 N   0  0  0  0  0  0  0  0  0  0  0  0
   57.2050   27.5640   45.8420 S   0  0  0  0  0  0  0  0  0  0  0  0
   58.0570   26.5160   45.1790 O   0  0  0  0  0  0  0  0  0  0  0  0
   57.7620   27.8440   47.2090 O   0  0  0  0  0  0  0  0  0  0  0  0
   57.2150   29.0400   44.8820 C   0  0  0  0  0  0  0  0  0  0  0  0
   56.6630   29.0480   43.5950 C   0  0  0  0  0  0  0  0  0  0  0  0
   56.6620   30.2230   42.8410 C   0  0  0  0  0  0  0  0  0  0  0  0
   57.2080   31.3970   43.3660 C   0  0  0  0  0  0  0  0  0  0  0  0
   57.7650   31.4080   44.6600 C   0  0  0  0  0  0  0  0  0  0  0  0
   58.3480   32.6440   45.2450 C   0  0  0  0  0  0  0  0  0  0  0  0
   58.5060   33.8510   44.5540 C   0  0  0  0  0  0  0  0  0  0  0  0
   59.2220   34.9690   45.5910 S   0  0  0  0  0  0  0  0  0  0  0  0
   59.3060   33.8790   46.8610 C   0  0  0  0  0  0  0  0  0  0  0  0
   59.7820   34.1700   48.0330 N   0  0  0  0  0  0  0  0  0  0  0  0
   61.1040   33.8280   48.4750 C   0  0  0  0  0  0  0  0  0  0  0  0
   62.1310   33.7520   47.5270 C   0  0  0  0  0  0  0  0  0  0  0  0
   63.4320   33.4240   47.9160 C   0  0  0  0  0  0  0  0  0  0  0  0
   63.7140   33.1530   49.2580 C   0  0  0  0  0  0  0  0  0  0  0  0
   65.3480   32.7410   49.7450 Cl  0  0  0  0  0  0  0  0  0  0  0  0
   62.6890   33.1940   50.2080 C   0  0  0  0  0  0  0  0  0  0  0  0
   61.3820   33.5210   49.8260 C   0  0  0  0  0  0  0  0  0  0  0  0
   60.1130   33.4620   51.0440 Cl  0  0  0  0  0  0  0  0  0  0  0  0
   58.7940   32.6740   46.5320 N   0  0  0  0  0  0  0  0  0  0  0  0
   57.7550   30.2180   45.4120 C   0  0  0  0  0  0  0  0  0  0  0  0
   55.1450   27.0730   45.0400 H   0  0  0  0  0  0  0  0  0  0  0  0
   56.2296   28.1272   43.1776 H   0  0  0  0  0  0  0  0  0  0  0  0
   56.2296   30.2245   41.8295 H   0  0  0  0  0  0  0  0  0  0  0  0
   57.2029   32.3185   42.7653 H   0  0  0  0  0  0  0  0  0  0  0  0
   58.2124   34.0379   43.5105 H   0  0  0  0  0  0  0  0  0  0  0  0
   61.9120   33.9520   46.4677 H   0  0  0  0  0  0  0  0  0  0  0  0
   64.2351   33.3790   47.1657 H   0  0  0  0  0  0  0  0  0  0  0  0
   62.9105   32.9681   51.2615 H   0  0  0  0  0  0  0  0  0  0  0  0
   58.1764   30.2136   46.4281 H   0  0  0  0  0  0  0  0  0  0  0  0
  1  2  1  0
  2  3  2  0
  2  4  2  0
  2  5  1  0
  5  6  2  0
  6  7  1  0
  7  8  2  0
  8  9  1  0
  9 10  1  0
 10 11  2  0
 11 12  1  0
 12 13  1  0
 13 14  2  3
 14 15  1  0
 15 16  2  0
 16 17  1  0
 17 18  2  0
 18 19  1  0
 18 20  1  0
 20 21  2  0
 21 22  1  0
 13 23  1  0
  9 24  2  0
 24  5  1  0
 23 10  1  0
 21 15  1  0
  1 25  1  0
  6 26  1  0
  7 27  1  0
  8 28  1  0
 11 29  1  0
 16 30  1  0
 17 31  1  0
 20 32  1  0
 24 33  1  0
M  CHG  2   1  -1  23  -1
M  END
>  <UniqueID>  (29) 
26

>  <SMILES>  (29) 
[NH-]S(=O)(=O)c1cccc(-c2csc(=Nc3ccc(Cl)cc3Cl)[n-]2)c1

>  <Energy>  (29) 
75.6938015983006

>  <Genealogy>  (29) 
[NH-]S(=O)(=O)c1cccc(-c2csc(=Nc3ccc(Cl)cc3Cl)[n-]2)c1 (protonated)
[NH-]S(=O)(=O)c1cccc(-c2csc(=Nc3ccc(Cl)cc3Cl)[n-]2)c1 (3D coordinates assigned)
[NH-]S(=O)(=O)c1cccc(-c2csc(=Nc3ccc(Cl)cc3Cl)[n-]2)c1 (optimized conformer: 75.6938015983006 kcal/mol)

>  <smiles>  (29) 
NS(=O)(=O)c1cccc(-c2csc(=Nc3ccc(Cl)cc3Cl)[nH]2)c1

>  <score_type>  (29) 
oracle

>  <origin>  (29) 
adg

>  <m_score__min__energy>  (29) 
-12.5

>  <m_primary>  (29) 
energy

$$$$
29:0
     RDKit          3D

 51 54  0  0  0  0  0  0  0  0999 V2000
   54.9050   26.3270   45.9760 N   0  0  0  0  0  0  0  0  0  0  0  0
   56.3440   25.4100   46.2570 S   0  0  0  0  0  0  0  0  0  0  0  0
   56.4450   24.3350   45.2110 O   0  0  0  0  0  0  0  0  0  0  0  0
   56.2830   24.7780   47.6180 O   0  0  0  0  0  0  0  0  0  0  0  0
   57.7440   26.4720   46.1670 C   0  0  0  0  0  0  0  0  0  0  0  0
   58.3560   26.7410   44.9360 C   0  0  0  0  0  0  0  0  0  0  0  0
   59.4750   27.5760   44.8760 C   0  0  0  0  0  0  0  0  0  0  0  0
   59.9850   28.1520   46.0420 C   0  0  0  0  0  0  0  0  0  0  0  0
   59.3700   27.9010   47.2820 C   0  0  0  0  0  0  0  0  0  0  0  0
   59.8700   28.4570   48.5050 N   0  0  0  0  0  0  0  0  0  0  0  0
   59.3560   29.6110   49.1810 C   0  0  0  0  0  0  0  0  0  0  0  0
   58.5130   29.4940   50.1110 O   0  0  0  0  0  0  0  0  0  0  0  0
   59.9070   30.9590   48.8500 C   0  0  0  0  0  0  0  0  0  0  0  0
   58.5920   32.2300   48.8910 S   0  0  0  0  0  0  0  0  0  0  0  0
   58.2780   32.1880   47.1150 C   0  0  0  0  0  0  0  0  0  0  0  0
   57.8650   31.0010   46.5810 N   0  0  0  0  0  0  0  0  0  0  0  0
   57.5930   30.9100   45.2600 C   0  0  0  0  0  0  0  0  0  0  0  0
   57.1650   29.7550   44.6030 C   0  0  0  0  0  0  0  0  0  0  0  0
   56.9650   29.9680   43.2390 C   0  0  0  0  0  0  0  0  0  0  0  0
   57.3220   31.5820   42.8710 S   0  0  0  0  0  0  0  0  0  0  0  0
   57.7260   32.0050   44.4450 C   0  0  0  0  0  0  0  0  0  0  0  0
   58.1560   33.2170   44.9630 C   0  0  0  0  0  0  0  0  0  0  0  0
   58.2880   34.2100   44.1960 O   0  0  0  0  0  0  0  0  0  0  0  0
   58.4450   33.3030   46.3090 N   0  0  0  0  0  0  0  0  0  0  0  0
   59.0080   34.5570   46.8560 C   0  0  0  0  0  0  0  0  0  0  0  0
   60.4560   34.7710   46.3930 C   0  0  0  0  0  0  0  0  0  0  0  0
   61.4410   34.0750   47.2960 C   0  0  0  0  0  0  0  0  0  0  0  0
   61.3180   34.1800   48.6910 C   0  0  0  0  0  0  0  0  0  0  0  0
   62.2620   33.5750   49.5280 C   0  0  0  0  0  0  0  0  0  0  0  0
   63.3350   32.8700   48.9780 C   0  0  0  0  0  0  0  0  0  0  0  0
   63.4700   32.7690   47.5910 C   0  0  0  0  0  0  0  0  0  0  0  0
   62.5280   33.3710   46.7510 C   0  0  0  0  0  0  0  0  0  0  0  0
   58.2640   27.0430   47.3370 C   0  0  0  0  0  0  0  0  0  0  0  0
   55.1470   27.3310   46.1330 H   0  0  0  0  0  0  0  0  0  0  0  0
   57.9549   26.2940   44.0145 H   0  0  0  0  0  0  0  0  0  0  0  0
   59.9556   27.7803   43.9078 H   0  0  0  0  0  0  0  0  0  0  0  0
   60.8698   28.8035   45.9904 H   0  0  0  0  0  0  0  0  0  0  0  0
   60.6837   31.2206   49.5837 H   0  0  0  0  0  0  0  0  0  0  0  0
   60.3319   30.9256   47.8359 H   0  0  0  0  0  0  0  0  0  0  0  0
   57.0041   28.7886   45.1031 H   0  0  0  0  0  0  0  0  0  0  0  0
   56.6290   29.2087   42.5175 H   0  0  0  0  0  0  0  0  0  0  0  0
   58.3944   35.4036   46.5142 H   0  0  0  0  0  0  0  0  0  0  0  0
   59.0026   34.4884   47.9538 H   0  0  0  0  0  0  0  0  0  0  0  0
   60.5660   34.3741   45.3730 H   0  0  0  0  0  0  0  0  0  0  0  0
   60.6684   35.8499   46.4225 H   0  0  0  0  0  0  0  0  0  0  0  0
   60.4772   34.7394   49.1269 H   0  0  0  0  0  0  0  0  0  0  0  0
   62.1590   33.6547   50.6203 H   0  0  0  0  0  0  0  0  0  0  0  0
   64.0750   32.3935   49.6379 H   0  0  0  0  0  0  0  0  0  0  0  0
   64.3174   32.2159   47.1598 H   0  0  0  0  0  0  0  0  0  0  0  0
   62.6384   33.2931   45.6593 H   0  0  0  0  0  0  0  0  0  0  0  0
   57.7991   26.8151   48.3075 H   0  0  0  0  0  0  0  0  0  0  0  0
  1  2  1  0
  2  3  2  0
  2  4  2  0
  2  5  1  0
  5  6  2  0
  6  7  1  0
  7  8  2  0
  8  9  1  0
  9 10  1  0
 10 11  1  0
 11 12  2  0
 11 13  1  0
 13 14  1  0
 14 15  1  0
 15 16  2  0
 16 17  1  0
 17 18  1  0
 18 19  2  0
 19 20  1  0
 20 21  1  0
 21 22  1  0
 22 23  2  0
 22 24  1  0
 24 25  1  0
 25 26  1  0
 26 27  1  0
 27 28  2  0
 28 29  1  0
 29 30  2  0
 30 31  1  0
 31 32  2  0
  9 33  2  0
 33  5  1  0
 24 15  1  0
 32 27  1  0
 21 17  2  0
  1 34  1  0
  6 35  1  0
  7 36  1  0
  8 37  1  0
 13 38  1  0
 13 39  1  0
 18 40  1  0
 19 41  1  0
 25 42  1  0
 25 43  1  0
 26 44  1  0
 26 45  1  0
 28 46  1  0
 29 47  1  0
 30 48  1  0
 31 49  1  0
 32 50  1  0
 33 51  1  0
M  CHG  2   1  -1  10  -1
M  END
>  <UniqueID>  (30) 
27

>  <SMILES>  (30) 
[NH-]S(=O)(=O)c1cccc([N-]C(=O)CSc2nc3ccsc3c(=O)n2CCc2ccccc2)c1

>  <Energy>  (30) 
86.04013491014383

>  <Genealogy>  (30) 
[NH-]S(=O)(=O)c1cccc([N-]C(=O)CSc2nc3ccsc3c(=O)n2CCc2ccccc2)c1 (protonated)
[NH-]S(=O)(=O)c1cccc([N-]C(=O)CSc2nc3ccsc3c(=O)n2CCc2ccccc2)c1 (3D coordinates assigned)
[NH-]S(=O)(=O)c1cccc([N-]C(=O)CSc2nc3ccsc3c(=O)n2CCc2ccccc2)c1 (optimized conformer: 86.04013491014383 kcal/mol)

>  <smiles>  (30) 
NS(=O)(=O)c1cccc(NC(=O)CSc2nc3ccsc3c(=O)n2CCc2ccccc2)c1

>  <score_type>  (30) 
oracle

>  <origin>  (30) 
adg

>  <m_score__min__energy>  (30) 
-14.1

>  <m_primary>  (30) 
energy

$$$$
30:0
     RDKit          3D

 51 55  0  0  0  0  0  0  0  0999 V2000
   56.5650   22.9640   47.9010 C   0  0  0  0  0  0  0  0  0  0  0  0
   57.5010   22.5250   46.9210 O   0  0  0  0  0  0  0  0  0  0  0  0
   57.2170   22.3950   45.5520 C   0  0  0  0  0  0  0  0  0  0  0  0
   56.9230   21.1470   44.9680 C   0  0  0  0  0  0  0  0  0  0  0  0
   56.6450   21.0540   43.6020 C   0  0  0  0  0  0  0  0  0  0  0  0
   56.6490   22.2000   42.8070 C   0  0  0  0  0  0  0  0  0  0  0  0
   56.9380   23.4430   43.3740 C   0  0  0  0  0  0  0  0  0  0  0  0
   57.2390   23.5490   44.7430 C   0  0  0  0  0  0  0  0  0  0  0  0
   57.5080   24.8300   45.3400 N   0  0  0  0  0  0  0  0  0  0  0  0
   57.7470   26.0290   44.5780 C   0  0  0  0  0  0  0  0  0  0  0  0
   57.7710   25.9780   43.3170 O   0  0  0  0  0  0  0  0  0  0  0  0
   57.9760   27.3310   45.2470 C   0  0  0  0  0  0  0  0  0  0  0  0
   58.6690   27.3750   46.4690 C   0  0  0  0  0  0  0  0  0  0  0  0
   58.8930   28.5920   47.1200 C   0  0  0  0  0  0  0  0  0  0  0  0
   58.4170   29.7900   46.5610 C   0  0  0  0  0  0  0  0  0  0  0  0
   58.6140   31.0380   47.1770 C   0  0  0  0  0  0  0  0  0  0  0  0
   59.2450   31.1010   48.2690 O   0  0  0  0  0  0  0  0  0  0  0  0
   58.1240   32.1830   46.5940 N   0  0  0  0  0  0  0  0  0  0  0  0
   58.3020   33.4880   47.2630 C   0  0  0  0  0  0  0  0  0  0  0  0
   59.7360   33.6740   47.6850 C   0  0  0  0  0  0  0  0  0  0  0  0
   60.7750   33.6550   46.7170 C   0  0  0  0  0  0  0  0  0  0  0  0
   62.1190   33.7960   47.1100 C   0  0  0  0  0  0  0  0  0  0  0  0
   62.3880   33.9490   48.4660 C   0  0  0  0  0  0  0  0  0  0  0  0
   61.4010   33.9650   49.3960 C   0  0  0  0  0  0  0  0  0  0  0  0
   60.0600   33.8290   49.0510 C   0  0  0  0  0  0  0  0  0  0  0  0
   61.9540   34.1280   50.6510 O   0  0  0  0  0  0  0  0  0  0  0  0
   63.3780   34.2200   50.4990 C   0  0  0  0  0  0  0  0  0  0  0  0
   63.6120   34.1010   49.0890 O   0  0  0  0  0  0  0  0  0  0  0  0
   57.4320   32.1010   45.4100 C   0  0  0  0  0  0  0  0  0  0  0  0
   56.9680   33.1350   44.8590 O   0  0  0  0  0  0  0  0  0  0  0  0
   57.2380   30.9000   44.8080 N   0  0  0  0  0  0  0  0  0  0  0  0
   57.7110   29.7510   45.3470 C   0  0  0  0  0  0  0  0  0  0  0  0
   57.4900   28.5310   44.6970 C   0  0  0  0  0  0  0  0  0  0  0  0
   56.9700   22.7740   48.9059 H   0  0  0  0  0  0  0  0  0  0  0  0
   56.3825   24.0416   47.7769 H   0  0  0  0  0  0  0  0  0  0  0  0
   55.6197   22.4153   47.7769 H   0  0  0  0  0  0  0  0  0  0  0  0
   56.9123   20.2406   45.5912 H   0  0  0  0  0  0  0  0  0  0  0  0
   56.4225   20.0750   43.1526 H   0  0  0  0  0  0  0  0  0  0  0  0
   56.4244   22.1246   41.7328 H   0  0  0  0  0  0  0  0  0  0  0  0
   56.9301   24.3454   42.7450 H   0  0  0  0  0  0  0  0  0  0  0  0
   57.5670   24.8680   46.3810 H   0  0  0  0  0  0  0  0  0  0  0  0
   59.0392   26.4417   46.9182 H   0  0  0  0  0  0  0  0  0  0  0  0
   59.4433   28.6116   48.0722 H   0  0  0  0  0  0  0  0  0  0  0  0
   58.0223   34.2926   46.5670 H   0  0  0  0  0  0  0  0  0  0  0  0
   57.6615   33.5196   48.1567 H   0  0  0  0  0  0  0  0  0  0  0  0
   60.5275   33.5292   45.6526 H   0  0  0  0  0  0  0  0  0  0  0  0
   62.9311   33.7855   46.3681 H   0  0  0  0  0  0  0  0  0  0  0  0
   59.2741   33.8418   49.8206 H   0  0  0  0  0  0  0  0  0  0  0  0
   63.7442   35.1883   50.8708 H   0  0  0  0  0  0  0  0  0  0  0  0
   63.9046   33.4419   51.0712 H   0  0  0  0  0  0  0  0  0  0  0  0
   56.9322   28.5106   43.7491 H   0  0  0  0  0  0  0  0  0  0  0  0
  1  2  1  0
  2  3  1  0
  3  4  2  0
  4  5  1  0
  5  6  2  0
  6  7  1  0
  7  8  2  0
  8  9  1  0
  9 10  1  0
 10 11  2  0
 10 12  1  0
 12 13  2  0
 13 14  1  0
 14 15  2  0
 15 16  1  0
 16 17  2  0
 16 18  1  0
 18 19  1  0
 19 20  1  0
 20 21  2  0
 21 22  1  0
 22 23  2  0
 23 24  1  0
 24 25  2  0
 24 26  1  0
 26 27  1  0
 27 28  1  0
 18 29  1  0
 29 30  2  0
 29 31  1  0
 31 32  1  0
 32 33  2  0
  8  3  1  0
 33 12  1  0
 32 15  1  0
 25 20  1  0
 28 23  1  0
  1 34  1  0
  1 35  1  0
  1 36  1  0
  4 37  1  0
  5 38  1  0
  6 39  1  0
  7 40  1  0
  9 41  1  0
 13 42  1  0
 14 43  1  0
 19 44  1  0
 19 45  1  0
 21 46  1  0
 22 47  1  0
 25 48  1  0
 27 49  1  0
 27 50  1  0
 33 51  1  0
M  CHG  1  31  -1
M  END
>  <UniqueID>  (31) 
28

>  <SMILES>  (31) 
COc1ccccc1NC(=O)c1ccc2c(=O)n(Cc3ccc4c(c3)OCO4)c(=O)[n-]c2c1

>  <Energy>  (31) 
99.65915603603511

>  <Genealogy>  (31) 
COc1ccccc1NC(=O)c1ccc2c(=O)n(Cc3ccc4c(c3)OCO4)c(=O)[n-]c2c1 (protonated)
COc1ccccc1NC(=O)c1ccc2c(=O)n(Cc3ccc4c(c3)OCO4)c(=O)[n-]c2c1 (3D coordinates assigned)
COc1ccccc1NC(=O)c1ccc2c(=O)n(Cc3ccc4c(c3)OCO4)c(=O)[n-]c2c1 (nonaromatic ring conformer: 99.65915603603511 kcal/mol)

>  <smiles>  (31) 
COc1ccccc1NC(=O)c1ccc2c(=O)n(Cc3ccc4c(c3)OCO4)c(=O)[nH]c2c1

>  <score_type>  (31) 
oracle

>  <origin>  (31) 
adg

>  <m_score__min__energy>  (31) 
-10.17

>  <m_primary>  (31) 
energy

$$$$
31:0
     RDKit          3D

 57 60  0  0  0  0  0  0  0  0999 V2000
   55.3730   30.6410   44.5290 O   0  0  0  0  0  0  0  0  0  0  0  0
   56.7470   30.3730   43.9770 S   0  0  0  0  0  0  0  0  0  0  0  0
   56.7100   30.5050   42.4800 O   0  0  0  0  0  0  0  0  0  0  0  0
   57.2700   28.7410   44.3830 C   0  0  0  0  0  0  0  0  0  0  0  0
   57.2290   28.3080   45.7180 C   0  0  0  0  0  0  0  0  0  0  0  0
   57.6570   27.0190   46.0490 C   0  0  0  0  0  0  0  0  0  0  0  0
   58.1300   26.1570   45.0480 C   0  0  0  0  0  0  0  0  0  0  0  0
   58.1830   26.5900   43.7200 C   0  0  0  0  0  0  0  0  0  0  0  0
   57.7570   27.8790   43.3840 C   0  0  0  0  0  0  0  0  0  0  0  0
   57.8610   31.5220   44.6560 N   0  0  0  0  0  0  0  0  0  0  0  0
   58.0930   32.7920   43.9600 C   0  0  0  0  0  0  0  0  0  0  0  0
   57.7200   33.9790   44.8480 C   0  0  0  0  0  0  0  0  0  0  0  0
   58.8870   34.7330   45.1720 O   0  0  0  0  0  0  0  0  0  0  0  0
   59.7210   34.4590   46.2610 C   0  0  0  0  0  0  0  0  0  0  0  0
   59.2640   34.7810   47.5430 C   0  0  0  0  0  0  0  0  0  0  0  0
   60.0730   34.5500   48.6600 C   0  0  0  0  0  0  0  0  0  0  0  0
   61.3440   33.9900   48.4980 C   0  0  0  0  0  0  0  0  0  0  0  0
   61.7990   33.6380   47.2200 C   0  0  0  0  0  0  0  0  0  0  0  0
   61.0000   33.8790   46.1080 C   0  0  0  0  0  0  0  0  0  0  0  0
   58.6200   31.1780   45.8280 C   0  0  0  0  0  0  0  0  0  0  0  0
   59.8020   30.4330   45.7010 C   0  0  0  0  0  0  0  0  0  0  0  0
   60.5620   30.1190   46.8300 C   0  0  0  0  0  0  0  0  0  0  0  0
   60.1580   30.5520   48.1000 C   0  0  0  0  0  0  0  0  0  0  0  0
   60.9370   30.2280   49.2650 N   0  0  0  0  0  0  0  0  0  0  0  0
   62.2190   30.9140   49.4800 C   0  0  0  0  0  0  0  0  0  0  0  0
   62.6700   30.7600   50.9320 C   0  0  0  0  0  0  0  0  0  0  0  0
   62.6410   29.4040   51.3170 O   0  0  0  0  0  0  0  0  0  0  0  0
   61.2960   28.9710   51.3710 C   0  0  0  0  0  0  0  0  0  0  0  0
   60.6590   28.9640   49.9700 C   0  0  0  0  0  0  0  0  0  0  0  0
   58.9800   31.3060   48.2260 C   0  0  0  0  0  0  0  0  0  0  0  0
   58.2190   31.6200   47.0970 C   0  0  0  0  0  0  0  0  0  0  0  0
   56.8599   28.9834   46.5039 H   0  0  0  0  0  0  0  0  0  0  0  0
   57.6229   26.6802   47.0950 H   0  0  0  0  0  0  0  0  0  0  0  0
   58.4592   25.1402   45.3084 H   0  0  0  0  0  0  0  0  0  0  0  0
   58.5606   25.9154   42.9375 H   0  0  0  0  0  0  0  0  0  0  0  0
   57.8028   28.2186   42.3387 H   0  0  0  0  0  0  0  0  0  0  0  0
   59.1568   32.8651   43.6898 H   0  0  0  0  0  0  0  0  0  0  0  0
   57.4638   32.8175   43.0580 H   0  0  0  0  0  0  0  0  0  0  0  0
   57.0068   34.6237   44.3134 H   0  0  0  0  0  0  0  0  0  0  0  0
   57.2628   33.6054   45.7761 H   0  0  0  0  0  0  0  0  0  0  0  0
   58.2631   35.2182   47.6733 H   0  0  0  0  0  0  0  0  0  0  0  0
   59.7097   34.8087   49.6655 H   0  0  0  0  0  0  0  0  0  0  0  0
   61.9876   33.8255   49.3748 H   0  0  0  0  0  0  0  0  0  0  0  0
   62.7875   33.1714   47.0968 H   0  0  0  0  0  0  0  0  0  0  0  0
   61.3655   33.6168   45.1042 H   0  0  0  0  0  0  0  0  0  0  0  0
   60.1317   30.0946   44.7076 H   0  0  0  0  0  0  0  0  0  0  0  0
   61.4835   29.5281   46.7215 H   0  0  0  0  0  0  0  0  0  0  0  0
   62.9795   30.4770   48.8162 H   0  0  0  0  0  0  0  0  0  0  0  0
   62.0923   31.9838   49.2578 H   0  0  0  0  0  0  0  0  0  0  0  0
   63.6957   31.1437   51.0351 H   0  0  0  0  0  0  0  0  0  0  0  0
   61.9857   31.3282   51.5792 H   0  0  0  0  0  0  0  0  0  0  0  0
   61.2629   27.9527   51.7857 H   0  0  0  0  0  0  0  0  0  0  0  0
   60.7305   29.6668   52.0082 H   0  0  0  0  0  0  0  0  0  0  0  0
   61.0742   28.1275   49.3887 H   0  0  0  0  0  0  0  0  0  0  0  0
   59.5701   28.8510   50.0772 H   0  0  0  0  0  0  0  0  0  0  0  0
   58.6547   31.6512   49.2185 H   0  0  0  0  0  0  0  0  0  0  0  0
   57.3011   32.2167   47.2041 H   0  0  0  0  0  0  0  0  0  0  0  0
  1  2  2  0
  2  3  2  0
  2  4  1  0
  4  5  2  0
  5  6  1  0
  6  7  2  0
  7  8  1  0
  8  9  2  0
  2 10  1  0
 10 11  1  0
 11 12  1  0
 12 13  1  0
 13 14  1  0
 14 15  2  0
 15 16  1  0
 16 17  2  0
 17 18  1  0
 18 19  2  0
 10 20  1  0
 20 21  2  0
 21 22  1  0
 22 23  2  0
 23 24  1  0
 24 25  1  0
 25 26  1  0
 26 27  1  0
 27 28  1  0
 28 29  1  0
 23 30  1  0
 30 31  2  0
  9  4  1  0
 19 14  1  0
 31 20  1  0
 29 24  1  0
  5 32  1  0
  6 33  1  0
  7 34  1  0
  8 35  1  0
  9 36  1  0
 11 37  1  0
 11 38  1  0
 12 39  1  0
 12 40  1  0
 15 41  1  0
 16 42  1  0
 17 43  1  0
 18 44  1  0
 19 45  1  0
 21 46  1  0
 22 47  1  0
 25 48  1  0
 25 49  1  0
 26 50  1  0
 26 51  1  0
 28 52  1  0
 28 53  1  0
 29 54  1  0
 29 55  1  0
 30 56  1  0
 31 57  1  0
M  END
>  <UniqueID>  (32) 
29

>  <SMILES>  (32) 
O=S(=O)(c1ccccc1)N(CCOc1ccccc1)c1ccc(N2CCOCC2)cc1

>  <Energy>  (32) 
68.39795543229413

>  <Genealogy>  (32) 
O=S(=O)(c1ccccc1)N(CCOc1ccccc1)c1ccc(N2CCOCC2)cc1 (3D coordinates assigned)
O=S(=O)(c1ccccc1)N(CCOc1ccccc1)c1ccc(N2CCOCC2)cc1 (nonaromatic ring conformer: 68.39795543229413 kcal/mol)

>  <smiles>  (32) 
O=S(=O)(c1ccccc1)N(CCOc1ccccc1)c1ccc(N2CCOCC2)cc1

>  <score_type>  (32) 
oracle

>  <origin>  (32) 
adg

>  <m_score__min__energy>  (32) 
-9.8800000000000008

>  <m_primary>  (32) 
energy

$$$$
32:0
     RDKit          3D

 37 38  0  0  0  0  0  0  0  0999 V2000
   60.4030   27.2700   46.6410 C   0  0  0  0  0  0  0  0  0  0  0  0
   60.1340   27.2360   48.1420 C   0  0  0  0  0  0  0  0  0  0  0  0
   60.5260   28.4640   48.7550 O   0  0  0  0  0  0  0  0  0  0  0  0
   60.3930   29.7400   48.1830 C   0  0  0  0  0  0  0  0  0  0  0  0
   59.0990   30.1580   47.7900 C   0  0  0  0  0  0  0  0  0  0  0  0
   58.8930   31.4210   47.2080 C   0  0  0  0  0  0  0  0  0  0  0  0
   60.0010   32.2460   47.0340 C   0  0  0  0  0  0  0  0  0  0  0  0
   60.1220   33.5080   46.4860 C   0  0  0  0  0  0  0  0  0  0  0  0
   59.0460   34.3320   45.8390 C   0  0  0  0  0  0  0  0  0  0  0  0
   58.5980   33.7340   44.5010 C   0  0  0  0  0  0  0  0  0  0  0  0
   57.6580   32.5790   44.6990 C   0  0  0  0  0  0  0  0  0  0  0  0
   56.6510   32.7260   45.4430 O   0  0  0  0  0  0  0  0  0  0  0  0
   57.8860   31.3420   44.0050 N   0  0  0  0  0  0  0  0  0  0  0  0
   56.9950   30.2170   44.0510 C   0  0  0  0  0  0  0  0  0  0  0  0
   57.2870   29.0490   43.2850 N   0  0  0  0  0  0  0  0  0  0  0  0
   55.9550   30.2480   44.7600 O   0  0  0  0  0  0  0  0  0  0  0  0
   61.4780   33.8130   46.5420 C   0  0  0  0  0  0  0  0  0  0  0  0
   62.1670   32.7980   47.1110 N   0  0  0  0  0  0  0  0  0  0  0  0
   61.2590   31.8510   47.4050 C   0  0  0  0  0  0  0  0  0  0  0  0
   61.4980   30.6050   47.9810 C   0  0  0  0  0  0  0  0  0  0  0  0
   61.4802   27.4062   46.4645 H   0  0  0  0  0  0  0  0  0  0  0  0
   60.0740   26.3231   46.1880 H   0  0  0  0  0  0  0  0  0  0  0  0
   59.8488   28.1052   46.1880 H   0  0  0  0  0  0  0  0  0  0  0  0
   59.0593   27.0749   48.3122 H   0  0  0  0  0  0  0  0  0  0  0  0
   60.7190   26.4174   48.5866 H   0  0  0  0  0  0  0  0  0  0  0  0
   58.2423   29.4850   47.9422 H   0  0  0  0  0  0  0  0  0  0  0  0
   57.8886   31.7470   46.8999 H   0  0  0  0  0  0  0  0  0  0  0  0
   58.1797   34.3805   46.5151 H   0  0  0  0  0  0  0  0  0  0  0  0
   59.4535   35.3353   45.6457 H   0  0  0  0  0  0  0  0  0  0  0  0
   58.0883   34.5127   43.9147 H   0  0  0  0  0  0  0  0  0  0  0  0
   59.4898   33.3654   43.9729 H   0  0  0  0  0  0  0  0  0  0  0  0
   58.7390   31.2630   43.4050 H   0  0  0  0  0  0  0  0  0  0  0  0
   58.1410   29.0060   42.6860 H   0  0  0  0  0  0  0  0  0  0  0  0
   56.6440   28.2270   43.3110 H   0  0  0  0  0  0  0  0  0  0  0  0
   61.9266   34.7480   46.1752 H   0  0  0  0  0  0  0  0  0  0  0  0
   63.1990   32.7540   47.2690 H   0  0  0  0  0  0  0  0  0  0  0  0
   62.5148   30.3012   48.2707 H   0  0  0  0  0  0  0  0  0  0  0  0
  1  2  1  0
  2  3  1  0
  3  4  1  0
  4  5  2  0
  5  6  1  0
  6  7  2  0
  7  8  1  0
  8  9  1  0
  9 10  1  0
 10 11  1  0
 11 12  2  0
 11 13  1  0
 13 14  1  0
 14 15  1  0
 14 16  2  0
  8 17  2  0
 17 18  1  0
 18 19  1  0
 19 20  2  0
 20  4  1  0
 19  7  1  0
  1 21  1  0
  1 22  1  0
  1 23  1  0
  2 24  1  0
  2 25  1  0
  5 26  1  0
  6 27  1  0
  9 28  1  0
  9 29  1  0
 10 30  1  0
 10 31  1  0
 13 32  1  0
 15 33  1  0
 15 34  1  0
 17 35  1  0
 18 36  1  0
 20 37  1  0
M  END
>  <UniqueID>  (33) 
30

>  <SMILES>  (33) 
CCOc1ccc2c(CCC(=O)NC(N)=O)c[nH]c2c1

>  <Energy>  (33) 
60.34028815275979

>  <Genealogy>  (33) 
CCOc1ccc2c(CCC(=O)NC(N)=O)c[nH]c2c1 (3D coordinates assigned)
CCOc1ccc2c(CCC(=O)NC(N)=O)c[nH]c2c1 (optimized conformer: 60.34028815275979 kcal/mol)

>  <smiles>  (33) 
CCOc1ccc2c(CCC(=O)NC(N)=O)c[nH]c2c1

>  <score_type>  (33) 
oracle

>  <origin>  (33) 
adg

>  <m_score__min__energy>  (33) 
-7.5599999999999996

>  <m_primary>  (33) 
energy

$$$$
33:0
     RDKit          3D

 55 58  0  0  0  0  0  0  0  0999 V2000
   55.0860   29.1790   44.5070 O   0  0  0  0  0  0  0  0  0  0  0  0
   56.1800   29.7120   44.8360 C   0  0  0  0  0  0  0  0  0  0  0  0
   56.6930   30.8810   44.0560 C   0  0  0  0  0  0  0  0  0  0  0  0
   58.5190   30.8880   43.9630 S   0  0  0  0  0  0  0  0  0  0  0  0
   58.7710   31.6470   45.5760 C   0  0  0  0  0  0  0  0  0  0  0  0
   58.7390   30.8890   46.7060 N   0  0  0  0  0  0  0  0  0  0  0  0
   58.9130   31.4460   47.9410 C   0  0  0  0  0  0  0  0  0  0  0  0
   58.8910   30.7000   48.9590 O   0  0  0  0  0  0  0  0  0  0  0  0
   59.1030   32.8040   48.0750 N   0  0  0  0  0  0  0  0  0  0  0  0
   59.2850   33.4020   49.4120 C   0  0  0  0  0  0  0  0  0  0  0  0
   60.7710   33.5630   49.7670 C   0  0  0  0  0  0  0  0  0  0  0  0
   61.6320   32.9740   48.7160 N   0  0  0  0  0  0  0  0  0  0  0  0
   62.1370   34.0080   47.7870 C   0  0  0  0  0  0  0  0  0  0  0  0
   63.3390   33.4800   46.9860 C   0  0  0  0  0  0  0  0  0  0  0  0
   64.4490   33.0890   47.7870 O   0  0  0  0  0  0  0  0  0  0  0  0
   64.1030   32.7740   49.1290 C   0  0  0  0  0  0  0  0  0  0  0  0
   62.7170   32.1190   49.2650 C   0  0  0  0  0  0  0  0  0  0  0  0
   59.1240   33.5730   46.9400 C   0  0  0  0  0  0  0  0  0  0  0  0
   58.9680   33.0190   45.6990 C   0  0  0  0  0  0  0  0  0  0  0  0
   58.9270   34.0440   44.6280 C   0  0  0  0  0  0  0  0  0  0  0  0
   59.2970   35.3470   45.3540 C   0  0  0  0  0  0  0  0  0  0  0  0
   59.2310   35.0570   46.8630 C   0  0  0  0  0  0  0  0  0  0  0  0
   56.9770   29.1560   45.8900 N   0  0  0  0  0  0  0  0  0  0  0  0
   57.5380   27.8350   45.9110 C   0  0  0  0  0  0  0  0  0  0  0  0
   58.9330   27.6910   45.9180 C   0  0  0  0  0  0  0  0  0  0  0  0
   59.5110   26.4180   45.9570 C   0  0  0  0  0  0  0  0  0  0  0  0
   58.7000   25.2800   46.0060 C   0  0  0  0  0  0  0  0  0  0  0  0
   59.2620   24.0460   46.0490 F   0  0  0  0  0  0  0  0  0  0  0  0
   57.3100   25.4140   46.0350 C   0  0  0  0  0  0  0  0  0  0  0  0
   56.7300   26.6860   45.9920 C   0  0  0  0  0  0  0  0  0  0  0  0
   56.2849   30.8347   43.0356 H   0  0  0  0  0  0  0  0  0  0  0  0
   56.3736   31.8003   44.5687 H   0  0  0  0  0  0  0  0  0  0  0  0
   58.5830   29.8580   46.6260 H   0  0  0  0  0  0  0  0  0  0  0  0
   58.8058   34.3920   49.4276 H   0  0  0  0  0  0  0  0  0  0  0  0
   58.8272   32.7298   50.1526 H   0  0  0  0  0  0  0  0  0  0  0  0
   61.0039   34.6336   49.8653 H   0  0  0  0  0  0  0  0  0  0  0  0
   60.9648   33.0391   50.7146 H   0  0  0  0  0  0  0  0  0  0  0  0
   61.3343   34.2898   47.0897 H   0  0  0  0  0  0  0  0  0  0  0  0
   62.4589   34.8820   48.3723 H   0  0  0  0  0  0  0  0  0  0  0  0
   63.0089   32.6066   46.4044 H   0  0  0  0  0  0  0  0  0  0  0  0
   63.6843   34.3095   46.3515 H   0  0  0  0  0  0  0  0  0  0  0  0
   64.8571   32.0808   49.5300 H   0  0  0  0  0  0  0  0  0  0  0  0
   64.0707   33.7214   49.6870 H   0  0  0  0  0  0  0  0  0  0  0  0
   62.7229   31.1627   48.7214 H   0  0  0  0  0  0  0  0  0  0  0  0
   62.5187   31.9710   50.3368 H   0  0  0  0  0  0  0  0  0  0  0  0
   59.6571   33.8147   43.8378 H   0  0  0  0  0  0  0  0  0  0  0  0
   57.9486   34.0984   44.1281 H   0  0  0  0  0  0  0  0  0  0  0  0
   60.3137   35.6597   45.0738 H   0  0  0  0  0  0  0  0  0  0  0  0
   58.6062   36.1581   45.0801 H   0  0  0  0  0  0  0  0  0  0  0  0
   60.1414   35.4102   47.3693 H   0  0  0  0  0  0  0  0  0  0  0  0
   58.3912   35.5684   47.3562 H   0  0  0  0  0  0  0  0  0  0  0  0
   59.5756   28.5834   45.8927 H   0  0  0  0  0  0  0  0  0  0  0  0
   60.6058   26.3118   45.9491 H   0  0  0  0  0  0  0  0  0  0  0  0
   56.6719   24.5198   46.0916 H   0  0  0  0  0  0  0  0  0  0  0  0
   55.6352   26.7887   46.0217 H   0  0  0  0  0  0  0  0  0  0  0  0
  1  2  2  0
  2  3  1  0
  3  4  1  0
  4  5  1  0
  5  6  2  0
  6  7  1  0
  7  8  2  0
  7  9  1  0
  9 10  1  0
 10 11  1  0
 11 12  1  0
 12 13  1  0
 13 14  1  0
 14 15  1  0
 15 16  1  0
 16 17  1  0
  9 18  1  0
 18 19  2  0
 19 20  1  0
 20 21  1  0
 21 22  1  0
  2 23  1  0
 23 24  1  0
 24 25  2  0
 25 26  1  0
 26 27  2  0
 27 28  1  0
 27 29  1  0
 29 30  2  0
 19  5  1  0
 30 24  1  0
 17 12  1  0
 22 18  1  0
  3 31  1  0
  3 32  1  0
  6 33  1  0
 10 34  1  0
 10 35  1  0
 11 36  1  0
 11 37  1  0
 13 38  1  0
 13 39  1  0
 14 40  1  0
 14 41  1  0
 16 42  1  0
 16 43  1  0
 17 44  1  0
 17 45  1  0
 20 46  1  0
 20 47  1  0
 21 48  1  0
 21 49  1  0
 22 50  1  0
 22 51  1  0
 25 52  1  0
 26 53  1  0
 29 54  1  0
 30 55  1  0
M  CHG  2   6   1  23  -1
M  END
>  <UniqueID>  (34) 
31

>  <SMILES>  (34) 
O=C(CSc1[nH+]c(=O)n(CCN2CCOCC2)c2c1CCC2)[N-]c1ccc(F)cc1

>  <Energy>  (34) 
76.09560379051612

>  <Genealogy>  (34) 
O=C(CSc1[nH+]c(=O)n(CCN2CCOCC2)c2c1CCC2)[N-]c1ccc(F)cc1 (protonated)
O=C(CSc1[nH+]c(=O)n(CCN2CCOCC2)c2c1CCC2)[N-]c1ccc(F)cc1 (3D coordinates assigned)
O=C(CSc1[nH+]c(=O)n(CCN2CCOCC2)c2c1CCC2)[N-]c1ccc(F)cc1 (nonaromatic ring conformer: 76.09560379051612 kcal/mol)

>  <smiles>  (34) 
O=C(CSc1nc(=O)n(CCN2CCOCC2)c2c1CCC2)Nc1ccc(F)cc1

>  <score_type>  (34) 
oracle

>  <origin>  (34) 
adg

>  <m_score__min__energy>  (34) 
-9.6400000000000006

>  <m_primary>  (34) 
energy

$$$$
34:0
     RDKit          3D

 65 69  0  0  0  0  0  0  0  0999 V2000
   56.2090   28.9700   44.6470 C   0  0  0  0  0  0  0  0  0  0  0  0
   57.5130   29.0370   45.3760 C   0  0  0  0  0  0  0  0  0  0  0  0
   57.8130   28.2650   46.4380 N   0  0  0  0  0  0  0  0  0  0  0  0
   58.9830   28.6660   46.9120 N   0  0  0  0  0  0  0  0  0  0  0  0
   59.6460   28.0100   48.0390 C   0  0  0  0  0  0  0  0  0  0  0  0
   59.7870   28.9760   49.1830 C   0  0  0  0  0  0  0  0  0  0  0  0
   61.0400   29.1700   49.7860 C   0  0  0  0  0  0  0  0  0  0  0  0
   61.1890   30.0940   50.8240 C   0  0  0  0  0  0  0  0  0  0  0  0
   60.0980   30.8670   51.2480 C   0  0  0  0  0  0  0  0  0  0  0  0
   60.2770   31.8140   52.3130 N   0  0  0  0  0  0  0  0  0  0  0  0
   59.6550   33.1090   52.3250 C   0  0  0  0  0  0  0  0  0  0  0  0
   58.9580   33.4930   51.3460 O   0  0  0  0  0  0  0  0  0  0  0  0
   59.8490   34.0090   53.4790 C   0  0  0  0  0  0  0  0  0  0  0  0
   58.9160   35.0400   53.6830 C   0  0  0  0  0  0  0  0  0  0  0  0
   59.0880   35.9610   54.7170 C   0  0  0  0  0  0  0  0  0  0  0  0
   60.1930   35.8670   55.5610 C   0  0  0  0  0  0  0  0  0  0  0  0
   61.1250   34.8450   55.3830 C   0  0  0  0  0  0  0  0  0  0  0  0
   60.9600   33.8930   54.3580 C   0  0  0  0  0  0  0  0  0  0  0  0
   61.9100   32.7560   54.2910 C   0  0  0  0  0  0  0  0  0  0  0  0
   62.9070   32.6440   53.3920 N   0  0  0  0  0  0  0  0  0  0  0  0
   63.4320   31.4520   53.6180 N   0  0  0  0  0  0  0  0  0  0  0  0
   62.7780   30.8530   54.6030 N   0  0  0  0  0  0  0  0  0  0  0  0
   61.8120   31.6420   55.0420 N   0  0  0  0  0  0  0  0  0  0  0  0
   58.8420   30.6740   50.6470 C   0  0  0  0  0  0  0  0  0  0  0  0
   58.6880   29.7330   49.6210 C   0  0  0  0  0  0  0  0  0  0  0  0
   59.4470   29.7030   46.1720 C   0  0  0  0  0  0  0  0  0  0  0  0
   60.7500   30.4200   46.3940 C   0  0  0  0  0  0  0  0  0  0  0  0
   58.5330   29.9530   45.1560 C   0  0  0  0  0  0  0  0  0  0  0  0
   58.5350   31.0980   44.1800 C   0  0  0  0  0  0  0  0  0  0  0  0
   57.4610   32.0630   44.5630 C   0  0  0  0  0  0  0  0  0  0  0  0
   56.3120   31.6450   44.8620 O   0  0  0  0  0  0  0  0  0  0  0  0
   57.7800   33.4510   44.6860 N   0  0  0  0  0  0  0  0  0  0  0  0
   57.8590   34.1330   45.9720 C   0  0  0  0  0  0  0  0  0  0  0  0
   59.1500   33.7590   46.6550 C   0  0  0  0  0  0  0  0  0  0  0  0
   60.3800   34.1480   46.0980 C   0  0  0  0  0  0  0  0  0  0  0  0
   61.5790   33.8740   46.7660 C   0  0  0  0  0  0  0  0  0  0  0  0
   61.5590   33.2220   48.0040 C   0  0  0  0  0  0  0  0  0  0  0  0
   63.0560   32.9070   48.8610 Cl  0  0  0  0  0  0  0  0  0  0  0  0
   60.3360   32.8450   48.5730 C   0  0  0  0  0  0  0  0  0  0  0  0
   59.1360   33.1130   47.9070 C   0  0  0  0  0  0  0  0  0  0  0  0
   57.9610   32.7510   48.4840 F   0  0  0  0  0  0  0  0  0  0  0  0
   55.3844   28.9276   45.3738 H   0  0  0  0  0  0  0  0  0  0  0  0
   56.0956   29.8635   44.0155 H   0  0  0  0  0  0  0  0  0  0  0  0
   56.1878   28.0696   44.0155 H   0  0  0  0  0  0  0  0  0  0  0  0
   59.0463   27.1465   48.3626 H   0  0  0  0  0  0  0  0  0  0  0  0
   60.6447   27.6724   47.7250 H   0  0  0  0  0  0  0  0  0  0  0  0
   61.9092   28.5916   49.4396 H   0  0  0  0  0  0  0  0  0  0  0  0
   62.1676   30.2158   51.3113 H   0  0  0  0  0  0  0  0  0  0  0  0
   61.0240   31.6270   53.0170 H   0  0  0  0  0  0  0  0  0  0  0  0
   58.0414   35.1217   53.0209 H   0  0  0  0  0  0  0  0  0  0  0  0
   58.3499   36.7629   54.8663 H   0  0  0  0  0  0  0  0  0  0  0  0
   60.3303   36.6004   56.3692 H   0  0  0  0  0  0  0  0  0  0  0  0
   61.9977   34.7817   56.0497 H   0  0  0  0  0  0  0  0  0  0  0  0
   57.9769   31.2641   50.9837 H   0  0  0  0  0  0  0  0  0  0  0  0
   57.7019   29.5862   49.1562 H   0  0  0  0  0  0  0  0  0  0  0  0
   60.9336   30.5210   47.4739 H   0  0  0  0  0  0  0  0  0  0  0  0
   61.5678   29.8449   45.9353 H   0  0  0  0  0  0  0  0  0  0  0  0
   60.7018   31.4186   45.9353 H   0  0  0  0  0  0  0  0  0  0  0  0
   59.5117   31.6034   44.2059 H   0  0  0  0  0  0  0  0  0  0  0  0
   58.3515   30.7209   43.1631 H   0  0  0  0  0  0  0  0  0  0  0  0
   57.8288   35.2211   45.8135 H   0  0  0  0  0  0  0  0  0  0  0  0
   57.0083   33.8329   46.6015 H   0  0  0  0  0  0  0  0  0  0  0  0
   60.4007   34.6713   45.1307 H   0  0  0  0  0  0  0  0  0  0  0  0
   62.5382   34.1715   46.3173 H   0  0  0  0  0  0  0  0  0  0  0  0
   60.3194   32.3359   49.5480 H   0  0  0  0  0  0  0  0  0  0  0  0
  1  2  1  0
  2  3  2  0
  3  4  1  0
  4  5  1  0
  5  6  1  0
  6  7  2  0
  7  8  1  0
  8  9  2  0
  9 10  1  0
 10 11  1  0
 11 12  2  0
 11 13  1  0
 13 14  2  0
 14 15  1  0
 15 16  2  0
 16 17  1  0
 17 18  2  0
 18 19  1  0
 19 20  1  0
 20 21  2  0
 21 22  1  0
 22 23  1  0
  9 24  1  0
 24 25  2  0
  4 26  1  0
 26 27  1  0
 26 28  2  0
 28 29  1  0
 29 30  1  0
 30 31  2  0
 30 32  1  0
 32 33  1  0
 33 34  1  0
 34 35  2  0
 35 36  1  0
 36 37  2  0
 37 38  1  0
 37 39  1  0
 39 40  2  0
 40 41  1  0
 28  2  1  0
 40 34  1  0
 25  6  1  0
 18 13  1  0
 23 19  2  0
  1 42  1  0
  1 43  1  0
  1 44  1  0
  5 45  1  0
  5 46  1  0
  7 47  1  0
  8 48  1  0
 10 49  1  0
 14 50  1  0
 15 51  1  0
 16 52  1  0
 17 53  1  0
 24 54  1  0
 25 55  1  0
 27 56  1  0
 27 57  1  0
 27 58  1  0
 29 59  1  0
 29 60  1  0
 33 61  1  0
 33 62  1  0
 35 63  1  0
 36 64  1  0
 39 65  1  0
M  CHG  2  22  -1  32  -1
M  END
>  <UniqueID>  (35) 
32

>  <SMILES>  (35) 
Cc1nn(Cc2ccc(NC(=O)c3ccccc3-c3nn[n-]n3)cc2)c(C)c1CC(=O)[N-]Cc1ccc(Cl)cc1F

>  <Energy>  (35) 
142.38971472153005

>  <Genealogy>  (35) 
Cc1nn(Cc2ccc(NC(=O)c3ccccc3-c3nn[n-]n3)cc2)c(C)c1CC(=O)[N-]Cc1ccc(Cl)cc1F (protonated)
Cc1nn(Cc2ccc(NC(=O)c3ccccc3-c3nn[n-]n3)cc2)c(C)c1CC(=O)[N-]Cc1ccc(Cl)cc1F (3D coordinates assigned)
Cc1nn(Cc2ccc(NC(=O)c3ccccc3-c3nn[n-]n3)cc2)c(C)c1CC(=O)[N-]Cc1ccc(Cl)cc1F (optimized conformer: 142.38971472153005 kcal/mol)

>  <smiles>  (35) 
Cc1nn(Cc2ccc(NC(=O)c3ccccc3-c3nn[nH]n3)cc2)c(C)c1CC(=O)NCc1ccc(Cl)cc1F

>  <score_type>  (35) 
oracle

>  <origin>  (35) 
adg

>  <m_score__min__energy>  (35) 
-14.31

>  <m_primary>  (35) 
energy

$$$$
35:0
     RDKit          3D

 35 36  0  0  0  0  0  0  0  0999 V2000
   51.9950   29.4050   48.7060 C   0  0  0  0  0  0  0  0  0  0  0  0
   52.2440   30.1630   49.9390 N   0  0  0  0  0  0  0  0  0  0  0  0
   53.1770   29.7110   50.8330 C   0  0  0  0  0  0  0  0  0  0  0  0
   53.4280   30.4080   52.0230 C   0  0  0  0  0  0  0  0  0  0  0  0
   54.4370   29.9010   53.0190 C   0  0  0  0  0  0  0  0  0  0  0  0
   55.6550   29.4840   52.3350 N   0  0  0  0  0  0  0  0  0  0  0  0
   56.7380   30.3690   52.0220 C   0  0  0  0  0  0  0  0  0  0  0  0
   57.1360   30.4590   50.8280 O   0  0  0  0  0  0  0  0  0  0  0  0
   57.3810   31.1710   53.1000 C   0  0  0  0  0  0  0  0  0  0  0  0
   57.5340   30.6090   54.3730 C   0  0  0  0  0  0  0  0  0  0  0  0
   58.1310   31.3330   55.3940 C   0  0  0  0  0  0  0  0  0  0  0  0
   58.5850   32.6280   55.1530 C   0  0  0  0  0  0  0  0  0  0  0  0
   59.1240   33.2610   56.1010 O   0  0  0  0  0  0  0  0  0  0  0  0
   58.4450   33.1970   53.9090 N   0  0  0  0  0  0  0  0  0  0  0  0
   58.9280   34.5680   53.6650 C   0  0  0  0  0  0  0  0  0  0  0  0
   57.8510   32.4890   52.8830 C   0  0  0  0  0  0  0  0  0  0  0  0
   57.6990   33.0570   51.6110 O   0  0  0  0  0  0  0  0  0  0  0  0
   52.6990   31.5700   52.2920 C   0  0  0  0  0  0  0  0  0  0  0  0
   51.7450   32.0210   51.3810 C   0  0  0  0  0  0  0  0  0  0  0  0
   51.0200   33.1750   51.6520 O   0  0  0  0  0  0  0  0  0  0  0  0
   51.5240   31.3010   50.2000 C   0  0  0  0  0  0  0  0  0  0  0  0
   50.6550   31.7120   49.3820 O   0  0  0  0  0  0  0  0  0  0  0  0
   51.6611   28.3885   48.9616 H   0  0  0  0  0  0  0  0  0  0  0  0
   51.2154   29.9097   48.1165 H   0  0  0  0  0  0  0  0  0  0  0  0
   52.9220   29.3491   48.1165 H   0  0  0  0  0  0  0  0  0  0  0  0
   53.7366   28.7895   50.6148 H   0  0  0  0  0  0  0  0  0  0  0  0
   54.6775   30.7028   53.7326 H   0  0  0  0  0  0  0  0  0  0  0  0
   54.0119   29.0380   53.5525 H   0  0  0  0  0  0  0  0  0  0  0  0
   57.1782   29.5859   54.5647 H   0  0  0  0  0  0  0  0  0  0  0  0
   58.2459   30.8857   56.3924 H   0  0  0  0  0  0  0  0  0  0  0  0
   59.1052   35.0710   54.6271 H   0  0  0  0  0  0  0  0  0  0  0  0
   59.8667   34.5297   53.0929 H   0  0  0  0  0  0  0  0  0  0  0  0
   58.1725   35.1265   53.0929 H   0  0  0  0  0  0  0  0  0  0  0  0
   57.1590   32.6430   50.8620 H   0  0  0  0  0  0  0  0  0  0  0  0
   52.8781   32.1286   53.2226 H   0  0  0  0  0  0  0  0  0  0  0  0
  1  2  1  0
  2  3  1  0
  3  4  2  0
  4  5  1  0
  5  6  1  0
  6  7  1  0
  7  8  2  0
  7  9  1  0
  9 10  1  0
 10 11  2  0
 11 12  1  0
 12 13  2  0
 12 14  1  0
 14 15  1  0
 14 16  1  0
 16 17  1  0
  4 18  1  0
 18 19  2  0
 19 20  1  0
 19 21  1  0
 21 22  2  0
 21  2  1  0
 16  9  2  0
  1 23  1  0
  1 24  1  0
  1 25  1  0
  3 26  1  0
  5 27  1  0
  5 28  1  0
 10 29  1  0
 11 30  1  0
 15 31  1  0
 15 32  1  0
 15 33  1  0
 17 34  1  0
 18 35  1  0
M  CHG  2   6  -1  20  -1
M  END
>  <UniqueID>  (36) 
33

>  <SMILES>  (36) 
Cn1cc(C[N-]C(=O)c2ccc(=O)n(C)c2O)cc([O-])c1=O

>  <Energy>  (36) 
43.090815018605156

>  <Genealogy>  (36) 
Cn1cc(C[N-]C(=O)c2ccc(=O)n(C)c2O)cc([O-])c1=O (protonated)
Cn1cc(C[N-]C(=O)c2ccc(=O)n(C)c2O)cc([O-])c1=O (3D coordinates assigned)
Cn1cc(C[N-]C(=O)c2ccc(=O)n(C)c2O)cc([O-])c1=O (optimized conformer: 43.090815018605156 kcal/mol)

>  <smiles>  (36) 
Cn1cc(CNC(=O)c2ccc(=O)n(C)c2O)cc(O)c1=O

>  <score_type>  (36) 
oracle

>  <origin>  (36) 
adg

>  <m_score__min__energy>  (36) 
-11.82

>  <m_primary>  (36) 
energy

$$$$
36:0
     RDKit          3D

 53 55  0  0  1  0  0  0  0  0999 V2000
   58.6380   31.0770   50.0590 C   0  0  0  0  0  0  0  0  0  0  0  0
   58.1710   32.3240   49.4660 N   0  0  0  0  0  0  0  0  0  0  0  0
   58.8020   32.9110   48.4950 C   0  0  0  0  0  0  0  0  0  0  0  0
   58.0760   33.1750   47.3730 N   0  0  0  0  0  0  0  0  0  0  0  0
   58.6850   33.7910   46.3210 C   0  0  0  0  0  0  0  0  0  0  0  0
   57.8650   34.0330   45.1860 N   0  0  0  0  0  0  0  0  0  0  0  0
   58.0230   33.1520   44.0440 C   0  0  0  0  0  0  0  0  0  0  0  0
   57.8380   31.7230   44.3800 C   0  0  0  0  0  0  0  0  0  0  0  0
   56.5800   31.1840   44.0900 C   0  0  0  0  0  0  0  0  0  0  0  0
   56.3120   29.8590   44.3660 C   0  0  0  0  0  0  0  0  0  0  0  0
   57.2890   29.0600   44.9310 C   0  0  0  0  0  0  0  0  0  0  0  0
   56.9350   27.7080   45.1860 N   0  0  0  0  0  0  0  0  0  0  0  0
   57.4020   27.0670   46.3670 C   0  0  0  0  0  0  0  0  0  0  0  0
   58.1260   27.6900   47.1840 O   0  0  0  0  0  0  0  0  0  0  0  0
   57.0480   25.6660   46.6570 C   0  0  0  0  0  0  0  0  0  0  0  0
   55.7930   25.2430   45.9780 C   0  0  0  0  0  0  0  0  0  0  0  0
   55.5880   24.0700   45.5740 O   0  0  0  0  0  0  0  0  0  0  0  0
   54.8260   26.2430   45.8070 O   0  0  0  0  0  0  0  0  0  0  0  0
   58.5280   29.5890   45.2160 C   0  0  0  0  0  0  0  0  0  0  0  0
   58.8120   30.9310   44.9410 C   0  0  0  0  0  0  0  0  0  0  0  0
   60.0140   34.1490   46.3750 C   0  0  0  0  0  0  0  0  0  0  0  0
   60.6920   33.8500   47.5490 C   0  0  0  0  0  0  0  0  0  0  0  0
   61.9230   34.1780   47.6060 N   0  0  0  0  0  0  0  0  0  0  0  0
   62.8250   33.8190   48.6440 C   0  0  0  0  0  0  0  0  0  0  0  0
   63.7680   32.8340   48.3790 C   0  0  0  0  0  0  0  0  0  0  0  0
   64.6850   32.4240   49.3410 C   0  0  0  0  0  0  0  0  0  0  0  0
   64.6640   33.0010   50.5800 C   0  0  0  0  0  0  0  0  0  0  0  0
   63.7350   33.9710   50.8420 C   0  0  0  0  0  0  0  0  0  0  0  0
   63.7380   34.5460   52.1270 O   0  0  0  0  0  0  0  0  0  0  0  0
   62.8130   34.3870   49.8860 C   0  0  0  0  0  0  0  0  0  0  0  0
   60.1040   33.2430   48.5950 N   0  0  0  0  0  0  0  0  0  0  0  0
   58.6075   31.1584   51.1556 H   0  0  0  0  0  0  0  0  0  0  0  0
   57.9884   30.2508   49.7345 H   0  0  0  0  0  0  0  0  0  0  0  0
   59.6706   30.8808   49.7345 H   0  0  0  0  0  0  0  0  0  0  0  0
   57.0590   32.9060   47.3200 H   0  0  0  0  0  0  0  0  0  0  0  0
   57.1690   34.8270   45.1840 H   0  0  0  0  0  0  0  0  0  0  0  0
   57.2804   33.4309   43.2820 H   0  0  0  0  0  0  0  0  0  0  0  0
   59.0540   33.2712   43.6795 H   0  0  0  0  0  0  0  0  0  0  0  0
   55.8020   31.8186   43.6405 H   0  0  0  0  0  0  0  0  0  0  0  0
   55.3217   29.4385   44.1367 H   0  0  0  0  0  0  0  0  0  0  0  0
   56.3330   27.1390   44.5360 H   0  0  0  0  0  0  0  0  0  0  0  0
   57.8688   25.0172   46.3173 H   0  0  0  0  0  0  0  0  0  0  0  0
   56.8866   25.5797   47.7417 H   0  0  0  0  0  0  0  0  0  0  0  0
   54.0250   26.3220   46.4260 H   0  0  0  0  0  0  0  0  0  0  0  0
   59.3026   28.9497   45.6646 H   0  0  0  0  0  0  0  0  0  0  0  0
   59.8036   31.3480   45.1710 H   0  0  0  0  0  0  0  0  0  0  0  0
   60.5130   34.6467   45.5304 H   0  0  0  0  0  0  0  0  0  0  0  0
   63.7900   32.3666   47.3835 H   0  0  0  0  0  0  0  0  0  0  0  0
   65.4215   31.6414   49.1066 H   0  0  0  0  0  0  0  0  0  0  0  0
   65.3819   32.6908   51.3535 H   0  0  0  0  0  0  0  0  0  0  0  0
   63.9050   33.9720   52.9660 H   0  0  0  0  0  0  0  0  0  0  0  0
   62.0787   35.1690   50.1294 H   0  0  0  0  0  0  0  0  0  0  0  0
   60.6510   33.0400   49.4520 H   0  0  0  0  0  0  0  0  0  0  0  0
  1  2  1  0
  2  3  2  0
  3  4  1  0
  4  5  1  0
  5  6  1  0
  6  7  1  0
  7  8  1  0
  8  9  2  0
  9 10  1  0
 10 11  2  0
 11 12  1  0
 12 13  1  0
 13 14  2  0
 13 15  1  0
 15 16  1  0
 16 17  2  0
 16 18  1  0
 11 19  1  0
 19 20  2  0
  5 21  2  0
 21 22  1  0
 22 23  2  0
 23 24  1  0
 24 25  2  0
 25 26  1  0
 26 27  2  0
 27 28  1  0
 28 29  1  0
 28 30  2  0
 22 31  1  0
 31  3  1  0
 20  8  1  0
 30 24  1  0
  1 32  1  0
  1 33  1  0
  1 34  1  0
  4 35  1  0
  6 36  1  0
  7 37  1  0
  7 38  1  0
  9 39  1  0
 10 40  1  0
 12 41  1  0
 15 42  1  0
 15 43  1  0
 18 44  1  0
 19 45  1  0
 20 46  1  0
 21 47  1  0
 25 48  1  0
 26 49  1  0
 27 50  1  0
 29 51  1  0
 30 52  1  0
 31 53  1  0
M  END
>  <smiles>  (37) 
CN=c1[nH]c(NCc2ccc(NC(=O)CC(=O)O)cc2)cc(=Nc2cccc(O)c2)[nH]1

>  <score_type>  (37) 
oracle

>  <origin>  (37) 
adg

>  <m_score__min__energy>  (37) 
-9.3699999999999992

>  <m_primary>  (37) 
energy

$$$$
37:0
     RDKit          3D

 44 46  0  0  0  0  0  0  0  0999 V2000
   62.1640   35.0260   50.2962 H   0  0  0  0  0  0  0  0  0  0  0  0
   61.8290   34.3040   49.5370 C   0  0  0  0  0  0  0  0  0  0  0  0
   62.7660   33.5300   48.8520 C   0  0  0  0  0  0  0  0  0  0  0  0
   63.8355   33.6290   49.0894 H   0  0  0  0  0  0  0  0  0  0  0  0
   62.3520   32.6260   47.8620 C   0  0  0  0  0  0  0  0  0  0  0  0
   63.3730   31.7780   47.1540 C   0  0  0  0  0  0  0  0  0  0  0  0
   63.9974   31.2594   47.8965 H   0  0  0  0  0  0  0  0  0  0  0  0
   62.8603   31.0363   46.5239 H   0  0  0  0  0  0  0  0  0  0  0  0
   64.0080   32.4181   46.5239 H   0  0  0  0  0  0  0  0  0  0  0  0
   60.9780   32.4960   47.5660 C   0  0  0  0  0  0  0  0  0  0  0  0
   60.5620   31.5750   46.5470 N   0  0  0  0  0  0  0  0  0  0  0  0
   60.1390   30.3690   46.7790 C   0  0  0  0  0  0  0  0  0  0  0  0
   60.1700   29.1350   45.6370 S   0  0  0  0  0  0  0  0  0  0  0  0
   59.4240   28.0880   46.7290 C   0  0  0  0  0  0  0  0  0  0  0  0
   58.9950   26.3870   46.3750 S   0  0  0  0  0  0  0  0  0  0  0  0
   57.8090   26.7920   45.0440 C   0  0  0  0  0  0  0  0  0  0  0  0
   58.2426   27.5723   44.4012 H   0  0  0  0  0  0  0  0  0  0  0  0
   57.6103   25.8796   44.4626 H   0  0  0  0  0  0  0  0  0  0  0  0
   56.5060   27.2910   45.6140 C   0  0  0  0  0  0  0  0  0  0  0  0
   55.9710   26.6200   46.5360 O   0  0  0  0  0  0  0  0  0  0  0  0
   55.8910   28.5370   45.2430 N   0  0  0  0  0  0  0  0  0  0  0  0
   56.4090   29.5630   44.6330 C   0  0  0  0  0  0  0  0  0  0  0  0
   56.9980   30.6130   45.2480 N   0  0  0  0  0  0  0  0  0  0  0  0
   57.4710   31.5210   44.3520 C   0  0  0  0  0  0  0  0  0  0  0  0
   58.1680   32.7690   44.7940 C   0  0  0  0  0  0  0  0  0  0  0  0
   58.1894   32.8074   45.8931 H   0  0  0  0  0  0  0  0  0  0  0  0
   59.1976   32.7706   44.4069 H   0  0  0  0  0  0  0  0  0  0  0  0
   57.6294   33.6465   44.4069 H   0  0  0  0  0  0  0  0  0  0  0  0
   57.2880   31.1690   43.0140 C   0  0  0  0  0  0  0  0  0  0  0  0
   57.6700   31.9780   41.8170 C   0  0  0  0  0  0  0  0  0  0  0  0
   58.1184   32.9277   42.1442 H   0  0  0  0  0  0  0  0  0  0  0  0
   58.3985   31.4174   41.2129 H   0  0  0  0  0  0  0  0  0  0  0  0
   56.7742   32.1844   41.2129 H   0  0  0  0  0  0  0  0  0  0  0  0
   56.4750   29.6960   42.9610 S   0  0  0  0  0  0  0  0  0  0  0  0
   59.1800   28.6870   47.9150 N   0  0  0  0  0  0  0  0  0  0  0  0
   59.5770   29.9570   47.9410 N   0  0  0  0  0  0  0  0  0  0  0  0
   59.4390   30.5570   48.7830 H   0  0  0  0  0  0  0  0  0  0  0  0
   60.0260   33.2470   48.2980 C   0  0  0  0  0  0  0  0  0  0  0  0
   58.5500   33.1040   48.0440 C   0  0  0  0  0  0  0  0  0  0  0  0
   58.0160   33.0523   49.0043 H   0  0  0  0  0  0  0  0  0  0  0  0
   58.1908   33.9716   47.4710 H   0  0  0  0  0  0  0  0  0  0  0  0
   58.3640   32.1836   47.4710 H   0  0  0  0  0  0  0  0  0  0  0  0
   60.4690   34.1650   49.2620 C   0  0  0  0  0  0  0  0  0  0  0  0
   59.7371   34.7805   49.8057 H   0  0  0  0  0  0  0  0  0  0  0  0
  1  2  1  0
  2  3  2  0
  3  4  1  0
  3  5  1  0
  5  6  1  0
  6  7  1  0
  6  8  1  0
  6  9  1  0
  5 10  2  0
 10 11  1  0
 11 12  2  0
 12 13  1  0
 13 14  1  0
 14 15  1  0
 15 16  1  0
 16 17  1  0
 16 18  1  0
 16 19  1  0
 19 20  2  0
 19 21  1  0
 21 22  2  3
 22 23  1  0
 23 24  1  0
 24 25  1  0
 25 26  1  0
 25 27  1  0
 25 28  1  0
 24 29  2  0
 29 30  1  0
 30 31  1  0
 30 32  1  0
 30 33  1  0
 29 34  1  0
 14 35  2  0
 35 36  1  0
 36 37  1  0
 10 38  1  0
 38 39  1  0
 39 40  1  0
 39 41  1  0
 39 42  1  0
 38 43  2  0
 43 44  1  0
 43  2  1  0
 36 12  1  0
 34 22  1  0
M  CHG  1  23  -1
M  END
>  <UniqueID>  (38) 
34

>  <SMILES>  (38) 
Cc1cccc(C)c1/N=c1\[nH]nc(SCC(=O)N=c2[n-]c(C)c(C)s2)s1

>  <Energy>  (38) 
112.15404571409026

>  <Genealogy>  (38) 
Cc1cccc(C)c1N=c1[nH]nc(SCC(=O)N=c2[n-]c(C)c(C)s2)s1 (protonated)
Cc1cccc(C)c1/N=c1\[nH]nc(SCC(=O)N=c2[n-]c(C)c(C)s2)s1 (cis-trans isomerization)
Cc1cccc(C)c1/N=c1\[nH]nc(SCC(=O)N=c2[n-]c(C)c(C)s2)s1 (3D coordinates assigned)
Cc1cccc(C)c1/N=c1\[nH]nc(SCC(=O)N=c2[n-]c(C)c(C)s2)s1 (optimized conformer: 112.15404571409026 kcal/mol)

>  <smiles>  (38) 
Cc1cccc(C)c1N=c1[nH]nc(SCC(=O)N=c2[nH]c(C)c(C)s2)s1

>  <score_type>  (38) 
oracle

>  <origin>  (38) 
adg

>  <m_score__min__energy>  (38) 
-11

>  <m_primary>  (38) 
energy

$$$$
38:0
     RDKit          3D

 33 35  0  0  0  0  0  0  0  0999 V2000
   58.8260   35.3530   44.8340 O   0  0  0  0  0  0  0  0  0  0  0  0
   57.9750   34.5660   45.2950 N   0  0  0  0  0  0  0  0  0  0  0  0
   56.6650   34.7190   44.9030 O   0  0  0  0  0  0  0  0  0  0  0  0
   58.3460   33.4800   46.1720 C   0  0  0  0  0  0  0  0  0  0  0  0
   58.8420   33.7830   47.4550 C   0  0  0  0  0  0  0  0  0  0  0  0
   59.2450   32.7700   48.3270 C   0  0  0  0  0  0  0  0  0  0  0  0
   59.1650   31.4360   47.9340 C   0  0  0  0  0  0  0  0  0  0  0  0
   58.6830   31.1100   46.6670 C   0  0  0  0  0  0  0  0  0  0  0  0
   58.2680   32.1140   45.7790 C   0  0  0  0  0  0  0  0  0  0  0  0
   57.8300   31.6980   44.4360 C   0  0  0  0  0  0  0  0  0  0  0  0
   58.0280   32.4010   43.2650 C   0  0  0  0  0  0  0  0  0  0  0  0
   57.4110   31.7710   42.2490 N   0  0  0  0  0  0  0  0  0  0  0  0
   56.8080   30.6800   42.7580 C   0  0  0  0  0  0  0  0  0  0  0  0
   57.0490   30.5950   44.1190 C   0  0  0  0  0  0  0  0  0  0  0  0
   56.4770   29.5800   45.0830 C   0  0  1  0  0  0  0  0  0  0  0  0
   55.2180   29.1160   44.6620 O   0  0  0  0  0  0  0  0  0  0  0  0
   57.4190   28.4240   45.2880 C   0  0  0  0  0  0  0  0  0  0  0  0
   58.7570   28.3750   44.9130 C   0  0  0  0  0  0  0  0  0  0  0  0
   59.3830   27.1710   45.2600 C   0  0  0  0  0  0  0  0  0  0  0  0
   58.5430   26.2710   45.9030 C   0  0  0  0  0  0  0  0  0  0  0  0
   57.0210   26.9730   46.0390 S   0  0  0  0  0  0  0  0  0  0  0  0
   58.9129   34.8332   47.7746 H   0  0  0  0  0  0  0  0  0  0  0  0
   59.6265   33.0258   49.3265 H   0  0  0  0  0  0  0  0  0  0  0  0
   59.4822   30.6397   48.6234 H   0  0  0  0  0  0  0  0  0  0  0  0
   58.6275   30.0550   46.3604 H   0  0  0  0  0  0  0  0  0  0  0  0
   58.6029   33.3346   43.1759 H   0  0  0  0  0  0  0  0  0  0  0  0
   57.3850   32.0830   41.2540 H   0  0  0  0  0  0  0  0  0  0  0  0
   56.2111   29.9612   42.1775 H   0  0  0  0  0  0  0  0  0  0  0  0
   56.3460   30.0937   46.0468 H   0  0  0  0  0  0  0  0  0  0  0  0
   55.1440   28.1610   44.9230 H   0  0  0  0  0  0  0  0  0  0  0  0
   59.2718   29.1984   44.3962 H   0  0  0  0  0  0  0  0  0  0  0  0
   60.4403   26.9583   45.0436 H   0  0  0  0  0  0  0  0  0  0  0  0
   58.8251   25.2702   46.2619 H   0  0  0  0  0  0  0  0  0  0  0  0
  1  2  2  0
  2  3  1  0
  2  4  1  0
  4  5  2  0
  5  6  1  0
  6  7  2  0
  7  8  1  0
  8  9  2  0
  9 10  1  0
 10 11  2  0
 11 12  1  0
 12 13  1  0
 13 14  2  0
 14 15  1  0
 15 16  1  0
 15 17  1  0
 17 18  2  0
 18 19  1  0
 19 20  2  0
 20 21  1  0
  9  4  1  0
 14 10  1  0
 21 17  1  0
  5 22  1  0
  6 23  1  0
  7 24  1  0
  8 25  1  0
 11 26  1  0
 12 27  1  0
 13 28  1  0
 15 29  1  1
 16 30  1  0
 18 31  1  0
 19 32  1  0
 20 33  1  0
M  CHG  2   2   1   3  -1
M  END
>  <UniqueID>  (39) 
35

>  <SMILES>  (39) 
O=[N+]([O-])c1ccccc1-c1c[nH]cc1[C@@H](O)c1cccs1

>  <Energy>  (39) 
96.69753601981034

>  <Genealogy>  (39) 
O=[N+]([O-])c1ccccc1-c1c[nH]cc1[C@@H](O)c1cccs1 (chirality)
O=[N+]([O-])c1ccccc1-c1c[nH]cc1[C@@H](O)c1cccs1 (3D coordinates assigned)
O=[N+]([O-])c1ccccc1-c1c[nH]cc1[C@@H](O)c1cccs1 (optimized conformer: 96.69753601981034 kcal/mol)

>  <smiles>  (39) 
O=[N+]([O-])c1ccccc1-c1c[nH]cc1C(O)c1cccs1

>  <score_type>  (39) 
oracle

>  <origin>  (39) 
adg

>  <m_score__min__energy>  (39) 
-8.0399999999999991

>  <m_primary>  (39) 
energy

$$$$
39:0
     RDKit          3D

 34 36  0  0  0  0  0  0  0  0999 V2000
   59.5420   26.7950   45.6150 C   0  0  0  0  0  0  0  0  0  0  0  0
   58.7820   28.0840   45.5220 C   0  0  0  0  0  0  0  0  0  0  0  0
   57.3950   28.0660   45.2380 C   0  0  0  0  0  0  0  0  0  0  0  0
   56.7140   29.2850   45.1170 C   0  0  0  0  0  0  0  0  0  0  0  0
   55.4810   29.3190   44.8660 O   0  0  0  0  0  0  0  0  0  0  0  0
   57.4260   30.4260   45.2740 N   0  0  0  0  0  0  0  0  0  0  0  0
   57.0040   31.6710   45.1840 N   0  0  0  0  0  0  0  0  0  0  0  0
   58.1170   32.4140   45.3950 C   0  0  0  0  0  0  0  0  0  0  0  0
   58.1210   34.2030   45.3520 S   0  0  0  0  0  0  0  0  0  0  0  0
   59.9330   34.3550   45.5510 C   0  0  0  0  0  0  0  0  0  0  0  0
   60.3460   34.1420   46.9910 C   0  0  0  0  0  0  0  0  0  0  0  0
   59.3500   34.2110   47.9830 C   0  0  0  0  0  0  0  0  0  0  0  0
   59.6640   33.9970   49.3250 C   0  0  0  0  0  0  0  0  0  0  0  0
   60.9750   33.7150   49.6990 C   0  0  0  0  0  0  0  0  0  0  0  0
   61.9800   33.6520   48.7340 C   0  0  0  0  0  0  0  0  0  0  0  0
   61.6860   33.8640   47.3750 C   0  0  0  0  0  0  0  0  0  0  0  0
   62.8090   33.8120   46.3730 C   0  0  0  0  0  0  0  0  0  0  0  0
   59.2370   31.6750   45.6190 N   0  0  0  0  0  0  0  0  0  0  0  0
   58.7340   30.4320   45.5290 C   0  0  0  0  0  0  0  0  0  0  0  0
   59.4390   29.2800   45.6510 N   0  0  0  0  0  0  0  0  0  0  0  0
   59.6952   26.5352   46.6728 H   0  0  0  0  0  0  0  0  0  0  0  0
   58.9705   25.9959   45.1202 H   0  0  0  0  0  0  0  0  0  0  0  0
   60.5179   26.9082   45.1202 H   0  0  0  0  0  0  0  0  0  0  0  0
   56.8613   27.1121   45.1145 H   0  0  0  0  0  0  0  0  0  0  0  0
   60.4275   33.6011   44.9208 H   0  0  0  0  0  0  0  0  0  0  0  0
   60.2322   35.3697   45.2497 H   0  0  0  0  0  0  0  0  0  0  0  0
   58.3121   34.4363   47.6967 H   0  0  0  0  0  0  0  0  0  0  0  0
   58.8745   34.0511   50.0891 H   0  0  0  0  0  0  0  0  0  0  0  0
   61.2187   33.5415   50.7576 H   0  0  0  0  0  0  0  0  0  0  0  0
   63.0141   33.4341   49.0392 H   0  0  0  0  0  0  0  0  0  0  0  0
   63.7717   33.7674   46.9032 H   0  0  0  0  0  0  0  0  0  0  0  0
   62.6962   32.9181   45.7419 H   0  0  0  0  0  0  0  0  0  0  0  0
   62.7793   34.7125   45.7419 H   0  0  0  0  0  0  0  0  0  0  0  0
   60.4670   29.3130   45.8360 H   0  0  0  0  0  0  0  0  0  0  0  0
  1  2  1  0
  2  3  2  0
  3  4  1  0
  4  5  2  0
  4  6  1  0
  6  7  1  0
  7  8  1  0
  8  9  1  0
  9 10  1  0
 10 11  1  0
 11 12  2  0
 12 13  1  0
 13 14  2  0
 14 15  1  0
 15 16  2  0
 16 17  1  0
  8 18  2  0
 18 19  1  0
 19 20  2  0
 20  2  1  0
 19  6  1  0
 16 11  1  0
  1 21  1  0
  1 22  1  0
  1 23  1  0
  3 24  1  0
 10 25  1  0
 10 26  1  0
 12 27  1  0
 13 28  1  0
 14 29  1  0
 15 30  1  0
 17 31  1  0
 17 32  1  0
 17 33  1  0
 20 34  1  0
M  CHG  2   7  -1  20   1
M  END
>  <UniqueID>  (40) 
36

>  <SMILES>  (40) 
Cc1cc(=O)n2[n-]c(SCc3ccccc3C)nc2[nH+]1

>  <Energy>  (40) 
71.40253618539198

>  <Genealogy>  (40) 
Cc1cc(=O)n2[n-]c(SCc3ccccc3C)nc2[nH+]1 (protonated)
Cc1cc(=O)n2[n-]c(SCc3ccccc3C)nc2[nH+]1 (3D coordinates assigned)
Cc1cc(=O)n2[n-]c(SCc3ccccc3C)nc2[nH+]1 (optimized conformer: 71.40253618539198 kcal/mol)

>  <smiles>  (40) 
Cc1cc(=O)n2[nH]c(SCc3ccccc3C)nc2n1

>  <score_type>  (40) 
oracle

>  <origin>  (40) 
adg

>  <m_score__min__energy>  (40) 
-6.9000000000000004

>  <m_primary>  (40) 
energy

$$$$
40:0
     RDKit          3D

 68 69  0  0  0  0  0  0  0  0999 V2000
   55.5070   30.1850   43.8800 C   0  0  0  0  0  0  0  0  0  0  0  0
   55.4580   29.1760   44.8850 O   0  0  0  0  0  0  0  0  0  0  0  0
   56.5380   28.3600   45.2470 C   0  0  0  0  0  0  0  0  0  0  0  0
   57.8760   28.7590   45.0600 C   0  0  0  0  0  0  0  0  0  0  0  0
   58.9350   27.9220   45.4540 C   0  0  0  0  0  0  0  0  0  0  0  0
   60.3480   28.2950   45.2200 C   0  0  0  0  0  0  0  0  0  0  0  0
   61.0070   29.2930   45.8290 C   0  0  0  0  0  0  0  0  0  0  0  0
   60.5920   29.9630   47.0800 C   0  0  0  0  0  0  0  0  0  0  0  0
   60.7370   31.2060   47.2270 O   0  0  0  0  0  0  0  0  0  0  0  0
   59.9090   29.1720   48.1590 C   0  0  0  0  0  0  0  0  0  0  0  0
   59.5800   30.0090   49.3700 C   0  0  0  0  0  0  0  0  0  0  0  0
   59.0780   31.1570   49.2270 O   0  0  0  0  0  0  0  0  0  0  0  0
   59.8280   29.5180   50.7420 C   0  0  0  0  0  0  0  0  0  0  0  0
   60.6600   30.1300   51.5960 C   0  0  0  0  0  0  0  0  0  0  0  0
   61.6790   31.1160   51.1710 C   0  0  0  0  0  0  0  0  0  0  0  0
   62.0450   32.1330   52.0640 C   0  0  0  0  0  0  0  0  0  0  0  0
   63.0450   33.0470   51.7280 C   0  0  0  0  0  0  0  0  0  0  0  0
   63.6950   32.9560   50.4980 C   0  0  0  0  0  0  0  0  0  0  0  0
   64.7310   33.8390   50.2170 O   0  0  0  0  0  0  0  0  0  0  0  0
   63.3250   31.9570   49.5760 C   0  0  0  0  0  0  0  0  0  0  0  0
   63.9290   31.8440   48.3140 O   0  0  0  0  0  0  0  0  0  0  0  0
   63.4960   32.5800   47.1720 C   0  0  0  0  0  0  0  0  0  0  0  0
   62.7550   33.8230   47.6040 C   0  0  0  0  0  0  0  0  0  0  0  0
   61.4110   33.9640   47.5480 C   0  0  0  0  0  0  0  0  0  0  0  0
   60.5730   34.0690   48.8000 C   0  0  0  0  0  0  0  0  0  0  0  0
   60.7340   34.0350   46.1940 C   0  0  0  0  0  0  0  0  0  0  0  0
   59.3710   34.7460   46.2800 C   0  0  0  0  0  0  0  0  0  0  0  0
   58.3860   34.2340   45.2550 C   0  0  0  0  0  0  0  0  0  0  0  0
   58.1140   32.9300   45.0240 C   0  0  0  0  0  0  0  0  0  0  0  0
   58.0670   32.4520   43.5950 C   0  0  0  0  0  0  0  0  0  0  0  0
   57.8370   31.9560   46.1460 C   0  0  0  0  0  0  0  0  0  0  0  0
   62.3360   31.0280   49.9290 C   0  0  0  0  0  0  0  0  0  0  0  0
   58.6450   26.6540   45.9780 C   0  0  0  0  0  0  0  0  0  0  0  0
   57.3200   26.2520   46.1610 C   0  0  0  0  0  0  0  0  0  0  0  0
   56.2710   27.1040   45.8060 C   0  0  0  0  0  0  0  0  0  0  0  0
   54.9570   26.6960   46.0020 O   0  0  0  0  0  0  0  0  0  0  0  0
   55.5551   31.1752   44.3566 H   0  0  0  0  0  0  0  0  0  0  0  0
   56.3990   30.0358   43.2538 H   0  0  0  0  0  0  0  0  0  0  0  0
   54.6048   30.1229   43.2538 H   0  0  0  0  0  0  0  0  0  0  0  0
   58.0945   29.7347   44.6014 H   0  0  0  0  0  0  0  0  0  0  0  0
   60.9075   27.7018   44.4817 H   0  0  0  0  0  0  0  0  0  0  0  0
   61.9366   29.6429   45.3564 H   0  0  0  0  0  0  0  0  0  0  0  0
   58.9749   28.7560   47.7536 H   0  0  0  0  0  0  0  0  0  0  0  0
   60.6002   28.3785   48.4795 H   0  0  0  0  0  0  0  0  0  0  0  0
   59.3062   28.6095   51.0771 H   0  0  0  0  0  0  0  0  0  0  0  0
   60.5818   29.8875   52.6661 H   0  0  0  0  0  0  0  0  0  0  0  0
   61.5397   32.2113   53.0379 H   0  0  0  0  0  0  0  0  0  0  0  0
   63.3212   33.8420   52.4363 H   0  0  0  0  0  0  0  0  0  0  0  0
   64.3717   32.8688   46.5722 H   0  0  0  0  0  0  0  0  0  0  0  0
   62.8222   31.9500   46.5728 H   0  0  0  0  0  0  0  0  0  0  0  0
   63.3459   34.6673   47.9886 H   0  0  0  0  0  0  0  0  0  0  0  0
   61.2226   33.9876   49.6839 H   0  0  0  0  0  0  0  0  0  0  0  0
   60.0547   35.0391   48.8140 H   0  0  0  0  0  0  0  0  0  0  0  0
   59.8313   33.2568   48.8140 H   0  0  0  0  0  0  0  0  0  0  0  0
   61.3825   34.5886   45.4990 H   0  0  0  0  0  0  0  0  0  0  0  0
   60.5651   33.0077   45.8388 H   0  0  0  0  0  0  0  0  0  0  0  0
   58.9515   34.5844   47.2839 H   0  0  0  0  0  0  0  0  0  0  0  0
   59.5379   35.8145   46.0788 H   0  0  0  0  0  0  0  0  0  0  0  0
   57.8489   34.9796   44.6503 H   0  0  0  0  0  0  0  0  0  0  0  0
   57.9594   31.3574   43.5779 H   0  0  0  0  0  0  0  0  0  0  0  0
   57.2098   32.9128   43.0822 H   0  0  0  0  0  0  0  0  0  0  0  0
   58.9975   32.7370   43.0822 H   0  0  0  0  0  0  0  0  0  0  0  0
   57.9804   32.4602   47.1130 H   0  0  0  0  0  0  0  0  0  0  0  0
   56.8006   31.5951   46.0708 H   0  0  0  0  0  0  0  0  0  0  0  0
   58.5284   31.1038   46.0708 H   0  0  0  0  0  0  0  0  0  0  0  0
   62.0708   30.2224   49.2286 H   0  0  0  0  0  0  0  0  0  0  0  0
   59.4655   25.9723   46.2464 H   0  0  0  0  0  0  0  0  0  0  0  0
   57.1015   25.2612   46.5861 H   0  0  0  0  0  0  0  0  0  0  0  0
  1  2  1  0
  2  3  1  0
  3  4  2  0
  4  5  1  0
  5  6  1  0
  6  7  2  3
  7  8  1  0
  8  9  2  0
  8 10  1  0
 10 11  1  0
 11 12  2  0
 11 13  1  0
 13 14  2  3
 14 15  1  0
 15 16  2  0
 16 17  1  0
 17 18  2  0
 18 19  1  0
 18 20  1  0
 20 21  1  0
 21 22  1  0
 22 23  1  0
 23 24  2  3
 24 25  1  0
 24 26  1  0
 26 27  1  0
 27 28  1  0
 28 29  2  3
 29 30  1  0
 29 31  1  0
 20 32  2  0
  5 33  2  0
 33 34  1  0
 34 35  2  0
 35 36  1  0
 35  3  1  0
 32 15  1  0
  1 37  1  0
  1 38  1  0
  1 39  1  0
  4 40  1  0
  6 41  1  0
  7 42  1  0
 10 43  1  0
 10 44  1  0
 13 45  1  0
 14 46  1  0
 16 47  1  0
 17 48  1  0
 22 49  1  0
 22 50  1  0
 23 51  1  0
 25 52  1  0
 25 53  1  0
 25 54  1  0
 26 55  1  0
 26 56  1  0
 27 57  1  0
 27 58  1  0
 28 59  1  0
 30 60  1  0
 30 61  1  0
 30 62  1  0
 31 63  1  0
 31 64  1  0
 31 65  1  0
 32 66  1  0
 33 67  1  0
 34 68  1  0
M  CHG  2  19  -1  36  -1
M  END
>  <UniqueID>  (41) 
37

>  <SMILES>  (41) 
COc1cc(C=CC(=O)CC(=O)C=Cc2ccc([O-])c(OCC=C(C)CCC=C(C)C)c2)ccc1[O-]

>  <Energy>  (41) 
73.96226810630688

>  <Genealogy>  (41) 
COc1cc(C=CC(=O)CC(=O)C=Cc2ccc([O-])c(OCC=C(C)CCC=C(C)C)c2)ccc1[O-] (protonated)
COc1cc(C=CC(=O)CC(=O)C=Cc2ccc([O-])c(OCC=C(C)CCC=C(C)C)c2)ccc1[O-] (3D coordinates assigned)
COc1cc(C=CC(=O)CC(=O)C=Cc2ccc([O-])c(OCC=C(C)CCC=C(C)C)c2)ccc1[O-] (optimized conformer: 73.96226810630688 kcal/mol)

>  <smiles>  (41) 
COc1cc(C=CC(=O)CC(=O)C=Cc2ccc(O)c(OCC=C(C)CCC=C(C)C)c2)ccc1O

>  <score_type>  (41) 
oracle

>  <origin>  (41) 
adg

>  <m_score__min__energy>  (41) 
-16.149999999999999

>  <m_primary>  (41) 
energy

$$$$
41:0
     RDKit          3D

 56 59  0  0  0  0  0  0  0  0999 V2000
   55.5600   23.5200   47.8520 C   0  0  0  0  0  0  0  0  0  0  0  0
   55.5640   24.7040   47.0630 O   0  0  0  0  0  0  0  0  0  0  0  0
   56.1580   24.8110   45.7920 C   0  0  0  0  0  0  0  0  0  0  0  0
   55.8100   23.9540   44.7260 C   0  0  0  0  0  0  0  0  0  0  0  0
   56.4370   24.0840   43.4810 C   0  0  0  0  0  0  0  0  0  0  0  0
   57.3990   25.0770   43.2810 C   0  0  0  0  0  0  0  0  0  0  0  0
   57.7500   25.9320   44.3290 C   0  0  0  0  0  0  0  0  0  0  0  0
   57.1450   25.7960   45.5890 C   0  0  0  0  0  0  0  0  0  0  0  0
   57.5340   26.6500   46.6730 N   0  0  0  0  0  0  0  0  0  0  0  0
   58.6960   27.9270   46.4650 S   0  0  0  0  0  0  0  0  0  0  0  0
   59.0850   28.4540   47.8210 O   0  0  0  0  0  0  0  0  0  0  0  0
   59.9180   27.3740   45.7820 O   0  0  0  0  0  0  0  0  0  0  0  0
   58.0530   29.2370   45.4730 C   0  0  0  0  0  0  0  0  0  0  0  0
   57.0230   28.9950   44.5530 C   0  0  0  0  0  0  0  0  0  0  0  0
   56.5200   30.0380   43.7730 C   0  0  0  0  0  0  0  0  0  0  0  0
   57.0540   31.3220   43.8880 C   0  0  0  0  0  0  0  0  0  0  0  0
   58.1040   31.5730   44.7800 C   0  0  0  0  0  0  0  0  0  0  0  0
   58.6280   32.9050   44.8630 N   0  0  0  0  0  0  0  0  0  0  0  0
   58.0500   34.0080   45.5710 C   0  0  0  0  0  0  0  0  0  0  0  0
   57.0160   34.5830   45.1390 O   0  0  0  0  0  0  0  0  0  0  0  0
   58.6830   34.4900   46.8370 C   0  0  0  0  0  0  0  0  0  0  0  0
   59.4480   33.3630   47.4980 C   0  0  0  0  0  0  0  0  0  0  0  0
   58.7450   32.5000   48.3560 C   0  0  0  0  0  0  0  0  0  0  0  0
   59.3690   31.4720   48.9980 N   0  0  0  0  0  0  0  0  0  0  0  0
   58.5830   30.5820   49.8670 C   0  0  0  0  0  0  0  0  0  0  0  0
   60.7160   31.2670   48.8520 C   0  0  0  0  0  0  0  0  0  0  0  0
   61.2730   30.3060   49.4520 O   0  0  0  0  0  0  0  0  0  0  0  0
   61.4840   32.1200   48.0370 C   0  0  0  0  0  0  0  0  0  0  0  0
   62.8760   31.9340   47.9030 C   0  0  0  0  0  0  0  0  0  0  0  0
   63.6280   32.7860   47.0950 C   0  0  0  0  0  0  0  0  0  0  0  0
   63.0060   33.8240   46.4050 C   0  0  0  0  0  0  0  0  0  0  0  0
   61.6290   34.0240   46.5220 C   0  0  0  0  0  0  0  0  0  0  0  0
   60.8460   33.1820   47.3430 C   0  0  0  0  0  0  0  0  0  0  0  0
   58.5770   30.5310   45.5990 C   0  0  0  0  0  0  0  0  0  0  0  0
   55.5609   23.7900   48.9184 H   0  0  0  0  0  0  0  0  0  0  0  0
   54.6599   22.9304   47.6238 H   0  0  0  0  0  0  0  0  0  0  0  0
   56.4561   22.9243   47.6238 H   0  0  0  0  0  0  0  0  0  0  0  0
   55.0424   23.1801   44.8741 H   0  0  0  0  0  0  0  0  0  0  0  0
   56.1717   23.4030   42.6589 H   0  0  0  0  0  0  0  0  0  0  0  0
   57.8805   25.1859   42.2980 H   0  0  0  0  0  0  0  0  0  0  0  0
   58.5043   26.7159   44.1662 H   0  0  0  0  0  0  0  0  0  0  0  0
   57.3240   26.3490   47.6550 H   0  0  0  0  0  0  0  0  0  0  0  0
   56.6103   27.9810   44.4455 H   0  0  0  0  0  0  0  0  0  0  0  0
   55.6999   29.8469   43.0653 H   0  0  0  0  0  0  0  0  0  0  0  0
   56.6484   32.1406   43.2753 H   0  0  0  0  0  0  0  0  0  0  0  0
   59.3749   35.3137   46.6072 H   0  0  0  0  0  0  0  0  0  0  0  0
   57.8969   34.8415   47.5215 H   0  0  0  0  0  0  0  0  0  0  0  0
   57.6677   32.6575   48.5129 H   0  0  0  0  0  0  0  0  0  0  0  0
   58.7926   30.8193   50.9205 H   0  0  0  0  0  0  0  0  0  0  0  0
   57.5112   30.7252   49.6651 H   0  0  0  0  0  0  0  0  0  0  0  0
   58.8576   29.5361   49.6651 H   0  0  0  0  0  0  0  0  0  0  0  0
   63.3714   31.1114   48.4395 H   0  0  0  0  0  0  0  0  0  0  0  0
   64.7141   32.6382   47.0023 H   0  0  0  0  0  0  0  0  0  0  0  0
   63.6029   34.4898   45.7644 H   0  0  0  0  0  0  0  0  0  0  0  0
   61.1491   34.8452   45.9695 H   0  0  0  0  0  0  0  0  0  0  0  0
   59.3623   30.7331   46.3422 H   0  0  0  0  0  0  0  0  0  0  0  0
  1  2  1  0
  2  3  1  0
  3  4  2  0
  4  5  1  0
  5  6  2  0
  6  7  1  0
  7  8  2  0
  8  9  1  0
  9 10  1  0
 10 11  2  0
 10 12  2  0
 10 13  1  0
 13 14  2  0
 14 15  1  0
 15 16  2  0
 16 17  1  0
 17 18  1  0
 18 19  1  0
 19 20  2  0
 19 21  1  0
 21 22  1  0
 22 23  2  0
 23 24  1  0
 24 25  1  0
 24 26  1  0
 26 27  2  0
 26 28  1  0
 28 29  2  0
 29 30  1  0
 30 31  2  0
 31 32  1  0
 32 33  2  0
 17 34  2  0
  8  3  1  0
 34 13  1  0
 33 22  1  0
 33 28  1  0
  1 35  1  0
  1 36  1  0
  1 37  1  0
  4 38  1  0
  5 39  1  0
  6 40  1  0
  7 41  1  0
  9 42  1  0
 14 43  1  0
 15 44  1  0
 16 45  1  0
 21 46  1  0
 21 47  1  0
 23 48  1  0
 25 49  1  0
 25 50  1  0
 25 51  1  0
 29 52  1  0
 30 53  1  0
 31 54  1  0
 32 55  1  0
 34 56  1  0
M  CHG  1  18  -1
M  END
>  <UniqueID>  (42) 
38

>  <SMILES>  (42) 
COc1ccccc1NS(=O)(=O)c1cccc([N-]C(=O)Cc2cn(C)c(=O)c3ccccc23)c1

>  <Energy>  (42) 
74.9646876324511

>  <Genealogy>  (42) 
COc1ccccc1NS(=O)(=O)c1cccc([N-]C(=O)Cc2cn(C)c(=O)c3ccccc23)c1 (protonated)
COc1ccccc1NS(=O)(=O)c1cccc([N-]C(=O)Cc2cn(C)c(=O)c3ccccc23)c1 (3D coordinates assigned)
COc1ccccc1NS(=O)(=O)c1cccc([N-]C(=O)Cc2cn(C)c(=O)c3ccccc23)c1 (optimized conformer: 74.9646876324511 kcal/mol)

>  <smiles>  (42) 
COc1ccccc1NS(=O)(=O)c1cccc(NC(=O)Cc2cn(C)c(=O)c3ccccc23)c1

>  <score_type>  (42) 
oracle

>  <origin>  (42) 
adg

>  <m_score__min__energy>  (42) 
-11.050000000000001

>  <m_primary>  (42) 
energy

$$$$
42:0
     RDKit          3D

 54 57  0  0  0  0  0  0  0  0999 V2000
   57.9673   34.0380   43.4839 H   0  0  0  0  0  0  0  0  0  0  0  0
   58.3840   33.9610   44.4990 C   0  0  0  0  0  0  0  0  0  0  0  0
   58.0860   32.8520   45.2940 C   0  0  0  0  0  0  0  0  0  0  0  0
   57.4312   32.0581   44.9055 H   0  0  0  0  0  0  0  0  0  0  0  0
   58.6190   32.7490   46.5840 C   0  0  0  0  0  0  0  0  0  0  0  0
   58.3723   31.8793   47.2107 H   0  0  0  0  0  0  0  0  0  0  0  0
   59.4680   33.7520   47.0820 C   0  0  0  0  0  0  0  0  0  0  0  0
   59.9990   33.6480   48.4600 C   0  0  0  0  0  0  0  0  0  0  0  0
   59.1170   33.4440   49.4770 N   0  0  0  0  0  0  0  0  0  0  0  0
   59.5280   33.3500   50.7670 C   0  0  0  0  0  0  0  0  0  0  0  0
   58.3290   33.1080   52.0710 S   0  0  0  0  0  0  0  0  0  0  0  0
   59.3100   31.8030   52.8830 C   0  0  0  0  0  0  0  0  0  0  0  0
   60.3770   32.0677   52.8437 H   0  0  0  0  0  0  0  0  0  0  0  0
   58.9959   31.7063   53.9328 H   0  0  0  0  0  0  0  0  0  0  0  0
   59.0920   30.5080   52.1760 C   0  0  0  0  0  0  0  0  0  0  0  0
   59.3460   29.4250   52.7680 O   0  0  0  0  0  0  0  0  0  0  0  0
   58.6190   30.5130   50.8210 N   0  0  0  0  0  0  0  0  0  0  0  0
   59.3210   30.0120   49.6750 C   0  0  0  0  0  0  0  0  0  0  0  0
   60.4620   30.6950   49.2340 C   0  0  0  0  0  0  0  0  0  0  0  0
   60.8119   31.5842   49.7789 H   0  0  0  0  0  0  0  0  0  0  0  0
   61.1580   30.2530   48.1060 C   0  0  0  0  0  0  0  0  0  0  0  0
   62.0587   30.7885   47.7715 H   0  0  0  0  0  0  0  0  0  0  0  0
   60.7110   29.1310   47.4020 C   0  0  0  0  0  0  0  0  0  0  0  0
   61.2640   28.7810   46.5179 H   0  0  0  0  0  0  0  0  0  0  0  0
   59.5600   28.4520   47.8210 C   0  0  0  0  0  0  0  0  0  0  0  0
   58.9790   27.0450   46.9320 S   0  0  0  0  0  0  0  0  0  0  0  0
   60.0410   25.9830   46.9590 O   0  0  0  0  0  0  0  0  0  0  0  0
   57.7270   26.4950   47.5600 O   0  0  0  0  0  0  0  0  0  0  0  0
   58.6540   27.4790   45.2800 N   0  0  0  0  0  0  0  0  0  0  0  0
   57.7940   28.3710   44.8800 C   0  0  0  0  0  0  0  0  0  0  0  0
   56.3730   28.1970   45.2400 C   0  0  0  0  0  0  0  0  0  0  0  0
   55.9860   27.1460   45.8190 O   0  0  0  0  0  0  0  0  0  0  0  0
   55.4230   29.2140   44.9090 N   0  0  0  0  0  0  0  0  0  0  0  0
   55.8540   30.5040   44.3840 C   0  0  0  0  0  0  0  0  0  0  0  0
   56.1543   31.1547   45.2186 H   0  0  0  0  0  0  0  0  0  0  0  0
   55.0217   30.9645   43.8316 H   0  0  0  0  0  0  0  0  0  0  0  0
   57.0430   30.3150   43.4350 C   0  0  0  0  0  0  0  0  0  0  0  0
   57.3692   31.2987   43.0664 H   0  0  0  0  0  0  0  0  0  0  0  0
   56.7255   29.6762   42.5977 H   0  0  0  0  0  0  0  0  0  0  0  0
   58.2170   29.6330   44.1540 C   0  0  0  0  0  0  0  0  0  0  0  0
   58.6403   30.3368   44.8858 H   0  0  0  0  0  0  0  0  0  0  0  0
   58.9585   29.3499   43.3924 H   0  0  0  0  0  0  0  0  0  0  0  0
   58.8610   28.8990   48.9480 C   0  0  0  0  0  0  0  0  0  0  0  0
   57.9468   28.3771   49.2671 H   0  0  0  0  0  0  0  0  0  0  0  0
   60.8480   33.4480   51.0690 N   0  0  0  0  0  0  0  0  0  0  0  0
   61.7780   33.6350   50.0990 C   0  0  0  0  0  0  0  0  0  0  0  0
   62.9960   33.7070   50.4170 O   0  0  0  0  0  0  0  0  0  0  0  0
   61.3790   33.7380   48.7560 C   0  0  0  0  0  0  0  0  0  0  0  0
   62.3750   33.8680   47.7140 C   0  0  0  0  0  0  0  0  0  0  0  0
   63.1710   33.9720   46.8820 N   0  0  0  0  0  0  0  0  0  0  0  0
   59.7480   34.8720   46.2800 C   0  0  0  0  0  0  0  0  0  0  0  0
   60.3933   35.6743   46.6672 H   0  0  0  0  0  0  0  0  0  0  0  0
   59.2110   34.9720   44.9930 C   0  0  0  0  0  0  0  0  0  0  0  0
   59.4402   35.8482   44.3687 H   0  0  0  0  0  0  0  0  0  0  0  0
  1  2  1  0
  2  3  2  0
  3  4  1  0
  3  5  1  0
  5  6  1  0
  5  7  2  0
  7  8  1  0
  8  9  1  0
  9 10  1  0
 10 11  1  0
 11 12  1  0
 12 13  1  0
 12 14  1  0
 12 15  1  0
 15 16  2  0
 15 17  1  0
 17 18  1  0
 18 19  2  0
 19 20  1  0
 19 21  1  0
 21 22  1  0
 21 23  2  0
 23 24  1  0
 23 25  1  0
 25 26  1  0
 26 27  2  0
 26 28  2  0
 26 29  1  0
 29 30  2  0
 30 31  1  0
 31 32  2  0
 31 33  1  0
 33 34  1  0
 34 35  1  0
 34 36  1  0
 34 37  1  0
 37 38  1  0
 37 39  1  0
 37 40  1  0
 40 41  1  0
 40 42  1  0
 25 43  2  0
 43 44  1  0
 10 45  2  0
 45 46  1  0
 46 47  2  0
 46 48  1  0
 48 49  1  0
 49 50  3  0
  7 51  1  0
 51 52  1  0
 51 53  2  0
 53 54  1  0
 53  2  1  0
 48  8  2  0
 43 18  1  0
 40 30  1  0
M  CHG  3   9  -1  17  -1  33  -1
M  END
>  <UniqueID>  (43) 
39

>  <SMILES>  (43) 
N#Cc1c(-c2ccccc2)[n-]c(SCC(=O)[N-]c2cccc(S(=O)(=O)/N=C3\CCC[N-]C3=O)c2)nc1=O

>  <Energy>  (43) 
64.98114878798786

>  <Genealogy>  (43) 
N#Cc1c(-c2ccccc2)[n-]c(SCC(=O)[N-]c2cccc(S(=O)(=O)N=C3CCC[N-]C3=O)c2)nc1=O (protonated)
N#Cc1c(-c2ccccc2)[n-]c(SCC(=O)[N-]c2cccc(S(=O)(=O)/N=C3\CCC[N-]C3=O)c2)nc1=O (cis-trans isomerization)
N#Cc1c(-c2ccccc2)[n-]c(SCC(=O)[N-]c2cccc(S(=O)(=O)/N=C3\CCC[N-]C3=O)c2)nc1=O (3D coordinates assigned)
N#Cc1c(-c2ccccc2)[n-]c(SCC(=O)[N-]c2cccc(S(=O)(=O)/N=C3\CCC[N-]C3=O)c2)nc1=O (nonaromatic ring conformer: 64.98114878798786 kcal/mol)

>  <smiles>  (43) 
N#Cc1c(-c2ccccc2)[nH]c(SCC(=O)Nc2cccc(S(=O)(=O)N=C3CCCNC3=O)c2)nc1=O

>  <score_type>  (43) 
oracle

>  <origin>  (43) 
adg

>  <m_score__min__energy>  (43) 
-14.390000000000001

>  <m_primary>  (43) 
energy

$$$$
43:0
     RDKit          3D

 81 84  0  0  0  0  0  0  0  0999 V2000
   64.6310   32.7620   49.0460 C   0  0  0  0  0  0  0  0  0  0  0  0
   63.3980   31.8490   48.8620 C   0  0  0  0  0  0  0  0  0  0  0  0
   63.0560   31.6800   47.3740 C   0  0  0  0  0  0  0  0  0  0  0  0
   62.1990   32.2920   49.6290 N   0  0  0  0  0  0  0  0  0  0  0  0
   62.2320   33.7160   50.0420 C   0  0  0  0  0  0  0  0  0  0  0  0
   61.4900   34.5960   49.0260 C   0  0  0  0  0  0  0  0  0  0  0  0
   60.8830   33.7810   47.9740 N   0  0  0  0  0  0  0  0  0  0  0  0
   59.9670   34.3410   47.0240 C   0  0  0  0  0  0  0  0  0  0  0  0
   59.9550   35.5860   46.8190 O   0  0  0  0  0  0  0  0  0  0  0  0
   59.0440   33.4670   46.2700 C   0  0  0  0  0  0  0  0  0  0  0  0
   58.6670   32.2180   46.7900 C   0  0  0  0  0  0  0  0  0  0  0  0
   57.7770   31.4000   46.0900 C   0  0  0  0  0  0  0  0  0  0  0  0
   57.2630   31.8050   44.8480 C   0  0  0  0  0  0  0  0  0  0  0  0
   56.2690   30.9290   44.1350 C   0  0  0  0  0  0  0  0  0  0  0  0
   56.1810   29.6350   44.8080 N   0  0  0  0  0  0  0  0  0  0  0  0
   57.2370   28.6750   44.9450 C   0  0  0  0  0  0  0  0  0  0  0  0
   58.1450   28.6600   44.0720 O   0  0  0  0  0  0  0  0  0  0  0  0
   57.2150   27.6110   46.0240 C   0  0  2  0  0  0  0  0  0  0  0  0
   58.4290   27.6820   46.9330 C   0  0  0  0  0  0  0  0  0  0  0  0
   59.3870   26.6490   46.9640 C   0  0  0  0  0  0  0  0  0  0  0  0
   60.4910   26.7350   47.8160 C   0  0  0  0  0  0  0  0  0  0  0  0
   60.6610   27.8520   48.6360 C   0  0  0  0  0  0  0  0  0  0  0  0
   59.7280   28.8880   48.6050 C   0  0  0  0  0  0  0  0  0  0  0  0
   58.6180   28.8070   47.7600 C   0  0  0  0  0  0  0  0  0  0  0  0
   57.0290   26.2160   45.4490 C   0  0  0  0  0  0  0  0  0  0  0  0
   57.5640   25.9150   44.1820 C   0  0  0  0  0  0  0  0  0  0  0  0
   57.4020   24.6410   43.6260 C   0  0  0  0  0  0  0  0  0  0  0  0
   56.7010   23.6490   44.3260 C   0  0  0  0  0  0  0  0  0  0  0  0
   56.4960   22.0460   43.6300 S   0  0  0  0  0  0  0  0  0  0  0  0
   58.0900   21.2840   43.4300 C   0  0  0  0  0  0  0  0  0  0  0  0
   55.6460   21.1980   44.5360 O   0  0  0  0  0  0  0  0  0  0  0  0
   55.8160   22.1560   42.2920 O   0  0  0  0  0  0  0  0  0  0  0  0
   56.1400   23.9490   45.5730 C   0  0  0  0  0  0  0  0  0  0  0  0
   56.2980   25.2210   46.1290 C   0  0  0  0  0  0  0  0  0  0  0  0
   57.6340   33.0560   44.3290 C   0  0  0  0  0  0  0  0  0  0  0  0
   58.5110   33.8850   45.0390 C   0  0  0  0  0  0  0  0  0  0  0  0
   61.8880   31.3860   50.7600 C   0  0  0  0  0  0  0  0  0  0  0  0
   60.3960   31.2320   50.8980 C   0  0  0  0  0  0  0  0  0  0  0  0
   59.5230   32.1210   50.2480 C   0  0  0  0  0  0  0  0  0  0  0  0
   58.1380   31.9810   50.3920 C   0  0  0  0  0  0  0  0  0  0  0  0
   57.6180   30.9520   51.1830 C   0  0  0  0  0  0  0  0  0  0  0  0
   58.4800   30.0700   51.8390 C   0  0  0  0  0  0  0  0  0  0  0  0
   59.8660   30.2090   51.7020 C   0  0  0  0  0  0  0  0  0  0  0  0
   64.8243   32.9052   50.1194 H   0  0  0  0  0  0  0  0  0  0  0  0
   65.5077   32.2936   48.5748 H   0  0  0  0  0  0  0  0  0  0  0  0
   64.4387   33.7372   48.5748 H   0  0  0  0  0  0  0  0  0  0  0  0
   63.6851   30.8737   49.2820 H   0  0  0  0  0  0  0  0  0  0  0  0
   62.0737   31.1946   47.2764 H   0  0  0  0  0  0  0  0  0  0  0  0
   63.0268   32.6674   46.8900 H   0  0  0  0  0  0  0  0  0  0  0  0
   63.8226   31.0570   46.8900 H   0  0  0  0  0  0  0  0  0  0  0  0
   61.7509   33.8173   51.0260 H   0  0  0  0  0  0  0  0  0  0  0  0
   63.2807   34.0440   50.0928 H   0  0  0  0  0  0  0  0  0  0  0  0
   60.7008   35.1590   49.5459 H   0  0  0  0  0  0  0  0  0  0  0  0
   62.2127   35.2846   48.5639 H   0  0  0  0  0  0  0  0  0  0  0  0
   61.0900   32.7580   47.9280 H   0  0  0  0  0  0  0  0  0  0  0  0
   59.0751   31.8818   47.7546 H   0  0  0  0  0  0  0  0  0  0  0  0
   57.4766   30.4310   46.5152 H   0  0  0  0  0  0  0  0  0  0  0  0
   55.2817   31.4138   44.1443 H   0  0  0  0  0  0  0  0  0  0  0  0
   56.5965   30.7776   43.0959 H   0  0  0  0  0  0  0  0  0  0  0  0
   56.3355   27.8256   46.6488 H   0  0  0  0  0  0  0  0  0  0  0  0
   59.2650   25.7701   46.3139 H   0  0  0  0  0  0  0  0  0  0  0  0
   61.2289   25.9196   47.8408 H   0  0  0  0  0  0  0  0  0  0  0  0
   61.5308   27.9149   49.3065 H   0  0  0  0  0  0  0  0  0  0  0  0
   59.8661   29.7706   49.2469 H   0  0  0  0  0  0  0  0  0  0  0  0
   57.8861   29.6279   47.7403 H   0  0  0  0  0  0  0  0  0  0  0  0
   58.1139   26.6876   43.6245 H   0  0  0  0  0  0  0  0  0  0  0  0
   57.8262   24.4171   42.6361 H   0  0  0  0  0  0  0  0  0  0  0  0
   58.5240   21.0766   44.4193 H   0  0  0  0  0  0  0  0  0  0  0  0
   57.9787   20.3417   42.8735 H   0  0  0  0  0  0  0  0  0  0  0  0
   58.7535   21.9623   42.8735 H   0  0  0  0  0  0  0  0  0  0  0  0
   55.5724   23.1800   46.1174 H   0  0  0  0  0  0  0  0  0  0  0  0
   55.8477   25.4481   47.1066 H   0  0  0  0  0  0  0  0  0  0  0  0
   57.2334   33.3865   43.3593 H   0  0  0  0  0  0  0  0  0  0  0  0
   58.7843   34.8692   44.6307 H   0  0  0  0  0  0  0  0  0  0  0  0
   62.3407   30.4010   50.5734 H   0  0  0  0  0  0  0  0  0  0  0  0
   62.2955   31.8126   51.6884 H   0  0  0  0  0  0  0  0  0  0  0  0
   59.9299   32.9301   49.6236 H   0  0  0  0  0  0  0  0  0  0  0  0
   57.4586   32.6804   49.8829 H   0  0  0  0  0  0  0  0  0  0  0  0
   56.5292   30.8369   51.2888 H   0  0  0  0  0  0  0  0  0  0  0  0
   58.0686   29.2643   52.4647 H   0  0  0  0  0  0  0  0  0  0  0  0
   60.5416   29.5160   52.2248 H   0  0  0  0  0  0  0  0  0  0  0  0
  1  2  1  0
  2  3  1  0
  2  4  1  0
  4  5  1  0
  5  6  1  0
  6  7  1  0
  7  8  1  0
  8  9  2  0
  8 10  1  0
 10 11  2  0
 11 12  1  0
 12 13  2  0
 13 14  1  0
 14 15  1  0
 15 16  1  0
 16 17  2  0
 16 18  1  0
 18 19  1  0
 19 20  2  0
 20 21  1  0
 21 22  2  0
 22 23  1  0
 23 24  2  0
 18 25  1  0
 25 26  2  0
 26 27  1  0
 27 28  2  0
 28 29  1  0
 29 30  1  0
 29 31  2  0
 29 32  2  0
 28 33  1  0
 33 34  2  0
 13 35  1  0
 35 36  2  0
  4 37  1  0
 37 38  1  0
 38 39  2  0
 39 40  1  0
 40 41  2  0
 41 42  1  0
 42 43  2  0
 36 10  1  0
 43 38  1  0
 24 19  1  0
 34 25  1  0
  1 44  1  0
  1 45  1  0
  1 46  1  0
  2 47  1  0
  3 48  1  0
  3 49  1  0
  3 50  1  0
  5 51  1  0
  5 52  1  0
  6 53  1  0
  6 54  1  0
  7 55  1  0
 11 56  1  0
 12 57  1  0
 14 58  1  0
 14 59  1  0
 18 60  1  1
 20 61  1  0
 21 62  1  0
 22 63  1  0
 23 64  1  0
 24 65  1  0
 26 66  1  0
 27 67  1  0
 30 68  1  0
 30 69  1  0
 30 70  1  0
 33 71  1  0
 34 72  1  0
 35 73  1  0
 36 74  1  0
 37 75  1  0
 37 76  1  0
 39 77  1  0
 40 78  1  0
 41 79  1  0
 42 80  1  0
 43 81  1  0
M  CHG  1  15  -1
M  END
>  <UniqueID>  (44) 
40

>  <SMILES>  (44) 
CC(C)N(CCNC(=O)c1ccc(C[N-]C(=O)[C@H](c2ccccc2)c2ccc(S(C)(=O)=O)cc2)cc1)Cc1ccccc1

>  <Energy>  (44) 
86.70026215597056

>  <Genealogy>  (44) 
CC(C)N(CCNC(=O)c1ccc(C[N-]C(=O)C(c2ccccc2)c2ccc(S(C)(=O)=O)cc2)cc1)Cc1ccccc1 (protonated)
CC(C)N(CCNC(=O)c1ccc(C[N-]C(=O)[C@H](c2ccccc2)c2ccc(S(C)(=O)=O)cc2)cc1)Cc1ccccc1 (chirality)
CC(C)N(CCNC(=O)c1ccc(C[N-]C(=O)[C@H](c2ccccc2)c2ccc(S(C)(=O)=O)cc2)cc1)Cc1ccccc1 (3D coordinates assigned)
CC(C)N(CCNC(=O)c1ccc(C[N-]C(=O)[C@H](c2ccccc2)c2ccc(S(C)(=O)=O)cc2)cc1)Cc1ccccc1 (optimized conformer: 86.70026215597056 kcal/mol)

>  <smiles>  (44) 
CC(C)N(CCNC(=O)c1ccc(CNC(=O)C(c2ccccc2)c2ccc(S(C)(=O)=O)cc2)cc1)Cc1ccccc1

>  <score_type>  (44) 
oracle

>  <origin>  (44) 
adg

>  <m_score__min__energy>  (44) 
-12.16

>  <m_primary>  (44) 
energy

$$$$
44:0
     RDKit          3D

 45 47  0  0  0  0  0  0  0  0999 V2000
   60.0031   26.6190   45.1949 H   0  0  0  0  0  0  0  0  0  0  0  0
   59.0540   27.1720   45.2530 C   0  0  0  0  0  0  0  0  0  0  0  0
   57.9070   26.5190   45.5720 N   0  0  0  0  0  0  0  0  0  0  0  0
   56.7080   27.1620   45.6510 C   0  0  0  0  0  0  0  0  0  0  0  0
   55.6230   26.5270   45.9890 N   0  0  0  0  0  0  0  0  0  0  0  0
   55.2710   25.1820   45.6310 C   0  0  0  0  0  0  0  0  0  0  0  0
   54.0950   24.7870   45.8420 O   0  0  0  0  0  0  0  0  0  0  0  0
   56.2110   24.3130   44.9800 N   0  0  0  0  0  0  0  0  0  0  0  0
   57.0890   24.7170   44.5830 H   0  0  0  0  0  0  0  0  0  0  0  0
   55.9270   22.8900   44.7970 C   0  0  0  0  0  0  0  0  0  0  0  0
   54.8395   22.7488   44.7107 H   0  0  0  0  0  0  0  0  0  0  0  0
   56.3203   22.3406   45.6650 H   0  0  0  0  0  0  0  0  0  0  0  0
   56.6000   22.3540   43.5390 C   0  0  0  0  0  0  0  0  0  0  0  0
   57.4315   21.6917   43.8218 H   0  0  0  0  0  0  0  0  0  0  0  0
   55.8676   21.7891   42.9436 H   0  0  0  0  0  0  0  0  0  0  0  0
   56.9866   23.1943   42.9436 H   0  0  0  0  0  0  0  0  0  0  0  0
   56.6480   28.5400   45.4130 C   0  0  0  0  0  0  0  0  0  0  0  0
   55.6883   29.0712   45.4955 H   0  0  0  0  0  0  0  0  0  0  0  0
   57.8160   29.2460   45.0680 C   0  0  0  0  0  0  0  0  0  0  0  0
   57.7930   30.7080   44.8100 C   0  0  0  0  0  0  0  0  0  0  0  0
   57.7870   31.5720   45.8640 N   0  0  0  0  0  0  0  0  0  0  0  0
   57.7680   32.9240   45.7140 C   0  0  0  0  0  0  0  0  0  0  0  0
   57.7570   33.6670   46.7860 N   0  0  0  0  0  0  0  0  0  0  0  0
   58.8630   34.4640   47.3230 C   0  0  0  0  0  0  0  0  0  0  0  0
   58.9914   35.3646   46.7045 H   0  0  0  0  0  0  0  0  0  0  0  0
   58.6250   34.7410   48.3606 H   0  0  0  0  0  0  0  0  0  0  0  0
   60.1470   33.6750   47.3180 C   0  0  0  0  0  0  0  0  0  0  0  0
   60.2170   32.4190   47.9450 C   0  0  0  0  0  0  0  0  0  0  0  0
   59.3265   32.0022   48.4382 H   0  0  0  0  0  0  0  0  0  0  0  0
   61.4140   31.6980   47.9440 C   0  0  0  0  0  0  0  0  0  0  0  0
   61.4609   30.7116   48.4286 H   0  0  0  0  0  0  0  0  0  0  0  0
   62.5510   32.2270   47.3290 C   0  0  0  0  0  0  0  0  0  0  0  0
   63.4916   31.6567   47.3286 H   0  0  0  0  0  0  0  0  0  0  0  0
   62.4940   33.4810   46.7140 C   0  0  0  0  0  0  0  0  0  0  0  0
   63.6000   33.9960   46.1220 F   0  0  0  0  0  0  0  0  0  0  0  0
   61.2980   34.2050   46.7120 C   0  0  0  0  0  0  0  0  0  0  0  0
   61.2582   35.1947   46.2335 H   0  0  0  0  0  0  0  0  0  0  0  0
   57.7650   33.4670   44.4150 C   0  0  0  0  0  0  0  0  0  0  0  0
   57.7510   34.5572   44.2691 H   0  0  0  0  0  0  0  0  0  0  0  0
   57.7800   32.6100   43.3150 C   0  0  0  0  0  0  0  0  0  0  0  0
   57.7792   33.0246   42.2961 H   0  0  0  0  0  0  0  0  0  0  0  0
   57.7960   31.2290   43.5040 C   0  0  0  0  0  0  0  0  0  0  0  0
   57.8109   30.5515   42.6375 H   0  0  0  0  0  0  0  0  0  0  0  0
   59.0300   28.5430   44.9990 C   0  0  0  0  0  0  0  0  0  0  0  0
   59.9600   29.0728   44.7451 H   0  0  0  0  0  0  0  0  0  0  0  0
  1  2  1  0
  2  3  1  0
  3  4  1  0
  4  5  2  0
  5  6  1  0
  6  7  2  0
  6  8  1  0
  8  9  1  0
  8 10  1  0
 10 11  1  0
 10 12  1  0
 10 13  1  0
 13 14  1  0
 13 15  1  0
 13 16  1  0
  4 17  1  0
 17 18  1  0
 17 19  2  0
 19 20  1  0
 20 21  1  0
 21 22  1  0
 22 23  2  0
 23 24  1  0
 24 25  1  0
 24 26  1  0
 24 27  1  0
 27 28  2  0
 28 29  1  0
 28 30  1  0
 30 31  1  0
 30 32  2  0
 32 33  1  0
 32 34  1  0
 34 35  1  0
 34 36  2  0
 36 37  1  0
 22 38  1  0
 38 39  1  0
 38 40  2  0
 40 41  1  0
 40 42  1  0
 42 43  1  0
 19 44  1  0
 44 45  1  0
 44  2  2  0
 42 20  2  0
 36 27  1  0
M  CHG  2   3  -1  21  -1
M  END
>  <UniqueID>  (45) 
41

>  <SMILES>  (45) 
CCNC(=O)/N=c1/cc(-c2ccc/c(=N\Cc3cccc(F)c3)[n-]2)cc[n-]1

>  <Energy>  (45) 
54.13950726128473

>  <Genealogy>  (45) 
CCNC(=O)N=c1cc(-c2cccc(=NCc3cccc(F)c3)[n-]2)cc[n-]1 (protonated)
CCNC(=O)/N=c1/cc(-c2ccc/c(=N\Cc3cccc(F)c3)[n-]2)cc[n-]1 (cis-trans isomerization)
CCNC(=O)/N=c1/cc(-c2ccc/c(=N\Cc3cccc(F)c3)[n-]2)cc[n-]1 (3D coordinates assigned)
CCNC(=O)/N=c1/cc(-c2ccc/c(=N\Cc3cccc(F)c3)[n-]2)cc[n-]1 (optimized conformer: 54.13950726128473 kcal/mol)

>  <smiles>  (45) 
CCNC(=O)N=c1cc(-c2cccc(=NCc3cccc(F)c3)[nH]2)cc[nH]1

>  <score_type>  (45) 
oracle

>  <origin>  (45) 
adg

>  <m_score__min__energy>  (45) 
-10.710000000000001

>  <m_primary>  (45) 
energy

$$$$
45:0
     RDKit          3D

 48 50  0  0  1  0  0  0  0  0999 V2000
   60.7940   30.5760   46.7600 C   0  0  0  0  0  0  0  0  0  0  0  0
   59.4810   30.8270   46.3400 O   0  0  0  0  0  0  0  0  0  0  0  0
   59.0470   32.0680   45.9310 C   0  0  0  0  0  0  0  0  0  0  0  0
   59.1420   33.2130   46.6930 C   0  0  0  0  0  0  0  0  0  0  0  0
   58.6960   34.4280   46.2460 C   0  0  0  0  0  0  0  0  0  0  0  0
   58.1340   34.5460   45.0080 C   0  0  0  0  0  0  0  0  0  0  0  0
   58.0210   33.4300   44.2170 C   0  0  0  0  0  0  0  0  0  0  0  0
   58.4730   32.1970   44.6700 C   0  0  0  0  0  0  0  0  0  0  0  0
   58.3180   31.0900   43.7900 N   0  0  0  0  0  0  0  0  0  0  0  0
   57.1800   30.2710   43.8900 C   0  0  0  0  0  0  0  0  0  0  0  0
   56.2690   30.4830   44.7500 O   0  0  0  0  0  0  0  0  0  0  0  0
   56.9480   29.0820   42.9920 C   0  0  0  0  0  0  0  0  0  0  0  0
   57.7690   28.0220   43.4740 N   0  0  0  0  0  0  0  0  0  0  0  0
   57.8480   27.6550   44.7100 C   0  0  0  0  0  0  0  0  0  0  0  0
   58.7520   28.2110   45.5350 N   0  0  0  0  0  0  0  0  0  0  0  0
   58.8250   27.8220   46.8220 C   0  0  0  0  0  0  0  0  0  0  0  0
   57.9610   26.8470   47.2780 C   0  0  0  0  0  0  0  0  0  0  0  0
   57.0360   26.2830   46.4180 C   0  0  0  0  0  0  0  0  0  0  0  0
   56.2590   25.3750   46.9130 N   0  0  0  0  0  0  0  0  0  0  0  0
   56.8050   24.0340   47.0000 C   0  0  0  0  0  0  0  0  0  0  0  0
   56.7420   23.5020   45.5950 C   0  0  0  0  0  0  0  0  0  0  0  0
   55.6860   23.8060   44.7650 C   0  0  0  0  0  0  0  0  0  0  0  0
   55.6070   23.3220   43.4560 C   0  0  0  0  0  0  0  0  0  0  0  0
   56.6360   22.5110   42.9980 C   0  0  0  0  0  0  0  0  0  0  0  0
   57.6910   22.2060   43.8230 C   0  0  0  0  0  0  0  0  0  0  0  0
   57.7660   22.6870   45.1220 C   0  0  0  0  0  0  0  0  0  0  0  0
   56.9890   26.6910   45.1490 N   0  0  0  0  0  0  0  0  0  0  0  0
   60.8323   30.5687   47.8593 H   0  0  0  0  0  0  0  0  0  0  0  0
   61.1216   29.5990   46.3752 H   0  0  0  0  0  0  0  0  0  0  0  0
   61.4589   31.3633   46.3752 H   0  0  0  0  0  0  0  0  0  0  0  0
   59.5917   33.1483   47.6948 H   0  0  0  0  0  0  0  0  0  0  0  0
   58.7914   35.3152   46.8893 H   0  0  0  0  0  0  0  0  0  0  0  0
   57.7764   35.5223   44.6489 H   0  0  0  0  0  0  0  0  0  0  0  0
   57.5694   33.5125   43.2174 H   0  0  0  0  0  0  0  0  0  0  0  0
   59.0270   30.8550   43.0600 H   0  0  0  0  0  0  0  0  0  0  0  0
   55.8896   28.7844   43.0270 H   0  0  0  0  0  0  0  0  0  0  0  0
   57.1987   29.3261   41.9491 H   0  0  0  0  0  0  0  0  0  0  0  0
   59.4140   28.9520   45.2060 H   0  0  0  0  0  0  0  0  0  0  0  0
   59.5629   28.2749   47.5005 H   0  0  0  0  0  0  0  0  0  0  0  0
   58.0081   26.5181   48.3266 H   0  0  0  0  0  0  0  0  0  0  0  0
   57.8448   24.0614   47.3578 H   0  0  0  0  0  0  0  0  0  0  0  0
   56.2473   23.4036   47.7082 H   0  0  0  0  0  0  0  0  0  0  0  0
   54.8790   24.4502   45.1442 H   0  0  0  0  0  0  0  0  0  0  0  0
   54.7549   23.5762   42.8084 H   0  0  0  0  0  0  0  0  0  0  0  0
   56.6066   22.1121   41.9733 H   0  0  0  0  0  0  0  0  0  0  0  0
   58.4985   21.5628   43.4433 H   0  0  0  0  0  0  0  0  0  0  0  0
   58.6193   22.4289   45.7664 H   0  0  0  0  0  0  0  0  0  0  0  0
   56.2910   26.2690   44.4920 H   0  0  0  0  0  0  0  0  0  0  0  0
  1  2  1  0
  2  3  1  0
  3  4  2  0
  4  5  1  0
  5  6  2  0
  6  7  1  0
  7  8  2  0
  8  9  1  0
  9 10  1  0
 10 11  2  0
 10 12  1  0
 12 13  1  0
 13 14  2  0
 14 15  1  0
 15 16  1  0
 16 17  2  0
 17 18  1  0
 18 19  2  0
 19 20  1  0
 20 21  1  0
 21 22  2  0
 22 23  1  0
 23 24  2  0
 24 25  1  0
 25 26  2  0
 18 27  1  0
  8  3  1  0
 27 14  1  0
 26 21  1  0
  1 28  1  0
  1 29  1  0
  1 30  1  0
  4 31  1  0
  5 32  1  0
  6 33  1  0
  7 34  1  0
  9 35  1  0
 12 36  1  0
 12 37  1  0
 15 38  1  0
 16 39  1  0
 17 40  1  0
 20 41  1  0
 20 42  1  0
 22 43  1  0
 23 44  1  0
 24 45  1  0
 25 46  1  0
 26 47  1  0
 27 48  1  0
M  END
>  <smiles>  (46) 
COc1ccccc1NC(=O)CN=c1[nH]ccc(=NCc2ccccc2)[nH]1

>  <score_type>  (46) 
oracle

>  <origin>  (46) 
adg

>  <m_score__min__energy>  (46) 
-8.5800000000000001

>  <m_primary>  (46) 
energy

$$$$
46:0
     RDKit          3D

 63 66  0  0  0  0  0  0  0  0999 V2000
   55.5300   30.5660   44.1850 C   0  0  0  0  0  0  0  0  0  0  0  0
   55.8010   29.4270   44.9900 O   0  0  0  0  0  0  0  0  0  0  0  0
   56.8580   28.5510   44.7200 C   0  0  0  0  0  0  0  0  0  0  0  0
   57.4550   28.5910   43.6120 O   0  0  0  0  0  0  0  0  0  0  0  0
   57.2470   27.5460   45.7250 C   0  0  0  0  0  0  0  0  0  0  0  0
   56.2800   26.6130   46.1430 C   0  0  0  0  0  0  0  0  0  0  0  0
   54.9940   26.6360   45.6100 O   0  0  0  0  0  0  0  0  0  0  0  0
   56.5920   25.6610   47.1100 C   0  0  0  0  0  0  0  0  0  0  0  0
   57.8670   25.6060   47.6700 C   0  0  0  0  0  0  0  0  0  0  0  0
   58.1200   24.6280   48.6350 O   0  0  0  0  0  0  0  0  0  0  0  0
   58.8570   26.5180   47.2560 C   0  0  0  0  0  0  0  0  0  0  0  0
   60.4800   26.4050   47.9530 Cl  0  0  0  0  0  0  0  0  0  0  0  0
   58.5550   27.5050   46.2810 C   0  0  0  0  0  0  0  0  0  0  0  0
   59.6420   28.4700   45.8300 C   0  0  0  0  0  0  0  0  0  0  0  0
   59.2940   29.9420   46.1520 C   0  0  0  0  0  0  0  0  0  0  0  0
   59.7910   30.3860   47.5050 C   0  0  0  0  0  0  0  0  0  0  0  0
   60.7660   29.7300   48.1640 N   0  0  0  0  0  0  0  0  0  0  0  0
   60.8780   30.2850   49.3610 N   0  0  0  0  0  0  0  0  0  0  0  0
   59.9560   31.2630   49.4300 C   0  0  0  0  0  0  0  0  0  0  0  0
   59.7870   32.1380   50.6440 C   0  0  0  0  0  0  0  0  0  0  0  0
   60.1540   33.6010   50.3450 C   0  0  0  0  0  0  0  0  0  0  0  0
   61.6690   33.8750   50.3890 C   0  0  0  0  0  0  0  0  0  0  0  0
   62.3670   33.4310   49.1270 C   0  0  0  0  0  0  0  0  0  0  0  0
   62.2710   34.2010   47.9600 C   0  0  0  0  0  0  0  0  0  0  0  0
   62.9560   33.8150   46.8010 C   0  0  0  0  0  0  0  0  0  0  0  0
   63.7140   32.6430   46.7950 C   0  0  0  0  0  0  0  0  0  0  0  0
   63.8020   31.8600   47.9480 C   0  0  0  0  0  0  0  0  0  0  0  0
   63.1360   32.2540   49.1130 C   0  0  0  0  0  0  0  0  0  0  0  0
   59.2400   31.3530   48.2830 N   0  0  0  0  0  0  0  0  0  0  0  0
   58.1490   32.2880   47.9730 C   0  0  0  0  0  0  0  0  0  0  0  0
   58.5630   33.2390   46.8810 C   0  0  0  0  0  0  0  0  0  0  0  0
   59.2710   34.4060   47.2020 C   0  0  0  0  0  0  0  0  0  0  0  0
   59.6230   35.3210   46.2040 C   0  0  0  0  0  0  0  0  0  0  0  0
   59.2800   35.0690   44.8750 C   0  0  0  0  0  0  0  0  0  0  0  0
   58.5920   33.8970   44.5430 C   0  0  0  0  0  0  0  0  0  0  0  0
   58.2320   32.9850   45.5410 C   0  0  0  0  0  0  0  0  0  0  0  0
   55.3241   31.4316   44.8318 H   0  0  0  0  0  0  0  0  0  0  0  0
   56.4018   30.7820   43.5500 H   0  0  0  0  0  0  0  0  0  0  0  0
   54.6543   30.3662   43.5500 H   0  0  0  0  0  0  0  0  0  0  0  0
   55.8236   24.9444   47.4356 H   0  0  0  0  0  0  0  0  0  0  0  0
   57.4030   24.2560   49.2470 H   0  0  0  0  0  0  0  0  0  0  0  0
   60.5804   28.2089   46.3410 H   0  0  0  0  0  0  0  0  0  0  0  0
   59.7390   28.3794   44.7380 H   0  0  0  0  0  0  0  0  0  0  0  0
   59.7485   30.5851   45.3840 H   0  0  0  0  0  0  0  0  0  0  0  0
   58.1972   30.0246   46.1626 H   0  0  0  0  0  0  0  0  0  0  0  0
   58.7382   32.0934   50.9726 H   0  0  0  0  0  0  0  0  0  0  0  0
   60.4619   31.7685   51.4301 H   0  0  0  0  0  0  0  0  0  0  0  0
   59.7831   33.8549   49.3410 H   0  0  0  0  0  0  0  0  0  0  0  0
   59.6904   34.2179   51.1290 H   0  0  0  0  0  0  0  0  0  0  0  0
   61.8297   34.9552   50.5211 H   0  0  0  0  0  0  0  0  0  0  0  0
   62.0910   33.3012   51.2273 H   0  0  0  0  0  0  0  0  0  0  0  0
   61.6551   35.1124   47.9543 H   0  0  0  0  0  0  0  0  0  0  0  0
   62.8966   34.4358   45.8949 H   0  0  0  0  0  0  0  0  0  0  0  0
   64.2428   32.3357   45.8807 H   0  0  0  0  0  0  0  0  0  0  0  0
   64.3950   30.9336   47.9399 H   0  0  0  0  0  0  0  0  0  0  0  0
   63.2142   31.6402   50.0225 H   0  0  0  0  0  0  0  0  0  0  0  0
   57.2676   31.7189   47.6424 H   0  0  0  0  0  0  0  0  0  0  0  0
   57.9095   32.8672   48.8770 H   0  0  0  0  0  0  0  0  0  0  0  0
   59.5519   34.6036   48.2470 H   0  0  0  0  0  0  0  0  0  0  0  0
   60.1698   36.2386   46.4667 H   0  0  0  0  0  0  0  0  0  0  0  0
   59.5501   35.7906   44.0899 H   0  0  0  0  0  0  0  0  0  0  0  0
   58.3332   33.6918   43.4937 H   0  0  0  0  0  0  0  0  0  0  0  0
   57.6882   32.0666   45.2748 H   0  0  0  0  0  0  0  0  0  0  0  0
  1  2  1  0
  2  3  1  0
  3  4  2  0
  3  5  1  0
  5  6  2  0
  6  7  1  0
  6  8  1  0
  8  9  2  0
  9 10  1  0
  9 11  1  0
 11 12  1  0
 11 13  2  0
 13 14  1  0
 14 15  1  0
 15 16  1  0
 16 17  2  0
 17 18  1  0
 18 19  2  0
 19 20  1  0
 20 21  1  0
 21 22  1  0
 22 23  1  0
 23 24  2  0
 24 25  1  0
 25 26  2  0
 26 27  1  0
 27 28  2  0
 19 29  1  0
 29 30  1  0
 30 31  1  0
 31 32  2  0
 32 33  1  0
 33 34  2  0
 34 35  1  0
 35 36  2  0
 13  5  1  0
 29 16  1  0
 36 31  1  0
 28 23  1  0
  1 37  1  0
  1 38  1  0
  1 39  1  0
  8 40  1  0
 10 41  1  0
 14 42  1  0
 14 43  1  0
 15 44  1  0
 15 45  1  0
 20 46  1  0
 20 47  1  0
 21 48  1  0
 21 49  1  0
 22 50  1  0
 22 51  1  0
 24 52  1  0
 25 53  1  0
 26 54  1  0
 27 55  1  0
 28 56  1  0
 30 57  1  0
 30 58  1  0
 32 59  1  0
 33 60  1  0
 34 61  1  0
 35 62  1  0
 36 63  1  0
M  CHG  1   7  -1
M  END
>  <UniqueID>  (47) 
42

>  <SMILES>  (47) 
COC(=O)c1c([O-])cc(O)c(Cl)c1CCc1nnc(CCCc2ccccc2)n1Cc1ccccc1

>  <Energy>  (47) 
102.19256319248605

>  <Genealogy>  (47) 
COC(=O)c1c([O-])cc(O)c(Cl)c1CCc1nnc(CCCc2ccccc2)n1Cc1ccccc1 (protonated)
COC(=O)c1c([O-])cc(O)c(Cl)c1CCc1nnc(CCCc2ccccc2)n1Cc1ccccc1 (3D coordinates assigned)
COC(=O)c1c([O-])cc(O)c(Cl)c1CCc1nnc(CCCc2ccccc2)n1Cc1ccccc1 (optimized conformer: 102.19256319248605 kcal/mol)

>  <smiles>  (47) 
COC(=O)c1c(O)cc(O)c(Cl)c1CCc1nnc(CCCc2ccccc2)n1Cc1ccccc1

>  <score_type>  (47) 
oracle

>  <origin>  (47) 
adg

>  <m_score__min__energy>  (47) 
-13.42

>  <m_primary>  (47) 
energy

$$$$
47:0
     RDKit          3D

 44 47  0  0  0  0  0  0  0  0999 V2000
   55.5200   29.5130   45.1680 O   0  0  0  0  0  0  0  0  0  0  0  0
   56.7190   29.6150   44.7950 C   0  0  0  0  0  0  0  0  0  0  0  0
   57.3990   28.4350   44.3450 N   0  0  0  0  0  0  0  0  0  0  0  0
   57.8070   27.3280   45.1650 C   0  0  0  0  0  0  0  0  0  0  0  0
   59.1500   26.9060   45.2000 C   0  0  0  0  0  0  0  0  0  0  0  0
   59.5260   25.8160   45.9890 C   0  0  0  0  0  0  0  0  0  0  0  0
   58.5680   25.1280   46.7360 C   0  0  0  0  0  0  0  0  0  0  0  0
   57.2290   25.5240   46.6890 C   0  0  0  0  0  0  0  0  0  0  0  0
   56.8400   26.6160   45.9030 C   0  0  0  0  0  0  0  0  0  0  0  0
   55.4940   26.9790   45.8780 O   0  0  0  0  0  0  0  0  0  0  0  0
   57.4100   30.9250   44.9000 C   0  0  0  0  0  0  0  0  0  0  0  0
   57.1010   31.9460   43.9840 C   0  0  0  0  0  0  0  0  0  0  0  0
   57.7410   33.1830   44.0560 C   0  0  0  0  0  0  0  0  0  0  0  0
   58.7020   33.4240   45.0370 C   0  0  0  0  0  0  0  0  0  0  0  0
   59.0330   32.4210   45.9650 C   0  0  0  0  0  0  0  0  0  0  0  0
   59.9960   32.6300   46.9690 C   0  0  0  0  0  0  0  0  0  0  0  0
   60.6050   33.7310   47.0610 O   0  0  0  0  0  0  0  0  0  0  0  0
   60.2860   31.6100   47.8780 C   0  0  0  0  0  0  0  0  0  0  0  0
   59.6130   30.3800   47.7910 C   0  0  0  0  0  0  0  0  0  0  0  0
   59.8830   29.3040   48.7150 N   0  0  0  0  0  0  0  0  0  0  0  0
   60.1260   29.6150   50.1300 C   0  0  0  0  0  0  0  0  0  0  0  0
   61.0000   28.5330   50.7690 C   0  0  0  0  0  0  0  0  0  0  0  0
   60.4640   27.2470   50.5280 O   0  0  0  0  0  0  0  0  0  0  0  0
   60.5240   26.9630   49.1440 C   0  0  0  0  0  0  0  0  0  0  0  0
   59.6110   27.9060   48.3530 C   0  0  0  0  0  0  0  0  0  0  0  0
   58.6930   30.2000   46.8050 N   0  0  0  0  0  0  0  0  0  0  0  0
   58.3850   31.1640   45.8940 C   0  0  0  0  0  0  0  0  0  0  0  0
   59.9065   27.4369   44.6035 H   0  0  0  0  0  0  0  0  0  0  0  0
   60.5789   25.4993   46.0217 H   0  0  0  0  0  0  0  0  0  0  0  0
   58.8674   24.2742   47.3616 H   0  0  0  0  0  0  0  0  0  0  0  0
   56.4757   24.9748   47.2729 H   0  0  0  0  0  0  0  0  0  0  0  0
   55.1430   27.7170   45.2790 H   0  0  0  0  0  0  0  0  0  0  0  0
   56.3472   31.7674   43.2031 H   0  0  0  0  0  0  0  0  0  0  0  0
   57.4861   33.9733   43.3345 H   0  0  0  0  0  0  0  0  0  0  0  0
   59.2029   34.4022   45.0851 H   0  0  0  0  0  0  0  0  0  0  0  0
   61.0411   31.7698   48.6617 H   0  0  0  0  0  0  0  0  0  0  0  0
   60.6373   30.5860   50.2055 H   0  0  0  0  0  0  0  0  0  0  0  0
   59.1620   29.6547   50.6584 H   0  0  0  0  0  0  0  0  0  0  0  0
   62.0120   28.5878   50.3413 H   0  0  0  0  0  0  0  0  0  0  0  0
   61.0335   28.7030   51.8553 H   0  0  0  0  0  0  0  0  0  0  0  0
   61.5597   27.0877   48.7952 H   0  0  0  0  0  0  0  0  0  0  0  0
   60.1864   25.9287   48.9822 H   0  0  0  0  0  0  0  0  0  0  0  0
   59.7924   27.7682   47.2768 H   0  0  0  0  0  0  0  0  0  0  0  0
   58.5630   27.6725   48.5922 H   0  0  0  0  0  0  0  0  0  0  0  0
  1  2  2  0
  2  3  1  0
  3  4  1  0
  4  5  2  0
  5  6  1  0
  6  7  2  0
  7  8  1  0
  8  9  2  0
  9 10  1  0
  2 11  1  0
 11 12  2  0
 12 13  1  0
 13 14  2  0
 14 15  1  0
 15 16  1  0
 16 17  2  0
 16 18  1  0
 18 19  2  0
 19 20  1  0
 20 21  1  0
 21 22  1  0
 22 23  1  0
 23 24  1  0
 24 25  1  0
 19 26  1  0
 26 27  1  0
  9  4  1  0
 27 11  1  0
 27 15  2  0
 25 20  1  0
  5 28  1  0
  6 29  1  0
  7 30  1  0
  8 31  1  0
 10 32  1  0
 12 33  1  0
 13 34  1  0
 14 35  1  0
 18 36  1  0
 21 37  1  0
 21 38  1  0
 22 39  1  0
 22 40  1  0
 24 41  1  0
 24 42  1  0
 25 43  1  0
 25 44  1  0
M  CHG  2   3  -1  26  -1
M  END
>  <UniqueID>  (48) 
43

>  <SMILES>  (48) 
O=C([N-]c1ccccc1O)c1cccc2c(=O)cc(N3CCOCC3)[n-]c12

>  <Energy>  (48) 
64.79314329174542

>  <Genealogy>  (48) 
O=C([N-]c1ccccc1O)c1cccc2c(=O)cc(N3CCOCC3)[n-]c12 (protonated)
O=C([N-]c1ccccc1O)c1cccc2c(=O)cc(N3CCOCC3)[n-]c12 (3D coordinates assigned)
O=C([N-]c1ccccc1O)c1cccc2c(=O)cc(N3CCOCC3)[n-]c12 (nonaromatic ring conformer: 64.79314329174542 kcal/mol)

>  <smiles>  (48) 
O=C(Nc1ccccc1O)c1cccc2c(=O)cc(N3CCOCC3)[nH]c12

>  <score_type>  (48) 
oracle

>  <origin>  (48) 
adg

>  <m_score__min__energy>  (48) 
-12.44

>  <m_primary>  (48) 
energy

$$$$
48:0
     RDKit          3D

 42 44  0  0  0  0  0  0  0  0999 V2000
   51.3890   32.6030   49.9220 O   0  0  0  0  0  0  0  0  0  0  0  0
   51.4000   32.3470   51.1560 C   0  0  0  0  0  0  0  0  0  0  0  0
   50.6200   33.1180   52.0090 O   0  0  0  0  0  0  0  0  0  0  0  0
   52.2310   31.2430   51.6880 C   0  0  0  0  0  0  0  0  0  0  0  0
   51.6310   30.0630   52.1610 C   0  0  0  0  0  0  0  0  0  0  0  0
   52.4160   29.0250   52.6620 C   0  0  0  0  0  0  0  0  0  0  0  0
   53.8070   29.1490   52.6970 C   0  0  0  0  0  0  0  0  0  0  0  0
   54.4300   30.3170   52.2290 C   0  0  0  0  0  0  0  0  0  0  0  0
   55.9080   30.4220   52.2770 C   0  0  0  0  0  0  0  0  0  0  0  0
   56.7240   30.2600   53.3850 C   0  0  0  0  0  0  0  0  0  0  0  0
   58.0140   30.4520   52.9400 C   0  0  0  0  0  0  0  0  0  0  0  0
   57.9110   30.7200   51.5870 C   0  0  0  0  0  0  0  0  0  0  0  0
   59.0130   31.0010   50.6510 C   0  0  0  0  0  0  0  0  0  0  0  0
   59.0200   30.4220   49.5310 O   0  0  0  0  0  0  0  0  0  0  0  0
   60.0680   31.9140   50.9910 N   0  0  0  0  0  0  0  0  0  0  0  0
   61.1320   32.2590   50.0490 C   0  0  0  0  0  0  0  0  0  0  0  0
   60.7590   33.4760   49.2550 C   0  0  0  0  0  0  0  0  0  0  0  0
   59.4880   33.7090   48.9010 C   0  0  0  0  0  0  0  0  0  0  0  0
   59.0420   33.9150   47.5020 C   0  0  0  0  0  0  0  0  0  0  0  0
   57.8470   33.3050   47.0800 C   0  0  0  0  0  0  0  0  0  0  0  0
   57.3850   33.4760   45.7730 C   0  0  0  0  0  0  0  0  0  0  0  0
   58.1020   34.2670   44.8740 C   0  0  0  0  0  0  0  0  0  0  0  0
   59.2810   34.8930   45.2820 C   0  0  0  0  0  0  0  0  0  0  0  0
   59.7510   34.7240   46.5900 C   0  0  0  0  0  0  0  0  0  0  0  0
   56.6490   30.6950   51.2250 O   0  0  0  0  0  0  0  0  0  0  0  0
   53.6320   31.3610   51.7250 C   0  0  0  0  0  0  0  0  0  0  0  0
   50.5363   29.9579   52.1358 H   0  0  0  0  0  0  0  0  0  0  0  0
   51.9383   28.1054   53.0309 H   0  0  0  0  0  0  0  0  0  0  0  0
   54.4187   28.3255   53.0941 H   0  0  0  0  0  0  0  0  0  0  0  0
   56.4065   30.0256   54.4118 H   0  0  0  0  0  0  0  0  0  0  0  0
   58.9360   30.4023   53.5379 H   0  0  0  0  0  0  0  0  0  0  0  0
   60.1010   32.3450   51.9410 H   0  0  0  0  0  0  0  0  0  0  0  0
   62.0579   32.4613   50.6074 H   0  0  0  0  0  0  0  0  0  0  0  0
   61.2813   31.4163   49.3579 H   0  0  0  0  0  0  0  0  0  0  0  0
   61.5423   34.1891   48.9584 H   0  0  0  0  0  0  0  0  0  0  0  0
   58.7293   33.7500   49.6965 H   0  0  0  0  0  0  0  0  0  0  0  0
   57.2712   32.6879   47.7854 H   0  0  0  0  0  0  0  0  0  0  0  0
   56.4540   32.9862   45.4515 H   0  0  0  0  0  0  0  0  0  0  0  0
   57.7381   34.3971   43.8441 H   0  0  0  0  0  0  0  0  0  0  0  0
   59.8422   35.5207   44.5741 H   0  0  0  0  0  0  0  0  0  0  0  0
   60.6775   35.2245   46.9078 H   0  0  0  0  0  0  0  0  0  0  0  0
   54.1098   32.2804   51.3556 H   0  0  0  0  0  0  0  0  0  0  0  0
  1  2  2  0
  2  3  1  0
  2  4  1  0
  4  5  2  0
  5  6  1  0
  6  7  2  0
  7  8  1  0
  8  9  1  0
  9 10  2  0
 10 11  1  0
 11 12  2  0
 12 13  1  0
 13 14  2  0
 13 15  1  0
 15 16  1  0
 16 17  1  0
 17 18  2  3
 18 19  1  0
 19 20  2  0
 20 21  1  0
 21 22  2  0
 22 23  1  0
 23 24  2  0
 12 25  1  0
  8 26  2  0
 26  4  1  0
 25  9  1  0
 24 19  1  0
  5 27  1  0
  6 28  1  0
  7 29  1  0
 10 30  1  0
 11 31  1  0
 15 32  1  0
 16 33  1  0
 16 34  1  0
 17 35  1  0
 18 36  1  0
 20 37  1  0
 21 38  1  0
 22 39  1  0
 23 40  1  0
 24 41  1  0
 26 42  1  0
M  CHG  1   3  -1
M  END
>  <UniqueID>  (49) 
44

>  <SMILES>  (49) 
O=C([O-])c1cccc(-c2ccc(C(=O)NCC=Cc3ccccc3)o2)c1

>  <Energy>  (49) 
70.16251423215178

>  <Genealogy>  (49) 
O=C([O-])c1cccc(-c2ccc(C(=O)NCC=Cc3ccccc3)o2)c1 (protonated)
O=C([O-])c1cccc(-c2ccc(C(=O)NCC=Cc3ccccc3)o2)c1 (3D coordinates assigned)
O=C([O-])c1cccc(-c2ccc(C(=O)NCC=Cc3ccccc3)o2)c1 (optimized conformer: 70.16251423215178 kcal/mol)

>  <smiles>  (49) 
O=C(O)c1cccc(-c2ccc(C(=O)NCC=Cc3ccccc3)o2)c1

>  <score_type>  (49) 
oracle

>  <origin>  (49) 
adg

>  <m_score__min__energy>  (49) 
-12.550000000000001

>  <m_primary>  (49) 
energy

$$$$
49:0
     RDKit          3D

 44 47  0  0  0  0  0  0  0  0999 V2000
   66.2880   32.9620   49.7490 C   0  0  0  0  0  0  0  0  0  0  0  0
   65.0980   32.1280   49.9980 N   0  0  0  0  0  0  0  0  0  0  0  0
   63.9690   32.3280   49.2510 C   0  0  0  0  0  0  0  0  0  0  0  0
   62.8090   31.5850   49.5080 C   0  0  0  0  0  0  0  0  0  0  0  0
   62.8620   30.5960   50.5040 C   0  0  0  0  0  0  0  0  0  0  0  0
   61.8470   29.8760   50.7200 O   0  0  0  0  0  0  0  0  0  0  0  0
   64.0030   30.4120   51.2370 N   0  0  0  0  0  0  0  0  0  0  0  0
   64.0250   29.4150   52.3240 C   0  0  0  0  0  0  0  0  0  0  0  0
   65.0980   31.2060   51.0150 C   0  0  0  0  0  0  0  0  0  0  0  0
   66.1160   31.0880   51.7550 O   0  0  0  0  0  0  0  0  0  0  0  0
   61.5460   31.8090   48.6850 C   0  0  1  0  0  0  0  0  0  0  0  0
   60.3470   32.1040   49.5790 C   0  0  0  0  0  0  0  0  0  0  0  0
   60.3660   33.2640   50.3780 C   0  0  0  0  0  0  0  0  0  0  0  0
   59.2990   33.5620   51.2280 C   0  0  0  0  0  0  0  0  0  0  0  0
   58.2020   32.7060   51.3000 C   0  0  0  0  0  0  0  0  0  0  0  0
   58.1680   31.5470   50.5240 C   0  0  0  0  0  0  0  0  0  0  0  0
   59.2310   31.2350   49.6670 C   0  0  0  0  0  0  0  0  0  0  0  0
   59.1180   29.7430   48.7380 Cl  0  0  0  0  0  0  0  0  0  0  0  0
   61.6880   32.8740   47.6690 N   0  0  0  0  0  0  0  0  0  0  0  0
   60.5600   33.2450   46.8480 C   0  0  0  0  0  0  0  0  0  0  0  0
   60.2630   34.6010   46.6260 C   0  0  0  0  0  0  0  0  0  0  0  0
   59.1520   34.9650   45.8600 C   0  0  0  0  0  0  0  0  0  0  0  0
   58.3270   33.9820   45.3100 C   0  0  0  0  0  0  0  0  0  0  0  0
   58.6120   32.6290   45.5250 C   0  0  0  0  0  0  0  0  0  0  0  0
   57.4820   31.2850   44.7750 Br  0  0  0  0  0  0  0  0  0  0  0  0
   59.7240   32.2610   46.2890 C   0  0  0  0  0  0  0  0  0  0  0  0
   62.9370   33.5550   47.4620 C   0  0  0  0  0  0  0  0  0  0  0  0
   63.9700   33.3000   48.1990 N   0  0  0  0  0  0  0  0  0  0  0  0
   66.7274   33.2699   50.7093 H   0  0  0  0  0  0  0  0  0  0  0  0
   67.0277   32.3837   49.1760 H   0  0  0  0  0  0  0  0  0  0  0  0
   65.9968   33.8547   49.1760 H   0  0  0  0  0  0  0  0  0  0  0  0
   64.0136   29.9312   53.2953 H   0  0  0  0  0  0  0  0  0  0  0  0
   63.1410   28.7654   52.2436 H   0  0  0  0  0  0  0  0  0  0  0  0
   64.9368   28.8050   52.2436 H   0  0  0  0  0  0  0  0  0  0  0  0
   61.3760   30.8661   48.1446 H   0  0  0  0  0  0  0  0  0  0  0  0
   61.2307   33.9424   50.3318 H   0  0  0  0  0  0  0  0  0  0  0  0
   59.3246   34.4744   51.8420 H   0  0  0  0  0  0  0  0  0  0  0  0
   57.3621   32.9442   51.9692 H   0  0  0  0  0  0  0  0  0  0  0  0
   57.3004   30.8736   50.5857 H   0  0  0  0  0  0  0  0  0  0  0  0
   60.9086   35.3800   47.0576 H   0  0  0  0  0  0  0  0  0  0  0  0
   58.9271   36.0283   45.6901 H   0  0  0  0  0  0  0  0  0  0  0  0
   57.4531   34.2711   44.7077 H   0  0  0  0  0  0  0  0  0  0  0  0
   59.9463   31.1964   46.4538 H   0  0  0  0  0  0  0  0  0  0  0  0
   63.0162   34.3065   46.6627 H   0  0  0  0  0  0  0  0  0  0  0  0
  1  2  1  0
  2  3  1  0
  3  4  2  0
  4  5  1  0
  5  6  2  0
  5  7  1  0
  7  8  1  0
  7  9  1  0
  9 10  2  0
  4 11  1  0
 11 12  1  0
 12 13  2  0
 13 14  1  0
 14 15  2  0
 15 16  1  0
 16 17  2  0
 17 18  1  0
 11 19  1  0
 19 20  1  0
 20 21  2  0
 21 22  1  0
 22 23  2  0
 23 24  1  0
 24 25  1  0
 24 26  2  0
 19 27  1  0
 27 28  2  0
  9  2  1  0
 17 12  1  0
 26 20  1  0
 28  3  1  0
  1 29  1  0
  1 30  1  0
  1 31  1  0
  8 32  1  0
  8 33  1  0
  8 34  1  0
 11 35  1  6
 13 36  1  0
 14 37  1  0
 15 38  1  0
 16 39  1  0
 21 40  1  0
 22 41  1  0
 23 42  1  0
 26 43  1  0
 27 44  1  0
M  END
>  <UniqueID>  (50) 
45

>  <SMILES>  (50) 
Cn1c2c(c(=O)n(C)c1=O)[C@@H](c1ccccc1Cl)N(c1cccc(Br)c1)C=N2

>  <Energy>  (50) 
65.26171730123404

>  <Genealogy>  (50) 
Cn1c2c(c(=O)n(C)c1=O)[C@@H](c1ccccc1Cl)N(c1cccc(Br)c1)C=N2 (chirality)
Cn1c2c(c(=O)n(C)c1=O)[C@@H](c1ccccc1Cl)N(c1cccc(Br)c1)C=N2 (3D coordinates assigned)
Cn1c2c(c(=O)n(C)c1=O)[C@@H](c1ccccc1Cl)N(c1cccc(Br)c1)C=N2 (nonaromatic ring conformer: 65.26171730123404 kcal/mol)

>  <smiles>  (50) 
Cn1c2c(c(=O)n(C)c1=O)C(c1ccccc1Cl)N(c1cccc(Br)c1)C=N2

>  <score_type>  (50) 
oracle

>  <origin>  (50) 
adg

>  <m_score__min__energy>  (50) 
-7.8399999999999999

>  <m_primary>  (50) 
energy

$$$$
50:0
     RDKit          3D

 36 37  0  0  0  0  0  0  0  0999 V2000
   55.9080   25.9160   46.5890 N   0  0  0  0  0  0  0  0  0  0  0  0
   56.8590   26.5510   45.9990 C   0  0  0  0  0  0  0  0  0  0  0  0
   57.4310   26.0540   44.6930 C   0  0  0  0  0  0  0  0  0  0  0  0
   57.8130   27.2470   43.8110 C   0  0  0  0  0  0  0  0  0  0  0  0
   58.7870   28.2420   44.5010 C   0  0  0  0  0  0  0  0  0  0  0  0
   58.4550   29.6180   44.1080 N   0  0  0  0  0  0  0  0  0  0  0  0
   57.1650   30.1930   44.3430 C   0  0  0  0  0  0  0  0  0  0  0  0
   56.2660   29.5250   44.9230 O   0  0  0  0  0  0  0  0  0  0  0  0
   56.9160   31.5040   43.9230 O   0  0  0  0  0  0  0  0  0  0  0  0
   57.9480   32.4500   43.6520 C   0  0  0  0  0  0  0  0  0  0  0  0
   58.3410   33.1770   44.9090 C   0  0  0  0  0  0  0  0  0  0  0  0
   59.2410   34.2550   44.8600 C   0  0  0  0  0  0  0  0  0  0  0  0
   59.6070   34.9200   46.0350 C   0  0  0  0  0  0  0  0  0  0  0  0
   59.0810   34.5120   47.2630 C   0  0  0  0  0  0  0  0  0  0  0  0
   58.1900   33.4370   47.3200 C   0  0  0  0  0  0  0  0  0  0  0  0
   57.8210   32.7690   46.1480 C   0  0  0  0  0  0  0  0  0  0  0  0
   58.8090   28.1120   46.0450 C   0  0  0  0  0  0  0  0  0  0  0  0
   57.4300   27.7920   46.6330 C   0  0  0  0  0  0  0  0  0  0  0  0
   55.5220   26.2340   47.4900 H   0  0  0  0  0  0  0  0  0  0  0  0
   58.3254   25.4457   44.8932 H   0  0  0  0  0  0  0  0  0  0  0  0
   56.6780   25.4428   44.1739 H   0  0  0  0  0  0  0  0  0  0  0  0
   58.2941   26.8652   42.8984 H   0  0  0  0  0  0  0  0  0  0  0  0
   56.8864   27.7990   43.5948 H   0  0  0  0  0  0  0  0  0  0  0  0
   59.7998   27.9854   44.1570 H   0  0  0  0  0  0  0  0  0  0  0  0
   59.1690   30.2070   43.6240 H   0  0  0  0  0  0  0  0  0  0  0  0
   58.8255   31.9228   43.2496 H   0  0  0  0  0  0  0  0  0  0  0  0
   57.5759   33.1818   42.9198 H   0  0  0  0  0  0  0  0  0  0  0  0
   59.6590   34.5769   43.8948 H   0  0  0  0  0  0  0  0  0  0  0  0
   60.3098   35.7651   45.9919 H   0  0  0  0  0  0  0  0  0  0  0  0
   59.3683   35.0373   48.1858 H   0  0  0  0  0  0  0  0  0  0  0  0
   57.7782   33.1157   48.2881 H   0  0  0  0  0  0  0  0  0  0  0  0
   57.1214   31.9215   46.1969 H   0  0  0  0  0  0  0  0  0  0  0  0
   59.5043   27.3053   46.3201 H   0  0  0  0  0  0  0  0  0  0  0  0
   59.1273   29.0819   46.4549 H   0  0  0  0  0  0  0  0  0  0  0  0
   57.5273   27.6323   47.7170 H   0  0  0  0  0  0  0  0  0  0  0  0
   56.7540   28.6362   46.4322 H   0  0  0  0  0  0  0  0  0  0  0  0
  1  2  2  3
  2  3  1  0
  3  4  1  0
  4  5  1  0
  5  6  1  0
  6  7  1  0
  7  8  2  0
  7  9  1  0
  9 10  1  0
 10 11  1  0
 11 12  2  0
 12 13  1  0
 13 14  2  0
 14 15  1  0
 15 16  2  0
  5 17  1  0
 17 18  1  0
 18  2  1  0
 16 11  1  0
  1 19  1  0
  3 20  1  0
  3 21  1  0
  4 22  1  0
  4 23  1  0
  5 24  1  0
  6 25  1  0
 10 26  1  0
 10 27  1  0
 12 28  1  0
 13 29  1  0
 14 30  1  0
 15 31  1  0
 16 32  1  0
 17 33  1  0
 17 34  1  0
 18 35  1  0
 18 36  1  0
M  END
>  <UniqueID>  (51) 
46

>  <SMILES>  (51) 
N=C1CCC(NC(=O)OCc2ccccc2)CC1

>  <Energy>  (51) 
32.149771783640915

>  <Genealogy>  (51) 
N=C1CCC(NC(=O)OCc2ccccc2)CC1 (3D coordinates assigned)
N=C1CCC(NC(=O)OCc2ccccc2)CC1 (nonaromatic ring conformer: 32.149771783640915 kcal/mol)

>  <smiles>  (51) 
N=C1CCC(NC(=O)OCc2ccccc2)CC1

>  <score_type>  (51) 
oracle

>  <origin>  (51) 
adg

>  <m_score__min__energy>  (51) 
-7.6399999999999997

>  <m_primary>  (51) 
energy

$$$$
51:0
     RDKit          3D

 53 56  0  0  0  0  0  0  0  0999 V2000
   60.1990   29.5740   44.6790 O   0  0  0  0  0  0  0  0  0  0  0  0
   60.5080   29.0160   45.7640 C   0  0  0  0  0  0  0  0  0  0  0  0
   60.6990   27.5960   45.7830 N   0  0  0  0  0  0  0  0  0  0  0  0
   59.6590   26.6650   46.1030 C   0  0  0  0  0  0  0  0  0  0  0  0
   58.4170   27.1380   46.5380 C   0  0  0  0  0  0  0  0  0  0  0  0
   57.4190   26.2380   46.9240 C   0  0  0  0  0  0  0  0  0  0  0  0
   57.6490   24.8540   46.8620 C   0  0  0  0  0  0  0  0  0  0  0  0
   56.6020   23.9170   47.3140 C   0  0  0  0  0  0  0  0  0  0  0  0
   56.9420   22.8840   47.9490 O   0  0  0  0  0  0  0  0  0  0  0  0
   55.2100   24.1120   47.0140 N   0  0  0  0  0  0  0  0  0  0  0  0
   54.4590   23.5150   45.9100 C   0  0  0  0  0  0  0  0  0  0  0  0
   55.3730   22.8420   44.9180 C   0  0  0  0  0  0  0  0  0  0  0  0
   55.7480   23.5070   43.7370 C   0  0  0  0  0  0  0  0  0  0  0  0
   56.5660   22.8720   42.7980 C   0  0  0  0  0  0  0  0  0  0  0  0
   57.0190   21.5720   43.0310 C   0  0  0  0  0  0  0  0  0  0  0  0
   56.6520   20.9020   44.2000 C   0  0  0  0  0  0  0  0  0  0  0  0
   55.8270   21.5290   45.1410 C   0  0  0  0  0  0  0  0  0  0  0  0
   55.4660   20.8550   46.2620 F   0  0  0  0  0  0  0  0  0  0  0  0
   58.8630   24.3840   46.3410 C   0  0  0  0  0  0  0  0  0  0  0  0
   59.8690   25.2830   45.9800 C   0  0  0  0  0  0  0  0  0  0  0  0
   60.6530   29.7820   46.9740 N   0  0  0  0  0  0  0  0  0  0  0  0
   60.4630   31.2020   47.0990 C   0  0  0  0  0  0  0  0  0  0  0  0
   61.2480   31.9880   47.9620 C   0  0  0  0  0  0  0  0  0  0  0  0
   61.0620   33.3720   48.0170 C   0  0  0  0  0  0  0  0  0  0  0  0
   60.1130   33.9880   47.1960 C   0  0  0  0  0  0  0  0  0  0  0  0
   59.3500   33.2210   46.3060 C   0  0  0  0  0  0  0  0  0  0  0  0
   58.1870   33.9870   45.2260 S   0  0  0  0  0  0  0  0  0  0  0  0
   56.8780   34.1750   45.9410 O   0  0  0  0  0  0  0  0  0  0  0  0
   58.6930   35.3350   44.7980 O   0  0  0  0  0  0  0  0  0  0  0  0
   57.9760   33.0100   43.8050 N   0  0  0  0  0  0  0  0  0  0  0  0
   57.3840   31.8560   43.7900 C   0  0  0  0  0  0  0  0  0  0  0  0
   56.9830   31.1930   44.8970 N   0  0  0  0  0  0  0  0  0  0  0  0
   56.3840   30.0150   44.5790 C   0  0  0  0  0  0  0  0  0  0  0  0
   56.3100   29.7390   43.2170 C   0  0  0  0  0  0  0  0  0  0  0  0
   57.0210   31.0170   42.3840 S   0  0  0  0  0  0  0  0  0  0  0  0
   59.5280   31.8330   46.2640 C   0  0  0  0  0  0  0  0  0  0  0  0
   58.2248   28.2204   46.5766 H   0  0  0  0  0  0  0  0  0  0  0  0
   56.4486   26.6160   47.2781 H   0  0  0  0  0  0  0  0  0  0  0  0
   53.7606   22.7683   46.3158 H   0  0  0  0  0  0  0  0  0  0  0  0
   53.9164   24.3175   45.3889 H   0  0  0  0  0  0  0  0  0  0  0  0
   55.3957   24.5324   43.5511 H   0  0  0  0  0  0  0  0  0  0  0  0
   56.8530   23.3969   41.8749 H   0  0  0  0  0  0  0  0  0  0  0  0
   57.6657   21.0750   42.2929 H   0  0  0  0  0  0  0  0  0  0  0  0
   57.0122   19.8787   44.3818 H   0  0  0  0  0  0  0  0  0  0  0  0
   59.0237   23.3030   46.2161 H   0  0  0  0  0  0  0  0  0  0  0  0
   60.8293   24.9064   45.5979 H   0  0  0  0  0  0  0  0  0  0  0  0
   60.9730   29.2770   47.8300 H   0  0  0  0  0  0  0  0  0  0  0  0
   62.0107   31.5117   48.5956 H   0  0  0  0  0  0  0  0  0  0  0  0
   61.6646   33.9788   48.7089 H   0  0  0  0  0  0  0  0  0  0  0  0
   59.9651   35.0767   47.2489 H   0  0  0  0  0  0  0  0  0  0  0  0
   55.9868   29.3299   45.3424 H   0  0  0  0  0  0  0  0  0  0  0  0
   55.8642   28.8414   42.7636 H   0  0  0  0  0  0  0  0  0  0  0  0
   58.9274   31.2293   45.5677 H   0  0  0  0  0  0  0  0  0  0  0  0
  1  2  2  0
  2  3  1  0
  3  4  1  0
  4  5  2  0
  5  6  1  0
  6  7  2  0
  7  8  1  0
  8  9  2  0
  8 10  1  0
 10 11  1  0
 11 12  1  0
 12 13  2  0
 13 14  1  0
 14 15  2  0
 15 16  1  0
 16 17  2  0
 17 18  1  0
  7 19  1  0
 19 20  2  0
  2 21  1  0
 21 22  1  0
 22 23  2  0
 23 24  1  0
 24 25  2  0
 25 26  1  0
 26 27  1  0
 27 28  2  0
 27 29  2  0
 27 30  1  0
 30 31  2  3
 31 32  1  0
 32 33  1  0
 33 34  2  0
 34 35  1  0
 26 36  2  0
 20  4  1  0
 36 22  1  0
 17 12  1  0
 35 31  1  0
  5 37  1  0
  6 38  1  0
 11 39  1  0
 11 40  1  0
 13 41  1  0
 14 42  1  0
 15 43  1  0
 16 44  1  0
 19 45  1  0
 20 46  1  0
 21 47  1  0
 23 48  1  0
 24 49  1  0
 25 50  1  0
 33 51  1  0
 34 52  1  0
 36 53  1  0
M  CHG  3   3  -1  10  -1  32  -1
M  END
>  <UniqueID>  (52) 
47

>  <SMILES>  (52) 
O=C([N-]c1ccc(C(=O)[N-]Cc2ccccc2F)cc1)Nc1cccc(S(=O)(=O)N=c2[n-]ccs2)c1

>  <Energy>  (52) 
97.403566656812

>  <Genealogy>  (52) 
O=C([N-]c1ccc(C(=O)[N-]Cc2ccccc2F)cc1)Nc1cccc(S(=O)(=O)N=c2[n-]ccs2)c1 (protonated)
O=C([N-]c1ccc(C(=O)[N-]Cc2ccccc2F)cc1)Nc1cccc(S(=O)(=O)N=c2[n-]ccs2)c1 (3D coordinates assigned)
O=C([N-]c1ccc(C(=O)[N-]Cc2ccccc2F)cc1)Nc1cccc(S(=O)(=O)N=c2[n-]ccs2)c1 (optimized conformer: 97.403566656812 kcal/mol)

>  <smiles>  (52) 
O=C(Nc1ccc(C(=O)NCc2ccccc2F)cc1)Nc1cccc(S(=O)(=O)N=c2[nH]ccs2)c1

>  <score_type>  (52) 
oracle

>  <origin>  (52) 
adg

>  <m_score__min__energy>  (52) 
-14.029999999999999

>  <m_primary>  (52) 
energy

$$$$
52:0
     RDKit          3D

 70 73  0  0  0  0  0  0  0  0999 V2000
   64.2580   32.7630   48.9650 C   0  0  0  0  0  0  0  0  0  0  0  0
   62.9820   32.6010   48.1150 C   0  0  0  0  0  0  0  0  0  0  0  0
   63.1440   31.3740   47.2040 C   0  0  0  0  0  0  0  0  0  0  0  0
   62.7600   33.8440   47.2330 C   0  0  0  0  0  0  0  0  0  0  0  0
   61.8420   32.3600   48.9520 O   0  0  0  0  0  0  0  0  0  0  0  0
   61.5570   31.1750   49.6490 C   0  0  0  0  0  0  0  0  0  0  0  0
   62.4820   30.4410   50.0930 O   0  0  0  0  0  0  0  0  0  0  0  0
   60.1900   30.8090   49.8580 N   0  0  0  0  0  0  0  0  0  0  0  0
   59.8240   29.5680   50.5380 C   0  0  0  0  0  0  0  0  0  0  0  0
   60.1710   28.3790   49.6960 C   0  0  0  0  0  0  0  0  0  0  0  0
   60.5110   27.1750   50.2020 N   0  0  0  0  0  0  0  0  0  0  0  0
   60.7680   26.3970   49.1900 O   0  0  0  0  0  0  0  0  0  0  0  0
   60.6310   27.0330   48.0470 C   0  0  0  0  0  0  0  0  0  0  0  0
   60.8150   26.3850   46.7410 C   0  0  0  0  0  0  0  0  0  0  0  0
   61.9650   25.9870   46.4180 O   0  0  0  0  0  0  0  0  0  0  0  0
   59.7270   26.1530   45.8410 N   0  0  0  0  0  0  0  0  0  0  0  0
   58.8220   27.1360   45.3190 C   0  0  0  0  0  0  0  0  0  0  0  0
   59.3630   28.1790   44.5540 C   0  0  0  0  0  0  0  0  0  0  0  0
   58.5580   29.2330   44.1070 C   0  0  0  0  0  0  0  0  0  0  0  0
   57.1980   29.2810   44.4480 C   0  0  0  0  0  0  0  0  0  0  0  0
   56.3510   30.4250   44.0360 C   0  0  0  0  0  0  0  0  0  0  0  0
   55.7230   30.3850   42.9430 O   0  0  0  0  0  0  0  0  0  0  0  0
   56.3100   31.6070   44.8490 N   0  0  0  0  0  0  0  0  0  0  0  0
   57.4060   32.4590   45.2120 C   0  0  0  0  0  0  0  0  0  0  0  0
   58.0740   33.2660   44.2730 C   0  0  0  0  0  0  0  0  0  0  0  0
   59.1290   34.0890   44.6790 C   0  0  0  0  0  0  0  0  0  0  0  0
   59.5180   34.1240   46.0210 C   0  0  0  0  0  0  0  0  0  0  0  0
   58.8410   33.3420   46.9630 C   0  0  0  0  0  0  0  0  0  0  0  0
   59.2170   33.3710   48.2640 F   0  0  0  0  0  0  0  0  0  0  0  0
   57.7780   32.5280   46.5610 C   0  0  0  0  0  0  0  0  0  0  0  0
   56.6560   28.2430   45.2220 C   0  0  0  0  0  0  0  0  0  0  0  0
   57.4400   27.1580   45.6380 C   0  0  0  0  0  0  0  0  0  0  0  0
   56.8160   26.1770   46.5470 C   0  0  0  0  0  0  0  0  0  0  0  0
   57.4160   25.8600   47.6080 O   0  0  0  0  0  0  0  0  0  0  0  0
   55.5190   25.6200   46.2910 N   0  0  0  0  0  0  0  0  0  0  0  0
   55.1660   24.2050   46.3840 C   0  0  0  0  0  0  0  0  0  0  0  0
   55.9170   23.3630   45.3870 C   0  0  0  0  0  0  0  0  0  0  0  0
   56.8220   22.3780   45.8220 C   0  0  0  0  0  0  0  0  0  0  0  0
   57.5350   21.6150   44.8890 C   0  0  0  0  0  0  0  0  0  0  0  0
   57.3580   21.8390   43.5180 C   0  0  0  0  0  0  0  0  0  0  0  0
   58.0510   21.1020   42.6150 F   0  0  0  0  0  0  0  0  0  0  0  0
   56.4640   22.8200   43.0790 C   0  0  0  0  0  0  0  0  0  0  0  0
   55.7470   23.5820   44.0070 C   0  0  0  0  0  0  0  0  0  0  0  0
   60.2510   28.3360   48.3170 C   0  0  0  0  0  0  0  0  0  0  0  0
   59.8470   29.6210   47.1920 Cl  0  0  0  0  0  0  0  0  0  0  0  0
   63.9942   32.7295   50.0324 H   0  0  0  0  0  0  0  0  0  0  0  0
   64.9582   31.9465   48.7345 H   0  0  0  0  0  0  0  0  0  0  0  0
   64.7320   33.7285   48.7345 H   0  0  0  0  0  0  0  0  0  0  0  0
   63.2631   30.4718   47.8219 H   0  0  0  0  0  0  0  0  0  0  0  0
   62.2520   31.2684   46.5690 H   0  0  0  0  0  0  0  0  0  0  0  0
   64.0328   31.5036   46.5690 H   0  0  0  0  0  0  0  0  0  0  0  0
   62.6027   34.7245   47.8732 H   0  0  0  0  0  0  0  0  0  0  0  0
   63.6435   34.0055   46.5979 H   0  0  0  0  0  0  0  0  0  0  0  0
   61.8752   33.6897   46.5979 H   0  0  0  0  0  0  0  0  0  0  0  0
   59.4500   31.4420   49.4800 H   0  0  0  0  0  0  0  0  0  0  0  0
   60.3678   29.5055   51.4921 H   0  0  0  0  0  0  0  0  0  0  0  0
   58.7385   29.5699   50.7159 H   0  0  0  0  0  0  0  0  0  0  0  0
   60.4337   28.1688   44.3020 H   0  0  0  0  0  0  0  0  0  0  0  0
   58.9941   30.0283   43.4847 H   0  0  0  0  0  0  0  0  0  0  0  0
   57.7657   33.2495   43.2172 H   0  0  0  0  0  0  0  0  0  0  0  0
   59.6547   34.7111   43.9396 H   0  0  0  0  0  0  0  0  0  0  0  0
   60.3546   34.7650   46.3358 H   0  0  0  0  0  0  0  0  0  0  0  0
   57.2295   31.9372   47.3094 H   0  0  0  0  0  0  0  0  0  0  0  0
   55.5945   28.2818   45.5079 H   0  0  0  0  0  0  0  0  0  0  0  0
   55.4009   23.8475   47.3974 H   0  0  0  0  0  0  0  0  0  0  0  0
   54.0924   24.1104   46.1640 H   0  0  0  0  0  0  0  0  0  0  0  0
   56.9701   22.2065   46.8984 H   0  0  0  0  0  0  0  0  0  0  0  0
   58.2346   20.8391   45.2333 H   0  0  0  0  0  0  0  0  0  0  0  0
   56.3242   22.9929   42.0017 H   0  0  0  0  0  0  0  0  0  0  0  0
   55.0475   24.3555   43.6571 H   0  0  0  0  0  0  0  0  0  0  0  0
  1  2  1  0
  2  3  1  0
  2  4  1  0
  2  5  1  0
  5  6  1  0
  6  7  2  0
  6  8  1  0
  8  9  1  0
  9 10  1  0
 10 11  2  0
 11 12  1  0
 12 13  1  0
 13 14  1  0
 14 15  2  0
 14 16  1  0
 16 17  1  0
 17 18  2  0
 18 19  1  0
 19 20  2  0
 20 21  1  0
 21 22  2  0
 21 23  1  0
 23 24  1  0
 24 25  2  0
 25 26  1  0
 26 27  2  0
 27 28  1  0
 28 29  1  0
 28 30  2  0
 20 31  1  0
 31 32  2  0
 32 33  1  0
 33 34  2  0
 33 35  1  0
 35 36  1  0
 36 37  1  0
 37 38  2  0
 38 39  1  0
 39 40  2  0
 40 41  1  0
 40 42  1  0
 42 43  2  0
 13 44  2  0
 44 45  1  0
 44 10  1  0
 32 17  1  0
 43 37  1  0
 30 24  1  0
  1 46  1  0
  1 47  1  0
  1 48  1  0
  3 49  1  0
  3 50  1  0
  3 51  1  0
  4 52  1  0
  4 53  1  0
  4 54  1  0
  8 55  1  0
  9 56  1  0
  9 57  1  0
 18 58  1  0
 19 59  1  0
 25 60  1  0
 26 61  1  0
 27 62  1  0
 30 63  1  0
 31 64  1  0
 36 65  1  0
 36 66  1  0
 38 67  1  0
 39 68  1  0
 42 69  1  0
 43 70  1  0
M  CHG  3  16  -1  23  -1  35  -1
M  END
>  <UniqueID>  (53) 
48

>  <SMILES>  (53) 
CC(C)(C)OC(=O)NCc1noc(C(=O)[N-]c2ccc(C(=O)[N-]c3cccc(F)c3)cc2C(=O)[N-]Cc2ccc(F)cc2)c1Cl

>  <Energy>  (53) 
111.68977960805798

>  <Genealogy>  (53) 
CC(C)(C)OC(=O)NCc1noc(C(=O)[N-]c2ccc(C(=O)[N-]c3cccc(F)c3)cc2C(=O)[N-]Cc2ccc(F)cc2)c1Cl (protonated)
CC(C)(C)OC(=O)NCc1noc(C(=O)[N-]c2ccc(C(=O)[N-]c3cccc(F)c3)cc2C(=O)[N-]Cc2ccc(F)cc2)c1Cl (3D coordinates assigned)
CC(C)(C)OC(=O)NCc1noc(C(=O)[N-]c2ccc(C(=O)[N-]c3cccc(F)c3)cc2C(=O)[N-]Cc2ccc(F)cc2)c1Cl (optimized conformer: 111.68977960805798 kcal/mol)

>  <smiles>  (53) 
CC(C)(C)OC(=O)NCc1noc(C(=O)Nc2ccc(C(=O)Nc3cccc(F)c3)cc2C(=O)NCc2ccc(F)cc2)c1Cl

>  <score_type>  (53) 
oracle

>  <origin>  (53) 
adg

>  <m_score__min__energy>  (53) 
-13.859999999999999

>  <m_primary>  (53) 
energy

$$$$
53:0
     RDKit          3D

 38 38  0  0  0  0  0  0  0  0999 V2000
   61.2840   33.2490   47.5490 C   0  0  0  0  0  0  0  0  0  0  0  0
   60.2010   33.7020   46.6260 C   0  0  0  0  0  0  0  0  0  0  0  0
   59.9970   35.0030   46.2070 C   0  0  0  0  0  0  0  0  0  0  0  0
   58.9520   34.9610   45.3060 C   0  0  0  0  0  0  0  0  0  0  0  0
   58.5780   33.6330   45.2080 C   0  0  0  0  0  0  0  0  0  0  0  0
   57.4970   33.0920   44.3050 C   0  0  0  0  0  0  0  0  0  0  0  0
   57.8560   31.8100   43.6540 N   0  0  2  0  0  0  0  0  0  0  0  0
   57.4230   31.7600   42.2450 C   0  0  0  0  0  0  0  0  0  0  0  0
   57.3630   30.6750   44.4110 C   0  0  0  0  0  0  0  0  0  0  0  0
   56.1200   30.4680   44.5090 O   0  0  0  0  0  0  0  0  0  0  0  0
   58.3010   29.7810   45.1300 C   0  0  0  0  0  0  0  0  0  0  0  0
   59.5420   29.9890   45.0580 O   0  0  0  0  0  0  0  0  0  0  0  0
   57.8080   28.6030   45.9290 C   0  0  0  0  0  0  0  0  0  0  0  0
   58.1060   27.2650   45.2220 C   0  0  0  0  0  0  0  0  0  0  0  0
   58.1580   27.4280   43.6960 C   0  0  0  0  0  0  0  0  0  0  0  0
   57.0470   26.2220   45.6010 C   0  0  0  0  0  0  0  0  0  0  0  0
   59.3440   32.8690   46.0080 N   0  0  0  0  0  0  0  0  0  0  0  0
   60.9586   33.3851   48.5909 H   0  0  0  0  0  0  0  0  0  0  0  0
   61.4990   32.1855   47.3680 H   0  0  0  0  0  0  0  0  0  0  0  0
   62.1922   33.8427   47.3680 H   0  0  0  0  0  0  0  0  0  0  0  0
   60.5560   35.8945   46.5276 H   0  0  0  0  0  0  0  0  0  0  0  0
   58.5059   35.8133   44.7726 H   0  0  0  0  0  0  0  0  0  0  0  0
   56.5885   32.9352   44.9051 H   0  0  0  0  0  0  0  0  0  0  0  0
   57.3460   33.8302   43.5036 H   0  0  0  0  0  0  0  0  0  0  0  0
   58.9030   31.7580   43.6330 H   0  0  0  0  0  0  0  0  0  0  0  0
   56.3311   31.6339   42.2012 H   0  0  0  0  0  0  0  0  0  0  0  0
   57.7044   32.6966   41.7415 H   0  0  0  0  0  0  0  0  0  0  0  0
   57.9105   30.9122   41.7415 H   0  0  0  0  0  0  0  0  0  0  0  0
   58.3051   28.6054   46.9103 H   0  0  0  0  0  0  0  0  0  0  0  0
   56.7174   28.6964   46.0375 H   0  0  0  0  0  0  0  0  0  0  0  0
   59.0960   26.9228   45.5579 H   0  0  0  0  0  0  0  0  0  0  0  0
   58.4837   28.4488   43.4472 H   0  0  0  0  0  0  0  0  0  0  0  0
   58.8694   26.7030   43.2738 H   0  0  0  0  0  0  0  0  0  0  0  0
   57.1581   27.2490   43.2738 H   0  0  0  0  0  0  0  0  0  0  0  0
   56.9764   26.1525   46.6965 H   0  0  0  0  0  0  0  0  0  0  0  0
   56.0723   26.5227   45.1891 H   0  0  0  0  0  0  0  0  0  0  0  0
   57.3328   25.2429   45.1891 H   0  0  0  0  0  0  0  0  0  0  0  0
   59.2950   31.8310   46.1150 H   0  0  0  0  0  0  0  0  0  0  0  0
  1  2  1  0
  2  3  2  0
  3  4  1  0
  4  5  2  0
  5  6  1  0
  6  7  1  0
  7  8  1  0
  7  9  1  0
  9 10  2  0
  9 11  1  0
 11 12  2  0
 11 13  1  0
 13 14  1  0
 14 15  1  0
 14 16  1  0
  5 17  1  0
 17  2  1  0
  1 18  1  0
  1 19  1  0
  1 20  1  0
  3 21  1  0
  4 22  1  0
  6 23  1  0
  6 24  1  0
  7 25  1  6
  8 26  1  0
  8 27  1  0
  8 28  1  0
 13 29  1  0
 13 30  1  0
 14 31  1  0
 15 32  1  0
 15 33  1  0
 15 34  1  0
 16 35  1  0
 16 36  1  0
 16 37  1  0
 17 38  1  0
M  CHG  1   7   1
M  END
>  <UniqueID>  (54) 
49

>  <SMILES>  (54) 
Cc1ccc(C[N@H+](C)C(=O)C(=O)CC(C)C)[nH]1

>  <Energy>  (54) 
55.15094390249066

>  <Genealogy>  (54) 
Cc1ccc(C[NH+](C)C(=O)C(=O)CC(C)C)[nH]1 (protonated)
Cc1ccc(C[N@H+](C)C(=O)C(=O)CC(C)C)[nH]1 (chirality)
Cc1ccc(C[N@H+](C)C(=O)C(=O)CC(C)C)[nH]1 (3D coordinates assigned)
Cc1ccc(C[N@H+](C)C(=O)C(=O)CC(C)C)[nH]1 (optimized conformer: 55.15094390249066 kcal/mol)

>  <smiles>  (54) 
Cc1ccc(CN(C)C(=O)C(=O)CC(C)C)[nH]1

>  <score_type>  (54) 
oracle

>  <origin>  (54) 
adg

>  <m_score__min__energy>  (54) 
-4.6900000000000004

>  <m_primary>  (54) 
energy

$$$$
54:0
     RDKit          3D

 28 30  0  0  0  0  0  0  0  0999 V2000
   59.9880   34.5730   48.9450 C   0  0  0  0  0  0  0  0  0  0  0  0
   59.5510   33.9380   47.6580 C   0  0  0  0  0  0  0  0  0  0  0  0
   59.0460   34.7320   46.6170 C   0  0  0  0  0  0  0  0  0  0  0  0
   58.6050   34.1430   45.4290 C   0  0  0  0  0  0  0  0  0  0  0  0
   58.6510   32.7540   45.2730 C   0  0  0  0  0  0  0  0  0  0  0  0
   58.2230   32.2060   44.1400 O   0  0  0  0  0  0  0  0  0  0  0  0
   58.2410   30.8950   43.9280 C   0  0  0  0  0  0  0  0  0  0  0  0
   58.7370   30.0160   44.9020 C   0  0  0  0  0  0  0  0  0  0  0  0
   58.7080   28.5540   44.6840 C   0  0  0  0  0  0  0  0  0  0  0  0
   57.6810   27.7470   44.9970 C   0  0  0  0  0  0  0  0  0  0  0  0
   57.9570   25.9920   45.2630 S   0  0  0  0  0  0  0  0  0  0  0  0
   56.3220   25.9320   45.9940 C   0  0  0  0  0  0  0  0  0  0  0  0
   55.9030   24.9200   46.6130 O   0  0  0  0  0  0  0  0  0  0  0  0
   55.5230   27.0960   45.8460 N   0  0  0  0  0  0  0  0  0  0  0  0
   56.2840   28.1350   45.2560 C   0  0  0  0  0  0  0  0  0  0  0  0
   55.5240   29.3900   44.5240 S   0  0  0  0  0  0  0  0  0  0  0  0
   59.1730   30.5500   46.1250 C   0  0  0  0  0  0  0  0  0  0  0  0
   59.5950   29.7830   47.0350 O   0  0  0  0  0  0  0  0  0  0  0  0
   59.1450   31.9420   46.3190 C   0  0  0  0  0  0  0  0  0  0  0  0
   59.5850   32.5430   47.5130 C   0  0  0  0  0  0  0  0  0  0  0  0
   59.5904   33.9953   49.7924 H   0  0  0  0  0  0  0  0  0  0  0  0
   61.0869   34.5855   48.9931 H   0  0  0  0  0  0  0  0  0  0  0  0
   59.6071   35.6038   48.9931 H   0  0  0  0  0  0  0  0  0  0  0  0
   58.9970   35.8244   46.7368 H   0  0  0  0  0  0  0  0  0  0  0  0
   58.2205   34.7738   44.6140 H   0  0  0  0  0  0  0  0  0  0  0  0
   57.8621   30.4935   42.9766 H   0  0  0  0  0  0  0  0  0  0  0  0
   59.5967   28.0911   44.2301 H   0  0  0  0  0  0  0  0  0  0  0  0
   59.9574   31.9160   48.3365 H   0  0  0  0  0  0  0  0  0  0  0  0
  1  2  1  0
  2  3  2  0
  3  4  1  0
  4  5  2  0
  5  6  1  0
  6  7  1  0
  7  8  2  0
  8  9  1  0
  9 10  2  3
 10 11  1  0
 11 12  1  0
 12 13  2  0
 12 14  1  0
 14 15  1  0
 15 16  2  0
  8 17  1  0
 17 18  2  0
 17 19  1  0
 19 20  2  0
 20  2  1  0
 19  5  1  0
 15 10  1  0
  1 21  1  0
  1 22  1  0
  1 23  1  0
  3 24  1  0
  4 25  1  0
  7 26  1  0
  9 27  1  0
 20 28  1  0
M  CHG  1  14  -1
M  END
>  <UniqueID>  (55) 
50

>  <SMILES>  (55) 
Cc1ccc2occ(C=C3SC(=O)[N-]C3=S)c(=O)c2c1

>  <Energy>  (55) 
64.09733842577657

>  <Genealogy>  (55) 
Cc1ccc2occ(C=C3SC(=O)[N-]C3=S)c(=O)c2c1 (protonated)
Cc1ccc2occ(C=C3SC(=O)[N-]C3=S)c(=O)c2c1 (3D coordinates assigned)
Cc1ccc2occ(C=C3SC(=O)[N-]C3=S)c(=O)c2c1 (nonaromatic ring conformer: 64.09733842577657 kcal/mol)

>  <smiles>  (55) 
Cc1ccc2occ(C=C3SC(=O)NC3=S)c(=O)c2c1

>  <score_type>  (55) 
oracle

>  <origin>  (55) 
adg

>  <m_score__min__energy>  (55) 
-9.5800000000000001

>  <m_primary>  (55) 
energy

$$$$
55:0
     RDKit          3D

 55 59  0  0  0  0  0  0  0  0999 V2000
   59.4179   26.0731   46.1439 H   0  0  0  0  0  0  0  0  0  0  0  0
   59.2090   27.1530   46.1540 C   0  0  0  0  0  0  0  0  0  0  0  0
   60.0920   28.0070   46.7270 N   0  0  0  0  0  0  0  0  0  0  0  0
   59.8600   29.3460   46.7530 C   0  0  0  0  0  0  0  0  0  0  0  0
   60.8260   30.2840   47.4290 C   0  0  0  0  0  0  0  0  0  0  0  0
   61.4763   30.4106   46.5509 H   0  0  0  0  0  0  0  0  0  0  0  0
   60.1570   31.1740   48.4680 C   0  0  0  0  0  0  0  0  0  0  0  0
   60.4524   32.2296   48.5596 H   0  0  0  0  0  0  0  0  0  0  0  0
   59.1176   31.4436   48.7068 H   0  0  0  0  0  0  0  0  0  0  0  0
   61.1110   30.0770   48.9120 C   0  0  0  0  0  0  0  0  0  0  0  0
   62.0965   30.3390   49.3244 H   0  0  0  0  0  0  0  0  0  0  0  0
   61.0477   29.2247   49.6045 H   0  0  0  0  0  0  0  0  0  0  0  0
   58.7300   29.8500   46.1790 N   0  0  0  0  0  0  0  0  0  0  0  0
   58.5760   30.8840   46.1970 H   0  0  0  0  0  0  0  0  0  0  0  0
   57.8090   29.0350   45.5860 C   0  0  0  0  0  0  0  0  0  0  0  0
   56.5730   29.6310   45.0120 C   0  0  0  0  0  0  0  0  0  0  0  0
   55.5440   28.9200   44.8620 O   0  0  0  0  0  0  0  0  0  0  0  0
   56.5490   30.9820   44.5270 N   0  0  0  0  0  0  0  0  0  0  0  0
   57.2920   31.9790   44.9210 C   0  0  0  0  0  0  0  0  0  0  0  0
   57.4020   32.2150   46.2560 N   0  0  0  0  0  0  0  0  0  0  0  0
   58.1680   33.2180   46.7600 C   0  0  0  0  0  0  0  0  0  0  0  0
   58.2214   33.3713   47.8480 H   0  0  0  0  0  0  0  0  0  0  0  0
   58.8910   34.0590   45.9010 C   0  0  0  0  0  0  0  0  0  0  0  0
   59.7360   35.1450   46.4430 C   0  0  0  0  0  0  0  0  0  0  0  0
   59.9100   36.1980   45.7710 O   0  0  0  0  0  0  0  0  0  0  0  0
   60.3830   34.9730   47.6760 O   0  0  0  0  0  0  0  0  0  0  0  0
   61.5320   34.1970   47.8900 C   0  0  0  0  0  0  0  0  0  0  0  0
   62.2240   33.5700   46.8370 C   0  0  0  0  0  0  0  0  0  0  0  0
   61.8667   33.6810   45.8026 H   0  0  0  0  0  0  0  0  0  0  0  0
   63.3650   32.8060   47.1030 C   0  0  0  0  0  0  0  0  0  0  0  0
   63.9005   32.3146   46.2774 H   0  0  0  0  0  0  0  0  0  0  0  0
   63.8270   32.6650   48.4150 C   0  0  0  0  0  0  0  0  0  0  0  0
   64.7132   32.0476   48.6236 H   0  0  0  0  0  0  0  0  0  0  0  0
   63.1620   33.3090   49.4600 C   0  0  0  0  0  0  0  0  0  0  0  0
   63.5334   33.2115   50.4908 H   0  0  0  0  0  0  0  0  0  0  0  0
   62.0240   34.0780   49.1970 C   0  0  0  0  0  0  0  0  0  0  0  0
   61.5110   34.5935   50.0223 H   0  0  0  0  0  0  0  0  0  0  0  0
   58.8010   33.8330   44.5190 C   0  0  0  0  0  0  0  0  0  0  0  0
   59.3536   34.4797   43.8216 H   0  0  0  0  0  0  0  0  0  0  0  0
   58.0140   32.7920   44.0250 C   0  0  0  0  0  0  0  0  0  0  0  0
   57.9576   32.6071   42.9421 H   0  0  0  0  0  0  0  0  0  0  0  0
   58.0340   27.6410   45.5760 C   0  0  0  0  0  0  0  0  0  0  0  0
   57.0750   26.7230   45.0330 N   0  0  0  0  0  0  0  0  0  0  0  0
   56.2690   27.1150   44.4990 H   0  0  0  0  0  0  0  0  0  0  0  0
   57.1990   25.2960   45.1560 C   0  0  0  0  0  0  0  0  0  0  0  0
   57.3820   24.4740   44.0260 C   0  0  0  0  0  0  0  0  0  0  0  0
   57.4242   24.9232   43.0228 H   0  0  0  0  0  0  0  0  0  0  0  0
   57.5100   23.0910   44.1750 C   0  0  0  0  0  0  0  0  0  0  0  0
   57.6504   22.4542   43.2891 H   0  0  0  0  0  0  0  0  0  0  0  0
   57.4600   22.5140   45.4490 C   0  0  0  0  0  0  0  0  0  0  0  0
   57.5547   21.4240   45.5630 H   0  0  0  0  0  0  0  0  0  0  0  0
   57.2900   23.3210   46.5750 C   0  0  0  0  0  0  0  0  0  0  0  0
   57.2574   22.8672   47.5765 H   0  0  0  0  0  0  0  0  0  0  0  0
   57.1610   24.7070   46.4310 C   0  0  0  0  0  0  0  0  0  0  0  0
   57.0290   25.3392   47.3215 H   0  0  0  0  0  0  0  0  0  0  0  0
  1  2  1  0
  2  3  2  0
  3  4  1  0
  4  5  1  0
  5  6  1  0
  5  7  1  0
  7  8  1  0
  7  9  1  0
  7 10  1  0
 10 11  1  0
 10 12  1  0
  4 13  2  0
 13 14  1  0
 13 15  1  0
 15 16  1  0
 16 17  2  0
 16 18  1  0
 18 19  2  0
 19 20  1  0
 20 21  1  0
 21 22  1  0
 21 23  2  0
 23 24  1  0
 24 25  2  0
 24 26  1  0
 26 27  1  0
 27 28  2  0
 28 29  1  0
 28 30  1  0
 30 31  1  0
 30 32  2  0
 32 33  1  0
 32 34  1  0
 34 35  1  0
 34 36  2  0
 36 37  1  0
 23 38  1  0
 38 39  1  0
 38 40  2  0
 40 41  1  0
 15 42  2  0
 42 43  1  0
 43 44  1  0
 43 45  1  0
 45 46  2  0
 46 47  1  0
 46 48  1  0
 48 49  1  0
 48 50  2  0
 50 51  1  0
 50 52  1  0
 52 53  1  0
 52 54  2  0
 54 55  1  0
 42  2  1  0
 54 45  1  0
 10  5  1  0
 40 19  1  0
 36 27  1  0
M  CHG  2  13   1  20  -1
M  END
>  <UniqueID>  (56) 
51

>  <SMILES>  (56) 
O=C(Oc1ccccc1)c1cc/c(=N\C(=O)c2[nH+]c(C3CC3)ncc2Nc2ccccc2)[n-]c1

>  <Energy>  (56) 
349.8305238125605

>  <Genealogy>  (56) 
O=C(Oc1ccccc1)c1ccc(=NC(=O)c2[nH+]c(C3CC3)ncc2Nc2ccccc2)[n-]c1 (protonated)
O=C(Oc1ccccc1)c1cc/c(=N\C(=O)c2[nH+]c(C3CC3)ncc2Nc2ccccc2)[n-]c1 (cis-trans isomerization)
O=C(Oc1ccccc1)c1cc/c(=N\C(=O)c2[nH+]c(C3CC3)ncc2Nc2ccccc2)[n-]c1 (3D coordinates assigned)
O=C(Oc1ccccc1)c1cc/c(=N\C(=O)c2[nH+]c(C3CC3)ncc2Nc2ccccc2)[n-]c1 (nonaromatic ring conformer: 349.8305238125605 kcal/mol)

>  <smiles>  (56) 
O=C(Oc1ccccc1)c1ccc(=NC(=O)c2nc(C3CC3)ncc2Nc2ccccc2)[nH]c1

>  <score_type>  (56) 
oracle

>  <origin>  (56) 
adg

>  <m_score__min__energy>  (56) 
-9.9900000000000002

>  <m_primary>  (56) 
energy

$$$$
56:0
     RDKit          3D

 60 63  0  0  0  0  0  0  0  0999 V2000
   64.1440   32.1180   48.9150 C   0  0  0  0  0  0  0  0  0  0  0  0
   63.0310   32.5930   49.7410 N   0  0  0  0  0  0  0  0  0  0  0  0
   62.5270   31.7300   50.8200 C   0  0  0  0  0  0  0  0  0  0  0  0
   61.2740   31.0240   50.3760 C   0  0  0  0  0  0  0  0  0  0  0  0
   60.3170   30.6140   51.3160 C   0  0  0  0  0  0  0  0  0  0  0  0
   59.1610   29.9520   50.8970 C   0  0  0  0  0  0  0  0  0  0  0  0
   58.9610   29.6770   49.5430 C   0  0  0  0  0  0  0  0  0  0  0  0
   59.9250   30.0510   48.5890 C   0  0  0  0  0  0  0  0  0  0  0  0
   59.7230   29.7650   47.1470 C   0  0  0  0  0  0  0  0  0  0  0  0
   60.6660   29.9730   46.3390 O   0  0  0  0  0  0  0  0  0  0  0  0
   58.4630   29.3270   46.6250 N   0  0  0  0  0  0  0  0  0  0  0  0
   58.1480   28.0030   46.1730 C   0  0  0  0  0  0  0  0  0  0  0  0
   58.0300   27.6970   44.8070 C   0  0  0  0  0  0  0  0  0  0  0  0
   57.7200   26.3980   44.4000 C   0  0  0  0  0  0  0  0  0  0  0  0
   57.5020   25.3910   45.3520 C   0  0  0  0  0  0  0  0  0  0  0  0
   57.2020   24.0150   44.9100 C   0  0  0  0  0  0  0  0  0  0  0  0
   58.2210   23.2790   44.2830 C   0  0  0  0  0  0  0  0  0  0  0  0
   57.9850   21.9750   43.8410 C   0  0  0  0  0  0  0  0  0  0  0  0
   56.7290   21.3970   44.0140 C   0  0  0  0  0  0  0  0  0  0  0  0
   55.7050   22.1150   44.6410 C   0  0  0  0  0  0  0  0  0  0  0  0
   55.9310   23.4220   45.1070 C   0  0  0  0  0  0  0  0  0  0  0  0
   54.6320   24.2680   45.9610 S   0  0  0  0  0  0  0  0  0  0  0  0
   54.6990   25.9650   45.6450 N   0  0  0  0  0  0  0  0  0  0  0  0
   54.7670   24.0390   47.4390 O   0  0  0  0  0  0  0  0  0  0  0  0
   53.3010   23.7540   45.4930 O   0  0  0  0  0  0  0  0  0  0  0  0
   57.6010   25.6970   46.7210 C   0  0  0  0  0  0  0  0  0  0  0  0
   57.3830   24.7040   47.6760 O   0  0  0  0  0  0  0  0  0  0  0  0
   57.9140   27.0030   47.1230 C   0  0  0  0  0  0  0  0  0  0  0  0
   61.0720   30.7400   49.0170 C   0  0  0  0  0  0  0  0  0  0  0  0
   62.3690   33.8240   49.3770 C   0  0  0  0  0  0  0  0  0  0  0  0
   62.7130   34.9050   49.9290 O   0  0  0  0  0  0  0  0  0  0  0  0
   61.2690   33.8580   48.3880 C   0  0  0  0  0  0  0  0  0  0  0  0
   59.9230   33.8350   48.8160 C   0  0  0  0  0  0  0  0  0  0  0  0
   59.4920   33.7810   50.5240 Cl  0  0  0  0  0  0  0  0  0  0  0  0
   58.8880   33.8720   47.8720 C   0  0  0  0  0  0  0  0  0  0  0  0
   59.1780   33.9150   46.5080 C   0  0  0  0  0  0  0  0  0  0  0  0
   60.5060   33.9150   46.0740 C   0  0  0  0  0  0  0  0  0  0  0  0
   61.5520   33.8820   47.0020 C   0  0  0  0  0  0  0  0  0  0  0  0
   63.2050   33.8240   46.3910 Cl  0  0  0  0  0  0  0  0  0  0  0  0
   64.9603   31.7696   49.5649 H   0  0  0  0  0  0  0  0  0  0  0  0
   63.8011   31.2878   48.2800 H   0  0  0  0  0  0  0  0  0  0  0  0
   64.5062   32.9399   48.2800 H   0  0  0  0  0  0  0  0  0  0  0  0
   63.2933   30.9838   51.0769 H   0  0  0  0  0  0  0  0  0  0  0  0
   62.2982   32.3500   51.6994 H   0  0  0  0  0  0  0  0  0  0  0  0
   60.4775   30.8144   52.3856 H   0  0  0  0  0  0  0  0  0  0  0  0
   58.4058   29.6463   51.6360 H   0  0  0  0  0  0  0  0  0  0  0  0
   58.0431   29.1642   49.2197 H   0  0  0  0  0  0  0  0  0  0  0  0
   58.1826   28.4847   44.0545 H   0  0  0  0  0  0  0  0  0  0  0  0
   57.6464   26.1631   43.3279 H   0  0  0  0  0  0  0  0  0  0  0  0
   59.2125   23.7330   44.1389 H   0  0  0  0  0  0  0  0  0  0  0  0
   58.7909   21.4044   43.3563 H   0  0  0  0  0  0  0  0  0  0  0  0
   56.5421   20.3736   43.6567 H   0  0  0  0  0  0  0  0  0  0  0  0
   54.7151   21.6532   44.7704 H   0  0  0  0  0  0  0  0  0  0  0  0
   53.7400   26.3400   45.8080 H   0  0  0  0  0  0  0  0  0  0  0  0
   56.4580   24.3300   47.8490 H   0  0  0  0  0  0  0  0  0  0  0  0
   57.9762   27.2436   48.1946 H   0  0  0  0  0  0  0  0  0  0  0  0
   61.8207   31.0607   48.2777 H   0  0  0  0  0  0  0  0  0  0  0  0
   57.8407   33.8671   48.2084 H   0  0  0  0  0  0  0  0  0  0  0  0
   58.3600   33.9489   45.7733 H   0  0  0  0  0  0  0  0  0  0  0  0
   60.7300   33.9411   44.9974 H   0  0  0  0  0  0  0  0  0  0  0  0
  1  2  1  0
  2  3  1  0
  3  4  1  0
  4  5  2  0
  5  6  1  0
  6  7  2  0
  7  8  1  0
  8  9  1  0
  9 10  2  0
  9 11  1  0
 11 12  1  0
 12 13  2  0
 13 14  1  0
 14 15  2  0
 15 16  1  0
 16 17  2  0
 17 18  1  0
 18 19  2  0
 19 20  1  0
 20 21  2  0
 21 22  1  0
 22 23  1  0
 22 24  2  0
 22 25  2  0
 15 26  1  0
 26 27  1  0
 26 28  2  0
  8 29  2  0
  2 30  1  0
 30 31  2  0
 30 32  1  0
 32 33  2  0
 33 34  1  0
 33 35  1  0
 35 36  2  0
 36 37  1  0
 37 38  2  0
 38 39  1  0
 29  4  1  0
 38 32  1  0
 28 12  1  0
 21 16  1  0
  1 40  1  0
  1 41  1  0
  1 42  1  0
  3 43  1  0
  3 44  1  0
  5 45  1  0
  6 46  1  0
  7 47  1  0
 13 48  1  0
 14 49  1  0
 17 50  1  0
 18 51  1  0
 19 52  1  0
 20 53  1  0
 23 54  1  0
 27 55  1  0
 28 56  1  0
 29 57  1  0
 35 58  1  0
 36 59  1  0
 37 60  1  0
M  CHG  2  11  -1  23  -1
M  END
>  <UniqueID>  (57) 
52

>  <SMILES>  (57) 
CN(Cc1cccc(C(=O)[N-]c2ccc(-c3ccccc3S([NH-])(=O)=O)c(O)c2)c1)C(=O)c1c(Cl)cccc1Cl

>  <Energy>  (57) 
84.82378168097566

>  <Genealogy>  (57) 
CN(Cc1cccc(C(=O)[N-]c2ccc(-c3ccccc3S([NH-])(=O)=O)c(O)c2)c1)C(=O)c1c(Cl)cccc1Cl (protonated)
CN(Cc1cccc(C(=O)[N-]c2ccc(-c3ccccc3S([NH-])(=O)=O)c(O)c2)c1)C(=O)c1c(Cl)cccc1Cl (3D coordinates assigned)
CN(Cc1cccc(C(=O)[N-]c2ccc(-c3ccccc3S([NH-])(=O)=O)c(O)c2)c1)C(=O)c1c(Cl)cccc1Cl (optimized conformer: 84.82378168097566 kcal/mol)

>  <smiles>  (57) 
CN(Cc1cccc(C(=O)Nc2ccc(-c3ccccc3S(N)(=O)=O)c(O)c2)c1)C(=O)c1c(Cl)cccc1Cl

>  <score_type>  (57) 
oracle

>  <origin>  (57) 
adg

>  <m_score__min__energy>  (57) 
-14.119999999999999

>  <m_primary>  (57) 
energy

$$$$
57:0
     RDKit          3D

 45 47  0  0  0  0  0  0  0  0999 V2000
   67.7320   31.9850   51.3380 N   0  0  0  0  0  0  0  0  0  0  0  0
   66.3670   31.9040   50.9230 C   0  0  0  0  0  0  0  0  0  0  0  0
   65.5320   31.1630   51.5890 N   0  0  0  0  0  0  0  0  0  0  0  0
   65.9590   32.5810   49.7220 N   0  0  0  0  0  0  0  0  0  0  0  0
   64.6370   33.0950   49.4850 C   0  0  0  0  0  0  0  0  0  0  0  0
   64.0280   32.9920   48.2220 C   0  0  0  0  0  0  0  0  0  0  0  0
   62.7310   33.4740   48.0220 C   0  0  0  0  0  0  0  0  0  0  0  0
   62.0220   34.0630   49.0830 C   0  0  0  0  0  0  0  0  0  0  0  0
   60.7150   34.5460   48.9250 O   0  0  0  0  0  0  0  0  0  0  0  0
   59.8620   34.2480   47.8510 C   0  0  0  0  0  0  0  0  0  0  0  0
   60.0180   34.9510   46.6530 C   0  0  0  0  0  0  0  0  0  0  0  0
   59.1990   34.6720   45.5560 C   0  0  0  0  0  0  0  0  0  0  0  0
   58.2180   33.6720   45.6330 C   0  0  0  0  0  0  0  0  0  0  0  0
   57.3930   33.4070   44.4800 N   0  0  0  0  0  0  0  0  0  0  0  0
   57.6780   32.3850   43.4730 C   0  0  0  0  0  0  0  0  0  0  0  0
   57.5000   31.0100   44.0510 C   0  0  0  0  0  0  0  0  0  0  0  0
   58.6090   30.1810   44.2770 C   0  0  0  0  0  0  0  0  0  0  0  0
   58.4130   28.9080   44.8180 C   0  0  0  0  0  0  0  0  0  0  0  0
   57.1220   28.4750   45.1240 C   0  0  0  0  0  0  0  0  0  0  0  0
   56.0400   29.3240   44.8790 C   0  0  0  0  0  0  0  0  0  0  0  0
   56.2500   30.5600   44.3530 N   0  0  0  0  0  0  0  0  0  0  0  0
   58.0710   32.9540   46.8350 C   0  0  0  0  0  0  0  0  0  0  0  0
   58.8920   33.2350   47.9310 C   0  0  0  0  0  0  0  0  0  0  0  0
   62.6130   34.1260   50.3500 C   0  0  0  0  0  0  0  0  0  0  0  0
   63.9090   33.6440   50.5500 C   0  0  0  0  0  0  0  0  0  0  0  0
   68.0670   31.4800   52.1890 H   0  0  0  0  0  0  0  0  0  0  0  0
   68.4140   32.5620   50.7980 H   0  0  0  0  0  0  0  0  0  0  0  0
   65.0430   31.5220   52.4380 H   0  0  0  0  0  0  0  0  0  0  0  0
   65.3030   30.1960   51.2690 H   0  0  0  0  0  0  0  0  0  0  0  0
   66.6810   32.7210   48.9790 H   0  0  0  0  0  0  0  0  0  0  0  0
   64.5748   32.5298   47.3869 H   0  0  0  0  0  0  0  0  0  0  0  0
   62.2633   33.3919   47.0298 H   0  0  0  0  0  0  0  0  0  0  0  0
   60.7911   35.7294   46.5733 H   0  0  0  0  0  0  0  0  0  0  0  0
   59.3245   35.2416   44.6234 H   0  0  0  0  0  0  0  0  0  0  0  0
   56.5470   34.0020   44.3270 H   0  0  0  0  0  0  0  0  0  0  0  0
   56.9903   32.5122   42.6240 H   0  0  0  0  0  0  0  0  0  0  0  0
   58.7199   32.4972   43.1385 H   0  0  0  0  0  0  0  0  0  0  0  0
   59.6227   30.5299   44.0307 H   0  0  0  0  0  0  0  0  0  0  0  0
   59.2740   28.2486   45.0023 H   0  0  0  0  0  0  0  0  0  0  0  0
   56.9582   27.4757   45.5536 H   0  0  0  0  0  0  0  0  0  0  0  0
   55.0174   28.9923   45.1118 H   0  0  0  0  0  0  0  0  0  0  0  0
   57.3059   32.1675   46.9122 H   0  0  0  0  0  0  0  0  0  0  0  0
   58.7778   32.6595   48.8615 H   0  0  0  0  0  0  0  0  0  0  0  0
   62.0539   34.5575   51.1933 H   0  0  0  0  0  0  0  0  0  0  0  0
   64.3619   33.6957   51.5511 H   0  0  0  0  0  0  0  0  0  0  0  0
  1  2  1  0
  2  3  2  0
  2  4  1  0
  4  5  1  0
  5  6  2  0
  6  7  1  0
  7  8  2  0
  8  9  1  0
  9 10  1  0
 10 11  2  0
 11 12  1  0
 12 13  2  0
 13 14  1  0
 14 15  1  0
 15 16  1  0
 16 17  2  0
 17 18  1  0
 18 19  2  0
 19 20  1  0
 20 21  2  0
 13 22  1  0
 22 23  2  0
  8 24  1  0
 24 25  2  0
 25  5  1  0
 23 10  1  0
 21 16  1  0
  1 26  1  0
  1 27  1  0
  3 28  1  0
  3 29  1  0
  4 30  1  0
  6 31  1  0
  7 32  1  0
 11 33  1  0
 12 34  1  0
 14 35  1  0
 15 36  1  0
 15 37  1  0
 17 38  1  0
 18 39  1  0
 19 40  1  0
 20 41  1  0
 22 42  1  0
 23 43  1  0
 24 44  1  0
 25 45  1  0
M  CHG  1   3   1
M  END
>  <UniqueID>  (58) 
53

>  <SMILES>  (58) 
NC(=[NH2+])Nc1ccc(Oc2ccc(NCc3ccccn3)cc2)cc1

>  <Energy>  (58) 
55.9209466839706

>  <Genealogy>  (58) 
NC(=[NH2+])Nc1ccc(Oc2ccc(NCc3ccccn3)cc2)cc1 (protonated)
NC(=[NH2+])Nc1ccc(Oc2ccc(NCc3ccccn3)cc2)cc1 (3D coordinates assigned)
NC(=[NH2+])Nc1ccc(Oc2ccc(NCc3ccccn3)cc2)cc1 (optimized conformer: 55.9209466839706 kcal/mol)

>  <smiles>  (58) 
N=C(N)Nc1ccc(Oc2ccc(NCc3ccccn3)cc2)cc1

>  <score_type>  (58) 
oracle

>  <origin>  (58) 
adg

>  <m_score__min__energy>  (58) 
-6.2999999999999998

>  <m_primary>  (58) 
energy

$$$$
58:0
     RDKit          3D

 43 45  0  0  0  0  0  0  0  0999 V2000
   59.7630   31.7070   48.4020 N   0  0  0  0  0  0  0  0  0  0  0  0
   60.5920   30.3050   47.8160 S   0  0  0  0  0  0  0  0  0  0  0  0
   61.8680   30.7260   47.1420 O   0  0  0  0  0  0  0  0  0  0  0  0
   60.9170   29.4200   48.9870 O   0  0  0  0  0  0  0  0  0  0  0  0
   59.5940   29.4160   46.6650 C   0  0  0  0  0  0  0  0  0  0  0  0
   60.0480   28.2000   46.1360 C   0  0  0  0  0  0  0  0  0  0  0  0
   59.2790   27.5140   45.1930 C   0  0  0  0  0  0  0  0  0  0  0  0
   58.0640   28.0470   44.7540 C   0  0  0  0  0  0  0  0  0  0  0  0
   57.6060   29.2770   45.2540 C   0  0  0  0  0  0  0  0  0  0  0  0
   56.3350   29.8600   44.7550 C   0  0  0  0  0  0  0  0  0  0  0  0
   55.3340   29.1130   44.5960 O   0  0  0  0  0  0  0  0  0  0  0  0
   56.1980   31.2630   44.4830 N   0  0  0  0  0  0  0  0  0  0  0  0
   57.1180   32.2750   44.9140 C   0  0  0  0  0  0  0  0  0  0  0  0
   58.1130   32.7760   44.0600 C   0  0  0  0  0  0  0  0  0  0  0  0
   59.0490   33.6900   44.5440 C   0  0  0  0  0  0  0  0  0  0  0  0
   58.9880   34.0900   45.8800 C   0  0  0  0  0  0  0  0  0  0  0  0
   59.9730   34.9470   46.3860 O   0  0  0  0  0  0  0  0  0  0  0  0
   60.3760   34.9490   47.7540 C   0  0  0  0  0  0  0  0  0  0  0  0
   61.6770   34.2050   47.9110 C   0  0  0  0  0  0  0  0  0  0  0  0
   62.1750   33.9290   49.1950 C   0  0  0  0  0  0  0  0  0  0  0  0
   63.4030   33.2790   49.3500 C   0  0  0  0  0  0  0  0  0  0  0  0
   64.1430   32.9030   48.2250 C   0  0  0  0  0  0  0  0  0  0  0  0
   63.6560   33.1780   46.9440 C   0  0  0  0  0  0  0  0  0  0  0  0
   62.4280   33.8290   46.7850 C   0  0  0  0  0  0  0  0  0  0  0  0
   57.9880   33.6270   46.6810 N   0  0  0  0  0  0  0  0  0  0  0  0
   57.0510   32.7530   46.2260 C   0  0  0  0  0  0  0  0  0  0  0  0
   58.3690   29.9400   46.2350 C   0  0  0  0  0  0  0  0  0  0  0  0
   59.4100   32.2310   47.5700 H   0  0  0  0  0  0  0  0  0  0  0  0
   60.4690   32.3140   48.8760 H   0  0  0  0  0  0  0  0  0  0  0  0
   61.0123   27.7849   46.4643 H   0  0  0  0  0  0  0  0  0  0  0  0
   59.6310   26.5510   44.7946 H   0  0  0  0  0  0  0  0  0  0  0  0
   57.4629   27.5001   44.0126 H   0  0  0  0  0  0  0  0  0  0  0  0
   58.1545   32.4484   43.0108 H   0  0  0  0  0  0  0  0  0  0  0  0
   59.8278   34.0918   43.8792 H   0  0  0  0  0  0  0  0  0  0  0  0
   60.5072   35.9871   48.0932 H   0  0  0  0  0  0  0  0  0  0  0  0
   59.6021   34.4531   48.3583 H   0  0  0  0  0  0  0  0  0  0  0  0
   61.5964   34.2255   50.0823 H   0  0  0  0  0  0  0  0  0  0  0  0
   63.7873   33.0632   50.3579 H   0  0  0  0  0  0  0  0  0  0  0  0
   65.1086   32.3907   48.3480 H   0  0  0  0  0  0  0  0  0  0  0  0
   64.2392   32.8821   46.0595 H   0  0  0  0  0  0  0  0  0  0  0  0
   62.0495   34.0470   45.7755 H   0  0  0  0  0  0  0  0  0  0  0  0
   56.2396   32.4218   46.8908 H   0  0  0  0  0  0  0  0  0  0  0  0
   57.9980   30.8805   46.6683 H   0  0  0  0  0  0  0  0  0  0  0  0
  1  2  1  0
  2  3  2  0
  2  4  2  0
  2  5  1  0
  5  6  2  0
  6  7  1  0
  7  8  2  0
  8  9  1  0
  9 10  1  0
 10 11  2  0
 10 12  1  0
 12 13  1  0
 13 14  2  0
 14 15  1  0
 15 16  2  0
 16 17  1  0
 17 18  1  0
 18 19  1  0
 19 20  2  0
 20 21  1  0
 21 22  2  0
 22 23  1  0
 23 24  2  0
 16 25  1  0
 25 26  2  0
  9 27  2  0
 27  5  1  0
 26 13  1  0
 24 19  1  0
  1 28  1  0
  1 29  1  0
  6 30  1  0
  7 31  1  0
  8 32  1  0
 14 33  1  0
 15 34  1  0
 18 35  1  0
 18 36  1  0
 20 37  1  0
 21 38  1  0
 22 39  1  0
 23 40  1  0
 24 41  1  0
 26 42  1  0
 27 43  1  0
M  CHG  1  12  -1
M  END
>  <UniqueID>  (59) 
54

>  <SMILES>  (59) 
NS(=O)(=O)c1cccc(C(=O)[N-]c2ccc(OCc3ccccc3)nc2)c1

>  <Energy>  (59) 
48.33306564026064

>  <Genealogy>  (59) 
NS(=O)(=O)c1cccc(C(=O)[N-]c2ccc(OCc3ccccc3)nc2)c1 (protonated)
NS(=O)(=O)c1cccc(C(=O)[N-]c2ccc(OCc3ccccc3)nc2)c1 (3D coordinates assigned)
NS(=O)(=O)c1cccc(C(=O)[N-]c2ccc(OCc3ccccc3)nc2)c1 (optimized conformer: 48.33306564026064 kcal/mol)

>  <smiles>  (59) 
NS(=O)(=O)c1cccc(C(=O)Nc2ccc(OCc3ccccc3)nc2)c1

>  <score_type>  (59) 
oracle

>  <origin>  (59) 
adg

>  <m_score__min__energy>  (59) 
-10.140000000000001

>  <m_primary>  (59) 
energy

$$$$
59:0
     RDKit          3D

 41 43  0  0  0  0  0  0  0  0999 V2000
   57.4140   31.9610   45.2360 C   0  0  0  0  0  0  0  0  0  0  0  0
   58.2970   33.0980   45.6560 C   0  0  0  0  0  0  0  0  0  0  0  0
   58.4350   34.2260   44.8360 C   0  0  0  0  0  0  0  0  0  0  0  0
   59.2300   35.2990   45.2440 C   0  0  0  0  0  0  0  0  0  0  0  0
   59.8830   35.2610   46.4780 C   0  0  0  0  0  0  0  0  0  0  0  0
   59.7420   34.1470   47.3260 C   0  0  0  0  0  0  0  0  0  0  0  0
   60.4290   34.1070   48.6400 C   0  0  0  0  0  0  0  0  0  0  0  0
   61.6870   34.0450   48.6830 O   0  0  0  0  0  0  0  0  0  0  0  0
   59.6520   34.0500   49.8490 N   0  0  0  0  0  0  0  0  0  0  0  0
   59.1610   33.0100   50.4650 C   0  0  0  0  0  0  0  0  0  0  0  0
   59.3380   31.6890   50.0080 C   0  0  0  0  0  0  0  0  0  0  0  0
   58.7860   30.6300   50.7320 C   0  0  0  0  0  0  0  0  0  0  0  0
   58.0700   30.8730   51.9150 C   0  0  0  0  0  0  0  0  0  0  0  0
   57.4840   29.7550   52.6920 C   0  0  0  0  0  0  0  0  0  0  0  0
   58.1700   29.1950   53.5900 O   0  0  0  0  0  0  0  0  0  0  0  0
   56.1660   29.2790   52.3720 N   0  0  0  0  0  0  0  0  0  0  0  0
   55.0630   29.9610   52.2590 C   0  0  0  0  0  0  0  0  0  0  0  0
   54.9200   31.1380   51.5990 N   0  0  0  0  0  0  0  0  0  0  0  0
   53.6740   31.6080   51.6230 N   0  0  0  0  0  0  0  0  0  0  0  0
   52.8140   30.8040   52.2870 C   0  0  0  0  0  0  0  0  0  0  0  0
   51.3730   31.1330   52.5040 C   0  0  0  0  0  0  0  0  0  0  0  0
   51.0040   32.3470   51.7160 C   0  0  0  0  0  0  0  0  0  0  0  0
   51.0500   32.3230   50.4570 O   0  0  0  0  0  0  0  0  0  0  0  0
   50.5620   33.4920   52.3670 O   0  0  0  0  0  0  0  0  0  0  0  0
   53.5970   29.4430   52.9030 S   0  0  0  0  0  0  0  0  0  0  0  0
   57.9360   32.2010   52.3470 C   0  0  0  0  0  0  0  0  0  0  0  0
   58.4790   33.2150   51.6230 N   0  0  0  0  0  0  0  0  0  0  0  0
   58.9390   33.0690   46.9050 C   0  0  0  0  0  0  0  0  0  0  0  0
   57.0199   31.4536   46.1289 H   0  0  0  0  0  0  0  0  0  0  0  0
   56.5778   32.3486   44.6355 H   0  0  0  0  0  0  0  0  0  0  0  0
   57.9965   31.2468   44.6355 H   0  0  0  0  0  0  0  0  0  0  0  0
   57.9152   34.2663   43.8674 H   0  0  0  0  0  0  0  0  0  0  0  0
   59.3424   36.1772   44.5912 H   0  0  0  0  0  0  0  0  0  0  0  0
   60.5120   36.1080   46.7892 H   0  0  0  0  0  0  0  0  0  0  0  0
   59.9071   31.4931   49.0872 H   0  0  0  0  0  0  0  0  0  0  0  0
   58.9131   29.5981   50.3728 H   0  0  0  0  0  0  0  0  0  0  0  0
   55.6700   31.6460   51.0850 H   0  0  0  0  0  0  0  0  0  0  0  0
   50.7524   30.2849   52.1791 H   0  0  0  0  0  0  0  0  0  0  0  0
   51.2037   31.3300   53.5729 H   0  0  0  0  0  0  0  0  0  0  0  0
   57.3892   32.4225   53.2754 H   0  0  0  0  0  0  0  0  0  0  0  0
   58.8134   32.1952   47.5613 H   0  0  0  0  0  0  0  0  0  0  0  0
  1  2  1  0
  2  3  2  0
  3  4  1  0
  4  5  2  0
  5  6  1  0
  6  7  1  0
  7  8  2  0
  7  9  1  0
  9 10  2  3
 10 11  1  0
 11 12  2  0
 12 13  1  0
 13 14  1  0
 14 15  2  0
 14 16  1  0
 16 17  2  3
 17 18  1  0
 18 19  1  0
 19 20  2  0
 20 21  1  0
 21 22  1  0
 22 23  2  0
 22 24  1  0
 20 25  1  0
 13 26  2  0
 26 27  1  0
  6 28  2  0
 28  2  1  0
 27 10  1  0
 25 17  1  0
  1 29  1  0
  1 30  1  0
  1 31  1  0
  3 32  1  0
  4 33  1  0
  5 34  1  0
 11 35  1  0
 12 36  1  0
 18 37  1  0
 21 38  1  0
 21 39  1  0
 26 40  1  0
 28 41  1  0
M  CHG  2  24  -1  27  -1
M  END
>  <UniqueID>  (60) 
55

>  <SMILES>  (60) 
Cc1cccc(C(=O)N=c2ccc(C(=O)N=c3[nH]nc(CC(=O)[O-])s3)c[n-]2)c1

>  <Energy>  (60) 
89.30130310142603

>  <Genealogy>  (60) 
Cc1cccc(C(=O)N=c2ccc(C(=O)N=c3[nH]nc(CC(=O)[O-])s3)c[n-]2)c1 (protonated)
Cc1cccc(C(=O)N=c2ccc(C(=O)N=c3[nH]nc(CC(=O)[O-])s3)c[n-]2)c1 (3D coordinates assigned)
Cc1cccc(C(=O)N=c2ccc(C(=O)N=c3[nH]nc(CC(=O)[O-])s3)c[n-]2)c1 (optimized conformer: 89.30130310142603 kcal/mol)

>  <smiles>  (60) 
Cc1cccc(C(=O)N=c2ccc(C(=O)N=c3[nH]nc(CC(=O)O)s3)c[nH]2)c1

>  <score_type>  (60) 
oracle

>  <origin>  (60) 
adg

>  <m_score__min__energy>  (60) 
-13.49

>  <m_primary>  (60) 
energy

$$$$
60:0
     RDKit          3D

 42 44  0  0  0  0  0  0  0  0999 V2000
   54.7530   26.2270   45.9290 N   0  0  0  0  0  0  0  0  0  0  0  0
   56.2880   25.4530   46.1070 S   0  0  0  0  0  0  0  0  0  0  0  0
   56.4270   24.9190   47.5060 O   0  0  0  0  0  0  0  0  0  0  0  0
   56.3870   24.3070   45.1390 O   0  0  0  0  0  0  0  0  0  0  0  0
   57.5670   26.6190   45.7900 C   0  0  0  0  0  0  0  0  0  0  0  0
   57.8260   27.0550   44.4840 C   0  0  0  0  0  0  0  0  0  0  0  0
   58.8460   27.9790   44.2420 C   0  0  0  0  0  0  0  0  0  0  0  0
   59.5990   28.4900   45.3020 C   0  0  0  0  0  0  0  0  0  0  0  0
   59.3280   28.0810   46.6210 C   0  0  0  0  0  0  0  0  0  0  0  0
   60.1080   28.5460   47.7300 N   0  0  0  0  0  0  0  0  0  0  0  0
   59.5910   29.0340   48.9740 C   0  0  0  0  0  0  0  0  0  0  0  0
   59.7170   28.3580   50.0320 O   0  0  0  0  0  0  0  0  0  0  0  0
   58.9550   30.3880   49.0240 C   0  0  0  0  0  0  0  0  0  0  0  0
   58.9000   30.9540   47.7130 O   0  0  0  0  0  0  0  0  0  0  0  0
   59.7000   32.0220   47.2710 C   0  0  0  0  0  0  0  0  0  0  0  0
   61.0200   32.1960   47.7310 C   0  0  0  0  0  0  0  0  0  0  0  0
   61.7800   33.2850   47.2980 C   0  0  0  0  0  0  0  0  0  0  0  0
   61.2350   34.2120   46.4090 C   0  0  0  0  0  0  0  0  0  0  0  0
   59.9260   34.0520   45.9480 C   0  0  0  0  0  0  0  0  0  0  0  0
   59.1520   32.9590   46.3730 C   0  0  0  0  0  0  0  0  0  0  0  0
   57.7590   32.8170   45.9000 C   0  0  0  0  0  0  0  0  0  0  0  0
   56.8460   33.4650   46.4780 O   0  0  0  0  0  0  0  0  0  0  0  0
   57.4280   31.9730   44.7850 N   0  0  0  0  0  0  0  0  0  0  0  0
   57.7620   32.1680   43.4910 C   0  0  0  0  0  0  0  0  0  0  0  0
   57.1900   31.1640   42.7390 C   0  0  0  0  0  0  0  0  0  0  0  0
   56.5050   30.3850   43.6520 C   0  0  0  0  0  0  0  0  0  0  0  0
   56.6580   30.9010   44.8900 N   0  0  0  0  0  0  0  0  0  0  0  0
   58.3230   27.1320   46.8540 C   0  0  0  0  0  0  0  0  0  0  0  0
   54.7810   27.0870   46.5220 H   0  0  0  0  0  0  0  0  0  0  0  0
   57.2251   26.6691   43.6473 H   0  0  0  0  0  0  0  0  0  0  0  0
   59.0568   28.3053   43.2129 H   0  0  0  0  0  0  0  0  0  0  0  0
   60.4046   29.2128   45.1054 H   0  0  0  0  0  0  0  0  0  0  0  0
   57.9343   30.2959   49.4235 H   0  0  0  0  0  0  0  0  0  0  0  0
   59.5539   31.0430   49.6739 H   0  0  0  0  0  0  0  0  0  0  0  0
   61.4544   31.4707   48.4347 H   0  0  0  0  0  0  0  0  0  0  0  0
   62.8113   33.4121   47.6590 H   0  0  0  0  0  0  0  0  0  0  0  0
   61.8361   35.0690   46.0710 H   0  0  0  0  0  0  0  0  0  0  0  0
   59.4989   34.7857   45.2485 H   0  0  0  0  0  0  0  0  0  0  0  0
   58.3843   32.9880   43.1032 H   0  0  0  0  0  0  0  0  0  0  0  0
   57.2628   31.0157   41.6515 H   0  0  0  0  0  0  0  0  0  0  0  0
   55.9244   29.4832   43.4076 H   0  0  0  0  0  0  0  0  0  0  0  0
   58.1257   26.7869   47.8797 H   0  0  0  0  0  0  0  0  0  0  0  0
  1  2  1  0
  2  3  2  0
  2  4  2  0
  2  5  1  0
  5  6  2  0
  6  7  1  0
  7  8  2  0
  8  9  1  0
  9 10  1  0
 10 11  1  0
 11 12  2  0
 11 13  1  0
 13 14  1  0
 14 15  1  0
 15 16  2  0
 16 17  1  0
 17 18  2  0
 18 19  1  0
 19 20  2  0
 20 21  1  0
 21 22  2  0
 21 23  1  0
 23 24  1  0
 24 25  2  0
 25 26  1  0
 26 27  2  0
  9 28  2  0
 28  5  1  0
 20 15  1  0
 27 23  1  0
  1 29  1  0
  6 30  1  0
  7 31  1  0
  8 32  1  0
 13 33  1  0
 13 34  1  0
 16 35  1  0
 17 36  1  0
 18 37  1  0
 19 38  1  0
 24 39  1  0
 25 40  1  0
 26 41  1  0
 28 42  1  0
M  CHG  2   1  -1  10  -1
M  END
>  <UniqueID>  (61) 
56

>  <SMILES>  (61) 
[NH-]S(=O)(=O)c1cccc([N-]C(=O)COc2ccccc2C(=O)n2cccn2)c1

>  <Energy>  (61) 
81.00849756637236

>  <Genealogy>  (61) 
[NH-]S(=O)(=O)c1cccc([N-]C(=O)COc2ccccc2C(=O)n2cccn2)c1 (protonated)
[NH-]S(=O)(=O)c1cccc([N-]C(=O)COc2ccccc2C(=O)n2cccn2)c1 (3D coordinates assigned)
[NH-]S(=O)(=O)c1cccc([N-]C(=O)COc2ccccc2C(=O)n2cccn2)c1 (optimized conformer: 81.00849756637236 kcal/mol)

>  <smiles>  (61) 
NS(=O)(=O)c1cccc(NC(=O)COc2ccccc2C(=O)n2cccn2)c1

>  <score_type>  (61) 
oracle

>  <origin>  (61) 
adg

>  <m_score__min__energy>  (61) 
-12.82

>  <m_primary>  (61) 
energy

$$$$
61:0
     RDKit          3D

 36 37  0  0  0  0  0  0  0  0999 V2000
   61.0580   34.1570   48.9970 C   0  0  0  0  0  0  0  0  0  0  0  0
   59.9370   33.8670   48.0390 C   0  0  0  0  0  0  0  0  0  0  0  0
   59.6020   34.8030   47.0460 C   0  0  0  0  0  0  0  0  0  0  0  0
   58.5600   34.5440   46.1510 C   0  0  0  0  0  0  0  0  0  0  0  0
   57.8400   33.3530   46.2430 C   0  0  0  0  0  0  0  0  0  0  0  0
   58.1640   32.4120   47.2240 C   0  0  0  0  0  0  0  0  0  0  0  0
   59.2270   32.6500   48.1150 C   0  0  0  0  0  0  0  0  0  0  0  0
   59.5500   31.7020   49.1450 N   0  0  0  0  0  0  0  0  0  0  0  0
   59.1100   31.7490   50.5080 C   0  0  0  0  0  0  0  0  0  0  0  0
   59.7810   32.4160   51.3380 O   0  0  0  0  0  0  0  0  0  0  0  0
   57.9400   30.9780   50.9770 C   0  0  0  0  0  0  0  0  0  0  0  0
   58.0230   29.7230   51.0830 O   0  0  0  0  0  0  0  0  0  0  0  0
   56.7130   31.6520   51.3000 N   0  0  0  0  0  0  0  0  0  0  0  0
   55.6110   31.0310   51.9840 C   0  0  0  0  0  0  0  0  0  0  0  0
   55.8560   30.2780   53.1410 C   0  0  0  0  0  0  0  0  0  0  0  0
   54.8020   29.6540   53.8150 C   0  0  0  0  0  0  0  0  0  0  0  0
   53.4980   29.7600   53.3290 C   0  0  0  0  0  0  0  0  0  0  0  0
   53.2410   30.4820   52.1550 C   0  0  0  0  0  0  0  0  0  0  0  0
   51.6000   30.6130   51.5310 S   0  0  0  0  0  0  0  0  0  0  0  0
   51.1420   32.2780   51.4620 N   0  0  0  0  0  0  0  0  0  0  0  0
   50.6480   29.8710   52.4260 O   0  0  0  0  0  0  0  0  0  0  0  0
   51.5330   30.0140   50.1540 O   0  0  0  0  0  0  0  0  0  0  0  0
   54.2970   31.1130   51.4840 C   0  0  0  0  0  0  0  0  0  0  0  0
   60.6915   34.0622   50.0298 H   0  0  0  0  0  0  0  0  0  0  0  0
   61.8765   33.4410   48.8312 H   0  0  0  0  0  0  0  0  0  0  0  0
   61.4266   35.1801   48.8312 H   0  0  0  0  0  0  0  0  0  0  0  0
   60.1636   35.7460   46.9724 H   0  0  0  0  0  0  0  0  0  0  0  0
   58.3076   35.2801   45.3735 H   0  0  0  0  0  0  0  0  0  0  0  0
   57.0158   33.1541   45.5422 H   0  0  0  0  0  0  0  0  0  0  0  0
   57.5848   31.4799   47.3002 H   0  0  0  0  0  0  0  0  0  0  0  0
   56.5730   32.6190   50.9280 H   0  0  0  0  0  0  0  0  0  0  0  0
   56.8835   30.1776   53.5207 H   0  0  0  0  0  0  0  0  0  0  0  0
   55.0010   29.0780   54.7308 H   0  0  0  0  0  0  0  0  0  0  0  0
   52.6702   29.2761   53.8681 H   0  0  0  0  0  0  0  0  0  0  0  0
   50.2730   32.3310   50.8830 H   0  0  0  0  0  0  0  0  0  0  0  0
   54.0982   31.6763   50.5603 H   0  0  0  0  0  0  0  0  0  0  0  0
  1  2  1  0
  2  3  2  0
  3  4  1  0
  4  5  2  0
  5  6  1  0
  6  7  2  0
  7  8  1  0
  8  9  1  0
  9 10  2  0
  9 11  1  0
 11 12  2  0
 11 13  1  0
 13 14  1  0
 14 15  2  0
 15 16  1  0
 16 17  2  0
 17 18  1  0
 18 19  1  0
 19 20  1  0
 19 21  2  0
 19 22  2  0
 18 23  2  0
  7  2  1  0
 23 14  1  0
  1 24  1  0
  1 25  1  0
  1 26  1  0
  3 27  1  0
  4 28  1  0
  5 29  1  0
  6 30  1  0
 13 31  1  0
 15 32  1  0
 16 33  1  0
 17 34  1  0
 20 35  1  0
 23 36  1  0
M  CHG  2   8  -1  20  -1
M  END
>  <UniqueID>  (62) 
57

>  <SMILES>  (62) 
Cc1ccccc1[N-]C(=O)C(=O)Nc1cccc(S([NH-])(=O)=O)c1

>  <Energy>  (62) 
44.66894349384922

>  <Genealogy>  (62) 
Cc1ccccc1[N-]C(=O)C(=O)Nc1cccc(S([NH-])(=O)=O)c1 (protonated)
Cc1ccccc1[N-]C(=O)C(=O)Nc1cccc(S([NH-])(=O)=O)c1 (3D coordinates assigned)
Cc1ccccc1[N-]C(=O)C(=O)Nc1cccc(S([NH-])(=O)=O)c1 (optimized conformer: 44.66894349384922 kcal/mol)

>  <smiles>  (62) 
Cc1ccccc1NC(=O)C(=O)Nc1cccc(S(N)(=O)=O)c1

>  <score_type>  (62) 
oracle

>  <origin>  (62) 
adg

>  <m_score__min__energy>  (62) 
-11.699999999999999

>  <m_primary>  (62) 
energy

$$$$
62:0
     RDKit          3D

 55 57  0  0  0  0  0  0  0  0999 V2000
   60.3290   30.6650   46.3790 C   0  0  0  0  0  0  0  0  0  0  0  0
   60.7640   29.3270   45.7680 C   0  0  0  0  0  0  0  0  0  0  0  0
   59.9750   29.0060   44.5010 C   0  0  0  0  0  0  0  0  0  0  0  0
   58.8340   28.0960   44.8120 N   0  0  0  0  0  0  0  0  0  0  0  0
   57.5520   28.7510   44.4210 C   0  0  0  0  0  0  0  0  0  0  0  0
   57.2750   30.0850   45.1520 C   0  0  0  0  0  0  0  0  0  0  0  0
   57.3620   31.3220   44.2360 C   0  0  0  0  0  0  0  0  0  0  0  0
   57.9320   32.5130   44.9550 C   0  0  0  0  0  0  0  0  0  0  0  0
   58.6130   33.5160   44.2430 C   0  0  0  0  0  0  0  0  0  0  0  0
   59.1110   34.6420   44.9090 C   0  0  0  0  0  0  0  0  0  0  0  0
   58.9300   34.7740   46.2870 C   0  0  0  0  0  0  0  0  0  0  0  0
   58.2610   33.7760   47.0030 C   0  0  0  0  0  0  0  0  0  0  0  0
   57.7630   32.6510   46.3390 C   0  0  0  0  0  0  0  0  0  0  0  0
   58.8530   27.7300   46.2710 C   0  0  2  0  0  0  0  0  0  0  0  0
   59.9120   26.6360   46.5900 C   0  0  0  0  0  0  0  0  0  0  0  0
   59.5460   25.2110   46.0970 C   0  0  0  0  0  0  0  0  0  0  0  0
   58.0740   24.9700   45.7720 C   0  0  0  0  0  0  0  0  0  0  0  0
   57.6610   23.7490   45.1720 C   0  0  0  0  0  0  0  0  0  0  0  0
   58.6520   22.6590   44.8440 C   0  0  0  0  0  0  0  0  0  0  0  0
   56.3070   23.5630   44.8330 C   0  0  0  0  0  0  0  0  0  0  0  0
   55.3620   24.5480   45.1070 C   0  0  0  0  0  0  0  0  0  0  0  0
   55.7440   25.7300   45.7390 C   0  0  0  0  0  0  0  0  0  0  0  0
   54.7700   26.6760   46.0360 O   0  0  0  0  0  0  0  0  0  0  0  0
   57.0980   25.9500   46.0730 C   0  0  0  0  0  0  0  0  0  0  0  0
   57.5100   27.1920   46.8200 C   0  0  0  0  0  0  0  0  0  0  0  0
   60.3527   30.5920   47.4763 H   0  0  0  0  0  0  0  0  0  0  0  0
   61.0153   31.4590   46.0494 H   0  0  0  0  0  0  0  0  0  0  0  0
   59.3070   30.9036   46.0494 H   0  0  0  0  0  0  0  0  0  0  0  0
   61.8341   29.3793   45.5188 H   0  0  0  0  0  0  0  0  0  0  0  0
   60.5710   28.5330   46.5045 H   0  0  0  0  0  0  0  0  0  0  0  0
   59.5858   29.9404   44.0705 H   0  0  0  0  0  0  0  0  0  0  0  0
   60.6426   28.5068   43.7832 H   0  0  0  0  0  0  0  0  0  0  0  0
   57.5815   28.9496   43.3395 H   0  0  0  0  0  0  0  0  0  0  0  0
   56.7441   28.0606   44.7047 H   0  0  0  0  0  0  0  0  0  0  0  0
   56.2637   30.0418   45.5825 H   0  0  0  0  0  0  0  0  0  0  0  0
   58.0534   30.1984   45.9210 H   0  0  0  0  0  0  0  0  0  0  0  0
   58.0060   31.0836   43.3767 H   0  0  0  0  0  0  0  0  0  0  0  0
   56.3430   31.5766   43.9093 H   0  0  0  0  0  0  0  0  0  0  0  0
   58.7552   33.4154   43.1569 H   0  0  0  0  0  0  0  0  0  0  0  0
   59.6447   35.4225   44.3469 H   0  0  0  0  0  0  0  0  0  0  0  0
   59.3135   35.6628   46.8095 H   0  0  0  0  0  0  0  0  0  0  0  0
   58.1265   33.8764   48.0901 H   0  0  0  0  0  0  0  0  0  0  0  0
   57.2356   31.8699   46.9062 H   0  0  0  0  0  0  0  0  0  0  0  0
   59.0899   28.6878   46.7573 H   0  0  0  0  0  0  0  0  0  0  0  0
   60.8601   26.9291   46.1154 H   0  0  0  0  0  0  0  0  0  0  0  0
   59.9749   26.5771   47.6866 H   0  0  0  0  0  0  0  0  0  0  0  0
   60.1285   25.0108   45.1856 H   0  0  0  0  0  0  0  0  0  0  0  0
   59.7768   24.5395   46.9371 H   0  0  0  0  0  0  0  0  0  0  0  0
   59.0444   22.2274   45.7766 H   0  0  0  0  0  0  0  0  0  0  0  0
   58.1524   21.8734   44.2582 H   0  0  0  0  0  0  0  0  0  0  0  0
   59.4815   23.0818   44.2582 H   0  0  0  0  0  0  0  0  0  0  0  0
   55.9922   22.6283   44.3459 H   0  0  0  0  0  0  0  0  0  0  0  0
   54.3105   24.3928   44.8238 H   0  0  0  0  0  0  0  0  0  0  0  0
   56.7341   27.9622   46.6987 H   0  0  0  0  0  0  0  0  0  0  0  0
   57.6329   26.9442   47.8847 H   0  0  0  0  0  0  0  0  0  0  0  0
  1  2  1  0
  2  3  1  0
  3  4  1  0
  4  5  1  0
  5  6  1  0
  6  7  1  0
  7  8  1  0
  8  9  2  0
  9 10  1  0
 10 11  2  0
 11 12  1  0
 12 13  2  0
  4 14  1  0
 14 15  1  0
 15 16  1  0
 16 17  1  0
 17 18  2  0
 18 19  1  0
 18 20  1  0
 20 21  2  0
 21 22  1  0
 22 23  1  0
 22 24  2  0
 24 25  1  0
 13  8  1  0
 25 14  1  0
 24 17  1  0
  1 26  1  0
  1 27  1  0
  1 28  1  0
  2 29  1  0
  2 30  1  0
  3 31  1  0
  3 32  1  0
  5 33  1  0
  5 34  1  0
  6 35  1  0
  6 36  1  0
  7 37  1  0
  7 38  1  0
  9 39  1  0
 10 40  1  0
 11 41  1  0
 12 42  1  0
 13 43  1  0
 14 44  1  1
 15 45  1  0
 15 46  1  0
 16 47  1  0
 16 48  1  0
 19 49  1  0
 19 50  1  0
 19 51  1  0
 20 52  1  0
 21 53  1  0
 25 54  1  0
 25 55  1  0
M  CHG  1  23  -1
M  END
>  <UniqueID>  (63) 
58

>  <SMILES>  (63) 
CCCN(CCCc1ccccc1)[C@@H]1CCc2c(C)ccc([O-])c2C1

>  <Energy>  (63) 
64.28583190582697

>  <Genealogy>  (63) 
CCCN(CCCc1ccccc1)C1CCc2c(C)ccc([O-])c2C1 (protonated)
CCCN(CCCc1ccccc1)[C@@H]1CCc2c(C)ccc([O-])c2C1 (chirality)
CCCN(CCCc1ccccc1)[C@@H]1CCc2c(C)ccc([O-])c2C1 (3D coordinates assigned)
CCCN(CCCc1ccccc1)[C@@H]1CCc2c(C)ccc([O-])c2C1 (nonaromatic ring conformer: 64.28583190582697 kcal/mol)

>  <smiles>  (63) 
CCCN(CCCc1ccccc1)C1CCc2c(C)ccc(O)c2C1

>  <score_type>  (63) 
oracle

>  <origin>  (63) 
adg

>  <m_score__min__energy>  (63) 
-12.18

>  <m_primary>  (63) 
energy

$$$$
63:0
     RDKit          3D

 23 24  0  0  0  0  0  0  0  0999 V2000
   52.0530   28.8390   48.4730 O   0  0  0  0  0  0  0  0  0  0  0  0
   51.7350   29.8640   49.1300 C   0  0  0  0  0  0  0  0  0  0  0  0
   52.1180   29.9900   50.4670 C   0  0  0  0  0  0  0  0  0  0  0  0
   51.7490   31.1470   51.1620 C   0  0  0  0  0  0  0  0  0  0  0  0
   52.0990   31.3180   52.6110 C   0  0  0  0  0  0  0  0  0  0  0  0
   53.5120   30.8660   52.8600 C   0  0  0  0  0  0  0  0  0  0  0  0
   54.5380   31.2200   51.9670 C   0  0  0  0  0  0  0  0  0  0  0  0
   55.8440   30.7700   52.1810 C   0  0  0  0  0  0  0  0  0  0  0  0
   56.1340   29.9570   53.2800 C   0  0  0  0  0  0  0  0  0  0  0  0
   55.1160   29.5890   54.1660 C   0  0  0  0  0  0  0  0  0  0  0  0
   55.3970   28.7950   55.2280 F   0  0  0  0  0  0  0  0  0  0  0  0
   53.8080   30.0380   53.9550 C   0  0  0  0  0  0  0  0  0  0  0  0
   51.0170   32.1050   50.5300 N   0  0  0  0  0  0  0  0  0  0  0  0
   50.6540   31.9640   49.2280 C   0  0  0  0  0  0  0  0  0  0  0  0
   49.9820   32.8660   48.6630 O   0  0  0  0  0  0  0  0  0  0  0  0
   51.0130   30.8510   48.5380 N   0  0  0  0  0  0  0  0  0  0  0  0
   52.6971   29.1971   50.9629 H   0  0  0  0  0  0  0  0  0  0  0  0
   52.0030   32.3789   52.8854 H   0  0  0  0  0  0  0  0  0  0  0  0
   51.4145   30.7095   53.2202 H   0  0  0  0  0  0  0  0  0  0  0  0
   54.3124   31.8535   51.0965 H   0  0  0  0  0  0  0  0  0  0  0  0
   56.6447   31.0563   51.4832 H   0  0  0  0  0  0  0  0  0  0  0  0
   57.1629   29.6064   53.4484 H   0  0  0  0  0  0  0  0  0  0  0  0
   53.0082   29.7413   54.6495 H   0  0  0  0  0  0  0  0  0  0  0  0
  1  2  2  0
  2  3  1  0
  3  4  2  0
  4  5  1  0
  5  6  1  0
  6  7  2  0
  7  8  1  0
  8  9  2  0
  9 10  1  0
 10 11  1  0
 10 12  2  0
  4 13  1  0
 13 14  1  0
 14 15  2  0
 14 16  1  0
 16  2  1  0
 12  6  1  0
  3 17  1  0
  5 18  1  0
  5 19  1  0
  7 20  1  0
  8 21  1  0
  9 22  1  0
 12 23  1  0
M  CHG  2  13  -1  16  -1
M  END
>  <UniqueID>  (64) 
59

>  <SMILES>  (64) 
O=c1cc(Cc2cccc(F)c2)[n-]c(=O)[n-]1

>  <Energy>  (64) 
23.362674876985416

>  <Genealogy>  (64) 
O=c1cc(Cc2cccc(F)c2)[n-]c(=O)[n-]1 (protonated)
O=c1cc(Cc2cccc(F)c2)[n-]c(=O)[n-]1 (3D coordinates assigned)
O=c1cc(Cc2cccc(F)c2)[n-]c(=O)[n-]1 (optimized conformer: 23.362674876985416 kcal/mol)

>  <smiles>  (64) 
O=c1cc(Cc2cccc(F)c2)[nH]c(=O)[nH]1

>  <score_type>  (64) 
oracle

>  <origin>  (64) 
adg

>  <m_score__min__energy>  (64) 
-10.94

>  <m_primary>  (64) 
energy

$$$$
64:0
     RDKit          3D

 52 54  0  0  0  0  0  0  0  0999 V2000
   59.4094   36.0433   44.8696 H   0  0  0  0  0  0  0  0  0  0  0  0
   59.2200   35.1360   45.4620 C   0  0  0  0  0  0  0  0  0  0  0  0
   59.8510   34.9650   46.6950 C   0  0  0  0  0  0  0  0  0  0  0  0
   60.5305   35.7416   47.0759 H   0  0  0  0  0  0  0  0  0  0  0  0
   59.6220   33.8110   47.4460 C   0  0  0  0  0  0  0  0  0  0  0  0
   60.1254   33.6792   48.4151 H   0  0  0  0  0  0  0  0  0  0  0  0
   58.7510   32.8170   46.9690 C   0  0  0  0  0  0  0  0  0  0  0  0
   58.5040   31.5730   47.7800 C   0  0  0  0  0  0  0  0  0  0  0  0
   58.3134   31.8495   48.8275 H   0  0  0  0  0  0  0  0  0  0  0  0
   57.6301   31.0395   47.3779 H   0  0  0  0  0  0  0  0  0  0  0  0
   59.6500   30.7290   47.7120 O   0  0  0  0  0  0  0  0  0  0  0  0
   59.6480   29.4970   47.0550 C   0  0  0  0  0  0  0  0  0  0  0  0
   58.5790   28.6600   47.1380 N   0  0  0  0  0  0  0  0  0  0  0  0
   58.5580   27.4650   46.4910 C   0  0  0  0  0  0  0  0  0  0  0  0
   57.5050   26.7060   46.6180 N   0  0  0  0  0  0  0  0  0  0  0  0
   57.1910   25.5220   45.8710 C   0  0  0  0  0  0  0  0  0  0  0  0
   57.3260   25.5390   44.4770 C   0  0  0  0  0  0  0  0  0  0  0  0
   57.6258   26.4669   43.9680 H   0  0  0  0  0  0  0  0  0  0  0  0
   57.0820   24.3840   43.7290 C   0  0  0  0  0  0  0  0  0  0  0  0
   57.1717   24.4096   42.6330 H   0  0  0  0  0  0  0  0  0  0  0  0
   56.7230   23.1930   44.3750 C   0  0  0  0  0  0  0  0  0  0  0  0
   56.4730   22.0020   43.6060 C   0  0  0  0  0  0  0  0  0  0  0  0
   56.2720   21.0440   42.9870 N   0  0  0  0  0  0  0  0  0  0  0  0
   56.6210   23.1610   45.7710 C   0  0  0  0  0  0  0  0  0  0  0  0
   56.3478   22.2252   46.2806 H   0  0  0  0  0  0  0  0  0  0  0  0
   56.8660   24.3170   46.5180 C   0  0  0  0  0  0  0  0  0  0  0  0
   56.8043   24.2836   47.6158 H   0  0  0  0  0  0  0  0  0  0  0  0
   59.6500   27.0780   45.7610 N   0  0  0  0  0  0  0  0  0  0  0  0
   59.7000   26.1420   45.3010 H   0  0  0  0  0  0  0  0  0  0  0  0
   60.7350   27.8910   45.6510 C   0  0  0  0  0  0  0  0  0  0  0  0
   61.5998   27.5725   45.0504 H   0  0  0  0  0  0  0  0  0  0  0  0
   60.7550   29.1250   46.2960 C   0  0  0  0  0  0  0  0  0  0  0  0
   61.6258   29.7913   46.2080 H   0  0  0  0  0  0  0  0  0  0  0  0
   58.0930   32.9970   45.7350 C   0  0  0  0  0  0  0  0  0  0  0  0
   57.2370   31.9840   45.2750 O   0  0  0  0  0  0  0  0  0  0  0  0
   57.2450   31.4080   43.9970 C   0  0  0  0  0  0  0  0  0  0  0  0
   57.4930   32.1130   42.9800 O   0  0  0  0  0  0  0  0  0  0  0  0
   56.8860   29.9450   43.8240 C   0  0  0  0  0  0  0  0  0  0  0  0
   56.2680   29.7340   42.4280 C   0  0  0  0  0  0  0  0  0  0  0  0
   55.2320   29.3803   42.5353 H   0  0  0  0  0  0  0  0  0  0  0  0
   56.2753   30.6855   41.8762 H   0  0  0  0  0  0  0  0  0  0  0  0
   56.8557   28.9856   41.8762 H   0  0  0  0  0  0  0  0  0  0  0  0
   58.1600   29.0920   43.9610 C   0  0  0  0  0  0  0  0  0  0  0  0
   58.3868   28.9402   45.0266 H   0  0  0  0  0  0  0  0  0  0  0  0
   58.0021   28.1168   43.4771 H   0  0  0  0  0  0  0  0  0  0  0  0
   59.0015   29.6094   43.4771 H   0  0  0  0  0  0  0  0  0  0  0  0
   55.8660   29.5030   44.8950 C   0  0  0  0  0  0  0  0  0  0  0  0
   56.2839   29.6841   45.8963 H   0  0  0  0  0  0  0  0  0  0  0  0
   54.9365   30.0791   44.7760 H   0  0  0  0  0  0  0  0  0  0  0  0
   55.6507   28.4309   44.7760 H   0  0  0  0  0  0  0  0  0  0  0  0
   58.3490   34.1580   44.9790 C   0  0  0  0  0  0  0  0  0  0  0  0
   57.8600   34.2944   44.0032 H   0  0  0  0  0  0  0  0  0  0  0  0
  1  2  1  0
  2  3  2  0
  3  4  1  0
  3  5  1  0
  5  6  1  0
  5  7  2  0
  7  8  1  0
  8  9  1  0
  8 10  1  0
  8 11  1  0
 11 12  1  0
 12 13  2  0
 13 14  1  0
 14 15  2  0
 15 16  1  0
 16 17  2  0
 17 18  1  0
 17 19  1  0
 19 20  1  0
 19 21  2  0
 21 22  1  0
 22 23  3  0
 21 24  1  0
 24 25  1  0
 24 26  2  0
 26 27  1  0
 14 28  1  0
 28 29  1  0
 28 30  1  0
 30 31  1  0
 30 32  2  0
 32 33  1  0
  7 34  1  0
 34 35  1  0
 35 36  1  0
 36 37  2  0
 36 38  1  0
 38 39  1  0
 39 40  1  0
 39 41  1  0
 39 42  1  0
 38 43  1  0
 43 44  1  0
 43 45  1  0
 43 46  1  0
 38 47  1  0
 47 48  1  0
 47 49  1  0
 47 50  1  0
 34 51  2  0
 51 52  1  0
 51  2  1  0
 32 12  1  0
 26 16  1  0
M  END
>  <UniqueID>  (65) 
60

>  <SMILES>  (65) 
CC(C)(C)C(=O)Oc1ccccc1COc1cc[nH]/c(=N\c2ccc(C#N)cc2)n1

>  <Energy>  (65) 
59.81523379635051

>  <Genealogy>  (65) 
CC(C)(C)C(=O)Oc1ccccc1COc1cc[nH]/c(=N\c2ccc(C#N)cc2)n1 (cis-trans isomerization)
CC(C)(C)C(=O)Oc1ccccc1COc1cc[nH]/c(=N\c2ccc(C#N)cc2)n1 (3D coordinates assigned)
CC(C)(C)C(=O)Oc1ccccc1COc1cc[nH]/c(=N\c2ccc(C#N)cc2)n1 (optimized conformer: 59.81523379635051 kcal/mol)

>  <smiles>  (65) 
CC(C)(C)C(=O)Oc1ccccc1COc1cc[nH]c(=Nc2ccc(C#N)cc2)n1

>  <score_type>  (65) 
oracle

>  <origin>  (65) 
adg

>  <m_score__min__energy>  (65) 
-9.3900000000000006

>  <m_primary>  (65) 
energy

$$$$
65:0
     RDKit          3D

 43 46  0  0  1  0  0  0  0  0999 V2000
   56.1550   26.9630   45.9030 O   0  0  0  0  0  0  0  0  0  0  0  0
   57.0120   26.4660   45.2500 C   0  0  0  0  0  0  0  0  0  0  0  0
   57.4500   25.2030   44.8140 N   0  0  0  0  0  0  0  0  0  0  0  0
   56.2740   24.3180   45.6530 C   0  0  0  0  0  0  0  0  0  0  0  0
   55.5050   24.9220   46.3110 O   0  0  0  0  0  0  0  0  0  0  0  0
   56.3530   22.9070   45.4680 C   0  0  0  0  0  0  0  0  0  0  0  0
   56.5160   22.4920   44.1350 C   0  0  0  0  0  0  0  0  0  0  0  0
   56.6180   21.1660   43.8160 C   0  0  0  0  0  0  0  0  0  0  0  0
   56.5670   20.2040   44.7660 C   0  0  0  0  0  0  0  0  0  0  0  0
   56.4080   20.5550   46.0860 C   0  0  0  0  0  0  0  0  0  0  0  0
   56.3070   21.9040   46.3900 C   0  0  0  0  0  0  0  0  0  0  0  0
   57.9900   27.4300   44.6450 N   0  0  0  0  0  0  0  0  0  0  0  0
   57.8510   28.7960   44.8120 C   0  0  0  0  0  0  0  0  0  0  0  0
   56.6540   29.3600   44.3400 C   0  0  0  0  0  0  0  0  0  0  0  0
   56.4730   30.7080   44.4580 C   0  0  0  0  0  0  0  0  0  0  0  0
   57.5120   31.4400   45.0490 C   0  0  0  0  0  0  0  0  0  0  0  0
   57.2300   32.8610   45.0950 N   0  0  0  0  0  0  0  0  0  0  0  0
   58.1300   33.6560   45.6000 C   0  0  0  0  0  0  0  0  0  0  0  0
   58.6950   34.6380   44.8820 N   0  0  0  0  0  0  0  0  0  0  0  0
   59.6070   35.4990   45.3450 C   0  0  0  0  0  0  0  0  0  0  0  0
   60.0210   35.4040   46.6430 N   0  0  0  0  0  0  0  0  0  0  0  0
   59.4970   34.4310   47.4470 C   0  0  0  0  0  0  0  0  0  0  0  0
   59.6910   34.0890   48.7390 N   0  0  0  0  0  0  0  0  0  0  0  0
   58.8860   33.0250   49.0230 C   0  0  0  0  0  0  0  0  0  0  0  0
   58.1810   32.6870   47.9180 N   0  0  0  0  0  0  0  0  0  0  0  0
   58.5450   33.5500   46.9240 C   0  0  0  0  0  0  0  0  0  0  0  0
   58.6620   30.8890   45.5020 C   0  0  0  0  0  0  0  0  0  0  0  0
   58.8500   29.5310   45.3870 C   0  0  0  0  0  0  0  0  0  0  0  0
   57.7250   24.4110   44.5410 H   0  0  0  0  0  0  0  0  0  0  0  0
   56.5623   23.2460   43.3354 H   0  0  0  0  0  0  0  0  0  0  0  0
   56.7444   20.8749   42.7628 H   0  0  0  0  0  0  0  0  0  0  0  0
   56.6525   19.1444   44.4833 H   0  0  0  0  0  0  0  0  0  0  0  0
   56.3624   19.7902   46.8753 H   0  0  0  0  0  0  0  0  0  0  0  0
   56.1813   22.1837   47.4464 H   0  0  0  0  0  0  0  0  0  0  0  0
   58.7850   26.9880   44.0880 H   0  0  0  0  0  0  0  0  0  0  0  0
   55.8777   28.7278   43.8842 H   0  0  0  0  0  0  0  0  0  0  0  0
   55.5533   31.1976   44.1052 H   0  0  0  0  0  0  0  0  0  0  0  0
   58.4020   34.7390   43.8930 H   0  0  0  0  0  0  0  0  0  0  0  0
   60.0203   36.2770   44.6863 H   0  0  0  0  0  0  0  0  0  0  0  0
   60.3510   34.5910   49.3500 H   0  0  0  0  0  0  0  0  0  0  0  0
   58.8200   32.5203   49.9981 H   0  0  0  0  0  0  0  0  0  0  0  0
   59.4388   31.5207   45.9577 H   0  0  0  0  0  0  0  0  0  0  0  0
   59.7733   29.0526   45.7457 H   0  0  0  0  0  0  0  0  0  0  0  0
  1  2  2  0
  2  3  1  0
  3  4  1  0
  4  5  2  0
  4  6  1  0
  6  7  2  0
  7  8  1  0
  8  9  2  0
  9 10  1  0
 10 11  2  0
  2 12  1  0
 12 13  1  0
 13 14  2  0
 14 15  1  0
 15 16  2  0
 16 17  1  0
 17 18  2  0
 18 19  1  0
 19 20  1  0
 20 21  2  0
 21 22  1  0
 22 23  1  0
 23 24  1  0
 24 25  2  0
 25 26  1  0
 16 27  1  0
 27 28  2  0
 11  6  1  0
 28 13  1  0
 26 18  1  0
 26 22  2  0
  3 29  1  0
  7 30  1  0
  8 31  1  0
  9 32  1  0
 10 33  1  0
 11 34  1  0
 12 35  1  0
 14 36  1  0
 15 37  1  0
 19 38  1  0
 20 39  1  0
 23 40  1  0
 24 41  1  0
 27 42  1  0
 28 43  1  0
M  END
>  <smiles>  (66) 
O=C(NC(=O)c1ccccc1)Nc1ccc(N=c2[nH]cnc3[nH]cnc23)cc1

>  <score_type>  (66) 
oracle

>  <origin>  (66) 
adg

>  <m_score__min__energy>  (66) 
-8.0500000000000007

>  <m_primary>  (66) 
energy

$$$$
66:0
     RDKit          3D

 40 41  0  0  0  0  0  0  0  0999 V2000
   58.3570   26.6390   46.8780 C   0  0  0  0  0  0  0  0  0  0  0  0
   59.1120   27.1130   45.6370 C   0  0  0  0  0  0  0  0  0  0  0  0
   58.1910   27.3270   44.4260 C   0  0  0  0  0  0  0  0  0  0  0  0
   57.9350   28.8140   44.1360 C   0  0  0  0  0  0  0  0  0  0  0  0
   56.4580   29.1650   44.3330 C   0  0  0  0  0  0  0  0  0  0  0  0
   56.3040   30.5670   44.5450 O   0  0  0  0  0  0  0  0  0  0  0  0
   57.3600   31.4840   44.4550 C   0  0  0  0  0  0  0  0  0  0  0  0
   57.9200   31.6970   43.3450 O   0  0  0  0  0  0  0  0  0  0  0  0
   57.8090   32.1730   45.6370 N   0  0  0  0  0  0  0  0  0  0  0  0
   57.2370   33.4620   46.0220 C   0  0  0  0  0  0  0  0  0  0  0  0
   57.9900   34.5860   45.3290 C   0  0  0  0  0  0  0  0  0  0  0  0
   59.3770   34.7440   45.8770 C   0  0  0  0  0  0  0  0  0  0  0  0
   59.7500   35.8870   46.2540 O   0  0  0  0  0  0  0  0  0  0  0  0
   60.3310   33.6700   45.8670 N   0  0  0  0  0  0  0  0  0  0  0  0
   60.1290   32.3900   46.4960 C   0  0  0  0  0  0  0  0  0  0  0  0
   61.2050   31.8130   47.1940 C   0  0  0  0  0  0  0  0  0  0  0  0
   61.0800   30.5570   47.7920 C   0  0  0  0  0  0  0  0  0  0  0  0
   59.8820   29.8520   47.6910 C   0  0  0  0  0  0  0  0  0  0  0  0
   58.8090   30.3990   46.9870 C   0  0  0  0  0  0  0  0  0  0  0  0
   58.9200   31.6620   46.3820 C   0  0  0  0  0  0  0  0  0  0  0  0
   58.8892   26.9731   47.7808 H   0  0  0  0  0  0  0  0  0  0  0  0
   57.3416   27.0620   46.8733 H   0  0  0  0  0  0  0  0  0  0  0  0
   58.2967   25.5407   46.8733 H   0  0  0  0  0  0  0  0  0  0  0  0
   59.6113   28.0647   45.8714 H   0  0  0  0  0  0  0  0  0  0  0  0
   59.8349   26.3284   45.3690 H   0  0  0  0  0  0  0  0  0  0  0  0
   58.6597   26.8709   43.5416 H   0  0  0  0  0  0  0  0  0  0  0  0
   57.2221   26.8602   44.6568 H   0  0  0  0  0  0  0  0  0  0  0  0
   58.5439   29.4238   44.8196 H   0  0  0  0  0  0  0  0  0  0  0  0
   58.2075   29.0191   43.0902 H   0  0  0  0  0  0  0  0  0  0  0  0
   55.8927   28.8697   43.4368 H   0  0  0  0  0  0  0  0  0  0  0  0
   56.0779   28.6271   45.2140 H   0  0  0  0  0  0  0  0  0  0  0  0
   56.1781   33.4948   45.7260 H   0  0  0  0  0  0  0  0  0  0  0  0
   57.3208   33.5860   47.1118 H   0  0  0  0  0  0  0  0  0  0  0  0
   58.0547   34.3621   44.2540 H   0  0  0  0  0  0  0  0  0  0  0  0
   57.4430   35.5242   45.5037 H   0  0  0  0  0  0  0  0  0  0  0  0
   61.3230   33.9660   45.7190 H   0  0  0  0  0  0  0  0  0  0  0  0
   62.1575   32.3580   47.2700 H   0  0  0  0  0  0  0  0  0  0  0  0
   61.9278   30.1239   48.3431 H   0  0  0  0  0  0  0  0  0  0  0  0
   59.7826   28.8649   48.1661 H   0  0  0  0  0  0  0  0  0  0  0  0
   57.8674   29.8362   46.9049 H   0  0  0  0  0  0  0  0  0  0  0  0
  1  2  1  0
  2  3  1  0
  3  4  1  0
  4  5  1  0
  5  6  1  0
  6  7  1  0
  7  8  2  0
  7  9  1  0
  9 10  1  0
 10 11  1  0
 11 12  1  0
 12 13  2  0
 12 14  1  0
 14 15  1  0
 15 16  2  0
 16 17  1  0
 17 18  2  0
 18 19  1  0
 19 20  2  0
 20  9  1  0
 20 15  1  0
  1 21  1  0
  1 22  1  0
  1 23  1  0
  2 24  1  0
  2 25  1  0
  3 26  1  0
  3 27  1  0
  4 28  1  0
  4 29  1  0
  5 30  1  0
  5 31  1  0
 10 32  1  0
 10 33  1  0
 11 34  1  0
 11 35  1  0
 14 36  1  0
 16 37  1  0
 17 38  1  0
 18 39  1  0
 19 40  1  0
M  END
>  <UniqueID>  (67) 
61

>  <SMILES>  (67) 
CCCCCOC(=O)N1CCC(=O)Nc2ccccc21

>  <Energy>  (67) 
43.46474926065468

>  <Genealogy>  (67) 
CCCCCOC(=O)N1CCC(=O)Nc2ccccc21 (3D coordinates assigned)
CCCCCOC(=O)N1CCC(=O)Nc2ccccc21 (nonaromatic ring conformer: 43.46474926065468 kcal/mol)

>  <smiles>  (67) 
CCCCCOC(=O)N1CCC(=O)Nc2ccccc21

>  <score_type>  (67) 
oracle

>  <origin>  (67) 
adg

>  <m_score__min__energy>  (67) 
-4.96

>  <m_primary>  (67) 
energy

$$$$
67:0
     RDKit          3D

 34 35  0  0  0  0  0  0  0  0999 V2000
   55.8980   21.8460   42.8390 N   0  0  0  0  0  0  0  0  0  0  0  0
   56.8840   22.7910   43.9030 S   0  0  0  0  0  0  0  0  0  0  0  0
   56.8940   24.2130   43.4150 O   0  0  0  0  0  0  0  0  0  0  0  0
   58.2850   22.2460   43.8900 O   0  0  0  0  0  0  0  0  0  0  0  0
   56.2520   22.7390   45.5520 C   0  0  0  0  0  0  0  0  0  0  0  0
   55.3760   21.7090   45.9300 C   0  0  0  0  0  0  0  0  0  0  0  0
   54.8700   21.6520   47.2300 C   0  0  0  0  0  0  0  0  0  0  0  0
   55.2420   22.6170   48.1670 C   0  0  0  0  0  0  0  0  0  0  0  0
   56.1170   23.6440   47.8050 C   0  0  0  0  0  0  0  0  0  0  0  0
   56.6280   23.7180   46.4960 C   0  0  0  0  0  0  0  0  0  0  0  0
   57.5360   24.7600   46.1030 N   0  0  0  0  0  0  0  0  0  0  0  0
   57.0870   26.3840   45.6910 S   0  0  0  0  0  0  0  0  0  0  0  0
   57.3250   26.5860   44.2220 O   0  0  0  0  0  0  0  0  0  0  0  0
   55.6230   26.5530   45.9830 O   0  0  0  0  0  0  0  0  0  0  0  0
   58.0670   27.5500   46.6000 C   0  0  0  0  0  0  0  0  0  0  0  0
   58.8860   27.0570   47.6300 C   0  0  0  0  0  0  0  0  0  0  0  0
   59.6530   27.9220   48.4100 C   0  0  0  0  0  0  0  0  0  0  0  0
   59.6190   29.2950   48.1720 C   0  0  0  0  0  0  0  0  0  0  0  0
   60.6590   30.4760   49.2530 Br  0  0  0  0  0  0  0  0  0  0  0  0
   58.8310   29.8020   47.1370 C   0  0  0  0  0  0  0  0  0  0  0  0
   58.0620   28.9460   46.3290 C   0  0  0  0  0  0  0  0  0  0  0  0
   57.1100   29.6720   45.0210 S   0  0  0  0  0  0  0  0  0  0  0  0
   55.5150   29.0030   44.9940 N   0  0  0  0  0  0  0  0  0  0  0  0
   57.7720   29.3890   43.7020 O   0  0  0  0  0  0  0  0  0  0  0  0
   56.9880   31.1560   45.2210 O   0  0  0  0  0  0  0  0  0  0  0  0
   55.9270   22.3110   41.9050 H   0  0  0  0  0  0  0  0  0  0  0  0
   55.0864   20.9417   45.1969 H   0  0  0  0  0  0  0  0  0  0  0  0
   54.1779   20.8462   47.5158 H   0  0  0  0  0  0  0  0  0  0  0  0
   54.8457   22.5689   49.1920 H   0  0  0  0  0  0  0  0  0  0  0  0
   56.4087   24.4003   48.5486 H   0  0  0  0  0  0  0  0  0  0  0  0
   58.9226   25.9748   47.8235 H   0  0  0  0  0  0  0  0  0  0  0  0
   60.2861   27.5199   49.2147 H   0  0  0  0  0  0  0  0  0  0  0  0
   58.8115   30.8860   46.9511 H   0  0  0  0  0  0  0  0  0  0  0  0
   55.6170   27.9710   44.8590 H   0  0  0  0  0  0  0  0  0  0  0  0
  1  2  1  0
  2  3  2  0
  2  4  2  0
  2  5  1  0
  5  6  2  0
  6  7  1  0
  7  8  2  0
  8  9  1  0
  9 10  2  0
 10 11  1  0
 11 12  1  0
 12 13  2  0
 12 14  2  0
 12 15  1  0
 15 16  2  0
 16 17  1  0
 17 18  2  0
 18 19  1  0
 18 20  1  0
 20 21  2  0
 21 22  1  0
 22 23  1  0
 22 24  2  0
 22 25  2  0
 10  5  1  0
 21 15  1  0
  1 26  1  0
  6 27  1  0
  7 28  1  0
  8 29  1  0
  9 30  1  0
 16 31  1  0
 17 32  1  0
 20 33  1  0
 23 34  1  0
M  CHG  3   1  -1  11  -1  23  -1
M  END
>  <UniqueID>  (68) 
62

>  <SMILES>  (68) 
[NH-]S(=O)(=O)c1ccccc1[N-]S(=O)(=O)c1ccc(Br)cc1S([NH-])(=O)=O

>  <Energy>  (68) 
42.13741232607955

>  <Genealogy>  (68) 
[NH-]S(=O)(=O)c1ccccc1[N-]S(=O)(=O)c1ccc(Br)cc1S([NH-])(=O)=O (protonated)
[NH-]S(=O)(=O)c1ccccc1[N-]S(=O)(=O)c1ccc(Br)cc1S([NH-])(=O)=O (3D coordinates assigned)
[NH-]S(=O)(=O)c1ccccc1[N-]S(=O)(=O)c1ccc(Br)cc1S([NH-])(=O)=O (optimized conformer: 42.13741232607955 kcal/mol)

>  <smiles>  (68) 
NS(=O)(=O)c1ccccc1NS(=O)(=O)c1ccc(Br)cc1S(N)(=O)=O

>  <score_type>  (68) 
oracle

>  <origin>  (68) 
adg

>  <m_score__min__energy>  (68) 
-14.26

>  <m_primary>  (68) 
energy

$$$$
68:0
     RDKit          3D

 54 57  0  0  0  0  0  0  0  0999 V2000
   67.7670   32.7070   50.9280 C   0  0  0  0  0  0  0  0  0  0  0  0
   66.3370   32.4630   50.5800 C   0  0  0  0  0  0  0  0  0  0  0  0
   65.6420   33.2340   49.7200 N   0  0  0  0  0  0  0  0  0  0  0  0
   64.4290   32.6450   49.6860 C   0  0  0  0  0  0  0  0  0  0  0  0
   63.2980   33.1360   48.8610 C   0  0  0  0  0  0  0  0  0  0  0  0
   63.3250   32.9700   47.4640 C   0  0  0  0  0  0  0  0  0  0  0  0
   62.2600   33.4110   46.6730 C   0  0  0  0  0  0  0  0  0  0  0  0
   61.1510   34.0240   47.2660 C   0  0  0  0  0  0  0  0  0  0  0  0
   59.7580   34.4990   46.2960 S   0  0  0  0  0  0  0  0  0  0  0  0
   60.0050   34.2280   44.8390 O   0  0  0  0  0  0  0  0  0  0  0  0
   59.5140   35.9700   46.4890 O   0  0  0  0  0  0  0  0  0  0  0  0
   58.3630   33.6070   46.8140 N   0  0  0  0  0  0  0  0  0  0  0  0
   58.2840   32.1780   46.6760 C   0  0  0  0  0  0  0  0  0  0  0  0
   57.9190   31.6120   45.4440 C   0  0  0  0  0  0  0  0  0  0  0  0
   57.8840   30.2220   45.2670 C   0  0  0  0  0  0  0  0  0  0  0  0
   57.5280   29.6620   43.9160 C   0  0  0  0  0  0  0  0  0  0  0  0
   58.2340   29.3800   46.3410 C   0  0  0  0  0  0  0  0  0  0  0  0
   58.2660   27.9520   46.1880 N   0  0  0  0  0  0  0  0  0  0  0  0
   59.5000   27.2280   46.5060 C   0  0  0  0  0  0  0  0  0  0  0  0
   59.4340   25.7860   45.9930 C   0  0  0  0  0  0  0  0  0  0  0  0
   58.2220   25.1780   46.4000 O   0  0  0  0  0  0  0  0  0  0  0  0
   57.1380   25.7350   45.6790 C   0  0  0  0  0  0  0  0  0  0  0  0
   57.0720   27.2260   45.8460 C   0  0  0  0  0  0  0  0  0  0  0  0
   55.9920   27.8350   45.6180 O   0  0  0  0  0  0  0  0  0  0  0  0
   58.5610   29.9370   47.5830 C   0  0  0  0  0  0  0  0  0  0  0  0
   58.5930   31.3290   47.7630 C   0  0  0  0  0  0  0  0  0  0  0  0
   58.9900   31.8920   49.1010 C   0  0  0  0  0  0  0  0  0  0  0  0
   61.1190   34.2020   48.6530 C   0  0  0  0  0  0  0  0  0  0  0  0
   62.1810   33.7620   49.4460 C   0  0  0  0  0  0  0  0  0  0  0  0
   64.4410   31.5420   50.5190 C   0  0  0  0  0  0  0  0  0  0  0  0
   65.6350   31.4600   51.0510 O   0  0  0  0  0  0  0  0  0  0  0  0
   67.8800   32.7263   52.0220 H   0  0  0  0  0  0  0  0  0  0  0  0
   68.3888   31.9020   50.5093 H   0  0  0  0  0  0  0  0  0  0  0  0
   68.0866   33.6727   50.5093 H   0  0  0  0  0  0  0  0  0  0  0  0
   64.1927   32.4884   46.9895 H   0  0  0  0  0  0  0  0  0  0  0  0
   62.2940   33.2757   45.5819 H   0  0  0  0  0  0  0  0  0  0  0  0
   57.6590   34.1190   47.3900 H   0  0  0  0  0  0  0  0  0  0  0  0
   57.6560   32.2708   44.6032 H   0  0  0  0  0  0  0  0  0  0  0  0
   56.9419   28.7400   44.0441 H   0  0  0  0  0  0  0  0  0  0  0  0
   56.9330   30.4002   43.3583 H   0  0  0  0  0  0  0  0  0  0  0  0
   58.4489   29.4365   43.3583 H   0  0  0  0  0  0  0  0  0  0  0  0
   60.3506   27.7403   46.0326 H   0  0  0  0  0  0  0  0  0  0  0  0
   59.6244   27.2075   47.5988 H   0  0  0  0  0  0  0  0  0  0  0  0
   59.4885   25.7882   44.8944 H   0  0  0  0  0  0  0  0  0  0  0  0
   60.2786   25.2175   46.4095 H   0  0  0  0  0  0  0  0  0  0  0  0
   57.2610   25.5003   44.6114 H   0  0  0  0  0  0  0  0  0  0  0  0
   56.2054   25.3029   46.0709 H   0  0  0  0  0  0  0  0  0  0  0  0
   58.7961   29.2750   48.4295 H   0  0  0  0  0  0  0  0  0  0  0  0
   58.5554   31.2756   49.9017 H   0  0  0  0  0  0  0  0  0  0  0  0
   60.0864   31.8884   49.1896 H   0  0  0  0  0  0  0  0  0  0  0  0
   58.6184   32.9235   49.1896 H   0  0  0  0  0  0  0  0  0  0  0  0
   60.2525   34.6913   49.1218 H   0  0  0  0  0  0  0  0  0  0  0  0
   62.1444   33.9057   50.5360 H   0  0  0  0  0  0  0  0  0  0  0  0
   63.5999   30.8571   50.7020 H   0  0  0  0  0  0  0  0  0  0  0  0
  1  2  1  0
  2  3  2  0
  3  4  1  0
  4  5  1  0
  5  6  2  0
  6  7  1  0
  7  8  2  0
  8  9  1  0
  9 10  2  0
  9 11  2  0
  9 12  1  0
 12 13  1  0
 13 14  2  0
 14 15  1  0
 15 16  1  0
 15 17  2  0
 17 18  1  0
 18 19  1  0
 19 20  1  0
 20 21  1  0
 21 22  1  0
 22 23  1  0
 23 24  2  0
 17 25  1  0
 25 26  2  0
 26 27  1  0
  8 28  1  0
 28 29  2  0
  4 30  2  0
 30 31  1  0
 31  2  1  0
 29  5  1  0
 26 13  1  0
 23 18  1  0
  1 32  1  0
  1 33  1  0
  1 34  1  0
  6 35  1  0
  7 36  1  0
 12 37  1  0
 14 38  1  0
 16 39  1  0
 16 40  1  0
 16 41  1  0
 19 42  1  0
 19 43  1  0
 20 44  1  0
 20 45  1  0
 22 46  1  0
 22 47  1  0
 25 48  1  0
 27 49  1  0
 27 50  1  0
 27 51  1  0
 28 52  1  0
 29 53  1  0
 30 54  1  0
M  END
>  <UniqueID>  (69) 
63

>  <SMILES>  (69) 
Cc1nc(-c2ccc(S(=O)(=O)Nc3cc(C)c(N4CCOCC4=O)cc3C)cc2)co1

>  <Energy>  (69) 
98.71408928437236

>  <Genealogy>  (69) 
Cc1nc(-c2ccc(S(=O)(=O)Nc3cc(C)c(N4CCOCC4=O)cc3C)cc2)co1 (3D coordinates assigned)
Cc1nc(-c2ccc(S(=O)(=O)Nc3cc(C)c(N4CCOCC4=O)cc3C)cc2)co1 (nonaromatic ring conformer: 98.71408928437236 kcal/mol)

>  <smiles>  (69) 
Cc1nc(-c2ccc(S(=O)(=O)Nc3cc(C)c(N4CCOCC4=O)cc3C)cc2)co1

>  <score_type>  (69) 
oracle

>  <origin>  (69) 
adg

>  <m_score__min__energy>  (69) 
-9.6999999999999993

>  <m_primary>  (69) 
energy

$$$$
69:0
     RDKit          3D

 50 53  0  0  0  0  0  0  0  0999 V2000
   63.7840   34.1810   51.3160 C   0  0  0  0  0  0  0  0  0  0  0  0
   62.8960   33.3610   50.5630 O   0  0  0  0  0  0  0  0  0  0  0  0
   62.7020   33.4670   49.1780 C   0  0  0  0  0  0  0  0  0  0  0  0
   63.7780   33.4850   48.2600 C   0  0  0  0  0  0  0  0  0  0  0  0
   63.5420   33.6130   46.8780 C   0  0  0  0  0  0  0  0  0  0  0  0
   62.2330   33.7110   46.3840 C   0  0  0  0  0  0  0  0  0  0  0  0
   61.1770   33.6610   47.2960 C   0  0  0  0  0  0  0  0  0  0  0  0
   59.8020   33.7600   47.1190 C   0  0  0  0  0  0  0  0  0  0  0  0
   59.0140   33.8760   45.8720 C   0  0  0  0  0  0  0  0  0  0  0  0
   58.3580   34.9370   45.6770 O   0  0  0  0  0  0  0  0  0  0  0  0
   58.8890   32.7740   44.9400 N   0  0  0  0  0  0  0  0  0  0  0  0
   59.1790   31.4810   45.6210 C   0  0  0  0  0  0  0  0  0  0  0  0
   57.8980   30.7320   46.0340 C   0  0  0  0  0  0  0  0  0  0  0  0
   57.0040   30.4560   44.8770 N   0  0  0  0  0  0  0  0  0  0  0  0
   57.1330   29.0670   44.3910 C   0  0  0  0  0  0  0  0  0  0  0  0
   58.1550   28.3220   45.2010 C   0  0  0  0  0  0  0  0  0  0  0  0
   57.8430   27.6000   46.3640 C   0  0  0  0  0  0  0  0  0  0  0  0
   58.9430   26.9810   46.9430 C   0  0  0  0  0  0  0  0  0  0  0  0
   60.2930   27.3340   46.0060 S   0  0  0  0  0  0  0  0  0  0  0  0
   59.5020   28.2740   44.8590 C   0  0  0  0  0  0  0  0  0  0  0  0
   57.1680   31.4160   43.7620 C   0  0  0  0  0  0  0  0  0  0  0  0
   57.5590   32.8050   44.2790 C   0  0  0  0  0  0  0  0  0  0  0  0
   59.2570   33.7380   48.3970 C   0  0  0  0  0  0  0  0  0  0  0  0
   60.2300   33.6080   49.3260 N   0  0  0  0  0  0  0  0  0  0  0  0
   60.0210   33.5510   50.7700 C   0  0  0  0  0  0  0  0  0  0  0  0
   61.4020   33.5640   48.6530 C   0  0  0  0  0  0  0  0  0  0  0  0
   63.6098   34.0201   52.3901 H   0  0  0  0  0  0  0  0  0  0  0  0
   64.8234   33.9183   51.0698 H   0  0  0  0  0  0  0  0  0  0  0  0
   63.6048   35.2380   51.0698 H   0  0  0  0  0  0  0  0  0  0  0  0
   64.8103   33.3981   48.6299 H   0  0  0  0  0  0  0  0  0  0  0  0
   64.3915   33.6363   46.1796 H   0  0  0  0  0  0  0  0  0  0  0  0
   62.0433   33.8243   45.3064 H   0  0  0  0  0  0  0  0  0  0  0  0
   59.6150   32.8780   44.1950 H   0  0  0  0  0  0  0  0  0  0  0  0
   59.7555   30.8426   44.9353 H   0  0  0  0  0  0  0  0  0  0  0  0
   59.7454   31.7051   46.5370 H   0  0  0  0  0  0  0  0  0  0  0  0
   58.1819   29.7755   46.4971 H   0  0  0  0  0  0  0  0  0  0  0  0
   57.3470   31.3730   46.7380 H   0  0  0  0  0  0  0  0  0  0  0  0
   56.1607   28.5602   44.4795 H   0  0  0  0  0  0  0  0  0  0  0  0
   57.4552   29.0853   43.3394 H   0  0  0  0  0  0  0  0  0  0  0  0
   56.8256   27.5313   46.7766 H   0  0  0  0  0  0  0  0  0  0  0  0
   58.9326   26.3669   47.8555 H   0  0  0  0  0  0  0  0  0  0  0  0
   59.9675   28.7644   43.9914 H   0  0  0  0  0  0  0  0  0  0  0  0
   57.9551   31.0500   43.0864 H   0  0  0  0  0  0  0  0  0  0  0  0
   56.2085   31.4997   43.2306 H   0  0  0  0  0  0  0  0  0  0  0  0
   57.5946   33.5066   43.4326 H   0  0  0  0  0  0  0  0  0  0  0  0
   56.8093   33.1273   45.0166 H   0  0  0  0  0  0  0  0  0  0  0  0
   58.1829   33.8156   48.6214 H   0  0  0  0  0  0  0  0  0  0  0  0
   60.9580   33.8066   51.2865 H   0  0  0  0  0  0  0  0  0  0  0  0
   59.2375   34.2682   51.0557 H   0  0  0  0  0  0  0  0  0  0  0  0
   59.7101   32.5353   51.0557 H   0  0  0  0  0  0  0  0  0  0  0  0
  1  2  1  0
  2  3  1  0
  3  4  2  0
  4  5  1  0
  5  6  2  0
  6  7  1  0
  7  8  1  0
  8  9  1  0
  9 10  2  0
  9 11  1  0
 11 12  1  0
 12 13  1  0
 13 14  1  0
 14 15  1  0
 15 16  1  0
 16 17  1  0
 17 18  2  0
 18 19  1  0
 19 20  1  0
 14 21  1  0
 21 22  1  0
  8 23  2  0
 23 24  1  0
 24 25  1  0
 24 26  1  0
 26  3  1  0
 26  7  2  0
 22 11  1  0
 20 16  2  0
  1 27  1  0
  1 28  1  0
  1 29  1  0
  4 30  1  0
  5 31  1  0
  6 32  1  0
 11 33  1  0
 12 34  1  0
 12 35  1  0
 13 36  1  0
 13 37  1  0
 15 38  1  0
 15 39  1  0
 17 40  1  0
 18 41  1  0
 20 42  1  0
 21 43  1  0
 21 44  1  0
 22 45  1  0
 22 46  1  0
 23 47  1  0
 25 48  1  0
 25 49  1  0
 25 50  1  0
M  CHG  1  11   1
M  END
>  <UniqueID>  (70) 
64

>  <SMILES>  (70) 
COc1cccc2c(C(=O)[NH+]3CCN(Cc4ccsc4)CC3)cn(C)c12

>  <Energy>  (70) 
129.51409545463133

>  <Genealogy>  (70) 
COc1cccc2c(C(=O)[NH+]3CCN(Cc4ccsc4)CC3)cn(C)c12 (protonated)
COc1cccc2c(C(=O)[NH+]3CCN(Cc4ccsc4)CC3)cn(C)c12 (3D coordinates assigned)
COc1cccc2c(C(=O)[NH+]3CCN(Cc4ccsc4)CC3)cn(C)c12 (nonaromatic ring conformer: 129.51409545463133 kcal/mol)

>  <smiles>  (70) 
COc1cccc2c(C(=O)N3CCN(Cc4ccsc4)CC3)cn(C)c12

>  <score_type>  (70) 
oracle

>  <origin>  (70) 
adg

>  <m_score__min__energy>  (70) 
-6.3099999999999996

>  <m_primary>  (70) 
energy

$$$$
70:0
     RDKit          3D

 29 30  0  0  0  0  0  0  0  0999 V2000
   55.1550   29.3510   44.6480 N   0  0  0  0  0  0  0  0  0  0  0  0
   56.7090   30.0130   44.2830 S   0  0  0  0  0  0  0  0  0  0  0  0
   56.8680   30.1390   42.7940 O   0  0  0  0  0  0  0  0  0  0  0  0
   56.8220   31.3790   44.8990 O   0  0  0  0  0  0  0  0  0  0  0  0
   57.9620   28.9530   44.9210 C   0  0  0  0  0  0  0  0  0  0  0  0
   59.2960   29.3780   44.9820 C   0  0  0  0  0  0  0  0  0  0  0  0
   60.2760   28.5330   45.5070 C   0  0  0  0  0  0  0  0  0  0  0  0
   59.9290   27.2670   45.9890 C   0  0  0  0  0  0  0  0  0  0  0  0
   58.5930   26.8370   45.9550 C   0  0  0  0  0  0  0  0  0  0  0  0
   58.2280   25.4970   46.4760 C   0  0  0  0  0  0  0  0  0  0  0  0
   59.0280   24.5370   46.3160 O   0  0  0  0  0  0  0  0  0  0  0  0
   56.9630   25.2360   47.1070 N   0  0  0  0  0  0  0  0  0  0  0  0
   56.0280   24.4480   46.6600 C   0  0  0  0  0  0  0  0  0  0  0  0
   54.9110   24.9550   46.0620 N   0  0  0  0  0  0  0  0  0  0  0  0
   53.9160   24.1580   45.5930 C   0  0  0  0  0  0  0  0  0  0  0  0
   54.0110   22.7730   45.7230 C   0  0  0  0  0  0  0  0  0  0  0  0
   55.1340   22.2220   46.3420 C   0  0  0  0  0  0  0  0  0  0  0  0
   56.1510   23.0540   46.8200 C   0  0  0  0  0  0  0  0  0  0  0  0
   57.2630   22.4780   47.4370 O   0  0  0  0  0  0  0  0  0  0  0  0
   57.6150   27.6820   45.3990 C   0  0  0  0  0  0  0  0  0  0  0  0
   55.1860   29.0280   45.6410 H   0  0  0  0  0  0  0  0  0  0  0  0
   59.5714   30.3781   44.6160 H   0  0  0  0  0  0  0  0  0  0  0  0
   61.3243   28.8643   45.5415 H   0  0  0  0  0  0  0  0  0  0  0  0
   60.7068   26.6047   46.3969 H   0  0  0  0  0  0  0  0  0  0  0  0
   53.0347   24.6056   45.1103 H   0  0  0  0  0  0  0  0  0  0  0  0
   53.2101   22.1222   45.3421 H   0  0  0  0  0  0  0  0  0  0  0  0
   55.2192   21.1310   46.4540 H   0  0  0  0  0  0  0  0  0  0  0  0
   58.1400   22.9750   47.5450 H   0  0  0  0  0  0  0  0  0  0  0  0
   56.5704   27.3426   45.3390 H   0  0  0  0  0  0  0  0  0  0  0  0
  1  2  1  0
  2  3  2  0
  2  4  2  0
  2  5  1  0
  5  6  2  0
  6  7  1  0
  7  8  2  0
  8  9  1  0
  9 10  1  0
 10 11  2  0
 10 12  1  0
 12 13  2  3
 13 14  1  0
 14 15  1  0
 15 16  2  0
 16 17  1  0
 17 18  2  0
 18 19  1  0
  9 20  2  0
 20  5  1  0
 18 13  1  0
  1 21  1  0
  6 22  1  0
  7 23  1  0
  8 24  1  0
 15 25  1  0
 16 26  1  0
 17 27  1  0
 19 28  1  0
 20 29  1  0
M  CHG  2   1  -1  14  -1
M  END
>  <UniqueID>  (71) 
65

>  <SMILES>  (71) 
[NH-]S(=O)(=O)c1cccc(C(=O)N=c2[n-]cccc2O)c1

>  <Energy>  (71) 
38.056203196792964

>  <Genealogy>  (71) 
[NH-]S(=O)(=O)c1cccc(C(=O)N=c2[n-]cccc2O)c1 (protonated)
[NH-]S(=O)(=O)c1cccc(C(=O)N=c2[n-]cccc2O)c1 (3D coordinates assigned)
[NH-]S(=O)(=O)c1cccc(C(=O)N=c2[n-]cccc2O)c1 (optimized conformer: 38.056203196792964 kcal/mol)

>  <smiles>  (71) 
NS(=O)(=O)c1cccc(C(=O)N=c2[nH]cccc2O)c1

>  <score_type>  (71) 
oracle

>  <origin>  (71) 
adg

>  <m_score__min__energy>  (71) 
-12.42

>  <m_primary>  (71) 
energy

$$$$
71:0
     RDKit          3D

 51 54  0  0  1  0  0  0  0  0999 V2000
   63.3250   30.4380   51.3730 C   0  0  0  0  0  0  0  0  0  0  0  0
   62.2240   30.7440   50.5180 O   0  0  0  0  0  0  0  0  0  0  0  0
   62.4550   31.4570   49.3450 C   0  0  0  0  0  0  0  0  0  0  0  0
   63.5690   32.2770   49.2530 C   0  0  0  0  0  0  0  0  0  0  0  0
   63.8230   32.9970   48.1040 C   0  0  0  0  0  0  0  0  0  0  0  0
   62.9400   32.8700   47.0680 C   0  0  0  0  0  0  0  0  0  0  0  0
   61.8190   32.0570   47.1280 C   0  0  0  0  0  0  0  0  0  0  0  0
   61.5730   31.3320   48.3010 C   0  0  0  0  0  0  0  0  0  0  0  0
   60.3900   30.4650   48.3020 C   0  0  0  0  0  0  0  0  0  0  0  0
   60.6040   29.0980   47.7060 C   0  0  0  0  0  0  0  0  0  0  0  0
   60.4710   29.1990   46.2680 N   0  0  0  0  0  0  0  0  0  0  0  0
   59.2670   29.4280   45.8220 C   0  0  0  0  0  0  0  0  0  0  0  0
   58.9650   30.6490   45.2460 C   0  0  0  0  0  0  0  0  0  0  0  0
   57.6930   30.9380   44.7450 C   0  0  0  0  0  0  0  0  0  0  0  0
   57.4200   32.2810   44.1270 C   0  0  0  0  0  0  0  0  0  0  0  0
   56.9570   33.1610   45.2560 C   0  0  0  0  0  0  0  0  0  0  0  0
   58.0260   33.6760   46.1140 C   0  0  0  0  0  0  0  0  0  0  0  0
   58.9720   34.5840   45.6750 C   0  0  0  0  0  0  0  0  0  0  0  0
   59.9690   35.0430   46.5220 C   0  0  0  0  0  0  0  0  0  0  0  0
   60.0140   34.5910   47.8050 C   0  0  0  0  0  0  0  0  0  0  0  0
   59.0770   33.6810   48.2630 C   0  0  0  0  0  0  0  0  0  0  0  0
   58.0780   33.2180   47.4230 C   0  0  0  0  0  0  0  0  0  0  0  0
   56.7580   29.9860   44.8430 N   0  0  0  0  0  0  0  0  0  0  0  0
   57.0320   28.7720   45.4080 C   0  0  0  0  0  0  0  0  0  0  0  0
   56.2660   27.6640   45.6190 N   0  0  0  0  0  0  0  0  0  0  0  0
   57.0400   26.7260   46.2260 C   0  0  0  0  0  0  0  0  0  0  0  0
   58.2480   27.2930   46.3650 N   0  0  0  0  0  0  0  0  0  0  0  0
   58.2780   28.5190   45.8840 N   0  0  0  0  0  0  0  0  0  0  0  0
   63.0093   30.5258   52.4230 H   0  0  0  0  0  0  0  0  0  0  0  0
   63.6667   29.4109   51.1775 H   0  0  0  0  0  0  0  0  0  0  0  0
   64.1477   31.1415   51.1775 H   0  0  0  0  0  0  0  0  0  0  0  0
   64.2587   32.3545   50.1064 H   0  0  0  0  0  0  0  0  0  0  0  0
   64.7046   33.6500   48.0242 H   0  0  0  0  0  0  0  0  0  0  0  0
   63.1276   33.4386   46.1453 H   0  0  0  0  0  0  0  0  0  0  0  0
   61.1348   31.9825   46.2699 H   0  0  0  0  0  0  0  0  0  0  0  0
   60.0621   30.3358   49.3440 H   0  0  0  0  0  0  0  0  0  0  0  0
   59.6419   30.9638   47.6683 H   0  0  0  0  0  0  0  0  0  0  0  0
   61.6106   28.7352   47.9612 H   0  0  0  0  0  0  0  0  0  0  0  0
   59.8609   28.3919   48.1050 H   0  0  0  0  0  0  0  0  0  0  0  0
   59.7506   31.4162   45.1804 H   0  0  0  0  0  0  0  0  0  0  0  0
   58.3359   32.6882   43.6739 H   0  0  0  0  0  0  0  0  0  0  0  0
   56.6669   32.2151   43.3279 H   0  0  0  0  0  0  0  0  0  0  0  0
   56.4227   34.0195   44.8231 H   0  0  0  0  0  0  0  0  0  0  0  0
   56.3224   32.5319   45.8975 H   0  0  0  0  0  0  0  0  0  0  0  0
   58.9329   34.9478   44.6376 H   0  0  0  0  0  0  0  0  0  0  0  0
   60.7160   35.7651   46.1608 H   0  0  0  0  0  0  0  0  0  0  0  0
   60.8012   34.9517   48.4833 H   0  0  0  0  0  0  0  0  0  0  0  0
   59.1262   33.3229   49.3019 H   0  0  0  0  0  0  0  0  0  0  0  0
   57.3340   32.4953   47.7893 H   0  0  0  0  0  0  0  0  0  0  0  0
   56.7393   25.7148   46.5377 H   0  0  0  0  0  0  0  0  0  0  0  0
   59.0490   26.8040   46.8030 H   0  0  0  0  0  0  0  0  0  0  0  0
  1  2  1  0
  2  3  1  0
  3  4  2  0
  4  5  1  0
  5  6  2  0
  6  7  1  0
  7  8  2  0
  8  9  1  0
  9 10  1  0
 10 11  1  0
 11 12  2  0
 12 13  1  0
 13 14  2  0
 14 15  1  0
 15 16  1  0
 16 17  1  0
 17 18  2  0
 18 19  1  0
 19 20  2  0
 20 21  1  0
 21 22  2  0
 14 23  1  0
 23 24  2  0
 24 25  1  0
 25 26  2  0
 26 27  1  0
 27 28  1  0
  8  3  1  0
 28 12  1  0
 22 17  1  0
 28 24  1  0
  1 29  1  0
  1 30  1  0
  1 31  1  0
  4 32  1  0
  5 33  1  0
  6 34  1  0
  7 35  1  0
  9 36  1  0
  9 37  1  0
 10 38  1  0
 10 39  1  0
 13 40  1  0
 15 41  1  0
 15 42  1  0
 16 43  1  0
 16 44  1  0
 18 45  1  0
 19 46  1  0
 20 47  1  0
 21 48  1  0
 22 49  1  0
 26 50  1  0
 27 51  1  0
M  END
>  <smiles>  (72) 
COc1ccccc1CCN=c1cc(CCc2ccccc2)nc2nc[nH]n12

>  <score_type>  (72) 
oracle

>  <origin>  (72) 
adg

>  <m_score__min__energy>  (72) 
-8.8900000000000006

>  <m_primary>  (72) 
energy

$$$$
72:0
     RDKit          3D

 39 41  0  0  0  0  0  0  0  0999 V2000
   57.7550   31.9470   42.6900 C   0  0  0  0  0  0  0  0  0  0  0  0
   57.7920   32.5050   44.0720 C   0  0  0  0  0  0  0  0  0  0  0  0
   58.6170   33.5170   44.5190 C   0  0  0  0  0  0  0  0  0  0  0  0
   58.2680   33.6280   45.8450 C   0  0  0  0  0  0  0  0  0  0  0  0
   58.8020   34.4630   46.6820 N   0  0  0  0  0  0  0  0  0  0  0  0
   59.8290   33.9680   47.9890 S   0  0  0  0  0  0  0  0  0  0  0  0
   61.2050   34.5350   47.7820 O   0  0  0  0  0  0  0  0  0  0  0  0
   59.2810   34.4970   49.2850 O   0  0  0  0  0  0  0  0  0  0  0  0
   59.9300   32.2110   48.0250 C   0  0  0  0  0  0  0  0  0  0  0  0
   60.7430   31.5410   47.1020 C   0  0  0  0  0  0  0  0  0  0  0  0
   60.7710   30.1440   47.0730 C   0  0  0  0  0  0  0  0  0  0  0  0
   59.9700   29.4030   47.9490 C   0  0  0  0  0  0  0  0  0  0  0  0
   59.9840   27.9710   47.8650 N   0  0  0  0  0  0  0  0  0  0  0  0
   59.0490   27.1690   47.1300 C   0  0  0  0  0  0  0  0  0  0  0  0
   58.8070   26.0010   47.5360 O   0  0  0  0  0  0  0  0  0  0  0  0
   58.4020   27.6550   45.8870 C   0  0  0  0  0  0  0  0  0  0  0  0
   58.8000   27.1680   44.6290 C   0  0  0  0  0  0  0  0  0  0  0  0
   58.1930   27.6410   43.4620 C   0  0  0  0  0  0  0  0  0  0  0  0
   57.1740   28.5940   43.5380 C   0  0  0  0  0  0  0  0  0  0  0  0
   56.5910   29.0480   42.4020 F   0  0  0  0  0  0  0  0  0  0  0  0
   56.7540   29.0730   44.7840 C   0  0  0  0  0  0  0  0  0  0  0  0
   55.7330   30.0180   44.8500 O   0  0  0  0  0  0  0  0  0  0  0  0
   57.3640   28.6000   45.9550 C   0  0  0  0  0  0  0  0  0  0  0  0
   59.1830   30.0750   48.9000 C   0  0  0  0  0  0  0  0  0  0  0  0
   59.1590   31.4720   48.9320 C   0  0  0  0  0  0  0  0  0  0  0  0
   57.3030   32.7410   46.1600 N   0  0  0  0  0  0  0  0  0  0  0  0
   57.0440   32.0830   45.0680 O   0  0  0  0  0  0  0  0  0  0  0  0
   57.6823   30.8505   42.7391 H   0  0  0  0  0  0  0  0  0  0  0  0
   56.8815   32.3488   42.1556 H   0  0  0  0  0  0  0  0  0  0  0  0
   58.6739   32.2300   42.1556 H   0  0  0  0  0  0  0  0  0  0  0  0
   59.3668   34.0917   43.9554 H   0  0  0  0  0  0  0  0  0  0  0  0
   61.3616   32.1163   46.3975 H   0  0  0  0  0  0  0  0  0  0  0  0
   61.4259   29.6244   46.3581 H   0  0  0  0  0  0  0  0  0  0  0  0
   59.5942   26.4098   44.5630 H   0  0  0  0  0  0  0  0  0  0  0  0
   58.5182   27.2622   42.4818 H   0  0  0  0  0  0  0  0  0  0  0  0
   55.8860   30.9380   45.2500 H   0  0  0  0  0  0  0  0  0  0  0  0
   57.0274   28.9715   46.9341 H   0  0  0  0  0  0  0  0  0  0  0  0
   58.5841   29.4996   49.6213 H   0  0  0  0  0  0  0  0  0  0  0  0
   58.5330   31.9929   49.6714 H   0  0  0  0  0  0  0  0  0  0  0  0
  1  2  1  0
  2  3  2  0
  3  4  1  0
  4  5  2  3
  5  6  1  0
  6  7  2  0
  6  8  2  0
  6  9  1  0
  9 10  2  0
 10 11  1  0
 11 12  2  0
 12 13  1  0
 13 14  1  0
 14 15  2  0
 14 16  1  0
 16 17  2  0
 17 18  1  0
 18 19  2  0
 19 20  1  0
 19 21  1  0
 21 22  1  0
 21 23  2  0
 12 24  1  0
 24 25  2  0
  4 26  1  0
 26 27  1  0
 27  2  1  0
 25  9  1  0
 23 16  1  0
  1 28  1  0
  1 29  1  0
  1 30  1  0
  3 31  1  0
 10 32  1  0
 11 33  1  0
 17 34  1  0
 18 35  1  0
 22 36  1  0
 23 37  1  0
 24 38  1  0
 25 39  1  0
M  CHG  2  13  -1  26  -1
M  END
>  <UniqueID>  (73) 
66

>  <SMILES>  (73) 
Cc1cc(=NS(=O)(=O)c2ccc([N-]C(=O)c3ccc(F)c(O)c3)cc2)[n-]o1

>  <Energy>  (73) 
80.38017411268964

>  <Genealogy>  (73) 
Cc1cc(=NS(=O)(=O)c2ccc([N-]C(=O)c3ccc(F)c(O)c3)cc2)[n-]o1 (protonated)
Cc1cc(=NS(=O)(=O)c2ccc([N-]C(=O)c3ccc(F)c(O)c3)cc2)[n-]o1 (3D coordinates assigned)
Cc1cc(=NS(=O)(=O)c2ccc([N-]C(=O)c3ccc(F)c(O)c3)cc2)[n-]o1 (optimized conformer: 80.38017411268964 kcal/mol)

>  <smiles>  (73) 
Cc1cc(=NS(=O)(=O)c2ccc(NC(=O)c3ccc(F)c(O)c3)cc2)[nH]o1

>  <score_type>  (73) 
oracle

>  <origin>  (73) 
adg

>  <m_score__min__energy>  (73) 
-11.789999999999999

>  <m_primary>  (73) 
energy

$$$$
73:0
     RDKit          3D

 62 65  0  0  0  0  0  0  0  0999 V2000
   56.8210   21.5170   44.4170 C   0  0  0  0  0  0  0  0  0  0  0  0
   57.4020   20.9760   45.7190 C   0  0  0  0  0  0  0  0  0  0  0  0
   57.3240   21.9550   46.7550 O   0  0  0  0  0  0  0  0  0  0  0  0
   57.7380   23.2930   46.6480 C   0  0  0  0  0  0  0  0  0  0  0  0
   58.8090   23.6980   45.8270 C   0  0  0  0  0  0  0  0  0  0  0  0
   59.1810   25.0430   45.7650 C   0  0  0  0  0  0  0  0  0  0  0  0
   58.4920   26.0050   46.5190 C   0  0  0  0  0  0  0  0  0  0  0  0
   58.8810   27.3930   46.4570 N   0  0  0  0  0  0  0  0  0  0  0  0
   59.7150   27.9070   47.4200 C   0  0  0  0  0  0  0  0  0  0  0  0
   60.1500   27.1670   48.3450 O   0  0  0  0  0  0  0  0  0  0  0  0
   60.0730   29.2580   47.3650 C   0  0  0  0  0  0  0  0  0  0  0  0
   60.8910   29.9920   48.2600 C   0  0  0  0  0  0  0  0  0  0  0  0
   61.4760   29.4210   49.5230 C   0  0  0  0  0  0  0  0  0  0  0  0
   61.0460   31.3300   47.8600 C   0  0  0  0  0  0  0  0  0  0  0  0
   61.8800   32.3740   48.4860 C   0  0  0  0  0  0  0  0  0  0  0  0
   61.3300   33.1920   49.2740 O   0  0  0  0  0  0  0  0  0  0  0  0
   63.2560   32.5690   48.0820 N   0  0  0  0  0  0  0  0  0  0  0  0
   63.3050   33.4840   46.9300 C   0  0  0  0  0  0  0  0  0  0  0  0
   64.0620   33.0960   49.1950 C   0  0  0  0  0  0  0  0  0  0  0  0
   60.1440   31.6010   46.4630 S   0  0  0  0  0  0  0  0  0  0  0  0
   59.5830   30.0220   46.3210 C   0  0  0  0  0  0  0  0  0  0  0  0
   58.7730   29.5100   45.3490 N   0  0  0  0  0  0  0  0  0  0  0  0
   58.2600   30.3580   44.2570 C   0  0  0  0  0  0  0  0  0  0  0  0
   56.8830   30.8650   44.5910 C   0  0  0  0  0  0  0  0  0  0  0  0
   55.9020   30.0790   44.5190 O   0  0  0  0  0  0  0  0  0  0  0  0
   56.6470   32.2330   44.9480 N   0  0  0  0  0  0  0  0  0  0  0  0
   57.6530   33.1870   45.3130 C   0  0  0  0  0  0  0  0  0  0  0  0
   57.7440   33.6050   46.6490 C   0  0  0  0  0  0  0  0  0  0  0  0
   56.8660   33.1370   47.5710 F   0  0  0  0  0  0  0  0  0  0  0  0
   58.7260   34.5230   47.0350 C   0  0  0  0  0  0  0  0  0  0  0  0
   59.6370   35.0120   46.0940 C   0  0  0  0  0  0  0  0  0  0  0  0
   59.5730   34.5770   44.7690 C   0  0  0  0  0  0  0  0  0  0  0  0
   58.5920   33.6600   44.3760 C   0  0  0  0  0  0  0  0  0  0  0  0
   58.5920   33.2010   43.0990 F   0  0  0  0  0  0  0  0  0  0  0  0
   58.4120   28.1860   45.4330 C   0  0  0  0  0  0  0  0  0  0  0  0
   57.6480   27.6900   44.5570 O   0  0  0  0  0  0  0  0  0  0  0  0
   57.4270   25.6030   47.3380 C   0  0  0  0  0  0  0  0  0  0  0  0
   57.0550   24.2580   47.4010 C   0  0  0  0  0  0  0  0  0  0  0  0
   56.0333   22.2505   44.6438 H   0  0  0  0  0  0  0  0  0  0  0  0
   57.6174   22.0027   43.8340 H   0  0  0  0  0  0  0  0  0  0  0  0
   56.3933   20.6881   43.8340 H   0  0  0  0  0  0  0  0  0  0  0  0
   56.8356   20.0834   46.0231 H   0  0  0  0  0  0  0  0  0  0  0  0
   58.4593   20.7212   45.5540 H   0  0  0  0  0  0  0  0  0  0  0  0
   59.3550   22.9512   45.2318 H   0  0  0  0  0  0  0  0  0  0  0  0
   60.0188   25.3497   45.1215 H   0  0  0  0  0  0  0  0  0  0  0  0
   60.9955   29.8900   50.3943 H   0  0  0  0  0  0  0  0  0  0  0  0
   61.3028   28.3350   49.5491 H   0  0  0  0  0  0  0  0  0  0  0  0
   62.5574   29.6205   49.5491 H   0  0  0  0  0  0  0  0  0  0  0  0
   63.6740   31.6580   47.7790 H   0  0  0  0  0  0  0  0  0  0  0  0
   63.3606   34.5224   47.2886 H   0  0  0  0  0  0  0  0  0  0  0  0
   64.1924   33.2587   46.3202 H   0  0  0  0  0  0  0  0  0  0  0  0
   62.3986   33.3547   46.3202 H   0  0  0  0  0  0  0  0  0  0  0  0
   63.6064   32.7981   50.1509 H   0  0  0  0  0  0  0  0  0  0  0  0
   65.0825   32.6902   49.1330 H   0  0  0  0  0  0  0  0  0  0  0  0
   64.0995   34.1936   49.1330 H   0  0  0  0  0  0  0  0  0  0  0  0
   58.9366   31.2134   44.1136 H   0  0  0  0  0  0  0  0  0  0  0  0
   58.2069   29.7603   43.3351 H   0  0  0  0  0  0  0  0  0  0  0  0
   58.7816   34.8607   48.0804 H   0  0  0  0  0  0  0  0  0  0  0  0
   60.4042   35.7395   46.3976 H   0  0  0  0  0  0  0  0  0  0  0  0
   60.2959   34.9563   44.0318 H   0  0  0  0  0  0  0  0  0  0  0  0
   56.8820   26.3502   47.9335 H   0  0  0  0  0  0  0  0  0  0  0  0
   56.2186   23.9535   48.0473 H   0  0  0  0  0  0  0  0  0  0  0  0
  1  2  1  0
  2  3  1  0
  3  4  1  0
  4  5  2  0
  5  6  1  0
  6  7  2  0
  7  8  1  0
  8  9  1  0
  9 10  2  0
  9 11  1  0
 11 12  1  0
 12 13  1  0
 12 14  2  0
 14 15  1  0
 15 16  2  0
 15 17  1  0
 17 18  1  0
 17 19  1  0
 14 20  1  0
 20 21  1  0
 21 22  1  0
 22 23  1  0
 23 24  1  0
 24 25  2  0
 24 26  1  0
 26 27  1  0
 27 28  2  0
 28 29  1  0
 28 30  1  0
 30 31  2  0
 31 32  1  0
 32 33  2  0
 33 34  1  0
 22 35  1  0
 35 36  2  0
  7 37  1  0
 37 38  2  0
 38  4  1  0
 35  8  1  0
 21 11  2  0
 33 27  1  0
  1 39  1  0
  1 40  1  0
  1 41  1  0
  2 42  1  0
  2 43  1  0
  5 44  1  0
  6 45  1  0
 13 46  1  0
 13 47  1  0
 13 48  1  0
 17 49  1  0
 18 50  1  0
 18 51  1  0
 18 52  1  0
 19 53  1  0
 19 54  1  0
 19 55  1  0
 23 56  1  0
 23 57  1  0
 30 58  1  0
 31 59  1  0
 32 60  1  0
 37 61  1  0
 38 62  1  0
M  CHG  2  17   1  26  -1
M  END
>  <UniqueID>  (74) 
67

>  <SMILES>  (74) 
CCOc1ccc(-n2c(=O)c3c(C)c(C(=O)[NH+](C)C)sc3n(CC(=O)[N-]c3c(F)cccc3F)c2=O)cc1

>  <Energy>  (74) 
121.96939797906525

>  <Genealogy>  (74) 
CCOc1ccc(-n2c(=O)c3c(C)c(C(=O)[NH+](C)C)sc3n(CC(=O)[N-]c3c(F)cccc3F)c2=O)cc1 (protonated)
CCOc1ccc(-n2c(=O)c3c(C)c(C(=O)[NH+](C)C)sc3n(CC(=O)[N-]c3c(F)cccc3F)c2=O)cc1 (3D coordinates assigned)
CCOc1ccc(-n2c(=O)c3c(C)c(C(=O)[NH+](C)C)sc3n(CC(=O)[N-]c3c(F)cccc3F)c2=O)cc1 (optimized conformer: 121.96939797906525 kcal/mol)

>  <smiles>  (74) 
CCOc1ccc(-n2c(=O)c3c(C)c(C(=O)N(C)C)sc3n(CC(=O)Nc3c(F)cccc3F)c2=O)cc1

>  <score_type>  (74) 
oracle

>  <origin>  (74) 
adg

>  <m_score__min__energy>  (74) 
-8.8699999999999992

>  <m_primary>  (74) 
energy

$$$$
74:0
     RDKit          3D

 33 35  0  0  0  0  0  0  0  0999 V2000
   57.0400   28.7820   43.4450 N   0  0  0  0  0  0  0  0  0  0  0  0
   56.5570   30.4340   43.6160 S   0  0  0  0  0  0  0  0  0  0  0  0
   55.1360   30.4840   44.1020 O   0  0  0  0  0  0  0  0  0  0  0  0
   56.6400   31.1250   42.2840 O   0  0  0  0  0  0  0  0  0  0  0  0
   57.6240   31.2400   44.7610 C   0  0  0  0  0  0  0  0  0  0  0  0
   57.5600   32.6280   44.9520 C   0  0  0  0  0  0  0  0  0  0  0  0
   58.3840   33.2440   45.8970 C   0  0  0  0  0  0  0  0  0  0  0  0
   59.2640   32.4770   46.6670 C   0  0  0  0  0  0  0  0  0  0  0  0
   59.3280   31.0890   46.4890 C   0  0  0  0  0  0  0  0  0  0  0  0
   60.3880   30.1150   47.5050 S   0  0  0  0  0  0  0  0  0  0  0  0
   59.9440   30.1840   48.9400 O   0  0  0  0  0  0  0  0  0  0  0  0
   61.7880   30.6480   47.3940 O   0  0  0  0  0  0  0  0  0  0  0  0
   60.3700   28.4590   46.9880 N   0  0  0  0  0  0  0  0  0  0  0  0
   59.2140   27.6130   46.9730 C   0  0  0  0  0  0  0  0  0  0  0  0
   59.2660   26.3850   47.6780 C   0  0  0  0  0  0  0  0  0  0  0  0
   58.1740   25.4990   47.6630 C   0  0  0  0  0  0  0  0  0  0  0  0
   57.0470   25.8720   46.9380 C   0  0  0  0  0  0  0  0  0  0  0  0
   55.9060   25.1850   46.7830 N   0  0  0  0  0  0  0  0  0  0  0  0
   55.1800   26.0160   45.9940 C   0  0  0  0  0  0  0  0  0  0  0  0
   54.0170   25.7330   45.6080 O   0  0  0  0  0  0  0  0  0  0  0  0
   55.7980   27.1760   45.6500 N   0  0  0  0  0  0  0  0  0  0  0  0
   56.9820   27.0540   46.2650 C   0  0  0  0  0  0  0  0  0  0  0  0
   58.0400   27.9600   46.2590 C   0  0  0  0  0  0  0  0  0  0  0  0
   58.5180   30.4780   45.5220 C   0  0  0  0  0  0  0  0  0  0  0  0
   56.6490   28.4420   42.5370 H   0  0  0  0  0  0  0  0  0  0  0  0
   56.5600   28.2410   44.1990 H   0  0  0  0  0  0  0  0  0  0  0  0
   56.8598   33.2325   44.3567 H   0  0  0  0  0  0  0  0  0  0  0  0
   58.3406   34.3344   46.0357 H   0  0  0  0  0  0  0  0  0  0  0  0
   59.9074   32.9647   47.4141 H   0  0  0  0  0  0  0  0  0  0  0  0
   60.1716   26.1215   48.2440 H   0  0  0  0  0  0  0  0  0  0  0  0
   58.2099   24.5432   48.2063 H   0  0  0  0  0  0  0  0  0  0  0  0
   57.9666   28.9145   45.7173 H   0  0  0  0  0  0  0  0  0  0  0  0
   58.5854   29.3921   45.3600 H   0  0  0  0  0  0  0  0  0  0  0  0
  1  2  1  0
  2  3  2  0
  2  4  2  0
  2  5  1  0
  5  6  2  0
  6  7  1  0
  7  8  2  0
  8  9  1  0
  9 10  1  0
 10 11  2  0
 10 12  2  0
 10 13  1  0
 13 14  1  0
 14 15  2  0
 15 16  1  0
 16 17  2  0
 17 18  1  0
 18 19  1  0
 19 20  2  0
 19 21  1  0
 21 22  1  0
 22 23  2  0
  9 24  2  0
 24  5  1  0
 23 14  1  0
 22 17  1  0
  1 25  1  0
  1 26  1  0
  6 27  1  0
  7 28  1  0
  8 29  1  0
 15 30  1  0
 16 31  1  0
 23 32  1  0
 24 33  1  0
M  CHG  3  13  -1  18  -1  21  -1
M  END
>  <UniqueID>  (75) 
68

>  <SMILES>  (75) 
NS(=O)(=O)c1cccc(S(=O)(=O)[N-]c2ccc3[n-]c(=O)[n-]c3c2)c1

>  <Energy>  (75) 
71.6326353152087

>  <Genealogy>  (75) 
NS(=O)(=O)c1cccc(S(=O)(=O)[N-]c2ccc3[n-]c(=O)[n-]c3c2)c1 (protonated)
NS(=O)(=O)c1cccc(S(=O)(=O)[N-]c2ccc3[n-]c(=O)[n-]c3c2)c1 (3D coordinates assigned)
NS(=O)(=O)c1cccc(S(=O)(=O)[N-]c2ccc3[n-]c(=O)[n-]c3c2)c1 (optimized conformer: 71.6326353152087 kcal/mol)

>  <smiles>  (75) 
NS(=O)(=O)c1cccc(S(=O)(=O)Nc2ccc3[nH]c(=O)[nH]c3c2)c1

>  <score_type>  (75) 
oracle

>  <origin>  (75) 
adg

>  <m_score__min__energy>  (75) 
-13.27

>  <m_primary>  (75) 
energy

$$$$
75:0
     RDKit          3D

 42 44  0  0  0  0  0  0  0  0999 V2000
   60.7210   26.7930   46.4580 C   0  0  0  0  0  0  0  0  0  0  0  0
   59.7210   27.6650   45.7600 C   0  0  0  0  0  0  0  0  0  0  0  0
   60.1280   28.8550   45.1370 C   0  0  0  0  0  0  0  0  0  0  0  0
   59.1900   29.6780   44.5070 C   0  0  0  0  0  0  0  0  0  0  0  0
   57.8330   29.3270   44.5050 C   0  0  0  0  0  0  0  0  0  0  0  0
   56.6430   30.3090   43.6540 S   0  0  0  0  0  0  0  0  0  0  0  0
   55.3920   30.4720   44.4700 O   0  0  0  0  0  0  0  0  0  0  0  0
   56.3050   29.6400   42.3530 O   0  0  0  0  0  0  0  0  0  0  0  0
   57.3330   31.8670   43.3410 N   0  0  0  0  0  0  0  0  0  0  0  0
   57.8020   32.7300   44.3810 C   0  0  0  0  0  0  0  0  0  0  0  0
   57.2300   32.7080   45.6650 C   0  0  0  0  0  0  0  0  0  0  0  0
   57.7770   33.4820   46.6920 C   0  0  0  0  0  0  0  0  0  0  0  0
   58.9170   34.2560   46.4580 C   0  0  0  0  0  0  0  0  0  0  0  0
   59.5250   34.9590   47.5490 N   0  0  0  0  0  0  0  0  0  0  0  0
   60.3720   34.3470   48.5310 C   0  0  0  0  0  0  0  0  0  0  0  0
   60.1380   34.5600   49.7500 O   0  0  0  0  0  0  0  0  0  0  0  0
   61.4550   33.4150   48.1420 C   0  0  0  0  0  0  0  0  0  0  0  0
   63.0690   33.8540   47.9220 S   0  0  0  0  0  0  0  0  0  0  0  0
   63.6260   32.3460   47.4410 C   0  0  0  0  0  0  0  0  0  0  0  0
   62.5510   31.4710   47.4350 C   0  0  0  0  0  0  0  0  0  0  0  0
   61.3350   32.0580   47.8260 C   0  0  0  0  0  0  0  0  0  0  0  0
   60.0490   31.2900   47.8710 C   0  0  0  0  0  0  0  0  0  0  0  0
   59.4560   34.3210   45.1640 C   0  0  0  0  0  0  0  0  0  0  0  0
   58.8920   33.5690   44.1290 C   0  0  0  0  0  0  0  0  0  0  0  0
   57.4230   28.1520   45.1490 C   0  0  0  0  0  0  0  0  0  0  0  0
   58.3590   27.3270   45.7760 C   0  0  0  0  0  0  0  0  0  0  0  0
   60.6016   26.8971   47.5465 H   0  0  0  0  0  0  0  0  0  0  0  0
   60.5573   25.7441   46.1698 H   0  0  0  0  0  0  0  0  0  0  0  0
   61.7378   27.0980   46.1698 H   0  0  0  0  0  0  0  0  0  0  0  0
   61.1900   29.1414   45.1445 H   0  0  0  0  0  0  0  0  0  0  0  0
   59.5178   30.6037   44.0114 H   0  0  0  0  0  0  0  0  0  0  0  0
   56.3490   32.0795   45.8620 H   0  0  0  0  0  0  0  0  0  0  0  0
   57.3090   33.4821   47.6875 H   0  0  0  0  0  0  0  0  0  0  0  0
   64.6639   32.0954   47.1764 H   0  0  0  0  0  0  0  0  0  0  0  0
   62.6413   30.4124   47.1499 H   0  0  0  0  0  0  0  0  0  0  0  0
   59.7611   31.1181   48.9186 H   0  0  0  0  0  0  0  0  0  0  0  0
   59.2605   31.8652   47.3637 H   0  0  0  0  0  0  0  0  0  0  0  0
   60.1815   30.3230   47.3637 H   0  0  0  0  0  0  0  0  0  0  0  0
   60.3246   34.9654   44.9634 H   0  0  0  0  0  0  0  0  0  0  0  0
   59.3072   33.6376   43.1127 H   0  0  0  0  0  0  0  0  0  0  0  0
   56.3578   27.8779   45.1607 H   0  0  0  0  0  0  0  0  0  0  0  0
   58.0278   26.4093   46.2841 H   0  0  0  0  0  0  0  0  0  0  0  0
  1  2  1  0
  2  3  2  0
  3  4  1  0
  4  5  2  0
  5  6  1  0
  6  7  2  0
  6  8  2  0
  6  9  1  0
  9 10  1  0
 10 11  2  0
 11 12  1  0
 12 13  2  0
 13 14  1  0
 14 15  1  0
 15 16  2  0
 15 17  1  0
 17 18  1  0
 18 19  1  0
 19 20  2  0
 20 21  1  0
 21 22  1  0
 13 23  1  0
 23 24  2  0
  5 25  1  0
 25 26  2  0
 26  2  1  0
 24 10  1  0
 21 17  2  0
  1 27  1  0
  1 28  1  0
  1 29  1  0
  3 30  1  0
  4 31  1  0
 11 32  1  0
 12 33  1  0
 19 34  1  0
 20 35  1  0
 22 36  1  0
 22 37  1  0
 22 38  1  0
 23 39  1  0
 24 40  1  0
 25 41  1  0
 26 42  1  0
M  CHG  2   9  -1  14  -1
M  END
>  <UniqueID>  (76) 
69

>  <SMILES>  (76) 
Cc1ccc(S(=O)(=O)[N-]c2ccc([N-]C(=O)c3sccc3C)cc2)cc1

>  <Energy>  (76) 
78.76005540068172

>  <Genealogy>  (76) 
Cc1ccc(S(=O)(=O)[N-]c2ccc([N-]C(=O)c3sccc3C)cc2)cc1 (protonated)
Cc1ccc(S(=O)(=O)[N-]c2ccc([N-]C(=O)c3sccc3C)cc2)cc1 (3D coordinates assigned)
Cc1ccc(S(=O)(=O)[N-]c2ccc([N-]C(=O)c3sccc3C)cc2)cc1 (optimized conformer: 78.76005540068172 kcal/mol)

>  <smiles>  (76) 
Cc1ccc(S(=O)(=O)Nc2ccc(NC(=O)c3sccc3C)cc2)cc1

>  <score_type>  (76) 
oracle

>  <origin>  (76) 
adg

>  <m_score__min__energy>  (76) 
-11.609999999999999

>  <m_primary>  (76) 
energy

$$$$
76:0
     RDKit          3D

 37 39  0  0  0  0  0  0  0  0999 V2000
   55.8340   20.0980   43.9730 N   0  0  0  0  0  0  0  0  0  0  0  0
   56.6560   21.4560   43.2930 S   0  0  0  0  0  0  0  0  0  0  0  0
   57.9400   21.0010   42.6580 O   0  0  0  0  0  0  0  0  0  0  0  0
   55.7920   22.0850   42.2350 O   0  0  0  0  0  0  0  0  0  0  0  0
   57.0020   22.6300   44.5580 C   0  0  0  0  0  0  0  0  0  0  0  0
   57.2100   23.9780   44.2340 C   0  0  0  0  0  0  0  0  0  0  0  0
   57.4800   24.9100   45.2410 C   0  0  0  0  0  0  0  0  0  0  0  0
   57.5630   24.5010   46.5780 C   0  0  0  0  0  0  0  0  0  0  0  0
   57.8330   25.4810   47.5940 N   0  0  0  0  0  0  0  0  0  0  0  0
   58.8250   26.2880   47.6070 N   0  0  0  0  0  0  0  0  0  0  0  0
   58.8030   27.6530   47.1530 C   0  0  0  0  0  0  0  0  0  0  0  0
   57.8190   28.1000   46.2630 C   0  0  0  0  0  0  0  0  0  0  0  0
   57.7910   29.4270   45.8170 C   0  0  0  0  0  0  0  0  0  0  0  0
   56.5460   29.8870   44.6430 S   0  0  0  0  0  0  0  0  0  0  0  0
   57.0490   29.6380   43.2480 O   0  0  0  0  0  0  0  0  0  0  0  0
   56.2060   31.3410   44.8080 O   0  0  0  0  0  0  0  0  0  0  0  0
   55.1510   28.9790   44.8750 O   0  0  0  0  0  0  0  0  0  0  0  0
   58.7510   30.3480   46.3110 C   0  0  0  0  0  0  0  0  0  0  0  0
   58.7700   31.7010   45.9050 C   0  0  0  0  0  0  0  0  0  0  0  0
   59.7210   32.5840   46.4170 C   0  0  0  0  0  0  0  0  0  0  0  0
   60.6670   32.1440   47.3390 C   0  0  0  0  0  0  0  0  0  0  0  0
   60.6710   30.8140   47.7560 C   0  0  0  0  0  0  0  0  0  0  0  0
   59.7230   29.9040   47.2520 C   0  0  0  0  0  0  0  0  0  0  0  0
   59.7340   28.5590   47.6690 C   0  0  0  0  0  0  0  0  0  0  0  0
   60.6770   28.1120   48.5910 O   0  0  0  0  0  0  0  0  0  0  0  0
   57.3070   23.1590   46.9060 C   0  0  0  0  0  0  0  0  0  0  0  0
   57.0390   22.2270   45.8990 C   0  0  0  0  0  0  0  0  0  0  0  0
   56.2660   19.2410   43.5600 H   0  0  0  0  0  0  0  0  0  0  0  0
   57.1607   24.3036   43.1844 H   0  0  0  0  0  0  0  0  0  0  0  0
   57.6278   25.9688   44.9820 H   0  0  0  0  0  0  0  0  0  0  0  0
   57.0531   27.3951   45.9073 H   0  0  0  0  0  0  0  0  0  0  0  0
   58.0276   32.0618   45.1779 H   0  0  0  0  0  0  0  0  0  0  0  0
   59.7235   33.6344   46.0903 H   0  0  0  0  0  0  0  0  0  0  0  0
   61.4124   32.8471   47.7390 H   0  0  0  0  0  0  0  0  0  0  0  0
   61.4210   30.4729   48.4848 H   0  0  0  0  0  0  0  0  0  0  0  0
   57.3175   22.8405   47.9588 H   0  0  0  0  0  0  0  0  0  0  0  0
   56.8567   21.1742   46.1605 H   0  0  0  0  0  0  0  0  0  0  0  0
  1  2  1  0
  2  3  2  0
  2  4  2  0
  2  5  1  0
  5  6  2  0
  6  7  1  0
  7  8  2  0
  8  9  1  0
  9 10  2  3
 10 11  1  0
 11 12  2  0
 12 13  1  0
 13 14  1  0
 14 15  2  0
 14 16  2  0
 14 17  1  0
 13 18  2  0
 18 19  1  0
 19 20  2  0
 20 21  1  0
 21 22  2  0
 22 23  1  0
 23 24  2  0
 24 25  1  0
  8 26  1  0
 26 27  2  0
 27  5  1  0
 24 11  1  0
 23 18  1  0
  1 28  1  0
  6 29  1  0
  7 30  1  0
 12 31  1  0
 19 32  1  0
 20 33  1  0
 21 34  1  0
 22 35  1  0
 26 36  1  0
 27 37  1  0
M  CHG  3   1  -1  17  -1  25  -1
M  END
>  <UniqueID>  (77) 
70

>  <SMILES>  (77) 
[NH-]S(=O)(=O)c1ccc(N=Nc2cc(S(=O)(=O)[O-])c3ccccc3c2[O-])cc1

>  <Energy>  (77) 
60.23143969861207

>  <Genealogy>  (77) 
[NH-]S(=O)(=O)c1ccc(N=Nc2cc(S(=O)(=O)[O-])c3ccccc3c2[O-])cc1 (protonated)
[NH-]S(=O)(=O)c1ccc(N=Nc2cc(S(=O)(=O)[O-])c3ccccc3c2[O-])cc1 (3D coordinates assigned)
[NH-]S(=O)(=O)c1ccc(N=Nc2cc(S(=O)(=O)[O-])c3ccccc3c2[O-])cc1 (optimized conformer: 60.23143969861207 kcal/mol)

>  <smiles>  (77) 
NS(=O)(=O)c1ccc(N=Nc2cc(S(=O)(=O)O)c3ccccc3c2O)cc1

>  <score_type>  (77) 
oracle

>  <origin>  (77) 
adg

>  <m_score__min__energy>  (77) 
-15.029999999999999

>  <m_primary>  (77) 
energy

$$$$
77:0
     RDKit          3D

 58 60  0  0  0  0  0  0  0  0999 V2000
   54.9720   24.6600   45.8320 C   0  0  0  0  0  0  0  0  0  0  0  0
   56.0480   25.7000   45.7890 C   0  0  0  0  0  0  0  0  0  0  0  0
   57.3930   25.3380   45.9320 C   0  0  0  0  0  0  0  0  0  0  0  0
   58.3760   26.3280   45.8990 C   0  0  0  0  0  0  0  0  0  0  0  0
   58.0140   27.6720   45.7460 C   0  0  0  0  0  0  0  0  0  0  0  0
   59.0590   28.7130   45.7280 C   0  0  0  0  0  0  0  0  0  0  0  0
   59.6040   29.0190   44.6370 O   0  0  0  0  0  0  0  0  0  0  0  0
   59.5000   29.3550   46.9330 N   0  0  0  0  0  0  0  0  0  0  0  0
   58.6090   29.6820   48.0390 C   0  0  0  0  0  0  0  0  0  0  0  0
   58.8940   31.0990   48.5510 C   0  0  0  0  0  0  0  0  0  0  0  0
   59.2610   32.0010   47.4510 N   0  0  0  0  0  0  0  0  0  0  0  0
   58.3110   32.3630   46.4300 C   0  0  0  0  0  0  0  0  0  0  0  0
   57.8220   33.5240   46.4140 O   0  0  0  0  0  0  0  0  0  0  0  0
   57.9290   31.4150   45.4220 N   0  0  0  0  0  0  0  0  0  0  0  0
   57.2780   31.8270   44.1750 C   0  0  0  0  0  0  0  0  0  0  0  0
   58.1680   32.7570   43.3470 C   0  0  0  0  0  0  0  0  0  0  0  0
   57.9340   32.3920   41.8820 C   0  0  0  0  0  0  0  0  0  0  0  0
   56.9710   31.2130   41.8650 C   0  0  0  0  0  0  0  0  0  0  0  0
   57.0000   30.6360   43.2660 C   0  0  0  0  0  0  0  0  0  0  0  0
   60.8160   32.7900   47.4990 S   0  0  0  0  0  0  0  0  0  0  0  0
   60.9850   33.6730   46.2960 O   0  0  0  0  0  0  0  0  0  0  0  0
   60.8870   33.6490   48.7300 O   0  0  0  0  0  0  0  0  0  0  0  0
   62.1630   31.6110   47.5310 C   0  0  0  0  0  0  0  0  0  0  0  0
   63.0970   31.8870   48.6350 N   0  0  0  0  0  0  0  0  0  0  0  0
   62.9810   31.1710   49.7980 C   0  0  0  0  0  0  0  0  0  0  0  0
   63.8340   31.4180   50.8750 C   0  0  0  0  0  0  0  0  0  0  0  0
   64.8130   32.4000   50.7600 C   0  0  0  0  0  0  0  0  0  0  0  0
   64.9300   33.1280   49.5760 C   0  0  0  0  0  0  0  0  0  0  0  0
   64.0530   32.8670   48.5180 C   0  0  0  0  0  0  0  0  0  0  0  0
   64.1490   33.5500   47.4620 O   0  0  0  0  0  0  0  0  0  0  0  0
   56.6520   27.9940   45.6140 C   0  0  0  0  0  0  0  0  0  0  0  0
   56.2880   29.1880   45.4510 O   0  0  0  0  0  0  0  0  0  0  0  0
   55.7140   27.0100   45.6440 N   0  0  0  0  0  0  0  0  0  0  0  0
   54.7299   24.4260   46.8792 H   0  0  0  0  0  0  0  0  0  0  0  0
   54.0736   25.0407   45.3242 H   0  0  0  0  0  0  0  0  0  0  0  0
   55.3219   23.7491   45.3242 H   0  0  0  0  0  0  0  0  0  0  0  0
   57.6723   24.2829   46.0691 H   0  0  0  0  0  0  0  0  0  0  0  0
   59.4367   26.0522   45.9933 H   0  0  0  0  0  0  0  0  0  0  0  0
   57.5661   29.6237   47.6942 H   0  0  0  0  0  0  0  0  0  0  0  0
   58.7761   28.9657   48.8569 H   0  0  0  0  0  0  0  0  0  0  0  0
   57.9932   31.4882   49.0480 H   0  0  0  0  0  0  0  0  0  0  0  0
   59.7373   31.0502   49.2556 H   0  0  0  0  0  0  0  0  0  0  0  0
   58.1050   30.4050   45.5990 H   0  0  0  0  0  0  0  0  0  0  0  0
   56.3506   32.3275   44.4904 H   0  0  0  0  0  0  0  0  0  0  0  0
   57.8911   33.8064   43.5259 H   0  0  0  0  0  0  0  0  0  0  0  0
   59.2270   32.6416   43.6211 H   0  0  0  0  0  0  0  0  0  0  0  0
   57.4950   33.2460   41.3454 H   0  0  0  0  0  0  0  0  0  0  0  0
   58.8810   32.1324   41.3862 H   0  0  0  0  0  0  0  0  0  0  0  0
   55.9556   31.5514   41.6111 H   0  0  0  0  0  0  0  0  0  0  0  0
   57.2606   30.4645   41.1128 H   0  0  0  0  0  0  0  0  0  0  0  0
   56.0322   30.1764   43.5154 H   0  0  0  0  0  0  0  0  0  0  0  0
   57.7591   29.8472   43.3733 H   0  0  0  0  0  0  0  0  0  0  0  0
   61.7495   30.5995   47.6573 H   0  0  0  0  0  0  0  0  0  0  0  0
   62.7156   31.6933   46.5834 H   0  0  0  0  0  0  0  0  0  0  0  0
   62.2076   30.3935   49.8836 H   0  0  0  0  0  0  0  0  0  0  0  0
   63.7331   30.8414   51.8063 H   0  0  0  0  0  0  0  0  0  0  0  0
   65.4930   32.6017   51.6008 H   0  0  0  0  0  0  0  0  0  0  0  0
   65.7058   33.9013   49.4751 H   0  0  0  0  0  0  0  0  0  0  0  0
  1  2  1  0
  2  3  2  0
  3  4  1  0
  4  5  2  0
  5  6  1  0
  6  7  2  0
  6  8  1  0
  8  9  1  0
  9 10  1  0
 10 11  1  0
 11 12  1  0
 12 13  2  0
 12 14  1  0
 14 15  1  0
 15 16  1  0
 16 17  1  0
 17 18  1  0
 18 19  1  0
 11 20  1  0
 20 21  2  0
 20 22  2  0
 20 23  1  0
 23 24  1  0
 24 25  1  0
 25 26  2  0
 26 27  1  0
 27 28  2  0
 28 29  1  0
 29 30  2  0
  5 31  1  0
 31 32  2  0
 31 33  1  0
 33  2  1  0
 19 15  1  0
 29 24  1  0
  1 34  1  0
  1 35  1  0
  1 36  1  0
  3 37  1  0
  4 38  1  0
  9 39  1  0
  9 40  1  0
 10 41  1  0
 10 42  1  0
 14 43  1  0
 15 44  1  0
 16 45  1  0
 16 46  1  0
 17 47  1  0
 17 48  1  0
 18 49  1  0
 18 50  1  0
 19 51  1  0
 19 52  1  0
 23 53  1  0
 23 54  1  0
 25 55  1  0
 26 56  1  0
 27 57  1  0
 28 58  1  0
M  CHG  2   8  -1  33  -1
M  END
>  <UniqueID>  (78) 
71

>  <SMILES>  (78) 
Cc1ccc(C(=O)[N-]CCN(C(=O)NC2CCCC2)S(=O)(=O)Cn2ccccc2=O)c(=O)[n-]1

>  <Energy>  (78) 
57.52322381266397

>  <Genealogy>  (78) 
Cc1ccc(C(=O)[N-]CCN(C(=O)NC2CCCC2)S(=O)(=O)Cn2ccccc2=O)c(=O)[n-]1 (protonated)
Cc1ccc(C(=O)[N-]CCN(C(=O)NC2CCCC2)S(=O)(=O)Cn2ccccc2=O)c(=O)[n-]1 (3D coordinates assigned)
Cc1ccc(C(=O)[N-]CCN(C(=O)NC2CCCC2)S(=O)(=O)Cn2ccccc2=O)c(=O)[n-]1 (nonaromatic ring conformer: 57.52322381266397 kcal/mol)

>  <smiles>  (78) 
Cc1ccc(C(=O)NCCN(C(=O)NC2CCCC2)S(=O)(=O)Cn2ccccc2=O)c(=O)[nH]1

>  <score_type>  (78) 
oracle

>  <origin>  (78) 
adg

>  <m_score__min__energy>  (78) 
-11.619999999999999

>  <m_primary>  (78) 
energy

$$$$
78:0
     RDKit          3D

 53 56  0  0  0  0  0  0  0  0999 V2000
   58.8190   21.8960   44.8940 C   0  0  0  0  0  0  0  0  0  0  0  0
   58.0870   21.0660   45.9430 C   0  0  0  0  0  0  0  0  0  0  0  0
   57.3860   21.9100   46.8580 O   0  0  0  0  0  0  0  0  0  0  0  0
   56.9660   23.2260   46.6020 C   0  0  0  0  0  0  0  0  0  0  0  0
   57.4730   24.3390   47.2990 C   0  0  0  0  0  0  0  0  0  0  0  0
   57.0070   25.6250   47.0100 C   0  0  0  0  0  0  0  0  0  0  0  0
   56.0140   25.8170   46.0340 C   0  0  0  0  0  0  0  0  0  0  0  0
   55.5210   27.1230   45.6970 N   0  0  0  0  0  0  0  0  0  0  0  0
   56.3050   28.2360   45.2550 C   0  0  0  0  0  0  0  0  0  0  0  0
   55.7180   29.2890   44.8910 O   0  0  0  0  0  0  0  0  0  0  0  0
   57.7370   28.1590   45.2380 N   0  0  0  0  0  0  0  0  0  0  0  0
   58.6190   28.3370   46.3560 C   0  0  0  0  0  0  0  0  0  0  0  0
   59.6310   27.4120   46.6620 C   0  0  0  0  0  0  0  0  0  0  0  0
   60.4920   27.6430   47.7370 C   0  0  0  0  0  0  0  0  0  0  0  0
   60.3590   28.7990   48.5100 C   0  0  0  0  0  0  0  0  0  0  0  0
   59.3570   29.7380   48.2110 C   0  0  0  0  0  0  0  0  0  0  0  0
   59.2110   30.9950   49.0320 C   0  0  0  0  0  0  0  0  0  0  0  0
   59.5200   32.2190   48.2080 C   0  0  0  0  0  0  0  0  0  0  0  0
   58.5020   33.0800   47.9370 N   0  0  0  0  0  0  0  0  0  0  0  0
   58.6860   34.1920   47.2250 N   0  0  0  0  0  0  0  0  0  0  0  0
   59.9050   34.5310   46.7380 C   0  0  0  0  0  0  0  0  0  0  0  0
   60.0280   35.5850   46.0590 O   0  0  0  0  0  0  0  0  0  0  0  0
   61.0090   33.7060   46.9950 C   0  0  0  0  0  0  0  0  0  0  0  0
   60.8140   32.5190   47.7310 C   0  0  0  0  0  0  0  0  0  0  0  0
   61.9400   31.6610   47.9990 N   0  0  0  0  0  0  0  0  0  0  0  0
   63.2080   31.8460   47.3000 C   0  0  0  0  0  0  0  0  0  0  0  0
   63.5110   33.3370   47.1700 C   0  0  0  0  0  0  0  0  0  0  0  0
   62.3740   34.0480   46.4280 C   0  0  0  0  0  0  0  0  0  0  0  0
   58.5040   29.5070   47.1180 C   0  0  0  0  0  0  0  0  0  0  0  0
   55.5330   24.7130   45.3220 C   0  0  0  0  0  0  0  0  0  0  0  0
   55.9990   23.4270   45.6110 C   0  0  0  0  0  0  0  0  0  0  0  0
   59.4669   22.6307   45.3944 H   0  0  0  0  0  0  0  0  0  0  0  0
   59.4327   21.2340   44.2654 H   0  0  0  0  0  0  0  0  0  0  0  0
   58.0855   22.4221   44.2654 H   0  0  0  0  0  0  0  0  0  0  0  0
   57.3677   20.4026   45.4406 H   0  0  0  0  0  0  0  0  0  0  0  0
   58.8259   20.4745   46.5036 H   0  0  0  0  0  0  0  0  0  0  0  0
   58.2396   24.1962   48.0748 H   0  0  0  0  0  0  0  0  0  0  0  0
   57.4194   26.4907   47.5490 H   0  0  0  0  0  0  0  0  0  0  0  0
   59.7456   26.5031   46.0531 H   0  0  0  0  0  0  0  0  0  0  0  0
   61.2781   26.9117   47.9761 H   0  0  0  0  0  0  0  0  0  0  0  0
   61.0406   28.9748   49.3553 H   0  0  0  0  0  0  0  0  0  0  0  0
   58.1781   31.0634   49.4040 H   0  0  0  0  0  0  0  0  0  0  0  0
   59.9212   30.9495   49.8708 H   0  0  0  0  0  0  0  0  0  0  0  0
   61.9020   30.9420   48.7520 H   0  0  0  0  0  0  0  0  0  0  0  0
   64.0134   31.3573   47.8680 H   0  0  0  0  0  0  0  0  0  0  0  0
   63.1398   31.3992   46.2971 H   0  0  0  0  0  0  0  0  0  0  0  0
   63.6187   33.7743   48.1736 H   0  0  0  0  0  0  0  0  0  0  0  0
   64.4440   33.4643   46.6014 H   0  0  0  0  0  0  0  0  0  0  0  0
   62.5266   35.1346   46.5061 H   0  0  0  0  0  0  0  0  0  0  0  0
   62.3956   33.7116   45.3809 H   0  0  0  0  0  0  0  0  0  0  0  0
   57.7382   30.2526   46.8582 H   0  0  0  0  0  0  0  0  0  0  0  0
   54.7835   24.8577   44.5299 H   0  0  0  0  0  0  0  0  0  0  0  0
   55.6018   22.5654   45.0543 H   0  0  0  0  0  0  0  0  0  0  0  0
  1  2  1  0
  2  3  1  0
  3  4  1  0
  4  5  2  0
  5  6  1  0
  6  7  2  0
  7  8  1  0
  8  9  1  0
  9 10  2  0
  9 11  1  0
 11 12  1  0
 12 13  2  0
 13 14  1  0
 14 15  2  0
 15 16  1  0
 16 17  1  0
 17 18  1  0
 18 19  2  0
 19 20  1  0
 20 21  1  0
 21 22  2  0
 21 23  1  0
 23 24  2  0
 24 25  1  0
 25 26  1  0
 26 27  1  0
 27 28  1  0
 16 29  2  0
  7 30  1  0
 30 31  2  0
 31  4  1  0
 29 12  1  0
 24 18  1  0
 28 23  1  0
  1 32  1  0
  1 33  1  0
  1 34  1  0
  2 35  1  0
  2 36  1  0
  5 37  1  0
  6 38  1  0
 13 39  1  0
 14 40  1  0
 15 41  1  0
 17 42  1  0
 17 43  1  0
 25 44  1  0
 26 45  1  0
 26 46  1  0
 27 47  1  0
 27 48  1  0
 28 49  1  0
 28 50  1  0
 29 51  1  0
 30 52  1  0
 31 53  1  0
M  CHG  3   8  -1  11  -1  20  -1
M  END
>  <UniqueID>  (79) 
72

>  <SMILES>  (79) 
CCOc1ccc([N-]C(=O)[N-]c2cccc(Cc3n[n-]c(=O)c4c3NCCC4)c2)cc1

>  <Energy>  (79) 
62.86776481026171

>  <Genealogy>  (79) 
CCOc1ccc([N-]C(=O)[N-]c2cccc(Cc3n[n-]c(=O)c4c3NCCC4)c2)cc1 (protonated)
CCOc1ccc([N-]C(=O)[N-]c2cccc(Cc3n[n-]c(=O)c4c3NCCC4)c2)cc1 (3D coordinates assigned)
CCOc1ccc([N-]C(=O)[N-]c2cccc(Cc3n[n-]c(=O)c4c3NCCC4)c2)cc1 (nonaromatic ring conformer: 62.86776481026171 kcal/mol)

>  <smiles>  (79) 
CCOc1ccc(NC(=O)Nc2cccc(Cc3n[nH]c(=O)c4c3NCCC4)c2)cc1

>  <score_type>  (79) 
oracle

>  <origin>  (79) 
adg

>  <m_score__min__energy>  (79) 
-14.57

>  <m_primary>  (79) 
energy

$$$$
79:0
     RDKit          3D

 63 66  0  0  0  0  0  0  0  0999 V2000
   59.9435   30.0079   49.4545 H   0  0  0  0  0  0  0  0  0  0  0  0
   59.6290   29.2780   48.6940 C   0  0  0  0  0  0  0  0  0  0  0  0
   58.6980   29.6510   47.7200 C   0  0  0  0  0  0  0  0  0  0  0  0
   58.2844   30.6703   47.7231 H   0  0  0  0  0  0  0  0  0  0  0  0
   58.2860   28.7350   46.7370 C   0  0  0  0  0  0  0  0  0  0  0  0
   57.2970   29.1230   45.7020 C   0  0  0  0  0  0  0  0  0  0  0  0
   56.6910   28.2190   45.0650 O   0  0  0  0  0  0  0  0  0  0  0  0
   57.0320   30.5160   45.4390 N   0  0  0  0  0  0  0  0  0  0  0  0
   57.2800   31.2060   44.3580 C   0  0  0  0  0  0  0  0  0  0  0  0
   57.3590   30.7070   43.0610 C   0  0  0  0  0  0  0  0  0  0  0  0
   57.1823   29.6744   42.7256 H   0  0  0  0  0  0  0  0  0  0  0  0
   57.7070   31.7920   42.2930 C   0  0  0  0  0  0  0  0  0  0  0  0
   57.8608   31.7806   41.2039 H   0  0  0  0  0  0  0  0  0  0  0  0
   57.8290   32.8680   43.0860 N   0  0  0  0  0  0  0  0  0  0  0  0
   58.1320   33.8150   42.7630 H   0  0  0  0  0  0  0  0  0  0  0  0
   57.5450   32.5440   44.3430 N   0  0  0  0  0  0  0  0  0  0  0  0
   57.6750   33.5400   45.4420 C   0  0  0  0  0  0  0  0  0  0  0  0
   56.7694   34.1605   45.3724 H   0  0  0  0  0  0  0  0  0  0  0  0
   57.7390   32.8150   46.8200 C   0  0  0  0  0  0  0  0  0  0  0  0
   56.8103   33.0351   47.3669 H   0  0  0  0  0  0  0  0  0  0  0  0
   57.8689   31.7444   46.6031 H   0  0  0  0  0  0  0  0  0  0  0  0
   58.9290   33.2280   47.7080 C   0  0  0  0  0  0  0  0  0  0  0  0
   58.7335   34.2320   48.1128 H   0  0  0  0  0  0  0  0  0  0  0  0
   59.0226   32.4769   48.5062 H   0  0  0  0  0  0  0  0  0  0  0  0
   60.2130   33.2570   46.9710 N   0  0  0  0  0  0  0  0  0  0  0  0
   61.0460   32.0360   47.0850 C   0  0  0  0  0  0  0  0  0  0  0  0
   60.4361   31.2403   47.5376 H   0  0  0  0  0  0  0  0  0  0  0  0
   61.3825   31.7799   46.0695 H   0  0  0  0  0  0  0  0  0  0  0  0
   62.2900   32.2250   47.9300 C   0  0  0  0  0  0  0  0  0  0  0  0
   63.2230   33.2190   47.6000 C   0  0  0  0  0  0  0  0  0  0  0  0
   63.0821   33.8188   46.6888 H   0  0  0  0  0  0  0  0  0  0  0  0
   64.3290   33.4530   48.4190 C   0  0  0  0  0  0  0  0  0  0  0  0
   65.0420   34.2496   48.1603 H   0  0  0  0  0  0  0  0  0  0  0  0
   64.5370   32.6770   49.5720 C   0  0  0  0  0  0  0  0  0  0  0  0
   65.6200   32.9030   50.4370 O   0  0  0  0  0  0  0  0  0  0  0  0
   66.7670   32.0650   50.5280 C   0  0  0  0  0  0  0  0  0  0  0  0
   67.0089   31.8882   51.5864 H   0  0  0  0  0  0  0  0  0  0  0  0
   66.5594   31.1044   50.0340 H   0  0  0  0  0  0  0  0  0  0  0  0
   67.6191   32.5548   50.0340 H   0  0  0  0  0  0  0  0  0  0  0  0
   63.6460   31.6360   49.8760 C   0  0  0  0  0  0  0  0  0  0  0  0
   63.9050   30.8500   51.0100 O   0  0  0  0  0  0  0  0  0  0  0  0
   63.6400   31.2580   52.3500 C   0  0  0  0  0  0  0  0  0  0  0  0
   64.1028   30.5454   53.0486 H   0  0  0  0  0  0  0  0  0  0  0  0
   64.0596   32.2609   52.5177 H   0  0  0  0  0  0  0  0  0  0  0  0
   62.5531   31.2825   52.5177 H   0  0  0  0  0  0  0  0  0  0  0  0
   62.5300   31.4090   49.0470 C   0  0  0  0  0  0  0  0  0  0  0  0
   61.8396   30.5841   49.2771 H   0  0  0  0  0  0  0  0  0  0  0  0
   60.1840   33.8620   45.6180 C   0  0  0  0  0  0  0  0  0  0  0  0
   60.9821   34.6162   45.5522 H   0  0  0  0  0  0  0  0  0  0  0  0
   60.3295   33.0521   44.8880 H   0  0  0  0  0  0  0  0  0  0  0  0
   58.8410   34.5380   45.3010 C   0  0  0  0  0  0  0  0  0  0  0  0
   58.6854   35.3742   45.9985 H   0  0  0  0  0  0  0  0  0  0  0  0
   58.8677   34.9024   44.2634 H   0  0  0  0  0  0  0  0  0  0  0  0
   58.8190   27.4330   46.7600 C   0  0  0  0  0  0  0  0  0  0  0  0
   58.5020   26.7013   46.0023 H   0  0  0  0  0  0  0  0  0  0  0  0
   59.7480   27.0600   47.7370 C   0  0  0  0  0  0  0  0  0  0  0  0
   60.1551   26.0381   47.7441 H   0  0  0  0  0  0  0  0  0  0  0  0
   60.1640   27.9870   48.7110 C   0  0  0  0  0  0  0  0  0  0  0  0
   61.1040   27.6660   49.7030 O   0  0  0  0  0  0  0  0  0  0  0  0
   61.3910   28.4810   50.8350 C   0  0  0  0  0  0  0  0  0  0  0  0
   61.1911   27.9133   51.7557 H   0  0  0  0  0  0  0  0  0  0  0  0
   62.4490   28.7813   50.8118 H   0  0  0  0  0  0  0  0  0  0  0  0
   60.7547   29.3780   50.8118 H   0  0  0  0  0  0  0  0  0  0  0  0
  1  2  1  0
  2  3  2  0
  3  4  1  0
  3  5  1  0
  5  6  1  0
  6  7  2  0
  6  8  1  0
  8  9  2  0
  9 10  1  0
 10 11  1  0
 10 12  2  0
 12 13  1  0
 12 14  1  0
 14 15  1  0
 14 16  1  0
 16 17  1  0
 17 18  1  0
 17 19  1  0
 19 20  1  0
 19 21  1  0
 19 22  1  0
 22 23  1  0
 22 24  1  0
 22 25  1  0
 25 26  1  0
 26 27  1  0
 26 28  1  0
 26 29  1  0
 29 30  2  0
 30 31  1  0
 30 32  1  0
 32 33  1  0
 32 34  2  0
 34 35  1  0
 35 36  1  0
 36 37  1  0
 36 38  1  0
 36 39  1  0
 34 40  1  0
 40 41  1  0
 41 42  1  0
 42 43  1  0
 42 44  1  0
 42 45  1  0
 40 46  2  0
 46 47  1  0
 25 48  1  0
 48 49  1  0
 48 50  1  0
 48 51  1  0
 51 52  1  0
 51 53  1  0
  5 54  2  0
 54 55  1  0
 54 56  1  0
 56 57  1  0
 56 58  2  0
 58 59  1  0
 59 60  1  0
 60 61  1  0
 60 62  1  0
 60 63  1  0
 58  2  1  0
 16  9  1  0
 51 17  1  0
 46 29  1  0
M  END
>  <UniqueID>  (80) 
73

>  <SMILES>  (80) 
COc1ccc(C(=O)/N=c2\cc[nH]n2C2CCN(Cc3ccc(OC)c(OC)c3)CC2)cc1

>  <Energy>  (80) 
117.24233289393457

>  <Genealogy>  (80) 
COc1ccc(C(=O)/N=c2\cc[nH]n2C2CCN(Cc3ccc(OC)c(OC)c3)CC2)cc1 (cis-trans isomerization)
COc1ccc(C(=O)/N=c2\cc[nH]n2C2CCN(Cc3ccc(OC)c(OC)c3)CC2)cc1 (3D coordinates assigned)
COc1ccc(C(=O)/N=c2\cc[nH]n2C2CCN(Cc3ccc(OC)c(OC)c3)CC2)cc1 (nonaromatic ring conformer: 117.24233289393457 kcal/mol)

>  <smiles>  (80) 
COc1ccc(C(=O)N=c2cc[nH]n2C2CCN(Cc3ccc(OC)c(OC)c3)CC2)cc1

>  <score_type>  (80) 
oracle

>  <origin>  (80) 
adg

>  <m_score__min__energy>  (80) 
-8.5

>  <m_primary>  (80) 
energy

$$$$
80:0
     RDKit          3D

 55 58  0  0  0  0  0  0  0  0999 V2000
   59.0430   28.8770   47.1290 O   0  0  0  0  0  0  0  0  0  0  0  0
   59.1380   29.8470   46.3280 C   0  0  0  0  0  0  0  0  0  0  0  0
   60.1110   30.9540   46.6420 C   0  0  0  0  0  0  0  0  0  0  0  0
   60.9480   30.8020   47.9440 C   0  0  1  0  0  0  0  0  0  0  0  0
   62.0610   31.8180   48.1250 C   0  0  0  0  0  0  0  0  0  0  0  0
   62.8870   32.3370   47.1160 C   0  0  0  0  0  0  0  0  0  0  0  0
   63.9680   33.1590   47.4700 C   0  0  0  0  0  0  0  0  0  0  0  0
   64.2460   33.4200   48.8230 C   0  0  0  0  0  0  0  0  0  0  0  0
   63.4410   32.8630   49.8250 C   0  0  0  0  0  0  0  0  0  0  0  0
   62.3600   32.0690   49.4420 C   0  0  0  0  0  0  0  0  0  0  0  0
   61.2660   31.2410   50.4660 S   0  0  0  0  0  0  0  0  0  0  0  0
   60.6020   32.1790   51.4360 O   0  0  0  0  0  0  0  0  0  0  0  0
   61.9360   30.1070   51.1850 O   0  0  0  0  0  0  0  0  0  0  0  0
   60.1860   30.6360   49.2290 N   0  0  0  0  0  0  0  0  0  0  0  0
   58.8860   31.3350   49.2920 C   0  0  0  0  0  0  0  0  0  0  0  0
   58.1750   31.0530   50.5940 C   0  0  0  0  0  0  0  0  0  0  0  0
   58.3210   29.8070   51.2270 C   0  0  0  0  0  0  0  0  0  0  0  0
   57.6810   29.5530   52.4420 C   0  0  0  0  0  0  0  0  0  0  0  0
   56.9020   30.5460   53.0440 C   0  0  0  0  0  0  0  0  0  0  0  0
   56.7690   31.7960   52.4330 C   0  0  0  0  0  0  0  0  0  0  0  0
   57.4080   32.0540   51.2160 C   0  0  0  0  0  0  0  0  0  0  0  0
   58.3770   29.8470   45.1160 N   0  0  0  0  0  0  0  0  0  0  0  0
   57.1340   30.6020   44.9630 C   0  0  1  0  0  0  0  0  0  0  0  0
   57.4020   31.9250   44.2290 C   0  0  0  0  0  0  0  0  0  0  0  0
   58.0490   32.9450   45.1320 C   0  0  0  0  0  0  0  0  0  0  0  0
   58.9790   33.8610   44.6160 C   0  0  0  0  0  0  0  0  0  0  0  0
   59.5750   34.8100   45.4520 C   0  0  0  0  0  0  0  0  0  0  0  0
   59.2510   34.8470   46.8100 C   0  0  0  0  0  0  0  0  0  0  0  0
   58.3210   33.9460   47.3320 C   0  0  0  0  0  0  0  0  0  0  0  0
   57.7190   32.9990   46.4970 C   0  0  0  0  0  0  0  0  0  0  0  0
   56.1390   29.7840   44.1920 C   0  0  0  0  0  0  0  0  0  0  0  0
   56.2080   29.7220   42.9370 O   0  0  0  0  0  0  0  0  0  0  0  0
   55.1590   29.0610   44.8630 O   0  0  0  0  0  0  0  0  0  0  0  0
   60.8152   31.0272   45.8001 H   0  0  0  0  0  0  0  0  0  0  0  0
   59.4896   31.8475   46.8014 H   0  0  0  0  0  0  0  0  0  0  0  0
   61.4117   29.8255   47.7403 H   0  0  0  0  0  0  0  0  0  0  0  0
   62.6893   32.1022   46.0597 H   0  0  0  0  0  0  0  0  0  0  0  0
   64.6002   33.6008   46.6857 H   0  0  0  0  0  0  0  0  0  0  0  0
   65.0965   34.0623   49.0952 H   0  0  0  0  0  0  0  0  0  0  0  0
   63.6561   33.0473   50.8879 H   0  0  0  0  0  0  0  0  0  0  0  0
   59.0567   32.4181   49.2040 H   0  0  0  0  0  0  0  0  0  0  0  0
   58.2560   30.9725   48.4663 H   0  0  0  0  0  0  0  0  0  0  0  0
   58.9429   29.0273   50.7629 H   0  0  0  0  0  0  0  0  0  0  0  0
   57.7898   28.5711   52.9258 H   0  0  0  0  0  0  0  0  0  0  0  0
   56.3939   30.3434   53.9984 H   0  0  0  0  0  0  0  0  0  0  0  0
   56.1606   32.5783   52.9102 H   0  0  0  0  0  0  0  0  0  0  0  0
   57.3103   33.0428   50.7441 H   0  0  0  0  0  0  0  0  0  0  0  0
   56.7274   30.8271   45.9600 H   0  0  0  0  0  0  0  0  0  0  0  0
   58.0690   31.7304   43.3762 H   0  0  0  0  0  0  0  0  0  0  0  0
   56.4368   32.3304   43.8913 H   0  0  0  0  0  0  0  0  0  0  0  0
   59.2404   33.8320   43.5479 H   0  0  0  0  0  0  0  0  0  0  0  0
   60.2995   35.5279   45.0399 H   0  0  0  0  0  0  0  0  0  0  0  0
   59.7290   35.5868   47.4690 H   0  0  0  0  0  0  0  0  0  0  0  0
   58.0616   33.9809   48.4004 H   0  0  0  0  0  0  0  0  0  0  0  0
   56.9838   32.2931   46.9107 H   0  0  0  0  0  0  0  0  0  0  0  0
  1  2  2  0
  2  3  1  0
  3  4  1  0
  4  5  1  0
  5  6  2  0
  6  7  1  0
  7  8  2  0
  8  9  1  0
  9 10  2  0
 10 11  1  0
 11 12  2  0
 11 13  2  0
 11 14  1  0
 14 15  1  0
 15 16  1  0
 16 17  2  0
 17 18  1  0
 18 19  2  0
 19 20  1  0
 20 21  2  0
  2 22  1  0
 22 23  1  0
 23 24  1  0
 24 25  1  0
 25 26  2  0
 26 27  1  0
 27 28  2  0
 28 29  1  0
 29 30  2  0
 23 31  1  0
 31 32  2  0
 31 33  1  0
 14  4  1  0
 21 16  1  0
 30 25  1  0
 10  5  1  0
  3 34  1  0
  3 35  1  0
  4 36  1  6
  6 37  1  0
  7 38  1  0
  8 39  1  0
  9 40  1  0
 15 41  1  0
 15 42  1  0
 17 43  1  0
 18 44  1  0
 19 45  1  0
 20 46  1  0
 21 47  1  0
 23 48  1  1
 24 49  1  0
 24 50  1  0
 26 51  1  0
 27 52  1  0
 28 53  1  0
 29 54  1  0
 30 55  1  0
M  CHG  2  22  -1  33  -1
M  END
>  <UniqueID>  (81) 
74

>  <SMILES>  (81) 
O=C(C[C@H]1c2ccccc2S(=O)(=O)N1Cc1ccccc1)[N-][C@@H](Cc1ccccc1)C(=O)[O-]

>  <Energy>  (81) 
71.89739609111764

>  <Genealogy>  (81) 
O=C(CC1c2ccccc2S(=O)(=O)N1Cc1ccccc1)[N-]C(Cc1ccccc1)C(=O)[O-] (protonated)
O=C(C[C@H]1c2ccccc2S(=O)(=O)N1Cc1ccccc1)[N-][C@@H](Cc1ccccc1)C(=O)[O-] (chirality)
O=C(C[C@H]1c2ccccc2S(=O)(=O)N1Cc1ccccc1)[N-][C@@H](Cc1ccccc1)C(=O)[O-] (3D coordinates assigned)
O=C(C[C@H]1c2ccccc2S(=O)(=O)N1Cc1ccccc1)[N-][C@@H](Cc1ccccc1)C(=O)[O-] (nonaromatic ring conformer: 71.89739609111764 kcal/mol)

>  <smiles>  (81) 
O=C(CC1c2ccccc2S(=O)(=O)N1Cc1ccccc1)NC(Cc1ccccc1)C(=O)O

>  <score_type>  (81) 
oracle

>  <origin>  (81) 
adg

>  <m_score__min__energy>  (81) 
-13.65

>  <m_primary>  (81) 
energy

$$$$
81:0
     RDKit          3D

 33 35  0  0  0  0  0  0  0  0999 V2000
   54.8553   24.6545   46.6303 H   0  0  0  0  0  0  0  0  0  0  0  0
   55.7290   25.2530   46.3330 C   0  0  0  0  0  0  0  0  0  0  0  0
   55.5700   26.5540   45.9740 N   0  0  0  0  0  0  0  0  0  0  0  0
   56.6170   27.3430   45.6080 C   0  0  0  0  0  0  0  0  0  0  0  0
   56.3680   28.5710   45.2490 N   0  0  0  0  0  0  0  0  0  0  0  0
   57.1910   29.7340   45.4250 C   0  0  0  0  0  0  0  0  0  0  0  0
   57.7230   29.9790   46.5420 O   0  0  0  0  0  0  0  0  0  0  0  0
   57.3560   30.6830   44.3050 C   0  0  0  0  0  0  0  0  0  0  0  0
   56.8830   30.4550   43.0090 C   0  0  0  0  0  0  0  0  0  0  0  0
   56.2030   29.2880   42.5430 N   0  0  0  0  0  0  0  0  0  0  0  0
   55.5970   29.3050   41.6940 H   0  0  0  0  0  0  0  0  0  0  0  0
   56.2680   28.3990   43.0860 H   0  0  0  0  0  0  0  0  0  0  0  0
   57.3420   31.7260   42.0150 S   0  0  0  0  0  0  0  0  0  0  0  0
   58.1460   32.6020   43.2010 C   0  0  0  0  0  0  0  0  0  0  0  0
   58.6564   33.5648   43.0509 H   0  0  0  0  0  0  0  0  0  0  0  0
   58.0600   31.9080   44.4070 C   0  0  0  0  0  0  0  0  0  0  0  0
   58.6160   32.4590   45.6620 C   0  0  0  0  0  0  0  0  0  0  0  0
   58.0150   33.5730   46.2720 C   0  0  0  0  0  0  0  0  0  0  0  0
   57.1191   34.0267   45.8232 H   0  0  0  0  0  0  0  0  0  0  0  0
   58.5520   34.1070   47.4480 C   0  0  0  0  0  0  0  0  0  0  0  0
   58.0818   34.9839   47.9170 H   0  0  0  0  0  0  0  0  0  0  0  0
   59.6850   33.5290   48.0290 C   0  0  0  0  0  0  0  0  0  0  0  0
   60.3630   34.2080   49.4970 Cl  0  0  0  0  0  0  0  0  0  0  0  0
   60.2750   32.4070   47.4390 C   0  0  0  0  0  0  0  0  0  0  0  0
   61.1625   31.9475   47.8986 H   0  0  0  0  0  0  0  0  0  0  0  0
   59.7390   31.8690   46.2670 C   0  0  0  0  0  0  0  0  0  0  0  0
   60.1986   30.9779   45.8146 H   0  0  0  0  0  0  0  0  0  0  0  0
   57.9130   26.7850   45.5750 C   0  0  0  0  0  0  0  0  0  0  0  0
   58.7728   27.3966   45.2639 H   0  0  0  0  0  0  0  0  0  0  0  0
   58.0940   25.4490   45.9410 C   0  0  0  0  0  0  0  0  0  0  0  0
   59.1009   25.0064   45.9264 H   0  0  0  0  0  0  0  0  0  0  0  0
   56.9980   24.6760   46.3250 C   0  0  0  0  0  0  0  0  0  0  0  0
   57.1334   23.6244   46.6178 H   0  0  0  0  0  0  0  0  0  0  0  0
  1  2  1  0
  2  3  1  0
  3  4  1  0
  4  5  2  0
  5  6  1  0
  6  7  2  0
  6  8  1  0
  8  9  2  0
  9 10  1  0
 10 11  1  0
 10 12  1  0
  9 13  1  0
 13 14  1  0
 14 15  1  0
 14 16  2  0
 16 17  1  0
 17 18  2  0
 18 19  1  0
 18 20  1  0
 20 21  1  0
 20 22  2  0
 22 23  1  0
 22 24  1  0
 24 25  1  0
 24 26  2  0
 26 27  1  0
  4 28  1  0
 28 29  1  0
 28 30  2  0
 30 31  1  0
 30 32  1  0
 32 33  1  0
 32  2  2  0
 16  8  1  0
 26 17  1  0
M  CHG  1   3  -1
M  END
>  <UniqueID>  (82) 
75

>  <SMILES>  (82) 
Nc1scc(-c2ccc(Cl)cc2)c1C(=O)/N=c1\cccc[n-]1

>  <Energy>  (82) 
77.58325811173142

>  <Genealogy>  (82) 
Nc1scc(-c2ccc(Cl)cc2)c1C(=O)N=c1cccc[n-]1 (protonated)
Nc1scc(-c2ccc(Cl)cc2)c1C(=O)/N=c1\cccc[n-]1 (cis-trans isomerization)
Nc1scc(-c2ccc(Cl)cc2)c1C(=O)/N=c1\cccc[n-]1 (3D coordinates assigned)
Nc1scc(-c2ccc(Cl)cc2)c1C(=O)/N=c1\cccc[n-]1 (optimized conformer: 77.58325811173142 kcal/mol)

>  <smiles>  (82) 
Nc1scc(-c2ccc(Cl)cc2)c1C(=O)N=c1cccc[nH]1

>  <score_type>  (82) 
oracle

>  <origin>  (82) 
adg

>  <m_score__min__energy>  (82) 
-10.16

>  <m_primary>  (82) 
energy

$$$$
82:0
     RDKit          3D

 48 49  0  0  0  0  0  0  0  0999 V2000
   59.2570   30.1970   48.9790 C   0  0  0  0  0  0  0  0  0  0  0  0
   60.3710   29.4350   48.2630 C   0  0  0  0  0  0  0  0  0  0  0  0
   60.6200   29.9510   46.8360 C   0  0  0  0  0  0  0  0  0  0  0  0
   60.3650   28.8810   45.7680 C   0  0  0  0  0  0  0  0  0  0  0  0
   59.6740   29.4070   44.4910 C   0  0  0  0  0  0  0  0  0  0  0  0
   58.1910   29.2920   44.3950 N   0  0  2  0  0  0  0  0  0  0  0  0
   57.3510   30.8200   44.1560 S   0  0  0  0  0  0  0  0  0  0  0  0
   57.4170   31.1570   42.6920 O   0  0  0  0  0  0  0  0  0  0  0  0
   55.8970   30.6780   44.5050 O   0  0  0  0  0  0  0  0  0  0  0  0
   58.0210   32.2040   45.0280 C   0  0  0  0  0  0  0  0  0  0  0  0
   58.1200   32.1910   46.4270 C   0  0  0  0  0  0  0  0  0  0  0  0
   58.6430   33.2920   47.1100 C   0  0  0  0  0  0  0  0  0  0  0  0
   59.0420   34.4350   46.4040 C   0  0  0  0  0  0  0  0  0  0  0  0
   59.5810   35.5610   47.1020 N   0  0  0  0  0  0  0  0  0  0  0  0
   58.8980   34.4720   45.0100 C   0  0  0  0  0  0  0  0  0  0  0  0
   58.3810   33.3670   44.3280 C   0  0  0  0  0  0  0  0  0  0  0  0
   57.3790   28.1680   45.4800 S   0  0  0  0  0  0  0  0  0  0  0  0
   55.8950   28.2830   45.2590 O   0  0  0  0  0  0  0  0  0  0  0  0
   57.6450   28.5950   46.8970 O   0  0  0  0  0  0  0  0  0  0  0  0
   57.8410   26.4620   45.3450 C   0  0  0  0  0  0  0  0  0  0  0  0
   57.0820   25.5740   44.5620 C   0  0  0  0  0  0  0  0  0  0  0  0
   57.4440   24.2270   44.4680 C   0  0  0  0  0  0  0  0  0  0  0  0
   58.5430   23.7440   45.1840 C   0  0  0  0  0  0  0  0  0  0  0  0
   59.0010   22.0560   45.0600 Cl  0  0  0  0  0  0  0  0  0  0  0  0
   59.2590   24.6060   46.0190 C   0  0  0  0  0  0  0  0  0  0  0  0
   58.8960   25.9520   46.1140 C   0  0  0  0  0  0  0  0  0  0  0  0
   59.3908   30.1055   50.0670 H   0  0  0  0  0  0  0  0  0  0  0  0
   59.2961   31.2584   48.6928 H   0  0  0  0  0  0  0  0  0  0  0  0
   58.2820   29.7758   48.6928 H   0  0  0  0  0  0  0  0  0  0  0  0
   61.2996   29.5418   48.8430 H   0  0  0  0  0  0  0  0  0  0  0  0
   60.0582   28.3832   48.1864 H   0  0  0  0  0  0  0  0  0  0  0  0
   59.9501   30.8030   46.6478 H   0  0  0  0  0  0  0  0  0  0  0  0
   61.6782   30.2434   46.7679 H   0  0  0  0  0  0  0  0  0  0  0  0
   61.3328   28.4442   45.4806 H   0  0  0  0  0  0  0  0  0  0  0  0
   59.6796   28.1467   46.2163 H   0  0  0  0  0  0  0  0  0  0  0  0
   59.9251   30.4741   44.4001 H   0  0  0  0  0  0  0  0  0  0  0  0
   60.0507   28.7553   43.6888 H   0  0  0  0  0  0  0  0  0  0  0  0
   58.0390   28.8290   43.4690 H   0  0  0  0  0  0  0  0  0  0  0  0
   57.7836   31.3081   46.9903 H   0  0  0  0  0  0  0  0  0  0  0  0
   58.7419   33.2616   48.2051 H   0  0  0  0  0  0  0  0  0  0  0  0
   60.5260   35.5140   47.5420 H   0  0  0  0  0  0  0  0  0  0  0  0
   59.0370   36.4490   47.1850 H   0  0  0  0  0  0  0  0  0  0  0  0
   59.1926   35.3728   44.4517 H   0  0  0  0  0  0  0  0  0  0  0  0
   58.2553   33.4086   43.2360 H   0  0  0  0  0  0  0  0  0  0  0  0
   56.1981   25.9416   44.0202 H   0  0  0  0  0  0  0  0  0  0  0  0
   56.8627   23.5458   43.8292 H   0  0  0  0  0  0  0  0  0  0  0  0
   60.1098   24.2243   46.6025 H   0  0  0  0  0  0  0  0  0  0  0  0
   59.4430   26.6172   46.7983 H   0  0  0  0  0  0  0  0  0  0  0  0
  1  2  1  0
  2  3  1  0
  3  4  1  0
  4  5  1  0
  5  6  1  0
  6  7  1  0
  7  8  2  0
  7  9  2  0
  7 10  1  0
 10 11  2  0
 11 12  1  0
 12 13  2  0
 13 14  1  0
 13 15  1  0
 15 16  2  0
  6 17  1  0
 17 18  2  0
 17 19  2  0
 17 20  1  0
 20 21  2  0
 21 22  1  0
 22 23  2  0
 23 24  1  0
 23 25  1  0
 25 26  2  0
 16 10  1  0
 26 20  1  0
  1 27  1  0
  1 28  1  0
  1 29  1  0
  2 30  1  0
  2 31  1  0
  3 32  1  0
  3 33  1  0
  4 34  1  0
  4 35  1  0
  5 36  1  0
  5 37  1  0
  6 38  1  6
 11 39  1  0
 12 40  1  0
 14 41  1  0
 14 42  1  0
 15 43  1  0
 16 44  1  0
 21 45  1  0
 22 46  1  0
 25 47  1  0
 26 48  1  0
M  CHG  1   6   1
M  END
>  <UniqueID>  (83) 
76

>  <SMILES>  (83) 
CCCCC[N@H+](S(=O)(=O)c1ccc(N)cc1)S(=O)(=O)c1ccc(Cl)cc1

>  <Energy>  (83) 
54.86927767874495

>  <Genealogy>  (83) 
CCCCC[NH+](S(=O)(=O)c1ccc(N)cc1)S(=O)(=O)c1ccc(Cl)cc1 (protonated)
CCCCC[N@H+](S(=O)(=O)c1ccc(N)cc1)S(=O)(=O)c1ccc(Cl)cc1 (chirality)
CCCCC[N@H+](S(=O)(=O)c1ccc(N)cc1)S(=O)(=O)c1ccc(Cl)cc1 (3D coordinates assigned)
CCCCC[N@H+](S(=O)(=O)c1ccc(N)cc1)S(=O)(=O)c1ccc(Cl)cc1 (optimized conformer: 54.86927767874495 kcal/mol)

>  <smiles>  (83) 
CCCCCN(S(=O)(=O)c1ccc(N)cc1)S(=O)(=O)c1ccc(Cl)cc1

>  <score_type>  (83) 
oracle

>  <origin>  (83) 
adg

>  <m_score__min__energy>  (83) 
-7.0300000000000002

>  <m_primary>  (83) 
energy

$$$$
83:0
     RDKit          3D

 65 67  0  0  0  0  0  0  0  0999 V2000
   54.8870   31.2040   52.2650 C   0  0  0  0  0  0  0  0  0  0  0  0
   56.1740   31.3710   51.5980 N   0  0  0  0  0  0  0  0  0  0  0  0
   57.1760   30.3400   51.6440 C   0  0  0  0  0  0  0  0  0  0  0  0
   56.9310   29.2850   52.2940 O   0  0  0  0  0  0  0  0  0  0  0  0
   58.5110   30.4900   50.9890 C   0  0  0  0  0  0  0  0  0  0  0  0
   58.8040   29.7200   49.8470 C   0  0  0  0  0  0  0  0  0  0  0  0
   60.0540   29.8050   49.2280 C   0  0  0  0  0  0  0  0  0  0  0  0
   60.4010   28.8280   47.8110 Cl  0  0  0  0  0  0  0  0  0  0  0  0
   61.0360   30.6510   49.7440 C   0  0  0  0  0  0  0  0  0  0  0  0
   60.7730   31.4340   50.8780 C   0  0  0  0  0  0  0  0  0  0  0  0
   61.8330   32.3040   51.4480 C   0  0  0  0  0  0  0  0  0  0  0  0
   62.2990   32.0580   52.5940 O   0  0  0  0  0  0  0  0  0  0  0  0
   62.3770   33.3720   50.6610 N   0  0  0  0  0  0  0  0  0  0  0  0
   62.3610   33.4990   49.2320 C   0  0  0  0  0  0  0  0  0  0  0  0
   63.4490   33.1120   48.4310 C   0  0  0  0  0  0  0  0  0  0  0  0
   63.3730   33.2290   47.0400 C   0  0  0  0  0  0  0  0  0  0  0  0
   62.2260   33.7600   46.4400 C   0  0  0  0  0  0  0  0  0  0  0  0
   61.1530   34.2000   47.2320 C   0  0  0  0  0  0  0  0  0  0  0  0
   59.9070   34.7550   46.6000 C   0  0  0  0  0  0  0  0  0  0  0  0
   59.1160   33.6360   46.0350 N   0  0  0  0  0  0  0  0  0  0  0  0
   58.8590   32.5800   47.0350 C   0  0  0  0  0  0  0  0  0  0  0  0
   58.2620   31.3210   46.3720 C   0  0  0  0  0  0  0  0  0  0  0  0
   57.7440   31.5910   44.9420 C   0  0  0  0  0  0  0  0  0  0  0  0
   56.8980   30.4390   44.4540 C   0  0  0  0  0  0  0  0  0  0  0  0
   55.6500   30.4420   44.6340 O   0  0  0  0  0  0  0  0  0  0  0  0
   57.5260   29.3620   43.7440 N   0  0  0  0  0  0  0  0  0  0  0  0
   58.2420   28.2220   44.3240 C   0  0  0  0  0  0  0  0  0  0  0  0
   59.7230   28.5730   44.5570 C   0  0  0  0  0  0  0  0  0  0  0  0
   58.1530   27.0570   43.3260 C   0  0  0  0  0  0  0  0  0  0  0  0
   57.5780   27.8030   45.6470 C   0  0  0  0  0  0  0  0  0  0  0  0
   56.9920   32.9370   44.8970 C   0  0  0  0  0  0  0  0  0  0  0  0
   57.8470   34.1060   45.4400 C   0  0  0  0  0  0  0  0  0  0  0  0
   61.2320   34.0690   48.6290 C   0  0  0  0  0  0  0  0  0  0  0  0
   59.5040   31.3620   51.4830 C   0  0  0  0  0  0  0  0  0  0  0  0
   55.0337   31.2230   53.3550 H   0  0  0  0  0  0  0  0  0  0  0  0
   54.2130   32.0222   51.9714 H   0  0  0  0  0  0  0  0  0  0  0  0
   54.4441   30.2409   51.9714 H   0  0  0  0  0  0  0  0  0  0  0  0
   56.3390   32.2830   51.1220 H   0  0  0  0  0  0  0  0  0  0  0  0
   58.0397   29.0434   49.4372 H   0  0  0  0  0  0  0  0  0  0  0  0
   62.0219   30.7044   49.2591 H   0  0  0  0  0  0  0  0  0  0  0  0
   64.3622   32.7163   48.8995 H   0  0  0  0  0  0  0  0  0  0  0  0
   64.2175   32.9026   46.4153 H   0  0  0  0  0  0  0  0  0  0  0  0
   62.1645   33.8331   45.3442 H   0  0  0  0  0  0  0  0  0  0  0  0
   59.3109   35.2820   47.3596 H   0  0  0  0  0  0  0  0  0  0  0  0
   60.1771   35.4612   45.8010 H   0  0  0  0  0  0  0  0  0  0  0  0
   59.8060   32.3125   47.5266 H   0  0  0  0  0  0  0  0  0  0  0  0
   58.1366   32.9636   47.7706 H   0  0  0  0  0  0  0  0  0  0  0  0
   59.0406   30.5454   46.3240 H   0  0  0  0  0  0  0  0  0  0  0  0
   57.4048   30.9986   46.9813 H   0  0  0  0  0  0  0  0  0  0  0  0
   58.5987   31.6689   44.2540 H   0  0  0  0  0  0  0  0  0  0  0  0
   59.9230   28.6204   45.6376 H   0  0  0  0  0  0  0  0  0  0  0  0
   60.3592   27.8007   44.0999 H   0  0  0  0  0  0  0  0  0  0  0  0
   59.9449   29.5486   44.0999 H   0  0  0  0  0  0  0  0  0  0  0  0
   58.0805   26.1074   43.8764 H   0  0  0  0  0  0  0  0  0  0  0  0
   57.2619   27.1832   42.6936 H   0  0  0  0  0  0  0  0  0  0  0  0
   59.0530   27.0464   42.6936 H   0  0  0  0  0  0  0  0  0  0  0  0
   58.1740   28.1791   46.4916 H   0  0  0  0  0  0  0  0  0  0  0  0
   56.5633   28.2247   45.6977 H   0  0  0  0  0  0  0  0  0  0  0  0
   57.5219   26.7056   45.6977 H   0  0  0  0  0  0  0  0  0  0  0  0
   56.7176   33.1541   43.8541 H   0  0  0  0  0  0  0  0  0  0  0  0
   56.1015   32.8463   45.5364 H   0  0  0  0  0  0  0  0  0  0  0  0
   58.0763   34.7926   44.6117 H   0  0  0  0  0  0  0  0  0  0  0  0
   57.2694   34.6111   46.2282 H   0  0  0  0  0  0  0  0  0  0  0  0
   60.3982   34.4178   49.2560 H   0  0  0  0  0  0  0  0  0  0  0  0
   59.2831   31.9956   52.3547 H   0  0  0  0  0  0  0  0  0  0  0  0
  1  2  1  0
  2  3  1  0
  3  4  2  0
  3  5  1  0
  5  6  2  0
  6  7  1  0
  7  8  1  0
  7  9  2  0
  9 10  1  0
 10 11  1  0
 11 12  2  0
 11 13  1  0
 13 14  1  0
 14 15  2  0
 15 16  1  0
 16 17  2  0
 17 18  1  0
 18 19  1  0
 19 20  1  0
 20 21  1  0
 21 22  1  0
 22 23  1  0
 23 24  1  0
 24 25  2  0
 24 26  1  0
 26 27  1  0
 27 28  1  0
 27 29  1  0
 27 30  1  0
 23 31  1  0
 31 32  1  0
 18 33  2  0
 10 34  2  0
 34  5  1  0
 33 14  1  0
 32 20  1  0
  1 35  1  0
  1 36  1  0
  1 37  1  0
  2 38  1  0
  6 39  1  0
  9 40  1  0
 15 41  1  0
 16 42  1  0
 17 43  1  0
 19 44  1  0
 19 45  1  0
 21 46  1  0
 21 47  1  0
 22 48  1  0
 22 49  1  0
 23 50  1  0
 28 51  1  0
 28 52  1  0
 28 53  1  0
 29 54  1  0
 29 55  1  0
 29 56  1  0
 30 57  1  0
 30 58  1  0
 30 59  1  0
 31 60  1  0
 31 61  1  0
 32 62  1  0
 32 63  1  0
 33 64  1  0
 34 65  1  0
M  CHG  2  13  -1  26  -1
M  END
>  <UniqueID>  (84) 
77

>  <SMILES>  (84) 
CNC(=O)c1cc(Cl)cc(C(=O)[N-]c2cccc(CN3CCC(C(=O)[N-]C(C)(C)C)CC3)c2)c1

>  <Energy>  (84) 
73.61793970655407

>  <Genealogy>  (84) 
CNC(=O)c1cc(Cl)cc(C(=O)[N-]c2cccc(CN3CCC(C(=O)[N-]C(C)(C)C)CC3)c2)c1 (protonated)
CNC(=O)c1cc(Cl)cc(C(=O)[N-]c2cccc(CN3CCC(C(=O)[N-]C(C)(C)C)CC3)c2)c1 (3D coordinates assigned)
CNC(=O)c1cc(Cl)cc(C(=O)[N-]c2cccc(CN3CCC(C(=O)[N-]C(C)(C)C)CC3)c2)c1 (nonaromatic ring conformer: 73.61793970655407 kcal/mol)

>  <smiles>  (84) 
CNC(=O)c1cc(Cl)cc(C(=O)Nc2cccc(CN3CCC(C(=O)NC(C)(C)C)CC3)c2)c1

>  <score_type>  (84) 
oracle

>  <origin>  (84) 
adg

>  <m_score__min__energy>  (84) 
-12.5

>  <m_primary>  (84) 
energy

$$$$
84:0
     RDKit          3D

 61 63  0  0  0  0  0  0  0  0999 V2000
   61.5380   31.1530   52.3890 C   0  0  0  0  0  0  0  0  0  0  0  0
   61.8350   30.3450   51.2060 N   0  0  0  0  0  0  0  0  0  0  0  0
   61.9590   28.8930   51.3330 C   0  0  0  0  0  0  0  0  0  0  0  0
   62.3200   30.9810   50.0140 C   0  0  0  0  0  0  0  0  0  0  0  0
   63.6320   31.4810   49.9930 C   0  0  0  0  0  0  0  0  0  0  0  0
   64.1470   32.0700   48.8380 C   0  0  0  0  0  0  0  0  0  0  0  0
   63.3610   32.1590   47.6890 C   0  0  0  0  0  0  0  0  0  0  0  0
   62.0540   31.6670   47.6960 C   0  0  0  0  0  0  0  0  0  0  0  0
   61.5060   31.0980   48.8610 C   0  0  0  0  0  0  0  0  0  0  0  0
   60.0810   30.5810   48.8440 C   0  0  0  0  0  0  0  0  0  0  0  0
   59.1110   31.6780   48.7700 N   0  0  0  0  0  0  0  0  0  0  0  0
   58.8170   32.4280   47.5680 C   0  0  0  0  0  0  0  0  0  0  0  0
   58.3060   31.7800   46.4240 C   0  0  0  0  0  0  0  0  0  0  0  0
   57.9180   32.5090   45.2920 C   0  0  0  0  0  0  0  0  0  0  0  0
   57.3000   31.8130   44.1090 C   0  0  0  0  0  0  0  0  0  0  0  0
   56.1000   31.1460   44.4940 O   0  0  0  0  0  0  0  0  0  0  0  0
   55.8180   29.8180   44.1580 C   0  0  0  0  0  0  0  0  0  0  0  0
   55.5210   29.5080   42.9730 O   0  0  0  0  0  0  0  0  0  0  0  0
   55.9180   28.8080   45.1680 N   0  0  0  0  0  0  0  0  0  0  0  0
   57.1230   28.1450   45.5810 C   0  0  0  0  0  0  0  0  0  0  0  0
   57.1000   26.9350   46.3000 C   0  0  0  0  0  0  0  0  0  0  0  0
   58.2980   26.3280   46.6910 C   0  0  0  0  0  0  0  0  0  0  0  0
   59.5220   26.9260   46.3820 C   0  0  0  0  0  0  0  0  0  0  0  0
   59.5500   28.1410   45.6920 C   0  0  0  0  0  0  0  0  0  0  0  0
   58.3550   28.7520   45.3010 C   0  0  0  0  0  0  0  0  0  0  0  0
   58.0490   33.9000   45.2920 C   0  0  0  0  0  0  0  0  0  0  0  0
   58.5850   34.5560   46.3990 C   0  0  0  0  0  0  0  0  0  0  0  0
   58.9780   33.8370   47.5410 C   0  0  0  0  0  0  0  0  0  0  0  0
   59.5590   34.5330   48.6590 N   0  0  0  0  0  0  0  0  0  0  0  0
   60.9010   34.2500   49.1710 C   0  0  0  0  0  0  0  0  0  0  0  0
   60.8570   33.8600   50.6500 C   0  0  0  0  0  0  0  0  0  0  0  0
   59.1440   33.8410   51.2610 S   0  0  0  0  0  0  0  0  0  0  0  0
   61.7529   30.5684   53.2957 H   0  0  0  0  0  0  0  0  0  0  0  0
   62.1619   32.0589   52.3804 H   0  0  0  0  0  0  0  0  0  0  0  0
   60.4759   31.4392   52.3804 H   0  0  0  0  0  0  0  0  0  0  0  0
   61.9824   28.6188   52.3980 H   0  0  0  0  0  0  0  0  0  0  0  0
   61.0990   28.4078   50.8482 H   0  0  0  0  0  0  0  0  0  0  0  0
   62.8888   28.5606   50.8482 H   0  0  0  0  0  0  0  0  0  0  0  0
   64.2585   31.4077   50.8942 H   0  0  0  0  0  0  0  0  0  0  0  0
   65.1738   32.4646   48.8333 H   0  0  0  0  0  0  0  0  0  0  0  0
   63.7710   32.6170   46.7768 H   0  0  0  0  0  0  0  0  0  0  0  0
   61.4461   31.7248   46.7810 H   0  0  0  0  0  0  0  0  0  0  0  0
   59.9485   29.9274   47.9692 H   0  0  0  0  0  0  0  0  0  0  0  0
   59.9042   30.0271   49.7778 H   0  0  0  0  0  0  0  0  0  0  0  0
   58.5640   31.8560   49.6400 H   0  0  0  0  0  0  0  0  0  0  0  0
   58.2105   30.6842   46.4205 H   0  0  0  0  0  0  0  0  0  0  0  0
   57.0679   32.5563   43.3321 H   0  0  0  0  0  0  0  0  0  0  0  0
   58.0120   31.0696   43.7212 H   0  0  0  0  0  0  0  0  0  0  0  0
   56.1382   26.4660   46.5548 H   0  0  0  0  0  0  0  0  0  0  0  0
   58.2762   25.3770   47.2434 H   0  0  0  0  0  0  0  0  0  0  0  0
   60.4628   26.4411   46.6815 H   0  0  0  0  0  0  0  0  0  0  0  0
   60.5133   28.6170   45.4563 H   0  0  0  0  0  0  0  0  0  0  0  0
   58.3817   29.7151   44.7703 H   0  0  0  0  0  0  0  0  0  0  0  0
   57.7277   34.4802   44.4144 H   0  0  0  0  0  0  0  0  0  0  0  0
   58.7018   35.6496   46.3786 H   0  0  0  0  0  0  0  0  0  0  0  0
   59.0090   35.2840   49.1310 H   0  0  0  0  0  0  0  0  0  0  0  0
   61.3380   33.4216   48.5941 H   0  0  0  0  0  0  0  0  0  0  0  0
   61.5124   35.1586   49.0680 H   0  0  0  0  0  0  0  0  0  0  0  0
   61.2948   32.8583   50.7722 H   0  0  0  0  0  0  0  0  0  0  0  0
   61.4296   34.6006   51.2276 H   0  0  0  0  0  0  0  0  0  0  0  0
   58.9820   35.2220   51.0450 H   0  0  0  0  0  0  0  0  0  0  0  0
  1  2  1  0
  2  3  1  0
  2  4  1  0
  4  5  2  0
  5  6  1  0
  6  7  2  0
  7  8  1  0
  8  9  2  0
  9 10  1  0
 10 11  1  0
 11 12  1  0
 12 13  2  0
 13 14  1  0
 14 15  1  0
 15 16  1  0
 16 17  1  0
 17 18  2  0
 17 19  1  0
 19 20  1  0
 20 21  2  0
 21 22  1  0
 22 23  2  0
 23 24  1  0
 24 25  2  0
 14 26  2  0
 26 27  1  0
 27 28  2  0
 28 29  1  0
 29 30  1  0
 30 31  1  0
 31 32  1  0
  9  4  1  0
 28 12  1  0
 25 20  1  0
  1 33  1  0
  1 34  1  0
  1 35  1  0
  3 36  1  0
  3 37  1  0
  3 38  1  0
  5 39  1  0
  6 40  1  0
  7 41  1  0
  8 42  1  0
 10 43  1  0
 10 44  1  0
 11 45  1  0
 13 46  1  0
 15 47  1  0
 15 48  1  0
 21 49  1  0
 22 50  1  0
 23 51  1  0
 24 52  1  0
 25 53  1  0
 26 54  1  0
 27 55  1  0
 29 56  1  0
 30 57  1  0
 30 58  1  0
 31 59  1  0
 31 60  1  0
 32 61  1  0
M  CHG  1  19  -1
M  END
>  <UniqueID>  (85) 
78

>  <SMILES>  (85) 
CN(C)c1ccccc1CNc1cc(COC(=O)[N-]c2ccccc2)ccc1NCCS

>  <Energy>  (85) 
62.94623974958621

>  <Genealogy>  (85) 
CN(C)c1ccccc1CNc1cc(COC(=O)[N-]c2ccccc2)ccc1NCCS (protonated)
CN(C)c1ccccc1CNc1cc(COC(=O)[N-]c2ccccc2)ccc1NCCS (3D coordinates assigned)
CN(C)c1ccccc1CNc1cc(COC(=O)[N-]c2ccccc2)ccc1NCCS (optimized conformer: 62.94623974958621 kcal/mol)

>  <smiles>  (85) 
CN(C)c1ccccc1CNc1cc(COC(=O)Nc2ccccc2)ccc1NCCS

>  <score_type>  (85) 
oracle

>  <origin>  (85) 
adg

>  <m_score__min__energy>  (85) 
-9.6500000000000004

>  <m_primary>  (85) 
energy

$$$$
85:0
     RDKit          3D

 48 52  0  0  0  0  0  0  0  0999 V2000
   60.1180   27.8180   48.5660 O   0  0  0  0  0  0  0  0  0  0  0  0
   59.2990   27.8080   47.6070 C   0  0  0  0  0  0  0  0  0  0  0  0
   58.5740   26.6480   47.3350 C   0  0  0  0  0  0  0  0  0  0  0  0
   57.6620   26.6410   46.2680 C   0  0  0  0  0  0  0  0  0  0  0  0
   56.8670   25.4310   45.9360 C   0  0  0  0  0  0  0  0  0  0  0  0
   57.5030   24.1930   45.7250 C   0  0  0  0  0  0  0  0  0  0  0  0
   56.7570   23.0580   45.3940 C   0  0  0  0  0  0  0  0  0  0  0  0
   55.3660   23.1430   45.2640 C   0  0  0  0  0  0  0  0  0  0  0  0
   54.6130   22.0190   44.9340 O   0  0  0  0  0  0  0  0  0  0  0  0
   54.7250   24.3680   45.4650 C   0  0  0  0  0  0  0  0  0  0  0  0
   55.4650   25.5090   45.7980 C   0  0  0  0  0  0  0  0  0  0  0  0
   54.7920   26.7080   46.0060 O   0  0  0  0  0  0  0  0  0  0  0  0
   57.4980   27.7430   45.5380 O   0  0  0  0  0  0  0  0  0  0  0  0
   58.1640   28.8760   45.7550 C   0  0  0  0  0  0  0  0  0  0  0  0
   59.1030   28.9480   46.8100 C   0  0  0  0  0  0  0  0  0  0  0  0
   59.8050   30.1410   47.0360 C   0  0  0  0  0  0  0  0  0  0  0  0
   59.5810   31.2560   46.2270 C   0  0  0  0  0  0  0  0  0  0  0  0
   58.6510   31.2040   45.1740 C   0  0  0  0  0  0  0  0  0  0  0  0
   58.4280   32.3330   44.3550 C   0  0  0  0  0  0  0  0  0  0  0  0
   59.1490   33.5150   44.6050 O   0  0  0  0  0  0  0  0  0  0  0  0
   58.8690   34.4580   45.6410 C   0  0  0  0  0  0  0  0  0  0  0  0
   59.8120   34.2730   46.8000 C   0  0  0  0  0  0  0  0  0  0  0  0
   59.3430   34.3480   48.1220 C   0  0  0  0  0  0  0  0  0  0  0  0
   60.2230   34.1670   49.1940 C   0  0  0  0  0  0  0  0  0  0  0  0
   61.5740   33.9020   48.9530 C   0  0  0  0  0  0  0  0  0  0  0  0
   62.0460   33.8130   47.6410 C   0  0  0  0  0  0  0  0  0  0  0  0
   61.1690   33.9930   46.5670 C   0  0  0  0  0  0  0  0  0  0  0  0
   57.4880   32.2480   43.3100 C   0  0  0  0  0  0  0  0  0  0  0  0
   56.7870   31.0650   43.0790 C   0  0  0  0  0  0  0  0  0  0  0  0
   57.0070   29.9470   43.8820 C   0  0  0  0  0  0  0  0  0  0  0  0
   57.9360   30.0000   44.9370 C   0  0  0  0  0  0  0  0  0  0  0  0
   58.7155   25.7474   47.9506 H   0  0  0  0  0  0  0  0  0  0  0  0
   58.5962   24.1181   45.8214 H   0  0  0  0  0  0  0  0  0  0  0  0
   57.2647   22.0952   45.2352 H   0  0  0  0  0  0  0  0  0  0  0  0
   53.6030   22.0610   44.8630 H   0  0  0  0  0  0  0  0  0  0  0  0
   53.6321   24.4365   45.3610 H   0  0  0  0  0  0  0  0  0  0  0  0
   60.5364   30.1982   47.8556 H   0  0  0  0  0  0  0  0  0  0  0  0
   60.1382   32.1856   46.4153 H   0  0  0  0  0  0  0  0  0  0  0  0
   58.9830   35.4768   45.2421 H   0  0  0  0  0  0  0  0  0  0  0  0
   57.8396   34.2988   45.9945 H   0  0  0  0  0  0  0  0  0  0  0  0
   58.2791   34.5500   48.3150 H   0  0  0  0  0  0  0  0  0  0  0  0
   59.8516   34.2332   50.2273 H   0  0  0  0  0  0  0  0  0  0  0  0
   62.2660   33.7634   49.7967 H   0  0  0  0  0  0  0  0  0  0  0  0
   63.1088   33.6011   47.4527 H   0  0  0  0  0  0  0  0  0  0  0  0
   61.5430   33.9151   45.5355 H   0  0  0  0  0  0  0  0  0  0  0  0
   57.3049   33.1234   42.6696 H   0  0  0  0  0  0  0  0  0  0  0  0
   56.0562   31.0137   42.2584 H   0  0  0  0  0  0  0  0  0  0  0  0
   56.4508   29.0177   43.6895 H   0  0  0  0  0  0  0  0  0  0  0  0
  1  2  2  0
  2  3  1  0
  3  4  2  0
  4  5  1  0
  5  6  2  0
  6  7  1  0
  7  8  2  0
  8  9  1  0
  8 10  1  0
 10 11  2  0
 11 12  1  0
  4 13  1  0
 13 14  1  0
 14 15  2  0
 15 16  1  0
 16 17  2  0
 17 18  1  0
 18 19  2  0
 19 20  1  0
 20 21  1  0
 21 22  1  0
 22 23  2  0
 23 24  1  0
 24 25  2  0
 25 26  1  0
 26 27  2  0
 19 28  1  0
 28 29  2  0
 29 30  1  0
 30 31  2  0
 15  2  1  0
 31 18  1  0
 11  5  1  0
 31 14  1  0
 27 22  1  0
  3 32  1  0
  6 33  1  0
  7 34  1  0
  9 35  1  0
 10 36  1  0
 16 37  1  0
 17 38  1  0
 21 39  1  0
 21 40  1  0
 23 41  1  0
 24 42  1  0
 25 43  1  0
 26 44  1  0
 27 45  1  0
 28 46  1  0
 29 47  1  0
 30 48  1  0
M  CHG  1  12  -1
M  END
>  <UniqueID>  (86) 
79

>  <SMILES>  (86) 
O=c1cc(-c2ccc(O)cc2[O-])oc2c1ccc1c(OCc3ccccc3)cccc12

>  <Energy>  (86) 
69.1222692249943

>  <Genealogy>  (86) 
O=c1cc(-c2ccc(O)cc2[O-])oc2c1ccc1c(OCc3ccccc3)cccc12 (protonated)
O=c1cc(-c2ccc(O)cc2[O-])oc2c1ccc1c(OCc3ccccc3)cccc12 (3D coordinates assigned)
O=c1cc(-c2ccc(O)cc2[O-])oc2c1ccc1c(OCc3ccccc3)cccc12 (optimized conformer: 69.1222692249943 kcal/mol)

>  <smiles>  (86) 
O=c1cc(-c2ccc(O)cc2O)oc2c1ccc1c(OCc3ccccc3)cccc12

>  <score_type>  (86) 
oracle

>  <origin>  (86) 
adg

>  <m_score__min__energy>  (86) 
-13.5

>  <m_primary>  (86) 
energy

$$$$
86:0
     RDKit          3D

 45 47  0  0  0  0  0  0  0  0999 V2000
   59.9910   28.9250   47.3000 C   0  0  0  0  0  0  0  0  0  0  0  0
   60.2750   30.3870   47.1610 C   0  0  0  0  0  0  0  0  0  0  0  0
   61.2500   31.0450   47.9070 C   0  0  0  0  0  0  0  0  0  0  0  0
   61.2030   32.6770   47.4960 S   0  0  0  0  0  0  0  0  0  0  0  0
   59.9490   32.4790   46.3970 C   0  0  0  0  0  0  0  0  0  0  0  0
   59.2010   33.8010   45.4460 S   0  0  0  0  0  0  0  0  0  0  0  0
   57.5440   33.0260   45.3460 C   0  0  0  0  0  0  0  0  0  0  0  0
   57.4570   32.0670   44.1570 C   0  0  0  0  0  0  0  0  0  0  0  0
   56.8880   30.7340   44.5660 C   0  0  0  0  0  0  0  0  0  0  0  0
   55.6430   30.5540   44.5010 O   0  0  0  0  0  0  0  0  0  0  0  0
   57.7070   29.7000   45.1260 N   0  0  0  0  0  0  0  0  0  0  0  0
   57.5460   28.2910   44.9220 C   0  0  0  0  0  0  0  0  0  0  0  0
   57.0350   27.4590   45.9260 C   0  0  0  0  0  0  0  0  0  0  0  0
   56.9120   26.0830   45.7120 C   0  0  0  0  0  0  0  0  0  0  0  0
   57.3130   25.4950   44.4880 C   0  0  0  0  0  0  0  0  0  0  0  0
   57.1770   24.0590   44.2570 N   0  0  0  0  0  0  0  0  0  0  0  0
   56.6340   23.5820   42.9680 C   0  0  0  0  0  0  0  0  0  0  0  0
   56.6440   22.0590   42.8290 C   0  0  0  0  0  0  0  0  0  0  0  0
   56.2900   21.4450   44.0440 O   0  0  0  0  0  0  0  0  0  0  0  0
   57.3380   21.6420   44.9620 C   0  0  0  0  0  0  0  0  0  0  0  0
   57.4540   23.1160   45.3630 C   0  0  0  0  0  0  0  0  0  0  0  0
   57.8620   26.3500   43.5020 C   0  0  0  0  0  0  0  0  0  0  0  0
   57.9800   27.7250   43.7230 C   0  0  0  0  0  0  0  0  0  0  0  0
   59.5490   31.1920   46.3390 N   0  0  0  0  0  0  0  0  0  0  0  0
   59.9398   28.6612   48.3667 H   0  0  0  0  0  0  0  0  0  0  0  0
   59.0305   28.6906   46.8178 H   0  0  0  0  0  0  0  0  0  0  0  0
   60.7939   28.3480   46.8178 H   0  0  0  0  0  0  0  0  0  0  0  0
   61.9304   30.5805   48.6359 H   0  0  0  0  0  0  0  0  0  0  0  0
   57.3520   32.4669   46.2737 H   0  0  0  0  0  0  0  0  0  0  0  0
   56.7940   33.8194   45.2114 H   0  0  0  0  0  0  0  0  0  0  0  0
   56.8100   32.5108   43.3860 H   0  0  0  0  0  0  0  0  0  0  0  0
   58.4732   31.9048   43.7683 H   0  0  0  0  0  0  0  0  0  0  0  0
   56.7282   27.8913   46.8898 H   0  0  0  0  0  0  0  0  0  0  0  0
   56.4969   25.4467   46.5075 H   0  0  0  0  0  0  0  0  0  0  0  0
   55.5957   23.9334   42.8760 H   0  0  0  0  0  0  0  0  0  0  0  0
   57.2818   23.9839   42.1750 H   0  0  0  0  0  0  0  0  0  0  0  0
   55.9240   21.7629   42.0519 H   0  0  0  0  0  0  0  0  0  0  0  0
   57.6588   21.7364   42.5530 H   0  0  0  0  0  0  0  0  0  0  0  0
   57.1447   21.0396   45.8618 H   0  0  0  0  0  0  0  0  0  0  0  0
   58.2807   21.3357   44.4851 H   0  0  0  0  0  0  0  0  0  0  0  0
   56.7372   23.3123   46.1739 H   0  0  0  0  0  0  0  0  0  0  0  0
   58.4962   23.2828   45.6730 H   0  0  0  0  0  0  0  0  0  0  0  0
   58.2014   25.9249   42.5459 H   0  0  0  0  0  0  0  0  0  0  0  0
   58.4189   28.3666   42.9447 H   0  0  0  0  0  0  0  0  0  0  0  0
   58.7710   30.8560   45.7280 H   0  0  0  0  0  0  0  0  0  0  0  0
  1  2  1  0
  2  3  2  0
  3  4  1  0
  4  5  1  0
  5  6  1  0
  6  7  1  0
  7  8  1  0
  8  9  1  0
  9 10  2  0
  9 11  1  0
 11 12  1  0
 12 13  2  0
 13 14  1  0
 14 15  2  0
 15 16  1  0
 16 17  1  0
 17 18  1  0
 18 19  1  0
 19 20  1  0
 20 21  1  0
 15 22  1  0
 22 23  2  0
  5 24  2  0
 24  2  1  0
 23 12  1  0
 21 16  1  0
  1 25  1  0
  1 26  1  0
  1 27  1  0
  3 28  1  0
  7 29  1  0
  7 30  1  0
  8 31  1  0
  8 32  1  0
 13 33  1  0
 14 34  1  0
 17 35  1  0
 17 36  1  0
 18 37  1  0
 18 38  1  0
 20 39  1  0
 20 40  1  0
 21 41  1  0
 21 42  1  0
 22 43  1  0
 23 44  1  0
 24 45  1  0
M  CHG  2  11  -1  24   1
M  END
>  <UniqueID>  (87) 
80

>  <SMILES>  (87) 
Cc1csc(SCCC(=O)[N-]c2ccc(N3CCOCC3)cc2)[nH+]1

>  <Energy>  (87) 
81.24350788048785

>  <Genealogy>  (87) 
Cc1csc(SCCC(=O)[N-]c2ccc(N3CCOCC3)cc2)[nH+]1 (protonated)
Cc1csc(SCCC(=O)[N-]c2ccc(N3CCOCC3)cc2)[nH+]1 (3D coordinates assigned)
Cc1csc(SCCC(=O)[N-]c2ccc(N3CCOCC3)cc2)[nH+]1 (nonaromatic ring conformer: 81.24350788048785 kcal/mol)

>  <smiles>  (87) 
Cc1csc(SCCC(=O)Nc2ccc(N3CCOCC3)cc2)n1

>  <score_type>  (87) 
oracle

>  <origin>  (87) 
adg

>  <m_score__min__energy>  (87) 
-8.4499999999999993

>  <m_primary>  (87) 
energy

$$$$
87:0
     RDKit          3D

 45 48  0  0  0  0  0  0  0  0999 V2000
   57.0892   31.2998   43.4422 H   0  0  0  0  0  0  0  0  0  0  0  0
   56.9710   31.2560   44.5350 C   0  0  0  0  0  0  0  0  0  0  0  0
   56.8480   32.3800   45.1840 N   0  0  0  0  0  0  0  0  0  0  0  0
   57.8960   33.2980   45.5340 C   0  0  0  0  0  0  0  0  0  0  0  0
   58.2500   34.3680   44.6930 C   0  0  0  0  0  0  0  0  0  0  0  0
   57.7409   34.4974   43.7265 H   0  0  0  0  0  0  0  0  0  0  0  0
   59.2460   35.2670   45.0810 C   0  0  0  0  0  0  0  0  0  0  0  0
   59.5247   36.0982   44.4166 H   0  0  0  0  0  0  0  0  0  0  0  0
   59.8890   35.1120   46.3120 C   0  0  0  0  0  0  0  0  0  0  0  0
   60.6726   35.8229   46.6129 H   0  0  0  0  0  0  0  0  0  0  0  0
   59.5420   34.0580   47.1640 C   0  0  0  0  0  0  0  0  0  0  0  0
   60.1960   33.9460   48.4000 O   0  0  0  0  0  0  0  0  0  0  0  0
   61.5580   33.6620   48.5740 C   0  0  0  0  0  0  0  0  0  0  0  0
   62.2240   33.9210   49.7870 C   0  0  0  0  0  0  0  0  0  0  0  0
   61.6764   34.3707   50.6284 H   0  0  0  0  0  0  0  0  0  0  0  0
   63.5800   33.6080   49.9250 C   0  0  0  0  0  0  0  0  0  0  0  0
   64.0988   33.8194   50.8716 H   0  0  0  0  0  0  0  0  0  0  0  0
   64.2770   33.0270   48.8620 C   0  0  0  0  0  0  0  0  0  0  0  0
   65.3454   32.7885   48.9696 H   0  0  0  0  0  0  0  0  0  0  0  0
   63.6160   32.7490   47.6620 C   0  0  0  0  0  0  0  0  0  0  0  0
   64.1627   32.2846   46.8281 H   0  0  0  0  0  0  0  0  0  0  0  0
   62.2600   33.0610   47.5210 C   0  0  0  0  0  0  0  0  0  0  0  0
   61.7417   32.8332   46.5779 H   0  0  0  0  0  0  0  0  0  0  0  0
   58.5200   33.1690   46.7820 C   0  0  0  0  0  0  0  0  0  0  0  0
   58.2089   32.3673   47.4679 H   0  0  0  0  0  0  0  0  0  0  0  0
   56.9610   29.9230   45.1820 C   0  0  0  0  0  0  0  0  0  0  0  0
   55.9420   28.9950   44.9260 C   0  0  0  0  0  0  0  0  0  0  0  0
   54.9140   29.2890   44.0370 O   0  0  0  0  0  0  0  0  0  0  0  0
   55.9660   27.7840   45.5320 N   0  0  0  0  0  0  0  0  0  0  0  0
   56.9680   27.4320   46.3770 C   0  0  0  0  0  0  0  0  0  0  0  0
   56.9450   26.2890   46.9090 O   0  0  0  0  0  0  0  0  0  0  0  0
   57.9960   28.3020   46.6300 N   0  0  0  0  0  0  0  0  0  0  0  0
   59.0640   27.9200   47.5220 C   0  0  0  0  0  0  0  0  0  0  0  0
   59.9110   26.8480   47.1960 C   0  0  0  0  0  0  0  0  0  0  0  0
   59.7599   26.2962   46.2565 H   0  0  0  0  0  0  0  0  0  0  0  0
   60.9450   26.4800   48.0610 C   0  0  0  0  0  0  0  0  0  0  0  0
   61.6058   25.6400   47.8008 H   0  0  0  0  0  0  0  0  0  0  0  0
   61.1410   27.1780   49.2570 C   0  0  0  0  0  0  0  0  0  0  0  0
   61.9550   26.8871   49.9373 H   0  0  0  0  0  0  0  0  0  0  0  0
   60.3010   28.2460   49.5870 C   0  0  0  0  0  0  0  0  0  0  0  0
   60.4554   28.7953   50.5274 H   0  0  0  0  0  0  0  0  0  0  0  0
   59.2660   28.6170   48.7250 C   0  0  0  0  0  0  0  0  0  0  0  0
   58.6072   29.4574   48.9890 H   0  0  0  0  0  0  0  0  0  0  0  0
   58.0060   29.5390   46.0370 C   0  0  0  0  0  0  0  0  0  0  0  0
   58.9450   30.3520   46.2740 O   0  0  0  0  0  0  0  0  0  0  0  0
  1  2  1  0
  2  3  2  0
  3  4  1  0
  4  5  2  0
  5  6  1  0
  5  7  1  0
  7  8  1  0
  7  9  2  0
  9 10  1  0
  9 11  1  0
 11 12  1  0
 12 13  1  0
 13 14  2  0
 14 15  1  0
 14 16  1  0
 16 17  1  0
 16 18  2  0
 18 19  1  0
 18 20  1  0
 20 21  1  0
 20 22  2  0
 22 23  1  0
 11 24  2  0
 24 25  1  0
  2 26  1  0
 26 27  2  0
 27 28  1  0
 27 29  1  0
 29 30  1  0
 30 31  2  0
 30 32  1  0
 32 33  1  0
 33 34  2  0
 34 35  1  0
 34 36  1  0
 36 37  1  0
 36 38  2  0
 38 39  1  0
 38 40  1  0
 40 41  1  0
 40 42  2  0
 42 43  1  0
 32 44  1  0
 44 45  2  0
 24  4  1  0
 44 26  1  0
 22 13  1  0
 42 33  1  0
M  CHG  2  28  -1  29  -1
M  END
>  <UniqueID>  (88) 
81

>  <SMILES>  (88) 
O=c1[n-]c([O-])c(/C=N\c2cccc(Oc3ccccc3)c2)c(=O)n1-c1ccccc1

>  <Energy>  (88) 
80.71624258268687

>  <Genealogy>  (88) 
O=c1[n-]c([O-])c(C=Nc2cccc(Oc3ccccc3)c2)c(=O)n1-c1ccccc1 (protonated)
O=c1[n-]c([O-])c(/C=N\c2cccc(Oc3ccccc3)c2)c(=O)n1-c1ccccc1 (cis-trans isomerization)
O=c1[n-]c([O-])c(/C=N\c2cccc(Oc3ccccc3)c2)c(=O)n1-c1ccccc1 (3D coordinates assigned)
O=c1[n-]c([O-])c(/C=N\c2cccc(Oc3ccccc3)c2)c(=O)n1-c1ccccc1 (optimized conformer: 80.71624258268687 kcal/mol)

>  <smiles>  (88) 
O=c1[nH]c(O)c(C=Nc2cccc(Oc3ccccc3)c2)c(=O)n1-c1ccccc1

>  <score_type>  (88) 
oracle

>  <origin>  (88) 
adg

>  <m_score__min__energy>  (88) 
-13.779999999999999

>  <m_primary>  (88) 
energy

$$$$
88:0
     RDKit          3D

 83 86  0  0  0  0  0  0  0  0999 V2000
   56.2760   30.2070   43.1990 C   0  0  0  0  0  0  0  0  0  0  0  0
   57.5650   30.8920   42.9990 N   0  0  0  0  0  0  0  0  0  0  0  0
   57.4110   31.9500   41.9870 C   0  0  0  0  0  0  0  0  0  0  0  0
   58.0660   31.4470   44.2760 C   0  0  0  0  0  0  0  0  0  0  0  0
   57.0050   32.3340   44.9440 C   0  0  0  0  0  0  0  0  0  0  0  0
   57.4920   33.7100   45.1310 N   0  0  0  0  0  0  0  0  0  0  0  0
   56.6270   34.8370   44.7630 C   0  0  0  0  0  0  0  0  0  0  0  0
   58.8560   33.9480   45.5400 C   0  0  0  0  0  0  0  0  0  0  0  0
   59.6890   34.3910   44.7060 O   0  0  0  0  0  0  0  0  0  0  0  0
   59.3070   33.7020   46.9260 C   0  0  0  0  0  0  0  0  0  0  0  0
   58.4380   33.1020   47.8540 C   0  0  0  0  0  0  0  0  0  0  0  0
   58.8650   32.8530   49.1610 C   0  0  0  0  0  0  0  0  0  0  0  0
   60.1530   33.2220   49.5590 C   0  0  0  0  0  0  0  0  0  0  0  0
   61.0130   33.8690   48.6620 C   0  0  0  0  0  0  0  0  0  0  0  0
   62.3390   34.2060   49.0940 N   0  0  0  0  0  0  0  0  0  0  0  0
   63.5300   33.4390   48.8710 C   0  0  0  0  0  0  0  0  0  0  0  0
   64.2590   33.7240   47.8830 O   0  0  0  0  0  0  0  0  0  0  0  0
   63.9070   32.2860   49.7680 C   0  0  0  0  0  0  0  0  0  0  0  0
   62.7010   31.4630   50.1470 C   0  0  0  0  0  0  0  0  0  0  0  0
   62.1710   31.5420   51.4440 C   0  0  0  0  0  0  0  0  0  0  0  0
   61.0610   30.7740   51.7990 C   0  0  0  0  0  0  0  0  0  0  0  0
   60.4850   29.9040   50.8700 C   0  0  0  0  0  0  0  0  0  0  0  0
   61.0230   29.7820   49.5810 C   0  0  0  0  0  0  0  0  0  0  0  0
   60.4060   28.8800   48.6460 N   0  0  0  0  0  0  0  0  0  0  0  0
   59.8750   29.2730   47.3710 C   0  0  0  0  0  0  0  0  0  0  0  0
   59.9220   30.4800   47.0030 O   0  0  0  0  0  0  0  0  0  0  0  0
   59.3870   28.2180   46.4090 C   0  0  2  0  0  0  0  0  0  0  0  0
   59.4320   28.7580   44.9660 C   0  0  0  0  0  0  0  0  0  0  0  0
   58.6890   27.8650   43.9480 C   0  0  0  0  0  0  0  0  0  0  0  0
   58.2360   26.5220   44.5300 C   0  0  0  0  0  0  0  0  0  0  0  0
   57.4880   26.7330   45.7810 N   0  0  0  0  0  0  0  0  0  0  0  0
   56.3010   25.9700   46.0900 C   0  0  0  0  0  0  0  0  0  0  0  0
   55.1700   26.5220   45.9940 O   0  0  0  0  0  0  0  0  0  0  0  0
   56.3810   24.5110   46.4760 C   0  0  0  0  0  0  0  0  0  0  0  0
   56.5490   23.6100   45.2780 C   0  0  0  0  0  0  0  0  0  0  0  0
   57.4720   22.5510   45.3130 C   0  0  0  0  0  0  0  0  0  0  0  0
   57.6430   21.7250   44.1980 C   0  0  0  0  0  0  0  0  0  0  0  0
   56.9000   21.9580   43.0380 C   0  0  0  0  0  0  0  0  0  0  0  0
   55.9880   23.0170   42.9900 C   0  0  0  0  0  0  0  0  0  0  0  0
   55.8140   23.8460   44.1030 C   0  0  0  0  0  0  0  0  0  0  0  0
   57.9760   27.7120   46.7670 C   0  0  0  0  0  0  0  0  0  0  0  0
   62.1240   30.5810   49.2160 C   0  0  0  0  0  0  0  0  0  0  0  0
   60.5900   34.0930   47.3410 C   0  0  0  0  0  0  0  0  0  0  0  0
   56.0795   30.1026   44.2763 H   0  0  0  0  0  0  0  0  0  0  0  0
   55.4716   30.7966   42.7350 H   0  0  0  0  0  0  0  0  0  0  0  0
   56.3145   29.2104   42.7350 H   0  0  0  0  0  0  0  0  0  0  0  0
   57.2700   32.9190   42.4881 H   0  0  0  0  0  0  0  0  0  0  0  0
   58.3128   31.9901   41.3583 H   0  0  0  0  0  0  0  0  0  0  0  0
   56.5352   31.7314   41.3583 H   0  0  0  0  0  0  0  0  0  0  0  0
   58.3205   30.6184   44.9532 H   0  0  0  0  0  0  0  0  0  0  0  0
   58.9548   32.0604   44.0670 H   0  0  0  0  0  0  0  0  0  0  0  0
   56.1066   32.3560   44.3096 H   0  0  0  0  0  0  0  0  0  0  0  0
   56.7756   31.9118   45.9335 H   0  0  0  0  0  0  0  0  0  0  0  0
   56.2525   35.3249   45.6750 H   0  0  0  0  0  0  0  0  0  0  0  0
   57.2025   35.5623   44.1691 H   0  0  0  0  0  0  0  0  0  0  0  0
   55.7776   34.4686   44.1691 H   0  0  0  0  0  0  0  0  0  0  0  0
   57.4172   32.8273   47.5498 H   0  0  0  0  0  0  0  0  0  0  0  0
   58.1868   32.3661   49.8773 H   0  0  0  0  0  0  0  0  0  0  0  0
   60.4933   33.0033   50.5819 H   0  0  0  0  0  0  0  0  0  0  0  0
   64.6269   31.6432   49.2403 H   0  0  0  0  0  0  0  0  0  0  0  0
   64.3487   32.6951   50.6886 H   0  0  0  0  0  0  0  0  0  0  0  0
   62.6325   32.2122   52.1842 H   0  0  0  0  0  0  0  0  0  0  0  0
   60.6391   30.8538   52.8117 H   0  0  0  0  0  0  0  0  0  0  0  0
   59.6029   29.3103   51.1519 H   0  0  0  0  0  0  0  0  0  0  0  0
   60.4480   27.8560   48.8630 H   0  0  0  0  0  0  0  0  0  0  0  0
   60.0621   27.3531   46.4885 H   0  0  0  0  0  0  0  0  0  0  0  0
   58.9711   29.7567   44.9539 H   0  0  0  0  0  0  0  0  0  0  0  0
   60.4892   28.7814   44.6632 H   0  0  0  0  0  0  0  0  0  0  0  0
   57.8008   28.4076   43.5919 H   0  0  0  0  0  0  0  0  0  0  0  0
   59.3961   27.6435   43.1350 H   0  0  0  0  0  0  0  0  0  0  0  0
   57.5888   26.0109   43.8021 H   0  0  0  0  0  0  0  0  0  0  0  0
   59.1228   25.9070   44.7429 H   0  0  0  0  0  0  0  0  0  0  0  0
   57.2402   24.3696   47.1482 H   0  0  0  0  0  0  0  0  0  0  0  0
   55.4358   24.2414   46.9698 H   0  0  0  0  0  0  0  0  0  0  0  0
   58.0634   22.3709   46.2229 H   0  0  0  0  0  0  0  0  0  0  0  0
   58.3615   20.8929   44.2340 H   0  0  0  0  0  0  0  0  0  0  0  0
   57.0326   21.3074   42.1610 H   0  0  0  0  0  0  0  0  0  0  0  0
   55.4059   23.1985   42.0745 H   0  0  0  0  0  0  0  0  0  0  0  0
   55.1017   24.6831   44.0590 H   0  0  0  0  0  0  0  0  0  0  0  0
   57.2853   28.5677   46.7932 H   0  0  0  0  0  0  0  0  0  0  0  0
   58.0249   27.2183   47.7488 H   0  0  0  0  0  0  0  0  0  0  0  0
   62.5346   30.5148   48.1976 H   0  0  0  0  0  0  0  0  0  0  0  0
   61.2699   34.5789   46.6257 H   0  0  0  0  0  0  0  0  0  0  0  0
  1  2  1  0
  2  3  1  0
  2  4  1  0
  4  5  1  0
  5  6  1  0
  6  7  1  0
  6  8  1  0
  8  9  2  0
  8 10  1  0
 10 11  2  0
 11 12  1  0
 12 13  2  0
 13 14  1  0
 14 15  1  0
 15 16  1  0
 16 17  2  0
 16 18  1  0
 18 19  1  0
 19 20  2  0
 20 21  1  0
 21 22  2  0
 22 23  1  0
 23 24  1  0
 24 25  1  0
 25 26  2  0
 25 27  1  0
 27 28  1  0
 28 29  1  0
 29 30  1  0
 30 31  1  0
 31 32  1  0
 32 33  2  0
 32 34  1  0
 34 35  1  0
 35 36  2  0
 36 37  1  0
 37 38  2  0
 38 39  1  0
 39 40  2  0
 31 41  1  0
 23 42  2  0
 14 43  2  0
 43 10  1  0
 42 19  1  0
 41 27  1  0
 40 35  1  0
  1 44  1  0
  1 45  1  0
  1 46  1  0
  3 47  1  0
  3 48  1  0
  3 49  1  0
  4 50  1  0
  4 51  1  0
  5 52  1  0
  5 53  1  0
  7 54  1  0
  7 55  1  0
  7 56  1  0
 11 57  1  0
 12 58  1  0
 13 59  1  0
 18 60  1  0
 18 61  1  0
 20 62  1  0
 21 63  1  0
 22 64  1  0
 24 65  1  0
 27 66  1  6
 28 67  1  0
 28 68  1  0
 29 69  1  0
 29 70  1  0
 30 71  1  0
 30 72  1  0
 34 73  1  0
 34 74  1  0
 36 75  1  0
 37 76  1  0
 38 77  1  0
 39 78  1  0
 40 79  1  0
 41 80  1  0
 41 81  1  0
 42 82  1  0
 43 83  1  0
M  CHG  1  15  -1
M  END
>  <UniqueID>  (89) 
82

>  <SMILES>  (89) 
CN(C)CCN(C)C(=O)c1cccc([N-]C(=O)Cc2cccc(NC(=O)[C@@H]3CCCN(C(=O)Cc4ccccc4)C3)c2)c1

>  <Energy>  (89) 
98.14587873643522

>  <Genealogy>  (89) 
CN(C)CCN(C)C(=O)c1cccc([N-]C(=O)Cc2cccc(NC(=O)C3CCCN(C(=O)Cc4ccccc4)C3)c2)c1 (protonated)
CN(C)CCN(C)C(=O)c1cccc([N-]C(=O)Cc2cccc(NC(=O)[C@@H]3CCCN(C(=O)Cc4ccccc4)C3)c2)c1 (chirality)
CN(C)CCN(C)C(=O)c1cccc([N-]C(=O)Cc2cccc(NC(=O)[C@@H]3CCCN(C(=O)Cc4ccccc4)C3)c2)c1 (3D coordinates assigned)
CN(C)CCN(C)C(=O)c1cccc([N-]C(=O)Cc2cccc(NC(=O)[C@@H]3CCCN(C(=O)Cc4ccccc4)C3)c2)c1 (nonaromatic ring conformer: 98.14587873643522 kcal/mol)

>  <smiles>  (89) 
CN(C)CCN(C)C(=O)c1cccc(NC(=O)Cc2cccc(NC(=O)C3CCCN(C(=O)Cc4ccccc4)C3)c2)c1

>  <score_type>  (89) 
oracle

>  <origin>  (89) 
adg

>  <m_score__min__energy>  (89) 
-11.98

>  <m_primary>  (89) 
energy

$$$$
89:0
     RDKit          3D

 59 63  0  0  0  0  0  0  0  0999 V2000
   58.9950   26.2260   47.0610 O   0  0  0  0  0  0  0  0  0  0  0  0
   57.8870   26.0690   46.4870 C   0  0  0  0  0  0  0  0  0  0  0  0
   57.6510   26.7070   45.1570 C   0  0  0  0  0  0  0  0  0  0  0  0
   56.6310   27.6990   45.2680 O   0  0  0  0  0  0  0  0  0  0  0  0
   56.8520   29.0770   45.1480 C   0  0  0  0  0  0  0  0  0  0  0  0
   58.0360   29.6150   45.6680 C   0  0  0  0  0  0  0  0  0  0  0  0
   58.3080   30.9770   45.5390 C   0  0  0  0  0  0  0  0  0  0  0  0
   57.3780   31.8050   44.8930 C   0  0  0  0  0  0  0  0  0  0  0  0
   57.6550   33.2620   44.6660 C   0  0  0  0  0  0  0  0  0  0  0  0
   59.0540   33.5180   44.8030 O   0  0  0  0  0  0  0  0  0  0  0  0
   59.7560   33.5360   46.0170 C   0  0  0  0  0  0  0  0  0  0  0  0
   59.0330   33.3820   47.1980 C   0  0  0  0  0  0  0  0  0  0  0  0
   59.6730   33.4370   48.4340 C   0  0  0  0  0  0  0  0  0  0  0  0
   61.0650   33.6280   48.5220 C   0  0  0  0  0  0  0  0  0  0  0  0
   61.8060   33.7810   47.3340 C   0  0  0  0  0  0  0  0  0  0  0  0
   61.1510   33.7140   46.0910 C   0  0  0  0  0  0  0  0  0  0  0  0
   63.2910   34.0140   47.3680 C   0  0  0  0  0  0  0  0  0  0  0  0
   64.0000   32.7720   47.9010 C   0  0  0  0  0  0  0  0  0  0  0  0
   63.9820   32.7310   49.3630 N   0  0  0  0  0  0  0  0  0  0  0  0
   64.9810   32.2140   50.1120 C   0  0  0  0  0  0  0  0  0  0  0  0
   64.6610   32.2900   51.4490 C   0  0  0  0  0  0  0  0  0  0  0  0
   63.4160   32.8760   51.5210 C   0  0  0  0  0  0  0  0  0  0  0  0
   63.0040   33.1170   50.2200 C   0  0  0  0  0  0  0  0  0  0  0  0
   61.6820   33.6980   49.8710 C   0  0  0  0  0  0  0  0  0  0  0  0
   61.0120   34.2210   50.7970 O   0  0  0  0  0  0  0  0  0  0  0  0
   56.2280   31.2650   44.3950 N   0  0  0  0  0  0  0  0  0  0  0  0
   55.9400   29.9410   44.5100 C   0  0  0  0  0  0  0  0  0  0  0  0
   56.8630   25.3180   47.1410 N   0  0  0  0  0  0  0  0  0  0  0  0
   55.5770   24.5530   46.2670 S   0  0  0  0  0  0  0  0  0  0  0  0
   54.6950   25.6040   45.6560 O   0  0  0  0  0  0  0  0  0  0  0  0
   54.7530   23.7560   47.2390 O   0  0  0  0  0  0  0  0  0  0  0  0
   56.1820   23.4820   45.0010 C   0  0  0  0  0  0  0  0  0  0  0  0
   57.2690   22.6360   45.2670 C   0  0  0  0  0  0  0  0  0  0  0  0
   57.7620   21.7930   44.2610 C   0  0  0  0  0  0  0  0  0  0  0  0
   57.1960   21.8200   42.9860 C   0  0  0  0  0  0  0  0  0  0  0  0
   56.1200   22.6690   42.7120 C   0  0  0  0  0  0  0  0  0  0  0  0
   55.6040   23.4870   43.7170 C   0  0  0  0  0  0  0  0  0  0  0  0
   58.5817   27.1784   44.8083 H   0  0  0  0  0  0  0  0  0  0  0  0
   57.3315   25.9381   44.4382 H   0  0  0  0  0  0  0  0  0  0  0  0
   58.7554   28.9598   46.1810 H   0  0  0  0  0  0  0  0  0  0  0  0
   59.2421   31.3975   45.9397 H   0  0  0  0  0  0  0  0  0  0  0  0
   57.3306   33.5414   43.6528 H   0  0  0  0  0  0  0  0  0  0  0  0
   57.1036   33.8557   45.4099 H   0  0  0  0  0  0  0  0  0  0  0  0
   57.9466   33.2154   47.1539 H   0  0  0  0  0  0  0  0  0  0  0  0
   59.0817   33.3296   49.3553 H   0  0  0  0  0  0  0  0  0  0  0  0
   61.7365   33.8019   45.1639 H   0  0  0  0  0  0  0  0  0  0  0  0
   63.6496   34.2303   46.3508 H   0  0  0  0  0  0  0  0  0  0  0  0
   63.5086   34.8664   48.0283 H   0  0  0  0  0  0  0  0  0  0  0  0
   63.4934   31.8765   47.5120 H   0  0  0  0  0  0  0  0  0  0  0  0
   65.0483   32.8037   47.5693 H   0  0  0  0  0  0  0  0  0  0  0  0
   65.9150   31.7932   49.7113 H   0  0  0  0  0  0  0  0  0  0  0  0
   65.2780   31.9498   52.2937 H   0  0  0  0  0  0  0  0  0  0  0  0
   62.8550   33.1086   52.4381 H   0  0  0  0  0  0  0  0  0  0  0  0
   54.9967   29.5452   44.1056 H   0  0  0  0  0  0  0  0  0  0  0  0
   57.7341   22.6340   46.2638 H   0  0  0  0  0  0  0  0  0  0  0  0
   58.5962   21.1094   44.4772 H   0  0  0  0  0  0  0  0  0  0  0  0
   57.5978   21.1711   42.1939 H   0  0  0  0  0  0  0  0  0  0  0  0
   55.6802   22.6920   41.7040 H   0  0  0  0  0  0  0  0  0  0  0  0
   54.7429   24.1380   43.5059 H   0  0  0  0  0  0  0  0  0  0  0  0
  1  2  2  0
  2  3  1  0
  3  4  1  0
  4  5  1  0
  5  6  2  0
  6  7  1  0
  7  8  2  0
  8  9  1  0
  9 10  1  0
 10 11  1  0
 11 12  2  0
 12 13  1  0
 13 14  2  0
 14 15  1  0
 15 16  2  0
 15 17  1  0
 17 18  1  0
 18 19  1  0
 19 20  1  0
 20 21  2  0
 21 22  1  0
 22 23  2  0
 23 24  1  0
 24 25  2  0
  8 26  1  0
 26 27  2  0
  2 28  1  0
 28 29  1  0
 29 30  2  0
 29 31  2  0
 29 32  1  0
 32 33  2  0
 33 34  1  0
 34 35  2  0
 35 36  1  0
 36 37  2  0
 27  5  1  0
 37 32  1  0
 16 11  1  0
 23 19  1  0
 24 14  1  0
  3 38  1  0
  3 39  1  0
  6 40  1  0
  7 41  1  0
  9 42  1  0
  9 43  1  0
 12 44  1  0
 13 45  1  0
 16 46  1  0
 17 47  1  0
 17 48  1  0
 18 49  1  0
 18 50  1  0
 20 51  1  0
 21 52  1  0
 22 53  1  0
 27 54  1  0
 33 55  1  0
 34 56  1  0
 35 57  1  0
 36 58  1  0
 37 59  1  0
M  CHG  1  28  -1
M  END
>  <UniqueID>  (90) 
83

>  <SMILES>  (90) 
O=C(COc1ccc(COc2ccc3c(c2)CCn2cccc2C3=O)nc1)[N-]S(=O)(=O)c1ccccc1

>  <Energy>  (90) 
102.7245679888189

>  <Genealogy>  (90) 
O=C(COc1ccc(COc2ccc3c(c2)CCn2cccc2C3=O)nc1)[N-]S(=O)(=O)c1ccccc1 (protonated)
O=C(COc1ccc(COc2ccc3c(c2)CCn2cccc2C3=O)nc1)[N-]S(=O)(=O)c1ccccc1 (3D coordinates assigned)
O=C(COc1ccc(COc2ccc3c(c2)CCn2cccc2C3=O)nc1)[N-]S(=O)(=O)c1ccccc1 (nonaromatic ring conformer: 102.7245679888189 kcal/mol)

>  <smiles>  (90) 
O=C(COc1ccc(COc2ccc3c(c2)CCn2cccc2C3=O)nc1)NS(=O)(=O)c1ccccc1

>  <score_type>  (90) 
oracle

>  <origin>  (90) 
adg

>  <m_score__min__energy>  (90) 
-10.24

>  <m_primary>  (90) 
energy

$$$$
90:0
     RDKit          3D

 35 36  0  0  0  0  0  0  0  0999 V2000
   59.9450   31.7090   47.5980 N   0  0  0  0  0  0  0  0  0  0  0  0
   59.1250   32.9600   48.4640 S   0  0  0  0  0  0  0  0  0  0  0  0
   57.6420   32.7290   48.3970 O   0  0  0  0  0  0  0  0  0  0  0  0
   59.4470   34.2860   47.8340 O   0  0  0  0  0  0  0  0  0  0  0  0
   59.6600   32.9790   50.1660 C   0  0  0  0  0  0  0  0  0  0  0  0
   58.6640   32.2730   51.0440 C   0  0  0  0  0  0  0  0  0  0  0  0
   58.5510   30.8740   51.0050 C   0  0  0  0  0  0  0  0  0  0  0  0
   57.6110   30.2210   51.8060 C   0  0  0  0  0  0  0  0  0  0  0  0
   56.7620   30.9570   52.6460 C   0  0  0  0  0  0  0  0  0  0  0  0
   55.7680   30.2780   53.4980 C   0  0  0  0  0  0  0  0  0  0  0  0
   55.6760   30.6050   54.7100 O   0  0  0  0  0  0  0  0  0  0  0  0
   54.8760   29.2820   52.9800 N   0  0  0  0  0  0  0  0  0  0  0  0
   54.1000   29.3930   51.7460 C   0  0  0  0  0  0  0  0  0  0  0  0
   53.0140   30.4270   51.8870 C   0  0  0  0  0  0  0  0  0  0  0  0
   52.4920   30.7330   53.1550 C   0  0  0  0  0  0  0  0  0  0  0  0
   51.4960   31.7040   53.2910 C   0  0  0  0  0  0  0  0  0  0  0  0
   51.0060   32.3710   52.1650 C   0  0  0  0  0  0  0  0  0  0  0  0
   50.0160   33.3350   52.3080 O   0  0  0  0  0  0  0  0  0  0  0  0
   51.5130   32.0640   50.8960 C   0  0  0  0  0  0  0  0  0  0  0  0
   51.0220   32.7170   49.7720 O   0  0  0  0  0  0  0  0  0  0  0  0
   52.5130   31.0960   50.7570 C   0  0  0  0  0  0  0  0  0  0  0  0
   56.8800   32.3540   52.6910 C   0  0  0  0  0  0  0  0  0  0  0  0
   57.8170   33.0080   51.8870 C   0  0  0  0  0  0  0  0  0  0  0  0
   59.6140   30.7980   47.9840 H   0  0  0  0  0  0  0  0  0  0  0  0
   60.6333   32.4725   50.2443 H   0  0  0  0  0  0  0  0  0  0  0  0
   59.7460   34.0241   50.4981 H   0  0  0  0  0  0  0  0  0  0  0  0
   59.2052   30.2898   50.3411 H   0  0  0  0  0  0  0  0  0  0  0  0
   57.5361   29.1239   51.7779 H   0  0  0  0  0  0  0  0  0  0  0  0
   54.7702   29.6840   50.9237 H   0  0  0  0  0  0  0  0  0  0  0  0
   53.6338   28.4194   51.5344 H   0  0  0  0  0  0  0  0  0  0  0  0
   52.8687   30.2063   54.0442 H   0  0  0  0  0  0  0  0  0  0  0  0
   51.0966   31.9439   54.2874 H   0  0  0  0  0  0  0  0  0  0  0  0
   52.9091   30.8573   49.7589 H   0  0  0  0  0  0  0  0  0  0  0  0
   56.2321   32.9371   53.3621 H   0  0  0  0  0  0  0  0  0  0  0  0
   57.8910   34.1051   51.9151 H   0  0  0  0  0  0  0  0  0  0  0  0
  1  2  1  0
  2  3  2  0
  2  4  2  0
  2  5  1  0
  5  6  1  0
  6  7  2  0
  7  8  1  0
  8  9  2  0
  9 10  1  0
 10 11  2  0
 10 12  1  0
 12 13  1  0
 13 14  1  0
 14 15  2  0
 15 16  1  0
 16 17  2  0
 17 18  1  0
 17 19  1  0
 19 20  1  0
 19 21  2  0
  9 22  1  0
 22 23  2  0
 23  6  1  0
 21 14  1  0
  1 24  1  0
  5 25  1  0
  5 26  1  0
  7 27  1  0
  8 28  1  0
 13 29  1  0
 13 30  1  0
 15 31  1  0
 16 32  1  0
 21 33  1  0
 22 34  1  0
 23 35  1  0
M  CHG  4   1  -1  12  -1  18  -1  20  -1
M  END
>  <UniqueID>  (91) 
84

>  <SMILES>  (91) 
[NH-]S(=O)(=O)Cc1ccc(C(=O)[N-]Cc2ccc([O-])c([O-])c2)cc1

>  <Energy>  (91) 
30.874742122897317

>  <Genealogy>  (91) 
[NH-]S(=O)(=O)Cc1ccc(C(=O)[N-]Cc2ccc([O-])c([O-])c2)cc1 (protonated)
[NH-]S(=O)(=O)Cc1ccc(C(=O)[N-]Cc2ccc([O-])c([O-])c2)cc1 (3D coordinates assigned)
[NH-]S(=O)(=O)Cc1ccc(C(=O)[N-]Cc2ccc([O-])c([O-])c2)cc1 (optimized conformer: 30.874742122897317 kcal/mol)

>  <smiles>  (91) 
NS(=O)(=O)Cc1ccc(C(=O)NCc2ccc(O)c(O)c2)cc1

>  <score_type>  (91) 
oracle

>  <origin>  (91) 
adg

>  <m_score__min__energy>  (91) 
-16.969999999999999

>  <m_primary>  (91) 
energy

$$$$
91:0
     RDKit          3D

 38 40  0  0  0  0  0  0  0  0999 V2000
   55.1450   26.5710   46.7930 H   0  0  0  0  0  0  0  0  0  0  0  0
   55.7660   26.6600   45.9570 N   0  0  0  0  0  0  0  0  0  0  0  0
   56.2730   27.7970   45.6100 C   0  0  0  0  0  0  0  0  0  0  0  0
   57.5560   28.0920   45.9420 N   0  0  0  0  0  0  0  0  0  0  0  0
   58.1290   29.2760   45.5980 C   0  0  0  0  0  0  0  0  0  0  0  0
   59.5470   29.5240   46.0220 C   0  0  0  0  0  0  0  0  0  0  0  0
   59.6048   29.5341   47.1204 H   0  0  0  0  0  0  0  0  0  0  0  0
   60.1925   28.7251   45.6282 H   0  0  0  0  0  0  0  0  0  0  0  0
   59.8831   30.4946   45.6282 H   0  0  0  0  0  0  0  0  0  0  0  0
   57.3740   30.2280   44.8710 C   0  0  0  0  0  0  0  0  0  0  0  0
   57.9330   31.5350   44.4430 C   0  0  0  0  0  0  0  0  0  0  0  0
   58.1990   32.5370   45.2490 O   0  0  0  0  0  0  0  0  0  0  0  0
   58.6690   33.4890   44.4770 C   0  0  0  0  0  0  0  0  0  0  0  0
   59.0760   34.8430   44.9640 C   0  0  0  0  0  0  0  0  0  0  0  0
   59.7223   35.3201   44.2126 H   0  0  0  0  0  0  0  0  0  0  0  0
   58.1744   35.4521   45.1254 H   0  0  0  0  0  0  0  0  0  0  0  0
   59.8130   34.7270   46.2380 N   0  0  0  0  0  0  0  0  0  0  0  0
   60.9400   33.7750   46.0960 C   0  0  0  0  0  0  0  0  0  0  0  0
   60.5713   32.8649   45.6001 H   0  0  0  0  0  0  0  0  0  0  0  0
   61.7223   34.2728   45.5042 H   0  0  0  0  0  0  0  0  0  0  0  0
   61.5630   33.3800   47.4540 C   0  0  0  0  0  0  0  0  0  0  0  0
   61.2172   32.3718   47.7258 H   0  0  0  0  0  0  0  0  0  0  0  0
   62.6579   33.4048   47.3509 H   0  0  0  0  0  0  0  0  0  0  0  0
   61.1640   34.3570   48.5610 C   0  0  0  0  0  0  0  0  0  0  0  0
   61.5884   34.0118   49.5153 H   0  0  0  0  0  0  0  0  0  0  0  0
   61.5516   35.3540   48.3045 H   0  0  0  0  0  0  0  0  0  0  0  0
   59.6340   34.4460   48.6940 C   0  0  0  0  0  0  0  0  0  0  0  0
   59.2896   33.6396   49.3582 H   0  0  0  0  0  0  0  0  0  0  0  0
   59.3899   35.4373   49.1036 H   0  0  0  0  0  0  0  0  0  0  0  0
   58.9180   34.3090   47.3370 C   0  0  0  0  0  0  0  0  0  0  0  0
   58.6246   33.2596   47.1863 H   0  0  0  0  0  0  0  0  0  0  0  0
   58.0271   34.9543   47.3368 H   0  0  0  0  0  0  0  0  0  0  0  0
   58.7040   33.1080   43.1850 N   0  0  0  0  0  0  0  0  0  0  0  0
   58.2420   31.8690   43.1750 N   0  0  0  0  0  0  0  0  0  0  0  0
   58.1250   31.2930   42.3120 H   0  0  0  0  0  0  0  0  0  0  0  0
   56.0490   29.8950   44.5470 C   0  0  0  0  0  0  0  0  0  0  0  0
   55.4268   30.6100   43.9887 H   0  0  0  0  0  0  0  0  0  0  0  0
   55.5310   28.6970   44.9180 N   0  0  0  0  0  0  0  0  0  0  0  0
  1  2  1  0
  2  3  2  0
  3  4  1  0
  4  5  2  0
  5  6  1  0
  6  7  1  0
  6  8  1  0
  6  9  1  0
  5 10  1  0
 10 11  1  0
 11 12  1  0
 12 13  1  0
 13 14  1  0
 14 15  1  0
 14 16  1  0
 14 17  1  0
 17 18  1  0
 18 19  1  0
 18 20  1  0
 18 21  1  0
 21 22  1  0
 21 23  1  0
 21 24  1  0
 24 25  1  0
 24 26  1  0
 24 27  1  0
 27 28  1  0
 27 29  1  0
 27 30  1  0
 30 31  1  0
 30 32  1  0
 13 33  2  0
 33 34  1  0
 34 35  1  0
 10 36  2  0
 36 37  1  0
 36 38  1  0
 38  3  1  0
 34 11  2  0
 30 17  1  0
M  CHG  2  34   1  38  -1
M  END
>  <UniqueID>  (92) 
85

>  <SMILES>  (92) 
[H]/N=c1/nc(C)c(-c2[nH+]nc(CN3CCCCC3)o2)c[n-]1

>  <Energy>  (92) 
80.91830836824477

>  <Genealogy>  (92) 
Cc1nc(=N)[n-]cc1-c1[nH+]nc(CN2CCCCC2)o1 (protonated)
[H]/N=c1/nc(C)c(-c2[nH+]nc(CN3CCCCC3)o2)c[n-]1 (cis-trans isomerization)
[H]/N=c1/nc(C)c(-c2[nH+]nc(CN3CCCCC3)o2)c[n-]1 (3D coordinates assigned)
[H]/N=c1/nc(C)c(-c2[nH+]nc(CN3CCCCC3)o2)c[n-]1 (nonaromatic ring conformer: 80.91830836824477 kcal/mol)

>  <smiles>  (92) 
Cc1nc(=N)[nH]cc1-c1nnc(CN2CCCCC2)o1

>  <score_type>  (92) 
oracle

>  <origin>  (92) 
adg

>  <m_score__min__energy>  (92) 
-7.5199999999999996

>  <m_primary>  (92) 
energy

$$$$
92:0
     RDKit          3D

 31 33  0  0  0  0  0  0  0  0999 V2000
   60.8830   28.2010   45.4830 O   0  0  0  0  0  0  0  0  0  0  0  0
   59.6610   28.4840   45.3640 C   0  0  0  0  0  0  0  0  0  0  0  0
   59.2710   29.8060   44.8460 C   0  0  0  0  0  0  0  0  0  0  0  0
   57.9880   30.1600   44.6990 C   0  0  0  0  0  0  0  0  0  0  0  0
   57.7360   31.4490   44.1960 O   0  0  0  0  0  0  0  0  0  0  0  0
   57.0260   32.4820   44.8690 C   0  0  0  0  0  0  0  0  0  0  0  0
   57.9810   33.2480   45.7360 C   0  0  0  0  0  0  0  0  0  0  0  0
   58.7380   34.3020   45.1970 C   0  0  0  0  0  0  0  0  0  0  0  0
   59.6560   34.9900   45.9970 C   0  0  0  0  0  0  0  0  0  0  0  0
   59.8350   34.6230   47.3330 C   0  0  0  0  0  0  0  0  0  0  0  0
   59.0990   33.5650   47.8710 C   0  0  0  0  0  0  0  0  0  0  0  0
   58.1790   32.8730   47.0760 C   0  0  0  0  0  0  0  0  0  0  0  0
   56.9080   29.1950   45.0680 C   0  0  0  0  0  0  0  0  0  0  0  0
   55.6940   29.5060   44.9370 O   0  0  0  0  0  0  0  0  0  0  0  0
   57.2650   27.8530   45.5920 C   0  0  0  0  0  0  0  0  0  0  0  0
   56.2750   26.9230   45.9480 C   0  0  0  0  0  0  0  0  0  0  0  0
   56.6510   25.6710   46.4390 C   0  0  0  0  0  0  0  0  0  0  0  0
   55.7730   24.8280   46.7610 O   0  0  0  0  0  0  0  0  0  0  0  0
   57.9670   25.3570   46.5700 N   0  0  0  0  0  0  0  0  0  0  0  0
   58.9490   26.2350   46.2350 C   0  0  0  0  0  0  0  0  0  0  0  0
   58.6190   27.5050   45.7370 C   0  0  0  0  0  0  0  0  0  0  0  0
   60.0574   30.5245   44.5715 H   0  0  0  0  0  0  0  0  0  0  0  0
   56.5738   33.1601   44.1303 H   0  0  0  0  0  0  0  0  0  0  0  0
   56.2317   32.0424   45.4902 H   0  0  0  0  0  0  0  0  0  0  0  0
   58.6082   34.5869   44.1425 H   0  0  0  0  0  0  0  0  0  0  0  0
   60.2382   35.8217   45.5734 H   0  0  0  0  0  0  0  0  0  0  0  0
   60.5556   35.1673   47.9612 H   0  0  0  0  0  0  0  0  0  0  0  0
   59.2430   33.2751   48.9223 H   0  0  0  0  0  0  0  0  0  0  0  0
   57.6092   32.0334   47.5007 H   0  0  0  0  0  0  0  0  0  0  0  0
   55.2106   27.1790   45.8408 H   0  0  0  0  0  0  0  0  0  0  0  0
   60.0046   25.9496   46.3544 H   0  0  0  0  0  0  0  0  0  0  0  0
  1  2  2  0
  2  3  1  0
  3  4  2  0
  4  5  1  0
  5  6  1  0
  6  7  1  0
  7  8  2  0
  8  9  1  0
  9 10  2  0
 10 11  1  0
 11 12  2  0
  4 13  1  0
 13 14  2  0
 13 15  1  0
 15 16  2  0
 16 17  1  0
 17 18  2  0
 17 19  1  0
 19 20  1  0
 20 21  2  0
 21  2  1  0
 12  7  1  0
 21 15  1  0
  3 22  1  0
  6 23  1  0
  6 24  1  0
  8 25  1  0
  9 26  1  0
 10 27  1  0
 11 28  1  0
 12 29  1  0
 16 30  1  0
 20 31  1  0
M  CHG  1  19  -1
M  END
>  <UniqueID>  (93) 
86

>  <SMILES>  (93) 
O=C1C=C(OCc2ccccc2)C(=O)c2cc(=O)[n-]cc21

>  <Energy>  (93) 
36.83157554226453

>  <Genealogy>  (93) 
O=C1C=C(OCc2ccccc2)C(=O)c2cc(=O)[n-]cc21 (protonated)
O=C1C=C(OCc2ccccc2)C(=O)c2cc(=O)[n-]cc21 (3D coordinates assigned)
O=C1C=C(OCc2ccccc2)C(=O)c2cc(=O)[n-]cc21 (nonaromatic ring conformer: 36.83157554226453 kcal/mol)

>  <smiles>  (93) 
O=C1C=C(OCc2ccccc2)C(=O)c2cc(=O)[nH]cc21

>  <score_type>  (93) 
oracle

>  <origin>  (93) 
adg

>  <m_score__min__energy>  (93) 
-9.3100000000000005

>  <m_primary>  (93) 
energy

$$$$
93:0
     RDKit          3D

 35 37  0  0  0  0  0  0  0  0999 V2000
   60.3840   29.5320   45.8710 H   0  0  0  0  0  0  0  0  0  0  0  0
   60.7540   30.0260   46.7150 N   0  0  0  0  0  0  0  0  0  0  0  0
   60.5120   31.2790   46.9550 C   0  0  0  0  0  0  0  0  0  0  0  0
   61.4200   32.0370   47.7100 C   0  0  0  0  0  0  0  0  0  0  0  0
   62.3379   31.5710   48.0977 H   0  0  0  0  0  0  0  0  0  0  0  0
   61.1560   33.3870   47.9690 C   0  0  0  0  0  0  0  0  0  0  0  0
   62.1200   34.2050   48.7680 C   0  0  0  0  0  0  0  0  0  0  0  0
   61.9339   34.0471   49.8406 H   0  0  0  0  0  0  0  0  0  0  0  0
   63.1487   33.9000   48.5255 H   0  0  0  0  0  0  0  0  0  0  0  0
   61.9865   35.2696   48.5255 H   0  0  0  0  0  0  0  0  0  0  0  0
   60.0230   33.9590   47.4850 N   0  0  0  0  0  0  0  0  0  0  0  0
   59.1180   33.2610   46.7500 C   0  0  0  0  0  0  0  0  0  0  0  0
   57.9730   33.9020   46.2690 C   0  0  0  0  0  0  0  0  0  0  0  0
   57.8099   34.9680   46.4858 H   0  0  0  0  0  0  0  0  0  0  0  0
   57.0350   33.1940   45.5140 C   0  0  0  0  0  0  0  0  0  0  0  0
   56.1431   33.7098   45.1287 H   0  0  0  0  0  0  0  0  0  0  0  0
   57.2210   31.8340   45.2440 C   0  0  0  0  0  0  0  0  0  0  0  0
   56.2420   31.1500   44.4490 N   0  0  0  0  0  0  0  0  0  0  0  0
   56.2120   29.7440   44.1810 C   0  0  0  0  0  0  0  0  0  0  0  0
   56.4610   29.3380   43.0150 O   0  0  0  0  0  0  0  0  0  0  0  0
   55.7990   28.8190   45.1950 N   0  0  0  0  0  0  0  0  0  0  0  0
   56.5450   27.6760   45.6320 C   0  0  0  0  0  0  0  0  0  0  0  0
   57.9440   27.7430   45.6110 C   0  0  0  0  0  0  0  0  0  0  0  0
   58.4412   28.6633   45.2706 H   0  0  0  0  0  0  0  0  0  0  0  0
   58.7130   26.6500   46.0190 C   0  0  0  0  0  0  0  0  0  0  0  0
   59.8109   26.7174   46.0133 H   0  0  0  0  0  0  0  0  0  0  0  0
   58.0880   25.4720   46.4340 C   0  0  0  0  0  0  0  0  0  0  0  0
   58.6944   24.6165   46.7662 H   0  0  0  0  0  0  0  0  0  0  0  0
   56.6930   25.3780   46.4280 C   0  0  0  0  0  0  0  0  0  0  0  0
   55.9280   23.8740   46.9200 Cl  0  0  0  0  0  0  0  0  0  0  0  0
   55.9160   26.4710   46.0120 C   0  0  0  0  0  0  0  0  0  0  0  0
   54.5330   26.3420   45.9460 O   0  0  0  0  0  0  0  0  0  0  0  0
   58.3850   31.1890   45.7000 C   0  0  0  0  0  0  0  0  0  0  0  0
   58.5527   30.1291   45.4581 H   0  0  0  0  0  0  0  0  0  0  0  0
   59.3380   31.8920   46.4650 C   0  0  0  0  0  0  0  0  0  0  0  0
  1  2  1  0
  2  3  2  0
  3  4  1  0
  4  5  1  0
  4  6  2  0
  6  7  1  0
  7  8  1  0
  7  9  1  0
  7 10  1  0
  6 11  1  0
 11 12  1  0
 12 13  2  0
 13 14  1  0
 13 15  1  0
 15 16  1  0
 15 17  2  0
 17 18  1  0
 18 19  1  0
 19 20  2  0
 19 21  1  0
 21 22  1  0
 22 23  2  0
 23 24  1  0
 23 25  1  0
 25 26  1  0
 25 27  2  0
 27 28  1  0
 27 29  1  0
 29 30  1  0
 29 31  2  0
 31 32  1  0
 17 33  1  0
 33 34  1  0
 33 35  2  0
 35  3  1  0
 35 12  1  0
 31 22  1  0
M  CHG  4  11  -1  18  -1  21  -1  32  -1
M  END
>  <UniqueID>  (94) 
87

>  <SMILES>  (94) 
[H]/N=c1\cc(C)[n-]c2ccc([N-]C(=O)[N-]c3cccc(Cl)c3[O-])cc12

>  <Energy>  (94) 
50.8831358900553

>  <Genealogy>  (94) 
Cc1cc(=N)c2cc([N-]C(=O)[N-]c3cccc(Cl)c3[O-])ccc2[n-]1 (protonated)
[H]/N=c1\cc(C)[n-]c2ccc([N-]C(=O)[N-]c3cccc(Cl)c3[O-])cc12 (cis-trans isomerization)
[H]/N=c1\cc(C)[n-]c2ccc([N-]C(=O)[N-]c3cccc(Cl)c3[O-])cc12 (3D coordinates assigned)
[H]/N=c1\cc(C)[n-]c2ccc([N-]C(=O)[N-]c3cccc(Cl)c3[O-])cc12 (optimized conformer: 50.8831358900553 kcal/mol)

>  <smiles>  (94) 
Cc1cc(=N)c2cc(NC(=O)Nc3cccc(Cl)c3O)ccc2[nH]1

>  <score_type>  (94) 
oracle

>  <origin>  (94) 
adg

>  <m_score__min__energy>  (94) 
-16.039999999999999

>  <m_primary>  (94) 
energy

$$$$
94:0
     RDKit          3D

 37 39  0  0  0  0  0  0  0  0999 V2000
   56.6280   33.4740   46.4070 N   0  0  0  0  0  0  0  0  0  0  0  0
   57.7790   32.6430   45.4210 S   0  0  0  0  0  0  0  0  0  0  0  0
   57.8480   33.3080   44.0750 O   0  0  0  0  0  0  0  0  0  0  0  0
   57.3540   31.2130   45.2330 O   0  0  0  0  0  0  0  0  0  0  0  0
   59.3670   32.6980   46.1800 C   0  0  0  0  0  0  0  0  0  0  0  0
   60.3310   34.0720   46.2340 S   0  0  0  0  0  0  0  0  0  0  0  0
   61.6720   33.3370   46.9290 C   0  0  0  0  0  0  0  0  0  0  0  0
   61.3840   31.9930   47.1210 C   0  0  0  0  0  0  0  0  0  0  0  0
   60.0920   31.6250   46.7100 C   0  0  0  0  0  0  0  0  0  0  0  0
   59.5910   30.2390   46.8160 C   0  0  0  0  0  0  0  0  0  0  0  0
   59.0240   29.7820   48.0140 C   0  0  0  0  0  0  0  0  0  0  0  0
   58.5840   28.4600   48.1270 C   0  0  0  0  0  0  0  0  0  0  0  0
   58.7060   27.5790   47.0460 C   0  0  0  0  0  0  0  0  0  0  0  0
   58.2990   26.2120   47.2180 N   0  0  0  0  0  0  0  0  0  0  0  0
   58.2820   25.2030   46.1980 C   0  0  0  0  0  0  0  0  0  0  0  0
   59.3780   24.8490   45.6880 O   0  0  0  0  0  0  0  0  0  0  0  0
   57.0140   24.6170   45.6910 C   0  0  0  0  0  0  0  0  0  0  0  0
   57.0490   23.4400   44.9220 C   0  0  0  0  0  0  0  0  0  0  0  0
   55.8620   22.8910   44.4380 C   0  0  0  0  0  0  0  0  0  0  0  0
   55.8920   21.8430   43.7380 O   0  0  0  0  0  0  0  0  0  0  0  0
   54.6450   23.5050   44.7370 C   0  0  0  0  0  0  0  0  0  0  0  0
   53.4490   22.9740   44.2650 O   0  0  0  0  0  0  0  0  0  0  0  0
   54.6370   24.6590   45.5200 C   0  0  0  0  0  0  0  0  0  0  0  0
   55.8040   25.1950   45.9870 N   0  0  0  0  0  0  0  0  0  0  0  0
   55.7600   26.3590   46.7290 O   0  0  0  0  0  0  0  0  0  0  0  0
   59.2040   28.0550   45.8190 C   0  0  0  0  0  0  0  0  0  0  0  0
   59.2310   27.2600   44.7210 F   0  0  0  0  0  0  0  0  0  0  0  0
   59.6470   29.3770   45.7110 C   0  0  0  0  0  0  0  0  0  0  0  0
   57.1680   33.9830   47.1420 H   0  0  0  0  0  0  0  0  0  0  0  0
   62.6175   33.8360   47.1879 H   0  0  0  0  0  0  0  0  0  0  0  0
   62.1015   31.2812   47.5552 H   0  0  0  0  0  0  0  0  0  0  0  0
   58.9249   30.4669   48.8690 H   0  0  0  0  0  0  0  0  0  0  0  0
   58.1395   28.1101   49.0704 H   0  0  0  0  0  0  0  0  0  0  0  0
   58.0108   22.9534   44.7027 H   0  0  0  0  0  0  0  0  0  0  0  0
   53.6801   25.1434   45.7645 H   0  0  0  0  0  0  0  0  0  0  0  0
   56.5830   26.7280   47.1900 H   0  0  0  0  0  0  0  0  0  0  0  0
   60.0424   29.7436   44.7522 H   0  0  0  0  0  0  0  0  0  0  0  0
  1  2  1  0
  2  3  2  0
  2  4  2  0
  2  5  1  0
  5  6  1  0
  6  7  1  0
  7  8  2  0
  8  9  1  0
  9 10  1  0
 10 11  2  0
 11 12  1  0
 12 13  2  0
 13 14  1  0
 14 15  1  0
 15 16  2  0
 15 17  1  0
 17 18  2  0
 18 19  1  0
 19 20  2  0
 19 21  1  0
 21 22  1  0
 21 23  2  0
 23 24  1  0
 24 25  1  0
 13 26  1  0
 26 27  1  0
 26 28  2  0
  9  5  2  0
 28 10  1  0
 24 17  1  0
  1 29  1  0
  7 30  1  0
  8 31  1  0
 11 32  1  0
 12 33  1  0
 18 34  1  0
 23 35  1  0
 25 36  1  0
 28 37  1  0
M  CHG  3   1  -1  14  -1  22  -1
M  END
>  <UniqueID>  (95) 
88

>  <SMILES>  (95) 
[NH-]S(=O)(=O)c1sccc1-c1ccc([N-]C(=O)c2cc(=O)c([O-])cn2O)c(F)c1

>  <Energy>  (95) 
81.1460519162801

>  <Genealogy>  (95) 
[NH-]S(=O)(=O)c1sccc1-c1ccc([N-]C(=O)c2cc(=O)c([O-])cn2O)c(F)c1 (protonated)
[NH-]S(=O)(=O)c1sccc1-c1ccc([N-]C(=O)c2cc(=O)c([O-])cn2O)c(F)c1 (3D coordinates assigned)
[NH-]S(=O)(=O)c1sccc1-c1ccc([N-]C(=O)c2cc(=O)c([O-])cn2O)c(F)c1 (optimized conformer: 81.1460519162801 kcal/mol)

>  <smiles>  (95) 
NS(=O)(=O)c1sccc1-c1ccc(NC(=O)c2cc(=O)c(O)cn2O)c(F)c1

>  <score_type>  (95) 
oracle

>  <origin>  (95) 
adg

>  <m_score__min__energy>  (95) 
-13.359999999999999

>  <m_primary>  (95) 
energy

$$$$
95:0
     RDKit          3D

 71 76  0  0  0  0  0  0  0  0999 V2000
   59.4670   32.0530   52.7630 O   0  0  0  0  0  0  0  0  0  0  0  0
   59.3120   31.6210   51.5910 C   0  0  0  0  0  0  0  0  0  0  0  0
   60.2310   31.9620   50.6490 N   0  0  0  0  0  0  0  0  0  0  0  0
   60.1470   31.5070   49.3740 C   0  0  0  0  0  0  0  0  0  0  0  0
   61.1170   31.8130   48.4130 C   0  0  0  0  0  0  0  0  0  0  0  0
   62.2210   32.6770   48.7400 N   0  0  0  0  0  0  0  0  0  0  0  0
   63.5960   32.2030   48.5460 C   0  0  0  0  0  0  0  0  0  0  0  0
   64.5800   33.1310   49.2660 C   0  0  0  0  0  0  0  0  0  0  0  0
   64.0050   33.5710   50.4790 O   0  0  0  0  0  0  0  0  0  0  0  0
   62.9900   34.5270   50.2160 C   0  0  0  0  0  0  0  0  0  0  0  0
   61.9790   34.0700   49.1370 C   0  0  0  0  0  0  0  0  0  0  0  0
   61.0280   31.2560   47.1700 N   0  0  0  0  0  0  0  0  0  0  0  0
   59.9770   30.4430   46.8280 C   0  0  0  0  0  0  0  0  0  0  0  0
   59.9030   29.8110   45.5270 N   0  0  0  0  0  0  0  0  0  0  0  0
   60.5650   28.5320   45.2370 C   0  0  0  0  0  0  0  0  0  0  0  0
   59.5600   27.3760   45.4490 C   0  0  0  0  0  0  0  0  0  0  0  0
   58.0810   27.8560   45.3700 C   0  0  0  0  0  0  0  0  0  0  0  0
   57.1680   26.7250   45.0930 N   0  0  0  0  0  0  0  0  0  0  0  0
   57.2700   25.6310   46.0760 C   0  0  0  0  0  0  0  0  0  0  0  0
   56.1660   24.6010   45.9210 C   0  0  0  0  0  0  0  0  0  0  0  0
   56.4930   23.2340   45.8540 C   0  0  0  0  0  0  0  0  0  0  0  0
   55.4860   22.2720   45.6980 C   0  0  0  0  0  0  0  0  0  0  0  0
   54.1480   22.6620   45.6030 C   0  0  0  0  0  0  0  0  0  0  0  0
   53.8110   24.0140   45.6700 C   0  0  0  0  0  0  0  0  0  0  0  0
   54.8100   24.9840   45.8280 C   0  0  0  0  0  0  0  0  0  0  0  0
   54.4420   26.3240   45.8940 O   0  0  0  0  0  0  0  0  0  0  0  0
   57.9450   28.9400   44.2730 C   0  0  0  0  0  0  0  0  0  0  0  0
   58.8170   30.1760   44.5990 C   0  0  0  0  0  0  0  0  0  0  0  0
   59.0190   30.1690   47.7590 N   0  0  0  0  0  0  0  0  0  0  0  0
   59.0890   30.6690   49.0170 C   0  0  0  0  0  0  0  0  0  0  0  0
   58.1630   30.3280   49.9470 N   0  0  0  0  0  0  0  0  0  0  0  0
   58.2270   30.7730   51.2370 C   0  0  0  0  0  0  0  0  0  0  0  0
   57.2140   30.3260   52.1800 N   0  0  0  0  0  0  0  0  0  0  0  0
   55.8340   30.8200   51.9770 C   0  0  0  0  0  0  0  0  0  0  0  0
   54.9120   30.5200   53.1640 C   0  0  0  0  0  0  0  0  0  0  0  0
   55.1380   29.2200   53.6640 O   0  0  0  0  0  0  0  0  0  0  0  0
   56.4170   29.1860   54.2580 C   0  0  0  0  0  0  0  0  0  0  0  0
   57.5080   29.2940   53.1900 C   0  0  0  0  0  0  0  0  0  0  0  0
   63.6909   31.1857   48.9535 H   0  0  0  0  0  0  0  0  0  0  0  0
   63.8267   32.1988   47.4705 H   0  0  0  0  0  0  0  0  0  0  0  0
   65.5116   32.5857   49.4776 H   0  0  0  0  0  0  0  0  0  0  0  0
   64.8023   33.9988   48.6276 H   0  0  0  0  0  0  0  0  0  0  0  0
   62.4407   34.7180   51.1497 H   0  0  0  0  0  0  0  0  0  0  0  0
   63.4868   35.4307   49.8331 H   0  0  0  0  0  0  0  0  0  0  0  0
   60.9595   34.1563   49.5408 H   0  0  0  0  0  0  0  0  0  0  0  0
   62.1004   34.7112   48.2515 H   0  0  0  0  0  0  0  0  0  0  0  0
   61.7910   31.4560   46.4890 H   0  0  0  0  0  0  0  0  0  0  0  0
   60.9151   28.5277   44.1942 H   0  0  0  0  0  0  0  0  0  0  0  0
   61.4244   28.4010   45.9110 H   0  0  0  0  0  0  0  0  0  0  0  0
   59.7269   26.6154   44.6721 H   0  0  0  0  0  0  0  0  0  0  0  0
   59.7270   26.9657   46.4559 H   0  0  0  0  0  0  0  0  0  0  0  0
   57.7989   28.2848   46.3429 H   0  0  0  0  0  0  0  0  0  0  0  0
   56.1810   27.0730   45.1050 H   0  0  0  0  0  0  0  0  0  0  0  0
   58.2403   25.1295   45.9454 H   0  0  0  0  0  0  0  0  0  0  0  0
   57.1734   26.0741   47.0782 H   0  0  0  0  0  0  0  0  0  0  0  0
   57.5445   22.9189   45.9244 H   0  0  0  0  0  0  0  0  0  0  0  0
   55.7503   21.2053   45.6502 H   0  0  0  0  0  0  0  0  0  0  0  0
   53.3611   21.9040   45.4755 H   0  0  0  0  0  0  0  0  0  0  0  0
   52.7568   24.3200   45.5985 H   0  0  0  0  0  0  0  0  0  0  0  0
   58.2662   28.5180   43.3093 H   0  0  0  0  0  0  0  0  0  0  0  0
   56.8930   29.2579   44.2249 H   0  0  0  0  0  0  0  0  0  0  0  0
   59.2527   30.5675   43.6679 H   0  0  0  0  0  0  0  0  0  0  0  0
   58.1858   30.9418   45.0734 H   0  0  0  0  0  0  0  0  0  0  0  0
   55.8697   31.9091   51.8269 H   0  0  0  0  0  0  0  0  0  0  0  0
   55.4227   30.2989   51.0999 H   0  0  0  0  0  0  0  0  0  0  0  0
   55.1047   31.2512   53.9629 H   0  0  0  0  0  0  0  0  0  0  0  0
   53.8684   30.5878   52.8230 H   0  0  0  0  0  0  0  0  0  0  0  0
   56.5127   30.0279   54.9594 H   0  0  0  0  0  0  0  0  0  0  0  0
   56.5356   28.2316   54.7920 H   0  0  0  0  0  0  0  0  0  0  0  0
   58.4592   29.5443   53.6825 H   0  0  0  0  0  0  0  0  0  0  0  0
   57.5617   28.3259   52.6704 H   0  0  0  0  0  0  0  0  0  0  0  0
  1  2  2  0
  2  3  1  0
  3  4  1  0
  4  5  2  0
  5  6  1  0
  6  7  1  0
  7  8  1  0
  8  9  1  0
  9 10  1  0
 10 11  1  0
  5 12  1  0
 12 13  2  0
 13 14  1  0
 14 15  1  0
 15 16  1  0
 16 17  1  0
 17 18  1  0
 18 19  1  0
 19 20  1  0
 20 21  2  0
 21 22  1  0
 22 23  2  0
 23 24  1  0
 24 25  2  0
 25 26  1  0
 17 27  1  0
 27 28  1  0
 13 29  1  0
 29 30  2  0
 30 31  1  0
 31 32  2  0
 32 33  1  0
 33 34  1  0
 34 35  1  0
 35 36  1  0
 36 37  1  0
 37 38  1  0
 32  2  1  0
 38 33  1  0
 30  4  1  0
 11  6  1  0
 28 14  1  0
 25 20  1  0
  7 39  1  0
  7 40  1  0
  8 41  1  0
  8 42  1  0
 10 43  1  0
 10 44  1  0
 11 45  1  0
 11 46  1  0
 12 47  1  0
 15 48  1  0
 15 49  1  0
 16 50  1  0
 16 51  1  0
 17 52  1  0
 18 53  1  0
 19 54  1  0
 19 55  1  0
 21 56  1  0
 22 57  1  0
 23 58  1  0
 24 59  1  0
 27 60  1  0
 27 61  1  0
 28 62  1  0
 28 63  1  0
 34 64  1  0
 34 65  1  0
 35 66  1  0
 35 67  1  0
 37 68  1  0
 37 69  1  0
 38 70  1  0
 38 71  1  0
M  CHG  3   3  -1  12   1  26  -1
M  END
>  <UniqueID>  (96) 
89

>  <SMILES>  (96) 
O=c1[n-]c2c(N3CCOCC3)[nH+]c(N3CCC(NCc4ccccc4[O-])CC3)nc2nc1N1CCOCC1

>  <Energy>  (96) 
108.71660418267315

>  <Genealogy>  (96) 
O=c1[n-]c2c(N3CCOCC3)[nH+]c(N3CCC(NCc4ccccc4[O-])CC3)nc2nc1N1CCOCC1 (protonated)
O=c1[n-]c2c(N3CCOCC3)[nH+]c(N3CCC(NCc4ccccc4[O-])CC3)nc2nc1N1CCOCC1 (3D coordinates assigned)
O=c1[n-]c2c(N3CCOCC3)[nH+]c(N3CCC(NCc4ccccc4[O-])CC3)nc2nc1N1CCOCC1 (nonaromatic ring conformer: 108.71660418267315 kcal/mol)

>  <smiles>  (96) 
O=c1[nH]c2c(N3CCOCC3)nc(N3CCC(NCc4ccccc4O)CC3)nc2nc1N1CCOCC1

>  <score_type>  (96) 
oracle

>  <origin>  (96) 
adg

>  <m_score__min__energy>  (96) 
-13.609999999999999

>  <m_primary>  (96) 
energy

$$$$
