0:0
     RDKit          3D

 48 50  0  0  0  0  0  0  0  0999 V2000
   62.3010   33.9042   45.3493 H   0  0  0  0  0  0  0  0  0  0  0  0
   61.9210   33.8470   46.3800 C   0  0  0  0  0  0  0  0  0  0  0  0
   62.8900   33.6560   47.4770 C   0  0  0  0  0  0  0  0  0  0  0  0
   62.5910   34.0700   48.6280 O   0  0  0  0  0  0  0  0  0  0  0  0
   64.1410   32.9880   47.2810 N   0  0  0  0  0  0  0  0  0  0  0  0
   64.3740   32.4990   46.3910 H   0  0  0  0  0  0  0  0  0  0  0  0
   64.8150   32.9070   48.0740 H   0  0  0  0  0  0  0  0  0  0  0  0
   60.6010   33.9540   46.5800 C   0  0  0  0  0  0  0  0  0  0  0  0
   60.2177   34.8406   47.1062 H   0  0  0  0  0  0  0  0  0  0  0  0
   59.6360   32.9280   46.1220 C   0  0  0  0  0  0  0  0  0  0  0  0
   59.8420   31.5950   46.5050 C   0  0  0  0  0  0  0  0  0  0  0  0
   60.7133   31.3348   47.1240 H   0  0  0  0  0  0  0  0  0  0  0  0
   58.9510   30.5930   46.1080 C   0  0  0  0  0  0  0  0  0  0  0  0
   59.1355   29.5498   46.4042 H   0  0  0  0  0  0  0  0  0  0  0  0
   57.8210   30.9090   45.3330 C   0  0  0  0  0  0  0  0  0  0  0  0
   56.8750   29.8480   44.9130 C   0  0  0  0  0  0  0  0  0  0  0  0
   55.6460   30.1150   44.7950 O   0  0  0  0  0  0  0  0  0  0  0  0
   57.3650   28.5260   44.6280 N   0  0  0  0  0  0  0  0  0  0  0  0
   57.6080   27.5910   45.4960 C   0  0  0  0  0  0  0  0  0  0  0  0
   58.8010   27.4090   46.1100 N   0  0  0  0  0  0  0  0  0  0  0  0
   58.7660   26.3550   46.9660 C   0  0  0  0  0  0  0  0  0  0  0  0
   59.6387   26.0397   47.5568 H   0  0  0  0  0  0  0  0  0  0  0  0
   57.5400   25.7080   47.0350 C   0  0  0  0  0  0  0  0  0  0  0  0
   57.2870   24.5780   47.8220 O   0  0  0  0  0  0  0  0  0  0  0  0
   56.5320   23.4760   47.4050 C   0  0  0  0  0  0  0  0  0  0  0  0
   57.1400   22.2640   47.3060 N   0  0  0  0  0  0  0  0  0  0  0  0
   56.4700   21.1470   46.9170 C   0  0  0  0  0  0  0  0  0  0  0  0
   57.1900   19.8380   46.8390 C   0  0  0  0  0  0  0  0  0  0  0  0
   57.3925   19.4698   47.8556 H   0  0  0  0  0  0  0  0  0  0  0  0
   56.5665   19.1080   46.3020 H   0  0  0  0  0  0  0  0  0  0  0  0
   58.1404   19.9737   46.3020 H   0  0  0  0  0  0  0  0  0  0  0  0
   55.0990   21.2210   46.6350 C   0  0  0  0  0  0  0  0  0  0  0  0
   54.5488   20.3184   46.3308 H   0  0  0  0  0  0  0  0  0  0  0  0
   54.4300   22.4510   46.7420 C   0  0  0  0  0  0  0  0  0  0  0  0
   52.9780   22.5460   46.4580 C   0  0  0  0  0  0  0  0  0  0  0  0
   52.1470   22.5710   47.4070 O   0  0  0  0  0  0  0  0  0  0  0  0
   52.5100   22.6110   45.1060 N   0  0  0  0  0  0  0  0  0  0  0  0
   52.0830   23.8540   44.4790 C   0  0  0  0  0  0  0  0  0  0  0  0
   51.8304   24.5893   45.2572 H   0  0  0  0  0  0  0  0  0  0  0  0
   52.8974   24.2476   43.8531 H   0  0  0  0  0  0  0  0  0  0  0  0
   51.1986   23.6640   43.8531 H   0  0  0  0  0  0  0  0  0  0  0  0
   55.1590   23.5860   47.1330 C   0  0  0  0  0  0  0  0  0  0  0  0
   54.6551   24.5594   47.2260 H   0  0  0  0  0  0  0  0  0  0  0  0
   56.4610   26.4590   45.9740 S   0  0  0  0  0  0  0  0  0  0  0  0
   57.6020   32.2490   44.9700 C   0  0  0  0  0  0  0  0  0  0  0  0
   56.7171   32.5123   44.3721 H   0  0  0  0  0  0  0  0  0  0  0  0
   58.4960   33.2520   45.3600 C   0  0  0  0  0  0  0  0  0  0  0  0
   58.2110   34.5390   45.0360 F   0  0  0  0  0  0  0  0  0  0  0  0
  1  2  1  0
  2  3  1  0
  3  4  2  0
  3  5  1  0
  5  6  1  0
  5  7  1  0
  2  8  2  3
  8  9  1  0
  8 10  1  0
 10 11  2  0
 11 12  1  0
 11 13  1  0
 13 14  1  0
 13 15  2  0
 15 16  1  0
 16 17  2  0
 16 18  1  0
 18 19  2  0
 19 20  1  0
 20 21  1  0
 21 22  1  0
 21 23  2  0
 23 24  1  0
 24 25  1  0
 25 26  2  0
 26 27  1  0
 27 28  1  0
 28 29  1  0
 28 30  1  0
 28 31  1  0
 27 32  2  0
 32 33  1  0
 32 34  1  0
 34 35  1  0
 35 36  2  0
 35 37  1  0
 37 38  1  0
 38 39  1  0
 38 40  1  0
 38 41  1  0
 34 42  2  0
 42 43  1  0
 23 44  1  0
 15 45  1  0
 45 46  1  0
 45 47  2  0
 47 48  1  0
 47 10  1  0
 44 19  1  0
 42 25  1  0
M  CHG  2  20  -1  37  -1
M  END
>  <UniqueID>  (1) 
1

>  <SMILES>  (1) 
C[N-]C(=O)c1cc(C)nc(Oc2c[n-]/c(=N\C(=O)c3ccc(C=CC(N)=O)c(F)c3)s2)c1

>  <Energy>  (1) 
90.6221150558463

>  <Genealogy>  (1) 
C[N-]C(=O)c1cc(C)nc(Oc2c[n-]c(=NC(=O)c3ccc(C=CC(N)=O)c(F)c3)s2)c1 (protonated)
C[N-]C(=O)c1cc(C)nc(Oc2c[n-]/c(=N\C(=O)c3ccc(C=CC(N)=O)c(F)c3)s2)c1 (cis-trans isomerization)
C[N-]C(=O)c1cc(C)nc(Oc2c[n-]/c(=N\C(=O)c3ccc(C=CC(N)=O)c(F)c3)s2)c1 (3D coordinates assigned)
C[N-]C(=O)c1cc(C)nc(Oc2c[n-]/c(=N\C(=O)c3ccc(C=CC(N)=O)c(F)c3)s2)c1 (optimized conformer: 90.6221150558463 kcal/mol)

>  <smiles>  (1) 
CNC(=O)c1cc(C)nc(Oc2c[nH]c(=NC(=O)c3ccc(C=CC(N)=O)c(F)c3)s2)c1

>  <score_type>  (1) 
oracle

>  <origin>  (1) 
adg

>  <m_score__min__energy>  (1) 
-14

>  <m_primary>  (1) 
energy

$$$$
1:0
     RDKit          3D

 44 47  0  0  0  0  0  0  0  0999 V2000
   57.4020   25.4210   46.0760 C   0  0  0  0  0  0  0  0  0  0  0  0
   58.4300   25.7150   47.0140 O   0  0  0  0  0  0  0  0  0  0  0  0
   59.0660   26.9590   47.0740 C   0  0  0  0  0  0  0  0  0  0  0  0
   59.6360   27.4960   45.9170 C   0  0  0  0  0  0  0  0  0  0  0  0
   60.2660   28.7390   45.9740 C   0  0  0  0  0  0  0  0  0  0  0  0
   60.3090   29.4470   47.1810 C   0  0  0  0  0  0  0  0  0  0  0  0
   60.9830   30.7120   47.2530 N   0  0  0  0  0  0  0  0  0  0  0  0
   62.2220   30.8280   47.7120 N   0  0  0  0  0  0  0  0  0  0  0  0
   62.5160   32.1440   47.8130 C   0  0  0  0  0  0  0  0  0  0  0  0
   63.8150   32.6390   48.3020 C   0  0  0  0  0  0  0  0  0  0  0  0
   64.5290   31.9660   49.3400 N   0  0  0  0  0  0  0  0  0  0  0  0
   64.2900   33.7000   47.8160 O   0  0  0  0  0  0  0  0  0  0  0  0
   61.4040   32.8790   47.4340 C   0  0  0  0  0  0  0  0  0  0  0  0
   60.4730   31.9500   47.0500 C   0  0  0  0  0  0  0  0  0  0  0  0
   59.1580   32.3640   46.5110 C   0  0  0  0  0  0  0  0  0  0  0  0
   58.3720   31.5380   45.6910 C   0  0  0  0  0  0  0  0  0  0  0  0
   57.1600   32.0030   45.1650 C   0  0  0  0  0  0  0  0  0  0  0  0
   56.3700   31.1110   44.3670 N   0  0  0  0  0  0  0  0  0  0  0  0
   56.3470   29.6830   44.4600 C   0  0  0  0  0  0  0  0  0  0  0  0
   55.1520   28.9880   44.8120 N   0  0  0  0  0  0  0  0  0  0  0  0
   57.3830   29.0290   44.1750 O   0  0  0  0  0  0  0  0  0  0  0  0
   56.7260   33.3020   45.4760 C   0  0  0  0  0  0  0  0  0  0  0  0
   57.5280   34.1490   46.2460 C   0  0  0  0  0  0  0  0  0  0  0  0
   58.7610   33.7030   46.7370 C   0  0  0  0  0  0  0  0  0  0  0  0
   59.6230   34.6270   47.5860 C   0  0  0  0  0  0  0  0  0  0  0  0
   61.1360   34.3560   47.4200 C   0  0  0  0  0  0  0  0  0  0  0  0
   59.7470   28.8630   48.3260 C   0  0  0  0  0  0  0  0  0  0  0  0
   59.1390   27.6500   48.2460 N   0  0  0  0  0  0  0  0  0  0  0  0
   56.4794   25.1571   46.6138 H   0  0  0  0  0  0  0  0  0  0  0  0
   57.2188   26.3028   45.4444 H   0  0  0  0  0  0  0  0  0  0  0  0
   57.7127   24.5757   45.4444 H   0  0  0  0  0  0  0  0  0  0  0  0
   59.5882   26.9423   44.9677 H   0  0  0  0  0  0  0  0  0  0  0  0
   60.7290   29.1630   45.0708 H   0  0  0  0  0  0  0  0  0  0  0  0
   65.4780   32.3010   49.6200 H   0  0  0  0  0  0  0  0  0  0  0  0
   64.0820   31.2160   49.9100 H   0  0  0  0  0  0  0  0  0  0  0  0
   58.7110   30.5174   45.4599 H   0  0  0  0  0  0  0  0  0  0  0  0
   54.4980   29.3730   45.5280 H   0  0  0  0  0  0  0  0  0  0  0  0
   55.7498   33.6546   45.1117 H   0  0  0  0  0  0  0  0  0  0  0  0
   57.1886   35.1716   46.4675 H   0  0  0  0  0  0  0  0  0  0  0  0
   59.4180   35.6670   47.2922 H   0  0  0  0  0  0  0  0  0  0  0  0
   59.3674   34.4424   48.6398 H   0  0  0  0  0  0  0  0  0  0  0  0
   61.4777   34.7780   46.4633 H   0  0  0  0  0  0  0  0  0  0  0  0
   61.6779   34.8265   48.2536 H   0  0  0  0  0  0  0  0  0  0  0  0
   59.7985   29.3882   49.2912 H   0  0  0  0  0  0  0  0  0  0  0  0
  1  2  1  0
  2  3  1  0
  3  4  2  0
  4  5  1  0
  5  6  2  0
  6  7  1  0
  7  8  1  0
  8  9  2  0
  9 10  1  0
 10 11  1  0
 10 12  2  0
  9 13  1  0
 13 14  2  0
 14 15  1  0
 15 16  2  0
 16 17  1  0
 17 18  1  0
 18 19  1  0
 19 20  1  0
 19 21  2  0
 17 22  2  0
 22 23  1  0
 23 24  2  0
 24 25  1  0
 25 26  1  0
  6 27  1  0
 27 28  2  0
 28  3  1  0
 14  7  1  0
 24 15  1  0
 26 13  1  0
  1 29  1  0
  1 30  1  0
  1 31  1  0
  4 32  1  0
  5 33  1  0
 11 34  1  0
 11 35  1  0
 16 36  1  0
 20 37  1  0
 22 38  1  0
 23 39  1  0
 25 40  1  0
 25 41  1  0
 26 42  1  0
 26 43  1  0
 27 44  1  0
M  CHG  2  18  -1  20  -1
M  END
>  <UniqueID>  (2) 
2

>  <SMILES>  (2) 
COc1ccc(-n2nc(C(N)=O)c3c2-c2cc([N-]C([NH-])=O)ccc2CC3)cn1

>  <Energy>  (2) 
95.14168375172298

>  <Genealogy>  (2) 
COc1ccc(-n2nc(C(N)=O)c3c2-c2cc([N-]C([NH-])=O)ccc2CC3)cn1 (protonated)
COc1ccc(-n2nc(C(N)=O)c3c2-c2cc([N-]C([NH-])=O)ccc2CC3)cn1 (3D coordinates assigned)
COc1ccc(-n2nc(C(N)=O)c3c2-c2cc([N-]C([NH-])=O)ccc2CC3)cn1 (nonaromatic ring conformer: 95.14168375172298 kcal/mol)

>  <smiles>  (2) 
COc1ccc(-n2nc(C(N)=O)c3c2-c2cc(NC(N)=O)ccc2CC3)cn1

>  <score_type>  (2) 
oracle

>  <origin>  (2) 
adg

>  <m_score__min__energy>  (2) 
-12.41

>  <m_primary>  (2) 
energy

$$$$
2:0
     RDKit          3D

 36 38  0  0  0  0  0  0  0  0999 V2000
   61.9710   28.2250   44.1310 H   0  0  0  0  0  0  0  0  0  0  0  0
   61.2870   28.8810   44.4920 O   0  0  0  0  0  0  0  0  0  0  0  0
   60.3430   28.5000   45.4420 C   0  0  0  0  0  0  0  0  0  0  0  0
   60.7150   28.4060   46.7860 C   0  0  0  0  0  0  0  0  0  0  0  0
   61.7454   28.6446   47.0880 H   0  0  0  0  0  0  0  0  0  0  0  0
   59.7820   28.0100   47.7460 C   0  0  0  0  0  0  0  0  0  0  0  0
   60.0812   27.9285   48.8014 H   0  0  0  0  0  0  0  0  0  0  0  0
   58.4690   27.7170   47.3690 C   0  0  0  0  0  0  0  0  0  0  0  0
   57.7437   27.3869   48.1273 H   0  0  0  0  0  0  0  0  0  0  0  0
   58.0690   27.8410   46.0290 C   0  0  0  0  0  0  0  0  0  0  0  0
   56.6550   27.4850   45.6370 C   0  0  0  0  0  0  0  0  0  0  0  0
   56.1465   27.0423   46.5062 H   0  0  0  0  0  0  0  0  0  0  0  0
   56.7041   26.7739   44.7992 H   0  0  0  0  0  0  0  0  0  0  0  0
   55.8970   28.6550   45.1920 N   0  0  0  0  0  0  0  0  0  0  0  0
   56.3950   29.6810   44.5660 C   0  0  0  0  0  0  0  0  0  0  0  0
   57.0070   30.6920   45.2450 N   0  0  0  0  0  0  0  0  0  0  0  0
   57.5350   31.7800   44.6150 C   0  0  0  0  0  0  0  0  0  0  0  0
   58.1770   32.8630   45.4050 C   0  0  0  0  0  0  0  0  0  0  0  0
   58.2700   34.1930   45.0330 C   0  0  0  0  0  0  0  0  0  0  0  0
   57.9039   34.6565   44.1051 H   0  0  0  0  0  0  0  0  0  0  0  0
   58.9220   34.8100   46.0800 C   0  0  0  0  0  0  0  0  0  0  0  0
   59.1690   35.8807   46.1306 H   0  0  0  0  0  0  0  0  0  0  0  0
   59.2100   33.9010   47.0310 N   0  0  0  0  0  0  0  0  0  0  0  0
   58.7590   32.7270   46.6190 N   0  0  0  0  0  0  0  0  0  0  0  0
   58.9100   31.5070   47.4040 C   0  0  0  0  0  0  0  0  0  0  0  0
   58.8794   31.7542   48.4754 H   0  0  0  0  0  0  0  0  0  0  0  0
   58.0909   30.8130   47.1643 H   0  0  0  0  0  0  0  0  0  0  0  0
   59.8736   31.0337   47.1643 H   0  0  0  0  0  0  0  0  0  0  0  0
   57.4460   31.8680   43.2150 C   0  0  0  0  0  0  0  0  0  0  0  0
   57.8635   32.7383   42.6875 H   0  0  0  0  0  0  0  0  0  0  0  0
   56.8250   30.8450   42.4990 C   0  0  0  0  0  0  0  0  0  0  0  0
   56.7536   30.9057   41.4030 H   0  0  0  0  0  0  0  0  0  0  0  0
   56.2950   29.7460   43.1720 C   0  0  0  0  0  0  0  0  0  0  0  0
   55.8025   28.9370   42.6125 H   0  0  0  0  0  0  0  0  0  0  0  0
   59.0250   28.2060   45.0610 C   0  0  0  0  0  0  0  0  0  0  0  0
   58.7368   28.2608   44.0009 H   0  0  0  0  0  0  0  0  0  0  0  0
  1  2  1  0
  2  3  1  0
  3  4  2  0
  4  5  1  0
  4  6  1  0
  6  7  1  0
  6  8  2  0
  8  9  1  0
  8 10  1  0
 10 11  1  0
 11 12  1  0
 11 13  1  0
 11 14  1  0
 14 15  2  0
 15 16  1  0
 16 17  1  0
 17 18  1  0
 18 19  2  0
 19 20  1  0
 19 21  1  0
 21 22  1  0
 21 23  2  0
 23 24  1  0
 24 25  1  0
 25 26  1  0
 25 27  1  0
 25 28  1  0
 17 29  2  0
 29 30  1  0
 29 31  1  0
 31 32  1  0
 31 33  2  0
 33 34  1  0
 10 35  2  0
 35 36  1  0
 35  3  1  0
 33 15  1  0
 24 18  1  0
M  CHG  1  16  -1
M  END
>  <UniqueID>  (3) 
3

>  <SMILES>  (3) 
Cn1nccc1-c1ccc/c(=N/Cc2cccc(O)c2)[n-]1

>  <Energy>  (3) 
68.57135847285912

>  <Genealogy>  (3) 
Cn1nccc1-c1cccc(=NCc2cccc(O)c2)[n-]1 (protonated)
Cn1nccc1-c1ccc/c(=N/Cc2cccc(O)c2)[n-]1 (cis-trans isomerization)
Cn1nccc1-c1ccc/c(=N/Cc2cccc(O)c2)[n-]1 (3D coordinates assigned)
Cn1nccc1-c1ccc/c(=N/Cc2cccc(O)c2)[n-]1 (optimized conformer: 68.57135847285912 kcal/mol)

>  <smiles>  (3) 
Cn1nccc1-c1cccc(=NCc2cccc(O)c2)[nH]1

>  <score_type>  (3) 
oracle

>  <origin>  (3) 
adg

>  <m_score__min__energy>  (3) 
-9.2699999999999996

>  <m_primary>  (3) 
energy

$$$$
3:0
     RDKit          3D

 37 39  0  0  0  0  0  0  0  0999 V2000
   60.5290   28.3690   44.7720 C   0  0  0  0  0  0  0  0  0  0  0  0
   59.3720   29.0150   44.9330 C   0  0  0  0  0  0  0  0  0  0  0  0
   59.3320   30.3130   45.3070 N   0  0  0  0  0  0  0  0  0  0  0  0
   58.0650   30.6590   45.4550 N   0  0  0  0  0  0  0  0  0  0  0  0
   57.6270   32.0130   45.7880 C   0  0  0  0  0  0  0  0  0  0  0  0
   58.6460   32.6740   46.6730 C   0  0  0  0  0  0  0  0  0  0  0  0
   58.7020   32.3600   48.0410 C   0  0  0  0  0  0  0  0  0  0  0  0
   59.6750   32.9430   48.8580 C   0  0  0  0  0  0  0  0  0  0  0  0
   60.6070   33.8330   48.3150 C   0  0  0  0  0  0  0  0  0  0  0  0
   61.8300   34.5600   49.3410 Cl  0  0  0  0  0  0  0  0  0  0  0  0
   60.5660   34.1380   46.9510 C   0  0  0  0  0  0  0  0  0  0  0  0
   59.5930   33.5570   46.1310 C   0  0  0  0  0  0  0  0  0  0  0  0
   57.2810   29.6070   45.1650 C   0  0  0  0  0  0  0  0  0  0  0  0
   56.0200   29.6330   45.1930 O   0  0  0  0  0  0  0  0  0  0  0  0
   58.0610   28.5200   44.8160 C   0  0  0  0  0  0  0  0  0  0  0  0
   57.5840   27.3150   44.4440 C   0  0  0  0  0  0  0  0  0  0  0  0
   57.4550   26.1490   45.3300 C   0  0  0  0  0  0  0  0  0  0  0  0
   58.5620   25.3040   45.5000 C   0  0  0  0  0  0  0  0  0  0  0  0
   58.4810   24.1960   46.3470 C   0  0  0  0  0  0  0  0  0  0  0  0
   57.2990   23.9310   47.0430 C   0  0  0  0  0  0  0  0  0  0  0  0
   57.2210   22.8270   47.8830 O   0  0  0  0  0  0  0  0  0  0  0  0
   56.1980   24.7790   46.8990 C   0  0  0  0  0  0  0  0  0  0  0  0
   56.2660   25.8940   46.0550 C   0  0  0  0  0  0  0  0  0  0  0  0
   55.1500   26.7270   45.9570 O   0  0  0  0  0  0  0  0  0  0  0  0
   60.5310   27.3122   44.4668 H   0  0  0  0  0  0  0  0  0  0  0  0
   61.4804   28.8935   44.9445 H   0  0  0  0  0  0  0  0  0  0  0  0
   57.5122   32.5976   44.8633 H   0  0  0  0  0  0  0  0  0  0  0  0
   56.6638   31.9636   46.3169 H   0  0  0  0  0  0  0  0  0  0  0  0
   57.9775   31.6527   48.4710 H   0  0  0  0  0  0  0  0  0  0  0  0
   59.7076   32.7011   49.9306 H   0  0  0  0  0  0  0  0  0  0  0  0
   61.3001   34.8360   46.5221 H   0  0  0  0  0  0  0  0  0  0  0  0
   59.5699   33.7931   45.0569 H   0  0  0  0  0  0  0  0  0  0  0  0
   57.2671   27.1952   43.3975 H   0  0  0  0  0  0  0  0  0  0  0  0
   59.4988   25.5151   44.9635 H   0  0  0  0  0  0  0  0  0  0  0  0
   59.3492   23.5312   46.4661 H   0  0  0  0  0  0  0  0  0  0  0  0
   55.2710   24.5691   47.4528 H   0  0  0  0  0  0  0  0  0  0  0  0
   55.1520   27.5840   45.4200 H   0  0  0  0  0  0  0  0  0  0  0  0
  1  2  2  0
  2  3  1  0
  3  4  1  0
  4  5  1  0
  5  6  1  0
  6  7  2  0
  7  8  1  0
  8  9  2  0
  9 10  1  0
  9 11  1  0
 11 12  2  0
  4 13  1  0
 13 14  2  0
 13 15  1  0
 15 16  2  3
 16 17  1  0
 17 18  2  0
 18 19  1  0
 19 20  2  0
 20 21  1  0
 20 22  1  0
 22 23  2  0
 23 24  1  0
 15  2  1  0
 23 17  1  0
 12  6  1  0
  1 25  1  0
  1 26  1  0
  5 27  1  0
  5 28  1  0
  7 29  1  0
  8 30  1  0
 11 31  1  0
 12 32  1  0
 16 33  1  0
 18 34  1  0
 19 35  1  0
 22 36  1  0
 24 37  1  0
M  CHG  2   3  -1  21  -1
M  END
>  <UniqueID>  (4) 
4

>  <SMILES>  (4) 
C=c1[n-]n(Cc2ccc(Cl)cc2)c(=O)c1=Cc1ccc([O-])cc1O

>  <Energy>  (4) 
83.93907833780287

>  <Genealogy>  (4) 
C=c1[n-]n(Cc2ccc(Cl)cc2)c(=O)c1=Cc1ccc([O-])cc1O (protonated)
C=c1[n-]n(Cc2ccc(Cl)cc2)c(=O)c1=Cc1ccc([O-])cc1O (3D coordinates assigned)
C=c1[n-]n(Cc2ccc(Cl)cc2)c(=O)c1=Cc1ccc([O-])cc1O (optimized conformer: 83.93907833780287 kcal/mol)

>  <smiles>  (4) 
C=c1[nH]n(Cc2ccc(Cl)cc2)c(=O)c1=Cc1ccc(O)cc1O

>  <score_type>  (4) 
oracle

>  <origin>  (4) 
adg

>  <m_score__min__energy>  (4) 
-12.17

>  <m_primary>  (4) 
energy

$$$$
4:0
     RDKit          3D

 39 41  0  0  0  0  0  0  0  0999 V2000
   60.7780   28.9510   44.3450 O   0  0  0  0  0  0  0  0  0  0  0  0
   60.0270   29.2750   45.3020 C   0  0  0  0  0  0  0  0  0  0  0  0
   60.4760   30.3150   46.1870 N   0  0  0  0  0  0  0  0  0  0  0  0
   59.8430   31.5790   46.4240 C   0  0  0  0  0  0  0  0  0  0  0  0
   58.9010   32.0150   45.4810 C   0  0  0  0  0  0  0  0  0  0  0  0
   58.3020   33.2680   45.5960 C   0  0  0  0  0  0  0  0  0  0  0  0
   58.6280   34.0980   46.6660 C   0  0  0  0  0  0  0  0  0  0  0  0
   59.5320   33.6650   47.6370 C   0  0  0  0  0  0  0  0  0  0  0  0
   60.1390   32.3960   47.5510 C   0  0  0  0  0  0  0  0  0  0  0  0
   61.0010   31.9450   48.6760 C   0  0  0  0  0  0  0  0  0  0  0  0
   62.2120   32.2930   48.7070 O   0  0  0  0  0  0  0  0  0  0  0  0
   60.4440   31.2240   49.7820 N   0  0  0  0  0  0  0  0  0  0  0  0
   60.7330   29.8650   50.1440 C   0  0  0  0  0  0  0  0  0  0  0  0
   61.6030   29.6400   51.2190 C   0  0  0  0  0  0  0  0  0  0  0  0
   61.9180   28.3380   51.6220 C   0  0  0  0  0  0  0  0  0  0  0  0
   63.1280   28.0710   53.0780 Br  0  0  0  0  0  0  0  0  0  0  0  0
   61.3460   27.2460   50.9580 C   0  0  0  0  0  0  0  0  0  0  0  0
   61.6560   25.9470   51.3450 O   0  0  0  0  0  0  0  0  0  0  0  0
   60.4530   27.4590   49.9050 C   0  0  0  0  0  0  0  0  0  0  0  0
   60.1260   28.7630   49.5040 C   0  0  0  0  0  0  0  0  0  0  0  0
   59.1690   28.9540   48.5070 O   0  0  0  0  0  0  0  0  0  0  0  0
   58.7390   28.5530   45.4910 C   0  0  0  0  0  0  0  0  0  0  0  0
   57.5300   29.1710   45.1200 C   0  0  0  0  0  0  0  0  0  0  0  0
   56.3100   28.5060   45.2680 C   0  0  0  0  0  0  0  0  0  0  0  0
   55.1300   29.1290   44.8770 O   0  0  0  0  0  0  0  0  0  0  0  0
   56.2770   27.2200   45.8120 C   0  0  0  0  0  0  0  0  0  0  0  0
   55.0670   26.5500   45.9530 O   0  0  0  0  0  0  0  0  0  0  0  0
   57.4620   26.6100   46.2250 C   0  0  0  0  0  0  0  0  0  0  0  0
   58.6900   27.2680   46.0850 C   0  0  0  0  0  0  0  0  0  0  0  0
   60.2520   26.3470   46.7230 Br  0  0  0  0  0  0  0  0  0  0  0  0
   58.6315   31.3595   44.6397 H   0  0  0  0  0  0  0  0  0  0  0  0
   57.5728   33.6011   44.8428 H   0  0  0  0  0  0  0  0  0  0  0  0
   58.1723   35.0960   46.7458 H   0  0  0  0  0  0  0  0  0  0  0  0
   59.7747   34.3248   48.4831 H   0  0  0  0  0  0  0  0  0  0  0  0
   62.0429   30.4961   51.7516 H   0  0  0  0  0  0  0  0  0  0  0  0
   60.0035   26.5989   49.3871 H   0  0  0  0  0  0  0  0  0  0  0  0
   59.2470   29.7010   47.8280 H   0  0  0  0  0  0  0  0  0  0  0  0
   57.5458   30.1909   44.7081 H   0  0  0  0  0  0  0  0  0  0  0  0
   57.4312   25.6023   46.6649 H   0  0  0  0  0  0  0  0  0  0  0  0
  1  2  2  0
  2  3  1  0
  3  4  1  0
  4  5  2  0
  5  6  1  0
  6  7  2  0
  7  8  1  0
  8  9  2  0
  9 10  1  0
 10 11  2  0
 10 12  1  0
 12 13  1  0
 13 14  2  0
 14 15  1  0
 15 16  1  0
 15 17  2  0
 17 18  1  0
 17 19  1  0
 19 20  2  0
 20 21  1  0
  2 22  1  0
 22 23  2  0
 23 24  1  0
 24 25  1  0
 24 26  2  0
 26 27  1  0
 26 28  1  0
 28 29  2  0
 29 30  1  0
  9  4  1  0
 20 13  1  0
 29 22  1  0
  5 31  1  0
  6 32  1  0
  7 33  1  0
  8 34  1  0
 14 35  1  0
 19 36  1  0
 21 37  1  0
 23 38  1  0
 28 39  1  0
M  CHG  5   3  -1  12  -1  18  -1  25  -1  27  -1
M  END
>  <UniqueID>  (5) 
5

>  <SMILES>  (5) 
O=C([N-]c1ccccc1C(=O)[N-]c1cc(Br)c([O-])cc1O)c1cc([O-])c([O-])cc1Br

>  <Energy>  (5) 
63.23191990414505

>  <Genealogy>  (5) 
O=C([N-]c1ccccc1C(=O)[N-]c1cc(Br)c([O-])cc1O)c1cc([O-])c([O-])cc1Br (protonated)
O=C([N-]c1ccccc1C(=O)[N-]c1cc(Br)c([O-])cc1O)c1cc([O-])c([O-])cc1Br (3D coordinates assigned)
O=C([N-]c1ccccc1C(=O)[N-]c1cc(Br)c([O-])cc1O)c1cc([O-])c([O-])cc1Br (optimized conformer: 63.23191990414505 kcal/mol)

>  <smiles>  (5) 
O=C(Nc1ccccc1C(=O)Nc1cc(Br)c(O)cc1O)c1cc(O)c(O)cc1Br

>  <score_type>  (5) 
oracle

>  <origin>  (5) 
adg

>  <m_score__min__energy>  (5) 
-18.530000000000001

>  <m_primary>  (5) 
energy

$$$$
5:0
     RDKit          3D

 34 36  0  0  0  0  0  0  0  0999 V2000
   56.8370   27.5070   45.5540 N   0  0  0  0  0  0  0  0  0  0  0  0
   57.0510   28.6970   45.1480 C   0  0  0  0  0  0  0  0  0  0  0  0
   56.7160   28.9730   43.8600 N   0  0  0  0  0  0  0  0  0  0  0  0
   56.9040   30.1990   43.3420 C   0  0  0  0  0  0  0  0  0  0  0  0
   56.6040   30.5120   42.1290 N   0  0  0  0  0  0  0  0  0  0  0  0
   57.4440   31.1670   44.1490 C   0  0  0  0  0  0  0  0  0  0  0  0
   57.6510   32.4480   43.6420 C   0  0  0  0  0  0  0  0  0  0  0  0
   58.1940   33.4280   44.4490 C   0  0  0  0  0  0  0  0  0  0  0  0
   58.5500   33.1800   45.7750 C   0  0  0  0  0  0  0  0  0  0  0  0
   59.2360   34.5120   46.7090 S   0  0  0  0  0  0  0  0  0  0  0  0
   60.8710   34.1360   47.3240 C   0  0  0  0  0  0  0  0  0  0  0  0
   61.1480   34.1540   48.6930 C   0  0  0  0  0  0  0  0  0  0  0  0
   62.4390   33.8480   49.0540 C   0  0  0  0  0  0  0  0  0  0  0  0
   63.4260   33.5370   48.1440 C   0  0  0  0  0  0  0  0  0  0  0  0
   64.7050   33.2420   48.6170 O   0  0  0  0  0  0  0  0  0  0  0  0
   63.1370   33.5230   46.7890 C   0  0  0  0  0  0  0  0  0  0  0  0
   61.8420   33.8280   46.4110 C   0  0  0  0  0  0  0  0  0  0  0  0
   58.3380   31.9130   46.2540 C   0  0  0  0  0  0  0  0  0  0  0  0
   58.6960   31.6490   47.6060 N   0  0  0  0  0  0  0  0  0  0  0  0
   57.7940   30.9220   45.4540 C   0  0  0  0  0  0  0  0  0  0  0  0
   57.5840   29.6720   45.9300 N   0  0  0  0  0  0  0  0  0  0  0  0
   56.5920   26.7610   44.8680 H   0  0  0  0  0  0  0  0  0  0  0  0
   56.3050   28.2430   43.2370 H   0  0  0  0  0  0  0  0  0  0  0  0
   55.8880   29.9840   41.5740 H   0  0  0  0  0  0  0  0  0  0  0  0
   57.3823   32.6783   42.6005 H   0  0  0  0  0  0  0  0  0  0  0  0
   58.3506   34.4346   44.0339 H   0  0  0  0  0  0  0  0  0  0  0  0
   60.3778   34.3988   49.4392 H   0  0  0  0  0  0  0  0  0  0  0  0
   62.6970   33.8516   50.1233 H   0  0  0  0  0  0  0  0  0  0  0  0
   65.4690   33.1080   47.9670 H   0  0  0  0  0  0  0  0  0  0  0  0
   63.9075   33.2788   46.0429 H   0  0  0  0  0  0  0  0  0  0  0  0
   61.5845   33.8227   45.3416 H   0  0  0  0  0  0  0  0  0  0  0  0
   59.2080   30.7930   47.9150 H   0  0  0  0  0  0  0  0  0  0  0  0
   58.4040   32.3980   48.3010 H   0  0  0  0  0  0  0  0  0  0  0  0
   57.8350   29.4460   46.9080 H   0  0  0  0  0  0  0  0  0  0  0  0
  1  2  2  3
  2  3  1  0
  3  4  1  0
  4  5  2  3
  4  6  1  0
  6  7  2  0
  7  8  1  0
  8  9  2  0
  9 10  1  0
 10 11  1  0
 11 12  2  0
 12 13  1  0
 13 14  2  0
 14 15  1  0
 14 16  1  0
 16 17  2  0
  9 18  1  0
 18 19  1  0
 18 20  2  0
 20 21  1  0
 21  2  1  0
 20  6  1  0
 17 11  1  0
  1 22  1  0
  3 23  1  0
  5 24  1  0
  7 25  1  0
  8 26  1  0
 12 27  1  0
 13 28  1  0
 15 29  1  0
 16 30  1  0
 17 31  1  0
 19 32  1  0
 19 33  1  0
 21 34  1  0
M  END
>  <smiles>  (6) 
N=c1[nH]c(=N)c2ccc(Sc3ccc(O)cc3)c(N)c2[nH]1

>  <score_type>  (6) 
oracle

>  <origin>  (6) 
adg

>  <m_score__min__energy>  (6) 
-8.0600000000000005

>  <m_primary>  (6) 
energy

$$$$
6:0
     RDKit          3D

 51 54  0  0  0  0  0  0  0  0999 V2000
   60.5290   27.4720   45.9830 H   0  0  0  0  0  0  0  0  0  0  0  0
   59.8920   27.3080   45.2120 O   0  0  0  0  0  0  0  0  0  0  0  0
   58.5050   27.3730   45.3500 C   0  0  0  0  0  0  0  0  0  0  0  0
   57.8440   26.2690   45.7850 N   0  0  0  0  0  0  0  0  0  0  0  0
   56.4960   26.2670   45.9440 C   0  0  0  0  0  0  0  0  0  0  0  0
   55.9130   25.2320   46.3570 O   0  0  0  0  0  0  0  0  0  0  0  0
   55.7780   27.3810   45.6530 N   0  0  0  0  0  0  0  0  0  0  0  0
   56.3830   28.5120   45.2100 C   0  0  0  0  0  0  0  0  0  0  0  0
   55.6780   29.5160   44.9220 O   0  0  0  0  0  0  0  0  0  0  0  0
   57.7830   28.5480   45.0620 C   0  0  0  0  0  0  0  0  0  0  0  0
   58.4710   29.7570   44.5540 C   0  0  0  0  0  0  0  0  0  0  0  0
   58.5693   29.8842   43.4658 H   0  0  0  0  0  0  0  0  0  0  0  0
   58.9820   30.7080   45.3580 C   0  0  0  0  0  0  0  0  0  0  0  0
   58.3510   31.8860   45.7360 C   0  0  0  0  0  0  0  0  0  0  0  0
   57.3513   32.2241   45.4258 H   0  0  0  0  0  0  0  0  0  0  0  0
   59.2210   32.5500   46.5760 C   0  0  0  0  0  0  0  0  0  0  0  0
   58.9230   33.8560   47.2460 C   0  0  0  0  0  0  0  0  0  0  0  0
   58.9533   33.7234   48.3376 H   0  0  0  0  0  0  0  0  0  0  0  0
   59.6741   34.6017   46.9462 H   0  0  0  0  0  0  0  0  0  0  0  0
   57.9228   34.2021   46.9462 H   0  0  0  0  0  0  0  0  0  0  0  0
   60.3480   31.8230   46.7560 N   0  0  0  0  0  0  0  0  0  0  0  0
   61.4690   32.1890   47.5780 C   0  0  0  0  0  0  0  0  0  0  0  0
   62.5910   32.7820   46.9810 C   0  0  0  0  0  0  0  0  0  0  0  0
   62.6076   32.9488   45.8938 H   0  0  0  0  0  0  0  0  0  0  0  0
   63.6870   33.1620   47.7580 C   0  0  0  0  0  0  0  0  0  0  0  0
   64.5611   33.6318   47.2833 H   0  0  0  0  0  0  0  0  0  0  0  0
   63.6740   32.9460   49.1370 C   0  0  0  0  0  0  0  0  0  0  0  0
   64.5393   33.2436   49.7474 H   0  0  0  0  0  0  0  0  0  0  0  0
   62.5650   32.3530   49.7430 C   0  0  0  0  0  0  0  0  0  0  0  0
   62.5651   32.1766   50.8288 H   0  0  0  0  0  0  0  0  0  0  0  0
   61.4490   31.9800   48.9760 C   0  0  0  0  0  0  0  0  0  0  0  0
   60.2930   31.3290   49.6290 C   0  0  0  0  0  0  0  0  0  0  0  0
   59.6620   31.9600   50.5200 O   0  0  0  0  0  0  0  0  0  0  0  0
   59.8920   29.9880   49.2900 N   0  0  0  0  0  0  0  0  0  0  0  0
   58.5320   29.5990   48.9450 C   0  0  0  0  0  0  0  0  0  0  0  0
   57.9193   29.4982   49.8530 H   0  0  0  0  0  0  0  0  0  0  0  0
   58.0423   30.3509   48.3087 H   0  0  0  0  0  0  0  0  0  0  0  0
   58.6580   28.2570   48.2370 C   0  0  0  0  0  0  0  0  0  0  0  0
   57.8560   27.5759   48.5577 H   0  0  0  0  0  0  0  0  0  0  0  0
   58.5715   28.3609   47.1453 H   0  0  0  0  0  0  0  0  0  0  0  0
   60.0230   27.7070   48.6490 C   0  0  1  0  0  0  0  0  0  0  0  0
   59.9502   27.0005   49.4890 H   0  0  0  0  0  0  0  0  0  0  0  0
   60.6070   26.9940   47.5920 O   0  0  0  0  0  0  0  0  0  0  0  0
   59.8580   26.6240   47.0560 H   0  0  0  0  0  0  0  0  0  0  0  0
   60.8540   28.9320   49.0250 C   0  0  0  0  0  0  0  0  0  0  0  0
   61.4565   28.7270   49.9222 H   0  0  0  0  0  0  0  0  0  0  0  0
   61.5551   29.2105   48.2245 H   0  0  0  0  0  0  0  0  0  0  0  0
   60.2170   30.6960   46.0110 C   0  0  0  0  0  0  0  0  0  0  0  0
   61.1460   29.7310   45.9460 C   0  0  0  0  0  0  0  0  0  0  0  0
   62.0860   29.8337   46.5081 H   0  0  0  0  0  0  0  0  0  0  0  0
   60.9680   28.8368   45.3306 H   0  0  0  0  0  0  0  0  0  0  0  0
  1  2  1  0
  2  3  1  0
  3  4  1  0
  4  5  1  0
  5  6  2  0
  5  7  1  0
  7  8  1  0
  8  9  2  0
  8 10  1  0
 10 11  1  0
 11 12  1  0
 11 13  2  0
 13 14  1  0
 14 15  1  0
 14 16  2  0
 16 17  1  0
 17 18  1  0
 17 19  1  0
 17 20  1  0
 16 21  1  0
 21 22  1  0
 22 23  2  0
 23 24  1  0
 23 25  1  0
 25 26  1  0
 25 27  2  0
 27 28  1  0
 27 29  1  0
 29 30  1  0
 29 31  2  0
 31 32  1  0
 32 33  2  0
 32 34  1  0
 34 35  1  0
 35 36  1  0
 35 37  1  0
 35 38  1  0
 38 39  1  0
 38 40  1  0
 38 41  1  0
 41 42  1  1
 41 43  1  0
 43 44  1  0
 41 45  1  0
 45 46  1  0
 45 47  1  0
 21 48  1  0
 48 49  2  0
 49 50  1  0
 49 51  1  0
 10  3  2  0
 48 13  1  0
 31 22  1  0
 45 34  1  0
M  CHG  2   4  -1   7  -1
M  END
>  <UniqueID>  (7) 
6

>  <SMILES>  (7) 
C=c1/c(=C/c2c(O)[n-]c(=O)[n-]c2=O)cc(C)n1-c1ccccc1C(=O)N1CC[C@@H](O)C1

>  <Energy>  (7) 
103.67734408010361

>  <Genealogy>  (7) 
C=c1c(=Cc2c(O)[n-]c(=O)[n-]c2=O)cc(C)n1-c1ccccc1C(=O)N1CCC(O)C1 (protonated)
C=c1c(=Cc2c(O)[n-]c(=O)[n-]c2=O)cc(C)n1-c1ccccc1C(=O)N1CC[C@@H](O)C1 (chirality)
C=c1/c(=C/c2c(O)[n-]c(=O)[n-]c2=O)cc(C)n1-c1ccccc1C(=O)N1CC[C@@H](O)C1 (cis-trans isomerization)
C=c1/c(=C/c2c(O)[n-]c(=O)[n-]c2=O)cc(C)n1-c1ccccc1C(=O)N1CC[C@@H](O)C1 (3D coordinates assigned)
C=c1/c(=C/c2c(O)[n-]c(=O)[n-]c2=O)cc(C)n1-c1ccccc1C(=O)N1CC[C@@H](O)C1 (nonaromatic ring conformer: 103.67734408010361 kcal/mol)

>  <smiles>  (7) 
C=c1c(=Cc2c(O)[nH]c(=O)[nH]c2=O)cc(C)n1-c1ccccc1C(=O)N1CCC(O)C1

>  <score_type>  (7) 
oracle

>  <origin>  (7) 
adg

>  <m_score__min__energy>  (7) 
-13.460000000000001

>  <m_primary>  (7) 
energy

$$$$
7:0
     RDKit          3D

 56 59  0  0  0  0  0  0  0  0999 V2000
   61.0832   30.2410   46.8587 H   0  0  0  0  0  0  0  0  0  0  0  0
   60.2880   30.0250   46.1300 C   0  0  0  0  0  0  0  0  0  0  0  0
   60.1738   29.0083   45.7258 H   0  0  0  0  0  0  0  0  0  0  0  0
   59.4570   31.0020   45.7340 C   0  0  0  0  0  0  0  0  0  0  0  0
   58.4030   30.8830   44.8190 C   0  0  0  0  0  0  0  0  0  0  0  0
   57.9810   29.7540   44.2130 C   0  0  0  0  0  0  0  0  0  0  0  0
   57.9438   29.7532   43.1136 H   0  0  0  0  0  0  0  0  0  0  0  0
   57.5650   28.5190   44.9080 C   0  0  0  0  0  0  0  0  0  0  0  0
   58.5680   27.3530   45.6080 S   0  0  0  0  0  0  0  0  0  0  0  0
   57.2770   26.4980   46.2570 C   0  0  0  0  0  0  0  0  0  0  0  0
   57.3910   25.4410   46.9310 O   0  0  0  0  0  0  0  0  0  0  0  0
   56.0870   27.0740   45.9890 N   0  0  0  0  0  0  0  0  0  0  0  0
   56.2490   28.2040   45.2500 C   0  0  0  0  0  0  0  0  0  0  0  0
   55.1640   28.9840   44.8690 O   0  0  0  0  0  0  0  0  0  0  0  0
   57.8470   32.1520   44.7030 C   0  0  0  0  0  0  0  0  0  0  0  0
   56.9927   32.4390   44.0723 H   0  0  0  0  0  0  0  0  0  0  0  0
   58.5740   32.9820   45.5320 C   0  0  0  0  0  0  0  0  0  0  0  0
   58.3050   34.4400   45.7370 C   0  0  0  0  0  0  0  0  0  0  0  0
   58.2649   34.6575   46.8145 H   0  0  0  0  0  0  0  0  0  0  0  0
   59.1095   35.0300   45.2736 H   0  0  0  0  0  0  0  0  0  0  0  0
   57.3430   34.7041   45.2736 H   0  0  0  0  0  0  0  0  0  0  0  0
   59.5460   32.2860   46.1600 N   0  0  0  0  0  0  0  0  0  0  0  0
   60.4910   32.8290   47.0990 C   0  0  0  0  0  0  0  0  0  0  0  0
   61.7490   33.2430   46.6350 C   0  0  0  0  0  0  0  0  0  0  0  0
   61.9831   33.1800   45.5621 H   0  0  0  0  0  0  0  0  0  0  0  0
   62.7050   33.7340   47.5250 C   0  0  0  0  0  0  0  0  0  0  0  0
   63.6882   34.0573   47.1525 H   0  0  0  0  0  0  0  0  0  0  0  0
   62.4140   33.8150   48.8880 C   0  0  0  0  0  0  0  0  0  0  0  0
   63.1702   34.1987   49.5887 H   0  0  0  0  0  0  0  0  0  0  0  0
   61.1650   33.4100   49.3640 C   0  0  0  0  0  0  0  0  0  0  0  0
   60.9428   33.4779   50.4392 H   0  0  0  0  0  0  0  0  0  0  0  0
   60.1890   32.9160   48.4800 C   0  0  0  0  0  0  0  0  0  0  0  0
   58.8590   32.5290   49.0070 C   0  0  0  0  0  0  0  0  0  0  0  0
   57.8300   32.7080   48.2990 O   0  0  0  0  0  0  0  0  0  0  0  0
   58.7300   31.9550   50.3160 N   0  0  0  0  0  0  0  0  0  0  0  0
   59.5960   31.7100   50.8480 H   0  0  0  0  0  0  0  0  0  0  0  0
   57.4190   31.6530   50.8890 C   0  0  0  0  0  0  0  0  0  0  0  0
   56.8151   32.5722   50.9094 H   0  0  0  0  0  0  0  0  0  0  0  0
   56.9335   30.8861   50.2675 H   0  0  0  0  0  0  0  0  0  0  0  0
   57.5540   31.1110   52.3150 C   0  0  0  0  0  0  0  0  0  0  0  0
   56.7146   30.4327   52.5279 H   0  0  0  0  0  0  0  0  0  0  0  0
   58.5057   30.5668   52.4059 H   0  0  0  0  0  0  0  0  0  0  0  0
   57.5390   32.2300   53.2860 N   0  0  0  0  0  0  0  0  0  0  0  0
   58.4510   32.0020   54.4270 C   0  0  0  0  0  0  0  0  0  0  0  0
   58.1912   32.7032   55.2337 H   0  0  0  0  0  0  0  0  0  0  0  0
   58.3322   30.9574   54.7507 H   0  0  0  0  0  0  0  0  0  0  0  0
   59.9350   32.2140   54.0410 C   0  0  0  0  0  0  0  0  0  0  0  0
   60.3747   32.9559   54.7238 H   0  0  0  0  0  0  0  0  0  0  0  0
   60.4433   31.2416   54.1193 H   0  0  0  0  0  0  0  0  0  0  0  0
   60.0880   32.6740   52.7110 O   0  0  0  0  0  0  0  0  0  0  0  0
   59.3150   33.8380   52.5200 C   0  0  0  0  0  0  0  0  0  0  0  0
   59.6073   34.5878   53.2699 H   0  0  0  0  0  0  0  0  0  0  0  0
   59.4983   34.2098   51.5011 H   0  0  0  0  0  0  0  0  0  0  0  0
   57.8060   33.5470   52.6640 C   0  0  0  0  0  0  0  0  0  0  0  0
   57.3538   34.3307   53.2896 H   0  0  0  0  0  0  0  0  0  0  0  0
   57.3704   33.5340   51.6540 H   0  0  0  0  0  0  0  0  0  0  0  0
  1  2  1  0
  2  3  1  0
  2  4  2  0
  4  5  1  0
  5  6  2  0
  6  7  1  0
  6  8  1  0
  8  9  1  0
  9 10  1  0
 10 11  2  0
 10 12  1  0
 12 13  1  0
 13 14  1  0
  5 15  1  0
 15 16  1  0
 15 17  2  0
 17 18  1  0
 18 19  1  0
 18 20  1  0
 18 21  1  0
 17 22  1  0
 22 23  1  0
 23 24  2  0
 24 25  1  0
 24 26  1  0
 26 27  1  0
 26 28  2  0
 28 29  1  0
 28 30  1  0
 30 31  1  0
 30 32  2  0
 32 33  1  0
 33 34  2  0
 33 35  1  0
 35 36  1  0
 35 37  1  0
 37 38  1  0
 37 39  1  0
 37 40  1  0
 40 41  1  0
 40 42  1  0
 40 43  1  0
 43 44  1  0
 44 45  1  0
 44 46  1  0
 44 47  1  0
 47 48  1  0
 47 49  1  0
 47 50  1  0
 50 51  1  0
 51 52  1  0
 51 53  1  0
 51 54  1  0
 54 55  1  0
 54 56  1  0
 22  4  1  0
 32 23  1  0
 54 43  1  0
 13  8  2  0
M  CHG  2  12  -1  14  -1
M  END
>  <UniqueID>  (8) 
7

>  <SMILES>  (8) 
C=c1/c(=C/c2sc(=O)[n-]c2[O-])cc(C)n1-c1ccccc1C(=O)NCCN1CCOCC1

>  <Energy>  (8) 
143.46458142133096

>  <Genealogy>  (8) 
C=c1c(=Cc2sc(=O)[n-]c2[O-])cc(C)n1-c1ccccc1C(=O)NCCN1CCOCC1 (protonated)
C=c1/c(=C/c2sc(=O)[n-]c2[O-])cc(C)n1-c1ccccc1C(=O)NCCN1CCOCC1 (cis-trans isomerization)
C=c1/c(=C/c2sc(=O)[n-]c2[O-])cc(C)n1-c1ccccc1C(=O)NCCN1CCOCC1 (3D coordinates assigned)
C=c1/c(=C/c2sc(=O)[n-]c2[O-])cc(C)n1-c1ccccc1C(=O)NCCN1CCOCC1 (nonaromatic ring conformer: 143.46458142133096 kcal/mol)

>  <smiles>  (8) 
C=c1c(=Cc2sc(=O)[nH]c2O)cc(C)n1-c1ccccc1C(=O)NCCN1CCOCC1

>  <score_type>  (8) 
oracle

>  <origin>  (8) 
adg

>  <m_score__min__energy>  (8) 
-14.720000000000001

>  <m_primary>  (8) 
energy

$$$$
8:0
     RDKit          3D

 57 60  0  0  0  0  0  0  0  0999 V2000
   61.1670   26.3580   48.8580 O   0  0  0  0  0  0  0  0  0  0  0  0
   60.1380   26.7930   48.2790 C   0  0  0  0  0  0  0  0  0  0  0  0
   59.6520   26.1020   47.0360 C   0  0  0  0  0  0  0  0  0  0  0  0
   57.8250   26.0850   46.9710 S   0  0  0  0  0  0  0  0  0  0  0  0
   57.6830   27.5420   45.9400 C   0  0  0  0  0  0  0  0  0  0  0  0
   58.8000   28.1680   45.4900 N   0  0  0  0  0  0  0  0  0  0  0  0
   58.7190   29.2730   44.7080 C   0  0  0  0  0  0  0  0  0  0  0  0
   59.7790   29.8230   44.3090 O   0  0  0  0  0  0  0  0  0  0  0  0
   57.4600   29.7920   44.3500 C   0  0  0  0  0  0  0  0  0  0  0  0
   57.3360   31.0410   43.5070 C   0  0  0  0  0  0  0  0  0  0  0  0
   57.6660   32.2640   44.3230 C   0  0  0  0  0  0  0  0  0  0  0  0
   58.4990   33.2670   43.7960 C   0  0  0  0  0  0  0  0  0  0  0  0
   58.8280   34.3870   44.5660 C   0  0  0  0  0  0  0  0  0  0  0  0
   58.3330   34.5130   45.8660 C   0  0  0  0  0  0  0  0  0  0  0  0
   57.5080   33.5190   46.4000 C   0  0  0  0  0  0  0  0  0  0  0  0
   57.1770   32.3960   45.6330 C   0  0  0  0  0  0  0  0  0  0  0  0
   56.3190   29.1330   44.8430 C   0  0  0  0  0  0  0  0  0  0  0  0
   55.0420   29.5990   44.5390 O   0  0  0  0  0  0  0  0  0  0  0  0
   56.4580   28.0280   45.6210 N   0  0  0  0  0  0  0  0  0  0  0  0
   59.4130   27.8710   48.8880 N   0  0  0  0  0  0  0  0  0  0  0  0
   59.9690   29.0060   49.5630 C   0  0  0  0  0  0  0  0  0  0  0  0
   60.5670   28.8880   50.8290 C   0  0  0  0  0  0  0  0  0  0  0  0
   61.0850   30.0170   51.4690 C   0  0  0  0  0  0  0  0  0  0  0  0
   60.9950   31.2720   50.8610 C   0  0  0  0  0  0  0  0  0  0  0  0
   60.3690   31.4050   49.6140 C   0  0  0  0  0  0  0  0  0  0  0  0
   60.2660   32.9750   48.8210 S   0  0  0  0  0  0  0  0  0  0  0  0
   61.1090   33.9780   49.5580 O   0  0  0  0  0  0  0  0  0  0  0  0
   58.8350   33.4320   48.8660 O   0  0  0  0  0  0  0  0  0  0  0  0
   60.7810   32.8500   47.1500 N   0  0  0  0  0  0  0  0  0  0  0  0
   61.5010   31.5900   46.8890 C   0  0  0  0  0  0  0  0  0  0  0  0
   62.9280   31.5940   47.4870 C   0  0  0  0  0  0  0  0  0  0  0  0
   63.4170   32.8910   47.7790 O   0  0  0  0  0  0  0  0  0  0  0  0
   63.0800   33.7880   46.7450 C   0  0  0  0  0  0  0  0  0  0  0  0
   61.5590   34.0340   46.7260 C   0  0  0  0  0  0  0  0  0  0  0  0
   59.8520   30.2710   48.9740 C   0  0  0  0  0  0  0  0  0  0  0  0
   60.0388   26.6333   46.1539 H   0  0  0  0  0  0  0  0  0  0  0  0
   60.0129   25.0630   47.0475 H   0  0  0  0  0  0  0  0  0  0  0  0
   58.0313   30.9745   42.6572 H   0  0  0  0  0  0  0  0  0  0  0  0
   56.3007   31.1241   43.1447 H   0  0  0  0  0  0  0  0  0  0  0  0
   58.8935   33.1701   42.7737 H   0  0  0  0  0  0  0  0  0  0  0  0
   59.4775   35.1698   44.1473 H   0  0  0  0  0  0  0  0  0  0  0  0
   58.5926   35.3950   46.4699 H   0  0  0  0  0  0  0  0  0  0  0  0
   57.1186   33.6194   47.4239 H   0  0  0  0  0  0  0  0  0  0  0  0
   56.5312   31.6135   46.0580 H   0  0  0  0  0  0  0  0  0  0  0  0
   54.2500   28.9690   44.5190 H   0  0  0  0  0  0  0  0  0  0  0  0
   60.6275   27.9043   51.3176 H   0  0  0  0  0  0  0  0  0  0  0  0
   61.5648   29.9176   52.4538 H   0  0  0  0  0  0  0  0  0  0  0  0
   61.4159   32.1565   51.3616 H   0  0  0  0  0  0  0  0  0  0  0  0
   60.9333   30.7595   47.3341 H   0  0  0  0  0  0  0  0  0  0  0  0
   61.5934   31.4750   45.7989 H   0  0  0  0  0  0  0  0  0  0  0  0
   62.9164   31.0089   48.4184 H   0  0  0  0  0  0  0  0  0  0  0  0
   63.5966   31.1604   46.7288 H   0  0  0  0  0  0  0  0  0  0  0  0
   63.6002   34.7432   46.9092 H   0  0  0  0  0  0  0  0  0  0  0  0
   63.3847   33.3542   45.7811 H   0  0  0  0  0  0  0  0  0  0  0  0
   61.3294   34.8673   47.4063 H   0  0  0  0  0  0  0  0  0  0  0  0
   61.2738   34.2632   45.6886 H   0  0  0  0  0  0  0  0  0  0  0  0
   59.3500   30.3752   48.0008 H   0  0  0  0  0  0  0  0  0  0  0  0
  1  2  2  0
  2  3  1  0
  3  4  1  0
  4  5  1  0
  5  6  2  0
  6  7  1  0
  7  8  2  0
  7  9  1  0
  9 10  1  0
 10 11  1  0
 11 12  2  0
 12 13  1  0
 13 14  2  0
 14 15  1  0
 15 16  2  0
  9 17  2  0
 17 18  1  0
 17 19  1  0
  2 20  1  0
 20 21  1  0
 21 22  2  0
 22 23  1  0
 23 24  2  0
 24 25  1  0
 25 26  1  0
 26 27  2  0
 26 28  2  0
 26 29  1  0
 29 30  1  0
 30 31  1  0
 31 32  1  0
 32 33  1  0
 33 34  1  0
 25 35  2  0
 19  5  1  0
 35 21  1  0
 16 11  1  0
 34 29  1  0
  3 36  1  0
  3 37  1  0
 10 38  1  0
 10 39  1  0
 12 40  1  0
 13 41  1  0
 14 42  1  0
 15 43  1  0
 16 44  1  0
 18 45  1  0
 22 46  1  0
 23 47  1  0
 24 48  1  0
 30 49  1  0
 30 50  1  0
 31 51  1  0
 31 52  1  0
 33 53  1  0
 33 54  1  0
 34 55  1  0
 34 56  1  0
 35 57  1  0
M  CHG  2  19  -1  20  -1
M  END
>  <UniqueID>  (9) 
8

>  <SMILES>  (9) 
O=C(CSc1nc(=O)c(Cc2ccccc2)c(O)[n-]1)[N-]c1cccc(S(=O)(=O)N2CCOCC2)c1

>  <Energy>  (9) 
73.44400405923403

>  <Genealogy>  (9) 
O=C(CSc1nc(=O)c(Cc2ccccc2)c(O)[n-]1)[N-]c1cccc(S(=O)(=O)N2CCOCC2)c1 (protonated)
O=C(CSc1nc(=O)c(Cc2ccccc2)c(O)[n-]1)[N-]c1cccc(S(=O)(=O)N2CCOCC2)c1 (3D coordinates assigned)
O=C(CSc1nc(=O)c(Cc2ccccc2)c(O)[n-]1)[N-]c1cccc(S(=O)(=O)N2CCOCC2)c1 (nonaromatic ring conformer: 73.44400405923403 kcal/mol)

>  <smiles>  (9) 
O=C(CSc1nc(=O)c(Cc2ccccc2)c(O)[nH]1)Nc1cccc(S(=O)(=O)N2CCOCC2)c1

>  <score_type>  (9) 
oracle

>  <origin>  (9) 
adg

>  <m_score__min__energy>  (9) 
-13.539999999999999

>  <m_primary>  (9) 
energy

$$$$
9:0
     RDKit          3D

 43 46  0  0  1  0  0  0  0  0999 V2000
   60.5230   30.1400   47.1730 C   0  0  0  0  0  0  0  0  0  0  0  0
   63.9940   33.2260   49.3160 C   0  0  0  0  0  0  0  0  0  0  0  0
   58.7900   31.5490   46.2020 C   0  0  0  0  0  0  0  0  0  0  0  0
   57.9660   30.6780   45.6750 C   0  0  0  0  0  0  0  0  0  0  0  0
   59.6440   33.4740   46.7960 C   0  0  0  0  0  0  0  0  0  0  0  0
   60.4420   32.4920   47.2280 N   0  0  0  0  0  0  0  0  0  0  0  0
   59.9510   31.2750   46.8820 C   0  0  0  0  0  0  0  0  0  0  0  0
   57.0070   31.6400   41.0880 O   0  0  0  0  0  0  0  0  0  0  0  0
   57.7850   31.4750   43.2760 N   0  0  0  0  0  0  0  0  0  0  0  0
   57.3950   30.7480   44.3430 C   0  0  0  0  0  0  0  0  0  0  0  0
   55.5970   29.0650   44.8110 O   0  0  0  0  0  0  0  0  0  0  0  0
   58.5740   32.9200   46.1350 C   0  0  0  0  0  0  0  0  0  0  0  0
   62.8670   32.6950   47.3060 C   0  0  0  0  0  0  0  0  0  0  0  0
   59.8300   34.9360   46.9710 C   0  0  0  0  0  0  0  0  0  0  0  0
   63.9850   32.9370   48.0170 N   0  0  0  0  0  0  0  0  0  0  0  0
   61.6440   32.7450   47.9550 C   0  0  0  0  0  0  0  0  0  0  0  0
   61.6330   33.0430   49.3030 C   0  0  0  0  0  0  0  0  0  0  0  0
   62.7910   33.2760   49.9520 N   0  0  0  0  0  0  0  0  0  0  0  0
   56.9480   31.1540   42.2540 C   0  0  0  0  0  0  0  0  0  0  0  0
   65.0240   33.4630   50.0260 N   0  0  0  0  0  0  0  0  0  0  0  0
   66.2040   32.6270   50.0010 C   0  0  0  0  0  0  0  0  0  0  0  0
   66.8290   32.2180   51.2810 C   0  0  0  0  0  0  0  0  0  0  0  0
   67.5240   33.2890   50.4860 C   0  0  0  0  0  0  0  0  0  0  0  0
   56.0550   30.2420   42.6910 N   0  0  0  0  0  0  0  0  0  0  0  0
   56.2910   29.9560   43.9850 C   0  0  0  0  0  0  0  0  0  0  0  0
   61.4680   30.1287   47.7358 H   0  0  0  0  0  0  0  0  0  0  0  0
   60.0605   29.1937   46.8557 H   0  0  0  0  0  0  0  0  0  0  0  0
   57.6816   29.8169   46.2975 H   0  0  0  0  0  0  0  0  0  0  0  0
   64.8820   32.8950   47.5130 H   0  0  0  0  0  0  0  0  0  0  0  0
   58.5890   32.1510   43.2700 H   0  0  0  0  0  0  0  0  0  0  0  0
   54.7440   28.5910   44.5000 H   0  0  0  0  0  0  0  0  0  0  0  0
   57.7331   33.4453   45.6586 H   0  0  0  0  0  0  0  0  0  0  0  0
   59.8605   35.1759   48.0441 H   0  0  0  0  0  0  0  0  0  0  0  0
   60.7746   35.2445   46.4993 H   0  0  0  0  0  0  0  0  0  0  0  0
   58.9927   35.4712   46.4993 H   0  0  0  0  0  0  0  0  0  0  0  0
   60.6785   33.0903   49.8477 H   0  0  0  0  0  0  0  0  0  0  0  0
   65.8634   32.0822   49.1081 H   0  0  0  0  0  0  0  0  0  0  0  0
   66.3399   32.4791   52.2311 H   0  0  0  0  0  0  0  0  0  0  0  0
   67.1479   31.2513   51.6980 H   0  0  0  0  0  0  0  0  0  0  0  0
   67.5259   34.3306   50.8397 H   0  0  0  0  0  0  0  0  0  0  0  0
   68.5323   33.4361   50.0717 H   0  0  0  0  0  0  0  0  0  0  0  0
   55.2940   29.8180   42.1170 H   0  0  0  0  0  0  0  0  0  0  0  0
   62.9238   32.4625   46.2324 H   0  0  0  0  0  0  0  0  0  0  0  0
  1  2  2  0
  2  3  1  0
  3  4  2  0
  4  5  1  0
  5  6  1  0
  6  7  1  0
  7  8  2  0
  7  9  1  0
  9 10  1  0
 10 11  1  0
  3 12  1  0
 12 13  2  0
 13 14  1  0
 13 15  1  0
 15 16  1  0
 16 17  1  0
 17 18  2  0
 18 19  1  0
 19 20  2  3
 20 21  1  0
 21 22  1  0
 22 23  1  0
 19 24  1  0
 24 25  1  0
 15  2  1  0
 25 16  2  0
 10  5  2  0
 23 21  1  0
  1 26  1  0
  1 27  1  0
  4 28  1  0
  6 29  1  0
  9 30  1  0
 11 31  1  0
 12 32  1  0
 14 33  1  0
 14 34  1  0
 14 35  1  0
 17 36  1  0
 21 37  1  0
 22 38  1  0
 22 39  1  0
 23 40  1  0
 23 41  1  0
 24 42  1  0
 25 43  1  0
M  END
>  <smiles>  (10) 
C=c1c(=Cc2[nH]c(=O)[nH]c2O)cc(C)n1-c1cnc(=NC2CC2)[nH]c1

>  <score_type>  (10) 
oracle

>  <origin>  (10) 
adg

>  <m_score__min__energy>  (10) 
-8.8800000000000008

>  <m_primary>  (10) 
energy

$$$$
10:0
     RDKit          3D

 42 44  0  0  0  0  0  0  0  0999 V2000
   59.6220   34.8770   47.9910 C   0  0  0  0  0  0  0  0  0  0  0  0
   59.0260   33.8000   47.1420 C   0  0  0  0  0  0  0  0  0  0  0  0
   58.4290   32.3400   47.7540 S   0  0  0  0  0  0  0  0  0  0  0  0
   57.9910   31.7360   46.2560 C   0  0  0  0  0  0  0  0  0  0  0  0
   57.4080   30.5410   46.0060 N   0  0  0  0  0  0  0  0  0  0  0  0
   57.1170   30.2040   44.7170 C   0  0  0  0  0  0  0  0  0  0  0  0
   56.3990   28.9250   44.4250 C   0  0  0  0  0  0  0  0  0  0  0  0
   57.1780   27.8050   44.9430 N   0  0  0  0  0  0  0  0  0  0  0  0
   56.6420   26.9090   45.9250 C   0  0  0  0  0  0  0  0  0  0  0  0
   55.3990   26.7070   45.9920 O   0  0  0  0  0  0  0  0  0  0  0  0
   57.5550   26.2590   46.9160 C   0  0  0  0  0  0  0  0  0  0  0  0
   58.9090   26.7770   46.7470 N   0  0  0  0  0  0  0  0  0  0  0  0
   59.7010   27.2850   47.8280 C   0  0  0  0  0  0  0  0  0  0  0  0
   59.8510   26.5930   48.8720 O   0  0  0  0  0  0  0  0  0  0  0  0
   60.3360   28.6180   47.7240 C   0  0  0  0  0  0  0  0  0  0  0  0
   60.5090   29.2330   46.4710 C   0  0  0  0  0  0  0  0  0  0  0  0
   61.1020   30.4950   46.3770 C   0  0  0  0  0  0  0  0  0  0  0  0
   61.5290   31.1580   47.5300 C   0  0  0  0  0  0  0  0  0  0  0  0
   62.2790   32.7390   47.4070 Cl  0  0  0  0  0  0  0  0  0  0  0  0
   61.3580   30.5590   48.7820 C   0  0  0  0  0  0  0  0  0  0  0  0
   60.7630   29.2980   48.8800 C   0  0  0  0  0  0  0  0  0  0  0  0
   57.3870   31.0800   43.7020 N   0  0  0  0  0  0  0  0  0  0  0  0
   57.9690   32.2890   43.9370 C   0  0  0  0  0  0  0  0  0  0  0  0
   58.2000   33.0670   42.9740 O   0  0  0  0  0  0  0  0  0  0  0  0
   58.2900   32.6410   45.2550 C   0  0  0  0  0  0  0  0  0  0  0  0
   58.8870   33.8230   45.7430 C   0  0  0  0  0  0  0  0  0  0  0  0
   59.3000   34.9780   44.8750 C   0  0  0  0  0  0  0  0  0  0  0  0
   59.4830   34.6259   49.0529 H   0  0  0  0  0  0  0  0  0  0  0  0
   60.6965   34.9638   47.7723 H   0  0  0  0  0  0  0  0  0  0  0  0
   59.1249   35.8336   47.7723 H   0  0  0  0  0  0  0  0  0  0  0  0
   55.4109   28.9398   44.9081 H   0  0  0  0  0  0  0  0  0  0  0  0
   56.2720   28.8138   43.3380 H   0  0  0  0  0  0  0  0  0  0  0  0
   58.2080   27.8000   44.7700 H   0  0  0  0  0  0  0  0  0  0  0  0
   57.2040   26.4774   47.9354 H   0  0  0  0  0  0  0  0  0  0  0  0
   57.5568   25.1712   46.7525 H   0  0  0  0  0  0  0  0  0  0  0  0
   60.1752   28.7171   45.5586 H   0  0  0  0  0  0  0  0  0  0  0  0
   61.2329   30.9675   45.3923 H   0  0  0  0  0  0  0  0  0  0  0  0
   61.6922   31.0808   49.6909 H   0  0  0  0  0  0  0  0  0  0  0  0
   60.6275   28.8336   49.8679 H   0  0  0  0  0  0  0  0  0  0  0  0
   59.6025   35.8239   45.5098 H   0  0  0  0  0  0  0  0  0  0  0  0
   60.1456   34.6754   44.2399 H   0  0  0  0  0  0  0  0  0  0  0  0
   58.4542   35.2802   44.2399 H   0  0  0  0  0  0  0  0  0  0  0  0
  1  2  1  0
  2  3  1  0
  3  4  1  0
  4  5  1  0
  5  6  1  0
  6  7  1  0
  7  8  1  0
  8  9  1  0
  9 10  2  0
  9 11  1  0
 11 12  1  0
 12 13  1  0
 13 14  2  0
 13 15  1  0
 15 16  2  0
 16 17  1  0
 17 18  2  0
 18 19  1  0
 18 20  1  0
 20 21  2  0
  6 22  2  0
 22 23  1  0
 23 24  2  0
 23 25  1  0
 25 26  1  0
 26 27  1  0
 26  2  2  0
 25  4  2  0
 21 15  1  0
  1 28  1  0
  1 29  1  0
  1 30  1  0
  7 31  1  0
  7 32  1  0
  8 33  1  0
 11 34  1  0
 11 35  1  0
 16 36  1  0
 17 37  1  0
 20 38  1  0
 21 39  1  0
 27 40  1  0
 27 41  1  0
 27 42  1  0
M  CHG  2   5  -1  12  -1
M  END
>  <UniqueID>  (11) 
9

>  <SMILES>  (11) 
Cc1sc2[n-]c(CNC(=O)C[N-]C(=O)c3ccc(Cl)cc3)nc(=O)c2c1C

>  <Energy>  (11) 
64.85723570767378

>  <Genealogy>  (11) 
Cc1sc2[n-]c(CNC(=O)C[N-]C(=O)c3ccc(Cl)cc3)nc(=O)c2c1C (protonated)
Cc1sc2[n-]c(CNC(=O)C[N-]C(=O)c3ccc(Cl)cc3)nc(=O)c2c1C (3D coordinates assigned)
Cc1sc2[n-]c(CNC(=O)C[N-]C(=O)c3ccc(Cl)cc3)nc(=O)c2c1C (optimized conformer: 64.85723570767378 kcal/mol)

>  <smiles>  (11) 
Cc1sc2[nH]c(CNC(=O)CNC(=O)c3ccc(Cl)cc3)nc(=O)c2c1C

>  <score_type>  (11) 
oracle

>  <origin>  (11) 
adg

>  <m_score__min__energy>  (11) 
-10.43

>  <m_primary>  (11) 
energy

$$$$
11:0
     RDKit          3D

 39 41  0  0  0  0  0  0  0  0999 V2000
   55.5748   31.2038   43.9851 H   0  0  0  0  0  0  0  0  0  0  0  0
   56.1580   30.3190   44.2800 C   0  0  0  0  0  0  0  0  0  0  0  0
   55.5390   29.2660   44.8740 N   0  0  0  0  0  0  0  0  0  0  0  0
   56.2240   28.1550   45.2600 C   0  0  0  0  0  0  0  0  0  0  0  0
   55.5680   27.0870   45.8810 O   0  0  0  0  0  0  0  0  0  0  0  0
   56.2110   25.8520   46.1710 C   0  0  0  0  0  0  0  0  0  0  0  0
   56.2791   25.7212   47.2611 H   0  0  0  0  0  0  0  0  0  0  0  0
   55.6290   25.0251   45.7381 H   0  0  0  0  0  0  0  0  0  0  0  0
   57.2222   25.8546   45.7381 H   0  0  0  0  0  0  0  0  0  0  0  0
   57.6030   28.0770   45.0400 C   0  0  0  0  0  0  0  0  0  0  0  0
   58.1638   27.1859   45.3585 H   0  0  0  0  0  0  0  0  0  0  0  0
   58.2710   29.1460   44.4080 C   0  0  0  0  0  0  0  0  0  0  0  0
   59.5550   29.1350   44.1720 N   0  0  0  0  0  0  0  0  0  0  0  0
   60.6130   29.1700   45.1420 C   0  0  0  0  0  0  0  0  0  0  0  0
   61.7910   28.9460   44.7560 O   0  0  0  0  0  0  0  0  0  0  0  0
   60.3420   29.3840   46.5860 C   0  0  0  0  0  0  0  0  0  0  0  0
   60.0510   28.2920   47.4200 C   0  0  0  0  0  0  0  0  0  0  0  0
   60.0070   27.2776   46.9968 H   0  0  0  0  0  0  0  0  0  0  0  0
   59.8170   28.4860   48.7840 C   0  0  0  0  0  0  0  0  0  0  0  0
   59.6070   27.6212   49.4306 H   0  0  0  0  0  0  0  0  0  0  0  0
   59.8480   29.7730   49.3330 C   0  0  0  0  0  0  0  0  0  0  0  0
   59.6630   29.9370   51.0740 Cl  0  0  0  0  0  0  0  0  0  0  0  0
   60.0980   30.8810   48.4990 C   0  0  0  0  0  0  0  0  0  0  0  0
   60.1370   32.2190   49.0050 N   0  0  0  0  0  0  0  0  0  0  0  0
   60.4090   33.6130   48.0110 S   0  0  0  0  0  0  0  0  0  0  0  0
   60.3980   34.8520   48.8650 O   0  0  0  0  0  0  0  0  0  0  0  0
   61.7340   33.4980   47.3140 O   0  0  0  0  0  0  0  0  0  0  0  0
   59.1220   33.7260   46.8290 C   0  0  0  0  0  0  0  0  0  0  0  0
   59.2040   34.5770   45.3810 S   0  0  0  0  0  0  0  0  0  0  0  0
   57.6450   34.1980   44.8710 C   0  0  0  0  0  0  0  0  0  0  0  0
   57.1782   34.5274   43.9310 H   0  0  0  0  0  0  0  0  0  0  0  0
   57.0470   33.3980   45.8390 C   0  0  0  0  0  0  0  0  0  0  0  0
   56.0210   33.0114   45.7504 H   0  0  0  0  0  0  0  0  0  0  0  0
   57.8740   33.1310   46.9370 C   0  0  0  0  0  0  0  0  0  0  0  0
   57.5663   32.5145   47.7945 H   0  0  0  0  0  0  0  0  0  0  0  0
   60.3600   30.6770   47.1390 C   0  0  0  0  0  0  0  0  0  0  0  0
   60.5830   31.5398   46.4941 H   0  0  0  0  0  0  0  0  0  0  0  0
   57.5340   30.2800   44.0430 C   0  0  0  0  0  0  0  0  0  0  0  0
   58.0372   31.1369   43.5713 H   0  0  0  0  0  0  0  0  0  0  0  0
  1  2  1  0
  2  3  1  0
  3  4  1  0
  4  5  1  0
  5  6  1  0
  6  7  1  0
  6  8  1  0
  6  9  1  0
  4 10  2  0
 10 11  1  0
 10 12  1  0
 12 13  2  0
 13 14  1  0
 14 15  2  0
 14 16  1  0
 16 17  2  0
 17 18  1  0
 17 19  1  0
 19 20  1  0
 19 21  2  0
 21 22  1  0
 21 23  1  0
 23 24  1  0
 24 25  1  0
 25 26  2  0
 25 27  2  0
 25 28  1  0
 28 29  1  0
 29 30  1  0
 30 31  1  0
 30 32  2  0
 32 33  1  0
 32 34  1  0
 34 35  1  0
 23 36  2  0
 36 37  1  0
 12 38  1  0
 38 39  1  0
 38  2  2  0
 36 16  1  0
 34 28  2  0
M  CHG  2   3  -1  24  -1
M  END
>  <UniqueID>  (12) 
10

>  <SMILES>  (12) 
COc1c/c(=N\C(=O)c2ccc(Cl)c([N-]S(=O)(=O)c3cccs3)c2)cc[n-]1

>  <Energy>  (12) 
86.8873429593295

>  <Genealogy>  (12) 
COc1cc(=NC(=O)c2ccc(Cl)c([N-]S(=O)(=O)c3cccs3)c2)cc[n-]1 (protonated)
COc1c/c(=N\C(=O)c2ccc(Cl)c([N-]S(=O)(=O)c3cccs3)c2)cc[n-]1 (cis-trans isomerization)
COc1c/c(=N\C(=O)c2ccc(Cl)c([N-]S(=O)(=O)c3cccs3)c2)cc[n-]1 (3D coordinates assigned)
COc1c/c(=N\C(=O)c2ccc(Cl)c([N-]S(=O)(=O)c3cccs3)c2)cc[n-]1 (optimized conformer: 86.8873429593295 kcal/mol)

>  <smiles>  (12) 
COc1cc(=NC(=O)c2ccc(Cl)c(NS(=O)(=O)c3cccs3)c2)cc[nH]1

>  <score_type>  (12) 
oracle

>  <origin>  (12) 
adg

>  <m_score__min__energy>  (12) 
-11.720000000000001

>  <m_primary>  (12) 
energy

$$$$
12:0
     RDKit          3D

 29 30  0  0  0  0  0  0  0  0999 V2000
   58.2620   27.1930   44.3680 C   0  0  0  0  0  0  0  0  0  0  0  0
   58.4640   27.9150   45.4820 C   0  0  0  0  0  0  0  0  0  0  0  0
   59.4960   29.0170   45.4920 C   0  0  0  0  0  0  0  0  0  0  0  0
   58.8320   30.3630   45.3840 C   0  0  0  0  0  0  0  0  0  0  0  0
   57.8260   30.5790   44.4290 C   0  0  0  0  0  0  0  0  0  0  0  0
   57.2290   31.8370   44.3050 C   0  0  0  0  0  0  0  0  0  0  0  0
   57.6380   32.8920   45.1270 C   0  0  0  0  0  0  0  0  0  0  0  0
   57.0380   34.1390   44.9940 O   0  0  0  0  0  0  0  0  0  0  0  0
   58.6480   32.6870   46.0760 C   0  0  0  0  0  0  0  0  0  0  0  0
   59.2300   34.1180   47.2060 Br  0  0  0  0  0  0  0  0  0  0  0  0
   59.2460   31.4270   46.2010 C   0  0  0  0  0  0  0  0  0  0  0  0
   57.6470   27.6310   46.7180 C   0  0  0  0  0  0  0  0  0  0  0  0
   57.1520   26.2580   46.6910 N   0  0  0  0  0  0  0  0  0  0  0  0
   57.8770   25.2030   47.0350 N   0  0  0  0  0  0  0  0  0  0  0  0
   57.0670   24.1300   46.9340 C   0  0  0  0  0  0  0  0  0  0  0  0
   57.4360   22.9540   47.1870 O   0  0  0  0  0  0  0  0  0  0  0  0
   55.7970   24.4940   46.5290 C   0  0  0  0  0  0  0  0  0  0  0  0
   55.9000   25.8600   46.3920 C   0  0  0  0  0  0  0  0  0  0  0  0
   54.8730   26.7140   46.0100 O   0  0  0  0  0  0  0  0  0  0  0  0
   57.5099   26.3903   44.3617 H   0  0  0  0  0  0  0  0  0  0  0  0
   58.8486   27.4042   43.4618 H   0  0  0  0  0  0  0  0  0  0  0  0
   60.0670   28.9695   46.4310 H   0  0  0  0  0  0  0  0  0  0  0  0
   60.1682   28.8823   44.6317 H   0  0  0  0  0  0  0  0  0  0  0  0
   57.5059   29.7544   43.7751 H   0  0  0  0  0  0  0  0  0  0  0  0
   56.4361   31.9974   43.5596 H   0  0  0  0  0  0  0  0  0  0  0  0
   60.0434   31.2702   46.9424 H   0  0  0  0  0  0  0  0  0  0  0  0
   58.2755   27.7731   47.6095 H   0  0  0  0  0  0  0  0  0  0  0  0
   56.7906   28.3206   46.7483 H   0  0  0  0  0  0  0  0  0  0  0  0
   54.9207   23.8514   46.3583 H   0  0  0  0  0  0  0  0  0  0  0  0
  1  2  2  0
  2  3  1  0
  3  4  1  0
  4  5  2  0
  5  6  1  0
  6  7  2  0
  7  8  1  0
  7  9  1  0
  9 10  1  0
  9 11  2  0
  2 12  1  0
 12 13  1  0
 13 14  1  0
 14 15  1  0
 15 16  2  0
 15 17  1  0
 17 18  2  0
 18 19  1  0
 11  4  1  0
 18 13  1  0
  1 20  1  0
  1 21  1  0
  3 22  1  0
  3 23  1  0
  5 24  1  0
  6 25  1  0
 11 26  1  0
 12 27  1  0
 12 28  1  0
 17 29  1  0
M  CHG  3   8  -1  14  -1  19  -1
M  END
>  <UniqueID>  (13) 
11

>  <SMILES>  (13) 
C=C(Cc1ccc([O-])c(Br)c1)Cn1[n-]c(=O)cc1[O-]

>  <Energy>  (13) 
56.822090706140145

>  <Genealogy>  (13) 
C=C(Cc1ccc([O-])c(Br)c1)Cn1[n-]c(=O)cc1[O-] (protonated)
C=C(Cc1ccc([O-])c(Br)c1)Cn1[n-]c(=O)cc1[O-] (3D coordinates assigned)
C=C(Cc1ccc([O-])c(Br)c1)Cn1[n-]c(=O)cc1[O-] (optimized conformer: 56.822090706140145 kcal/mol)

>  <smiles>  (13) 
C=C(Cc1ccc(O)c(Br)c1)Cn1[nH]c(=O)cc1O

>  <score_type>  (13) 
oracle

>  <origin>  (13) 
adg

>  <m_score__min__energy>  (13) 
-12.65

>  <m_primary>  (13) 
energy

$$$$
13:0
     RDKit          3D

 46 49  0  0  0  0  0  0  0  0999 V2000
   62.8740   33.8650   46.0200 O   0  0  0  0  0  0  0  0  0  0  0  0
   62.1110   33.3960   46.9080 C   0  0  0  0  0  0  0  0  0  0  0  0
   62.5780   32.2520   47.7480 C   0  0  0  0  0  0  0  0  0  0  0  0
   61.3920   31.5340   48.3290 C   0  0  0  0  0  0  0  0  0  0  0  0
   60.7370   32.0460   49.4620 C   0  0  0  0  0  0  0  0  0  0  0  0
   59.6070   31.4000   49.9730 C   0  0  0  0  0  0  0  0  0  0  0  0
   59.1160   30.2490   49.3510 C   0  0  0  0  0  0  0  0  0  0  0  0
   59.7540   29.7420   48.2160 C   0  0  0  0  0  0  0  0  0  0  0  0
   60.8860   30.3820   47.7020 C   0  0  0  0  0  0  0  0  0  0  0  0
   60.8180   33.9740   47.1630 N   0  0  0  0  0  0  0  0  0  0  0  0
   59.7370   33.7810   46.4640 C   0  0  0  0  0  0  0  0  0  0  0  0
   59.2540   34.8070   45.6430 C   0  0  0  0  0  0  0  0  0  0  0  0
   58.1250   34.5790   44.8510 C   0  0  0  0  0  0  0  0  0  0  0  0
   57.4920   33.3340   44.8810 C   0  0  0  0  0  0  0  0  0  0  0  0
   57.9880   32.3360   45.7250 C   0  0  0  0  0  0  0  0  0  0  0  0
   57.3890   31.0380   45.7290 N   0  0  0  0  0  0  0  0  0  0  0  0
   57.0270   30.3470   44.5300 C   0  0  0  0  0  0  0  0  0  0  0  0
   57.4010   30.7820   43.4060 O   0  0  0  0  0  0  0  0  0  0  0  0
   56.1270   29.1570   44.6000 C   0  0  0  0  0  0  0  0  0  0  0  0
   56.8110   28.0690   45.3730 C   0  0  0  0  0  0  0  0  0  0  0  0
   56.2240   26.9500   45.9510 C   0  0  0  0  0  0  0  0  0  0  0  0
   54.8570   26.7070   45.9950 O   0  0  0  0  0  0  0  0  0  0  0  0
   57.1400   26.0920   46.4610 N   0  0  0  0  0  0  0  0  0  0  0  0
   58.3230   26.6760   46.1850 C   0  0  0  0  0  0  0  0  0  0  0  0
   59.5870   26.1690   46.4800 C   0  0  0  0  0  0  0  0  0  0  0  0
   60.7090   26.9170   46.0770 C   0  0  0  0  0  0  0  0  0  0  0  0
   60.5460   28.1370   45.3870 C   0  0  0  0  0  0  0  0  0  0  0  0
   59.2590   28.6270   45.1010 C   0  0  0  0  0  0  0  0  0  0  0  0
   58.1660   27.8690   45.5220 C   0  0  0  0  0  0  0  0  0  0  0  0
   59.0920   32.5820   46.4820 N   0  0  0  0  0  0  0  0  0  0  0  0
   63.1591   31.5550   47.1263 H   0  0  0  0  0  0  0  0  0  0  0  0
   63.2095   32.6328   48.5642 H   0  0  0  0  0  0  0  0  0  0  0  0
   61.1143   32.9577   49.9483 H   0  0  0  0  0  0  0  0  0  0  0  0
   59.1037   31.7986   50.8662 H   0  0  0  0  0  0  0  0  0  0  0  0
   58.2272   29.7421   49.7549 H   0  0  0  0  0  0  0  0  0  0  0  0
   59.3649   28.8374   47.7257 H   0  0  0  0  0  0  0  0  0  0  0  0
   61.3818   29.9831   46.8048 H   0  0  0  0  0  0  0  0  0  0  0  0
   59.7586   35.7842   45.6214 H   0  0  0  0  0  0  0  0  0  0  0  0
   57.7353   35.3792   44.2047 H   0  0  0  0  0  0  0  0  0  0  0  0
   56.6134   33.1412   44.2478 H   0  0  0  0  0  0  0  0  0  0  0  0
   55.1893   29.4335   45.1043 H   0  0  0  0  0  0  0  0  0  0  0  0
   55.9008   28.8032   43.5833 H   0  0  0  0  0  0  0  0  0  0  0  0
   59.7043   25.2132   47.0117 H   0  0  0  0  0  0  0  0  0  0  0  0
   61.7206   26.5478   46.3016 H   0  0  0  0  0  0  0  0  0  0  0  0
   61.4311   28.7085   45.0708 H   0  0  0  0  0  0  0  0  0  0  0  0
   59.1189   29.5763   44.5633 H   0  0  0  0  0  0  0  0  0  0  0  0
  1  2  2  0
  2  3  1  0
  3  4  1  0
  4  5  2  0
  5  6  1  0
  6  7  2  0
  7  8  1  0
  8  9  2  0
  2 10  1  0
 10 11  2  3
 11 12  1  0
 12 13  2  0
 13 14  1  0
 14 15  2  0
 15 16  1  0
 16 17  1  0
 17 18  2  0
 17 19  1  0
 19 20  1  0
 20 21  2  0
 21 22  1  0
 21 23  1  0
 23 24  1  0
 24 25  2  0
 25 26  1  0
 26 27  2  0
 27 28  1  0
 28 29  2  0
 15 30  1  0
  9  4  1  0
 30 11  1  0
 29 20  1  0
 29 24  1  0
  3 31  1  0
  3 32  1  0
  5 33  1  0
  6 34  1  0
  7 35  1  0
  8 36  1  0
  9 37  1  0
 12 38  1  0
 13 39  1  0
 14 40  1  0
 19 41  1  0
 19 42  1  0
 25 43  1  0
 26 44  1  0
 27 45  1  0
 28 46  1  0
M  CHG  4  16  -1  22  -1  23  -1  30  -1
M  END
>  <UniqueID>  (14) 
12

>  <SMILES>  (14) 
O=C(Cc1ccccc1)N=c1cccc([N-]C(=O)Cc2c([O-])[n-]c3ccccc23)[n-]1

>  <Energy>  (14) 
81.64375537781186

>  <Genealogy>  (14) 
O=C(Cc1ccccc1)N=c1cccc([N-]C(=O)Cc2c([O-])[n-]c3ccccc23)[n-]1 (protonated)
O=C(Cc1ccccc1)N=c1cccc([N-]C(=O)Cc2c([O-])[n-]c3ccccc23)[n-]1 (3D coordinates assigned)
O=C(Cc1ccccc1)N=c1cccc([N-]C(=O)Cc2c([O-])[n-]c3ccccc23)[n-]1 (optimized conformer: 81.64375537781186 kcal/mol)

>  <smiles>  (14) 
O=C(Cc1ccccc1)N=c1cccc(NC(=O)Cc2c(O)[nH]c3ccccc23)[nH]1

>  <score_type>  (14) 
oracle

>  <origin>  (14) 
adg

>  <m_score__min__energy>  (14) 
-17.719999999999999

>  <m_primary>  (14) 
energy

$$$$
14:0
     RDKit          3D

 44 46  0  0  0  0  0  0  0  0999 V2000
   55.1850   26.7100   45.9600 N   0  0  0  0  0  0  0  0  0  0  0  0
   55.9690   25.5390   46.1740 C   0  0  0  0  0  0  0  0  0  0  0  0
   55.6660   24.7410   47.1000 O   0  0  0  0  0  0  0  0  0  0  0  0
   57.1220   25.2370   45.2720 C   0  0  0  0  0  0  0  0  0  0  0  0
   58.0320   26.4250   45.1860 C   0  0  0  0  0  0  0  0  0  0  0  0
   59.3090   26.3970   45.7520 C   0  0  0  0  0  0  0  0  0  0  0  0
   60.1110   27.5300   45.6710 C   0  0  0  0  0  0  0  0  0  0  0  0
   59.6220   28.6730   45.0380 C   0  0  0  0  0  0  0  0  0  0  0  0
   60.3530   29.6970   44.9580 O   0  0  0  0  0  0  0  0  0  0  0  0
   58.3550   28.6670   44.5140 N   0  0  0  0  0  0  0  0  0  0  0  0
   57.8110   29.8310   43.8080 C   0  0  0  0  0  0  0  0  0  0  0  0
   57.7680   31.0190   44.7310 C   0  0  0  0  0  0  0  0  0  0  0  0
   57.4250   32.2830   44.2320 C   0  0  0  0  0  0  0  0  0  0  0  0
   57.4250   33.3970   45.0760 C   0  0  0  0  0  0  0  0  0  0  0  0
   57.7800   33.2570   46.4190 C   0  0  0  0  0  0  0  0  0  0  0  0
   58.1430   32.0050   46.9310 C   0  0  0  0  0  0  0  0  0  0  0  0
   58.5180   31.9110   48.3110 N   0  0  0  0  0  0  0  0  0  0  0  0
   59.9940   31.2180   48.9040 S   0  0  0  0  0  0  0  0  0  0  0  0
   60.0160   31.3090   50.4040 O   0  0  0  0  0  0  0  0  0  0  0  0
   60.0800   29.7810   48.4710 O   0  0  0  0  0  0  0  0  0  0  0  0
   61.3770   32.0950   48.2530 C   0  0  0  0  0  0  0  0  0  0  0  0
   61.2030   33.0490   47.2380 C   0  0  0  0  0  0  0  0  0  0  0  0
   62.3050   33.7410   46.7260 C   0  0  0  0  0  0  0  0  0  0  0  0
   63.5860   33.4830   47.2210 C   0  0  0  0  0  0  0  0  0  0  0  0
   63.7670   32.5320   48.2280 C   0  0  0  0  0  0  0  0  0  0  0  0
   62.6680   31.8360   48.7440 C   0  0  0  0  0  0  0  0  0  0  0  0
   62.8640   30.9130   49.7180 F   0  0  0  0  0  0  0  0  0  0  0  0
   58.1360   30.8840   46.0800 C   0  0  0  0  0  0  0  0  0  0  0  0
   57.5980   27.5670   44.5900 N   0  0  0  0  0  0  0  0  0  0  0  0
   55.5210   27.4720   45.3310 H   0  0  0  0  0  0  0  0  0  0  0  0
   57.6813   24.3781   45.6713 H   0  0  0  0  0  0  0  0  0  0  0  0
   56.7416   25.0007   44.2673 H   0  0  0  0  0  0  0  0  0  0  0  0
   59.6754   25.4901   46.2553 H   0  0  0  0  0  0  0  0  0  0  0  0
   61.1228   27.5251   46.1025 H   0  0  0  0  0  0  0  0  0  0  0  0
   58.4501   30.0642   42.9436 H   0  0  0  0  0  0  0  0  0  0  0  0
   56.7907   29.6019   43.4666 H   0  0  0  0  0  0  0  0  0  0  0  0
   57.1548   32.3987   43.1720 H   0  0  0  0  0  0  0  0  0  0  0  0
   57.1450   34.3850   44.6818 H   0  0  0  0  0  0  0  0  0  0  0  0
   57.7745   34.1364   47.0798 H   0  0  0  0  0  0  0  0  0  0  0  0
   60.1964   33.2529   46.8441 H   0  0  0  0  0  0  0  0  0  0  0  0
   62.1633   34.4895   45.9325 H   0  0  0  0  0  0  0  0  0  0  0  0
   64.4518   34.0287   46.8177 H   0  0  0  0  0  0  0  0  0  0  0  0
   64.7760   32.3296   48.6164 H   0  0  0  0  0  0  0  0  0  0  0  0
   58.4202   29.8968   46.4733 H   0  0  0  0  0  0  0  0  0  0  0  0
  1  2  1  0
  2  3  2  0
  2  4  1  0
  4  5  1  0
  5  6  1  0
  6  7  2  0
  7  8  1  0
  8  9  2  0
  8 10  1  0
 10 11  1  0
 11 12  1  0
 12 13  2  0
 13 14  1  0
 14 15  2  0
 15 16  1  0
 16 17  1  0
 17 18  1  0
 18 19  2  0
 18 20  2  0
 18 21  1  0
 21 22  2  0
 22 23  1  0
 23 24  2  0
 24 25  1  0
 25 26  2  0
 26 27  1  0
 16 28  2  0
 10 29  1  0
 29  5  2  0
 28 12  1  0
 26 21  1  0
  1 30  1  0
  4 31  1  0
  4 32  1  0
  6 33  1  0
  7 34  1  0
 11 35  1  0
 11 36  1  0
 13 37  1  0
 14 38  1  0
 15 39  1  0
 22 40  1  0
 23 41  1  0
 24 42  1  0
 25 43  1  0
 28 44  1  0
M  CHG  2   1  -1  17  -1
M  END
>  <UniqueID>  (15) 
13

>  <SMILES>  (15) 
[NH-]C(=O)Cc1ccc(=O)n(Cc2cccc([N-]S(=O)(=O)c3ccccc3F)c2)n1

>  <Energy>  (15) 
48.85969646550886

>  <Genealogy>  (15) 
[NH-]C(=O)Cc1ccc(=O)n(Cc2cccc([N-]S(=O)(=O)c3ccccc3F)c2)n1 (protonated)
[NH-]C(=O)Cc1ccc(=O)n(Cc2cccc([N-]S(=O)(=O)c3ccccc3F)c2)n1 (3D coordinates assigned)
[NH-]C(=O)Cc1ccc(=O)n(Cc2cccc([N-]S(=O)(=O)c3ccccc3F)c2)n1 (optimized conformer: 48.85969646550886 kcal/mol)

>  <smiles>  (15) 
NC(=O)Cc1ccc(=O)n(Cc2cccc(NS(=O)(=O)c3ccccc3F)c2)n1

>  <score_type>  (15) 
oracle

>  <origin>  (15) 
adg

>  <m_score__min__energy>  (15) 
-12.94

>  <m_primary>  (15) 
energy

$$$$
15:0
     RDKit          3D

 39 41  0  0  0  0  0  0  0  0999 V2000
   55.5688   31.4443   53.4913 H   0  0  0  0  0  0  0  0  0  0  0  0
   55.6390   30.7500   52.6410 C   0  0  0  0  0  0  0  0  0  0  0  0
   54.5480   30.0590   52.2820 C   0  0  0  0  0  0  0  0  0  0  0  0
   54.4948   28.9948   52.5552 H   0  0  0  0  0  0  0  0  0  0  0  0
   53.4080   30.6480   51.5370 C   0  0  0  0  0  0  0  0  0  0  0  0
   52.9510   29.9970   50.3790 C   0  0  0  0  0  0  0  0  0  0  0  0
   53.4447   29.0737   50.0418 H   0  0  0  0  0  0  0  0  0  0  0  0
   51.8750   30.5120   49.6520 C   0  0  0  0  0  0  0  0  0  0  0  0
   51.5320   29.9975   48.7423 H   0  0  0  0  0  0  0  0  0  0  0  0
   51.2330   31.6780   50.0760 C   0  0  0  0  0  0  0  0  0  0  0  0
   50.1640   32.1850   49.3460 O   0  0  0  0  0  0  0  0  0  0  0  0
   51.6650   32.3280   51.2370 C   0  0  0  0  0  0  0  0  0  0  0  0
   51.0220   33.4820   51.6710 O   0  0  0  0  0  0  0  0  0  0  0  0
   52.7440   31.8160   51.9680 C   0  0  0  0  0  0  0  0  0  0  0  0
   53.0759   32.3274   52.8836 H   0  0  0  0  0  0  0  0  0  0  0  0
   56.9270   30.6160   51.9420 C   0  0  0  0  0  0  0  0  0  0  0  0
   57.5490   31.6640   51.3570 N   0  0  0  0  0  0  0  0  0  0  0  0
   58.6950   31.3380   50.7620 N   0  0  0  0  0  0  0  0  0  0  0  0
   58.9960   30.0260   50.8710 C   0  0  0  0  0  0  0  0  0  0  0  0
   60.4430   29.2770   50.1280 S   0  0  0  0  0  0  0  0  0  0  0  0
   60.1960   30.0460   48.4870 C   0  0  0  0  0  0  0  0  0  0  0  0
   61.1254   29.9564   47.9055 H   0  0  0  0  0  0  0  0  0  0  0  0
   59.9306   31.1032   48.6348 H   0  0  0  0  0  0  0  0  0  0  0  0
   59.0790   29.3760   47.7330 C   0  0  0  0  0  0  0  0  0  0  0  0
   58.7840   28.0250   47.9610 C   0  0  0  0  0  0  0  0  0  0  0  0
   59.3488   27.4611   48.7180 H   0  0  0  0  0  0  0  0  0  0  0  0
   57.7760   27.3920   47.2310 C   0  0  0  0  0  0  0  0  0  0  0  0
   57.5412   26.3347   47.4234 H   0  0  0  0  0  0  0  0  0  0  0  0
   57.0640   28.0980   46.2560 C   0  0  0  0  0  0  0  0  0  0  0  0
   56.0680   27.4520   45.5310 O   0  0  0  0  0  0  0  0  0  0  0  0
   57.3540   29.4460   46.0040 C   0  0  0  0  0  0  0  0  0  0  0  0
   56.6330   30.1130   45.0020 O   0  0  0  0  0  0  0  0  0  0  0  0
   56.6420   29.7470   43.6250 C   0  0  0  0  0  0  0  0  0  0  0  0
   56.6689   28.6508   43.5371 H   0  0  0  0  0  0  0  0  0  0  0  0
   55.7341   30.1317   43.1374 H   0  0  0  0  0  0  0  0  0  0  0  0
   57.5299   30.1759   43.1374 H   0  0  0  0  0  0  0  0  0  0  0  0
   58.3590   30.0850   46.7560 C   0  0  0  0  0  0  0  0  0  0  0  0
   58.5822   31.1472   46.5773 H   0  0  0  0  0  0  0  0  0  0  0  0
   57.8190   29.1950   51.7370 S   0  0  0  0  0  0  0  0  0  0  0  0
  1  2  1  0
  2  3  2  0
  3  4  1  0
  3  5  1  0
  5  6  2  0
  6  7  1  0
  6  8  1  0
  8  9  1  0
  8 10  2  0
 10 11  1  0
 10 12  1  0
 12 13  1  0
 12 14  2  0
 14 15  1  0
  2 16  1  0
 16 17  2  0
 17 18  1  0
 18 19  2  0
 19 20  1  0
 20 21  1  0
 21 22  1  0
 21 23  1  0
 21 24  1  0
 24 25  2  0
 25 26  1  0
 25 27  1  0
 27 28  1  0
 27 29  2  0
 29 30  1  0
 29 31  1  0
 31 32  1  0
 32 33  1  0
 33 34  1  0
 33 35  1  0
 33 36  1  0
 31 37  2  0
 37 38  1  0
 19 39  1  0
 14  5  1  0
 39 16  1  0
 37 24  1  0
M  CHG  3  11  -1  13  -1  30  -1
M  END
>  <UniqueID>  (16) 
14

>  <SMILES>  (16) 
COc1cc(CSc2nnc(/C=C/c3ccc([O-])c([O-])c3)s2)ccc1[O-]

>  <Energy>  (16) 
71.98309474974775

>  <Genealogy>  (16) 
COc1cc(CSc2nnc(C=Cc3ccc([O-])c([O-])c3)s2)ccc1[O-] (protonated)
COc1cc(CSc2nnc(/C=C/c3ccc([O-])c([O-])c3)s2)ccc1[O-] (cis-trans isomerization)
COc1cc(CSc2nnc(/C=C/c3ccc([O-])c([O-])c3)s2)ccc1[O-] (3D coordinates assigned)
COc1cc(CSc2nnc(/C=C/c3ccc([O-])c([O-])c3)s2)ccc1[O-] (optimized conformer: 71.98309474974775 kcal/mol)

>  <smiles>  (16) 
COc1cc(CSc2nnc(C=Cc3ccc(O)c(O)c3)s2)ccc1O

>  <score_type>  (16) 
oracle

>  <origin>  (16) 
adg

>  <m_score__min__energy>  (16) 
-18.399999999999999

>  <m_primary>  (16) 
energy

$$$$
16:0
     RDKit          3D

 30 32  0  0  0  0  0  0  0  0999 V2000
   58.9750   35.2120   44.5190 H   0  0  0  0  0  0  0  0  0  0  0  0
   58.3470   34.6530   45.1390 N   0  0  0  0  0  0  0  0  0  0  0  0
   58.0550   33.4240   44.8660 C   0  0  0  0  0  0  0  0  0  0  0  0
   57.9480   32.9630   43.6020 N   0  0  0  0  0  0  0  0  0  0  0  0
   57.6330   31.6410   43.5840 C   0  0  0  0  0  0  0  0  0  0  0  0
   57.5006   31.0731   42.6513 H   0  0  0  0  0  0  0  0  0  0  0  0
   57.4920   31.0660   44.8410 C   0  0  0  0  0  0  0  0  0  0  0  0
   57.1670   29.6920   45.1020 C   0  0  0  0  0  0  0  0  0  0  0  0
   56.8920   28.5430   45.3350 C   0  0  0  0  0  0  0  0  0  0  0  0
   56.5830   27.1710   45.6290 C   0  0  0  0  0  0  0  0  0  0  0  0
   55.3370   26.7140   45.8390 N   0  0  0  0  0  0  0  0  0  0  0  0
   55.5340   25.4060   46.1070 C   0  0  0  0  0  0  0  0  0  0  0  0
   54.5880   24.6170   46.3620 O   0  0  0  0  0  0  0  0  0  0  0  0
   56.8240   25.0110   46.0820 N   0  0  0  0  0  0  0  0  0  0  0  0
   57.4870   26.1400   45.7730 C   0  0  0  0  0  0  0  0  0  0  0  0
   58.9800   26.2250   45.6530 C   0  0  0  0  0  0  0  0  0  0  0  0
   59.4310   25.3372   46.1205 H   0  0  0  0  0  0  0  0  0  0  0  0
   59.2471   26.2721   44.5870 H   0  0  0  0  0  0  0  0  0  0  0  0
   59.4990   27.4610   46.3370 C   0  0  0  0  0  0  0  0  0  0  0  0
   59.2370   27.6770   47.7000 C   0  0  0  0  0  0  0  0  0  0  0  0
   58.6702   26.9293   48.2741 H   0  0  0  0  0  0  0  0  0  0  0  0
   59.6940   28.8390   48.3300 C   0  0  0  0  0  0  0  0  0  0  0  0
   59.4868   29.0027   49.3978 H   0  0  0  0  0  0  0  0  0  0  0  0
   60.4140   29.7930   47.6040 C   0  0  0  0  0  0  0  0  0  0  0  0
   60.7732   30.7063   48.1008 H   0  0  0  0  0  0  0  0  0  0  0  0
   60.6770   29.5860   46.2480 C   0  0  0  0  0  0  0  0  0  0  0  0
   61.2418   30.3380   45.6775 H   0  0  0  0  0  0  0  0  0  0  0  0
   60.2240   28.4250   45.6140 C   0  0  0  0  0  0  0  0  0  0  0  0
   60.4354   28.2652   44.5464 H   0  0  0  0  0  0  0  0  0  0  0  0
   57.7680   32.2330   46.0210 S   0  0  0  0  0  0  0  0  0  0  0  0
  1  2  1  0
  2  3  2  0
  3  4  1  0
  4  5  1  0
  5  6  1  0
  5  7  2  0
  7  8  1  0
  8  9  3  0
  9 10  1  0
 10 11  1  0
 11 12  1  0
 12 13  2  0
 12 14  1  0
 14 15  1  0
 15 16  1  0
 16 17  1  0
 16 18  1  0
 16 19  1  0
 19 20  2  0
 20 21  1  0
 20 22  1  0
 22 23  1  0
 22 24  2  0
 24 25  1  0
 24 26  1  0
 26 27  1  0
 26 28  2  0
 28 29  1  0
  7 30  1  0
 30  3  1  0
 15 10  2  0
 28 19  1  0
M  CHG  3   4  -1  11  -1  14  -1
M  END
>  <UniqueID>  (17) 
15

>  <SMILES>  (17) 
[H]/N=c1/[n-]cc(C#Cc2[n-]c(=O)[n-]c2Cc2ccccc2)s1

>  <Energy>  (17) 
84.67378656124234

>  <Genealogy>  (17) 
N=c1[n-]cc(C#Cc2[n-]c(=O)[n-]c2Cc2ccccc2)s1 (protonated)
[H]/N=c1/[n-]cc(C#Cc2[n-]c(=O)[n-]c2Cc2ccccc2)s1 (cis-trans isomerization)
[H]/N=c1/[n-]cc(C#Cc2[n-]c(=O)[n-]c2Cc2ccccc2)s1 (3D coordinates assigned)
[H]/N=c1/[n-]cc(C#Cc2[n-]c(=O)[n-]c2Cc2ccccc2)s1 (optimized conformer: 84.67378656124234 kcal/mol)

>  <smiles>  (17) 
N=c1[nH]cc(C#Cc2[nH]c(=O)[nH]c2Cc2ccccc2)s1

>  <score_type>  (17) 
oracle

>  <origin>  (17) 
adg

>  <m_score__min__energy>  (17) 
-10.69

>  <m_primary>  (17) 
energy

$$$$
17:0
     RDKit          3D

 34 36  0  0  0  0  0  0  0  0999 V2000
   59.3902   30.2502   44.6711 H   0  0  0  0  0  0  0  0  0  0  0  0
   58.3520   29.8870   44.6850 C   0  0  0  0  0  0  0  0  0  0  0  0
   57.9910   28.7170   45.2730 N   0  0  0  0  0  0  0  0  0  0  0  0
   56.6620   28.4890   45.1500 C   0  0  0  0  0  0  0  0  0  0  0  0
   56.0440   27.4570   45.6450 N   0  0  0  0  0  0  0  0  0  0  0  0
   56.4810   26.0880   45.6290 C   0  0  0  0  0  0  0  0  0  0  0  0
   56.7220   25.2610   47.0350 S   0  0  0  0  0  0  0  0  0  0  0  0
   57.0250   25.5730   44.4040 N   0  0  0  0  0  0  0  0  0  0  0  0
   57.3740   26.2660   43.7040 H   0  0  0  0  0  0  0  0  0  0  0  0
   57.1220   24.1760   44.0760 C   0  0  0  0  0  0  0  0  0  0  0  0
   58.0990   23.3860   44.7010 C   0  0  0  0  0  0  0  0  0  0  0  0
   58.7675   23.8348   45.4505 H   0  0  0  0  0  0  0  0  0  0  0  0
   58.2280   22.0320   44.3770 C   0  0  0  0  0  0  0  0  0  0  0  0
   58.9872   21.4160   44.8812 H   0  0  0  0  0  0  0  0  0  0  0  0
   57.3930   21.4610   43.4130 C   0  0  0  0  0  0  0  0  0  0  0  0
   57.4919   20.3944   43.1627 H   0  0  0  0  0  0  0  0  0  0  0  0
   56.4330   22.2430   42.7670 C   0  0  0  0  0  0  0  0  0  0  0  0
   55.7805   21.7936   42.0039 H   0  0  0  0  0  0  0  0  0  0  0  0
   56.3010   23.5970   43.0900 C   0  0  0  0  0  0  0  0  0  0  0  0
   55.5518   24.2129   42.5710 H   0  0  0  0  0  0  0  0  0  0  0  0
   55.8760   29.7250   44.3240 S   0  0  0  0  0  0  0  0  0  0  0  0
   57.3040   30.5870   44.1030 C   0  0  0  0  0  0  0  0  0  0  0  0
   57.4360   32.1600   43.2640 S   0  0  0  0  0  0  0  0  0  0  0  0
   57.9580   33.0050   44.7560 C   0  0  0  0  0  0  0  0  0  0  0  0
   58.9520   33.9870   44.6910 C   0  0  0  0  0  0  0  0  0  0  0  0
   59.4201   34.2404   43.7284 H   0  0  0  0  0  0  0  0  0  0  0  0
   59.3440   34.6420   45.8590 C   0  0  0  0  0  0  0  0  0  0  0  0
   60.1238   35.4170   45.8218 H   0  0  0  0  0  0  0  0  0  0  0  0
   58.7440   34.3110   47.0740 C   0  0  0  0  0  0  0  0  0  0  0  0
   59.0461   34.8215   48.0003 H   0  0  0  0  0  0  0  0  0  0  0  0
   57.7550   33.3240   47.1020 C   0  0  0  0  0  0  0  0  0  0  0  0
   57.2739   33.0557   48.0541 H   0  0  0  0  0  0  0  0  0  0  0  0
   57.3860   32.6940   45.9530 N   0  0  0  0  0  0  0  0  0  0  0  0
   56.6420   31.9600   45.9950 H   0  0  0  0  0  0  0  0  0  0  0  0
  1  2  1  0
  2  3  1  0
  3  4  1  0
  4  5  2  0
  5  6  1  0
  6  7  2  0
  6  8  1  0
  8  9  1  0
  8 10  1  0
 10 11  2  0
 11 12  1  0
 11 13  1  0
 13 14  1  0
 13 15  2  0
 15 16  1  0
 15 17  1  0
 17 18  1  0
 17 19  2  0
 19 20  1  0
  4 21  1  0
 21 22  1  0
 22 23  1  0
 23 24  1  0
 24 25  2  0
 25 26  1  0
 25 27  1  0
 27 28  1  0
 27 29  2  0
 29 30  1  0
 29 31  1  0
 31 32  1  0
 31 33  2  0
 33 34  1  0
 22  2  2  0
 33 24  1  0
 19 10  1  0
M  CHG  2   3  -1  33   1
M  END
>  <UniqueID>  (18) 
16

>  <SMILES>  (18) 
S=C(/N=c1\[n-]cc(Sc2cccc[nH+]2)s1)Nc1ccccc1

>  <Energy>  (18) 
72.70541331617036

>  <Genealogy>  (18) 
S=C(N=c1[n-]cc(Sc2cccc[nH+]2)s1)Nc1ccccc1 (protonated)
S=C(/N=c1\[n-]cc(Sc2cccc[nH+]2)s1)Nc1ccccc1 (cis-trans isomerization)
S=C(/N=c1\[n-]cc(Sc2cccc[nH+]2)s1)Nc1ccccc1 (3D coordinates assigned)
S=C(/N=c1\[n-]cc(Sc2cccc[nH+]2)s1)Nc1ccccc1 (optimized conformer: 72.70541331617036 kcal/mol)

>  <smiles>  (18) 
S=C(N=c1[nH]cc(Sc2ccccn2)s1)Nc1ccccc1

>  <score_type>  (18) 
oracle

>  <origin>  (18) 
adg

>  <m_score__min__energy>  (18) 
-9.1600000000000001

>  <m_primary>  (18) 
energy

$$$$
18:0
     RDKit          3D

 42 44  0  0  0  0  0  0  0  0999 V2000
   57.8920   32.4580   50.7740 O   0  0  0  0  0  0  0  0  0  0  0  0
   58.8050   32.0350   50.0140 C   0  0  0  0  0  0  0  0  0  0  0  0
   60.2000   31.8930   50.5330 C   0  0  0  0  0  0  0  0  0  0  0  0
   61.1940   32.2520   49.4630 C   0  0  0  0  0  0  0  0  0  0  0  0
   61.5850   31.2980   48.5090 C   0  0  0  0  0  0  0  0  0  0  0  0
   62.5320   31.6220   47.5350 C   0  0  0  0  0  0  0  0  0  0  0  0
   63.1030   32.8990   47.5070 C   0  0  0  0  0  0  0  0  0  0  0  0
   64.0440   33.2120   46.5280 O   0  0  0  0  0  0  0  0  0  0  0  0
   62.7220   33.8520   48.4610 C   0  0  0  0  0  0  0  0  0  0  0  0
   61.7780   33.5290   49.4390 C   0  0  0  0  0  0  0  0  0  0  0  0
   58.5220   31.7130   48.6500 N   0  0  0  0  0  0  0  0  0  0  0  0
   58.4030   32.9050   47.4000 S   0  0  0  0  0  0  0  0  0  0  0  0
   59.3680   34.0210   47.6810 O   0  0  0  0  0  0  0  0  0  0  0  0
   57.0060   33.4580   47.3340 O   0  0  0  0  0  0  0  0  0  0  0  0
   58.7930   32.1870   45.8970 O   0  0  0  0  0  0  0  0  0  0  0  0
   58.5240   30.8530   45.5600 C   0  0  0  0  0  0  0  0  0  0  0  0
   57.3870   30.5810   44.7880 C   0  0  0  0  0  0  0  0  0  0  0  0
   57.0660   29.2680   44.4340 C   0  0  0  0  0  0  0  0  0  0  0  0
   57.8810   28.2030   44.8480 C   0  0  0  0  0  0  0  0  0  0  0  0
   57.5610   26.7960   44.4310 C   0  0  0  0  0  0  0  0  0  0  0  0
   57.2550   25.9580   45.6330 C   0  0  0  0  0  0  0  0  0  0  0  0
   58.2980   24.8240   46.3140 S   0  0  0  0  0  0  0  0  0  0  0  0
   57.1610   24.3490   47.4610 C   0  0  0  0  0  0  0  0  0  0  0  0
   57.3620   23.4680   48.3350 O   0  0  0  0  0  0  0  0  0  0  0  0
   55.9940   25.0170   47.3460 N   0  0  0  0  0  0  0  0  0  0  0  0
   56.0440   25.9090   46.3220 C   0  0  0  0  0  0  0  0  0  0  0  0
   54.9530   26.7060   45.9970 O   0  0  0  0  0  0  0  0  0  0  0  0
   59.0300   28.4730   45.6040 C   0  0  0  0  0  0  0  0  0  0  0  0
   59.3480   29.7850   45.9650 C   0  0  0  0  0  0  0  0  0  0  0  0
   60.3366   32.5630   51.3947 H   0  0  0  0  0  0  0  0  0  0  0  0
   60.3638   30.8489   50.8378 H   0  0  0  0  0  0  0  0  0  0  0  0
   61.1432   30.2908   48.5292 H   0  0  0  0  0  0  0  0  0  0  0  0
   62.8297   30.8714   46.7880 H   0  0  0  0  0  0  0  0  0  0  0  0
   64.8980   32.6730   46.4190 H   0  0  0  0  0  0  0  0  0  0  0  0
   63.1675   34.8575   48.4398 H   0  0  0  0  0  0  0  0  0  0  0  0
   61.4913   34.2773   50.1926 H   0  0  0  0  0  0  0  0  0  0  0  0
   56.7415   31.4082   44.4577 H   0  0  0  0  0  0  0  0  0  0  0  0
   56.1701   29.0680   43.8278 H   0  0  0  0  0  0  0  0  0  0  0  0
   56.6877   26.8049   43.7623 H   0  0  0  0  0  0  0  0  0  0  0  0
   58.4299   26.3700   43.9080 H   0  0  0  0  0  0  0  0  0  0  0  0
   59.6858   27.6466   45.9152 H   0  0  0  0  0  0  0  0  0  0  0  0
   60.2460   29.9845   46.5682 H   0  0  0  0  0  0  0  0  0  0  0  0
  1  2  2  0
  2  3  1  0
  3  4  1  0
  4  5  2  0
  5  6  1  0
  6  7  2  0
  7  8  1  0
  7  9  1  0
  9 10  2  0
  2 11  1  0
 11 12  1  0
 12 13  2  0
 12 14  2  0
 12 15  1  0
 15 16  1  0
 16 17  2  0
 17 18  1  0
 18 19  2  0
 19 20  1  0
 20 21  1  0
 21 22  1  0
 22 23  1  0
 23 24  2  0
 23 25  1  0
 25 26  1  0
 26 27  1  0
 19 28  1  0
 28 29  2  0
 10  4  1  0
 29 16  1  0
 26 21  2  0
  3 30  1  0
  3 31  1  0
  5 32  1  0
  6 33  1  0
  8 34  1  0
  9 35  1  0
 10 36  1  0
 17 37  1  0
 18 38  1  0
 20 39  1  0
 20 40  1  0
 28 41  1  0
 29 42  1  0
M  CHG  3  11  -1  25  -1  27  -1
M  END
>  <UniqueID>  (19) 
17

>  <SMILES>  (19) 
O=C(Cc1ccc(O)cc1)[N-]S(=O)(=O)Oc1ccc(Cc2sc(=O)[n-]c2[O-])cc1

>  <Energy>  (19) 
72.04557001109322

>  <Genealogy>  (19) 
O=C(Cc1ccc(O)cc1)[N-]S(=O)(=O)Oc1ccc(Cc2sc(=O)[n-]c2[O-])cc1 (protonated)
O=C(Cc1ccc(O)cc1)[N-]S(=O)(=O)Oc1ccc(Cc2sc(=O)[n-]c2[O-])cc1 (3D coordinates assigned)
O=C(Cc1ccc(O)cc1)[N-]S(=O)(=O)Oc1ccc(Cc2sc(=O)[n-]c2[O-])cc1 (optimized conformer: 72.04557001109322 kcal/mol)

>  <smiles>  (19) 
O=C(Cc1ccc(O)cc1)NS(=O)(=O)Oc1ccc(Cc2sc(=O)[nH]c2O)cc1

>  <score_type>  (19) 
oracle

>  <origin>  (19) 
adg

>  <m_score__min__energy>  (19) 
-16.120000000000001

>  <m_primary>  (19) 
energy

$$$$
19:0
     RDKit          3D

 43 46  0  0  0  0  0  0  0  0999 V2000
   55.5210   28.6070   45.1700 O   0  0  0  0  0  0  0  0  0  0  0  0
   56.2350   29.6200   44.9560 C   0  0  0  0  0  0  0  0  0  0  0  0
   55.7380   30.6610   44.1810 O   0  0  0  0  0  0  0  0  0  0  0  0
   57.6180   29.7040   45.5220 C   0  0  0  0  0  0  0  0  0  0  0  0
   57.9200   28.5250   46.3370 N   0  0  0  0  0  0  0  0  0  0  0  0
   58.8840   28.5390   47.4070 C   0  0  0  0  0  0  0  0  0  0  0  0
   59.5620   27.3570   47.7330 C   0  0  0  0  0  0  0  0  0  0  0  0
   60.5010   27.3410   48.7660 C   0  0  0  0  0  0  0  0  0  0  0  0
   60.7740   28.5050   49.4850 C   0  0  0  0  0  0  0  0  0  0  0  0
   60.0990   29.7010   49.1850 C   0  0  0  0  0  0  0  0  0  0  0  0
   60.3920   30.9100   49.9230 N   0  0  0  0  0  0  0  0  0  0  0  0
   61.6920   31.4330   49.5580 C   0  0  0  0  0  0  0  0  0  0  0  0
   62.8110   31.0860   50.3350 C   0  0  0  0  0  0  0  0  0  0  0  0
   64.0580   31.6370   50.0520 C   0  0  0  0  0  0  0  0  0  0  0  0
   64.1980   32.5130   49.0280 N   0  0  0  0  0  0  0  0  0  0  0  0
   63.1500   32.8790   48.2460 C   0  0  0  0  0  0  0  0  0  0  0  0
   63.3470   33.6900   47.3020 O   0  0  0  0  0  0  0  0  0  0  0  0
   61.8650   32.3470   48.4820 C   0  0  0  0  0  0  0  0  0  0  0  0
   60.7380   32.7730   47.6250 C   0  0  0  0  0  0  0  0  0  0  0  0
   60.9170   33.1840   46.3410 N   0  0  0  0  0  0  0  0  0  0  0  0
   59.6640   33.4400   45.9390 C   0  0  0  0  0  0  0  0  0  0  0  0
   59.2460   33.9130   44.6980 C   0  0  0  0  0  0  0  0  0  0  0  0
   57.8660   34.1210   44.5100 C   0  0  0  0  0  0  0  0  0  0  0  0
   56.9540   33.8530   45.5570 C   0  0  0  0  0  0  0  0  0  0  0  0
   57.4140   33.3740   46.7970 C   0  0  0  0  0  0  0  0  0  0  0  0
   58.7870   33.1800   46.9450 C   0  0  0  0  0  0  0  0  0  0  0  0
   59.4410   32.7470   48.0320 N   0  0  0  0  0  0  0  0  0  0  0  0
   59.1660   29.7130   48.1320 C   0  0  0  0  0  0  0  0  0  0  0  0
   58.3422   29.7666   44.6964 H   0  0  0  0  0  0  0  0  0  0  0  0
   57.6842   30.5986   46.1587 H   0  0  0  0  0  0  0  0  0  0  0  0
   57.3710   27.6480   46.1810 H   0  0  0  0  0  0  0  0  0  0  0  0
   59.3529   26.4349   47.1709 H   0  0  0  0  0  0  0  0  0  0  0  0
   61.0274   26.4075   49.0139 H   0  0  0  0  0  0  0  0  0  0  0  0
   61.5219   28.4868   50.2914 H   0  0  0  0  0  0  0  0  0  0  0  0
   59.6410   31.6080   49.7100 H   0  0  0  0  0  0  0  0  0  0  0  0
   60.3460   30.7530   50.9540 H   0  0  0  0  0  0  0  0  0  0  0  0
   62.7011   30.3772   51.1689 H   0  0  0  0  0  0  0  0  0  0  0  0
   64.9313   31.3605   50.6611 H   0  0  0  0  0  0  0  0  0  0  0  0
   59.9678   34.1169   43.8933 H   0  0  0  0  0  0  0  0  0  0  0  0
   57.4955   34.4939   43.5437 H   0  0  0  0  0  0  0  0  0  0  0  0
   55.8781   34.0202   45.4007 H   0  0  0  0  0  0  0  0  0  0  0  0
   56.7161   33.1602   47.6200 H   0  0  0  0  0  0  0  0  0  0  0  0
   58.6511   30.6497   47.8721 H   0  0  0  0  0  0  0  0  0  0  0  0
  1  2  2  0
  2  3  1  0
  2  4  1  0
  4  5  1  0
  5  6  1  0
  6  7  2  0
  7  8  1  0
  8  9  2  0
  9 10  1  0
 10 11  1  0
 11 12  1  0
 12 13  1  0
 13 14  2  0
 14 15  1  0
 15 16  1  0
 16 17  2  0
 16 18  1  0
 18 19  1  0
 19 20  2  0
 20 21  1  0
 21 22  2  0
 22 23  1  0
 23 24  2  0
 24 25  1  0
 25 26  2  0
 26 27  1  0
 10 28  2  0
 28  6  1  0
 18 12  2  0
 27 19  1  0
 26 21  1  0
  4 29  1  0
  4 30  1  0
  5 31  1  0
  7 32  1  0
  8 33  1  0
  9 34  1  0
 11 35  1  0
 11 36  1  0
 13 37  1  0
 14 38  1  0
 22 39  1  0
 23 40  1  0
 24 41  1  0
 25 42  1  0
 28 43  1  0
M  CHG  4   3  -1  11   1  15  -1  27  -1
M  END
>  <UniqueID>  (20) 
18

>  <SMILES>  (20) 
O=C([O-])CNc1cccc([NH2+]c2cc[n-]c(=O)c2-c2nc3ccccc3[n-]2)c1

>  <Energy>  (20) 
89.53802461302172

>  <Genealogy>  (20) 
O=C([O-])CNc1cccc([NH2+]c2cc[n-]c(=O)c2-c2nc3ccccc3[n-]2)c1 (protonated)
O=C([O-])CNc1cccc([NH2+]c2cc[n-]c(=O)c2-c2nc3ccccc3[n-]2)c1 (3D coordinates assigned)
O=C([O-])CNc1cccc([NH2+]c2cc[n-]c(=O)c2-c2nc3ccccc3[n-]2)c1 (optimized conformer: 89.53802461302172 kcal/mol)

>  <smiles>  (20) 
O=C(O)CNc1cccc(Nc2cc[nH]c(=O)c2-c2nc3ccccc3[nH]2)c1

>  <score_type>  (20) 
oracle

>  <origin>  (20) 
adg

>  <m_score__min__energy>  (20) 
-11.98

>  <m_primary>  (20) 
energy

$$$$
20:0
     RDKit          3D

 46 49  0  0  0  0  0  0  0  0999 V2000
   54.7113   28.3479   54.7271 H   0  0  0  0  0  0  0  0  0  0  0  0
   54.1240   28.9510   54.0190 C   0  0  0  0  0  0  0  0  0  0  0  0
   53.0271   28.9772   54.0967 H   0  0  0  0  0  0  0  0  0  0  0  0
   54.7460   29.6550   53.0600 C   0  0  0  0  0  0  0  0  0  0  0  0
   54.1460   30.4680   52.0860 C   0  0  0  0  0  0  0  0  0  0  0  0
   52.8600   30.5850   51.7010 C   0  0  0  0  0  0  0  0  0  0  0  0
   52.5185   29.9338   50.8828 H   0  0  0  0  0  0  0  0  0  0  0  0
   51.8730   31.5100   52.2820 C   0  0  0  0  0  0  0  0  0  0  0  0
   51.5080   31.5290   53.5780 N   0  0  0  0  0  0  0  0  0  0  0  0
   50.4990   32.4270   53.6040 C   0  0  0  0  0  0  0  0  0  0  0  0
   49.8960   32.7370   54.6640 O   0  0  0  0  0  0  0  0  0  0  0  0
   50.1820   32.9580   52.4050 N   0  0  0  0  0  0  0  0  0  0  0  0
   51.0510   32.3560   51.5780 C   0  0  0  0  0  0  0  0  0  0  0  0
   51.0900   32.5710   50.2060 O   0  0  0  0  0  0  0  0  0  0  0  0
   55.1700   31.1980   51.5050 C   0  0  0  0  0  0  0  0  0  0  0  0
   55.0649   31.9791   50.7376 H   0  0  0  0  0  0  0  0  0  0  0  0
   56.3470   30.7570   52.0740 C   0  0  0  0  0  0  0  0  0  0  0  0
   57.7090   31.2680   51.7100 C   0  0  0  0  0  0  0  0  0  0  0  0
   58.2777   31.4814   52.6271 H   0  0  0  0  0  0  0  0  0  0  0  0
   58.2397   30.5078   51.1180 H   0  0  0  0  0  0  0  0  0  0  0  0
   57.6087   32.1896   51.1180 H   0  0  0  0  0  0  0  0  0  0  0  0
   56.0930   29.8230   53.0170 N   0  0  0  0  0  0  0  0  0  0  0  0
   57.0770   29.1640   53.8380 C   0  0  0  0  0  0  0  0  0  0  0  0
   57.6560   29.8290   54.9240 C   0  0  0  0  0  0  0  0  0  0  0  0
   57.3635   30.8625   55.1615 H   0  0  0  0  0  0  0  0  0  0  0  0
   58.6070   29.1710   55.7030 C   0  0  0  0  0  0  0  0  0  0  0  0
   59.0662   29.6879   56.5585 H   0  0  0  0  0  0  0  0  0  0  0  0
   58.9700   27.8920   55.4100 N   0  0  0  0  0  0  0  0  0  0  0  0
   59.6620   27.4180   56.0320 H   0  0  0  0  0  0  0  0  0  0  0  0
   58.4290   27.2170   54.3530 C   0  0  0  0  0  0  0  0  0  0  0  0
   58.8310   25.8620   54.0780 N   0  0  0  0  0  0  0  0  0  0  0  0
   57.8220   24.8180   53.8660 C   0  0  0  0  0  0  0  0  0  0  0  0
   57.6572   24.2811   54.8118 H   0  0  0  0  0  0  0  0  0  0  0  0
   56.8924   25.2966   53.5243 H   0  0  0  0  0  0  0  0  0  0  0  0
   58.2790   23.8080   52.7850 C   0  0  0  0  0  0  0  0  0  0  0  0
   58.1624   22.7913   53.1883 H   0  0  0  0  0  0  0  0  0  0  0  0
   57.6529   23.9821   51.8975 H   0  0  0  0  0  0  0  0  0  0  0  0
   59.6280   23.9770   52.3800 O   0  0  0  0  0  0  0  0  0  0  0  0
   60.4640   24.1120   53.5100 C   0  0  0  0  0  0  0  0  0  0  0  0
   60.2166   23.3320   54.2451 H   0  0  0  0  0  0  0  0  0  0  0  0
   61.5154   24.0058   53.2046 H   0  0  0  0  0  0  0  0  0  0  0  0
   60.2500   25.4910   54.1370 C   0  0  0  0  0  0  0  0  0  0  0  0
   60.5755   25.4666   55.1875 H   0  0  0  0  0  0  0  0  0  0  0  0
   60.8379   26.2338   53.5779 H   0  0  0  0  0  0  0  0  0  0  0  0
   57.4660   27.8500   53.5520 C   0  0  0  0  0  0  0  0  0  0  0  0
   57.0180   27.3150   52.7016 H   0  0  0  0  0  0  0  0  0  0  0  0
  1  2  1  0
  2  3  1  0
  2  4  2  0
  4  5  1  0
  5  6  2  0
  6  7  1  0
  6  8  1  0
  8  9  1  0
  9 10  1  0
 10 11  2  0
 10 12  1  0
 12 13  1  0
 13 14  1  0
  5 15  1  0
 15 16  1  0
 15 17  2  0
 17 18  1  0
 18 19  1  0
 18 20  1  0
 18 21  1  0
 17 22  1  0
 22 23  1  0
 23 24  2  0
 24 25  1  0
 24 26  1  0
 26 27  1  0
 26 28  2  0
 28 29  1  0
 28 30  1  0
 30 31  1  0
 31 32  1  0
 32 33  1  0
 32 34  1  0
 32 35  1  0
 35 36  1  0
 35 37  1  0
 35 38  1  0
 38 39  1  0
 39 40  1  0
 39 41  1  0
 39 42  1  0
 42 43  1  0
 42 44  1  0
 30 45  2  0
 45 46  1  0
 22  4  1  0
 45 23  1  0
 13  8  2  0
 42 31  1  0
M  CHG  4   9  -1  12  -1  14  -1  28   1
M  END
>  <UniqueID>  (21) 
19

>  <SMILES>  (21) 
C=c1/c(=C\c2[n-]c(=O)[n-]c2[O-])cc(C)n1-c1cc[nH+]c(N2CCOCC2)c1

>  <Energy>  (21) 
133.9924808764556

>  <Genealogy>  (21) 
C=c1c(=Cc2[n-]c(=O)[n-]c2[O-])cc(C)n1-c1cc[nH+]c(N2CCOCC2)c1 (protonated)
C=c1/c(=C\c2[n-]c(=O)[n-]c2[O-])cc(C)n1-c1cc[nH+]c(N2CCOCC2)c1 (cis-trans isomerization)
C=c1/c(=C\c2[n-]c(=O)[n-]c2[O-])cc(C)n1-c1cc[nH+]c(N2CCOCC2)c1 (3D coordinates assigned)
C=c1/c(=C\c2[n-]c(=O)[n-]c2[O-])cc(C)n1-c1cc[nH+]c(N2CCOCC2)c1 (nonaromatic ring conformer: 133.9924808764556 kcal/mol)

>  <smiles>  (21) 
C=c1c(=Cc2[nH]c(=O)[nH]c2O)cc(C)n1-c1ccnc(N2CCOCC2)c1

>  <score_type>  (21) 
oracle

>  <origin>  (21) 
adg

>  <m_score__min__energy>  (21) 
-14.529999999999999

>  <m_primary>  (21) 
energy

$$$$
21:0
     RDKit          3D

 46 48  0  0  0  0  0  0  0  0999 V2000
   55.7100   29.7130   44.4670 C   0  0  0  0  0  0  0  0  0  0  0  0
   57.0700   30.0920   44.0700 N   0  0  0  0  0  0  0  0  0  0  0  0
   58.1710   29.1200   44.1650 C   0  0  0  0  0  0  0  0  0  0  0  0
   58.8750   29.2450   45.4920 C   0  0  0  0  0  0  0  0  0  0  0  0
   60.0400   30.0240   45.6060 C   0  0  0  0  0  0  0  0  0  0  0  0
   60.6740   30.1750   46.8470 C   0  0  0  0  0  0  0  0  0  0  0  0
   61.8220   30.9560   46.9670 O   0  0  0  0  0  0  0  0  0  0  0  0
   60.1510   29.5410   47.9760 C   0  0  0  0  0  0  0  0  0  0  0  0
   58.9970   28.7590   47.8710 C   0  0  0  0  0  0  0  0  0  0  0  0
   58.3580   28.6120   46.6360 C   0  0  0  0  0  0  0  0  0  0  0  0
   57.2370   27.8500   46.5580 F   0  0  0  0  0  0  0  0  0  0  0  0
   57.3180   31.4280   43.5920 C   0  0  0  0  0  0  0  0  0  0  0  0
   57.8250   31.6050   42.4510 O   0  0  0  0  0  0  0  0  0  0  0  0
   57.0290   32.5540   44.4310 N   0  0  0  0  0  0  0  0  0  0  0  0
   57.8460   33.0650   45.4920 C   0  0  0  0  0  0  0  0  0  0  0  0
   58.7120   34.1300   45.2190 C   0  0  0  0  0  0  0  0  0  0  0  0
   59.5560   34.6310   46.2120 C   0  0  0  0  0  0  0  0  0  0  0  0
   59.5510   34.0670   47.4970 C   0  0  0  0  0  0  0  0  0  0  0  0
   60.4950   34.5740   48.5540 C   0  0  0  0  0  0  0  0  0  0  0  0
   61.7640   33.7660   48.5460 C   0  0  0  0  0  0  0  0  0  0  0  0
   62.0700   32.9120   49.6160 C   0  0  0  0  0  0  0  0  0  0  0  0
   63.2350   32.1430   49.5710 C   0  0  0  0  0  0  0  0  0  0  0  0
   64.0590   32.2160   48.4940 N   0  0  0  0  0  0  0  0  0  0  0  0
   63.7830   33.0260   47.4380 C   0  0  0  0  0  0  0  0  0  0  0  0
   62.6280   33.8130   47.4420 C   0  0  0  0  0  0  0  0  0  0  0  0
   58.7080   32.9770   47.7650 C   0  0  0  0  0  0  0  0  0  0  0  0
   57.8630   32.4760   46.7700 C   0  0  0  0  0  0  0  0  0  0  0  0
   55.6404   29.6936   45.5646 H   0  0  0  0  0  0  0  0  0  0  0  0
   54.9937   30.4457   44.0671 H   0  0  0  0  0  0  0  0  0  0  0  0
   55.4759   28.7154   44.0671 H   0  0  0  0  0  0  0  0  0  0  0  0
   57.7648   28.1026   44.0655 H   0  0  0  0  0  0  0  0  0  0  0  0
   58.8929   29.3215   43.3598 H   0  0  0  0  0  0  0  0  0  0  0  0
   60.4565   30.5180   44.7158 H   0  0  0  0  0  0  0  0  0  0  0  0
   62.3790   30.9520   47.8130 H   0  0  0  0  0  0  0  0  0  0  0  0
   60.6483   29.6572   48.9503 H   0  0  0  0  0  0  0  0  0  0  0  0
   58.5907   28.2581   48.7621 H   0  0  0  0  0  0  0  0  0  0  0  0
   58.7278   34.5761   44.2136 H   0  0  0  0  0  0  0  0  0  0  0  0
   60.2281   35.4719   45.9860 H   0  0  0  0  0  0  0  0  0  0  0  0
   60.7341   35.6286   48.3524 H   0  0  0  0  0  0  0  0  0  0  0  0
   60.0153   34.4802   49.5394 H   0  0  0  0  0  0  0  0  0  0  0  0
   61.3974   32.8485   50.4841 H   0  0  0  0  0  0  0  0  0  0  0  0
   63.4856   31.4768   50.4097 H   0  0  0  0  0  0  0  0  0  0  0  0
   64.4695   33.0622   46.5792 H   0  0  0  0  0  0  0  0  0  0  0  0
   62.3983   34.4643   46.5859 H   0  0  0  0  0  0  0  0  0  0  0  0
   58.7122   32.5146   48.7631 H   0  0  0  0  0  0  0  0  0  0  0  0
   57.2092   31.6184   46.9869 H   0  0  0  0  0  0  0  0  0  0  0  0
  1  2  1  0
  2  3  1  0
  3  4  1  0
  4  5  2  0
  5  6  1  0
  6  7  1  0
  6  8  2  0
  8  9  1  0
  9 10  2  0
 10 11  1  0
  2 12  1  0
 12 13  2  0
 12 14  1  0
 14 15  1  0
 15 16  2  0
 16 17  1  0
 17 18  2  0
 18 19  1  0
 19 20  1  0
 20 21  2  0
 21 22  1  0
 22 23  2  0
 23 24  1  0
 24 25  2  0
 18 26  1  0
 26 27  2  0
 10  4  1  0
 27 15  1  0
 25 20  1  0
  1 28  1  0
  1 29  1  0
  1 30  1  0
  3 31  1  0
  3 32  1  0
  5 33  1  0
  7 34  1  0
  8 35  1  0
  9 36  1  0
 16 37  1  0
 17 38  1  0
 19 39  1  0
 19 40  1  0
 21 41  1  0
 22 42  1  0
 24 43  1  0
 25 44  1  0
 26 45  1  0
 27 46  1  0
M  CHG  1  14  -1
M  END
>  <UniqueID>  (22) 
20

>  <SMILES>  (22) 
CN(Cc1cc(O)ccc1F)C(=O)[N-]c1ccc(Cc2ccncc2)cc1

>  <Energy>  (22) 
47.39357999805519

>  <Genealogy>  (22) 
CN(Cc1cc(O)ccc1F)C(=O)[N-]c1ccc(Cc2ccncc2)cc1 (protonated)
CN(Cc1cc(O)ccc1F)C(=O)[N-]c1ccc(Cc2ccncc2)cc1 (3D coordinates assigned)
CN(Cc1cc(O)ccc1F)C(=O)[N-]c1ccc(Cc2ccncc2)cc1 (optimized conformer: 47.39357999805519 kcal/mol)

>  <smiles>  (22) 
CN(Cc1cc(O)ccc1F)C(=O)Nc1ccc(Cc2ccncc2)cc1

>  <score_type>  (22) 
oracle

>  <origin>  (22) 
adg

>  <m_score__min__energy>  (22) 
-10.529999999999999

>  <m_primary>  (22) 
energy

$$$$
22:0
     RDKit          3D

 56 59  0  0  0  0  0  0  0  0999 V2000
   61.2070   29.7610   50.2170 N   0  0  0  0  0  0  0  0  0  0  0  0
   60.8800   28.5040   50.8910 C   0  0  0  0  0  0  0  0  0  0  0  0
   60.0610   28.7610   52.1620 C   0  0  0  0  0  0  0  0  0  0  0  0
   60.3400   30.0590   52.6870 O   0  0  0  0  0  0  0  0  0  0  0  0
   59.5050   31.1840   52.5800 C   0  0  0  0  0  0  0  0  0  0  0  0
   58.1180   31.1230   52.8320 C   0  0  0  0  0  0  0  0  0  0  0  0
   57.3290   32.2690   52.7160 C   0  0  0  0  0  0  0  0  0  0  0  0
   57.9090   33.4850   52.3540 C   0  0  0  0  0  0  0  0  0  0  0  0
   59.2800   33.5600   52.1060 C   0  0  0  0  0  0  0  0  0  0  0  0
   60.0880   32.4090   52.2130 C   0  0  0  0  0  0  0  0  0  0  0  0
   61.4710   32.4370   51.9640 O   0  0  0  0  0  0  0  0  0  0  0  0
   62.1070   33.1510   50.9040 C   0  0  0  0  0  0  0  0  0  0  0  0
   61.4730   32.8100   49.5950 C   0  0  0  0  0  0  0  0  0  0  0  0
   60.5860   33.6090   48.9650 N   0  0  0  0  0  0  0  0  0  0  0  0
   60.2810   32.9190   47.8490 C   0  0  0  0  0  0  0  0  0  0  0  0
   59.3070   33.3970   46.8470 C   0  0  0  0  0  0  0  0  0  0  0  0
   57.9520   33.0540   46.9750 C   0  0  0  0  0  0  0  0  0  0  0  0
   57.0180   33.5040   46.0360 C   0  0  0  0  0  0  0  0  0  0  0  0
   57.4290   34.3130   44.9720 C   0  0  0  0  0  0  0  0  0  0  0  0
   58.7720   34.6790   44.8520 C   0  0  0  0  0  0  0  0  0  0  0  0
   59.7070   34.2300   45.7890 C   0  0  0  0  0  0  0  0  0  0  0  0
   60.9770   31.7200   47.8580 C   0  0  0  0  0  0  0  0  0  0  0  0
   60.9270   30.6000   46.8610 C   0  0  0  0  0  0  0  0  0  0  0  0
   59.6460   29.8300   46.9720 C   0  0  0  0  0  0  0  0  0  0  0  0
   59.3840   29.1830   48.0210 O   0  0  0  0  0  0  0  0  0  0  0  0
   58.6890   29.8690   45.9140 N   0  0  0  0  0  0  0  0  0  0  0  0
   58.5260   30.5320   44.6070 C   0  0  0  0  0  0  0  0  0  0  0  0
   57.1970   29.9300   44.2890 C   0  0  0  0  0  0  0  0  0  0  0  0
   57.3770   29.2680   45.6170 C   0  0  0  0  0  0  0  0  0  0  0  0
   61.7100   31.6930   48.9430 O   0  0  0  0  0  0  0  0  0  0  0  0
   60.4340   30.0290   49.5640 H   0  0  0  0  0  0  0  0  0  0  0  0
   62.1010   29.6600   49.6840 H   0  0  0  0  0  0  0  0  0  0  0  0
   61.3230   30.5130   50.9330 H   0  0  0  0  0  0  0  0  0  0  0  0
   60.2952   27.8706   50.2078 H   0  0  0  0  0  0  0  0  0  0  0  0
   61.8175   28.0022   51.1727 H   0  0  0  0  0  0  0  0  0  0  0  0
   58.9898   28.6910   51.9219 H   0  0  0  0  0  0  0  0  0  0  0  0
   60.3324   28.0080   52.9165 H   0  0  0  0  0  0  0  0  0  0  0  0
   57.6560   30.1676   53.1213 H   0  0  0  0  0  0  0  0  0  0  0  0
   56.2478   32.2129   52.9105 H   0  0  0  0  0  0  0  0  0  0  0  0
   57.2845   34.3861   52.2639 H   0  0  0  0  0  0  0  0  0  0  0  0
   59.7332   34.5222   51.8255 H   0  0  0  0  0  0  0  0  0  0  0  0
   62.0085   34.2317   51.0842 H   0  0  0  0  0  0  0  0  0  0  0  0
   63.1699   32.8696   50.8706 H   0  0  0  0  0  0  0  0  0  0  0  0
   57.6230   32.4283   47.8178 H   0  0  0  0  0  0  0  0  0  0  0  0
   55.9595   33.2213   46.1346 H   0  0  0  0  0  0  0  0  0  0  0  0
   56.6954   34.6610   44.2299 H   0  0  0  0  0  0  0  0  0  0  0  0
   59.0940   35.3213   44.0191 H   0  0  0  0  0  0  0  0  0  0  0  0
   60.7612   34.5304   45.6974 H   0  0  0  0  0  0  0  0  0  0  0  0
   61.0067   31.0189   45.8470 H   0  0  0  0  0  0  0  0  0  0  0  0
   61.7631   29.9150   47.0655 H   0  0  0  0  0  0  0  0  0  0  0  0
   58.4870   31.6283   44.6889 H   0  0  0  0  0  0  0  0  0  0  0  0
   59.3297   30.3902   43.8695 H   0  0  0  0  0  0  0  0  0  0  0  0
   56.3586   30.6389   44.2216 H   0  0  0  0  0  0  0  0  0  0  0  0
   56.9747   29.3886   43.3576 H   0  0  0  0  0  0  0  0  0  0  0  0
   56.6034   29.5566   46.3437 H   0  0  0  0  0  0  0  0  0  0  0  0
   57.3112   28.1703   45.6428 H   0  0  0  0  0  0  0  0  0  0  0  0
  1  2  1  0
  2  3  1  0
  3  4  1  0
  4  5  1  0
  5  6  2  0
  6  7  1  0
  7  8  2  0
  8  9  1  0
  9 10  2  0
 10 11  1  0
 11 12  1  0
 12 13  1  0
 13 14  2  0
 14 15  1  0
 15 16  1  0
 16 17  2  0
 17 18  1  0
 18 19  2  0
 19 20  1  0
 20 21  2  0
 15 22  2  0
 22 23  1  0
 23 24  1  0
 24 25  2  0
 24 26  1  0
 26 27  1  0
 27 28  1  0
 28 29  1  0
 22 30  1  0
 10  5  1  0
 30 13  1  0
 21 16  1  0
 29 26  1  0
  1 31  1  0
  1 32  1  0
  1 33  1  0
  2 34  1  0
  2 35  1  0
  3 36  1  0
  3 37  1  0
  6 38  1  0
  7 39  1  0
  8 40  1  0
  9 41  1  0
 12 42  1  0
 12 43  1  0
 17 44  1  0
 18 45  1  0
 19 46  1  0
 20 47  1  0
 21 48  1  0
 23 49  1  0
 23 50  1  0
 27 51  1  0
 27 52  1  0
 28 53  1  0
 28 54  1  0
 29 55  1  0
 29 56  1  0
M  CHG  1   1   1
M  END
>  <UniqueID>  (23) 
21

>  <SMILES>  (23) 
[NH3+]CCOc1ccccc1OCc1nc(-c2ccccc2)c(CC(=O)N2CCC2)o1

>  <Energy>  (23) 
129.24489417553306

>  <Genealogy>  (23) 
[NH3+]CCOc1ccccc1OCc1nc(-c2ccccc2)c(CC(=O)N2CCC2)o1 (protonated)
[NH3+]CCOc1ccccc1OCc1nc(-c2ccccc2)c(CC(=O)N2CCC2)o1 (3D coordinates assigned)
[NH3+]CCOc1ccccc1OCc1nc(-c2ccccc2)c(CC(=O)N2CCC2)o1 (nonaromatic ring conformer: 129.24489417553306 kcal/mol)

>  <smiles>  (23) 
NCCOc1ccccc1OCc1nc(-c2ccccc2)c(CC(=O)N2CCC2)o1

>  <score_type>  (23) 
oracle

>  <origin>  (23) 
adg

>  <m_score__min__energy>  (23) 
-4.3700000000000001

>  <m_primary>  (23) 
energy

$$$$
23:0
     RDKit          3D

 53 56  0  0  0  0  0  0  0  0999 V2000
   55.1270   27.5861   53.6594 H   0  0  0  0  0  0  0  0  0  0  0  0
   54.3520   28.2610   53.2670 C   0  0  0  0  0  0  0  0  0  0  0  0
   53.3024   27.9334   53.2345 H   0  0  0  0  0  0  0  0  0  0  0  0
   54.6870   29.4840   52.8280 C   0  0  0  0  0  0  0  0  0  0  0  0
   53.8170   30.4470   52.3050 C   0  0  0  0  0  0  0  0  0  0  0  0
   52.4820   30.3460   52.1570 C   0  0  0  0  0  0  0  0  0  0  0  0
   51.9012   29.9194   52.9881 H   0  0  0  0  0  0  0  0  0  0  0  0
   51.7520   30.7720   50.9500 C   0  0  0  0  0  0  0  0  0  0  0  0
   51.7150   30.0480   49.8170 N   0  0  0  0  0  0  0  0  0  0  0  0
   51.0250   30.8360   48.9640 C   0  0  0  0  0  0  0  0  0  0  0  0
   50.7670   30.4920   47.7810 O   0  0  0  0  0  0  0  0  0  0  0  0
   50.6430   32.0270   49.4740 N   0  0  0  0  0  0  0  0  0  0  0  0
   51.1220   31.9770   50.7280 C   0  0  0  0  0  0  0  0  0  0  0  0
   51.0240   33.0310   51.6280 O   0  0  0  0  0  0  0  0  0  0  0  0
   54.5970   31.5630   52.0230 C   0  0  0  0  0  0  0  0  0  0  0  0
   54.2482   32.5221   51.6126 H   0  0  0  0  0  0  0  0  0  0  0  0
   55.8960   31.2320   52.3590 C   0  0  0  0  0  0  0  0  0  0  0  0
   57.0700   32.1550   52.2450 C   0  0  0  0  0  0  0  0  0  0  0  0
   57.4195   32.4297   53.2512 H   0  0  0  0  0  0  0  0  0  0  0  0
   57.8815   31.6505   51.7000 H   0  0  0  0  0  0  0  0  0  0  0  0
   56.7713   33.0626   51.7000 H   0  0  0  0  0  0  0  0  0  0  0  0
   55.9490   29.9760   52.8500 N   0  0  0  0  0  0  0  0  0  0  0  0
   57.1390   29.2960   53.2850 C   0  0  0  0  0  0  0  0  0  0  0  0
   57.2810   28.9370   54.6320 C   0  0  0  0  0  0  0  0  0  0  0  0
   56.4840   29.1786   55.3506 H   0  0  0  0  0  0  0  0  0  0  0  0
   58.4300   28.2740   55.0650 C   0  0  0  0  0  0  0  0  0  0  0  0
   58.5357   27.9909   56.1227 H   0  0  0  0  0  0  0  0  0  0  0  0
   59.4450   27.9700   54.1570 C   0  0  0  0  0  0  0  0  0  0  0  0
   60.3488   27.4453   54.5004 H   0  0  0  0  0  0  0  0  0  0  0  0
   59.3170   28.3300   52.8130 C   0  0  0  0  0  0  0  0  0  0  0  0
   60.1225   28.0912   52.1030 H   0  0  0  0  0  0  0  0  0  0  0  0
   58.1600   28.9980   52.3630 C   0  0  0  0  0  0  0  0  0  0  0  0
   57.9890   29.3990   51.0270 O   0  0  0  0  0  0  0  0  0  0  0  0
   59.0280   29.8150   50.1390 C   0  0  0  0  0  0  0  0  0  0  0  0
   59.9728   29.8830   50.6983 H   0  0  0  0  0  0  0  0  0  0  0  0
   59.1111   29.0764   49.3281 H   0  0  0  0  0  0  0  0  0  0  0  0
   58.7120   31.1820   49.5220 C   0  0  0  0  0  0  0  0  0  0  0  0
   57.6509   31.2119   49.2338 H   0  0  0  0  0  0  0  0  0  0  0  0
   58.9268   31.9645   50.2647 H   0  0  0  0  0  0  0  0  0  0  0  0
   59.5490   31.4190   48.3230 N   0  0  0  0  0  0  0  0  0  0  0  0
   58.8420   31.0990   47.0600 C   0  0  0  0  0  0  0  0  0  0  0  0
   59.5720   30.7076   46.3362 H   0  0  0  0  0  0  0  0  0  0  0  0
   58.0641   30.3563   47.2908 H   0  0  0  0  0  0  0  0  0  0  0  0
   58.1470   32.3310   46.4450 C   0  0  0  0  0  0  0  0  0  0  0  0
   58.8251   32.8038   45.7192 H   0  0  0  0  0  0  0  0  0  0  0  0
   57.2229   32.0043   45.9457 H   0  0  0  0  0  0  0  0  0  0  0  0
   57.8160   33.2660   47.4470 O   0  0  0  0  0  0  0  0  0  0  0  0
   58.9950   33.8360   47.9920 C   0  0  0  0  0  0  0  0  0  0  0  0
   59.3932   34.5689   47.2749 H   0  0  0  0  0  0  0  0  0  0  0  0
   58.7210   34.3032   48.9494 H   0  0  0  0  0  0  0  0  0  0  0  0
   60.0950   32.7890   48.2880 C   0  0  0  0  0  0  0  0  0  0  0  0
   60.8628   32.8468   47.5024 H   0  0  0  0  0  0  0  0  0  0  0  0
   60.5242   33.0124   49.2759 H   0  0  0  0  0  0  0  0  0  0  0  0
  1  2  1  0
  2  3  1  0
  2  4  2  0
  4  5  1  0
  5  6  2  0
  6  7  1  0
  6  8  1  0
  8  9  1  0
  9 10  1  0
 10 11  2  0
 10 12  1  0
 12 13  1  0
 13 14  1  0
  5 15  1  0
 15 16  1  0
 15 17  2  0
 17 18  1  0
 18 19  1  0
 18 20  1  0
 18 21  1  0
 17 22  1  0
 22 23  1  0
 23 24  2  0
 24 25  1  0
 24 26  1  0
 26 27  1  0
 26 28  2  0
 28 29  1  0
 28 30  1  0
 30 31  1  0
 30 32  2  0
 32 33  1  0
 33 34  1  0
 34 35  1  0
 34 36  1  0
 34 37  1  0
 37 38  1  0
 37 39  1  0
 37 40  1  0
 40 41  1  0
 41 42  1  0
 41 43  1  0
 41 44  1  0
 44 45  1  0
 44 46  1  0
 44 47  1  0
 47 48  1  0
 48 49  1  0
 48 50  1  0
 48 51  1  0
 51 52  1  0
 51 53  1  0
 22  4  1  0
 32 23  1  0
 51 40  1  0
 13  8  2  0
M  CHG  3   9  -1  12  -1  14  -1
M  END
>  <UniqueID>  (24) 
22

>  <SMILES>  (24) 
C=c1/c(=C/c2[n-]c(=O)[n-]c2[O-])cc(C)n1-c1ccccc1OCCN1CCOCC1

>  <Energy>  (24) 
136.1609244748011

>  <Genealogy>  (24) 
C=c1c(=Cc2[n-]c(=O)[n-]c2[O-])cc(C)n1-c1ccccc1OCCN1CCOCC1 (protonated)
C=c1/c(=C/c2[n-]c(=O)[n-]c2[O-])cc(C)n1-c1ccccc1OCCN1CCOCC1 (cis-trans isomerization)
C=c1/c(=C/c2[n-]c(=O)[n-]c2[O-])cc(C)n1-c1ccccc1OCCN1CCOCC1 (3D coordinates assigned)
C=c1/c(=C/c2[n-]c(=O)[n-]c2[O-])cc(C)n1-c1ccccc1OCCN1CCOCC1 (nonaromatic ring conformer: 136.1609244748011 kcal/mol)

>  <smiles>  (24) 
C=c1c(=Cc2[nH]c(=O)[nH]c2O)cc(C)n1-c1ccccc1OCCN1CCOCC1

>  <score_type>  (24) 
oracle

>  <origin>  (24) 
adg

>  <m_score__min__energy>  (24) 
-16.620000000000001

>  <m_primary>  (24) 
energy

$$$$
24:0
     RDKit          3D

 61 64  0  0  1  0  0  0  0  0999 V2000
   60.6370   27.8920   49.0610 O   0  0  0  0  0  0  0  0  0  0  0  0
   60.2020   28.3600   47.9880 C   0  0  0  0  0  0  0  0  0  0  0  0
   60.7420   29.4870   47.3160 N   0  0  0  0  0  0  0  0  0  0  0  0
   60.6070   30.6820   47.7310 C   0  0  0  0  0  0  0  0  0  0  0  0
   59.8200   31.0030   48.8110 C   0  0  0  0  0  0  0  0  0  0  0  0
   59.7140   32.3000   49.2260 C   0  0  0  0  0  0  0  0  0  0  0  0
   58.9230   32.7000   50.3330 N   0  0  0  0  0  0  0  0  0  0  0  0
   57.7200   32.0390   50.7650 C   0  0  0  0  0  0  0  0  0  0  0  0
   57.8360   31.5870   52.2100 C   0  0  0  0  0  0  0  0  0  0  0  0
   58.3540   32.6700   53.1080 C   0  0  0  0  0  0  0  0  0  0  0  0
   58.5140   33.9730   52.3910 C   0  0  0  0  0  0  0  0  0  0  0  0
   59.3340   33.8710   51.1270 C   0  0  0  0  0  0  0  0  0  0  0  0
   60.4040   33.2300   48.5430 N   0  0  0  0  0  0  0  0  0  0  0  0
   61.1830   32.9530   47.4820 C   0  0  0  0  0  0  0  0  0  0  0  0
   61.2710   31.6670   47.0920 N   0  0  0  0  0  0  0  0  0  0  0  0
   59.0420   27.6840   47.3810 C   0  0  0  0  0  0  0  0  0  0  0  0
   58.8980   26.3470   47.6840 C   0  0  0  0  0  0  0  0  0  0  0  0
   57.8200   25.6780   47.1420 C   0  0  0  0  0  0  0  0  0  0  0  0
   56.9320   26.3450   46.3290 C   0  0  0  0  0  0  0  0  0  0  0  0
   55.7900   25.5610   45.7820 C   0  0  0  0  0  0  0  0  0  0  0  0
   54.6530   26.3390   45.8820 O   0  0  0  0  0  0  0  0  0  0  0  0
   57.0530   27.6890   46.0090 C   0  0  0  0  0  0  0  0  0  0  0  0
   56.1170   28.3370   45.1650 N   0  0  0  0  0  0  0  0  0  0  0  0
   56.4680   29.7050   44.1960 S   0  0  0  0  0  0  0  0  0  0  0  0
   56.2460   29.3890   42.7240 O   0  0  0  0  0  0  0  0  0  0  0  0
   55.4800   30.8050   44.5350 O   0  0  0  0  0  0  0  0  0  0  0  0
   58.1160   30.2940   44.3410 C   0  0  0  0  0  0  0  0  0  0  0  0
   58.0300   31.6810   44.9140 C   0  0  0  0  0  0  0  0  0  0  0  0
   58.1570   32.7250   44.0190 C   0  0  0  0  0  0  0  0  0  0  0  0
   58.0820   34.0120   44.5430 C   0  0  0  0  0  0  0  0  0  0  0  0
   57.8840   34.2150   45.9150 C   0  0  0  0  0  0  0  0  0  0  0  0
   57.7610   33.1620   46.7730 C   0  0  0  0  0  0  0  0  0  0  0  0
   57.8350   31.8820   46.2630 C   0  0  0  0  0  0  0  0  0  0  0  0
   58.1460   28.3390   46.5670 C   0  0  0  0  0  0  0  0  0  0  0  0
   59.2727   30.2115   49.3439 H   0  0  0  0  0  0  0  0  0  0  0  0
   56.8738   32.7358   50.6729 H   0  0  0  0  0  0  0  0  0  0  0  0
   57.5605   31.1532   50.1326 H   0  0  0  0  0  0  0  0  0  0  0  0
   56.8412   31.2796   52.5649 H   0  0  0  0  0  0  0  0  0  0  0  0
   58.5518   30.7524   52.2438 H   0  0  0  0  0  0  0  0  0  0  0  0
   57.6474   32.8082   53.9397 H   0  0  0  0  0  0  0  0  0  0  0  0
   59.3455   32.3612   53.4707 H   0  0  0  0  0  0  0  0  0  0  0  0
   57.5147   34.3500   52.1277 H   0  0  0  0  0  0  0  0  0  0  0  0
   59.0515   34.6510   53.0703 H   0  0  0  0  0  0  0  0  0  0  0  0
   59.1893   34.7822   50.5281 H   0  0  0  0  0  0  0  0  0  0  0  0
   60.3935   33.7586   51.4007 H   0  0  0  0  0  0  0  0  0  0  0  0
   60.3620   34.2490   48.8180 H   0  0  0  0  0  0  0  0  0  0  0  0
   61.7283   33.7479   46.9522 H   0  0  0  0  0  0  0  0  0  0  0  0
   59.6182   25.8309   48.3359 H   0  0  0  0  0  0  0  0  0  0  0  0
   57.6700   24.6103   47.3599 H   0  0  0  0  0  0  0  0  0  0  0  0
   55.9797   25.3105   44.7278 H   0  0  0  0  0  0  0  0  0  0  0  0
   55.6638   24.6247   46.3454 H   0  0  0  0  0  0  0  0  0  0  0  0
   54.4820   26.6850   46.8000 H   0  0  0  0  0  0  0  0  0  0  0  0
   55.1520   27.9330   45.1480 H   0  0  0  0  0  0  0  0  0  0  0  0
   58.6941   29.6417   45.0121 H   0  0  0  0  0  0  0  0  0  0  0  0
   58.6215   30.3001   43.3640 H   0  0  0  0  0  0  0  0  0  0  0  0
   58.3100   32.5479   42.9442 H   0  0  0  0  0  0  0  0  0  0  0  0
   58.1792   34.8790   43.8730 H   0  0  0  0  0  0  0  0  0  0  0  0
   57.8268   35.2412   46.3069 H   0  0  0  0  0  0  0  0  0  0  0  0
   57.6061   33.3296   47.8491 H   0  0  0  0  0  0  0  0  0  0  0  0
   57.7378   31.0179   46.9367 H   0  0  0  0  0  0  0  0  0  0  0  0
   58.2999   29.4068   46.3525 H   0  0  0  0  0  0  0  0  0  0  0  0
  1  2  2  0
  2  3  1  0
  3  4  2  0
  4  5  1  0
  5  6  2  0
  6  7  1  0
  7  8  1  0
  8  9  1  0
  9 10  1  0
 10 11  1  0
 11 12  1  0
  6 13  1  0
 13 14  1  0
 14 15  2  0
  2 16  1  0
 16 17  2  0
 17 18  1  0
 18 19  2  0
 19 20  1  0
 20 21  1  0
 19 22  1  0
 22 23  1  0
 23 24  1  0
 24 25  2  0
 24 26  2  0
 24 27  1  0
 27 28  1  0
 28 29  2  0
 29 30  1  0
 30 31  2  0
 31 32  1  0
 32 33  2  0
 22 34  2  0
 15  4  1  0
 34 16  1  0
 12  7  1  0
 33 28  1  0
  5 35  1  0
  8 36  1  0
  8 37  1  0
  9 38  1  0
  9 39  1  0
 10 40  1  0
 10 41  1  0
 11 42  1  0
 11 43  1  0
 12 44  1  0
 12 45  1  0
 13 46  1  0
 14 47  1  0
 17 48  1  0
 18 49  1  0
 20 50  1  0
 20 51  1  0
 21 52  1  0
 23 53  1  0
 27 54  1  0
 27 55  1  0
 29 56  1  0
 30 57  1  0
 31 58  1  0
 32 59  1  0
 33 60  1  0
 34 61  1  0
M  END
>  <smiles>  (25) 
O=C(N=c1cc(N2CCCCC2)[nH]cn1)c1ccc(CO)c(NS(=O)(=O)Cc2ccccc2)c1

>  <score_type>  (25) 
oracle

>  <origin>  (25) 
adg

>  <m_score__min__energy>  (25) 
-11

>  <m_primary>  (25) 
energy

$$$$
25:0
     RDKit          3D

 64 68  0  0  0  0  0  0  0  0999 V2000
   59.1430   26.9510   47.5160 C   0  0  0  0  0  0  0  0  0  0  0  0
   58.5760   27.3210   46.3550 C   0  0  0  0  0  0  0  0  0  0  0  0
   57.7920   26.5160   45.5230 C   0  0  0  0  0  0  0  0  0  0  0  0
   57.5000   25.2110   45.6850 C   0  0  0  0  0  0  0  0  0  0  0  0
   56.1490   24.6440   45.4740 C   0  0  0  0  0  0  0  0  0  0  0  0
   55.0160   25.4600   45.6160 C   0  0  0  0  0  0  0  0  0  0  0  0
   55.1440   26.7920   45.9950 O   0  0  0  0  0  0  0  0  0  0  0  0
   53.7780   24.9490   45.3910 N   0  0  0  0  0  0  0  0  0  0  0  0
   53.6110   23.6560   45.0140 C   0  0  0  0  0  0  0  0  0  0  0  0
   52.4550   23.2040   44.8150 O   0  0  0  0  0  0  0  0  0  0  0  0
   54.6930   22.8520   44.8460 N   0  0  0  0  0  0  0  0  0  0  0  0
   55.9520   23.3160   45.0550 C   0  0  0  0  0  0  0  0  0  0  0  0
   56.9330   22.5500   44.8520 O   0  0  0  0  0  0  0  0  0  0  0  0
   57.3940   27.3210   44.4630 C   0  0  0  0  0  0  0  0  0  0  0  0
   57.9430   28.5690   44.6870 C   0  0  0  0  0  0  0  0  0  0  0  0
   57.7930   29.7430   43.7700 C   0  0  0  0  0  0  0  0  0  0  0  0
   58.6570   28.5720   45.8350 N   0  0  0  0  0  0  0  0  0  0  0  0
   59.3840   29.6930   46.3690 C   0  0  0  0  0  0  0  0  0  0  0  0
   60.7810   29.7380   46.2760 C   0  0  0  0  0  0  0  0  0  0  0  0
   61.4880   30.8260   46.7950 C   0  0  0  0  0  0  0  0  0  0  0  0
   60.8070   31.8810   47.4270 C   0  0  0  0  0  0  0  0  0  0  0  0
   61.5630   33.0410   47.9540 C   0  0  0  0  0  0  0  0  0  0  0  0
   61.4430   34.1600   47.3850 O   0  0  0  0  0  0  0  0  0  0  0  0
   62.4270   32.9260   49.1010 N   0  0  0  0  0  0  0  0  0  0  0  0
   62.6140   34.0940   49.9740 C   0  0  0  0  0  0  0  0  0  0  0  0
   63.3510   33.7050   51.2580 C   0  0  0  0  0  0  0  0  0  0  0  0
   64.7290   33.0340   50.9730 C   0  0  0  0  0  0  0  0  0  0  0  0
   65.8210   34.0420   50.8530 N   0  0  0  0  0  0  0  0  0  0  0  0
   66.0930   34.7580   52.1130 C   0  0  0  0  0  0  0  0  0  0  0  0
   67.5740   35.1200   52.1330 C   0  0  0  0  0  0  0  0  0  0  0  0
   68.1950   34.3660   50.9760 C   0  0  0  0  0  0  0  0  0  0  0  0
   67.1070   33.4280   50.4950 C   0  0  0  0  0  0  0  0  0  0  0  0
   64.6720   32.1430   49.6940 C   0  0  0  0  0  0  0  0  0  0  0  0
   63.2500   31.7260   49.3120 C   0  0  0  0  0  0  0  0  0  0  0  0
   59.4050   31.8370   47.5080 C   0  0  0  0  0  0  0  0  0  0  0  0
   58.7000   30.7480   46.9890 C   0  0  0  0  0  0  0  0  0  0  0  0
   59.7426   27.6729   48.0899 H   0  0  0  0  0  0  0  0  0  0  0  0
   59.0075   25.9263   47.8923 H   0  0  0  0  0  0  0  0  0  0  0  0
   58.3085   24.5305   45.9903 H   0  0  0  0  0  0  0  0  0  0  0  0
   56.7646   27.0230   43.6115 H   0  0  0  0  0  0  0  0  0  0  0  0
   57.6758   30.6606   44.3652 H   0  0  0  0  0  0  0  0  0  0  0  0
   58.6874   29.8293   43.1355 H   0  0  0  0  0  0  0  0  0  0  0  0
   56.9056   29.6017   43.1355 H   0  0  0  0  0  0  0  0  0  0  0  0
   61.3242   28.9129   45.7921 H   0  0  0  0  0  0  0  0  0  0  0  0
   62.5841   30.8571   46.7085 H   0  0  0  0  0  0  0  0  0  0  0  0
   63.2015   34.8538   49.4378 H   0  0  0  0  0  0  0  0  0  0  0  0
   61.6249   34.4925   50.2439 H   0  0  0  0  0  0  0  0  0  0  0  0
   63.5171   34.6117   51.8583 H   0  0  0  0  0  0  0  0  0  0  0  0
   62.7272   32.9748   51.7943 H   0  0  0  0  0  0  0  0  0  0  0  0
   64.9551   32.3904   51.8359 H   0  0  0  0  0  0  0  0  0  0  0  0
   65.4836   35.6724   52.1629 H   0  0  0  0  0  0  0  0  0  0  0  0
   65.8404   34.1254   52.9767 H   0  0  0  0  0  0  0  0  0  0  0  0
   67.7059   36.2039   51.9995 H   0  0  0  0  0  0  0  0  0  0  0  0
   68.0445   34.8535   53.0909 H   0  0  0  0  0  0  0  0  0  0  0  0
   68.4899   35.0601   50.1752 H   0  0  0  0  0  0  0  0  0  0  0  0
   69.1059   33.8262   51.2740 H   0  0  0  0  0  0  0  0  0  0  0  0
   67.1738   33.2997   49.4046 H   0  0  0  0  0  0  0  0  0  0  0  0
   67.2108   32.4359   50.9587 H   0  0  0  0  0  0  0  0  0  0  0  0
   65.1081   32.7064   48.8559 H   0  0  0  0  0  0  0  0  0  0  0  0
   65.2349   31.2232   49.9113 H   0  0  0  0  0  0  0  0  0  0  0  0
   63.2781   31.1332   48.3858 H   0  0  0  0  0  0  0  0  0  0  0  0
   62.8154   31.1212   50.1216 H   0  0  0  0  0  0  0  0  0  0  0  0
   58.8588   32.6653   47.9831 H   0  0  0  0  0  0  0  0  0  0  0  0
   57.6032   30.7183   47.0673 H   0  0  0  0  0  0  0  0  0  0  0  0
  1  2  2  0
  2  3  1  0
  3  4  2  3
  4  5  1  0
  5  6  2  0
  6  7  1  0
  6  8  1  0
  8  9  1  0
  9 10  2  0
  9 11  1  0
 11 12  1  0
 12 13  2  0
  3 14  1  0
 14 15  2  0
 15 16  1  0
 15 17  1  0
 17 18  1  0
 18 19  2  0
 19 20  1  0
 20 21  2  0
 21 22  1  0
 22 23  2  0
 22 24  1  0
 24 25  1  0
 25 26  1  0
 26 27  1  0
 27 28  1  0
 28 29  1  0
 29 30  1  0
 30 31  1  0
 31 32  1  0
 27 33  1  0
 33 34  1  0
 21 35  1  0
 35 36  2  0
 17  2  1  0
 36 18  1  0
 12  5  1  0
 34 24  1  0
 32 28  1  0
  1 37  1  0
  1 38  1  0
  4 39  1  0
 14 40  1  0
 16 41  1  0
 16 42  1  0
 16 43  1  0
 19 44  1  0
 20 45  1  0
 25 46  1  0
 25 47  1  0
 26 48  1  0
 26 49  1  0
 27 50  1  0
 29 51  1  0
 29 52  1  0
 30 53  1  0
 30 54  1  0
 31 55  1  0
 31 56  1  0
 32 57  1  0
 32 58  1  0
 33 59  1  0
 33 60  1  0
 34 61  1  0
 34 62  1  0
 35 63  1  0
 36 64  1  0
M  CHG  3   7  -1   8  -1  11  -1
M  END
>  <UniqueID>  (26) 
23

>  <SMILES>  (26) 
C=c1c(=Cc2c([O-])[n-]c(=O)[n-]c2=O)cc(C)n1-c1ccc(C(=O)N2CCC(N3CCCC3)CC2)cc1

>  <Energy>  (26) 
125.94111649054871

>  <Genealogy>  (26) 
C=c1c(=Cc2c([O-])[n-]c(=O)[n-]c2=O)cc(C)n1-c1ccc(C(=O)N2CCC(N3CCCC3)CC2)cc1 (protonated)
C=c1c(=Cc2c([O-])[n-]c(=O)[n-]c2=O)cc(C)n1-c1ccc(C(=O)N2CCC(N3CCCC3)CC2)cc1 (3D coordinates assigned)
C=c1c(=Cc2c([O-])[n-]c(=O)[n-]c2=O)cc(C)n1-c1ccc(C(=O)N2CCC(N3CCCC3)CC2)cc1 (nonaromatic ring conformer: 125.94111649054871 kcal/mol)

>  <smiles>  (26) 
C=c1c(=Cc2c(O)[nH]c(=O)[nH]c2=O)cc(C)n1-c1ccc(C(=O)N2CCC(N3CCCC3)CC2)cc1

>  <score_type>  (26) 
oracle

>  <origin>  (26) 
adg

>  <m_score__min__energy>  (26) 
-17.190000000000001

>  <m_primary>  (26) 
energy

$$$$
26:0
     RDKit          3D

 57 60  0  0  0  0  0  0  0  0999 V2000
   53.2690   30.2930   54.6070 C   0  0  0  0  0  0  0  0  0  0  0  0
   52.8140   30.8600   53.2850 C   0  0  0  0  0  0  0  0  0  0  0  0
   51.6230   31.6030   53.2360 C   0  0  0  0  0  0  0  0  0  0  0  0
   51.1790   32.1580   52.0330 C   0  0  0  0  0  0  0  0  0  0  0  0
   49.9940   32.8790   51.9970 O   0  0  0  0  0  0  0  0  0  0  0  0
   51.9240   31.9860   50.8680 C   0  0  0  0  0  0  0  0  0  0  0  0
   53.1130   31.2600   50.8990 C   0  0  0  0  0  0  0  0  0  0  0  0
   53.5830   30.7070   52.1030 C   0  0  0  0  0  0  0  0  0  0  0  0
   54.8380   29.8760   52.0690 C   0  0  0  0  0  0  0  0  0  0  0  0
   55.9880   30.7610   52.1680 N   0  0  0  0  0  0  0  0  0  0  0  0
   57.3400   30.3160   52.0280 C   0  0  0  0  0  0  0  0  0  0  0  0
   57.6090   29.2870   51.3480 O   0  0  0  0  0  0  0  0  0  0  0  0
   58.4510   31.1140   52.6440 C   0  0  0  0  0  0  0  0  0  0  0  0
   59.6440   31.2470   51.6830 C   0  0  0  0  0  0  0  0  0  0  0  0
   59.2700   31.8080   50.3260 C   0  0  0  0  0  0  0  0  0  0  0  0
   58.8940   33.0920   50.1460 N   0  0  0  0  0  0  0  0  0  0  0  0
   58.5020   33.2290   48.8880 N   0  0  0  0  0  0  0  0  0  0  0  0
   58.6550   32.0230   48.3160 C   0  0  0  0  0  0  0  0  0  0  0  0
   58.2990   31.7120   47.0340 N   0  0  0  0  0  0  0  0  0  0  0  0
   57.7070   32.7310   46.1460 C   0  0  0  0  0  0  0  0  0  0  0  0
   58.7210   33.2120   45.0850 C   0  0  0  0  0  0  0  0  0  0  0  0
   58.1320   33.0330   43.6770 C   0  0  0  0  0  0  0  0  0  0  0  0
   59.1210   34.6830   45.3090 C   0  0  0  0  0  0  0  0  0  0  0  0
   58.5000   30.4250   46.5920 C   0  0  0  0  0  0  0  0  0  0  0  0
   58.1720   30.1030   45.4130 O   0  0  0  0  0  0  0  0  0  0  0  0
   59.0810   29.4550   47.4440 C   0  0  0  0  0  0  0  0  0  0  0  0
   59.3220   28.1400   46.9970 C   0  0  0  0  0  0  0  0  0  0  0  0
   59.9350   27.2120   47.8390 C   0  0  0  0  0  0  0  0  0  0  0  0
   60.3310   27.5870   49.1220 C   0  0  0  0  0  0  0  0  0  0  0  0
   60.1010   28.8850   49.5840 C   0  0  0  0  0  0  0  0  0  0  0  0
   59.4390   29.8280   48.7690 C   0  0  0  0  0  0  0  0  0  0  0  0
   59.1640   31.1110   49.1630 N   0  0  0  0  0  0  0  0  0  0  0  0
   52.8108   30.8640   55.4280 H   0  0  0  0  0  0  0  0  0  0  0  0
   52.9635   29.2387   54.6784 H   0  0  0  0  0  0  0  0  0  0  0  0
   54.3644   30.3629   54.6784 H   0  0  0  0  0  0  0  0  0  0  0  0
   51.0342   31.7494   54.1535 H   0  0  0  0  0  0  0  0  0  0  0  0
   51.5728   32.4242   49.9221 H   0  0  0  0  0  0  0  0  0  0  0  0
   53.6892   31.1183   49.9728 H   0  0  0  0  0  0  0  0  0  0  0  0
   54.8388   29.1725   52.9146 H   0  0  0  0  0  0  0  0  0  0  0  0
   54.8841   29.3063   51.1291 H   0  0  0  0  0  0  0  0  0  0  0  0
   58.0763   32.1183   52.8909 H   0  0  0  0  0  0  0  0  0  0  0  0
   58.7921   30.5917   53.5500 H   0  0  0  0  0  0  0  0  0  0  0  0
   60.3879   31.9146   52.1423 H   0  0  0  0  0  0  0  0  0  0  0  0
   60.0381   30.2337   51.5158 H   0  0  0  0  0  0  0  0  0  0  0  0
   56.8340   32.2976   45.6361 H   0  0  0  0  0  0  0  0  0  0  0  0
   57.4118   33.5951   46.7593 H   0  0  0  0  0  0  0  0  0  0  0  0
   59.6291   32.5989   45.1826 H   0  0  0  0  0  0  0  0  0  0  0  0
   57.0823   32.7140   43.7565 H   0  0  0  0  0  0  0  0  0  0  0  0
   58.1849   33.9878   43.1333 H   0  0  0  0  0  0  0  0  0  0  0  0
   58.7072   32.2691   43.1333 H   0  0  0  0  0  0  0  0  0  0  0  0
   59.1766   34.8876   46.3884 H   0  0  0  0  0  0  0  0  0  0  0  0
   60.1026   34.8701   44.8493 H   0  0  0  0  0  0  0  0  0  0  0  0
   58.3693   35.3415   44.8493 H   0  0  0  0  0  0  0  0  0  0  0  0
   59.0254   27.8444   45.9798 H   0  0  0  0  0  0  0  0  0  0  0  0
   60.1062   26.1829   47.4901 H   0  0  0  0  0  0  0  0  0  0  0  0
   60.8284   26.8552   49.7755 H   0  0  0  0  0  0  0  0  0  0  0  0
   60.4383   29.1742   50.5903 H   0  0  0  0  0  0  0  0  0  0  0  0
  1  2  1  0
  2  3  2  0
  3  4  1  0
  4  5  1  0
  4  6  2  0
  6  7  1  0
  7  8  2  0
  8  9  1  0
  9 10  1  0
 10 11  1  0
 11 12  2  0
 11 13  1  0
 13 14  1  0
 14 15  1  0
 15 16  2  0
 16 17  1  0
 17 18  2  0
 18 19  1  0
 19 20  1  0
 20 21  1  0
 21 22  1  0
 21 23  1  0
 19 24  1  0
 24 25  2  0
 24 26  1  0
 26 27  2  0
 27 28  1  0
 28 29  2  0
 29 30  1  0
 30 31  2  0
 31 32  1  0
  8  2  1  0
 32 15  1  0
 32 18  1  0
 31 26  1  0
  1 33  1  0
  1 34  1  0
  1 35  1  0
  3 36  1  0
  6 37  1  0
  7 38  1  0
  9 39  1  0
  9 40  1  0
 13 41  1  0
 13 42  1  0
 14 43  1  0
 14 44  1  0
 20 45  1  0
 20 46  1  0
 21 47  1  0
 22 48  1  0
 22 49  1  0
 22 50  1  0
 23 51  1  0
 23 52  1  0
 23 53  1  0
 27 54  1  0
 28 55  1  0
 29 56  1  0
 30 57  1  0
M  CHG  2   5  -1  10  -1
M  END
>  <UniqueID>  (27) 
24

>  <SMILES>  (27) 
Cc1cc([O-])ccc1C[N-]C(=O)CCc1nnc2n(CC(C)C)c(=O)c3ccccc3n12

>  <Energy>  (27) 
102.25326688120899

>  <Genealogy>  (27) 
Cc1cc([O-])ccc1C[N-]C(=O)CCc1nnc2n(CC(C)C)c(=O)c3ccccc3n12 (protonated)
Cc1cc([O-])ccc1C[N-]C(=O)CCc1nnc2n(CC(C)C)c(=O)c3ccccc3n12 (3D coordinates assigned)
Cc1cc([O-])ccc1C[N-]C(=O)CCc1nnc2n(CC(C)C)c(=O)c3ccccc3n12 (optimized conformer: 102.25326688120899 kcal/mol)

>  <smiles>  (27) 
Cc1cc(O)ccc1CNC(=O)CCc1nnc2n(CC(C)C)c(=O)c3ccccc3n12

>  <score_type>  (27) 
oracle

>  <origin>  (27) 
adg

>  <m_score__min__energy>  (27) 
-14.279999999999999

>  <m_primary>  (27) 
energy

$$$$
27:0
     RDKit          3D

 54 57  0  0  0  0  0  0  0  0999 V2000
   57.3247   31.4184   52.7823 H   0  0  0  0  0  0  0  0  0  0  0  0
   56.2310   31.4880   52.6870 C   0  0  0  0  0  0  0  0  0  0  0  0
   55.7595   32.4543   52.4548 H   0  0  0  0  0  0  0  0  0  0  0  0
   55.4720   30.3940   52.8540 C   0  0  0  0  0  0  0  0  0  0  0  0
   54.0770   30.3280   52.7640 C   0  0  0  0  0  0  0  0  0  0  0  0
   53.2340   31.3230   52.4280 C   0  0  0  0  0  0  0  0  0  0  0  0
   53.2385   32.2337   53.0449 H   0  0  0  0  0  0  0  0  0  0  0  0
   52.3060   31.2670   51.2850 C   0  0  0  0  0  0  0  0  0  0  0  0
   52.3720   30.3260   50.3260 N   0  0  0  0  0  0  0  0  0  0  0  0
   51.4120   30.7000   49.4530 C   0  0  0  0  0  0  0  0  0  0  0  0
   51.1550   30.0470   48.4080 O   0  0  0  0  0  0  0  0  0  0  0  0
   50.7560   31.8330   49.7800 N   0  0  0  0  0  0  0  0  0  0  0  0
   51.3420   32.1880   50.9360 C   0  0  0  0  0  0  0  0  0  0  0  0
   51.0320   33.3520   51.6270 O   0  0  0  0  0  0  0  0  0  0  0  0
   53.7310   29.0110   53.0420 C   0  0  0  0  0  0  0  0  0  0  0  0
   52.7152   28.5894   53.0626 H   0  0  0  0  0  0  0  0  0  0  0  0
   54.9080   28.3350   53.2870 C   0  0  0  0  0  0  0  0  0  0  0  0
   55.0040   26.8800   53.6280 C   0  0  0  0  0  0  0  0  0  0  0  0
   55.0120   26.7594   54.7213 H   0  0  0  0  0  0  0  0  0  0  0  0
   54.1391   26.3468   53.2066 H   0  0  0  0  0  0  0  0  0  0  0  0
   55.9315   26.4650   53.2066 H   0  0  0  0  0  0  0  0  0  0  0  0
   55.9640   29.1720   53.1780 N   0  0  0  0  0  0  0  0  0  0  0  0
   57.3440   28.8090   53.3600 C   0  0  0  0  0  0  0  0  0  0  0  0
   57.7680   28.2660   54.5760 C   0  0  0  0  0  0  0  0  0  0  0  0
   57.0477   28.1217   55.3948 H   0  0  0  0  0  0  0  0  0  0  0  0
   59.1010   27.9080   54.7510 C   0  0  0  0  0  0  0  0  0  0  0  0
   59.4370   27.4773   55.7058 H   0  0  0  0  0  0  0  0  0  0  0  0
   60.0140   28.0990   53.7040 C   0  0  0  0  0  0  0  0  0  0  0  0
   61.3930   27.7120   53.8630 N   0  0  0  0  0  0  0  0  0  0  0  0
   62.0030   26.6840   53.0150 C   0  0  0  0  0  0  0  0  0  0  0  0
   62.2930   25.8251   53.6380 H   0  0  0  0  0  0  0  0  0  0  0  0
   61.2735   26.3691   52.2543 H   0  0  0  0  0  0  0  0  0  0  0  0
   63.2520   27.2440   52.3090 C   0  0  0  0  0  0  0  0  0  0  0  0
   63.9433   26.4106   52.1152 H   0  0  0  0  0  0  0  0  0  0  0  0
   62.9058   27.7291   51.3844 H   0  0  0  0  0  0  0  0  0  0  0  0
   63.9750   28.2790   53.0950 N   0  0  0  0  0  0  0  0  0  0  0  0
   63.7270   29.6350   52.5740 C   0  0  0  0  0  0  0  0  0  0  0  0
   63.5993   30.3331   53.4145 H   0  0  0  0  0  0  0  0  0  0  0  0
   64.5818   29.9536   51.9593 H   0  0  0  0  0  0  0  0  0  0  0  0
   62.8148   29.6305   51.9593 H   0  0  0  0  0  0  0  0  0  0  0  0
   63.7200   28.1940   54.5500 C   0  0  0  0  0  0  0  0  0  0  0  0
   64.0559   27.2116   54.9134 H   0  0  0  0  0  0  0  0  0  0  0  0
   64.2727   29.0080   55.0418 H   0  0  0  0  0  0  0  0  0  0  0  0
   62.2260   28.3630   54.8800 C   0  0  0  0  0  0  0  0  0  0  0  0
   62.0193   27.9092   55.8605 H   0  0  0  0  0  0  0  0  0  0  0  0
   61.9873   29.4366   54.8981 H   0  0  0  0  0  0  0  0  0  0  0  0
   59.5790   28.6160   52.5170 N   0  0  0  0  0  0  0  0  0  0  0  0
   60.2720   28.7490   51.7500 H   0  0  0  0  0  0  0  0  0  0  0  0
   58.2720   28.9720   52.3200 C   0  0  0  0  0  0  0  0  0  0  0  0
   57.8260   29.4930   51.0960 O   0  0  0  0  0  0  0  0  0  0  0  0
   58.6020   30.3390   50.2540 C   0  0  0  0  0  0  0  0  0  0  0  0
   59.2165   31.0089   50.8734 H   0  0  0  0  0  0  0  0  0  0  0  0
   59.2564   29.7238   49.6190 H   0  0  0  0  0  0  0  0  0  0  0  0
   57.9327   30.9380   49.6190 H   0  0  0  0  0  0  0  0  0  0  0  0
  1  2  1  0
  2  3  1  0
  2  4  2  0
  4  5  1  0
  5  6  2  0
  6  7  1  0
  6  8  1  0
  8  9  1  0
  9 10  1  0
 10 11  2  0
 10 12  1  0
 12 13  1  0
 13 14  1  0
  5 15  1  0
 15 16  1  0
 15 17  2  0
 17 18  1  0
 18 19  1  0
 18 20  1  0
 18 21  1  0
 17 22  1  0
 22 23  1  0
 23 24  2  0
 24 25  1  0
 24 26  1  0
 26 27  1  0
 26 28  2  0
 28 29  1  0
 29 30  1  0
 30 31  1  0
 30 32  1  0
 30 33  1  0
 33 34  1  0
 33 35  1  0
 33 36  1  0
 36 37  1  0
 37 38  1  0
 37 39  1  0
 37 40  1  0
 36 41  1  0
 41 42  1  0
 41 43  1  0
 41 44  1  0
 44 45  1  0
 44 46  1  0
 28 47  1  0
 47 48  1  0
 47 49  2  0
 49 50  1  0
 50 51  1  0
 51 52  1  0
 51 53  1  0
 51 54  1  0
 22  4  1  0
 49 23  1  0
 13  8  2  0
 44 29  1  0
M  CHG  4   9  -1  12  -1  14  -1  47   1
M  END
>  <UniqueID>  (28) 
25

>  <SMILES>  (28) 
C=c1/c(=C/c2[n-]c(=O)[n-]c2[O-])cc(C)n1-c1ccc(N2CCN(C)CC2)[nH+]c1OC

>  <Energy>  (28) 
137.81564037349003

>  <Genealogy>  (28) 
C=c1c(=Cc2[n-]c(=O)[n-]c2[O-])cc(C)n1-c1ccc(N2CCN(C)CC2)[nH+]c1OC (protonated)
C=c1/c(=C/c2[n-]c(=O)[n-]c2[O-])cc(C)n1-c1ccc(N2CCN(C)CC2)[nH+]c1OC (cis-trans isomerization)
C=c1/c(=C/c2[n-]c(=O)[n-]c2[O-])cc(C)n1-c1ccc(N2CCN(C)CC2)[nH+]c1OC (3D coordinates assigned)
C=c1/c(=C/c2[n-]c(=O)[n-]c2[O-])cc(C)n1-c1ccc(N2CCN(C)CC2)[nH+]c1OC (nonaromatic ring conformer: 137.81564037349003 kcal/mol)

>  <smiles>  (28) 
C=c1c(=Cc2[nH]c(=O)[nH]c2O)cc(C)n1-c1ccc(N2CCN(C)CC2)nc1OC

>  <score_type>  (28) 
oracle

>  <origin>  (28) 
adg

>  <m_score__min__energy>  (28) 
-14.73

>  <m_primary>  (28) 
energy

$$$$
28:0
     RDKit          3D

 41 43  0  0  0  0  0  0  0  0999 V2000
   56.7820   31.3140   51.9800 C   0  0  0  0  0  0  0  0  0  0  0  0
   57.4250   30.3700   51.1340 O   0  0  0  0  0  0  0  0  0  0  0  0
   58.4940   30.6720   50.2770 C   0  0  0  0  0  0  0  0  0  0  0  0
   59.5110   29.7500   49.9790 C   0  0  0  0  0  0  0  0  0  0  0  0
   60.5560   30.1040   49.1240 C   0  0  0  0  0  0  0  0  0  0  0  0
   60.6070   31.3940   48.5610 C   0  0  0  0  0  0  0  0  0  0  0  0
   61.6570   31.7970   47.7230 O   0  0  0  0  0  0  0  0  0  0  0  0
   62.6790   32.7230   48.0910 C   0  0  0  0  0  0  0  0  0  0  0  0
   59.5830   32.3160   48.8430 C   0  0  0  0  0  0  0  0  0  0  0  0
   59.7040   33.6630   48.3560 N   0  0  0  0  0  0  0  0  0  0  0  0
   59.2830   34.1820   47.0860 C   0  0  0  0  0  0  0  0  0  0  0  0
   58.9310   35.3900   47.0230 O   0  0  0  0  0  0  0  0  0  0  0  0
   59.4320   33.3960   45.8100 C   0  0  0  0  0  0  0  0  0  0  0  0
   57.8620   33.3220   44.8660 S   0  0  0  0  0  0  0  0  0  0  0  0
   57.6760   31.5560   45.0460 C   0  0  0  0  0  0  0  0  0  0  0  0
   56.5060   30.9480   44.6960 N   0  0  0  0  0  0  0  0  0  0  0  0
   56.3130   29.6130   44.8980 C   0  0  0  0  0  0  0  0  0  0  0  0
   55.2300   29.0780   44.5520 O   0  0  0  0  0  0  0  0  0  0  0  0
   57.3490   28.8810   45.4930 C   0  0  0  0  0  0  0  0  0  0  0  0
   57.4620   27.5440   45.8770 C   0  0  0  0  0  0  0  0  0  0  0  0
   56.4610   26.4580   45.8380 C   0  0  0  0  0  0  0  0  0  0  0  0
   56.8440   25.2630   45.7010 O   0  0  0  0  0  0  0  0  0  0  0  0
   55.1040   26.7160   46.0020 O   0  0  0  0  0  0  0  0  0  0  0  0
   58.7480   27.4090   46.4070 C   0  0  0  0  0  0  0  0  0  0  0  0
   59.3540   28.6510   46.3410 C   0  0  0  0  0  0  0  0  0  0  0  0
   58.4910   29.5180   45.7900 N   0  0  0  0  0  0  0  0  0  0  0  0
   58.6810   30.8220   45.5910 N   0  0  0  0  0  0  0  0  0  0  0  0
   58.5490   31.9530   49.7180 C   0  0  0  0  0  0  0  0  0  0  0  0
   56.9636   31.0473   53.0316 H   0  0  0  0  0  0  0  0  0  0  0  0
   57.1847   32.3182   51.7815 H   0  0  0  0  0  0  0  0  0  0  0  0
   55.7001   31.3070   51.7815 H   0  0  0  0  0  0  0  0  0  0  0  0
   59.4837   28.7435   50.4219 H   0  0  0  0  0  0  0  0  0  0  0  0
   61.3430   29.3724   48.8889 H   0  0  0  0  0  0  0  0  0  0  0  0
   62.7434   32.7813   49.1876 H   0  0  0  0  0  0  0  0  0  0  0  0
   63.6437   32.3851   47.6845 H   0  0  0  0  0  0  0  0  0  0  0  0
   62.4376   33.7162   47.6845 H   0  0  0  0  0  0  0  0  0  0  0  0
   60.2005   33.8745   45.1852 H   0  0  0  0  0  0  0  0  0  0  0  0
   59.7198   32.3678   46.0744 H   0  0  0  0  0  0  0  0  0  0  0  0
   59.1958   26.4858   46.8034 H   0  0  0  0  0  0  0  0  0  0  0  0
   60.3723   28.8879   46.6829 H   0  0  0  0  0  0  0  0  0  0  0  0
   57.7691   32.6871   49.9686 H   0  0  0  0  0  0  0  0  0  0  0  0
  1  2  1  0
  2  3  1  0
  3  4  2  0
  4  5  1  0
  5  6  2  0
  6  7  1  0
  7  8  1  0
  6  9  1  0
  9 10  1  0
 10 11  1  0
 11 12  2  0
 11 13  1  0
 13 14  1  0
 14 15  1  0
 15 16  2  0
 16 17  1  0
 17 18  2  0
 17 19  1  0
 19 20  2  0
 20 21  1  0
 21 22  2  0
 21 23  1  0
 20 24  1  0
 24 25  2  0
 25 26  1  0
 26 27  1  0
  9 28  2  0
 28  3  1  0
 27 15  1  0
 26 19  1  0
  1 29  1  0
  1 30  1  0
  1 31  1  0
  4 32  1  0
  5 33  1  0
  8 34  1  0
  8 35  1  0
  8 36  1  0
 13 37  1  0
 13 38  1  0
 24 39  1  0
 25 40  1  0
 28 41  1  0
M  CHG  3  10  -1  23  -1  27  -1
M  END
>  <UniqueID>  (29) 
26

>  <SMILES>  (29) 
COc1ccc(OC)c([N-]C(=O)CSc2nc(=O)c3c(C(=O)[O-])ccn3[n-]2)c1

>  <Energy>  (29) 
79.5650627410764

>  <Genealogy>  (29) 
COc1ccc(OC)c([N-]C(=O)CSc2nc(=O)c3c(C(=O)[O-])ccn3[n-]2)c1 (protonated)
COc1ccc(OC)c([N-]C(=O)CSc2nc(=O)c3c(C(=O)[O-])ccn3[n-]2)c1 (3D coordinates assigned)
COc1ccc(OC)c([N-]C(=O)CSc2nc(=O)c3c(C(=O)[O-])ccn3[n-]2)c1 (optimized conformer: 79.5650627410764 kcal/mol)

>  <smiles>  (29) 
COc1ccc(OC)c(NC(=O)CSc2nc(=O)c3c(C(=O)O)ccn3[nH]2)c1

>  <score_type>  (29) 
oracle

>  <origin>  (29) 
adg

>  <m_score__min__energy>  (29) 
-12.69

>  <m_primary>  (29) 
energy

$$$$
29:0
     RDKit          3D

 47 50  0  0  0  0  0  0  0  0999 V2000
   63.5720   33.9870   50.6860 C   0  0  0  0  0  0  0  0  0  0  0  0
   63.2330   33.8220   49.2780 N   0  0  0  0  0  0  0  0  0  0  0  0
   64.1380   33.3650   48.2330 C   0  0  0  0  0  0  0  0  0  0  0  0
   63.2960   33.3520   46.9310 C   0  0  0  0  0  0  0  0  0  0  0  0
   61.9600   33.8210   47.3050 N   0  0  0  0  0  0  0  0  0  0  0  0
   60.7770   33.6690   46.5010 C   0  0  0  0  0  0  0  0  0  0  0  0
   60.3690   34.6390   45.8040 O   0  0  0  0  0  0  0  0  0  0  0  0
   60.0140   32.4050   46.4870 C   0  0  0  0  0  0  0  0  0  0  0  0
   60.5080   31.2620   47.1350 C   0  0  0  0  0  0  0  0  0  0  0  0
   59.7860   30.0660   47.1100 C   0  0  0  0  0  0  0  0  0  0  0  0
   58.5600   29.9850   46.4240 C   0  0  0  0  0  0  0  0  0  0  0  0
   57.7920   28.7130   46.3990 C   0  0  0  0  0  0  0  0  0  0  0  0
   56.6380   28.5760   45.6140 C   0  0  0  0  0  0  0  0  0  0  0  0
   55.9530   27.4030   45.6070 N   0  0  0  0  0  0  0  0  0  0  0  0
   56.3670   26.3380   46.3470 C   0  0  0  0  0  0  0  0  0  0  0  0
   55.6980   25.2220   46.3600 N   0  0  0  0  0  0  0  0  0  0  0  0
   55.8710   24.1000   45.4780 C   0  0  0  0  0  0  0  0  0  0  0  0
   55.6990   22.8080   45.9940 C   0  0  0  0  0  0  0  0  0  0  0  0
   55.8910   21.6890   45.1790 C   0  0  0  0  0  0  0  0  0  0  0  0
   56.2790   21.8500   43.8430 C   0  0  0  0  0  0  0  0  0  0  0  0
   56.4720   20.7420   43.0200 O   0  0  0  0  0  0  0  0  0  0  0  0
   56.4830   23.1340   43.3300 C   0  0  0  0  0  0  0  0  0  0  0  0
   56.2920   24.2560   44.1430 C   0  0  0  0  0  0  0  0  0  0  0  0
   57.4750   26.4540   47.1230 N   0  0  0  0  0  0  0  0  0  0  0  0
   58.1930   27.6060   47.1610 C   0  0  0  0  0  0  0  0  0  0  0  0
   58.0780   31.1260   45.7590 C   0  0  0  0  0  0  0  0  0  0  0  0
   58.8020   32.3220   45.7850 C   0  0  0  0  0  0  0  0  0  0  0  0
   61.9730   34.0670   48.6980 C   0  0  0  0  0  0  0  0  0  0  0  0
   60.9700   34.4630   49.3520 O   0  0  0  0  0  0  0  0  0  0  0  0
   62.7565   33.5901   51.3084 H   0  0  0  0  0  0  0  0  0  0  0  0
   64.5007   33.4402   50.9061 H   0  0  0  0  0  0  0  0  0  0  0  0
   63.7146   35.0553   50.9061 H   0  0  0  0  0  0  0  0  0  0  0  0
   64.9892   34.0545   48.1333 H   0  0  0  0  0  0  0  0  0  0  0  0
   64.5541   32.3722   48.4594 H   0  0  0  0  0  0  0  0  0  0  0  0
   63.7406   34.0242   46.1824 H   0  0  0  0  0  0  0  0  0  0  0  0
   63.2586   32.3461   46.4873 H   0  0  0  0  0  0  0  0  0  0  0  0
   61.4702   31.3082   47.6661 H   0  0  0  0  0  0  0  0  0  0  0  0
   60.1792   29.1805   47.6308 H   0  0  0  0  0  0  0  0  0  0  0  0
   56.2868   29.4203   45.0026 H   0  0  0  0  0  0  0  0  0  0  0  0
   55.4111   22.6740   47.0472 H   0  0  0  0  0  0  0  0  0  0  0  0
   55.7370   20.6795   45.5878 H   0  0  0  0  0  0  0  0  0  0  0  0
   57.0360   19.9540   43.3170 H   0  0  0  0  0  0  0  0  0  0  0  0
   56.7949   23.2626   42.2830 H   0  0  0  0  0  0  0  0  0  0  0  0
   56.4711   25.2632   43.7386 H   0  0  0  0  0  0  0  0  0  0  0  0
   59.0920   27.6711   47.7915 H   0  0  0  0  0  0  0  0  0  0  0  0
   57.1238   31.0775   45.2139 H   0  0  0  0  0  0  0  0  0  0  0  0
   58.4186   33.2041   45.2513 H   0  0  0  0  0  0  0  0  0  0  0  0
  1  2  1  0
  2  3  1  0
  3  4  1  0
  4  5  1  0
  5  6  1  0
  6  7  2  0
  6  8  1  0
  8  9  2  0
  9 10  1  0
 10 11  2  0
 11 12  1  0
 12 13  1  0
 13 14  2  0
 14 15  1  0
 15 16  2  3
 16 17  1  0
 17 18  2  0
 18 19  1  0
 19 20  2  0
 20 21  1  0
 20 22  1  0
 22 23  2  0
 15 24  1  0
 24 25  1  0
 11 26  1  0
 26 27  2  0
  5 28  1  0
 28 29  2  0
 28  2  1  0
 27  8  1  0
 25 12  2  0
 23 17  1  0
  1 30  1  0
  1 31  1  0
  1 32  1  0
  3 33  1  0
  3 34  1  0
  4 35  1  0
  4 36  1  0
  9 37  1  0
 10 38  1  0
 13 39  1  0
 18 40  1  0
 19 41  1  0
 21 42  1  0
 22 43  1  0
 23 44  1  0
 25 45  1  0
 26 46  1  0
 27 47  1  0
M  CHG  1  24  -1
M  END
>  <UniqueID>  (30) 
27

>  <SMILES>  (30) 
CN1CCN(C(=O)c2ccc(-c3cnc(=Nc4ccc(O)cc4)[n-]c3)cc2)C1=O

>  <Energy>  (30) 
79.37968185669136

>  <Genealogy>  (30) 
CN1CCN(C(=O)c2ccc(-c3cnc(=Nc4ccc(O)cc4)[n-]c3)cc2)C1=O (protonated)
CN1CCN(C(=O)c2ccc(-c3cnc(=Nc4ccc(O)cc4)[n-]c3)cc2)C1=O (3D coordinates assigned)
CN1CCN(C(=O)c2ccc(-c3cnc(=Nc4ccc(O)cc4)[n-]c3)cc2)C1=O (nonaromatic ring conformer: 79.37968185669136 kcal/mol)

>  <smiles>  (30) 
CN1CCN(C(=O)c2ccc(-c3cnc(=Nc4ccc(O)cc4)[nH]c3)cc2)C1=O

>  <score_type>  (30) 
oracle

>  <origin>  (30) 
adg

>  <m_score__min__energy>  (30) 
-10.289999999999999

>  <m_primary>  (30) 
energy

$$$$
30:0
     RDKit          3D

 38 40  0  0  0  0  0  0  0  0999 V2000
   57.9100   32.4160   42.4670 C   0  0  0  0  0  0  0  0  0  0  0  0
   57.9940   32.3430   43.8030 C   0  0  0  0  0  0  0  0  0  0  0  0
   58.1200   33.5190   44.4630 N   0  0  0  0  0  0  0  0  0  0  0  0
   58.4040   33.5930   45.7820 C   0  0  0  0  0  0  0  0  0  0  0  0
   58.4890   34.7290   46.3210 O   0  0  0  0  0  0  0  0  0  0  0  0
   58.6270   32.4520   46.5040 N   0  0  0  0  0  0  0  0  0  0  0  0
   58.9680   32.5360   47.9400 C   0  0  0  0  0  0  0  0  0  0  0  0
   60.3920   32.9990   48.1200 C   0  0  0  0  0  0  0  0  0  0  0  0
   61.3920   32.5970   47.2170 C   0  0  0  0  0  0  0  0  0  0  0  0
   62.7170   33.0030   47.4050 C   0  0  0  0  0  0  0  0  0  0  0  0
   63.0540   33.8110   48.4940 C   0  0  0  0  0  0  0  0  0  0  0  0
   62.0670   34.2130   49.3970 C   0  0  0  0  0  0  0  0  0  0  0  0
   60.7420   33.8090   49.2130 C   0  0  0  0  0  0  0  0  0  0  0  0
   58.4770   31.2270   45.9030 C   0  0  0  0  0  0  0  0  0  0  0  0
   58.6670   30.1770   46.5820 O   0  0  0  0  0  0  0  0  0  0  0  0
   58.0770   31.1230   44.5420 C   0  0  0  0  0  0  0  0  0  0  0  0
   57.7690   29.8900   44.0460 C   0  0  0  0  0  0  0  0  0  0  0  0
   57.5620   28.6530   44.8290 C   0  0  0  0  0  0  0  0  0  0  0  0
   58.6830   27.9220   45.2540 C   0  0  0  0  0  0  0  0  0  0  0  0
   58.5220   26.7630   46.0170 C   0  0  0  0  0  0  0  0  0  0  0  0
   57.2440   26.3340   46.3790 C   0  0  0  0  0  0  0  0  0  0  0  0
   56.1210   27.0710   45.9920 C   0  0  0  0  0  0  0  0  0  0  0  0
   54.8530   26.6470   46.3710 O   0  0  0  0  0  0  0  0  0  0  0  0
   56.2740   28.2360   45.2280 C   0  0  0  0  0  0  0  0  0  0  0  0
   55.1500   28.9810   44.8820 O   0  0  0  0  0  0  0  0  0  0  0  0
   57.8062   31.4970   41.8714 H   0  0  0  0  0  0  0  0  0  0  0  0
   57.9449   33.3949   41.9664 H   0  0  0  0  0  0  0  0  0  0  0  0
   58.2906   33.2499   48.4315 H   0  0  0  0  0  0  0  0  0  0  0  0
   58.8595   31.5380   48.3897 H   0  0  0  0  0  0  0  0  0  0  0  0
   61.1310   31.9603   46.3588 H   0  0  0  0  0  0  0  0  0  0  0  0
   63.4948   32.6859   46.6947 H   0  0  0  0  0  0  0  0  0  0  0  0
   64.0964   34.1305   48.6402 H   0  0  0  0  0  0  0  0  0  0  0  0
   62.3332   34.8487   50.2544 H   0  0  0  0  0  0  0  0  0  0  0  0
   59.9689   34.1270   49.9279 H   0  0  0  0  0  0  0  0  0  0  0  0
   57.6642   29.8079   42.9541 H   0  0  0  0  0  0  0  0  0  0  0  0
   59.6933   28.2638   44.9847 H   0  0  0  0  0  0  0  0  0  0  0  0
   59.4043   26.1872   46.3332 H   0  0  0  0  0  0  0  0  0  0  0  0
   57.1204   25.4144   46.9698 H   0  0  0  0  0  0  0  0  0  0  0  0
  1  2  2  0
  2  3  1  0
  3  4  1  0
  4  5  2  0
  4  6  1  0
  6  7  1  0
  7  8  1  0
  8  9  2  0
  9 10  1  0
 10 11  2  0
 11 12  1  0
 12 13  2  0
  6 14  1  0
 14 15  2  0
 14 16  1  0
 16 17  2  3
 17 18  1  0
 18 19  2  0
 19 20  1  0
 20 21  2  0
 21 22  1  0
 22 23  1  0
 22 24  2  0
 24 25  1  0
 16  2  1  0
 24 18  1  0
 13  8  1  0
  1 26  1  0
  1 27  1  0
  7 28  1  0
  7 29  1  0
  9 30  1  0
 10 31  1  0
 11 32  1  0
 12 33  1  0
 13 34  1  0
 17 35  1  0
 19 36  1  0
 20 37  1  0
 21 38  1  0
M  CHG  3   3  -1  23  -1  25  -1
M  END
>  <UniqueID>  (31) 
28

>  <SMILES>  (31) 
C=c1[n-]c(=O)n(Cc2ccccc2)c(=O)c1=Cc1cccc([O-])c1[O-]

>  <Energy>  (31) 
68.82005883286013

>  <Genealogy>  (31) 
C=c1[n-]c(=O)n(Cc2ccccc2)c(=O)c1=Cc1cccc([O-])c1[O-] (protonated)
C=c1[n-]c(=O)n(Cc2ccccc2)c(=O)c1=Cc1cccc([O-])c1[O-] (3D coordinates assigned)
C=c1[n-]c(=O)n(Cc2ccccc2)c(=O)c1=Cc1cccc([O-])c1[O-] (optimized conformer: 68.82005883286013 kcal/mol)

>  <smiles>  (31) 
C=c1[nH]c(=O)n(Cc2ccccc2)c(=O)c1=Cc1cccc(O)c1O

>  <score_type>  (31) 
oracle

>  <origin>  (31) 
adg

>  <m_score__min__energy>  (31) 
-17.07

>  <m_primary>  (31) 
energy

$$$$
31:0
     RDKit          3D

 60 64  0  0  0  0  0  0  0  0999 V2000
   65.3190   32.7730   49.7160 C   0  0  0  0  0  0  0  0  0  0  0  0
   64.5040   32.8530   50.9450 N   0  0  0  0  0  0  0  0  0  0  0  0
   63.4580   31.8190   51.0080 C   0  0  0  0  0  0  0  0  0  0  0  0
   62.4160   31.9590   49.8880 C   0  0  0  0  0  0  0  0  0  0  0  0
   62.1620   33.3570   49.5030 N   0  0  0  0  0  0  0  0  0  0  0  0
   61.2550   33.5940   48.4140 C   0  0  0  0  0  0  0  0  0  0  0  0
   59.8820   33.7640   48.6580 C   0  0  0  0  0  0  0  0  0  0  0  0
   58.9970   33.9520   47.5960 C   0  0  0  0  0  0  0  0  0  0  0  0
   59.4760   33.9790   46.2740 C   0  0  0  0  0  0  0  0  0  0  0  0
   58.5490   34.1570   45.1410 C   0  0  0  0  0  0  0  0  0  0  0  0
   57.4310   33.4360   44.9480 C   0  0  0  0  0  0  0  0  0  0  0  0
   57.3090   31.9740   45.1330 C   0  0  0  0  0  0  0  0  0  0  0  0
   58.2050   31.2780   45.8800 N   0  0  0  0  0  0  0  0  0  0  0  0
   58.1090   29.9350   46.0370 C   0  0  0  0  0  0  0  0  0  0  0  0
   59.0320   29.2560   46.8350 C   0  0  0  0  0  0  0  0  0  0  0  0
   58.9320   27.8730   47.0020 C   0  0  0  0  0  0  0  0  0  0  0  0
   57.9120   27.1530   46.3560 C   0  0  0  0  0  0  0  0  0  0  0  0
   57.7610   25.7390   46.5390 N   0  0  0  0  0  0  0  0  0  0  0  0
   56.5620   24.9790   46.3270 C   0  0  0  0  0  0  0  0  0  0  0  0
   55.9090   24.5880   47.3330 O   0  0  0  0  0  0  0  0  0  0  0  0
   56.0480   24.6830   44.9440 C   0  0  0  0  0  0  0  0  0  0  0  0
   56.7030   23.4580   44.3820 C   0  0  0  0  0  0  0  0  0  0  0  0
   57.7560   22.7620   44.9620 C   0  0  0  0  0  0  0  0  0  0  0  0
   58.1330   21.6260   44.2370 C   0  0  0  0  0  0  0  0  0  0  0  0
   57.3760   21.4240   43.0910 C   0  0  0  0  0  0  0  0  0  0  0  0
   56.2360   22.6580   42.9840 S   0  0  0  0  0  0  0  0  0  0  0  0
   56.9730   27.8380   45.5750 C   0  0  0  0  0  0  0  0  0  0  0  0
   57.0720   29.2300   45.4030 C   0  0  0  0  0  0  0  0  0  0  0  0
   56.1660   29.9620   44.6180 C   0  0  0  0  0  0  0  0  0  0  0  0
   55.2230   29.3890   44.0150 O   0  0  0  0  0  0  0  0  0  0  0  0
   56.3080   31.3090   44.5000 N   0  0  0  0  0  0  0  0  0  0  0  0
   60.8480   33.8300   46.0310 C   0  0  0  0  0  0  0  0  0  0  0  0
   61.7340   33.6380   47.0950 C   0  0  0  0  0  0  0  0  0  0  0  0
   62.7950   34.5280   50.1390 C   0  0  0  0  0  0  0  0  0  0  0  0
   63.9120   34.1840   51.1510 C   0  0  0  0  0  0  0  0  0  0  0  0
   66.3803   32.6688   49.9859 H   0  0  0  0  0  0  0  0  0  0  0  0
   65.0041   31.9014   49.1233 H   0  0  0  0  0  0  0  0  0  0  0  0
   65.1796   33.6891   49.1233 H   0  0  0  0  0  0  0  0  0  0  0  0
   63.9345   30.8312   50.9236 H   0  0  0  0  0  0  0  0  0  0  0  0
   62.9322   31.9371   51.9669 H   0  0  0  0  0  0  0  0  0  0  0  0
   62.7775   31.4132   49.0040 H   0  0  0  0  0  0  0  0  0  0  0  0
   61.4695   31.5480   50.2692 H   0  0  0  0  0  0  0  0  0  0  0  0
   59.5032   33.7488   49.6906 H   0  0  0  0  0  0  0  0  0  0  0  0
   57.9223   34.0794   47.7931 H   0  0  0  0  0  0  0  0  0  0  0  0
   58.7894   34.9349   44.4014 H   0  0  0  0  0  0  0  0  0  0  0  0
   56.5308   33.9795   44.6252 H   0  0  0  0  0  0  0  0  0  0  0  0
   59.8399   29.8118   47.3334 H   0  0  0  0  0  0  0  0  0  0  0  0
   59.6544   27.3449   47.6417 H   0  0  0  0  0  0  0  0  0  0  0  0
   54.9610   24.5212   44.9906 H   0  0  0  0  0  0  0  0  0  0  0  0
   56.2812   25.5374   44.2916 H   0  0  0  0  0  0  0  0  0  0  0  0
   58.2445   23.0727   45.8973 H   0  0  0  0  0  0  0  0  0  0  0  0
   58.9503   20.9576   44.5454 H   0  0  0  0  0  0  0  0  0  0  0  0
   57.5000   20.5983   42.3749 H   0  0  0  0  0  0  0  0  0  0  0  0
   56.1536   27.2842   45.0935 H   0  0  0  0  0  0  0  0  0  0  0  0
   61.2290   33.8642   44.9997 H   0  0  0  0  0  0  0  0  0  0  0  0
   62.8099   33.5210   46.8982 H   0  0  0  0  0  0  0  0  0  0  0  0
   63.2304   35.1552   49.3472 H   0  0  0  0  0  0  0  0  0  0  0  0
   62.0047   35.0394   50.7081 H   0  0  0  0  0  0  0  0  0  0  0  0
   64.7086   34.9369   51.0589 H   0  0  0  0  0  0  0  0  0  0  0  0
   63.4523   34.1814   52.1503 H   0  0  0  0  0  0  0  0  0  0  0  0
  1  2  1  0
  2  3  1  0
  3  4  1  0
  4  5  1  0
  5  6  1  0
  6  7  2  0
  7  8  1  0
  8  9  2  0
  9 10  1  0
 10 11  2  3
 11 12  1  0
 12 13  2  0
 13 14  1  0
 14 15  2  0
 15 16  1  0
 16 17  2  0
 17 18  1  0
 18 19  1  0
 19 20  2  0
 19 21  1  0
 21 22  1  0
 22 23  2  0
 23 24  1  0
 24 25  2  0
 25 26  1  0
 17 27  1  0
 27 28  2  0
 28 29  1  0
 29 30  2  0
 29 31  1  0
  9 32  1  0
 32 33  2  0
  5 34  1  0
 34 35  1  0
 35  2  1  0
 33  6  1  0
 31 12  1  0
 28 14  1  0
 26 22  1  0
  1 36  1  0
  1 37  1  0
  1 38  1  0
  3 39  1  0
  3 40  1  0
  4 41  1  0
  4 42  1  0
  7 43  1  0
  8 44  1  0
 10 45  1  0
 11 46  1  0
 15 47  1  0
 16 48  1  0
 21 49  1  0
 21 50  1  0
 23 51  1  0
 24 52  1  0
 25 53  1  0
 27 54  1  0
 32 55  1  0
 33 56  1  0
 34 57  1  0
 34 58  1  0
 35 59  1  0
 35 60  1  0
M  CHG  2  18  -1  31  -1
M  END
>  <UniqueID>  (32) 
29

>  <SMILES>  (32) 
CN1CCN(c2ccc(C=Cc3nc4ccc([N-]C(=O)Cc5cccs5)cc4c(=O)[n-]3)cc2)CC1

>  <Energy>  (32) 
117.58870009455406

>  <Genealogy>  (32) 
CN1CCN(c2ccc(C=Cc3nc4ccc([N-]C(=O)Cc5cccs5)cc4c(=O)[n-]3)cc2)CC1 (protonated)
CN1CCN(c2ccc(C=Cc3nc4ccc([N-]C(=O)Cc5cccs5)cc4c(=O)[n-]3)cc2)CC1 (3D coordinates assigned)
CN1CCN(c2ccc(C=Cc3nc4ccc([N-]C(=O)Cc5cccs5)cc4c(=O)[n-]3)cc2)CC1 (nonaromatic ring conformer: 117.58870009455406 kcal/mol)

>  <smiles>  (32) 
CN1CCN(c2ccc(C=Cc3nc4ccc(NC(=O)Cc5cccs5)cc4c(=O)[nH]3)cc2)CC1

>  <score_type>  (32) 
oracle

>  <origin>  (32) 
adg

>  <m_score__min__energy>  (32) 
-14.050000000000001

>  <m_primary>  (32) 
energy

$$$$
32:0
     RDKit          3D

 37 38  0  0  0  0  0  0  0  0999 V2000
   58.1350   29.7140   47.2030 N   0  0  0  0  0  0  0  0  0  0  0  0
   59.1420   28.8730   47.7650 C   0  0  0  0  0  0  0  0  0  0  0  0
   58.8980   27.4630   47.8650 N   0  0  0  0  0  0  0  0  0  0  0  0
   60.2340   29.4150   48.2220 N   0  0  0  0  0  0  0  0  0  0  0  0
   60.8870   30.5870   47.7110 C   0  0  0  0  0  0  0  0  0  0  0  0
   61.8950   30.4370   46.9710 O   0  0  0  0  0  0  0  0  0  0  0  0
   60.4730   31.9560   48.1220 C   0  0  0  0  0  0  0  0  0  0  0  0
   60.9680   32.4930   49.3250 C   0  0  0  0  0  0  0  0  0  0  0  0
   60.6100   33.7790   49.7290 C   0  0  0  0  0  0  0  0  0  0  0  0
   59.7630   34.5510   48.9340 C   0  0  0  0  0  0  0  0  0  0  0  0
   59.2630   34.0350   47.7380 C   0  0  0  0  0  0  0  0  0  0  0  0
   59.5930   32.7290   47.3290 C   0  0  0  0  0  0  0  0  0  0  0  0
   59.0740   32.1850   46.1040 N   0  0  0  0  0  0  0  0  0  0  0  0
   57.9680   32.6870   45.3400 C   0  0  0  0  0  0  0  0  0  0  0  0
   57.1180   33.4500   45.8710 O   0  0  0  0  0  0  0  0  0  0  0  0
   57.7780   32.2750   43.9390 C   0  0  0  0  0  0  0  0  0  0  0  0
   58.0440   31.0340   43.5140 C   0  0  0  0  0  0  0  0  0  0  0  0
   57.5790   29.8350   44.2480 C   0  0  0  0  0  0  0  0  0  0  0  0
   58.4570   28.8250   44.6990 C   0  0  0  0  0  0  0  0  0  0  0  0
   60.2370   28.9400   44.4980 S   0  0  0  0  0  0  0  0  0  0  0  0
   57.9600   27.7530   45.3690 N   0  0  0  0  0  0  0  0  0  0  0  0
   56.6340   27.6300   45.6250 C   0  0  0  0  0  0  0  0  0  0  0  0
   56.2040   26.6220   46.2410 O   0  0  0  0  0  0  0  0  0  0  0  0
   55.7740   28.5990   45.2240 N   0  0  0  0  0  0  0  0  0  0  0  0
   56.2120   29.6940   44.5520 C   0  0  0  0  0  0  0  0  0  0  0  0
   55.3810   30.5730   44.1980 O   0  0  0  0  0  0  0  0  0  0  0  0
   57.2410   29.3080   46.8490 H   0  0  0  0  0  0  0  0  0  0  0  0
   58.2820   30.7460   47.1360 H   0  0  0  0  0  0  0  0  0  0  0  0
   59.4850   26.8390   48.4590 H   0  0  0  0  0  0  0  0  0  0  0  0
   58.0490   27.0500   47.4200 H   0  0  0  0  0  0  0  0  0  0  0  0
   61.6435   31.8929   49.9524 H   0  0  0  0  0  0  0  0  0  0  0  0
   60.9961   34.1849   50.6757 H   0  0  0  0  0  0  0  0  0  0  0  0
   59.4888   35.5682   49.2504 H   0  0  0  0  0  0  0  0  0  0  0  0
   58.6056   34.6537   47.1095 H   0  0  0  0  0  0  0  0  0  0  0  0
   57.4038   33.0141   43.2154 H   0  0  0  0  0  0  0  0  0  0  0  0
   58.6264   30.9006   42.5904 H   0  0  0  0  0  0  0  0  0  0  0  0
   60.4170   29.3260   45.8380 H   0  0  0  0  0  0  0  0  0  0  0  0
  1  2  1  0
  2  3  1  0
  2  4  2  3
  4  5  1  0
  5  6  2  0
  5  7  1  0
  7  8  2  0
  8  9  1  0
  9 10  2  0
 10 11  1  0
 11 12  2  0
 12 13  1  0
 13 14  1  0
 14 15  2  0
 14 16  1  0
 16 17  2  3
 17 18  1  0
 18 19  2  0
 19 20  1  0
 19 21  1  0
 21 22  1  0
 22 23  2  0
 22 24  1  0
 24 25  1  0
 25 26  2  0
 12  7  1  0
 25 18  1  0
  1 27  1  0
  1 28  1  0
  3 29  1  0
  3 30  1  0
  8 31  1  0
  9 32  1  0
 10 33  1  0
 11 34  1  0
 16 35  1  0
 17 36  1  0
 20 37  1  0
M  CHG  3  13  -1  21  -1  24  -1
M  END
>  <UniqueID>  (33) 
30

>  <SMILES>  (33) 
NC(N)=NC(=O)c1ccccc1[N-]C(=O)C=Cc1c(S)[n-]c(=O)[n-]c1=O

>  <Energy>  (33) 
55.041697048564565

>  <Genealogy>  (33) 
NC(N)=NC(=O)c1ccccc1[N-]C(=O)C=Cc1c(S)[n-]c(=O)[n-]c1=O (protonated)
NC(N)=NC(=O)c1ccccc1[N-]C(=O)C=Cc1c(S)[n-]c(=O)[n-]c1=O (3D coordinates assigned)
NC(N)=NC(=O)c1ccccc1[N-]C(=O)C=Cc1c(S)[n-]c(=O)[n-]c1=O (optimized conformer: 55.041697048564565 kcal/mol)

>  <smiles>  (33) 
NC(N)=NC(=O)c1ccccc1NC(=O)C=Cc1c(S)[nH]c(=O)[nH]c1=O

>  <score_type>  (33) 
oracle

>  <origin>  (33) 
adg

>  <m_score__min__energy>  (33) 
-13.789999999999999

>  <m_primary>  (33) 
energy

$$$$
33:0
     RDKit          3D

 51 53  0  0  0  0  0  0  0  0999 V2000
   58.4030   32.9330   45.2960 C   0  0  0  0  0  0  0  0  0  0  0  0
   57.8390   31.7550   44.5560 C   0  0  0  0  0  0  0  0  0  0  0  0
   57.4230   31.8940   43.2230 C   0  0  0  0  0  0  0  0  0  0  0  0
   56.8770   30.8030   42.5400 C   0  0  0  0  0  0  0  0  0  0  0  0
   56.7220   29.5750   43.1880 C   0  0  0  0  0  0  0  0  0  0  0  0
   57.0920   29.4330   44.5380 C   0  0  0  0  0  0  0  0  0  0  0  0
   56.9500   28.1800   45.2300 N   0  0  0  0  0  0  0  0  0  0  0  0
   57.8570   27.7080   46.2420 C   0  0  0  0  0  0  0  0  0  0  0  0
   58.9220   28.3330   46.4920 O   0  0  0  0  0  0  0  0  0  0  0  0
   57.5810   26.4170   46.9520 C   0  0  0  0  0  0  0  0  0  0  0  0
   56.8410   25.4690   46.0360 C   0  0  0  0  0  0  0  0  0  0  0  0
   55.4860   25.6640   45.7400 C   0  0  0  0  0  0  0  0  0  0  0  0
   54.7730   26.7120   46.3110 O   0  0  0  0  0  0  0  0  0  0  0  0
   54.8530   24.8210   44.8920 N   0  0  0  0  0  0  0  0  0  0  0  0
   55.5010   23.7910   44.2930 C   0  0  0  0  0  0  0  0  0  0  0  0
   54.8500   23.0370   43.5190 O   0  0  0  0  0  0  0  0  0  0  0  0
   56.8400   23.5850   44.5230 N   0  0  0  0  0  0  0  0  0  0  0  0
   57.5570   22.4720   43.8620 C   0  0  0  0  0  0  0  0  0  0  0  0
   56.8750   21.1470   44.1020 C   0  0  0  0  0  0  0  0  0  0  0  0
   55.9730   20.7720   43.3070 O   0  0  0  0  0  0  0  0  0  0  0  0
   57.2280   20.2910   45.1940 N   0  0  0  0  0  0  0  0  0  0  0  0
   57.5420   20.7410   46.5450 C   0  0  0  0  0  0  0  0  0  0  0  0
   56.6100   21.8850   46.9610 C   0  0  1  0  0  0  0  0  0  0  0  0
   55.1500   21.4540   47.0360 C   0  0  0  0  0  0  0  0  0  0  0  0
   54.6180   22.2950   48.1530 C   0  0  0  0  0  0  0  0  0  0  0  0
   55.8470   22.5540   49.0010 C   0  0  0  0  0  0  0  0  0  0  0  0
   57.0050   22.4090   48.2100 O   0  0  0  0  0  0  0  0  0  0  0  0
   57.5050   24.3990   45.4080 C   0  0  0  0  0  0  0  0  0  0  0  0
   58.7240   24.1910   45.6680 O   0  0  0  0  0  0  0  0  0  0  0  0
   57.6630   30.5260   45.2100 C   0  0  0  0  0  0  0  0  0  0  0  0
   58.3200   32.7596   46.3791 H   0  0  0  0  0  0  0  0  0  0  0  0
   59.4612   33.0635   45.0256 H   0  0  0  0  0  0  0  0  0  0  0  0
   57.8411   33.8392   45.0256 H   0  0  0  0  0  0  0  0  0  0  0  0
   57.5267   32.8637   42.7142 H   0  0  0  0  0  0  0  0  0  0  0  0
   56.5687   30.9118   41.4897 H   0  0  0  0  0  0  0  0  0  0  0  0
   56.3088   28.7152   42.6402 H   0  0  0  0  0  0  0  0  0  0  0  0
   56.2130   27.5190   44.8930 H   0  0  0  0  0  0  0  0  0  0  0  0
   58.5333   25.9589   47.2575 H   0  0  0  0  0  0  0  0  0  0  0  0
   56.9616   26.6186   47.8384 H   0  0  0  0  0  0  0  0  0  0  0  0
   57.5921   22.6638   42.7794 H   0  0  0  0  0  0  0  0  0  0  0  0
   58.5705   22.4175   44.2861 H   0  0  0  0  0  0  0  0  0  0  0  0
   57.4181   19.9009   47.2442 H   0  0  0  0  0  0  0  0  0  0  0  0
   58.5805   21.1029   46.5667 H   0  0  0  0  0  0  0  0  0  0  0  0
   56.6923   22.6574   46.1821 H   0  0  0  0  0  0  0  0  0  0  0  0
   54.6243   21.6670   46.0935 H   0  0  0  0  0  0  0  0  0  0  0  0
   55.0207   20.3743   47.2017 H   0  0  0  0  0  0  0  0  0  0  0  0
   54.1951   23.2363   47.7721 H   0  0  0  0  0  0  0  0  0  0  0  0
   53.8021   21.8105   48.7094 H   0  0  0  0  0  0  0  0  0  0  0  0
   55.8047   23.5764   49.4046 H   0  0  0  0  0  0  0  0  0  0  0  0
   55.8778   21.8323   49.8306 H   0  0  0  0  0  0  0  0  0  0  0  0
   57.9753   30.4177   46.2592 H   0  0  0  0  0  0  0  0  0  0  0  0
  1  2  1  0
  2  3  2  0
  3  4  1  0
  4  5  2  0
  5  6  1  0
  6  7  1  0
  7  8  1  0
  8  9  2  0
  8 10  1  0
 10 11  1  0
 11 12  2  0
 12 13  1  0
 12 14  1  0
 14 15  1  0
 15 16  2  0
 15 17  1  0
 17 18  1  0
 18 19  1  0
 19 20  2  0
 19 21  1  0
 21 22  1  0
 22 23  1  0
 23 24  1  0
 24 25  1  0
 25 26  1  0
 26 27  1  0
 17 28  1  0
 28 29  2  0
  6 30  2  0
 30  2  1  0
 28 11  1  0
 27 23  1  0
  1 31  1  0
  1 32  1  0
  1 33  1  0
  3 34  1  0
  4 35  1  0
  5 36  1  0
  7 37  1  0
 10 38  1  0
 10 39  1  0
 18 40  1  0
 18 41  1  0
 22 42  1  0
 22 43  1  0
 23 44  1  6
 24 45  1  0
 24 46  1  0
 25 47  1  0
 25 48  1  0
 26 49  1  0
 26 50  1  0
 30 51  1  0
M  CHG  3  13  -1  14  -1  21  -1
M  END
>  <UniqueID>  (34) 
31

>  <SMILES>  (34) 
Cc1cccc(NC(=O)Cc2c([O-])[n-]c(=O)n(CC(=O)[N-]C[C@H]3CCCO3)c2=O)c1

>  <Energy>  (34) 
54.827572008856734

>  <Genealogy>  (34) 
Cc1cccc(NC(=O)Cc2c([O-])[n-]c(=O)n(CC(=O)[N-]CC3CCCO3)c2=O)c1 (protonated)
Cc1cccc(NC(=O)Cc2c([O-])[n-]c(=O)n(CC(=O)[N-]C[C@H]3CCCO3)c2=O)c1 (chirality)
Cc1cccc(NC(=O)Cc2c([O-])[n-]c(=O)n(CC(=O)[N-]C[C@H]3CCCO3)c2=O)c1 (3D coordinates assigned)
Cc1cccc(NC(=O)Cc2c([O-])[n-]c(=O)n(CC(=O)[N-]C[C@H]3CCCO3)c2=O)c1 (nonaromatic ring conformer: 54.827572008856734 kcal/mol)

>  <smiles>  (34) 
Cc1cccc(NC(=O)Cc2c(O)[nH]c(=O)n(CC(=O)NCC3CCCO3)c2=O)c1

>  <score_type>  (34) 
oracle

>  <origin>  (34) 
adg

>  <m_score__min__energy>  (34) 
-14.449999999999999

>  <m_primary>  (34) 
energy

$$$$
34:0
     RDKit          3D

 50 52  0  0  0  0  0  0  0  0999 V2000
   59.2410   34.8420   45.2200 C   0  0  0  0  0  0  0  0  0  0  0  0
   58.6350   33.4930   44.9660 C   0  0  0  0  0  0  0  0  0  0  0  0
   58.3710   32.6240   46.0360 C   0  0  0  0  0  0  0  0  0  0  0  0
   57.7720   31.3820   45.8030 C   0  0  0  0  0  0  0  0  0  0  0  0
   57.4160   31.0040   44.5010 C   0  0  0  0  0  0  0  0  0  0  0  0
   56.6790   29.4330   44.1930 S   0  0  0  0  0  0  0  0  0  0  0  0
   55.3330   29.3510   44.8590 O   0  0  0  0  0  0  0  0  0  0  0  0
   56.4840   29.2710   42.7110 O   0  0  0  0  0  0  0  0  0  0  0  0
   57.7090   28.1560   44.7720 N   0  0  0  0  0  0  0  0  0  0  0  0
   57.4400   27.8530   46.1790 C   0  0  0  0  0  0  0  0  0  0  0  0
   58.6130   27.1720   46.8330 C   0  0  0  0  0  0  0  0  0  0  0  0
   59.0440   26.0980   46.3370 O   0  0  0  0  0  0  0  0  0  0  0  0
   59.2880   27.7250   47.9730 N   0  0  0  0  0  0  0  0  0  0  0  0
   59.5650   29.1100   48.2080 C   0  0  0  0  0  0  0  0  0  0  0  0
   60.5130   29.8090   47.4430 C   0  0  0  0  0  0  0  0  0  0  0  0
   60.7500   31.1660   47.6850 C   0  0  0  0  0  0  0  0  0  0  0  0
   60.0340   31.8400   48.6820 C   0  0  0  0  0  0  0  0  0  0  0  0
   60.3120   33.5540   48.9730 S   0  0  0  0  0  0  0  0  0  0  0  0
   60.2040   33.8430   50.4460 O   0  0  0  0  0  0  0  0  0  0  0  0
   59.2630   34.3530   48.2520 O   0  0  0  0  0  0  0  0  0  0  0  0
   61.8920   33.9920   48.3760 N   0  0  0  0  0  0  0  0  0  0  0  0
   61.9680   33.8530   46.9220 C   0  0  0  0  0  0  0  0  0  0  0  0
   63.4270   33.5860   46.5890 C   0  0  0  0  0  0  0  0  0  0  0  0
   64.0520   33.0910   47.8840 C   0  0  0  0  0  0  0  0  0  0  0  0
   62.9260   33.1070   48.9080 C   0  0  0  0  0  0  0  0  0  0  0  0
   59.0610   31.1530   49.4190 C   0  0  0  0  0  0  0  0  0  0  0  0
   58.8230   29.7970   49.1770 C   0  0  0  0  0  0  0  0  0  0  0  0
   57.6670   31.8760   43.4340 C   0  0  0  0  0  0  0  0  0  0  0  0
   58.2660   33.1180   43.6650 C   0  0  0  0  0  0  0  0  0  0  0  0
   59.3171   35.0115   46.3042 H   0  0  0  0  0  0  0  0  0  0  0  0
   60.2443   34.8837   44.7710 H   0  0  0  0  0  0  0  0  0  0  0  0
   58.6058   35.6197   44.7710 H   0  0  0  0  0  0  0  0  0  0  0  0
   58.6362   32.9209   47.0615 H   0  0  0  0  0  0  0  0  0  0  0  0
   57.5796   30.6996   46.6440 H   0  0  0  0  0  0  0  0  0  0  0  0
   57.2292   28.7916   46.7124 H   0  0  0  0  0  0  0  0  0  0  0  0
   56.5770   27.1725   46.2257 H   0  0  0  0  0  0  0  0  0  0  0  0
   61.0708   29.2876   46.6511 H   0  0  0  0  0  0  0  0  0  0  0  0
   61.5015   31.7057   47.0901 H   0  0  0  0  0  0  0  0  0  0  0  0
   61.3420   33.0126   46.5875 H   0  0  0  0  0  0  0  0  0  0  0  0
   61.6043   34.7597   46.4164 H   0  0  0  0  0  0  0  0  0  0  0  0
   63.5087   32.8194   45.8044 H   0  0  0  0  0  0  0  0  0  0  0  0
   63.9316   34.4865   46.2090 H   0  0  0  0  0  0  0  0  0  0  0  0
   64.4426   32.0705   47.7574 H   0  0  0  0  0  0  0  0  0  0  0  0
   64.8983   33.7204   48.1966 H   0  0  0  0  0  0  0  0  0  0  0  0
   62.5236   32.0926   49.0458 H   0  0  0  0  0  0  0  0  0  0  0  0
   63.2843   33.4582   49.8869 H   0  0  0  0  0  0  0  0  0  0  0  0
   58.4824   31.6821   50.1905 H   0  0  0  0  0  0  0  0  0  0  0  0
   58.0487   29.2666   49.7507 H   0  0  0  0  0  0  0  0  0  0  0  0
   57.3918   31.5825   42.4102 H   0  0  0  0  0  0  0  0  0  0  0  0
   58.4486   33.8034   42.8243 H   0  0  0  0  0  0  0  0  0  0  0  0
  1  2  1  0
  2  3  2  0
  3  4  1  0
  4  5  2  0
  5  6  1  0
  6  7  2  0
  6  8  2  0
  6  9  1  0
  9 10  1  0
 10 11  1  0
 11 12  2  0
 11 13  1  0
 13 14  1  0
 14 15  2  0
 15 16  1  0
 16 17  2  0
 17 18  1  0
 18 19  2  0
 18 20  2  0
 18 21  1  0
 21 22  1  0
 22 23  1  0
 23 24  1  0
 24 25  1  0
 17 26  1  0
 26 27  2  0
  5 28  1  0
 28 29  2  0
 29  2  1  0
 27 14  1  0
 25 21  1  0
  1 30  1  0
  1 31  1  0
  1 32  1  0
  3 33  1  0
  4 34  1  0
 10 35  1  0
 10 36  1  0
 15 37  1  0
 16 38  1  0
 22 39  1  0
 22 40  1  0
 23 41  1  0
 23 42  1  0
 24 43  1  0
 24 44  1  0
 25 45  1  0
 25 46  1  0
 26 47  1  0
 27 48  1  0
 28 49  1  0
 29 50  1  0
M  CHG  2   9  -1  13  -1
M  END
>  <UniqueID>  (35) 
32

>  <SMILES>  (35) 
Cc1ccc(S(=O)(=O)[N-]CC(=O)[N-]c2ccc(S(=O)(=O)N3CCCC3)cc2)cc1

>  <Energy>  (35) 
54.3950252583354

>  <Genealogy>  (35) 
Cc1ccc(S(=O)(=O)[N-]CC(=O)[N-]c2ccc(S(=O)(=O)N3CCCC3)cc2)cc1 (protonated)
Cc1ccc(S(=O)(=O)[N-]CC(=O)[N-]c2ccc(S(=O)(=O)N3CCCC3)cc2)cc1 (3D coordinates assigned)
Cc1ccc(S(=O)(=O)[N-]CC(=O)[N-]c2ccc(S(=O)(=O)N3CCCC3)cc2)cc1 (nonaromatic ring conformer: 54.3950252583354 kcal/mol)

>  <smiles>  (35) 
Cc1ccc(S(=O)(=O)NCC(=O)Nc2ccc(S(=O)(=O)N3CCCC3)cc2)cc1

>  <score_type>  (35) 
oracle

>  <origin>  (35) 
adg

>  <m_score__min__energy>  (35) 
-12.51

>  <m_primary>  (35) 
energy

$$$$
35:0
     RDKit          3D

 48 50  0  0  0  0  0  0  0  0999 V2000
   55.1420   22.3470   42.7700 H   0  0  0  0  0  0  0  0  0  0  0  0
   55.5210   22.2030   43.6990 O   0  0  0  0  0  0  0  0  0  0  0  0
   55.9280   23.2700   44.4970 C   0  0  0  0  0  0  0  0  0  0  0  0
   54.9990   24.2280   44.8860 C   0  0  0  0  0  0  0  0  0  0  0  0
   53.9451   24.1155   44.5918 H   0  0  0  0  0  0  0  0  0  0  0  0
   55.3900   25.3310   45.6460 C   0  0  0  0  0  0  0  0  0  0  0  0
   54.4190   26.2740   45.9720 O   0  0  0  0  0  0  0  0  0  0  0  0
   56.7470   25.5050   46.0310 C   0  0  0  0  0  0  0  0  0  0  0  0
   57.0930   26.6860   46.6130 C   0  0  0  0  0  0  0  0  0  0  0  0
   57.4099   26.6544   47.6659 H   0  0  0  0  0  0  0  0  0  0  0  0
   57.0790   28.0060   45.9510 C   0  0  0  0  0  0  0  0  0  0  0  0
   58.0440   28.9940   46.0900 C   0  0  0  0  0  0  0  0  0  0  0  0
   59.3730   28.8620   46.7740 C   0  0  0  0  0  0  0  0  0  0  0  0
   59.2273   28.8765   47.8642 H   0  0  0  0  0  0  0  0  0  0  0  0
   59.8442   27.9126   46.4796 H   0  0  0  0  0  0  0  0  0  0  0  0
   60.0217   29.7001   46.4796 H   0  0  0  0  0  0  0  0  0  0  0  0
   57.6250   30.0560   45.3020 C   0  0  0  0  0  0  0  0  0  0  0  0
   58.3540   31.3160   45.0660 C   0  0  0  0  0  0  0  0  0  0  0  0
   58.4820   31.7360   43.8840 O   0  0  0  0  0  0  0  0  0  0  0  0
   58.8990   32.0730   46.1620 N   0  0  0  0  0  0  0  0  0  0  0  0
   60.1250   32.8610   45.9840 C   0  0  0  0  0  0  0  0  0  0  0  0
   60.9190   32.4445   46.6213 H   0  0  0  0  0  0  0  0  0  0  0  0
   60.4260   32.8175   44.9269 H   0  0  0  0  0  0  0  0  0  0  0  0
   59.8820   34.3270   46.3720 C   0  0  0  0  0  0  0  0  0  0  0  0
   60.8566   34.8096   46.5374 H   0  0  0  0  0  0  0  0  0  0  0  0
   59.3212   34.7914   45.5474 H   0  0  0  0  0  0  0  0  0  0  0  0
   59.0300   34.4930   47.6520 C   0  0  0  0  0  0  0  0  0  0  0  0
   59.5537   35.1793   48.3337 H   0  0  0  0  0  0  0  0  0  0  0  0
   58.0497   34.8846   47.3428 H   0  0  0  0  0  0  0  0  0  0  0  0
   58.7800   33.1710   48.3890 C   0  0  0  0  0  0  0  0  0  0  0  0
   59.7346   32.7867   48.7775 H   0  0  0  0  0  0  0  0  0  0  0  0
   58.0795   33.3518   49.2176 H   0  0  0  0  0  0  0  0  0  0  0  0
   58.1680   32.1350   47.4380 C   0  0  0  0  0  0  0  0  0  0  0  0
   58.2025   31.1457   47.9177 H   0  0  0  0  0  0  0  0  0  0  0  0
   57.1304   32.4327   47.2262 H   0  0  0  0  0  0  0  0  0  0  0  0
   56.3930   29.6940   44.7760 C   0  0  0  0  0  0  0  0  0  0  0  0
   55.5150   30.5250   43.8920 C   0  0  0  0  0  0  0  0  0  0  0  0
   54.8554   31.1492   44.5127 H   0  0  0  0  0  0  0  0  0  0  0  0
   56.1397   31.1704   43.2570 H   0  0  0  0  0  0  0  0  0  0  0  0
   54.9050   29.8658   43.2570 H   0  0  0  0  0  0  0  0  0  0  0  0
   56.0700   28.4500   45.1740 N   0  0  0  0  0  0  0  0  0  0  0  0
   55.1940   27.9320   44.9340 H   0  0  0  0  0  0  0  0  0  0  0  0
   57.6670   24.4360   45.7540 C   0  0  0  0  0  0  0  0  0  0  0  0
   58.8720   24.3190   46.3420 C   0  0  0  0  0  0  0  0  0  0  0  0
   59.2440   25.1198   46.9980 H   0  0  0  0  0  0  0  0  0  0  0  0
   59.4849   23.4226   46.1666 H   0  0  0  0  0  0  0  0  0  0  0  0
   57.2520   23.3730   44.9260 C   0  0  0  0  0  0  0  0  0  0  0  0
   57.9832   22.6130   44.6133 H   0  0  0  0  0  0  0  0  0  0  0  0
  1  2  1  0
  2  3  1  0
  3  4  1  0
  4  5  1  0
  4  6  2  0
  6  7  1  0
  6  8  1  0
  8  9  2  0
  9 10  1  0
  9 11  1  0
 11 12  2  0
 12 13  1  0
 13 14  1  0
 13 15  1  0
 13 16  1  0
 12 17  1  0
 17 18  1  0
 18 19  2  0
 18 20  1  0
 20 21  1  0
 21 22  1  0
 21 23  1  0
 21 24  1  0
 24 25  1  0
 24 26  1  0
 24 27  1  0
 27 28  1  0
 27 29  1  0
 27 30  1  0
 30 31  1  0
 30 32  1  0
 30 33  1  0
 33 34  1  0
 33 35  1  0
 17 36  2  0
 36 37  1  0
 37 38  1  0
 37 39  1  0
 37 40  1  0
 36 41  1  0
 41 42  1  0
  8 43  1  0
 43 44  2  0
 44 45  1  0
 44 46  1  0
 43 47  1  0
 47 48  1  0
 47  3  2  0
 41 11  1  0
 33 20  1  0
M  CHG  1   7  -1
M  END
>  <UniqueID>  (36) 
33

>  <SMILES>  (36) 
C=c1cc(O)cc([O-])/c1=C/c1[nH]c(C)c(C(=O)N2CCCCC2)c1C

>  <Energy>  (36) 
101.46483769854518

>  <Genealogy>  (36) 
C=c1cc(O)cc([O-])c1=Cc1[nH]c(C)c(C(=O)N2CCCCC2)c1C (protonated)
C=c1cc(O)cc([O-])/c1=C/c1[nH]c(C)c(C(=O)N2CCCCC2)c1C (cis-trans isomerization)
C=c1cc(O)cc([O-])/c1=C/c1[nH]c(C)c(C(=O)N2CCCCC2)c1C (3D coordinates assigned)
C=c1cc(O)cc([O-])/c1=C/c1[nH]c(C)c(C(=O)N2CCCCC2)c1C (nonaromatic ring conformer: 101.46483769854518 kcal/mol)

>  <smiles>  (36) 
C=c1cc(O)cc(O)c1=Cc1[nH]c(C)c(C(=O)N2CCCCC2)c1C

>  <score_type>  (36) 
oracle

>  <origin>  (36) 
adg

>  <m_score__min__energy>  (36) 
-12.630000000000001

>  <m_primary>  (36) 
energy

$$$$
36:0
     RDKit          3D

 40 43  0  0  0  0  0  0  0  0999 V2000
   58.1450   31.0160   47.8090 O   0  0  0  0  0  0  0  0  0  0  0  0
   58.2290   31.6170   46.7050 C   0  0  0  0  0  0  0  0  0  0  0  0
   58.8240   32.9330   46.5310 C   0  0  0  0  0  0  0  0  0  0  0  0
   59.5140   33.7510   47.4250 C   0  0  0  0  0  0  0  0  0  0  0  0
   59.9760   34.9950   46.9580 C   0  0  0  0  0  0  0  0  0  0  0  0
   59.7360   35.3900   45.6230 C   0  0  0  0  0  0  0  0  0  0  0  0
   59.0310   34.5440   44.7470 C   0  0  0  0  0  0  0  0  0  0  0  0
   58.5860   33.3180   45.2420 C   0  0  0  0  0  0  0  0  0  0  0  0
   57.8500   32.2390   44.5990 C   0  0  0  0  0  0  0  0  0  0  0  0
   57.4210   32.2780   43.4140 O   0  0  0  0  0  0  0  0  0  0  0  0
   57.6480   31.1140   45.4840 N   0  0  0  0  0  0  0  0  0  0  0  0
   58.3170   29.8800   45.0110 C   0  0  0  0  0  0  0  0  0  0  0  0
   57.6980   28.6020   45.5390 C   0  0  0  0  0  0  0  0  0  0  0  0
   56.4130   28.2690   45.3140 N   0  0  0  0  0  0  0  0  0  0  0  0
   56.2790   27.0790   45.9330 C   0  0  0  0  0  0  0  0  0  0  0  0
   55.1940   26.4440   45.9570 O   0  0  0  0  0  0  0  0  0  0  0  0
   57.3960   26.6330   46.5380 N   0  0  0  0  0  0  0  0  0  0  0  0
   58.3010   27.5970   46.2810 C   0  0  0  0  0  0  0  0  0  0  0  0
   59.7060   27.5470   46.7970 C   0  0  0  0  0  0  0  0  0  0  0  0
   59.7170   27.9720   48.5700 S   0  0  0  0  0  0  0  0  0  0  0  0
   60.6730   29.4700   48.3370 C   0  0  0  0  0  0  0  0  0  0  0  0
   60.9610   29.9210   47.0430 C   0  0  0  0  0  0  0  0  0  0  0  0
   61.7180   31.0830   46.8570 C   0  0  0  0  0  0  0  0  0  0  0  0
   62.1830   31.8020   47.9650 C   0  0  0  0  0  0  0  0  0  0  0  0
   63.2140   33.3870   47.7120 Br  0  0  0  0  0  0  0  0  0  0  0  0
   61.8990   31.3490   49.2600 C   0  0  0  0  0  0  0  0  0  0  0  0
   61.1500   30.1820   49.4460 C   0  0  0  0  0  0  0  0  0  0  0  0
   59.6915   33.4334   48.4631 H   0  0  0  0  0  0  0  0  0  0  0  0
   60.5270   35.6636   47.6358 H   0  0  0  0  0  0  0  0  0  0  0  0
   60.1022   36.3640   45.2664 H   0  0  0  0  0  0  0  0  0  0  0  0
   58.8370   34.8399   43.7054 H   0  0  0  0  0  0  0  0  0  0  0  0
   56.6230   30.9520   45.6250 H   0  0  0  0  0  0  0  0  0  0  0  0
   58.2683   29.8596   43.9123 H   0  0  0  0  0  0  0  0  0  0  0  0
   59.3495   29.9131   45.3889 H   0  0  0  0  0  0  0  0  0  0  0  0
   60.1111   26.5335   46.6603 H   0  0  0  0  0  0  0  0  0  0  0  0
   60.3261   28.2672   46.2432 H   0  0  0  0  0  0  0  0  0  0  0  0
   60.5915   29.3609   46.1713 H   0  0  0  0  0  0  0  0  0  0  0  0
   61.9480   31.4320   45.8395 H   0  0  0  0  0  0  0  0  0  0  0  0
   62.2653   31.9115   50.1315 H   0  0  0  0  0  0  0  0  0  0  0  0
   60.9353   29.8230   50.4634 H   0  0  0  0  0  0  0  0  0  0  0  0
  1  2  2  0
  2  3  1  0
  3  4  2  0
  4  5  1  0
  5  6  2  0
  6  7  1  0
  7  8  2  0
  8  9  1  0
  9 10  2  0
  9 11  1  0
 11 12  1  0
 12 13  1  0
 13 14  1  0
 14 15  1  0
 15 16  2  0
 15 17  1  0
 17 18  1  0
 18 19  1  0
 19 20  1  0
 20 21  1  0
 21 22  2  0
 22 23  1  0
 23 24  2  0
 24 25  1  0
 24 26  1  0
 26 27  2  0
 11  2  1  0
 18 13  2  0
 27 21  1  0
  8  3  1  0
  4 28  1  0
  5 29  1  0
  6 30  1  0
  7 31  1  0
 11 32  1  0
 12 33  1  0
 12 34  1  0
 19 35  1  0
 19 36  1  0
 22 37  1  0
 23 38  1  0
 26 39  1  0
 27 40  1  0
M  CHG  3  11   1  14  -1  17  -1
M  END
>  <UniqueID>  (37) 
34

>  <SMILES>  (37) 
O=C1c2ccccc2C(=O)[NH+]1Cc1[n-]c(=O)[n-]c1CSc1ccc(Br)cc1

>  <Energy>  (37) 
93.308095718026

>  <Genealogy>  (37) 
O=C1c2ccccc2C(=O)[NH+]1Cc1[n-]c(=O)[n-]c1CSc1ccc(Br)cc1 (protonated)
O=C1c2ccccc2C(=O)[NH+]1Cc1[n-]c(=O)[n-]c1CSc1ccc(Br)cc1 (3D coordinates assigned)
O=C1c2ccccc2C(=O)[NH+]1Cc1[n-]c(=O)[n-]c1CSc1ccc(Br)cc1 (nonaromatic ring conformer: 93.308095718026 kcal/mol)

>  <smiles>  (37) 
O=C1c2ccccc2C(=O)N1Cc1[nH]c(=O)[nH]c1CSc1ccc(Br)cc1

>  <score_type>  (37) 
oracle

>  <origin>  (37) 
adg

>  <m_score__min__energy>  (37) 
-10.68

>  <m_primary>  (37) 
energy

$$$$
37:0
     RDKit          3D

 50 52  0  0  0  0  0  0  0  0999 V2000
   56.8840   20.7860   42.9840 C   0  0  0  0  0  0  0  0  0  0  0  0
   55.9040   21.8080   43.1300 O   0  0  0  0  0  0  0  0  0  0  0  0
   56.0790   22.9720   43.8920 C   0  0  0  0  0  0  0  0  0  0  0  0
   55.1010   23.4400   44.7930 C   0  0  0  0  0  0  0  0  0  0  0  0
   55.3230   24.6060   45.5330 C   0  0  0  0  0  0  0  0  0  0  0  0
   56.5230   25.3220   45.3820 C   0  0  0  0  0  0  0  0  0  0  0  0
   56.7480   26.6030   46.1390 C   0  0  0  0  0  0  0  0  0  0  0  0
   55.9030   27.6580   45.5950 N   0  0  0  0  0  0  0  0  0  0  0  0
   56.3820   28.9660   45.2570 C   0  0  0  0  0  0  0  0  0  0  0  0
   55.7030   29.7010   44.4890 O   0  0  0  0  0  0  0  0  0  0  0  0
   57.6620   29.4600   45.8130 C   0  0  0  0  0  0  0  0  0  0  0  0
   58.1300   28.9980   47.0570 C   0  0  0  0  0  0  0  0  0  0  0  0
   59.3470   29.4540   47.5700 C   0  0  0  0  0  0  0  0  0  0  0  0
   60.1160   30.3850   46.8530 C   0  0  0  0  0  0  0  0  0  0  0  0
   61.4470   30.8560   47.3940 C   0  0  0  0  0  0  0  0  0  0  0  0
   61.2990   31.8730   48.4440 N   0  0  0  0  0  0  0  0  0  0  0  0
   61.2860   33.4850   47.7850 S   0  0  0  0  0  0  0  0  0  0  0  0
   61.4050   34.4960   48.8920 O   0  0  0  0  0  0  0  0  0  0  0  0
   62.4310   33.6690   46.8280 O   0  0  0  0  0  0  0  0  0  0  0  0
   59.7780   33.7270   46.9130 C   0  0  0  0  0  0  0  0  0  0  0  0
   58.5570   33.2940   47.4540 C   0  0  0  0  0  0  0  0  0  0  0  0
   57.3650   33.5050   46.7530 C   0  0  0  0  0  0  0  0  0  0  0  0
   57.3860   34.1500   45.5120 C   0  0  0  0  0  0  0  0  0  0  0  0
   58.5980   34.5800   44.9670 C   0  0  0  0  0  0  0  0  0  0  0  0
   59.7940   34.3650   45.6630 C   0  0  0  0  0  0  0  0  0  0  0  0
   59.6470   30.8570   45.6180 C   0  0  0  0  0  0  0  0  0  0  0  0
   58.4340   30.3940   45.0990 C   0  0  0  0  0  0  0  0  0  0  0  0
   57.4910   24.8630   44.4720 C   0  0  0  0  0  0  0  0  0  0  0  0
   57.2730   23.6920   43.7420 C   0  0  0  0  0  0  0  0  0  0  0  0
   57.2101   20.4460   43.9780 H   0  0  0  0  0  0  0  0  0  0  0  0
   56.4514   19.9395   42.4306 H   0  0  0  0  0  0  0  0  0  0  0  0
   57.7479   21.1828   42.4306 H   0  0  0  0  0  0  0  0  0  0  0  0
   54.1588   22.8856   44.9147 H   0  0  0  0  0  0  0  0  0  0  0  0
   54.5559   24.9638   46.2355 H   0  0  0  0  0  0  0  0  0  0  0  0
   56.4999   26.4479   47.1994 H   0  0  0  0  0  0  0  0  0  0  0  0
   57.8029   26.8992   46.0422 H   0  0  0  0  0  0  0  0  0  0  0  0
   57.5335   28.2726   47.6297 H   0  0  0  0  0  0  0  0  0  0  0  0
   59.7049   29.0816   48.5412 H   0  0  0  0  0  0  0  0  0  0  0  0
   61.9834   29.9918   47.8129 H   0  0  0  0  0  0  0  0  0  0  0  0
   62.0034   31.3126   46.5622 H   0  0  0  0  0  0  0  0  0  0  0  0
   60.3970   31.7270   48.9500 H   0  0  0  0  0  0  0  0  0  0  0  0
   58.5376   32.7881   48.4306 H   0  0  0  0  0  0  0  0  0  0  0  0
   56.4098   33.1632   47.1783 H   0  0  0  0  0  0  0  0  0  0  0  0
   56.4469   34.3188   44.9646 H   0  0  0  0  0  0  0  0  0  0  0  0
   58.6130   35.0875   43.9912 H   0  0  0  0  0  0  0  0  0  0  0  0
   60.7486   34.6971   45.2288 H   0  0  0  0  0  0  0  0  0  0  0  0
   60.2367   31.5953   45.0549 H   0  0  0  0  0  0  0  0  0  0  0  0
   58.0808   30.7631   44.1248 H   0  0  0  0  0  0  0  0  0  0  0  0
   58.4244   25.4284   44.3340 H   0  0  0  0  0  0  0  0  0  0  0  0
   58.0436   23.3321   43.0444 H   0  0  0  0  0  0  0  0  0  0  0  0
  1  2  1  0
  2  3  1  0
  3  4  2  0
  4  5  1  0
  5  6  2  0
  6  7  1  0
  7  8  1  0
  8  9  1  0
  9 10  2  0
  9 11  1  0
 11 12  2  0
 12 13  1  0
 13 14  2  0
 14 15  1  0
 15 16  1  0
 16 17  1  0
 17 18  2  0
 17 19  2  0
 17 20  1  0
 20 21  2  0
 21 22  1  0
 22 23  2  0
 23 24  1  0
 24 25  2  0
 14 26  1  0
 26 27  2  0
  6 28  1  0
 28 29  2  0
 29  3  1  0
 27 11  1  0
 25 20  1  0
  1 30  1  0
  1 31  1  0
  1 32  1  0
  4 33  1  0
  5 34  1  0
  7 35  1  0
  7 36  1  0
 12 37  1  0
 13 38  1  0
 15 39  1  0
 15 40  1  0
 16 41  1  0
 21 42  1  0
 22 43  1  0
 23 44  1  0
 24 45  1  0
 25 46  1  0
 26 47  1  0
 27 48  1  0
 28 49  1  0
 29 50  1  0
M  CHG  1   8  -1
M  END
>  <UniqueID>  (38) 
35

>  <SMILES>  (38) 
COc1ccc(C[N-]C(=O)c2ccc(CNS(=O)(=O)c3ccccc3)cc2)cc1

>  <Energy>  (38) 
50.55698573275516

>  <Genealogy>  (38) 
COc1ccc(C[N-]C(=O)c2ccc(CNS(=O)(=O)c3ccccc3)cc2)cc1 (protonated)
COc1ccc(C[N-]C(=O)c2ccc(CNS(=O)(=O)c3ccccc3)cc2)cc1 (3D coordinates assigned)
COc1ccc(C[N-]C(=O)c2ccc(CNS(=O)(=O)c3ccccc3)cc2)cc1 (optimized conformer: 50.55698573275516 kcal/mol)

>  <smiles>  (38) 
COc1ccc(CNC(=O)c2ccc(CNS(=O)(=O)c3ccccc3)cc2)cc1

>  <score_type>  (38) 
oracle

>  <origin>  (38) 
adg

>  <m_score__min__energy>  (38) 
-10.94

>  <m_primary>  (38) 
energy

$$$$
38:0
     RDKit          3D

 47 49  0  0  0  0  0  0  0  0999 V2000
   51.6270   28.9750   55.1590 H   0  0  0  0  0  0  0  0  0  0  0  0
   51.4570   29.9280   54.8610 O   0  0  0  0  0  0  0  0  0  0  0  0
   51.9940   30.4270   53.6760 C   0  0  0  0  0  0  0  0  0  0  0  0
   51.2420   31.3110   52.8960 C   0  0  0  0  0  0  0  0  0  0  0  0
   50.2301   31.6005   53.2157 H   0  0  0  0  0  0  0  0  0  0  0  0
   51.7740   31.8280   51.7100 C   0  0  0  0  0  0  0  0  0  0  0  0
   51.0280   32.7140   50.9430 O   0  0  0  0  0  0  0  0  0  0  0  0
   53.0560   31.4550   51.2970 C   0  0  0  0  0  0  0  0  0  0  0  0
   53.4740   31.8715   50.3687 H   0  0  0  0  0  0  0  0  0  0  0  0
   53.8120   30.5540   52.0580 C   0  0  0  0  0  0  0  0  0  0  0  0
   55.0990   30.2150   51.6170 O   0  0  0  0  0  0  0  0  0  0  0  0
   56.2970   30.7370   52.1280 C   0  0  0  0  0  0  0  0  0  0  0  0
   56.4090   30.9320   53.5090 C   0  0  0  0  0  0  0  0  0  0  0  0
   55.5725   30.6607   54.1698 H   0  0  0  0  0  0  0  0  0  0  0  0
   57.5770   31.4690   54.0520 C   0  0  0  0  0  0  0  0  0  0  0  0
   57.6580   31.6166   55.1390 H   0  0  0  0  0  0  0  0  0  0  0  0
   58.6440   31.8200   53.2210 C   0  0  0  0  0  0  0  0  0  0  0  0
   59.5612   32.2434   53.6564 H   0  0  0  0  0  0  0  0  0  0  0  0
   58.5500   31.6340   51.8290 C   0  0  0  0  0  0  0  0  0  0  0  0
   59.6400   32.0310   50.9050 C   0  0  0  0  0  0  0  0  0  0  0  0
   60.0664   33.0400   51.0054 H   0  0  0  0  0  0  0  0  0  0  0  0
   60.1320   31.2270   49.9560 C   0  0  0  0  0  0  0  0  0  0  0  0
   61.0870   30.7116   50.1358 H   0  0  0  0  0  0  0  0  0  0  0  0
   59.4330   31.0110   48.6770 C   0  0  0  0  0  0  0  0  0  0  0  0
   58.6060   31.8780   48.2890 O   0  0  0  0  0  0  0  0  0  0  0  0
   59.6160   29.8280   47.8830 N   0  0  0  0  0  0  0  0  0  0  0  0
   60.6500   29.6260   46.8680 C   0  0  0  0  0  0  0  0  0  0  0  0
   61.3165   30.5010   46.8542 H   0  0  0  0  0  0  0  0  0  0  0  0
   61.2147   28.7159   47.1187 H   0  0  0  0  0  0  0  0  0  0  0  0
   60.0280   29.4480   45.4800 C   0  0  0  0  0  0  0  0  0  0  0  0
   59.8490   30.4374   45.0339 H   0  0  0  0  0  0  0  0  0  0  0  0
   60.7202   28.8684   44.8515 H   0  0  0  0  0  0  0  0  0  0  0  0
   58.7230   28.7060   45.5790 C   0  0  0  0  0  0  0  0  0  0  0  0
   57.5410   29.2930   45.0990 C   0  0  0  0  0  0  0  0  0  0  0  0
   57.5756   30.2847   44.6243 H   0  0  0  0  0  0  0  0  0  0  0  0
   56.3200   28.6220   45.2220 C   0  0  0  0  0  0  0  0  0  0  0  0
   55.3981   29.0827   44.8375 H   0  0  0  0  0  0  0  0  0  0  0  0
   56.2710   27.3650   45.8340 C   0  0  0  0  0  0  0  0  0  0  0  0
   55.0570   26.6990   45.9550 O   0  0  0  0  0  0  0  0  0  0  0  0
   57.4430   26.7810   46.3260 C   0  0  0  0  0  0  0  0  0  0  0  0
   57.4036   25.7938   46.8096 H   0  0  0  0  0  0  0  0  0  0  0  0
   58.6640   27.4500   46.2040 C   0  0  0  0  0  0  0  0  0  0  0  0
   59.5822   26.9909   46.5991 H   0  0  0  0  0  0  0  0  0  0  0  0
   57.3630   31.1110   51.2900 C   0  0  0  0  0  0  0  0  0  0  0  0
   57.2660   30.9926   50.2007 H   0  0  0  0  0  0  0  0  0  0  0  0
   53.2800   30.0530   53.2610 C   0  0  0  0  0  0  0  0  0  0  0  0
   53.8760   29.3648   53.8785 H   0  0  0  0  0  0  0  0  0  0  0  0
  1  2  1  0
  2  3  1  0
  3  4  2  0
  4  5  1  0
  4  6  1  0
  6  7  1  0
  6  8  2  0
  8  9  1  0
  8 10  1  0
 10 11  1  0
 11 12  1  0
 12 13  2  0
 13 14  1  0
 13 15  1  0
 15 16  1  0
 15 17  2  0
 17 18  1  0
 17 19  1  0
 19 20  1  0
 20 21  1  0
 20 22  2  0
 22 23  1  0
 22 24  1  0
 24 25  2  0
 24 26  1  0
 26 27  1  0
 27 28  1  0
 27 29  1  0
 27 30  1  0
 30 31  1  0
 30 32  1  0
 30 33  1  0
 33 34  2  0
 34 35  1  0
 34 36  1  0
 36 37  1  0
 36 38  2  0
 38 39  1  0
 38 40  1  0
 40 41  1  0
 40 42  2  0
 42 43  1  0
 19 44  2  0
 44 45  1  0
 10 46  2  0
 46 47  1  0
 46  3  1  0
 44 12  1  0
 42 33  1  0
M  CHG  3   7  -1  26  -1  39  -1
M  END
>  <UniqueID>  (39) 
36

>  <SMILES>  (39) 
O=C(/C=C/c1cccc(Oc2cc([O-])cc(O)c2)c1)[N-]CCc1ccc([O-])cc1

>  <Energy>  (39) 
57.542492401506976

>  <Genealogy>  (39) 
O=C(C=Cc1cccc(Oc2cc([O-])cc(O)c2)c1)[N-]CCc1ccc([O-])cc1 (protonated)
O=C(/C=C/c1cccc(Oc2cc([O-])cc(O)c2)c1)[N-]CCc1ccc([O-])cc1 (cis-trans isomerization)
O=C(/C=C/c1cccc(Oc2cc([O-])cc(O)c2)c1)[N-]CCc1ccc([O-])cc1 (3D coordinates assigned)
O=C(/C=C/c1cccc(Oc2cc([O-])cc(O)c2)c1)[N-]CCc1ccc([O-])cc1 (optimized conformer: 57.542492401506976 kcal/mol)

>  <smiles>  (39) 
O=C(C=Cc1cccc(Oc2cc(O)cc(O)c2)c1)NCCc1ccc(O)cc1

>  <score_type>  (39) 
oracle

>  <origin>  (39) 
adg

>  <m_score__min__energy>  (39) 
-17

>  <m_primary>  (39) 
energy

$$$$
39:0
     RDKit          3D

 61 64  0  0  0  0  0  0  0  0999 V2000
   54.9870   24.3840   45.1500 C   0  0  0  0  0  0  0  0  0  0  0  0
   56.1490   23.4890   44.8060 C   0  0  0  0  0  0  0  0  0  0  0  0
   55.8950   22.1770   44.3680 C   0  0  0  0  0  0  0  0  0  0  0  0
   56.9500   21.3260   44.0260 C   0  0  0  0  0  0  0  0  0  0  0  0
   58.2680   21.7740   44.1160 C   0  0  0  0  0  0  0  0  0  0  0  0
   58.5380   23.0690   44.5600 C   0  0  0  0  0  0  0  0  0  0  0  0
   57.4910   23.9320   44.9240 C   0  0  0  0  0  0  0  0  0  0  0  0
   57.8270   25.2820   45.4260 C   0  0  0  0  0  0  0  0  0  0  0  0
   57.8350   26.3820   44.5570 C   0  0  0  0  0  0  0  0  0  0  0  0
   58.1220   27.6610   45.0390 C   0  0  0  0  0  0  0  0  0  0  0  0
   58.4050   27.8630   46.4010 C   0  0  0  0  0  0  0  0  0  0  0  0
   58.7090   29.2570   46.9170 C   0  0  0  0  0  0  0  0  0  0  0  0
   59.8890   29.9170   46.1570 C   0  0  0  0  0  0  0  0  0  0  0  0
   61.1250   30.1010   47.0480 C   0  0  0  0  0  0  0  0  0  0  0  0
   60.8330   30.9020   48.2640 N   0  0  0  0  0  0  0  0  0  0  0  0
   60.9950   32.3520   48.0120 C   0  0  0  0  0  0  0  0  0  0  0  0
   60.1790   33.1890   49.0010 C   0  0  0  0  0  0  0  0  0  0  0  0
   58.9460   33.5870   48.4160 O   0  0  0  0  0  0  0  0  0  0  0  0
   58.7620   33.5710   47.0360 C   0  0  0  0  0  0  0  0  0  0  0  0
   59.1610   34.6630   46.2600 C   0  0  0  0  0  0  0  0  0  0  0  0
   58.9890   34.6360   44.8750 C   0  0  0  0  0  0  0  0  0  0  0  0
   58.4130   33.5210   44.2600 C   0  0  0  0  0  0  0  0  0  0  0  0
   57.9950   32.4170   45.0290 C   0  0  0  0  0  0  0  0  0  0  0  0
   57.3910   31.2240   44.3910 C   0  0  0  0  0  0  0  0  0  0  0  0
   58.0850   30.4820   43.3840 N   0  0  0  0  0  0  0  0  0  0  0  0
   56.2360   30.8510   44.7350 O   0  0  0  0  0  0  0  0  0  0  0  0
   58.1790   32.4530   46.4240 C   0  0  0  0  0  0  0  0  0  0  0  0
   59.5180   30.5900   48.8920 C   0  0  0  0  0  0  0  0  0  0  0  0
   58.9310   29.2460   48.4420 C   0  0  0  0  0  0  0  0  0  0  0  0
   58.3950   26.7560   47.2690 C   0  0  0  0  0  0  0  0  0  0  0  0
   58.1010   25.4780   46.7870 C   0  0  0  0  0  0  0  0  0  0  0  0
   54.8918   24.4573   46.2434 H   0  0  0  0  0  0  0  0  0  0  0  0
   55.1584   25.3856   44.7289 H   0  0  0  0  0  0  0  0  0  0  0  0
   54.0623   23.9625   44.7289 H   0  0  0  0  0  0  0  0  0  0  0  0
   54.8580   21.8176   44.2939 H   0  0  0  0  0  0  0  0  0  0  0  0
   56.7405   20.3013   43.6853 H   0  0  0  0  0  0  0  0  0  0  0  0
   59.0956   21.1055   43.8366 H   0  0  0  0  0  0  0  0  0  0  0  0
   59.5794   23.4170   44.6255 H   0  0  0  0  0  0  0  0  0  0  0  0
   57.6139   26.2369   43.4893 H   0  0  0  0  0  0  0  0  0  0  0  0
   58.1266   28.5166   44.3477 H   0  0  0  0  0  0  0  0  0  0  0  0
   57.8271   29.8834   46.7174 H   0  0  0  0  0  0  0  0  0  0  0  0
   60.1604   29.2794   45.3027 H   0  0  0  0  0  0  0  0  0  0  0  0
   59.5611   30.9135   45.8261 H   0  0  0  0  0  0  0  0  0  0  0  0
   61.4883   29.1098   47.3569 H   0  0  0  0  0  0  0  0  0  0  0  0
   61.8820   30.6439   46.4630 H   0  0  0  0  0  0  0  0  0  0  0  0
   62.0582   32.6156   48.1130 H   0  0  0  0  0  0  0  0  0  0  0  0
   60.6323   32.5680   46.9962 H   0  0  0  0  0  0  0  0  0  0  0  0
   59.9762   32.5902   49.9012 H   0  0  0  0  0  0  0  0  0  0  0  0
   60.7543   34.0883   49.2661 H   0  0  0  0  0  0  0  0  0  0  0  0
   59.6108   35.5441   46.7410 H   0  0  0  0  0  0  0  0  0  0  0  0
   59.3077   35.4947   44.2659 H   0  0  0  0  0  0  0  0  0  0  0  0
   58.2851   33.5053   43.1676 H   0  0  0  0  0  0  0  0  0  0  0  0
   57.6580   29.6150   42.9920 H   0  0  0  0  0  0  0  0  0  0  0  0
   58.9610   30.8400   42.9460 H   0  0  0  0  0  0  0  0  0  0  0  0
   57.8628   31.5972   47.0385 H   0  0  0  0  0  0  0  0  0  0  0  0
   59.6503   30.5646   49.9837 H   0  0  0  0  0  0  0  0  0  0  0  0
   58.8136   31.3737   48.5765 H   0  0  0  0  0  0  0  0  0  0  0  0
   59.6289   28.4369   48.7035 H   0  0  0  0  0  0  0  0  0  0  0  0
   57.9679   29.0830   48.9478 H   0  0  0  0  0  0  0  0  0  0  0  0
   58.6206   26.8978   48.3362 H   0  0  0  0  0  0  0  0  0  0  0  0
   58.0844   24.6223   47.4780 H   0  0  0  0  0  0  0  0  0  0  0  0
  1  2  1  0
  2  3  2  0
  3  4  1  0
  4  5  2  0
  5  6  1  0
  6  7  2  0
  7  8  1  0
  8  9  2  0
  9 10  1  0
 10 11  2  0
 11 12  1  0
 12 13  1  0
 13 14  1  0
 14 15  1  0
 15 16  1  0
 16 17  1  0
 17 18  1  0
 18 19  1  0
 19 20  2  0
 20 21  1  0
 21 22  2  0
 22 23  1  0
 23 24  1  0
 24 25  1  0
 24 26  2  0
 23 27  2  0
 15 28  1  0
 28 29  1  0
 11 30  1  0
 30 31  2  0
  7  2  1  0
 31  8  1  0
 29 12  1  0
 27 19  1  0
  1 32  1  0
  1 33  1  0
  1 34  1  0
  3 35  1  0
  4 36  1  0
  5 37  1  0
  6 38  1  0
  9 39  1  0
 10 40  1  0
 12 41  1  0
 13 42  1  0
 13 43  1  0
 14 44  1  0
 14 45  1  0
 16 46  1  0
 16 47  1  0
 17 48  1  0
 17 49  1  0
 20 50  1  0
 21 51  1  0
 22 52  1  0
 25 53  1  0
 25 54  1  0
 27 55  1  0
 28 56  1  0
 28 57  1  0
 29 58  1  0
 29 59  1  0
 30 60  1  0
 31 61  1  0
M  END
>  <UniqueID>  (40) 
37

>  <SMILES>  (40) 
Cc1ccccc1-c1ccc(C2CCN(CCOc3cccc(C(N)=O)c3)CC2)cc1

>  <Energy>  (40) 
88.65778356653122

>  <Genealogy>  (40) 
Cc1ccccc1-c1ccc(C2CCN(CCOc3cccc(C(N)=O)c3)CC2)cc1 (3D coordinates assigned)
Cc1ccccc1-c1ccc(C2CCN(CCOc3cccc(C(N)=O)c3)CC2)cc1 (nonaromatic ring conformer: 88.65778356653122 kcal/mol)

>  <smiles>  (40) 
Cc1ccccc1-c1ccc(C2CCN(CCOc3cccc(C(N)=O)c3)CC2)cc1

>  <score_type>  (40) 
oracle

>  <origin>  (40) 
adg

>  <m_score__min__energy>  (40) 
-9.9800000000000004

>  <m_primary>  (40) 
energy

$$$$
40:0
     RDKit          3D

 39 40  0  0  0  0  0  0  0  0999 V2000
   55.5030   31.8170   52.5340 O   0  0  0  0  0  0  0  0  0  0  0  0
   55.4310   30.6550   52.0540 C   0  0  0  0  0  0  0  0  0  0  0  0
   54.0920   30.0130   51.8460 C   0  0  0  0  0  0  0  0  0  0  0  0
   53.2090   30.8420   50.9040 C   0  0  0  0  0  0  0  0  0  0  0  0
   52.1070   31.5370   51.6510 C   0  0  0  0  0  0  0  0  0  0  0  0
   51.8660   31.3730   52.9640 N   0  0  0  0  0  0  0  0  0  0  0  0
   50.7480   32.1040   53.1680 C   0  0  0  0  0  0  0  0  0  0  0  0
   50.2040   32.2080   54.2980 O   0  0  0  0  0  0  0  0  0  0  0  0
   50.2590   32.7130   52.0660 N   0  0  0  0  0  0  0  0  0  0  0  0
   51.1280   32.3410   51.1150 C   0  0  0  0  0  0  0  0  0  0  0  0
   51.0220   32.7160   49.7810 O   0  0  0  0  0  0  0  0  0  0  0  0
   56.6170   29.9610   51.6560 N   0  0  0  0  0  0  0  0  0  0  0  0
   57.9560   30.4780   51.8900 C   0  0  0  0  0  0  0  0  0  0  0  0
   58.7810   30.2690   50.6650 C   0  0  0  0  0  0  0  0  0  0  0  0
   58.6080   29.2370   49.9610 O   0  0  0  0  0  0  0  0  0  0  0  0
   59.7990   31.2200   50.3290 N   0  0  0  0  0  0  0  0  0  0  0  0
   59.8630   31.9280   49.0520 C   0  0  0  0  0  0  0  0  0  0  0  0
   58.5220   32.5950   48.7230 C   0  0  0  0  0  0  0  0  0  0  0  0
   58.5660   33.3430   47.4150 C   0  0  0  0  0  0  0  0  0  0  0  0
   59.5460   34.3260   47.1950 C   0  0  0  0  0  0  0  0  0  0  0  0
   59.6020   35.0050   45.9720 C   0  0  0  0  0  0  0  0  0  0  0  0
   58.6840   34.7040   44.9610 C   0  0  0  0  0  0  0  0  0  0  0  0
   57.7110   33.7220   45.1700 C   0  0  0  0  0  0  0  0  0  0  0  0
   57.6520   33.0410   46.3920 C   0  0  0  0  0  0  0  0  0  0  0  0
   54.2389   29.0137   51.4104 H   0  0  0  0  0  0  0  0  0  0  0  0
   53.5871   29.9459   52.8210 H   0  0  0  0  0  0  0  0  0  0  0  0
   53.8321   31.5971   50.4024 H   0  0  0  0  0  0  0  0  0  0  0  0
   52.7524   30.1608   50.1709 H   0  0  0  0  0  0  0  0  0  0  0  0
   57.9012   31.5527   52.1182 H   0  0  0  0  0  0  0  0  0  0  0  0
   58.4138   29.9501   52.7396 H   0  0  0  0  0  0  0  0  0  0  0  0
   60.6442   32.7003   49.1081 H   0  0  0  0  0  0  0  0  0  0  0  0
   60.0950   31.2004   48.2603 H   0  0  0  0  0  0  0  0  0  0  0  0
   57.7454   31.8184   48.6615 H   0  0  0  0  0  0  0  0  0  0  0  0
   58.2998   33.3197   49.5201 H   0  0  0  0  0  0  0  0  0  0  0  0
   60.2719   34.5628   47.9868 H   0  0  0  0  0  0  0  0  0  0  0  0
   60.3688   35.7760   45.8062 H   0  0  0  0  0  0  0  0  0  0  0  0
   58.7274   35.2398   44.0013 H   0  0  0  0  0  0  0  0  0  0  0  0
   56.9908   33.4841   44.3733 H   0  0  0  0  0  0  0  0  0  0  0  0
   56.8871   32.2667   46.5515 H   0  0  0  0  0  0  0  0  0  0  0  0
  1  2  2  0
  2  3  1  0
  3  4  1  0
  4  5  1  0
  5  6  1  0
  6  7  1  0
  7  8  2  0
  7  9  1  0
  9 10  1  0
 10 11  1  0
  2 12  1  0
 12 13  1  0
 13 14  1  0
 14 15  2  0
 14 16  1  0
 16 17  1  0
 17 18  1  0
 18 19  1  0
 19 20  2  0
 20 21  1  0
 21 22  2  0
 22 23  1  0
 23 24  2  0
 10  5  2  0
 24 19  1  0
  3 25  1  0
  3 26  1  0
  4 27  1  0
  4 28  1  0
 13 29  1  0
 13 30  1  0
 17 31  1  0
 17 32  1  0
 18 33  1  0
 18 34  1  0
 20 35  1  0
 21 36  1  0
 22 37  1  0
 23 38  1  0
 24 39  1  0
M  CHG  5   6  -1   9  -1  11  -1  12  -1  16  -1
M  END
>  <UniqueID>  (41) 
38

>  <SMILES>  (41) 
O=C(CCc1[n-]c(=O)[n-]c1[O-])[N-]CC(=O)[N-]CCc1ccccc1

>  <Energy>  (41) 
55.776285776772006

>  <Genealogy>  (41) 
O=C(CCc1[n-]c(=O)[n-]c1[O-])[N-]CC(=O)[N-]CCc1ccccc1 (protonated)
O=C(CCc1[n-]c(=O)[n-]c1[O-])[N-]CC(=O)[N-]CCc1ccccc1 (3D coordinates assigned)
O=C(CCc1[n-]c(=O)[n-]c1[O-])[N-]CC(=O)[N-]CCc1ccccc1 (optimized conformer: 55.776285776772006 kcal/mol)

>  <smiles>  (41) 
O=C(CCc1[nH]c(=O)[nH]c1O)NCC(=O)NCCc1ccccc1

>  <score_type>  (41) 
oracle

>  <origin>  (41) 
adg

>  <m_score__min__energy>  (41) 
-18.68

>  <m_primary>  (41) 
energy

$$$$
41:0
     RDKit          3D

 49 51  0  0  1  0  0  0  0  0999 V2000
   58.2990   34.2200   46.6010 C   0  0  0  0  0  0  0  0  0  0  0  0
   57.7120   33.6550   45.3390 C   0  0  0  0  0  0  0  0  0  0  0  0
   57.0250   34.4270   44.6070 O   0  0  0  0  0  0  0  0  0  0  0  0
   57.9290   32.2890   44.9790 N   0  0  0  0  0  0  0  0  0  0  0  0
   57.3400   31.8190   43.7630 C   0  0  0  0  0  0  0  0  0  0  0  0
   56.6650   30.4410   43.9550 C   0  0  0  0  0  0  0  0  0  0  0  0
   57.0430   30.0620   45.2960 N   0  0  0  0  0  0  0  0  0  0  0  0
   57.7870   29.0560   45.5260 C   0  0  0  0  0  0  0  0  0  0  0  0
   57.2630   27.8060   45.3460 N   0  0  0  0  0  0  0  0  0  0  0  0
   57.9870   26.6830   45.5680 C   0  0  0  0  0  0  0  0  0  0  0  0
   57.3420   25.3990   45.3490 C   0  0  0  0  0  0  0  0  0  0  0  0
   58.0620   24.3110   44.8860 C   0  0  0  0  0  0  0  0  0  0  0  0
   57.4660   23.0970   44.6760 N   0  0  0  0  0  0  0  0  0  0  0  0
   56.1620   22.8950   44.9050 C   0  0  0  0  0  0  0  0  0  0  0  0
   55.5830   21.7610   44.7140 N   0  0  0  0  0  0  0  0  0  0  0  0
   55.4450   23.9280   45.3530 N   0  0  0  0  0  0  0  0  0  0  0  0
   55.9970   25.1610   45.5780 C   0  0  0  0  0  0  0  0  0  0  0  0
   55.2110   26.0510   46.0000 N   0  0  0  0  0  0  0  0  0  0  0  0
   59.2720   26.8620   45.9830 C   0  0  0  0  0  0  0  0  0  0  0  0
   59.8420   28.1340   46.1790 C   0  0  0  0  0  0  0  0  0  0  0  0
   59.0840   29.2510   45.9440 C   0  0  0  0  0  0  0  0  0  0  0  0
   59.6280   30.5070   46.1300 O   0  0  0  0  0  0  0  0  0  0  0  0
   59.7300   31.1130   47.3540 C   0  0  0  0  0  0  0  0  0  0  0  0
   58.9540   30.7250   48.4490 C   0  0  0  0  0  0  0  0  0  0  0  0
   59.0770   31.3580   49.6770 C   0  0  0  0  0  0  0  0  0  0  0  0
   59.9590   32.3830   49.8670 C   0  0  0  0  0  0  0  0  0  0  0  0
   60.0930   33.0110   51.0580 F   0  0  0  0  0  0  0  0  0  0  0  0
   60.7320   32.7820   48.8070 C   0  0  0  0  0  0  0  0  0  0  0  0
   60.6110   32.1510   47.5760 C   0  0  0  0  0  0  0  0  0  0  0  0
   61.4240   32.6430   46.5880 F   0  0  0  0  0  0  0  0  0  0  0  0
   57.8145   33.7537   47.4715 H   0  0  0  0  0  0  0  0  0  0  0  0
   59.3790   34.0129   46.6278 H   0  0  0  0  0  0  0  0  0  0  0  0
   58.1333   35.3071   46.6278 H   0  0  0  0  0  0  0  0  0  0  0  0
   58.4950   31.6710   45.5890 H   0  0  0  0  0  0  0  0  0  0  0  0
   56.5833   32.5441   43.4289 H   0  0  0  0  0  0  0  0  0  0  0  0
   58.1373   31.7109   43.0129 H   0  0  0  0  0  0  0  0  0  0  0  0
   55.5719   30.5229   43.8633 H   0  0  0  0  0  0  0  0  0  0  0  0
   56.9746   29.7042   43.1992 H   0  0  0  0  0  0  0  0  0  0  0  0
   56.2730   27.8030   45.0270 H   0  0  0  0  0  0  0  0  0  0  0  0
   59.1370   24.4248   44.6824 H   0  0  0  0  0  0  0  0  0  0  0  0
   58.0140   22.2830   44.3270 H   0  0  0  0  0  0  0  0  0  0  0  0
   56.1100   20.8590   44.8020 H   0  0  0  0  0  0  0  0  0  0  0  0
   54.4200   23.7680   45.5330 H   0  0  0  0  0  0  0  0  0  0  0  0
   55.1280   26.3470   46.9860 H   0  0  0  0  0  0  0  0  0  0  0  0
   59.8916   25.9733   46.1734 H   0  0  0  0  0  0  0  0  0  0  0  0
   60.8843   28.2302   46.5171 H   0  0  0  0  0  0  0  0  0  0  0  0
   58.2324   29.9026   48.3352 H   0  0  0  0  0  0  0  0  0  0  0  0
   58.4494   31.0266   50.5174 H   0  0  0  0  0  0  0  0  0  0  0  0
   61.4508   33.6052   48.9323 H   0  0  0  0  0  0  0  0  0  0  0  0
  1  2  1  0
  2  3  2  0
  2  4  1  0
  4  5  1  0
  5  6  1  0
  6  7  1  0
  7  8  2  0
  8  9  1  0
  9 10  1  0
 10 11  1  0
 11 12  2  0
 12 13  1  0
 13 14  1  0
 14 15  2  3
 14 16  1  0
 16 17  1  0
 17 18  2  3
 10 19  2  0
 19 20  1  0
 20 21  2  0
 21 22  1  0
 22 23  1  0
 23 24  2  0
 24 25  1  0
 25 26  2  0
 26 27  1  0
 26 28  1  0
 28 29  2  0
 29 30  1  0
 21  8  1  0
 29 23  1  0
 17 11  1  0
  1 31  1  0
  1 32  1  0
  1 33  1  0
  4 34  1  0
  5 35  1  0
  5 36  1  0
  6 37  1  0
  6 38  1  0
  9 39  1  0
 12 40  1  0
 13 41  1  0
 15 42  1  0
 16 43  1  0
 18 44  1  0
 19 45  1  0
 20 46  1  0
 24 47  1  0
 25 48  1  0
 28 49  1  0
M  END
>  <smiles>  (42) 
CC(=O)NCCN=c1[nH]c(-c2c[nH]c(=N)[nH]c2=N)ccc1Oc1ccc(F)cc1F

>  <score_type>  (42) 
oracle

>  <origin>  (42) 
adg

>  <m_score__min__energy>  (42) 
-7.5099999999999998

>  <m_primary>  (42) 
energy

$$$$
42:0
     RDKit          3D

 39 41  0  0  0  0  0  0  0  0999 V2000
   63.1940   32.6480   48.6080 C   0  0  0  0  0  0  0  0  0  0  0  0
   61.9130   32.6360   47.8280 C   0  0  0  0  0  0  0  0  0  0  0  0
   61.0440   33.7300   47.8920 C   0  0  0  0  0  0  0  0  0  0  0  0
   59.8340   33.7090   47.1990 C   0  0  0  0  0  0  0  0  0  0  0  0
   59.4650   32.5900   46.4350 C   0  0  0  0  0  0  0  0  0  0  0  0
   58.1540   32.6160   45.6920 C   0  0  0  0  0  0  0  0  0  0  0  0
   60.3230   31.4620   46.3840 C   0  0  0  0  0  0  0  0  0  0  0  0
   59.9470   30.2850   45.6330 N   0  0  0  0  0  0  0  0  0  0  0  0
   60.7130   29.0330   45.6450 C   0  0  2  0  0  0  0  0  0  0  0  0
   61.3910   28.8870   44.4240 O   0  0  0  0  0  0  0  0  0  0  0  0
   59.7900   27.8480   45.8630 C   0  0  0  0  0  0  0  0  0  0  0  0
   58.4090   27.9850   45.6500 C   0  0  0  0  0  0  0  0  0  0  0  0
   57.5500   26.8920   45.8410 C   0  0  0  0  0  0  0  0  0  0  0  0
   56.1590   26.9980   45.6420 C   0  0  0  0  0  0  0  0  0  0  0  0
   55.5860   28.2040   45.2480 O   0  0  0  0  0  0  0  0  0  0  0  0
   55.3380   25.8790   45.8430 C   0  0  0  0  0  0  0  0  0  0  0  0
   53.9660   25.9780   45.6500 O   0  0  0  0  0  0  0  0  0  0  0  0
   55.8960   24.6600   46.2410 C   0  0  0  0  0  0  0  0  0  0  0  0
   57.2750   24.5480   46.4400 C   0  0  0  0  0  0  0  0  0  0  0  0
   58.1030   25.6570   46.2420 C   0  0  0  0  0  0  0  0  0  0  0  0
   59.4440   25.5430   46.4350 N   0  0  0  0  0  0  0  0  0  0  0  0
   60.2910   26.5900   46.2570 C   0  0  0  0  0  0  0  0  0  0  0  0
   61.5250   26.4200   46.4450 O   0  0  0  0  0  0  0  0  0  0  0  0
   61.5420   31.5020   47.0920 C   0  0  0  0  0  0  0  0  0  0  0  0
   62.9678   32.6459   49.6845 H   0  0  0  0  0  0  0  0  0  0  0  0
   63.7852   31.7554   48.3558 H   0  0  0  0  0  0  0  0  0  0  0  0
   63.7684   33.5516   48.3558 H   0  0  0  0  0  0  0  0  0  0  0  0
   61.3162   34.6110   48.4917 H   0  0  0  0  0  0  0  0  0  0  0  0
   59.1616   34.5780   47.2514 H   0  0  0  0  0  0  0  0  0  0  0  0
   57.3239   32.6325   46.4135 H   0  0  0  0  0  0  0  0  0  0  0  0
   58.1084   33.5152   45.0601 H   0  0  0  0  0  0  0  0  0  0  0  0
   58.0728   31.7193   45.0601 H   0  0  0  0  0  0  0  0  0  0  0  0
   59.0810   30.3190   45.0490 H   0  0  0  0  0  0  0  0  0  0  0  0
   61.4401   29.0687   46.4697 H   0  0  0  0  0  0  0  0  0  0  0  0
   61.8380   28.0000   44.4490 H   0  0  0  0  0  0  0  0  0  0  0  0
   57.9982   28.9545   45.3317 H   0  0  0  0  0  0  0  0  0  0  0  0
   55.2471   23.7858   46.3981 H   0  0  0  0  0  0  0  0  0  0  0  0
   57.7090   23.5868   46.7526 H   0  0  0  0  0  0  0  0  0  0  0  0
   62.2120   30.6300   47.0663 H   0  0  0  0  0  0  0  0  0  0  0  0
  1  2  1  0
  2  3  2  0
  3  4  1  0
  4  5  2  0
  5  6  1  0
  5  7  1  0
  7  8  1  0
  8  9  1  0
  9 10  1  0
  9 11  1  0
 11 12  2  0
 12 13  1  0
 13 14  2  0
 14 15  1  0
 14 16  1  0
 16 17  1  0
 16 18  2  0
 18 19  1  0
 19 20  2  0
 20 21  1  0
 21 22  1  0
 22 23  2  0
  7 24  2  0
 24  2  1  0
 22 11  1  0
 20 13  1  0
  1 25  1  0
  1 26  1  0
  1 27  1  0
  3 28  1  0
  4 29  1  0
  6 30  1  0
  6 31  1  0
  6 32  1  0
  8 33  1  0
  9 34  1  1
 10 35  1  0
 12 36  1  0
 18 37  1  0
 19 38  1  0
 24 39  1  0
M  CHG  3  15  -1  17  -1  21  -1
M  END
>  <UniqueID>  (43) 
39

>  <SMILES>  (43) 
Cc1ccc(C)c(N[C@H](O)c2cc3c([O-])c([O-])ccc3[n-]c2=O)c1

>  <Energy>  (43) 
48.681797628468765

>  <Genealogy>  (43) 
Cc1ccc(C)c(NC(O)c2cc3c([O-])c([O-])ccc3[n-]c2=O)c1 (protonated)
Cc1ccc(C)c(N[C@H](O)c2cc3c([O-])c([O-])ccc3[n-]c2=O)c1 (chirality)
Cc1ccc(C)c(N[C@H](O)c2cc3c([O-])c([O-])ccc3[n-]c2=O)c1 (3D coordinates assigned)
Cc1ccc(C)c(N[C@H](O)c2cc3c([O-])c([O-])ccc3[n-]c2=O)c1 (optimized conformer: 48.681797628468765 kcal/mol)

>  <smiles>  (43) 
Cc1ccc(C)c(NC(O)c2cc3c(O)c(O)ccc3[nH]c2=O)c1

>  <score_type>  (43) 
oracle

>  <origin>  (43) 
adg

>  <m_score__min__energy>  (43) 
-14.67

>  <m_primary>  (43) 
energy

$$$$
43:0
     RDKit          3D

 39 41  0  0  0  0  0  0  0  0999 V2000
   59.3760   34.1752   43.8081 H   0  0  0  0  0  0  0  0  0  0  0  0
   59.0060   33.4690   44.5660 C   0  0  0  0  0  0  0  0  0  0  0  0
   58.1320   32.5230   44.1620 C   0  0  0  0  0  0  0  0  0  0  0  0
   57.4600   31.5740   45.0840 C   0  0  0  0  0  0  0  0  0  0  0  0
   57.3890   31.8210   46.3190 O   0  0  0  0  0  0  0  0  0  0  0  0
   56.7620   30.3950   44.5100 C   0  0  0  0  0  0  0  0  0  0  0  0
   56.3490   29.3420   45.2460 C   0  0  0  0  0  0  0  0  0  0  0  0
   55.3539   29.4010   45.7111 H   0  0  0  0  0  0  0  0  0  0  0  0
   57.1410   28.1160   45.4700 C   0  0  0  0  0  0  0  0  0  0  0  0
   58.5400   28.1780   45.3780 C   0  0  0  0  0  0  0  0  0  0  0  0
   59.0317   29.1323   45.1383 H   0  0  0  0  0  0  0  0  0  0  0  0
   59.3110   27.0310   45.5900 C   0  0  0  0  0  0  0  0  0  0  0  0
   60.4065   27.0826   45.5053 H   0  0  0  0  0  0  0  0  0  0  0  0
   58.6930   25.8200   45.9090 C   0  0  0  0  0  0  0  0  0  0  0  0
   59.3009   24.9162   46.0627 H   0  0  0  0  0  0  0  0  0  0  0  0
   57.3020   25.7560   46.0330 C   0  0  0  0  0  0  0  0  0  0  0  0
   56.8176   24.8029   46.2918 H   0  0  0  0  0  0  0  0  0  0  0  0
   56.5250   26.9000   45.8290 C   0  0  0  0  0  0  0  0  0  0  0  0
   55.1460   26.8270   45.9980 O   0  0  0  0  0  0  0  0  0  0  0  0
   56.3960   30.4590   43.0450 C   0  0  0  0  0  0  0  0  0  0  0  0
   55.4609   31.0274   42.9330 H   0  0  0  0  0  0  0  0  0  0  0  0
   56.2719   29.4319   42.6711 H   0  0  0  0  0  0  0  0  0  0  0  0
   57.4540   31.1160   42.2620 N   0  0  0  0  0  0  0  0  0  0  0  0
   58.3410   30.5610   42.3280 H   0  0  0  0  0  0  0  0  0  0  0  0
   57.1580   31.1420   41.2580 H   0  0  0  0  0  0  0  0  0  0  0  0
   57.6950   32.4950   42.7160 C   0  0  0  0  0  0  0  0  0  0  0  0
   56.7667   33.0756   42.6099 H   0  0  0  0  0  0  0  0  0  0  0  0
   58.4959   32.9306   42.1005 H   0  0  0  0  0  0  0  0  0  0  0  0
   59.5040   33.6290   45.9480 C   0  0  0  0  0  0  0  0  0  0  0  0
   58.8790   34.5470   46.8050 C   0  0  0  0  0  0  0  0  0  0  0  0
   58.0104   35.1225   46.4524 H   0  0  0  0  0  0  0  0  0  0  0  0
   59.3570   34.7330   48.1070 C   0  0  0  0  0  0  0  0  0  0  0  0
   58.8530   35.4415   48.7808 H   0  0  0  0  0  0  0  0  0  0  0  0
   60.4740   34.0200   48.5530 C   0  0  0  0  0  0  0  0  0  0  0  0
   60.9360   34.2030   49.8150 F   0  0  0  0  0  0  0  0  0  0  0  0
   61.1210   33.1290   47.6940 C   0  0  0  0  0  0  0  0  0  0  0  0
   62.0039   32.5733   48.0429 H   0  0  0  0  0  0  0  0  0  0  0  0
   60.6490   32.9420   46.3920 C   0  0  0  0  0  0  0  0  0  0  0  0
   61.1744   32.2554   45.7119 H   0  0  0  0  0  0  0  0  0  0  0  0
  1  2  1  0
  2  3  2  0
  3  4  1  0
  4  5  2  0
  4  6  1  0
  6  7  2  0
  7  8  1  0
  7  9  1  0
  9 10  2  0
 10 11  1  0
 10 12  1  0
 12 13  1  0
 12 14  2  0
 14 15  1  0
 14 16  1  0
 16 17  1  0
 16 18  2  0
 18 19  1  0
  6 20  1  0
 20 21  1  0
 20 22  1  0
 20 23  1  0
 23 24  1  0
 23 25  1  0
 23 26  1  0
 26 27  1  0
 26 28  1  0
  2 29  1  0
 29 30  2  0
 30 31  1  0
 30 32  1  0
 32 33  1  0
 32 34  2  0
 34 35  1  0
 34 36  1  0
 36 37  1  0
 36 38  2  0
 38 39  1  0
 26  3  1  0
 38 29  1  0
 18  9  1  0
M  CHG  2  19  -1  23   1
M  END
>  <UniqueID>  (44) 
40

>  <SMILES>  (44) 
O=C1/C(=C\c2ccc(F)cc2)C[NH2+]C/C1=C/c1ccccc1[O-]

>  <Energy>  (44) 
60.454420355035666

>  <Genealogy>  (44) 
O=C1C(=Cc2ccc(F)cc2)C[NH2+]CC1=Cc1ccccc1[O-] (protonated)
O=C1/C(=C\c2ccc(F)cc2)C[NH2+]C/C1=C/c1ccccc1[O-] (cis-trans isomerization)
O=C1/C(=C\c2ccc(F)cc2)C[NH2+]C/C1=C/c1ccccc1[O-] (3D coordinates assigned)
O=C1/C(=C\c2ccc(F)cc2)C[NH2+]C/C1=C/c1ccccc1[O-] (nonaromatic ring conformer: 60.454420355035666 kcal/mol)

>  <smiles>  (44) 
O=C1C(=Cc2ccc(F)cc2)CNCC1=Cc1ccccc1O

>  <score_type>  (44) 
oracle

>  <origin>  (44) 
adg

>  <m_score__min__energy>  (44) 
-11.07

>  <m_primary>  (44) 
energy

$$$$
44:0
     RDKit          3D

 37 39  0  0  0  0  0  0  0  0999 V2000
   59.7930   28.0480   46.8990 C   0  0  0  0  0  0  0  0  0  0  0  0
   59.1960   29.3510   46.4610 C   0  0  0  0  0  0  0  0  0  0  0  0
   57.9590   29.5190   45.8640 C   0  0  0  0  0  0  0  0  0  0  0  0
   57.0760   28.4740   45.4290 N   0  0  0  0  0  0  0  0  0  0  0  0
   57.4130   27.2750   45.0480 C   0  0  0  0  0  0  0  0  0  0  0  0
   57.1100   26.0460   45.8180 C   0  0  0  0  0  0  0  0  0  0  0  0
   55.7980   25.7950   46.2490 C   0  0  0  0  0  0  0  0  0  0  0  0
   54.7780   26.6990   45.9770 O   0  0  0  0  0  0  0  0  0  0  0  0
   55.5200   24.6680   46.9530 N   0  0  0  0  0  0  0  0  0  0  0  0
   56.4880   23.7620   47.2380 C   0  0  0  0  0  0  0  0  0  0  0  0
   56.1230   22.4200   48.0920 S   0  0  0  0  0  0  0  0  0  0  0  0
   57.7580   23.9640   46.8040 N   0  0  0  0  0  0  0  0  0  0  0  0
   58.0880   25.0730   46.0940 C   0  0  0  0  0  0  0  0  0  0  0  0
   59.2700   25.2060   45.6750 O   0  0  0  0  0  0  0  0  0  0  0  0
   57.8490   30.8800   45.6520 C   0  0  0  0  0  0  0  0  0  0  0  0
   56.9200   31.4640   45.0330 O   0  0  0  0  0  0  0  0  0  0  0  0
   58.9390   31.4990   46.1460 N   0  0  0  0  0  0  0  0  0  0  0  0
   59.1910   32.9150   46.1050 C   0  0  0  0  0  0  0  0  0  0  0  0
   59.5650   33.5980   47.2750 C   0  0  0  0  0  0  0  0  0  0  0  0
   59.7980   34.9760   47.2420 C   0  0  0  0  0  0  0  0  0  0  0  0
   59.6500   35.6830   46.0440 C   0  0  0  0  0  0  0  0  0  0  0  0
   59.2670   35.0120   44.8790 C   0  0  0  0  0  0  0  0  0  0  0  0
   59.0340   33.6330   44.9090 C   0  0  0  0  0  0  0  0  0  0  0  0
   59.7500   30.5740   46.6580 N   0  0  0  0  0  0  0  0  0  0  0  0
   61.0340   30.8360   47.3130 C   0  0  0  0  0  0  0  0  0  0  0  0
   59.8128   28.0048   47.9980 H   0  0  0  0  0  0  0  0  0  0  0  0
   59.1857   27.2173   46.5103 H   0  0  0  0  0  0  0  0  0  0  0  0
   60.8187   27.9655   46.5103 H   0  0  0  0  0  0  0  0  0  0  0  0
   57.9554   27.1684   44.0970 H   0  0  0  0  0  0  0  0  0  0  0  0
   59.6748   33.0462   48.2202 H   0  0  0  0  0  0  0  0  0  0  0  0
   60.0979   35.5048   48.1588 H   0  0  0  0  0  0  0  0  0  0  0  0
   59.8350   36.7670   46.0187 H   0  0  0  0  0  0  0  0  0  0  0  0
   59.1487   35.5689   43.9378 H   0  0  0  0  0  0  0  0  0  0  0  0
   58.7266   33.1092   43.9919 H   0  0  0  0  0  0  0  0  0  0  0  0
   60.9010   30.8089   48.4046 H   0  0  0  0  0  0  0  0  0  0  0  0
   61.7621   30.0679   47.0131 H   0  0  0  0  0  0  0  0  0  0  0  0
   61.4029   31.8279   47.0131 H   0  0  0  0  0  0  0  0  0  0  0  0
  1  2  1  0
  2  3  2  0
  3  4  1  0
  4  5  2  3
  5  6  1  0
  6  7  2  0
  7  8  1  0
  7  9  1  0
  9 10  1  0
 10 11  2  0
 10 12  1  0
 12 13  1  0
 13 14  2  0
  3 15  1  0
 15 16  2  0
 15 17  1  0
 17 18  1  0
 18 19  2  0
 19 20  1  0
 20 21  2  0
 21 22  1  0
 22 23  2  0
 17 24  1  0
 24 25  1  0
 24  2  1  0
 13  6  1  0
 23 18  1  0
  1 26  1  0
  1 27  1  0
  1 28  1  0
  5 29  1  0
 19 30  1  0
 20 31  1  0
 21 32  1  0
 22 33  1  0
 23 34  1  0
 25 35  1  0
 25 36  1  0
 25 37  1  0
M  CHG  3   8  -1   9  -1  12  -1
M  END
>  <UniqueID>  (45) 
41

>  <SMILES>  (45) 
Cc1c(N=Cc2c([O-])[n-]c(=S)[n-]c2=O)c(=O)n(-c2ccccc2)n1C

>  <Energy>  (45) 
93.74192093910995

>  <Genealogy>  (45) 
Cc1c(N=Cc2c([O-])[n-]c(=S)[n-]c2=O)c(=O)n(-c2ccccc2)n1C (protonated)
Cc1c(N=Cc2c([O-])[n-]c(=S)[n-]c2=O)c(=O)n(-c2ccccc2)n1C (3D coordinates assigned)
Cc1c(N=Cc2c([O-])[n-]c(=S)[n-]c2=O)c(=O)n(-c2ccccc2)n1C (optimized conformer: 93.74192093910995 kcal/mol)

>  <smiles>  (45) 
Cc1c(N=Cc2c(O)[nH]c(=S)[nH]c2=O)c(=O)n(-c2ccccc2)n1C

>  <score_type>  (45) 
oracle

>  <origin>  (45) 
adg

>  <m_score__min__energy>  (45) 
-15.15

>  <m_primary>  (45) 
energy

$$$$
45:0
     RDKit          3D

 43 45  0  0  0  0  0  0  0  0999 V2000
   56.3830   27.0930   45.8160 N   0  0  0  0  0  0  0  0  0  0  0  0
   57.7400   27.5570   45.7400 C   0  0  0  0  0  0  0  0  0  0  0  0
   58.7210   26.8600   46.4670 C   0  0  0  0  0  0  0  0  0  0  0  0
   60.0540   27.2690   46.4440 C   0  0  0  0  0  0  0  0  0  0  0  0
   60.4300   28.3810   45.6930 C   0  0  0  0  0  0  0  0  0  0  0  0
   59.4740   29.0850   44.9600 C   0  0  0  0  0  0  0  0  0  0  0  0
   58.1230   28.6860   44.9630 C   0  0  0  0  0  0  0  0  0  0  0  0
   57.1580   29.5060   44.1380 C   0  0  0  0  0  0  0  0  0  0  0  0
   57.0620   30.8650   44.6670 N   0  0  0  0  0  0  0  0  0  0  0  0
   57.5280   32.0150   43.9470 C   0  0  0  0  0  0  0  0  0  0  0  0
   58.0840   31.8850   42.8240 O   0  0  0  0  0  0  0  0  0  0  0  0
   57.4020   33.3800   44.5520 C   0  0  0  0  0  0  0  0  0  0  0  0
   58.4740   33.5870   45.5850 C   0  0  0  0  0  0  0  0  0  0  0  0
   58.6030   32.6930   46.6590 C   0  0  0  0  0  0  0  0  0  0  0  0
   59.5770   32.9020   47.6390 C   0  0  0  0  0  0  0  0  0  0  0  0
   60.4340   34.0170   47.5630 C   0  0  0  0  0  0  0  0  0  0  0  0
   61.4290   34.2710   48.5190 O   0  0  0  0  0  0  0  0  0  0  0  0
   62.7620   33.7620   48.4610 C   0  0  0  0  0  0  0  0  0  0  0  0
   63.2140   33.5810   47.0230 C   0  0  0  0  0  0  0  0  0  0  0  0
   63.3740   31.7720   47.1180 S   0  0  0  0  0  0  0  0  0  0  0  0
   62.8220   32.2750   48.7760 C   0  0  0  0  0  0  0  0  0  0  0  0
   60.2940   34.9120   46.4970 C   0  0  0  0  0  0  0  0  0  0  0  0
   59.3200   34.7050   45.5170 C   0  0  0  0  0  0  0  0  0  0  0  0
   55.8300   27.0720   46.6960 H   0  0  0  0  0  0  0  0  0  0  0  0
   55.9160   26.7020   44.9680 H   0  0  0  0  0  0  0  0  0  0  0  0
   58.4333   25.9805   47.0617 H   0  0  0  0  0  0  0  0  0  0  0  0
   60.8093   26.7134   47.0192 H   0  0  0  0  0  0  0  0  0  0  0  0
   61.4814   28.7040   45.6780 H   0  0  0  0  0  0  0  0  0  0  0  0
   59.7793   29.9631   44.3720 H   0  0  0  0  0  0  0  0  0  0  0  0
   57.5139   29.5463   43.0979 H   0  0  0  0  0  0  0  0  0  0  0  0
   56.1643   29.0360   44.1798 H   0  0  0  0  0  0  0  0  0  0  0  0
   56.6400   30.9990   45.6130 H   0  0  0  0  0  0  0  0  0  0  0  0
   57.5057   34.1390   43.7626 H   0  0  0  0  0  0  0  0  0  0  0  0
   56.4165   33.4720   45.0318 H   0  0  0  0  0  0  0  0  0  0  0  0
   57.9337   31.8229   46.7298 H   0  0  0  0  0  0  0  0  0  0  0  0
   59.6748   32.1923   48.4737 H   0  0  0  0  0  0  0  0  0  0  0  0
   63.3178   34.4520   49.1129 H   0  0  0  0  0  0  0  0  0  0  0  0
   62.4573   33.9051   46.2934 H   0  0  0  0  0  0  0  0  0  0  0  0
   64.0950   34.1511   46.6931 H   0  0  0  0  0  0  0  0  0  0  0  0
   61.8417   31.8552   49.0459 H   0  0  0  0  0  0  0  0  0  0  0  0
   63.4369   31.9619   49.6326 H   0  0  0  0  0  0  0  0  0  0  0  0
   60.9571   35.7871   46.4297 H   0  0  0  0  0  0  0  0  0  0  0  0
   59.2157   35.4212   44.6886 H   0  0  0  0  0  0  0  0  0  0  0  0
  1  2  1  0
  2  3  2  0
  3  4  1  0
  4  5  2  0
  5  6  1  0
  6  7  2  0
  7  8  1  0
  8  9  1  0
  9 10  1  0
 10 11  2  0
 10 12  1  0
 12 13  1  0
 13 14  2  0
 14 15  1  0
 15 16  2  0
 16 17  1  0
 17 18  1  0
 18 19  1  0
 19 20  1  0
 20 21  1  0
 16 22  1  0
 22 23  2  0
  7  2  1  0
 23 13  1  0
 21 18  1  0
  1 24  1  0
  1 25  1  0
  3 26  1  0
  4 27  1  0
  5 28  1  0
  6 29  1  0
  8 30  1  0
  8 31  1  0
  9 32  1  0
 12 33  1  0
 12 34  1  0
 14 35  1  0
 15 36  1  0
 18 37  1  0
 19 38  1  0
 19 39  1  0
 21 40  1  0
 21 41  1  0
 22 42  1  0
 23 43  1  0
M  END
>  <UniqueID>  (46) 
42

>  <SMILES>  (46) 
Nc1ccccc1CNC(=O)Cc1ccc(OC2CSC2)cc1

>  <Energy>  (46) 
75.98826251267211

>  <Genealogy>  (46) 
Nc1ccccc1CNC(=O)Cc1ccc(OC2CSC2)cc1 (3D coordinates assigned)
Nc1ccccc1CNC(=O)Cc1ccc(OC2CSC2)cc1 (nonaromatic ring conformer: 75.98826251267211 kcal/mol)

>  <smiles>  (46) 
Nc1ccccc1CNC(=O)Cc1ccc(OC2CSC2)cc1

>  <score_type>  (46) 
oracle

>  <origin>  (46) 
adg

>  <m_score__min__energy>  (46) 
-8.4800000000000004

>  <m_primary>  (46) 
energy

$$$$
46:0
     RDKit          3D

 46 49  0  0  0  0  0  0  0  0999 V2000
   59.6150   35.0190   45.9750 C   0  0  0  0  0  0  0  0  0  0  0  0
   59.3860   33.5610   46.2540 C   0  0  0  0  0  0  0  0  0  0  0  0
   59.7820   32.9000   47.4260 C   0  0  0  0  0  0  0  0  0  0  0  0
   60.6710   33.5910   48.7790 S   0  0  0  0  0  0  0  0  0  0  0  0
   60.1540   34.9660   49.0890 O   0  0  0  0  0  0  0  0  0  0  0  0
   62.1230   33.6910   48.4060 O   0  0  0  0  0  0  0  0  0  0  0  0
   60.5100   32.5910   50.1840 N   0  0  0  0  0  0  0  0  0  0  0  0
   59.2710   32.1320   50.7400 C   0  0  0  0  0  0  0  0  0  0  0  0
   58.5450   32.9980   51.5670 C   0  0  0  0  0  0  0  0  0  0  0  0
   57.3340   32.5900   52.1330 C   0  0  0  0  0  0  0  0  0  0  0  0
   56.8350   31.3000   51.8900 C   0  0  0  0  0  0  0  0  0  0  0  0
   55.5550   30.8640   52.4900 C   0  0  0  0  0  0  0  0  0  0  0  0
   55.5430   30.1370   53.6920 C   0  0  0  0  0  0  0  0  0  0  0  0
   54.3330   29.7090   54.2460 C   0  0  0  0  0  0  0  0  0  0  0  0
   53.1260   29.9960   53.6030 C   0  0  0  0  0  0  0  0  0  0  0  0
   53.1220   30.7200   52.4020 C   0  0  0  0  0  0  0  0  0  0  0  0
   51.6050   31.0200   51.5590 S   0  0  0  0  0  0  0  0  0  0  0  0
   51.4940   32.7000   51.1620 N   0  0  0  0  0  0  0  0  0  0  0  0
   50.4450   30.6330   52.4320 O   0  0  0  0  0  0  0  0  0  0  0  0
   51.5530   30.2040   50.2970 O   0  0  0  0  0  0  0  0  0  0  0  0
   54.3350   31.1540   51.8510 C   0  0  0  0  0  0  0  0  0  0  0  0
   57.5610   30.4330   51.0590 C   0  0  0  0  0  0  0  0  0  0  0  0
   58.7630   30.8470   50.4810 C   0  0  0  0  0  0  0  0  0  0  0  0
   59.2810   31.2880   47.3670 S   0  0  0  0  0  0  0  0  0  0  0  0
   58.5570   31.4100   45.8600 C   0  0  0  0  0  0  0  0  0  0  0  0
   57.8970   30.4130   45.1450 C   0  0  0  0  0  0  0  0  0  0  0  0
   57.3500   30.7430   43.8940 C   0  0  0  0  0  0  0  0  0  0  0  0
   56.5110   29.5190   42.9590 Cl  0  0  0  0  0  0  0  0  0  0  0  0
   57.4680   32.0530   43.3930 C   0  0  0  0  0  0  0  0  0  0  0  0
   58.1370   33.0430   44.1340 C   0  0  0  0  0  0  0  0  0  0  0  0
   58.6870   32.7060   45.3780 C   0  0  0  0  0  0  0  0  0  0  0  0
   59.7008   35.5652   46.9259 H   0  0  0  0  0  0  0  0  0  0  0  0
   60.5432   35.1404   45.3974 H   0  0  0  0  0  0  0  0  0  0  0  0
   58.7687   35.4191   45.3974 H   0  0  0  0  0  0  0  0  0  0  0  0
   58.9309   34.0073   51.7728 H   0  0  0  0  0  0  0  0  0  0  0  0
   56.7684   33.2835   52.7726 H   0  0  0  0  0  0  0  0  0  0  0  0
   56.4904   29.9034   54.1998 H   0  0  0  0  0  0  0  0  0  0  0  0
   54.3310   29.1449   55.1904 H   0  0  0  0  0  0  0  0  0  0  0  0
   52.1766   29.6531   54.0400 H   0  0  0  0  0  0  0  0  0  0  0  0
   50.6470   33.0720   51.6460 H   0  0  0  0  0  0  0  0  0  0  0  0
   54.3337   31.7260   50.9114 H   0  0  0  0  0  0  0  0  0  0  0  0
   57.1805   29.4200   50.8615 H   0  0  0  0  0  0  0  0  0  0  0  0
   59.3155   30.1637   49.8193 H   0  0  0  0  0  0  0  0  0  0  0  0
   57.8066   29.3941   45.5495 H   0  0  0  0  0  0  0  0  0  0  0  0
   57.0335   32.3042   42.4142 H   0  0  0  0  0  0  0  0  0  0  0  0
   58.2274   34.0672   43.7429 H   0  0  0  0  0  0  0  0  0  0  0  0
  1  2  1  0
  2  3  2  0
  3  4  1  0
  4  5  2  0
  4  6  2  0
  4  7  1  0
  7  8  1  0
  8  9  2  0
  9 10  1  0
 10 11  2  0
 11 12  1  0
 12 13  2  0
 13 14  1  0
 14 15  2  0
 15 16  1  0
 16 17  1  0
 17 18  1  0
 17 19  2  0
 17 20  2  0
 16 21  2  0
 11 22  1  0
 22 23  2  0
  3 24  1  0
 24 25  1  0
 25 26  2  0
 26 27  1  0
 27 28  1  0
 27 29  2  0
 29 30  1  0
 30 31  2  0
 31  2  1  0
 23  8  1  0
 31 25  1  0
 21 12  1  0
  1 32  1  0
  1 33  1  0
  1 34  1  0
  9 35  1  0
 10 36  1  0
 13 37  1  0
 14 38  1  0
 15 39  1  0
 18 40  1  0
 21 41  1  0
 22 42  1  0
 23 43  1  0
 26 44  1  0
 29 45  1  0
 30 46  1  0
M  CHG  2   7  -1  18  -1
M  END
>  <UniqueID>  (47) 
43

>  <SMILES>  (47) 
Cc1c(S(=O)(=O)[N-]c2ccc(-c3cccc(S([NH-])(=O)=O)c3)cc2)sc2cc(Cl)ccc12

>  <Energy>  (47) 
89.61551324910137

>  <Genealogy>  (47) 
Cc1c(S(=O)(=O)[N-]c2ccc(-c3cccc(S([NH-])(=O)=O)c3)cc2)sc2cc(Cl)ccc12 (protonated)
Cc1c(S(=O)(=O)[N-]c2ccc(-c3cccc(S([NH-])(=O)=O)c3)cc2)sc2cc(Cl)ccc12 (3D coordinates assigned)
Cc1c(S(=O)(=O)[N-]c2ccc(-c3cccc(S([NH-])(=O)=O)c3)cc2)sc2cc(Cl)ccc12 (optimized conformer: 89.61551324910137 kcal/mol)

>  <smiles>  (47) 
Cc1c(S(=O)(=O)Nc2ccc(-c3cccc(S(N)(=O)=O)c3)cc2)sc2cc(Cl)ccc12

>  <score_type>  (47) 
oracle

>  <origin>  (47) 
adg

>  <m_score__min__energy>  (47) 
-14.210000000000001

>  <m_primary>  (47) 
energy

$$$$
47:0
     RDKit          3D

 44 45  0  0  0  0  0  0  0  0999 V2000
   61.3790   33.0020   50.4740 O   0  0  0  0  0  0  0  0  0  0  0  0
   60.9520   33.6500   49.4810 C   0  0  0  0  0  0  0  0  0  0  0  0
   59.5640   34.2150   49.5130 C   0  0  0  0  0  0  0  0  0  0  0  0
   59.2650   34.8880   48.2900 O   0  0  0  0  0  0  0  0  0  0  0  0
   58.9480   34.2600   47.0740 C   0  0  0  0  0  0  0  0  0  0  0  0
   59.3760   34.7560   45.8270 C   0  0  0  0  0  0  0  0  0  0  0  0
   59.0260   34.0920   44.6460 C   0  0  0  0  0  0  0  0  0  0  0  0
   58.2510   32.9290   44.6980 C   0  0  0  0  0  0  0  0  0  0  0  0
   57.7740   32.0250   43.0860 Br  0  0  0  0  0  0  0  0  0  0  0  0
   57.8270   32.4290   45.9330 C   0  0  0  0  0  0  0  0  0  0  0  0
   58.1760   33.0920   47.1140 C   0  0  0  0  0  0  0  0  0  0  0  0
   61.7700   33.8280   48.3140 N   0  0  0  0  0  0  0  0  0  0  0  0
   63.1400   33.4090   48.2360 C   0  0  0  0  0  0  0  0  0  0  0  0
   63.7730   33.0640   46.7610 S   0  0  0  0  0  0  0  0  0  0  0  0
   63.9810   33.4460   49.4050 N   0  0  0  0  0  0  0  0  0  0  0  0
   65.2650   32.7500   49.5040 C   0  0  0  0  0  0  0  0  0  0  0  0
   65.2980   31.8760   50.7710 C   0  0  0  0  0  0  0  0  0  0  0  0
   65.5080   32.6240   52.0390 N   0  0  0  0  0  0  0  0  0  0  0  0
   64.3330   32.5970   52.9470 C   0  0  0  0  0  0  0  0  0  0  0  0
   63.3300   33.7550   52.7140 C   0  0  0  0  0  0  0  0  0  0  0  0
   63.8010   34.7380   51.8140 O   0  0  0  0  0  0  0  0  0  0  0  0
   65.1100   35.1120   52.1710 C   0  0  0  0  0  0  0  0  0  0  0  0
   66.0900   33.9800   51.8380 C   0  0  0  0  0  0  0  0  0  0  0  0
   58.8442   33.3963   49.6600 H   0  0  0  0  0  0  0  0  0  0  0  0
   59.4949   34.9369   50.3401 H   0  0  0  0  0  0  0  0  0  0  0  0
   59.9878   35.6690   45.7814 H   0  0  0  0  0  0  0  0  0  0  0  0
   59.3611   34.4855   43.6750 H   0  0  0  0  0  0  0  0  0  0  0  0
   57.2185   31.5136   45.9758 H   0  0  0  0  0  0  0  0  0  0  0  0
   57.8413   32.6927   48.0827 H   0  0  0  0  0  0  0  0  0  0  0  0
   61.3150   34.1950   47.4480 H   0  0  0  0  0  0  0  0  0  0  0  0
   63.6790   34.0260   50.2190 H   0  0  0  0  0  0  0  0  0  0  0  0
   65.4020   32.1120   48.6185 H   0  0  0  0  0  0  0  0  0  0  0  0
   66.0737   33.4936   49.5590 H   0  0  0  0  0  0  0  0  0  0  0  0
   64.3391   31.3420   50.8435 H   0  0  0  0  0  0  0  0  0  0  0  0
   66.1618   31.2038   50.6612 H   0  0  0  0  0  0  0  0  0  0  0  0
   66.2460   32.0700   52.5360 H   0  0  0  0  0  0  0  0  0  0  0  0
   63.8027   31.6448   52.7983 H   0  0  0  0  0  0  0  0  0  0  0  0
   64.7190   32.7113   53.9707 H   0  0  0  0  0  0  0  0  0  0  0  0
   62.3980   33.3322   52.3109 H   0  0  0  0  0  0  0  0  0  0  0  0
   63.1786   34.2512   53.6840 H   0  0  0  0  0  0  0  0  0  0  0  0
   65.3952   36.0162   51.6132 H   0  0  0  0  0  0  0  0  0  0  0  0
   65.1453   35.3129   53.2519 H   0  0  0  0  0  0  0  0  0  0  0  0
   66.3932   34.0781   50.7852 H   0  0  0  0  0  0  0  0  0  0  0  0
   66.9448   34.0745   52.5238 H   0  0  0  0  0  0  0  0  0  0  0  0
  1  2  2  0
  2  3  1  0
  3  4  1  0
  4  5  1  0
  5  6  2  0
  6  7  1  0
  7  8  2  0
  8  9  1  0
  8 10  1  0
 10 11  2  0
  2 12  1  0
 12 13  1  0
 13 14  2  0
 13 15  1  0
 15 16  1  0
 16 17  1  0
 17 18  1  0
 18 19  1  0
 19 20  1  0
 20 21  1  0
 21 22  1  0
 22 23  1  0
 11  5  1  0
 23 18  1  0
  3 24  1  0
  3 25  1  0
  6 26  1  0
  7 27  1  0
 10 28  1  0
 11 29  1  0
 12 30  1  0
 15 31  1  0
 16 32  1  0
 16 33  1  0
 17 34  1  0
 17 35  1  0
 18 36  1  0
 19 37  1  0
 19 38  1  0
 20 39  1  0
 20 40  1  0
 22 41  1  0
 22 42  1  0
 23 43  1  0
 23 44  1  0
M  CHG  1  18   1
M  END
>  <UniqueID>  (48) 
44

>  <SMILES>  (48) 
O=C(COc1ccc(Br)cc1)NC(=S)NCC[NH+]1CCOCC1

>  <Energy>  (48) 
57.817326105046774

>  <Genealogy>  (48) 
O=C(COc1ccc(Br)cc1)NC(=S)NCC[NH+]1CCOCC1 (protonated)
O=C(COc1ccc(Br)cc1)NC(=S)NCC[NH+]1CCOCC1 (3D coordinates assigned)
O=C(COc1ccc(Br)cc1)NC(=S)NCC[NH+]1CCOCC1 (nonaromatic ring conformer: 57.817326105046774 kcal/mol)

>  <smiles>  (48) 
O=C(COc1ccc(Br)cc1)NC(=S)NCCN1CCOCC1

>  <score_type>  (48) 
oracle

>  <origin>  (48) 
adg

>  <m_score__min__energy>  (48) 
-5.3600000000000003

>  <m_primary>  (48) 
energy

$$$$
48:0
     RDKit          3D

 31 32  0  0  0  0  0  0  0  0999 V2000
   57.0747   30.2184   42.3335 H   0  0  0  0  0  0  0  0  0  0  0  0
   57.3020   30.9510   43.1220 C   0  0  0  0  0  0  0  0  0  0  0  0
   57.0120   30.6570   44.4660 C   0  0  0  0  0  0  0  0  0  0  0  0
   56.4020   29.3660   44.8500 C   0  0  0  0  0  0  0  0  0  0  0  0
   55.1460   29.2490   44.8590 O   0  0  0  0  0  0  0  0  0  0  0  0
   57.2320   28.2430   45.2010 N   0  0  0  0  0  0  0  0  0  0  0  0
   58.2700   28.3500   45.1510 H   0  0  0  0  0  0  0  0  0  0  0  0
   56.7160   26.9720   45.6280 C   0  0  0  0  0  0  0  0  0  0  0  0
   55.5180   26.8630   46.0010 O   0  0  0  0  0  0  0  0  0  0  0  0
   57.5830   25.8350   45.7490 N   0  0  0  0  0  0  0  0  0  0  0  0
   57.4560   24.6700   45.1740 C   0  0  0  0  0  0  0  0  0  0  0  0
   58.4890   23.7080   45.1730 C   0  0  0  0  0  0  0  0  0  0  0  0
   59.4444   23.9220   45.6745 H   0  0  0  0  0  0  0  0  0  0  0  0
   58.2920   22.4850   44.5330 C   0  0  0  0  0  0  0  0  0  0  0  0
   59.0892   21.7271   44.5361 H   0  0  0  0  0  0  0  0  0  0  0  0
   57.0830   22.2240   43.8890 C   0  0  0  0  0  0  0  0  0  0  0  0
   56.9168   21.2589   43.3881 H   0  0  0  0  0  0  0  0  0  0  0  0
   56.0880   23.1990   43.8870 C   0  0  0  0  0  0  0  0  0  0  0  0
   55.1331   23.0056   43.3764 H   0  0  0  0  0  0  0  0  0  0  0  0
   56.2920   24.3900   44.5140 N   0  0  0  0  0  0  0  0  0  0  0  0
   55.5260   25.1010   44.4930 H   0  0  0  0  0  0  0  0  0  0  0  0
   57.3030   31.5810   45.4230 N   0  0  0  0  0  0  0  0  0  0  0  0
   57.8670   32.7850   45.1300 C   0  0  0  0  0  0  0  0  0  0  0  0
   58.1600   33.7580   46.2250 C   0  0  0  0  0  0  0  0  0  0  0  0
   58.0127   33.2689   47.1992 H   0  0  0  0  0  0  0  0  0  0  0  0
   59.2015   34.1018   46.1410 H   0  0  0  0  0  0  0  0  0  0  0  0
   57.4815   34.6197   46.1410 H   0  0  0  0  0  0  0  0  0  0  0  0
   58.1650   33.1030   43.8000 C   0  0  0  0  0  0  0  0  0  0  0  0
   58.6195   34.0728   43.5494 H   0  0  0  0  0  0  0  0  0  0  0  0
   57.8800   32.1780   42.7950 C   0  0  0  0  0  0  0  0  0  0  0  0
   58.1108   32.4159   41.7461 H   0  0  0  0  0  0  0  0  0  0  0  0
  1  2  1  0
  2  3  2  0
  3  4  1  0
  4  5  2  0
  4  6  1  0
  6  7  1  0
  6  8  1  0
  8  9  2  0
  8 10  1  0
 10 11  2  0
 11 12  1  0
 12 13  1  0
 12 14  2  0
 14 15  1  0
 14 16  1  0
 16 17  1  0
 16 18  2  0
 18 19  1  0
 18 20  1  0
 20 21  1  0
  3 22  1  0
 22 23  2  0
 23 24  1  0
 24 25  1  0
 24 26  1  0
 24 27  1  0
 23 28  1  0
 28 29  1  0
 28 30  2  0
 30 31  1  0
 30  2  1  0
 20 11  1  0
M  END
>  <UniqueID>  (49) 
45

>  <SMILES>  (49) 
Cc1cccc(C(=O)NC(=O)/N=c2\cccc[nH]2)n1

>  <Energy>  (49) 
39.7120640214864

>  <Genealogy>  (49) 
Cc1cccc(C(=O)NC(=O)/N=c2\cccc[nH]2)n1 (cis-trans isomerization)
Cc1cccc(C(=O)NC(=O)/N=c2\cccc[nH]2)n1 (3D coordinates assigned)
Cc1cccc(C(=O)NC(=O)/N=c2\cccc[nH]2)n1 (optimized conformer: 39.7120640214864 kcal/mol)

>  <smiles>  (49) 
Cc1cccc(C(=O)NC(=O)N=c2cccc[nH]2)n1

>  <score_type>  (49) 
oracle

>  <origin>  (49) 
adg

>  <m_score__min__energy>  (49) 
-7.79

>  <m_primary>  (49) 
energy

$$$$
49:0
     RDKit          3D

 50 52  0  0  0  0  0  0  0  0999 V2000
   51.3200   32.5940   52.3990 H   0  0  0  0  0  0  0  0  0  0  0  0
   51.3960   32.8510   51.3890 N   0  0  0  0  0  0  0  0  0  0  0  0
   51.4100   31.9510   50.4580 C   0  0  0  0  0  0  0  0  0  0  0  0
   50.6460   32.1270   49.3430 N   0  0  0  0  0  0  0  0  0  0  0  0
   50.6360   31.2260   48.3270 C   0  0  0  0  0  0  0  0  0  0  0  0
   50.0041   31.4015   47.4439 H   0  0  0  0  0  0  0  0  0  0  0  0
   51.4250   30.0790   48.4010 C   0  0  0  0  0  0  0  0  0  0  0  0
   51.4218   29.3485   47.5786 H   0  0  0  0  0  0  0  0  0  0  0  0
   52.2190   29.8670   49.5290 C   0  0  0  0  0  0  0  0  0  0  0  0
   52.8449   28.9650   49.5968 H   0  0  0  0  0  0  0  0  0  0  0  0
   52.2220   30.8010   50.5780 C   0  0  0  0  0  0  0  0  0  0  0  0
   53.0570   30.5540   51.7790 C   0  0  0  0  0  0  0  0  0  0  0  0
   54.4530   30.4560   51.6510 C   0  0  0  0  0  0  0  0  0  0  0  0
   54.9179   30.5511   50.6586 H   0  0  0  0  0  0  0  0  0  0  0  0
   55.2580   30.2380   52.7780 C   0  0  0  0  0  0  0  0  0  0  0  0
   57.0120   30.1410   52.6270 S   0  0  0  0  0  0  0  0  0  0  0  0
   57.4730   28.8630   53.2720 O   0  0  0  0  0  0  0  0  0  0  0  0
   57.4000   30.1130   51.1770 O   0  0  0  0  0  0  0  0  0  0  0  0
   57.7370   31.5130   53.4350 N   0  0  0  0  0  0  0  0  0  0  0  0
   57.4760   32.7920   52.7330 C   0  0  0  0  0  0  0  0  0  0  0  0
   56.7990   32.5940   51.8889 H   0  0  0  0  0  0  0  0  0  0  0  0
   57.0352   33.4807   53.4688 H   0  0  0  0  0  0  0  0  0  0  0  0
   58.7490   33.4650   52.1890 C   0  0  0  0  0  0  0  0  0  0  0  0
   58.4682   34.2326   51.4528 H   0  0  0  0  0  0  0  0  0  0  0  0
   59.2954   33.9281   53.0239 H   0  0  0  0  0  0  0  0  0  0  0  0
   59.6180   32.4620   51.5410 N   0  0  0  0  0  0  0  0  0  0  0  0
   59.0540   31.9650   50.8140 H   0  0  0  0  0  0  0  0  0  0  0  0
   60.7810   33.1020   50.8710 C   0  0  0  0  0  0  0  0  0  0  0  0
   60.9192   34.1071   51.2960 H   0  0  0  0  0  0  0  0  0  0  0  0
   61.6537   32.4553   51.0445 H   0  0  0  0  0  0  0  0  0  0  0  0
   60.6080   33.2350   49.3500 C   0  0  0  0  0  0  0  0  0  0  0  0
   60.7269   34.2894   49.0599 H   0  0  0  0  0  0  0  0  0  0  0  0
   61.3686   32.6228   48.8433 H   0  0  0  0  0  0  0  0  0  0  0  0
   59.3220   32.7870   48.9730 O   0  0  0  0  0  0  0  0  0  0  0  0
   58.8830   33.5130   47.8470 C   0  0  0  0  0  0  0  0  0  0  0  0
   58.3402   34.4106   48.1783 H   0  0  0  0  0  0  0  0  0  0  0  0
   59.7517   33.8122   47.2421 H   0  0  0  0  0  0  0  0  0  0  0  0
   58.2146   32.8827   47.2421 H   0  0  0  0  0  0  0  0  0  0  0  0
   60.0880   31.4490   52.5250 C   0  0  0  0  0  0  0  0  0  0  0  0
   60.1647   30.4787   52.0124 H   0  0  0  0  0  0  0  0  0  0  0  0
   61.0560   31.8037   52.9086 H   0  0  0  0  0  0  0  0  0  0  0  0
   59.1570   31.2800   53.7490 C   0  0  0  0  0  0  0  0  0  0  0  0
   59.2665   30.2549   54.1325 H   0  0  0  0  0  0  0  0  0  0  0  0
   59.4551   32.0337   54.4927 H   0  0  0  0  0  0  0  0  0  0  0  0
   54.6660   30.1260   54.0410 C   0  0  0  0  0  0  0  0  0  0  0  0
   55.2947   29.9618   54.9286 H   0  0  0  0  0  0  0  0  0  0  0  0
   53.2800   30.2220   54.1780 C   0  0  0  0  0  0  0  0  0  0  0  0
   52.8206   30.1321   55.1734 H   0  0  0  0  0  0  0  0  0  0  0  0
   52.4730   30.4320   53.0550 C   0  0  0  0  0  0  0  0  0  0  0  0
   51.0930   30.5070   53.2140 O   0  0  0  0  0  0  0  0  0  0  0  0
  1  2  1  0
  2  3  2  0
  3  4  1  0
  4  5  1  0
  5  6  1  0
  5  7  2  0
  7  8  1  0
  7  9  1  0
  9 10  1  0
  9 11  2  0
 11 12  1  0
 12 13  2  0
 13 14  1  0
 13 15  1  0
 15 16  1  0
 16 17  2  0
 16 18  2  0
 16 19  1  0
 19 20  1  0
 20 21  1  0
 20 22  1  0
 20 23  1  0
 23 24  1  0
 23 25  1  0
 23 26  1  0
 26 27  1  0
 26 28  1  0
 28 29  1  0
 28 30  1  0
 28 31  1  0
 31 32  1  0
 31 33  1  0
 31 34  1  0
 34 35  1  0
 35 36  1  0
 35 37  1  0
 35 38  1  0
 26 39  1  0
 39 40  1  0
 39 41  1  0
 39 42  1  0
 42 43  1  0
 42 44  1  0
 15 45  2  0
 45 46  1  0
 45 47  1  0
 47 48  1  0
 47 49  2  0
 49 50  1  0
 11  3  1  0
 49 12  1  0
 42 19  1  0
M  CHG  3   4  -1  26   1  50  -1
M  END
>  <UniqueID>  (50) 
46

>  <SMILES>  (50) 
[H]/N=c1\[n-]cccc1-c1cc(S(=O)(=O)N2CC[NH+](CCOC)CC2)ccc1[O-]

>  <Energy>  (50) 
73.00957610776057

>  <Genealogy>  (50) 
COCC[NH+]1CCN(S(=O)(=O)c2ccc([O-])c(-c3ccc[n-]c3=N)c2)CC1 (protonated)
[H]/N=c1\[n-]cccc1-c1cc(S(=O)(=O)N2CC[NH+](CCOC)CC2)ccc1[O-] (cis-trans isomerization)
[H]/N=c1\[n-]cccc1-c1cc(S(=O)(=O)N2CC[NH+](CCOC)CC2)ccc1[O-] (3D coordinates assigned)
[H]/N=c1\[n-]cccc1-c1cc(S(=O)(=O)N2CC[NH+](CCOC)CC2)ccc1[O-] (nonaromatic ring conformer: 73.00957610776057 kcal/mol)

>  <smiles>  (50) 
COCCN1CCN(S(=O)(=O)c2ccc(O)c(-c3ccc[nH]c3=N)c2)CC1

>  <score_type>  (50) 
oracle

>  <origin>  (50) 
adg

>  <m_score__min__energy>  (50) 
-10.300000000000001

>  <m_primary>  (50) 
energy

$$$$
50:0
     RDKit          3D

 51 54  0  0  0  0  0  0  0  0999 V2000
   57.2466   23.9447   45.0054 H   0  0  0  0  0  0  0  0  0  0  0  0
   57.0560   24.9980   45.2590 C   0  0  0  0  0  0  0  0  0  0  0  0
   55.9710   25.2720   46.2220 C   0  0  0  0  0  0  0  0  0  0  0  0
   55.1760   26.2200   45.9770 O   0  0  0  0  0  0  0  0  0  0  0  0
   55.8690   24.5280   47.4460 N   0  0  0  0  0  0  0  0  0  0  0  0
   55.9090   23.2340   47.5640 C   0  0  0  0  0  0  0  0  0  0  0  0
   57.0470   22.5810   47.8700 N   0  0  0  0  0  0  0  0  0  0  0  0
   56.6810   21.2890   47.8750 C   0  0  0  0  0  0  0  0  0  0  0  0
   57.3471   20.4401   48.0890 H   0  0  0  0  0  0  0  0  0  0  0  0
   55.3440   21.1930   47.5710 C   0  0  0  0  0  0  0  0  0  0  0  0
   54.7726   20.2555   47.5035 H   0  0  0  0  0  0  0  0  0  0  0  0
   54.8440   22.4250   47.3690 N   0  0  0  0  0  0  0  0  0  0  0  0
   57.8310   25.9200   44.6650 C   0  0  0  0  0  0  0  0  0  0  0  0
   58.5027   25.5723   43.8663 H   0  0  0  0  0  0  0  0  0  0  0  0
   57.8600   27.3610   44.9910 C   0  0  0  0  0  0  0  0  0  0  0  0
   58.0920   27.8100   46.3020 C   0  0  0  0  0  0  0  0  0  0  0  0
   58.2432   27.0796   47.1105 H   0  0  0  0  0  0  0  0  0  0  0  0
   58.1320   29.1760   46.5860 C   0  0  0  0  0  0  0  0  0  0  0  0
   58.2805   29.5166   47.6214 H   0  0  0  0  0  0  0  0  0  0  0  0
   57.9830   30.1190   45.5520 C   0  0  0  0  0  0  0  0  0  0  0  0
   58.0070   31.5020   45.7960 C   0  0  0  0  0  0  0  0  0  0  0  0
   58.1430   31.9240   46.9790 O   0  0  0  0  0  0  0  0  0  0  0  0
   57.8700   32.3890   44.7550 N   0  0  0  0  0  0  0  0  0  0  0  0
   57.8070   33.8450   45.0150 C   0  0  0  0  0  0  0  0  0  0  0  0
   57.3407   34.0131   45.9970 H   0  0  0  0  0  0  0  0  0  0  0  0
   57.2144   34.3135   44.2154 H   0  0  0  0  0  0  0  0  0  0  0  0
   59.2080   34.4780   45.0120 C   0  0  0  0  0  0  0  0  0  0  0  0
   59.1107   35.5575   44.8244 H   0  0  0  0  0  0  0  0  0  0  0  0
   59.8014   33.9919   44.2236 H   0  0  0  0  0  0  0  0  0  0  0  0
   59.9170   34.2730   46.3260 C   0  0  0  0  0  0  0  0  0  0  0  0
   59.2830   34.6010   47.5340 C   0  0  0  0  0  0  0  0  0  0  0  0
   58.2454   34.9662   47.5274 H   0  0  0  0  0  0  0  0  0  0  0  0
   59.9660   34.4650   48.7450 C   0  0  0  0  0  0  0  0  0  0  0  0
   59.4604   34.7103   49.6906 H   0  0  0  0  0  0  0  0  0  0  0  0
   61.2900   34.0180   48.7580 C   0  0  0  0  0  0  0  0  0  0  0  0
   61.8208   33.9107   49.7155 H   0  0  0  0  0  0  0  0  0  0  0  0
   61.9450   33.7060   47.5620 C   0  0  0  0  0  0  0  0  0  0  0  0
   63.2830   33.2900   47.6230 O   0  0  0  0  0  0  0  0  0  0  0  0
   63.8670   32.6240   48.7380 C   0  0  0  0  0  0  0  0  0  0  0  0
   63.4820   33.0631   49.6702 H   0  0  0  0  0  0  0  0  0  0  0  0
   63.6098   31.5551   48.7025 H   0  0  0  0  0  0  0  0  0  0  0  0
   64.9604   32.7394   48.7025 H   0  0  0  0  0  0  0  0  0  0  0  0
   61.2490   33.8260   46.3450 C   0  0  0  0  0  0  0  0  0  0  0  0
   61.7515   33.5679   45.4012 H   0  0  0  0  0  0  0  0  0  0  0  0
   57.7200   31.9200   43.4730 C   0  0  0  0  0  0  0  0  0  0  0  0
   57.6020   32.7240   42.5070 O   0  0  0  0  0  0  0  0  0  0  0  0
   57.6870   30.5840   43.2250 N   0  0  0  0  0  0  0  0  0  0  0  0
   57.5610   30.2560   42.2390 H   0  0  0  0  0  0  0  0  0  0  0  0
   57.8050   29.6750   44.2290 C   0  0  0  0  0  0  0  0  0  0  0  0
   57.7500   28.3000   43.9560 C   0  0  0  0  0  0  0  0  0  0  0  0
   57.6193   27.9553   42.9196 H   0  0  0  0  0  0  0  0  0  0  0  0
  1  2  1  0
  2  3  1  0
  3  4  2  0
  3  5  1  0
  5  6  2  3
  6  7  1  0
  7  8  1  0
  8  9  1  0
  8 10  2  0
 10 11  1  0
 10 12  1  0
  2 13  2  0
 13 14  1  0
 13 15  1  0
 15 16  2  0
 16 17  1  0
 16 18  1  0
 18 19  1  0
 18 20  2  0
 20 21  1  0
 21 22  2  0
 21 23  1  0
 23 24  1  0
 24 25  1  0
 24 26  1  0
 24 27  1  0
 27 28  1  0
 27 29  1  0
 27 30  1  0
 30 31  2  0
 31 32  1  0
 31 33  1  0
 33 34  1  0
 33 35  2  0
 35 36  1  0
 35 37  1  0
 37 38  1  0
 38 39  1  0
 39 40  1  0
 39 41  1  0
 39 42  1  0
 37 43  2  0
 43 44  1  0
 23 45  1  0
 45 46  2  0
 45 47  1  0
 47 48  1  0
 47 49  1  0
 49 50  2  0
 50 51  1  0
 12  6  1  0
 50 15  1  0
 49 20  1  0
 43 30  1  0
M  CHG  2   7  -1  12  -1
M  END
>  <UniqueID>  (51) 
47

>  <SMILES>  (51) 
COc1cccc(CCn2c(=O)[nH]c3cc(/C=C\C(=O)N=c4[n-]cc[n-]4)ccc3c2=O)c1

>  <Energy>  (51) 
92.99295914354371

>  <Genealogy>  (51) 
COc1cccc(CCn2c(=O)[nH]c3cc(C=CC(=O)N=c4[n-]cc[n-]4)ccc3c2=O)c1 (protonated)
COc1cccc(CCn2c(=O)[nH]c3cc(/C=C\C(=O)N=c4[n-]cc[n-]4)ccc3c2=O)c1 (cis-trans isomerization)
COc1cccc(CCn2c(=O)[nH]c3cc(/C=C\C(=O)N=c4[n-]cc[n-]4)ccc3c2=O)c1 (3D coordinates assigned)
COc1cccc(CCn2c(=O)[nH]c3cc(/C=C\C(=O)N=c4[n-]cc[n-]4)ccc3c2=O)c1 (optimized conformer: 92.99295914354371 kcal/mol)

>  <smiles>  (51) 
COc1cccc(CCn2c(=O)[nH]c3cc(C=CC(=O)N=c4[nH]cc[nH]4)ccc3c2=O)c1

>  <score_type>  (51) 
oracle

>  <origin>  (51) 
adg

>  <m_score__min__energy>  (51) 
-12.779999999999999

>  <m_primary>  (51) 
energy

$$$$
51:0
     RDKit          3D

 71 75  0  0  0  0  0  0  0  0999 V2000
   62.4660   33.7560   46.0460 C   0  0  0  0  0  0  0  0  0  0  0  0
   61.0200   33.5550   46.5150 C   0  0  2  0  0  0  0  0  0  0  0  0
   60.4140   34.8990   46.9690 C   0  0  0  0  0  0  0  0  0  0  0  0
   59.1590   34.6940   47.7180 N   0  0  0  0  0  0  0  0  0  0  0  0
   58.0560   34.2080   46.8530 C   0  0  0  0  0  0  0  0  0  0  0  0
   58.4910   34.1910   45.3850 C   0  0  0  0  0  0  0  0  0  0  0  0
   58.0610   32.9660   44.7150 N   0  0  0  0  0  0  0  0  0  0  0  0
   57.7280   31.8070   45.3120 C   0  0  0  0  0  0  0  0  0  0  0  0
   57.4080   30.8670   44.3530 C   0  0  0  0  0  0  0  0  0  0  0  0
   57.5560   31.4870   43.1260 C   0  0  0  0  0  0  0  0  0  0  0  0
   57.9610   32.7800   43.3840 C   0  0  0  0  0  0  0  0  0  0  0  0
   59.3450   33.8800   48.9510 C   0  0  0  0  0  0  0  0  0  0  0  0
   60.6290   33.0230   48.9620 C   0  0  0  0  0  0  0  0  0  0  0  0
   60.9620   32.5700   47.6100 N   0  0  0  0  0  0  0  0  0  0  0  0
   61.4290   31.2210   47.4080 C   0  0  0  0  0  0  0  0  0  0  0  0
   62.6510   30.9550   47.5650 O   0  0  0  0  0  0  0  0  0  0  0  0
   60.5000   30.1400   47.0220 C   0  0  0  0  0  0  0  0  0  0  0  0
   59.6680   29.5450   47.9820 C   0  0  0  0  0  0  0  0  0  0  0  0
   58.7990   28.5120   47.6230 C   0  0  0  0  0  0  0  0  0  0  0  0
   58.7490   28.0560   46.2950 C   0  0  0  0  0  0  0  0  0  0  0  0
   57.8410   27.0140   45.9070 N   0  0  0  0  0  0  0  0  0  0  0  0
   57.7960   25.7380   46.5650 C   0  0  0  0  0  0  0  0  0  0  0  0
   58.8080   25.3190   47.1940 O   0  0  0  0  0  0  0  0  0  0  0  0
   56.6250   24.9150   46.4800 N   0  0  0  0  0  0  0  0  0  0  0  0
   56.3880   23.7660   47.3570 C   0  0  0  0  0  0  0  0  0  0  0  0
   55.0280   23.3240   46.9650 C   0  0  0  0  0  0  0  0  0  0  0  0
   54.2950   22.2550   47.4790 C   0  0  0  0  0  0  0  0  0  0  0  0
   53.0160   22.0070   46.9570 C   0  0  0  0  0  0  0  0  0  0  0  0
   52.4860   22.8320   45.9410 C   0  0  0  0  0  0  0  0  0  0  0  0
   50.8880   22.4990   45.2820 S   0  0  0  0  0  0  0  0  0  0  0  0
   50.3960   23.8480   44.2340 C   0  0  0  0  0  0  0  0  0  0  0  0
   50.9250   21.2260   44.4830 O   0  0  0  0  0  0  0  0  0  0  0  0
   49.8950   22.3420   46.3990 O   0  0  0  0  0  0  0  0  0  0  0  0
   53.2460   23.9080   45.4420 C   0  0  0  0  0  0  0  0  0  0  0  0
   54.5170   24.1300   45.9730 C   0  0  0  0  0  0  0  0  0  0  0  0
   55.4900   25.1830   45.5950 C   0  0  0  0  0  0  0  0  0  0  0  0
   59.5730   28.6570   45.3330 C   0  0  0  0  0  0  0  0  0  0  0  0
   60.4550   29.6810   45.6960 C   0  0  0  0  0  0  0  0  0  0  0  0
   63.1259   33.8477   46.9212 H   0  0  0  0  0  0  0  0  0  0  0  0
   62.7783   32.8926   45.4402 H   0  0  0  0  0  0  0  0  0  0  0  0
   62.5310   34.6718   45.4402 H   0  0  0  0  0  0  0  0  0  0  0  0
   60.4301   33.1692   45.6705 H   0  0  0  0  0  0  0  0  0  0  0  0
   61.1368   35.4181   47.6156 H   0  0  0  0  0  0  0  0  0  0  0  0
   60.1913   35.4998   46.0749 H   0  0  0  0  0  0  0  0  0  0  0  0
   57.7781   33.1888   47.1597 H   0  0  0  0  0  0  0  0  0  0  0  0
   57.1958   34.8851   46.9605 H   0  0  0  0  0  0  0  0  0  0  0  0
   58.0463   35.0554   44.8701 H   0  0  0  0  0  0  0  0  0  0  0  0
   59.5894   34.2375   45.3492 H   0  0  0  0  0  0  0  0  0  0  0  0
   57.7130   31.6348   46.3983 H   0  0  0  0  0  0  0  0  0  0  0  0
   57.0960   29.8272   44.5304 H   0  0  0  0  0  0  0  0  0  0  0  0
   57.3843   31.0369   42.1371 H   0  0  0  0  0  0  0  0  0  0  0  0
   58.1704   33.5430   42.6199 H   0  0  0  0  0  0  0  0  0  0  0  0
   59.3801   34.5634   49.8123 H   0  0  0  0  0  0  0  0  0  0  0  0
   58.4990   33.1783   48.9944 H   0  0  0  0  0  0  0  0  0  0  0  0
   61.4612   33.6248   49.3561 H   0  0  0  0  0  0  0  0  0  0  0  0
   60.4598   32.1416   49.5980 H   0  0  0  0  0  0  0  0  0  0  0  0
   59.7001   29.8943   49.0246 H   0  0  0  0  0  0  0  0  0  0  0  0
   58.1505   28.0532   48.3839 H   0  0  0  0  0  0  0  0  0  0  0  0
   57.2490   27.1640   45.0600 H   0  0  0  0  0  0  0  0  0  0  0  0
   57.1287   22.9726   47.1784 H   0  0  0  0  0  0  0  0  0  0  0  0
   56.4735   24.0109   48.4260 H   0  0  0  0  0  0  0  0  0  0  0  0
   54.7099   21.6202   48.2758 H   0  0  0  0  0  0  0  0  0  0  0  0
   52.4226   21.1645   47.3419 H   0  0  0  0  0  0  0  0  0  0  0  0
   50.0850   24.7006   44.8555 H   0  0  0  0  0  0  0  0  0  0  0  0
   51.2430   24.1468   43.5990 H   0  0  0  0  0  0  0  0  0  0  0  0
   49.5555   23.5313   43.5990 H   0  0  0  0  0  0  0  0  0  0  0  0
   52.8460   24.5592   44.6508 H   0  0  0  0  0  0  0  0  0  0  0  0
   55.7820   25.0907   44.5385 H   0  0  0  0  0  0  0  0  0  0  0  0
   55.0891   26.2019   45.7003 H   0  0  0  0  0  0  0  0  0  0  0  0
   59.5259   28.3215   44.2865 H   0  0  0  0  0  0  0  0  0  0  0  0
   61.1160   30.1283   44.9390 H   0  0  0  0  0  0  0  0  0  0  0  0
  1  2  1  0
  2  3  1  0
  3  4  1  0
  4  5  1  0
  5  6  1  0
  6  7  1  0
  7  8  1  0
  8  9  2  0
  9 10  1  0
 10 11  2  0
  4 12  1  0
 12 13  1  0
 13 14  1  0
 14 15  1  0
 15 16  2  0
 15 17  1  0
 17 18  2  0
 18 19  1  0
 19 20  2  0
 20 21  1  0
 21 22  1  0
 22 23  2  0
 22 24  1  0
 24 25  1  0
 25 26  1  0
 26 27  2  0
 27 28  1  0
 28 29  2  0
 29 30  1  0
 30 31  1  0
 30 32  2  0
 30 33  2  0
 29 34  1  0
 34 35  2  0
 35 36  1  0
 20 37  1  0
 37 38  2  0
 14  2  1  0
 38 17  1  0
 11  7  1  0
 36 24  1  0
 35 26  1  0
  1 39  1  0
  1 40  1  0
  1 41  1  0
  2 42  1  6
  3 43  1  0
  3 44  1  0
  5 45  1  0
  5 46  1  0
  6 47  1  0
  6 48  1  0
  8 49  1  0
  9 50  1  0
 10 51  1  0
 11 52  1  0
 12 53  1  0
 12 54  1  0
 13 55  1  0
 13 56  1  0
 18 57  1  0
 19 58  1  0
 21 59  1  0
 25 60  1  0
 25 61  1  0
 27 62  1  0
 28 63  1  0
 31 64  1  0
 31 65  1  0
 31 66  1  0
 34 67  1  0
 36 68  1  0
 36 69  1  0
 37 70  1  0
 38 71  1  0
M  END
>  <UniqueID>  (52) 
48

>  <SMILES>  (52) 
C[C@@H]1CN(CCn2cccc2)CCN1C(=O)c1ccc(NC(=O)N2Cc3ccc(S(C)(=O)=O)cc3C2)cc1

>  <Energy>  (52) 
120.28649537278096

>  <Genealogy>  (52) 
C[C@@H]1CN(CCn2cccc2)CCN1C(=O)c1ccc(NC(=O)N2Cc3ccc(S(C)(=O)=O)cc3C2)cc1 (chirality)
C[C@@H]1CN(CCn2cccc2)CCN1C(=O)c1ccc(NC(=O)N2Cc3ccc(S(C)(=O)=O)cc3C2)cc1 (3D coordinates assigned)
C[C@@H]1CN(CCn2cccc2)CCN1C(=O)c1ccc(NC(=O)N2Cc3ccc(S(C)(=O)=O)cc3C2)cc1 (nonaromatic ring conformer: 120.28649537278096 kcal/mol)

>  <smiles>  (52) 
CC1CN(CCn2cccc2)CCN1C(=O)c1ccc(NC(=O)N2Cc3ccc(S(C)(=O)=O)cc3C2)cc1

>  <score_type>  (52) 
oracle

>  <origin>  (52) 
adg

>  <m_score__min__energy>  (52) 
-9.1199999999999992

>  <m_primary>  (52) 
energy

$$$$
52:0
     RDKit          3D

 42 45  0  0  0  0  0  0  0  0999 V2000
   58.6110   28.5690   46.9340 C   0  0  0  0  0  0  0  0  0  0  0  0
   58.2450   28.9560   45.7020 C   0  0  0  0  0  0  0  0  0  0  0  0
   57.7080   28.1460   44.6870 C   0  0  0  0  0  0  0  0  0  0  0  0
   57.5630   26.8080   44.6010 C   0  0  0  0  0  0  0  0  0  0  0  0
   57.1530   25.9180   45.6980 C   0  0  0  0  0  0  0  0  0  0  0  0
   57.8800   24.8950   46.1800 N   0  0  0  0  0  0  0  0  0  0  0  0
   57.0590   24.2760   47.0510 C   0  0  0  0  0  0  0  0  0  0  0  0
   57.4000   23.2610   47.7130 O   0  0  0  0  0  0  0  0  0  0  0  0
   55.8300   24.8300   47.1390 N   0  0  0  0  0  0  0  0  0  0  0  0
   55.9020   25.8550   46.2690 C   0  0  0  0  0  0  0  0  0  0  0  0
   54.8420   26.7100   45.9940 O   0  0  0  0  0  0  0  0  0  0  0  0
   57.3260   29.0020   43.6690 C   0  0  0  0  0  0  0  0  0  0  0  0
   57.6840   30.2750   44.0580 C   0  0  0  0  0  0  0  0  0  0  0  0
   57.4450   31.5050   43.2360 C   0  0  0  0  0  0  0  0  0  0  0  0
   58.2560   30.2510   45.2850 N   0  0  0  0  0  0  0  0  0  0  0  0
   58.6870   31.4040   46.0340 C   0  0  0  0  0  0  0  0  0  0  0  0
   57.8870   32.4690   46.4070 C   0  0  0  0  0  0  0  0  0  0  0  0
   58.7140   33.3280   47.1020 C   0  0  0  0  0  0  0  0  0  0  0  0
   59.9590   32.7260   47.1000 C   0  0  0  0  0  0  0  0  0  0  0  0
   61.1450   33.2600   47.7040 N   0  0  0  0  0  0  0  0  0  0  0  0
   62.4880   33.1140   47.1700 C   0  0  0  0  0  0  0  0  0  0  0  0
   63.4210   33.8580   48.1450 C   0  0  0  0  0  0  0  0  0  0  0  0
   62.5590   34.3730   49.3080 C   0  0  0  0  0  0  0  0  0  0  0  0
   61.1910   33.9750   48.9240 C   0  0  0  0  0  0  0  0  0  0  0  0
   60.1690   34.2330   49.6130 O   0  0  0  0  0  0  0  0  0  0  0  0
   59.9170   31.5810   46.4590 O   0  0  0  0  0  0  0  0  0  0  0  0
   59.0211   29.3040   47.6422 H   0  0  0  0  0  0  0  0  0  0  0  0
   58.5008   27.5169   47.2354 H   0  0  0  0  0  0  0  0  0  0  0  0
   57.7692   26.3419   43.6262 H   0  0  0  0  0  0  0  0  0  0  0  0
   58.8510   24.6170   45.9150 H   0  0  0  0  0  0  0  0  0  0  0  0
   56.8307   28.7201   42.7281 H   0  0  0  0  0  0  0  0  0  0  0  0
   57.2780   32.3644   43.9020 H   0  0  0  0  0  0  0  0  0  0  0  0
   58.3224   31.6981   42.6013 H   0  0  0  0  0  0  0  0  0  0  0  0
   56.5591   31.3554   42.6013 H   0  0  0  0  0  0  0  0  0  0  0  0
   56.8161   32.6032   46.1943 H   0  0  0  0  0  0  0  0  0  0  0  0
   58.4403   34.2894   47.5611 H   0  0  0  0  0  0  0  0  0  0  0  0
   62.7632   32.0504   47.1154 H   0  0  0  0  0  0  0  0  0  0  0  0
   62.5617   33.5247   46.1522 H   0  0  0  0  0  0  0  0  0  0  0  0
   64.1920   33.1714   48.5245 H   0  0  0  0  0  0  0  0  0  0  0  0
   63.9249   34.6935   47.6371 H   0  0  0  0  0  0  0  0  0  0  0  0
   62.8547   33.9002   50.2562 H   0  0  0  0  0  0  0  0  0  0  0  0
   62.6608   35.4562   49.4704 H   0  0  0  0  0  0  0  0  0  0  0  0
  1  2  2  0
  2  3  1  0
  3  4  2  3
  4  5  1  0
  5  6  1  0
  6  7  1  0
  7  8  2  0
  7  9  1  0
  9 10  1  0
 10 11  1  0
  3 12  1  0
 12 13  2  0
 13 14  1  0
 13 15  1  0
 15 16  1  0
 16 17  2  0
 17 18  1  0
 18 19  2  0
 19 20  1  0
 20 21  1  0
 21 22  1  0
 22 23  1  0
 23 24  1  0
 24 25  2  0
 19 26  1  0
 15  2  1  0
 26 16  1  0
 10  5  2  0
 24 20  1  0
  1 27  1  0
  1 28  1  0
  4 29  1  0
  6 30  1  0
 12 31  1  0
 14 32  1  0
 14 33  1  0
 14 34  1  0
 17 35  1  0
 18 36  1  0
 21 37  1  0
 21 38  1  0
 22 39  1  0
 22 40  1  0
 23 41  1  0
 23 42  1  0
M  CHG  2   9  -1  11  -1
M  END
>  <UniqueID>  (53) 
49

>  <SMILES>  (53) 
C=c1c(=Cc2[nH]c(=O)[n-]c2[O-])cc(C)n1-c1ccc(N2CCCC2=O)o1

>  <Energy>  (53) 
153.2489353796624

>  <Genealogy>  (53) 
C=c1c(=Cc2[nH]c(=O)[n-]c2[O-])cc(C)n1-c1ccc(N2CCCC2=O)o1 (protonated)
C=c1c(=Cc2[nH]c(=O)[n-]c2[O-])cc(C)n1-c1ccc(N2CCCC2=O)o1 (3D coordinates assigned)
C=c1c(=Cc2[nH]c(=O)[n-]c2[O-])cc(C)n1-c1ccc(N2CCCC2=O)o1 (nonaromatic ring conformer: 153.2489353796624 kcal/mol)

>  <smiles>  (53) 
C=c1c(=Cc2[nH]c(=O)[nH]c2O)cc(C)n1-c1ccc(N2CCCC2=O)o1

>  <score_type>  (53) 
oracle

>  <origin>  (53) 
adg

>  <m_score__min__energy>  (53) 
-14.01

>  <m_primary>  (53) 
energy

$$$$
53:0
     RDKit          3D

 53 56  0  0  0  0  0  0  0  0999 V2000
   55.1480   28.9670   44.8750 O   0  0  0  0  0  0  0  0  0  0  0  0
   55.9980   29.8310   44.1950 C   0  0  0  0  0  0  0  0  0  0  0  0
   55.9290   29.9260   42.8010 C   0  0  0  0  0  0  0  0  0  0  0  0
   56.7830   30.7930   42.1160 C   0  0  0  0  0  0  0  0  0  0  0  0
   57.7110   31.5660   42.8220 C   0  0  0  0  0  0  0  0  0  0  0  0
   57.7860   31.4780   44.2220 C   0  0  0  0  0  0  0  0  0  0  0  0
   58.7940   32.3070   44.9740 C   0  0  0  0  0  0  0  0  0  0  0  0
   58.2460   33.6530   45.2520 N   0  0  0  0  0  0  0  0  0  0  0  0
   57.6980   33.7530   46.6220 C   0  0  0  0  0  0  0  0  0  0  0  0
   58.8020   33.6140   47.6840 C   0  0  0  0  0  0  0  0  0  0  0  0
   60.0370   34.2650   47.2320 N   0  0  0  0  0  0  0  0  0  0  0  0
   61.3090   33.8610   47.7740 C   0  0  0  0  0  0  0  0  0  0  0  0
   62.2180   33.1370   46.9870 C   0  0  0  0  0  0  0  0  0  0  0  0
   63.4590   32.7610   47.5050 C   0  0  0  0  0  0  0  0  0  0  0  0
   63.8240   33.1220   48.8130 C   0  0  0  0  0  0  0  0  0  0  0  0
   65.0880   32.7130   49.3640 N   0  0  0  0  0  0  0  0  0  0  0  0
   65.2360   31.8680   50.5190 C   0  0  0  0  0  0  0  0  0  0  0  0
   64.0830   30.7520   50.8860 S   0  0  0  0  0  0  0  0  0  0  0  0
   66.4570   31.9920   51.3520 C   0  0  0  0  0  0  0  0  0  0  0  0
   66.4890   31.3520   52.6040 C   0  0  0  0  0  0  0  0  0  0  0  0
   67.6230   31.4330   53.4160 C   0  0  0  0  0  0  0  0  0  0  0  0
   68.7370   32.1580   52.9920 C   0  0  0  0  0  0  0  0  0  0  0  0
   68.7160   32.8120   51.7590 C   0  0  0  0  0  0  0  0  0  0  0  0
   67.5830   32.7410   50.9400 C   0  0  0  0  0  0  0  0  0  0  0  0
   67.5830   33.4370   49.7360 O   0  0  0  0  0  0  0  0  0  0  0  0
   62.9120   33.8380   49.6060 C   0  0  0  0  0  0  0  0  0  0  0  0
   63.2420   34.1960   50.9080 O   0  0  0  0  0  0  0  0  0  0  0  0
   61.6680   34.2120   49.0860 C   0  0  0  0  0  0  0  0  0  0  0  0
   59.9420   35.2940   46.1920 C   0  0  0  0  0  0  0  0  0  0  0  0
   59.2200   34.7370   44.9490 C   0  0  0  0  0  0  0  0  0  0  0  0
   56.9240   30.6030   44.9050 C   0  0  0  0  0  0  0  0  0  0  0  0
   55.2015   29.3173   42.2440 H   0  0  0  0  0  0  0  0  0  0  0  0
   56.7259   30.8682   41.0201 H   0  0  0  0  0  0  0  0  0  0  0  0
   58.3845   32.2453   42.2788 H   0  0  0  0  0  0  0  0  0  0  0  0
   59.0357   31.8099   45.9251 H   0  0  0  0  0  0  0  0  0  0  0  0
   59.7018   32.4095   44.3614 H   0  0  0  0  0  0  0  0  0  0  0  0
   57.2094   34.7314   46.7407 H   0  0  0  0  0  0  0  0  0  0  0  0
   56.9772   32.9345   46.7653 H   0  0  0  0  0  0  0  0  0  0  0  0
   58.4658   34.0857   48.6191 H   0  0  0  0  0  0  0  0  0  0  0  0
   59.0037   32.5453   47.8487 H   0  0  0  0  0  0  0  0  0  0  0  0
   61.9511   32.8640   45.9554 H   0  0  0  0  0  0  0  0  0  0  0  0
   64.1558   32.1781   46.8847 H   0  0  0  0  0  0  0  0  0  0  0  0
   65.9600   33.0360   48.8840 H   0  0  0  0  0  0  0  0  0  0  0  0
   65.6128   30.7823   52.9471 H   0  0  0  0  0  0  0  0  0  0  0  0
   67.6375   30.9243   54.3912 H   0  0  0  0  0  0  0  0  0  0  0  0
   69.6318   32.2142   53.6293 H   0  0  0  0  0  0  0  0  0  0  0  0
   69.5944   33.3862   51.4292 H   0  0  0  0  0  0  0  0  0  0  0  0
   60.9658   34.7852   49.7092 H   0  0  0  0  0  0  0  0  0  0  0  0
   59.3786   36.1539   46.5834 H   0  0  0  0  0  0  0  0  0  0  0  0
   60.9571   35.6060   45.9051 H   0  0  0  0  0  0  0  0  0  0  0  0
   58.6791   35.5628   44.4637 H   0  0  0  0  0  0  0  0  0  0  0  0
   59.9931   34.2993   44.3004 H   0  0  0  0  0  0  0  0  0  0  0  0
   56.9775   30.5249   46.0009 H   0  0  0  0  0  0  0  0  0  0  0  0
  1  2  1  0
  2  3  2  0
  3  4  1  0
  4  5  2  0
  5  6  1  0
  6  7  1  0
  7  8  1  0
  8  9  1  0
  9 10  1  0
 10 11  1  0
 11 12  1  0
 12 13  2  0
 13 14  1  0
 14 15  2  0
 15 16  1  0
 16 17  1  0
 17 18  2  0
 17 19  1  0
 19 20  2  0
 20 21  1  0
 21 22  2  0
 22 23  1  0
 23 24  2  0
 24 25  1  0
 15 26  1  0
 26 27  1  0
 26 28  2  0
 11 29  1  0
 29 30  1  0
  6 31  2  0
 31  2  1  0
 30  8  1  0
 28 12  1  0
 24 19  1  0
  3 32  1  0
  4 33  1  0
  5 34  1  0
  7 35  1  0
  7 36  1  0
  9 37  1  0
  9 38  1  0
 10 39  1  0
 10 40  1  0
 13 41  1  0
 14 42  1  0
 16 43  1  0
 20 44  1  0
 21 45  1  0
 22 46  1  0
 23 47  1  0
 28 48  1  0
 29 49  1  0
 29 50  1  0
 30 51  1  0
 30 52  1  0
 31 53  1  0
M  CHG  3   1  -1  25  -1  27  -1
M  END
>  <UniqueID>  (54) 
50

>  <SMILES>  (54) 
[O-]c1cccc(CN2CCN(c3ccc(NC(=S)c4ccccc4[O-])c([O-])c3)CC2)c1

>  <Energy>  (54) 
79.84885655069891

>  <Genealogy>  (54) 
[O-]c1cccc(CN2CCN(c3ccc(NC(=S)c4ccccc4[O-])c([O-])c3)CC2)c1 (protonated)
[O-]c1cccc(CN2CCN(c3ccc(NC(=S)c4ccccc4[O-])c([O-])c3)CC2)c1 (3D coordinates assigned)
[O-]c1cccc(CN2CCN(c3ccc(NC(=S)c4ccccc4[O-])c([O-])c3)CC2)c1 (nonaromatic ring conformer: 79.84885655069891 kcal/mol)

>  <smiles>  (54) 
Oc1cccc(CN2CCN(c3ccc(NC(=S)c4ccccc4O)c(O)c3)CC2)c1

>  <score_type>  (54) 
oracle

>  <origin>  (54) 
adg

>  <m_score__min__energy>  (54) 
-16.41

>  <m_primary>  (54) 
energy

$$$$
54:0
     RDKit          3D

 31 32  0  0  0  0  0  0  0  0999 V2000
   49.9125   24.3703   43.9811 H   0  0  0  0  0  0  0  0  0  0  0  0
   50.8460   24.1090   44.5010 C   0  0  0  0  0  0  0  0  0  0  0  0
   51.8042   24.5202   44.1507 H   0  0  0  0  0  0  0  0  0  0  0  0
   50.8160   23.2930   45.5570 C   0  0  0  0  0  0  0  0  0  0  0  0
   49.8538   22.8860   45.9012 H   0  0  0  0  0  0  0  0  0  0  0  0
   52.0760   22.9240   46.2800 C   0  0  0  0  0  0  0  0  0  0  0  0
   52.1008   23.4343   47.2542 H   0  0  0  0  0  0  0  0  0  0  0  0
   52.1021   21.8348   46.4313 H   0  0  0  0  0  0  0  0  0  0  0  0
   53.2360   23.3290   45.4910 N   0  0  0  0  0  0  0  0  0  0  0  0
   54.3140   23.8450   45.9990 C   0  0  0  0  0  0  0  0  0  0  0  0
   55.0780   23.1040   46.8400 N   0  0  0  0  0  0  0  0  0  0  0  0
   56.2140   23.6260   47.3680 C   0  0  0  0  0  0  0  0  0  0  0  0
   56.9200   22.9350   48.1470 O   0  0  0  0  0  0  0  0  0  0  0  0
   56.5890   24.8920   47.0560 N   0  0  0  0  0  0  0  0  0  0  0  0
   55.8300   25.6420   46.2190 C   0  0  0  0  0  0  0  0  0  0  0  0
   56.2050   26.8520   45.9280 N   0  0  0  0  0  0  0  0  0  0  0  0
   57.4290   27.1990   45.2030 C   0  0  0  0  0  0  0  0  0  0  0  0
   58.2977   26.8246   45.7645 H   0  0  0  0  0  0  0  0  0  0  0  0
   57.3867   26.7386   44.2049 H   0  0  0  0  0  0  0  0  0  0  0  0
   57.5560   28.6940   45.0370 C   0  0  0  0  0  0  0  0  0  0  0  0
   58.8290   29.2880   45.0820 C   0  0  0  0  0  0  0  0  0  0  0  0
   59.7179   28.6619   45.2491 H   0  0  0  0  0  0  0  0  0  0  0  0
   58.9740   30.6680   44.9160 C   0  0  0  0  0  0  0  0  0  0  0  0
   59.9748   31.1233   44.9499 H   0  0  0  0  0  0  0  0  0  0  0  0
   57.8490   31.4700   44.7070 C   0  0  0  0  0  0  0  0  0  0  0  0
   57.9648   32.5554   44.5708 H   0  0  0  0  0  0  0  0  0  0  0  0
   56.5770   30.8930   44.6710 C   0  0  0  0  0  0  0  0  0  0  0  0
   55.6924   31.5265   44.5091 H   0  0  0  0  0  0  0  0  0  0  0  0
   56.4240   29.5130   44.8400 C   0  0  0  0  0  0  0  0  0  0  0  0
   55.1440   28.9670   44.8090 O   0  0  0  0  0  0  0  0  0  0  0  0
   54.6900   25.1170   45.6940 N   0  0  0  0  0  0  0  0  0  0  0  0
  1  2  1  0
  2  3  1  0
  2  4  2  0
  4  5  1  0
  4  6  1  0
  6  7  1  0
  6  8  1  0
  6  9  1  0
  9 10  2  3
 10 11  1  0
 11 12  1  0
 12 13  2  0
 12 14  1  0
 14 15  1  0
 15 16  2  0
 16 17  1  0
 17 18  1  0
 17 19  1  0
 17 20  1  0
 20 21  2  0
 21 22  1  0
 21 23  1  0
 23 24  1  0
 23 25  2  0
 25 26  1  0
 25 27  1  0
 27 28  1  0
 27 29  2  0
 29 30  1  0
 15 31  1  0
 31 10  1  0
 29 20  1  0
M  CHG  4  11  -1  14  -1  30  -1  31  -1
M  END
>  <UniqueID>  (55) 
51

>  <SMILES>  (55) 
C=CCN=c1[n-]c(=O)[n-]/c(=N/Cc2ccccc2[O-])[n-]1

>  <Energy>  (55) 
27.275408804410773

>  <Genealogy>  (55) 
C=CCN=c1[n-]c(=O)[n-]c(=NCc2ccccc2[O-])[n-]1 (protonated)
C=CCN=c1[n-]c(=O)[n-]/c(=N/Cc2ccccc2[O-])[n-]1 (cis-trans isomerization)
C=CCN=c1[n-]c(=O)[n-]/c(=N/Cc2ccccc2[O-])[n-]1 (3D coordinates assigned)
C=CCN=c1[n-]c(=O)[n-]/c(=N/Cc2ccccc2[O-])[n-]1 (optimized conformer: 27.275408804410773 kcal/mol)

>  <smiles>  (55) 
C=CCN=c1[nH]c(=O)[nH]c(=NCc2ccccc2O)[nH]1

>  <score_type>  (55) 
oracle

>  <origin>  (55) 
adg

>  <m_score__min__energy>  (55) 
-14.76

>  <m_primary>  (55) 
energy

$$$$
55:0
     RDKit          3D

 27 28  0  0  0  0  0  0  0  0999 V2000
   59.4320   24.0670   45.6230 C   0  0  0  0  0  0  0  0  0  0  0  0
   58.0650   24.2460   46.2150 C   0  0  0  0  0  0  0  0  0  0  0  0
   57.7060   23.4450   47.2540 N   0  0  0  0  0  0  0  0  0  0  0  0
   56.4880   23.5440   47.8380 C   0  0  0  0  0  0  0  0  0  0  0  0
   56.1870   22.7880   48.7970 O   0  0  0  0  0  0  0  0  0  0  0  0
   55.5920   24.4560   47.3900 N   0  0  0  0  0  0  0  0  0  0  0  0
   55.8890   25.2840   46.3560 C   0  0  0  0  0  0  0  0  0  0  0  0
   55.0230   26.1170   45.9740 O   0  0  0  0  0  0  0  0  0  0  0  0
   57.1480   25.2060   45.7240 C   0  0  0  0  0  0  0  0  0  0  0  0
   57.4850   26.1130   44.5510 C   0  0  0  0  0  0  0  0  0  0  0  0
   57.9490   27.4800   45.0180 C   0  0  0  0  0  0  0  0  0  0  0  0
   59.3370   27.7040   45.1190 C   0  0  0  0  0  0  0  0  0  0  0  0
   59.8370   28.9360   45.5370 C   0  0  0  0  0  0  0  0  0  0  0  0
   58.9630   29.9730   45.8530 C   0  0  0  0  0  0  0  0  0  0  0  0
   57.5860   29.7820   45.7460 C   0  0  0  0  0  0  0  0  0  0  0  0
   57.0620   28.5510   45.3250 C   0  0  0  0  0  0  0  0  0  0  0  0
   55.6720   28.4530   45.2320 O   0  0  0  0  0  0  0  0  0  0  0  0
   60.1718   23.9701   46.4313 H   0  0  0  0  0  0  0  0  0  0  0  0
   59.4466   23.1593   45.0019 H   0  0  0  0  0  0  0  0  0  0  0  0
   59.6798   24.9404   45.0019 H   0  0  0  0  0  0  0  0  0  0  0  0
   58.2860   25.6473   43.9582 H   0  0  0  0  0  0  0  0  0  0  0  0
   56.5758   26.2460   43.9463 H   0  0  0  0  0  0  0  0  0  0  0  0
   60.0363   26.8941   44.8640 H   0  0  0  0  0  0  0  0  0  0  0  0
   60.9233   29.0894   45.6174 H   0  0  0  0  0  0  0  0  0  0  0  0
   59.3591   30.9433   46.1872 H   0  0  0  0  0  0  0  0  0  0  0  0
   56.9022   30.6069   45.9948 H   0  0  0  0  0  0  0  0  0  0  0  0
   55.1430   27.6010   45.3370 H   0  0  0  0  0  0  0  0  0  0  0  0
  1  2  1  0
  2  3  1  0
  3  4  1  0
  4  5  2  0
  4  6  1  0
  6  7  1  0
  7  8  2  0
  7  9  1  0
  9 10  1  0
 10 11  1  0
 11 12  2  0
 12 13  1  0
 13 14  2  0
 14 15  1  0
 15 16  2  0
 16 17  1  0
  9  2  2  0
 16 11  1  0
  1 18  1  0
  1 19  1  0
  1 20  1  0
 10 21  1  0
 10 22  1  0
 12 23  1  0
 13 24  1  0
 14 25  1  0
 15 26  1  0
 17 27  1  0
M  CHG  2   3  -1   6  -1
M  END
>  <UniqueID>  (56) 
52

>  <SMILES>  (56) 
Cc1[n-]c(=O)[n-]c(=O)c1Cc1ccccc1O

>  <Energy>  (56) 
33.471152772675474

>  <Genealogy>  (56) 
Cc1[n-]c(=O)[n-]c(=O)c1Cc1ccccc1O (protonated)
Cc1[n-]c(=O)[n-]c(=O)c1Cc1ccccc1O (3D coordinates assigned)
Cc1[n-]c(=O)[n-]c(=O)c1Cc1ccccc1O (optimized conformer: 33.471152772675474 kcal/mol)

>  <smiles>  (56) 
Cc1[nH]c(=O)[nH]c(=O)c1Cc1ccccc1O

>  <score_type>  (56) 
oracle

>  <origin>  (56) 
adg

>  <m_score__min__energy>  (56) 
-10.279999999999999

>  <m_primary>  (56) 
energy

$$$$
56:0
     RDKit          3D

 64 67  0  0  0  0  0  0  0  0999 V2000
   57.3730   32.4370   40.7050 C   0  0  0  0  0  0  0  0  0  0  0  0
   57.6210   32.6020   42.0980 O   0  0  0  0  0  0  0  0  0  0  0  0
   57.4420   31.6010   43.0650 C   0  0  0  0  0  0  0  0  0  0  0  0
   56.9780   30.3160   42.7190 C   0  0  0  0  0  0  0  0  0  0  0  0
   56.8270   29.3310   43.6950 C   0  0  0  0  0  0  0  0  0  0  0  0
   57.1580   29.6040   45.0220 C   0  0  0  0  0  0  0  0  0  0  0  0
   57.6210   30.8700   45.3800 C   0  0  0  0  0  0  0  0  0  0  0  0
   57.7430   31.8840   44.4170 C   0  0  0  0  0  0  0  0  0  0  0  0
   58.2020   33.2590   44.8520 C   0  0  0  0  0  0  0  0  0  0  0  0
   59.1060   33.1800   46.0200 N   0  0  0  0  0  0  0  0  0  0  0  0
   58.3500   33.1040   47.2920 C   0  0  0  0  0  0  0  0  0  0  0  0
   59.1420   33.6230   48.5140 C   0  0  0  0  0  0  0  0  0  0  0  0
   60.6060   33.5320   48.3410 N   0  0  0  0  0  0  0  0  0  0  0  0
   61.2140   32.2670   48.8060 C   0  0  0  0  0  0  0  0  0  0  0  0
   61.7090   31.3850   47.6790 C   0  0  0  0  0  0  0  0  0  0  0  0
   62.8150   31.6510   47.1380 O   0  0  0  0  0  0  0  0  0  0  0  0
   60.9640   30.1830   47.2300 C   0  0  0  0  0  0  0  0  0  0  0  0
   61.1270   29.7150   45.9170 C   0  0  0  0  0  0  0  0  0  0  0  0
   60.4790   28.5520   45.4900 C   0  0  0  0  0  0  0  0  0  0  0  0
   59.6670   27.8300   46.3740 C   0  0  0  0  0  0  0  0  0  0  0  0
   58.8920   26.3320   45.8470 S   0  0  0  0  0  0  0  0  0  0  0  0
   59.8730   25.1980   45.9690 O   0  0  0  0  0  0  0  0  0  0  0  0
   58.5060   26.4550   44.4000 O   0  0  0  0  0  0  0  0  0  0  0  0
   57.4680   25.9680   46.7950 N   0  0  0  0  0  0  0  0  0  0  0  0
   56.2250   26.3600   46.0950 C   0  0  0  0  0  0  0  0  0  0  0  0
   55.4310   25.1400   45.5940 C   0  0  0  0  0  0  0  0  0  0  0  0
   55.0740   24.2450   46.6390 O   0  0  0  0  0  0  0  0  0  0  0  0
   56.0690   24.1150   47.6480 C   0  0  0  0  0  0  0  0  0  0  0  0
   57.4760   24.5560   47.2150 C   0  0  0  0  0  0  0  0  0  0  0  0
   59.5040   28.2890   47.6870 C   0  0  0  0  0  0  0  0  0  0  0  0
   60.1450   29.4560   48.1150 C   0  0  0  0  0  0  0  0  0  0  0  0
   61.1370   34.0640   47.0650 C   0  0  0  0  0  0  0  0  0  0  0  0
   60.0410   34.3150   46.0230 C   0  0  0  0  0  0  0  0  0  0  0  0
   56.4648   31.8328   40.5633 H   0  0  0  0  0  0  0  0  0  0  0  0
   57.2338   33.4232   40.2380 H   0  0  0  0  0  0  0  0  0  0  0  0
   58.2289   31.9277   40.2380 H   0  0  0  0  0  0  0  0  0  0  0  0
   56.7330   30.0881   41.6711 H   0  0  0  0  0  0  0  0  0  0  0  0
   56.4461   28.3370   43.4175 H   0  0  0  0  0  0  0  0  0  0  0  0
   57.0538   28.8203   45.7868 H   0  0  0  0  0  0  0  0  0  0  0  0
   57.8929   31.0756   46.4259 H   0  0  0  0  0  0  0  0  0  0  0  0
   58.7352   33.7390   44.0182 H   0  0  0  0  0  0  0  0  0  0  0  0
   57.3166   33.8460   45.1377 H   0  0  0  0  0  0  0  0  0  0  0  0
   57.4350   33.7059   47.1893 H   0  0  0  0  0  0  0  0  0  0  0  0
   58.1330   32.0414   47.4756 H   0  0  0  0  0  0  0  0  0  0  0  0
   58.8748   34.6768   48.6817 H   0  0  0  0  0  0  0  0  0  0  0  0
   58.8743   32.9870   49.3706 H   0  0  0  0  0  0  0  0  0  0  0  0
   62.0658   32.5092   49.4585 H   0  0  0  0  0  0  0  0  0  0  0  0
   60.4296   31.7062   49.3353 H   0  0  0  0  0  0  0  0  0  0  0  0
   61.7706   30.2683   45.2173 H   0  0  0  0  0  0  0  0  0  0  0  0
   60.6074   28.2023   44.4550 H   0  0  0  0  0  0  0  0  0  0  0  0
   55.5931   26.9333   46.7893 H   0  0  0  0  0  0  0  0  0  0  0  0
   56.5062   26.9631   45.2191 H   0  0  0  0  0  0  0  0  0  0  0  0
   54.5110   25.4958   45.1071 H   0  0  0  0  0  0  0  0  0  0  0  0
   56.0778   24.5898   44.8948 H   0  0  0  0  0  0  0  0  0  0  0  0
   55.7667   24.7280   48.5099 H   0  0  0  0  0  0  0  0  0  0  0  0
   56.1360   23.0430   47.8855 H   0  0  0  0  0  0  0  0  0  0  0  0
   58.1697   24.4336   48.0599 H   0  0  0  0  0  0  0  0  0  0  0  0
   57.7982   23.9344   46.3666 H   0  0  0  0  0  0  0  0  0  0  0  0
   58.8673   27.7277   48.3867 H   0  0  0  0  0  0  0  0  0  0  0  0
   60.0086   29.8077   49.1483 H   0  0  0  0  0  0  0  0  0  0  0  0
   61.6528   35.0141   47.2681 H   0  0  0  0  0  0  0  0  0  0  0  0
   61.8206   33.3084   46.6506 H   0  0  0  0  0  0  0  0  0  0  0  0
   59.4982   35.2379   46.2753 H   0  0  0  0  0  0  0  0  0  0  0  0
   60.4959   34.4210   45.0271 H   0  0  0  0  0  0  0  0  0  0  0  0
  1  2  1  0
  2  3  1  0
  3  4  2  0
  4  5  1  0
  5  6  2  0
  6  7  1  0
  7  8  2  0
  8  9  1  0
  9 10  1  0
 10 11  1  0
 11 12  1  0
 12 13  1  0
 13 14  1  0
 14 15  1  0
 15 16  2  0
 15 17  1  0
 17 18  2  0
 18 19  1  0
 19 20  2  0
 20 21  1  0
 21 22  2  0
 21 23  2  0
 21 24  1  0
 24 25  1  0
 25 26  1  0
 26 27  1  0
 27 28  1  0
 28 29  1  0
 20 30  1  0
 30 31  2  0
 13 32  1  0
 32 33  1  0
  8  3  1  0
 33 10  1  0
 31 17  1  0
 29 24  1  0
  1 34  1  0
  1 35  1  0
  1 36  1  0
  4 37  1  0
  5 38  1  0
  6 39  1  0
  7 40  1  0
  9 41  1  0
  9 42  1  0
 11 43  1  0
 11 44  1  0
 12 45  1  0
 12 46  1  0
 14 47  1  0
 14 48  1  0
 18 49  1  0
 19 50  1  0
 25 51  1  0
 25 52  1  0
 26 53  1  0
 26 54  1  0
 28 55  1  0
 28 56  1  0
 29 57  1  0
 29 58  1  0
 30 59  1  0
 31 60  1  0
 32 61  1  0
 32 62  1  0
 33 63  1  0
 33 64  1  0
M  END
>  <UniqueID>  (57) 
53

>  <SMILES>  (57) 
COc1ccccc1CN1CCN(CC(=O)c2ccc(S(=O)(=O)N3CCOCC3)cc2)CC1

>  <Energy>  (57) 
94.95912000785803

>  <Genealogy>  (57) 
COc1ccccc1CN1CCN(CC(=O)c2ccc(S(=O)(=O)N3CCOCC3)cc2)CC1 (3D coordinates assigned)
COc1ccccc1CN1CCN(CC(=O)c2ccc(S(=O)(=O)N3CCOCC3)cc2)CC1 (nonaromatic ring conformer: 94.95912000785803 kcal/mol)

>  <smiles>  (57) 
COc1ccccc1CN1CCN(CC(=O)c2ccc(S(=O)(=O)N3CCOCC3)cc2)CC1

>  <score_type>  (57) 
oracle

>  <origin>  (57) 
adg

>  <m_score__min__energy>  (57) 
-9.7200000000000006

>  <m_primary>  (57) 
energy

$$$$
57:0
     RDKit          3D

 53 56  0  0  0  0  0  0  0  0999 V2000
   57.5300   24.6770   46.1970 H   0  0  0  0  0  0  0  0  0  0  0  0
   57.9420   23.7880   45.9410 O   0  0  0  0  0  0  0  0  0  0  0  0
   57.4510   23.0280   44.8800 C   0  0  0  0  0  0  0  0  0  0  0  0
   58.1180   21.8480   44.5230 C   0  0  0  0  0  0  0  0  0  0  0  0
   58.9709   21.4988   45.1236 H   0  0  0  0  0  0  0  0  0  0  0  0
   57.7070   21.1150   43.4120 C   0  0  0  0  0  0  0  0  0  0  0  0
   58.2272   20.1865   43.1340 H   0  0  0  0  0  0  0  0  0  0  0  0
   56.6300   21.5720   42.6580 C   0  0  0  0  0  0  0  0  0  0  0  0
   56.3074   21.0143   41.7665 H   0  0  0  0  0  0  0  0  0  0  0  0
   55.9770   22.7060   43.0220 N   0  0  0  0  0  0  0  0  0  0  0  0
   56.3260   23.4390   44.1150 C   0  0  0  0  0  0  0  0  0  0  0  0
   55.6200   24.5060   44.3750 N   0  0  0  0  0  0  0  0  0  0  0  0
   55.1740   25.0080   45.6400 C   0  0  0  0  0  0  0  0  0  0  0  0
   54.4060   24.3120   46.3610 O   0  0  0  0  0  0  0  0  0  0  0  0
   55.5170   26.3520   46.0090 N   0  0  0  0  0  0  0  0  0  0  0  0
   56.7150   26.8520   46.1270 C   0  0  0  0  0  0  0  0  0  0  0  0
   57.6910   26.1860   46.8100 N   0  0  0  0  0  0  0  0  0  0  0  0
   58.9500   26.6800   46.9360 C   0  0  0  0  0  0  0  0  0  0  0  0
   59.7092   26.1143   47.4961 H   0  0  0  0  0  0  0  0  0  0  0  0
   59.2800   27.9030   46.3560 C   0  0  0  0  0  0  0  0  0  0  0  0
   60.2980   28.3077   46.4550 H   0  0  0  0  0  0  0  0  0  0  0  0
   58.3080   28.6090   45.6490 C   0  0  0  0  0  0  0  0  0  0  0  0
   58.5583   29.5761   45.1886 H   0  0  0  0  0  0  0  0  0  0  0  0
   57.0070   28.0870   45.5230 C   0  0  0  0  0  0  0  0  0  0  0  0
   55.9920   28.7540   44.8140 O   0  0  0  0  0  0  0  0  0  0  0  0
   56.1410   29.3450   43.5220 C   0  0  0  0  0  0  0  0  0  0  0  0
   56.7192   28.6655   42.8786 H   0  0  0  0  0  0  0  0  0  0  0  0
   55.1422   29.5175   43.0947 H   0  0  0  0  0  0  0  0  0  0  0  0
   56.8600   30.6640   43.6200 C   0  0  0  0  0  0  0  0  0  0  0  0
   57.3650   31.2890   42.4690 C   0  0  0  0  0  0  0  0  0  0  0  0
   57.2375   30.8129   41.4856 H   0  0  0  0  0  0  0  0  0  0  0  0
   58.0290   32.5140   42.5690 C   0  0  0  0  0  0  0  0  0  0  0  0
   58.4240   32.9989   41.6641 H   0  0  0  0  0  0  0  0  0  0  0  0
   58.1930   33.1250   43.8140 C   0  0  0  0  0  0  0  0  0  0  0  0
   58.7202   34.0877   43.8864 H   0  0  0  0  0  0  0  0  0  0  0  0
   57.6880   32.5160   44.9730 C   0  0  0  0  0  0  0  0  0  0  0  0
   57.8680   33.1480   46.2930 C   0  0  0  0  0  0  0  0  0  0  0  0
   56.8460   33.5090   46.9390 O   0  0  0  0  0  0  0  0  0  0  0  0
   59.1760   33.3760   46.8490 N   0  0  0  0  0  0  0  0  0  0  0  0
   60.3820   33.5130   46.0480 C   0  0  0  0  0  0  0  0  0  0  0  0
   60.5969   32.5751   45.5150 H   0  0  0  0  0  0  0  0  0  0  0  0
   60.2764   34.3001   45.2868 H   0  0  0  0  0  0  0  0  0  0  0  0
   61.4980   33.8310   47.0340 C   0  0  0  0  0  0  0  0  0  0  0  0
   62.1116   32.9368   47.2180 H   0  0  0  0  0  0  0  0  0  0  0  0
   62.1679   34.6123   46.6457 H   0  0  0  0  0  0  0  0  0  0  0  0
   60.8090   34.2750   48.3210 C   0  0  0  0  0  0  0  0  0  0  0  0
   61.3237   33.8508   49.1957 H   0  0  0  0  0  0  0  0  0  0  0  0
   60.8272   35.3694   48.4302 H   0  0  0  0  0  0  0  0  0  0  0  0
   59.3830   33.7470   48.2390 C   0  0  0  0  0  0  0  0  0  0  0  0
   59.2615   32.8698   48.8915 H   0  0  0  0  0  0  0  0  0  0  0  0
   58.6531   34.5008   48.5692 H   0  0  0  0  0  0  0  0  0  0  0  0
   57.0440   31.2730   44.8720 C   0  0  0  0  0  0  0  0  0  0  0  0
   56.6804   30.7717   45.7811 H   0  0  0  0  0  0  0  0  0  0  0  0
  1  2  1  0
  2  3  1  0
  3  4  2  0
  4  5  1  0
  4  6  1  0
  6  7  1  0
  6  8  2  0
  8  9  1  0
  8 10  1  0
 10 11  1  0
 11 12  2  0
 12 13  1  0
 13 14  2  0
 13 15  1  0
 15 16  2  0
 16 17  1  0
 17 18  1  0
 18 19  1  0
 18 20  2  0
 20 21  1  0
 20 22  1  0
 22 23  1  0
 22 24  2  0
 24 25  1  0
 25 26  1  0
 26 27  1  0
 26 28  1  0
 26 29  1  0
 29 30  2  0
 30 31  1  0
 30 32  1  0
 32 33  1  0
 32 34  2  0
 34 35  1  0
 34 36  1  0
 36 37  1  0
 37 38  2  0
 37 39  1  0
 39 40  1  0
 40 41  1  0
 40 42  1  0
 40 43  1  0
 43 44  1  0
 43 45  1  0
 43 46  1  0
 46 47  1  0
 46 48  1  0
 46 49  1  0
 49 50  1  0
 49 51  1  0
 36 52  2  0
 52 53  1  0
 11  3  1  0
 24 16  1  0
 52 29  1  0
 49 39  1  0
M  CHG  2  10  -1  17  -1
M  END
>  <UniqueID>  (58) 
54

>  <SMILES>  (58) 
O=C(/N=c1\[n-]cccc1OCc1cccc(C(=O)N2CCCC2)c1)/N=c1/[n-]cccc1O

>  <Energy>  (58) 
76.33899558394398

>  <Genealogy>  (58) 
O=C(N=c1[n-]cccc1O)N=c1[n-]cccc1OCc1cccc(C(=O)N2CCCC2)c1 (protonated)
O=C(/N=c1\[n-]cccc1OCc1cccc(C(=O)N2CCCC2)c1)/N=c1/[n-]cccc1O (cis-trans isomerization)
O=C(/N=c1\[n-]cccc1OCc1cccc(C(=O)N2CCCC2)c1)/N=c1/[n-]cccc1O (3D coordinates assigned)
O=C(/N=c1\[n-]cccc1OCc1cccc(C(=O)N2CCCC2)c1)/N=c1/[n-]cccc1O (nonaromatic ring conformer: 76.33899558394398 kcal/mol)

>  <smiles>  (58) 
O=C(N=c1[nH]cccc1O)N=c1[nH]cccc1OCc1cccc(C(=O)N2CCCC2)c1

>  <score_type>  (58) 
oracle

>  <origin>  (58) 
adg

>  <m_score__min__energy>  (58) 
-12.789999999999999

>  <m_primary>  (58) 
energy

$$$$
58:0
     RDKit          3D

 36 38  0  0  0  0  0  0  0  0999 V2000
   50.3907   22.2330   45.7033 H   0  0  0  0  0  0  0  0  0  0  0  0
   51.2160   22.9580   45.7610 C   0  0  0  0  0  0  0  0  0  0  0  0
   51.0140   24.0323   45.6379 H   0  0  0  0  0  0  0  0  0  0  0  0
   52.4600   22.5350   45.9800 C   0  0  0  0  0  0  0  0  0  0  0  0
   52.6328   21.4552   46.0994 H   0  0  0  0  0  0  0  0  0  0  0  0
   53.6160   23.4450   46.0700 C   0  0  0  0  0  0  0  0  0  0  0  0
   53.5840   24.6920   45.6610 O   0  0  0  0  0  0  0  0  0  0  0  0
   54.7260   25.2840   45.8530 N   0  0  0  0  0  0  0  0  0  0  0  0
   55.5450   24.3740   46.4120 C   0  0  0  0  0  0  0  0  0  0  0  0
   56.7730   24.6570   46.7410 N   0  0  0  0  0  0  0  0  0  0  0  0
   57.4570   25.9160   46.6370 C   0  0  0  0  0  0  0  0  0  0  0  0
   58.5040   26.1450   47.3000 O   0  0  0  0  0  0  0  0  0  0  0  0
   56.9600   26.8970   45.7150 N   0  0  0  0  0  0  0  0  0  0  0  0
   56.2580   26.5780   45.0090 H   0  0  0  0  0  0  0  0  0  0  0  0
   57.4370   28.2530   45.6460 C   0  0  0  0  0  0  0  0  0  0  0  0
   58.7480   28.5800   46.0320 C   0  0  0  0  0  0  0  0  0  0  0  0
   59.4297   27.7876   46.3746 H   0  0  0  0  0  0  0  0  0  0  0  0
   59.1920   29.9030   45.9840 C   0  0  0  0  0  0  0  0  0  0  0  0
   60.2248   30.1425   46.2772 H   0  0  0  0  0  0  0  0  0  0  0  0
   58.3300   30.9320   45.5640 C   0  0  0  0  0  0  0  0  0  0  0  0
   58.8030   32.3400   45.5150 C   0  0  0  0  0  0  0  0  0  0  0  0
   58.1870   33.2780   44.6690 C   0  0  0  0  0  0  0  0  0  0  0  0
   57.3448   32.9701   44.0319 H   0  0  0  0  0  0  0  0  0  0  0  0
   58.6270   34.5650   44.6340 N   0  0  0  0  0  0  0  0  0  0  0  0
   59.6660   34.9870   45.4030 C   0  0  0  0  0  0  0  0  0  0  0  0
   59.9993   36.0340   45.3505 H   0  0  0  0  0  0  0  0  0  0  0  0
   60.3090   34.0930   46.2580 C   0  0  0  0  0  0  0  0  0  0  0  0
   61.1498   34.4297   46.8823 H   0  0  0  0  0  0  0  0  0  0  0  0
   59.8770   32.7680   46.3150 C   0  0  0  0  0  0  0  0  0  0  0  0
   60.3779   32.0561   46.9876 H   0  0  0  0  0  0  0  0  0  0  0  0
   57.0120   30.6060   45.1990 C   0  0  0  0  0  0  0  0  0  0  0  0
   56.3239   31.4010   44.8757 H   0  0  0  0  0  0  0  0  0  0  0  0
   56.5670   29.2800   45.2430 C   0  0  0  0  0  0  0  0  0  0  0  0
   55.2600   28.9890   44.8720 O   0  0  0  0  0  0  0  0  0  0  0  0
   54.8760   23.1720   46.5760 C   0  0  0  0  0  0  0  0  0  0  0  0
   55.2532   22.2312   47.0034 H   0  0  0  0  0  0  0  0  0  0  0  0
  1  2  1  0
  2  3  1  0
  2  4  2  0
  4  5  1  0
  4  6  1  0
  6  7  1  0
  7  8  1  0
  8  9  1  0
  9 10  2  0
 10 11  1  0
 11 12  2  0
 11 13  1  0
 13 14  1  0
 13 15  1  0
 15 16  2  0
 16 17  1  0
 16 18  1  0
 18 19  1  0
 18 20  2  0
 20 21  1  0
 21 22  2  0
 22 23  1  0
 22 24  1  0
 24 25  2  0
 25 26  1  0
 25 27  1  0
 27 28  1  0
 27 29  2  0
 29 30  1  0
 20 31  1  0
 31 32  1  0
 31 33  2  0
 33 34  1  0
  9 35  1  0
 35 36  1  0
 35  6  2  0
 33 15  1  0
 29 21  1  0
M  CHG  2   8  -1  34  -1
M  END
>  <UniqueID>  (59) 
55

>  <SMILES>  (59) 
C=Cc1c/c(=N\C(=O)Nc2ccc(-c3cccnc3)cc2[O-])[n-]o1

>  <Energy>  (59) 
82.68146356223087

>  <Genealogy>  (59) 
C=Cc1cc(=NC(=O)Nc2ccc(-c3cccnc3)cc2[O-])[n-]o1 (protonated)
C=Cc1c/c(=N\C(=O)Nc2ccc(-c3cccnc3)cc2[O-])[n-]o1 (cis-trans isomerization)
C=Cc1c/c(=N\C(=O)Nc2ccc(-c3cccnc3)cc2[O-])[n-]o1 (3D coordinates assigned)
C=Cc1c/c(=N\C(=O)Nc2ccc(-c3cccnc3)cc2[O-])[n-]o1 (optimized conformer: 82.68146356223087 kcal/mol)

>  <smiles>  (59) 
C=Cc1cc(=NC(=O)Nc2ccc(-c3cccnc3)cc2O)[nH]o1

>  <score_type>  (59) 
oracle

>  <origin>  (59) 
adg

>  <m_score__min__energy>  (59) 
-12.57

>  <m_primary>  (59) 
energy

$$$$
59:0
     RDKit          3D

 72 76  0  0  0  0  0  0  0  0999 V2000
   56.4210   30.4960   42.8900 O   0  0  0  0  0  0  0  0  0  0  0  0
   56.9180   30.4720   44.0460 C   0  0  0  0  0  0  0  0  0  0  0  0
   56.6960   31.5940   44.9130 N   0  0  0  0  0  0  0  0  0  0  0  0
   57.6430   32.6180   45.2590 C   0  0  0  0  0  0  0  0  0  0  0  0
   57.7550   33.8110   44.5210 C   0  0  0  0  0  0  0  0  0  0  0  0
   58.6800   34.7890   44.8970 C   0  0  0  0  0  0  0  0  0  0  0  0
   59.4740   34.6020   46.0310 C   0  0  0  0  0  0  0  0  0  0  0  0
   59.3430   33.4370   46.7980 C   0  0  0  0  0  0  0  0  0  0  0  0
   60.2620   33.2310   48.2900 S   0  0  0  0  0  0  0  0  0  0  0  0
   61.6710   33.7030   48.0610 O   0  0  0  0  0  0  0  0  0  0  0  0
   59.6480   34.0570   49.3870 O   0  0  0  0  0  0  0  0  0  0  0  0
   60.2730   31.5460   48.7470 N   0  0  0  0  0  0  0  0  0  0  0  0
   58.9350   31.1310   49.2020 C   0  0  0  0  0  0  0  0  0  0  0  0
   58.9370   29.6350   49.5980 C   0  0  0  0  0  0  0  0  0  0  0  0
   60.1250   28.9680   49.2060 O   0  0  0  0  0  0  0  0  0  0  0  0
   60.3890   29.2210   47.8420 C   0  0  0  0  0  0  0  0  0  0  0  0
   60.7290   30.7080   47.6170 C   0  0  0  0  0  0  0  0  0  0  0  0
   58.4280   32.4490   46.4090 C   0  0  0  0  0  0  0  0  0  0  0  0
   57.6680   29.2750   44.4860 C   0  0  0  0  0  0  0  0  0  0  0  0
   59.0610   29.2120   44.3090 C   0  0  0  0  0  0  0  0  0  0  0  0
   59.7780   28.1030   44.7650 C   0  0  0  0  0  0  0  0  0  0  0  0
   59.1140   27.0480   45.3920 C   0  0  0  0  0  0  0  0  0  0  0  0
   57.7240   27.0840   45.5500 C   0  0  0  0  0  0  0  0  0  0  0  0
   56.8790   25.7360   46.3160 S   0  0  0  0  0  0  0  0  0  0  0  0
   57.6530   25.2900   47.5270 O   0  0  0  0  0  0  0  0  0  0  0  0
   55.5230   26.1990   46.7750 O   0  0  0  0  0  0  0  0  0  0  0  0
   56.6730   24.3930   45.2180 N   0  0  0  0  0  0  0  0  0  0  0  0
   55.2750   23.9460   45.1950 C   0  0  0  0  0  0  0  0  0  0  0  0
   55.1570   22.6250   44.4040 C   0  0  0  0  0  0  0  0  0  0  0  0
   56.2360   22.4460   43.4020 N   0  0  0  0  0  0  0  0  0  0  0  0
   57.3880   21.6900   43.9370 C   0  0  0  0  0  0  0  0  0  0  0  0
   56.9720   20.9170   45.1600 C   0  0  0  0  0  0  0  0  0  0  0  0
   56.2050   19.7490   45.0240 C   0  0  0  0  0  0  0  0  0  0  0  0
   55.8240   19.0200   46.1550 C   0  0  0  0  0  0  0  0  0  0  0  0
   56.2090   19.4510   47.4270 C   0  0  0  0  0  0  0  0  0  0  0  0
   56.9730   20.6130   47.5710 C   0  0  0  0  0  0  0  0  0  0  0  0
   57.3540   21.3460   46.4420 C   0  0  0  0  0  0  0  0  0  0  0  0
   56.6410   23.7340   42.8040 C   0  0  0  0  0  0  0  0  0  0  0  0
   57.1390   24.7440   43.8630 C   0  0  0  0  0  0  0  0  0  0  0  0
   57.0030   28.1960   45.0930 C   0  0  0  0  0  0  0  0  0  0  0  0
   57.1115   33.9746   43.6440 H   0  0  0  0  0  0  0  0  0  0  0  0
   58.7829   35.7068   44.2994 H   0  0  0  0  0  0  0  0  0  0  0  0
   60.2040   35.3715   46.3225 H   0  0  0  0  0  0  0  0  0  0  0  0
   60.9480   31.4440   49.5430 H   0  0  0  0  0  0  0  0  0  0  0  0
   58.6454   31.7359   50.0739 H   0  0  0  0  0  0  0  0  0  0  0  0
   58.2179   31.2808   48.3815 H   0  0  0  0  0  0  0  0  0  0  0  0
   58.8351   29.5598   50.6907 H   0  0  0  0  0  0  0  0  0  0  0  0
   58.0969   29.1519   49.0776 H   0  0  0  0  0  0  0  0  0  0  0  0
   61.2400   28.6035   47.5188 H   0  0  0  0  0  0  0  0  0  0  0  0
   59.4914   28.9720   47.2570 H   0  0  0  0  0  0  0  0  0  0  0  0
   61.8188   30.8133   47.5111 H   0  0  0  0  0  0  0  0  0  0  0  0
   60.2123   31.0459   46.7066 H   0  0  0  0  0  0  0  0  0  0  0  0
   58.3247   31.5338   47.0104 H   0  0  0  0  0  0  0  0  0  0  0  0
   59.5882   30.0384   43.8099 H   0  0  0  0  0  0  0  0  0  0  0  0
   60.8688   28.0614   44.6294 H   0  0  0  0  0  0  0  0  0  0  0  0
   59.6854   26.1846   45.7635 H   0  0  0  0  0  0  0  0  0  0  0  0
   54.9266   23.7858   46.2260 H   0  0  0  0  0  0  0  0  0  0  0  0
   54.6574   24.7152   44.7083 H   0  0  0  0  0  0  0  0  0  0  0  0
   55.1976   21.7868   45.1151 H   0  0  0  0  0  0  0  0  0  0  0  0
   54.2037   22.6559   43.8561 H   0  0  0  0  0  0  0  0  0  0  0  0
   57.7527   20.9906   43.1703 H   0  0  0  0  0  0  0  0  0  0  0  0
   58.1878   22.3945   44.2093 H   0  0  0  0  0  0  0  0  0  0  0  0
   55.9025   19.4058   44.0236 H   0  0  0  0  0  0  0  0  0  0  0  0
   55.2209   18.1069   46.0431 H   0  0  0  0  0  0  0  0  0  0  0  0
   55.9108   18.8757   48.3159 H   0  0  0  0  0  0  0  0  0  0  0  0
   57.2749   20.9513   48.5732 H   0  0  0  0  0  0  0  0  0  0  0  0
   57.9541   22.2605   46.5584 H   0  0  0  0  0  0  0  0  0  0  0  0
   57.4511   23.5497   42.0830 H   0  0  0  0  0  0  0  0  0  0  0  0
   55.7574   24.1693   42.3144 H   0  0  0  0  0  0  0  0  0  0  0  0
   58.2389   24.7534   43.8563 H   0  0  0  0  0  0  0  0  0  0  0  0
   56.7331   25.7341   43.6081 H   0  0  0  0  0  0  0  0  0  0  0  0
   55.9096   28.2242   45.2103 H   0  0  0  0  0  0  0  0  0  0  0  0
  1  2  2  0
  2  3  1  0
  3  4  1  0
  4  5  2  0
  5  6  1  0
  6  7  2  0
  7  8  1  0
  8  9  1  0
  9 10  2  0
  9 11  2  0
  9 12  1  0
 12 13  1  0
 13 14  1  0
 14 15  1  0
 15 16  1  0
 16 17  1  0
  8 18  2  0
  2 19  1  0
 19 20  2  0
 20 21  1  0
 21 22  2  0
 22 23  1  0
 23 24  1  0
 24 25  2  0
 24 26  2  0
 24 27  1  0
 27 28  1  0
 28 29  1  0
 29 30  1  0
 30 31  1  0
 31 32  1  0
 32 33  2  0
 33 34  1  0
 34 35  2  0
 35 36  1  0
 36 37  2  0
 30 38  1  0
 38 39  1  0
 23 40  2  0
 18  4  1  0
 40 19  1  0
 17 12  1  0
 39 27  1  0
 37 32  1  0
  5 41  1  0
  6 42  1  0
  7 43  1  0
 12 44  1  0
 13 45  1  0
 13 46  1  0
 14 47  1  0
 14 48  1  0
 16 49  1  0
 16 50  1  0
 17 51  1  0
 17 52  1  0
 18 53  1  0
 20 54  1  0
 21 55  1  0
 22 56  1  0
 28 57  1  0
 28 58  1  0
 29 59  1  0
 29 60  1  0
 31 61  1  0
 31 62  1  0
 33 63  1  0
 34 64  1  0
 35 65  1  0
 36 66  1  0
 37 67  1  0
 38 68  1  0
 38 69  1  0
 39 70  1  0
 39 71  1  0
 40 72  1  0
M  CHG  2   3  -1  12   1
M  END
>  <UniqueID>  (60) 
56

>  <SMILES>  (60) 
O=C([N-]c1cccc(S(=O)(=O)[NH+]2CCOCC2)c1)c1cccc(S(=O)(=O)N2CCN(Cc3ccccc3)CC2)c1

>  <Energy>  (60) 
99.53052758930427

>  <Genealogy>  (60) 
O=C([N-]c1cccc(S(=O)(=O)[NH+]2CCOCC2)c1)c1cccc(S(=O)(=O)N2CCN(Cc3ccccc3)CC2)c1 (protonated)
O=C([N-]c1cccc(S(=O)(=O)[NH+]2CCOCC2)c1)c1cccc(S(=O)(=O)N2CCN(Cc3ccccc3)CC2)c1 (3D coordinates assigned)
O=C([N-]c1cccc(S(=O)(=O)[NH+]2CCOCC2)c1)c1cccc(S(=O)(=O)N2CCN(Cc3ccccc3)CC2)c1 (nonaromatic ring conformer: 99.53052758930427 kcal/mol)

>  <smiles>  (60) 
O=C(Nc1cccc(S(=O)(=O)N2CCOCC2)c1)c1cccc(S(=O)(=O)N2CCN(Cc3ccccc3)CC2)c1

>  <score_type>  (60) 
oracle

>  <origin>  (60) 
adg

>  <m_score__min__energy>  (60) 
-12.789999999999999

>  <m_primary>  (60) 
energy

$$$$
60:0
     RDKit          3D

 45 48  0  0  0  0  0  0  0  0999 V2000
   55.9130   30.6230   44.6090 O   0  0  0  0  0  0  0  0  0  0  0  0
   57.1080   31.0160   44.5490 C   0  0  0  0  0  0  0  0  0  0  0  0
   57.4180   32.3130   43.8680 C   0  0  0  0  0  0  0  0  0  0  0  0
   58.0340   33.2720   44.8470 C   0  0  0  0  0  0  0  0  0  0  0  0
   59.0310   34.1670   44.4280 C   0  0  0  0  0  0  0  0  0  0  0  0
   59.6280   35.0350   45.3480 C   0  0  0  0  0  0  0  0  0  0  0  0
   59.2380   35.0080   46.6910 C   0  0  0  0  0  0  0  0  0  0  0  0
   58.2550   34.1110   47.1170 C   0  0  0  0  0  0  0  0  0  0  0  0
   57.6570   33.2430   46.2000 C   0  0  0  0  0  0  0  0  0  0  0  0
   58.1660   30.2300   45.1170 N   0  0  0  0  0  0  0  0  0  0  0  0
   57.9670   28.9360   45.7080 C   0  0  0  0  0  0  0  0  0  0  0  0
   56.7830   28.2030   45.4550 C   0  0  0  0  0  0  0  0  0  0  0  0
   56.6450   26.9590   46.0590 C   0  0  0  0  0  0  0  0  0  0  0  0
   55.6490   26.1170   45.9810 O   0  0  0  0  0  0  0  0  0  0  0  0
   56.0050   25.0910   46.7340 C   0  0  0  0  0  0  0  0  0  0  0  0
   55.2790   24.0770   46.8970 O   0  0  0  0  0  0  0  0  0  0  0  0
   57.2240   25.2240   47.3180 N   0  0  0  0  0  0  0  0  0  0  0  0
   57.6050   26.4310   46.8650 C   0  0  0  0  0  0  0  0  0  0  0  0
   58.7910   27.1060   47.1290 C   0  0  0  0  0  0  0  0  0  0  0  0
   58.9770   28.3710   46.5370 C   0  0  0  0  0  0  0  0  0  0  0  0
   60.1790   29.0940   46.8000 N   0  0  0  0  0  0  0  0  0  0  0  0
   60.1180   30.7600   47.2480 S   0  0  0  0  0  0  0  0  0  0  0  0
   58.8460   31.0240   48.0030 O   0  0  0  0  0  0  0  0  0  0  0  0
   60.1300   31.6190   46.0160 O   0  0  0  0  0  0  0  0  0  0  0  0
   61.5000   31.1350   48.2670 C   0  0  0  0  0  0  0  0  0  0  0  0
   61.6010   30.5850   49.5520 C   0  0  0  0  0  0  0  0  0  0  0  0
   62.7260   30.8450   50.3410 C   0  0  0  0  0  0  0  0  0  0  0  0
   63.7600   31.6500   49.8460 C   0  0  0  0  0  0  0  0  0  0  0  0
   65.3120   31.9700   50.9080 Br  0  0  0  0  0  0  0  0  0  0  0  0
   63.6630   32.1990   48.5630 C   0  0  0  0  0  0  0  0  0  0  0  0
   62.5370   31.9410   47.7740 C   0  0  0  0  0  0  0  0  0  0  0  0
   58.1224   32.1321   43.0427 H   0  0  0  0  0  0  0  0  0  0  0  0
   56.4866   32.7464   43.4747 H   0  0  0  0  0  0  0  0  0  0  0  0
   59.3435   34.1857   43.3735 H   0  0  0  0  0  0  0  0  0  0  0  0
   60.4047   35.7393   45.0152 H   0  0  0  0  0  0  0  0  0  0  0  0
   59.7058   35.6938   47.4127 H   0  0  0  0  0  0  0  0  0  0  0  0
   57.9520   34.0883   48.1742 H   0  0  0  0  0  0  0  0  0  0  0  0
   56.8876   32.5337   46.5389 H   0  0  0  0  0  0  0  0  0  0  0  0
   59.1100   30.6750   45.2100 H   0  0  0  0  0  0  0  0  0  0  0  0
   55.9961   28.6056   44.8003 H   0  0  0  0  0  0  0  0  0  0  0  0
   59.5608   26.6661   47.7801 H   0  0  0  0  0  0  0  0  0  0  0  0
   60.7935   29.9473   49.9409 H   0  0  0  0  0  0  0  0  0  0  0  0
   62.7990   30.4168   51.3516 H   0  0  0  0  0  0  0  0  0  0  0  0
   64.4727   32.8340   48.1743 H   0  0  0  0  0  0  0  0  0  0  0  0
   62.4645   32.3713   46.7643 H   0  0  0  0  0  0  0  0  0  0  0  0
  1  2  2  0
  2  3  1  0
  3  4  1  0
  4  5  2  0
  5  6  1  0
  6  7  2  0
  7  8  1  0
  8  9  2  0
  2 10  1  0
 10 11  1  0
 11 12  2  0
 12 13  1  0
 13 14  1  0
 14 15  1  0
 15 16  2  0
 15 17  1  0
 17 18  1  0
 18 19  1  0
 19 20  2  0
 20 21  1  0
 21 22  1  0
 22 23  2  0
 22 24  2  0
 22 25  1  0
 25 26  2  0
 26 27  1  0
 27 28  2  0
 28 29  1  0
 28 30  1  0
 30 31  2  0
  9  4  1  0
 20 11  1  0
 31 25  1  0
 18 13  2  0
  3 32  1  0
  3 33  1  0
  5 34  1  0
  6 35  1  0
  7 36  1  0
  8 37  1  0
  9 38  1  0
 10 39  1  0
 12 40  1  0
 19 41  1  0
 26 42  1  0
 27 43  1  0
 30 44  1  0
 31 45  1  0
M  CHG  2  17  -1  21  -1
M  END
>  <UniqueID>  (61) 
57

>  <SMILES>  (61) 
O=C(Cc1ccccc1)Nc1cc2oc(=O)[n-]c2cc1[N-]S(=O)(=O)c1ccc(Br)cc1

>  <Energy>  (61) 
94.86170261032541

>  <Genealogy>  (61) 
O=C(Cc1ccccc1)Nc1cc2oc(=O)[n-]c2cc1[N-]S(=O)(=O)c1ccc(Br)cc1 (protonated)
O=C(Cc1ccccc1)Nc1cc2oc(=O)[n-]c2cc1[N-]S(=O)(=O)c1ccc(Br)cc1 (3D coordinates assigned)
O=C(Cc1ccccc1)Nc1cc2oc(=O)[n-]c2cc1[N-]S(=O)(=O)c1ccc(Br)cc1 (optimized conformer: 94.86170261032541 kcal/mol)

>  <smiles>  (61) 
O=C(Cc1ccccc1)Nc1cc2oc(=O)[nH]c2cc1NS(=O)(=O)c1ccc(Br)cc1

>  <score_type>  (61) 
oracle

>  <origin>  (61) 
adg

>  <m_score__min__energy>  (61) 
-12.32

>  <m_primary>  (61) 
energy

$$$$
61:0
     RDKit          3D

 73 78  0  0  0  0  0  0  0  0999 V2000
   60.3820   33.1760   51.3770 O   0  0  0  0  0  0  0  0  0  0  0  0
   60.2930   32.4460   50.3580 C   0  0  0  0  0  0  0  0  0  0  0  0
   60.3430   31.0210   50.5210 N   0  0  0  0  0  0  0  0  0  0  0  0
   60.3150   30.0270   49.4830 C   0  0  0  0  0  0  0  0  0  0  0  0
   59.5940   28.8280   49.6140 C   0  0  0  0  0  0  0  0  0  0  0  0
   59.5040   27.9400   48.5380 C   0  0  0  0  0  0  0  0  0  0  0  0
   60.1460   28.2270   47.3210 C   0  0  0  0  0  0  0  0  0  0  0  0
   59.9470   27.3710   46.1770 N   0  0  0  0  0  0  0  0  0  0  0  0
   59.2660   26.0790   46.3240 C   0  0  0  0  0  0  0  0  0  0  0  0
   58.1750   25.9160   45.2420 C   0  0  0  0  0  0  0  0  0  0  0  0
   57.7480   27.2150   44.6740 N   0  0  0  0  0  0  0  0  0  0  0  0
   56.9920   28.0480   45.6420 C   0  0  0  0  0  0  0  0  0  0  0  0
   56.0140   28.9730   44.9070 C   0  0  0  0  0  0  0  0  0  0  0  0
   56.7440   30.0810   44.1920 C   0  0  0  0  0  0  0  0  0  0  0  0
   56.4430   30.3830   42.8530 C   0  0  0  0  0  0  0  0  0  0  0  0
   57.1560   31.3830   42.1810 C   0  0  0  0  0  0  0  0  0  0  0  0
   58.1730   32.0790   42.8370 C   0  0  0  0  0  0  0  0  0  0  0  0
   58.4850   31.7770   44.1650 C   0  0  0  0  0  0  0  0  0  0  0  0
   57.7740   30.7810   44.8410 C   0  0  0  0  0  0  0  0  0  0  0  0
   58.8750   27.9310   44.0230 C   0  0  0  0  0  0  0  0  0  0  0  0
   60.1980   27.8410   44.8110 C   0  0  0  0  0  0  0  0  0  0  0  0
   60.9270   29.3940   47.2210 C   0  0  0  0  0  0  0  0  0  0  0  0
   61.0220   30.2740   48.3010 C   0  0  0  0  0  0  0  0  0  0  0  0
   60.1010   33.0890   49.0440 C   0  0  0  0  0  0  0  0  0  0  0  0
   58.8470   33.1060   48.5030 N   0  0  0  0  0  0  0  0  0  0  0  0
   58.6060   33.6680   47.2870 C   0  0  0  0  0  0  0  0  0  0  0  0
   57.3220   33.6510   46.7200 C   0  0  0  0  0  0  0  0  0  0  0  0
   57.1010   34.2390   45.4700 C   0  0  0  0  0  0  0  0  0  0  0  0
   58.1570   34.8500   44.7840 C   0  0  0  0  0  0  0  0  0  0  0  0
   59.4390   34.8730   45.3430 C   0  0  0  0  0  0  0  0  0  0  0  0
   59.6660   34.2790   46.5880 C   0  0  0  0  0  0  0  0  0  0  0  0
   60.9040   34.2930   47.1410 N   0  0  0  0  0  0  0  0  0  0  0  0
   61.1580   33.7200   48.3480 C   0  0  0  0  0  0  0  0  0  0  0  0
   62.4810   33.8380   48.8990 N   0  0  0  0  0  0  0  0  0  0  0  0
   62.6530   34.5910   50.1520 C   0  0  0  0  0  0  0  0  0  0  0  0
   63.8320   34.0920   51.0040 C   0  0  0  0  0  0  0  0  0  0  0  0
   64.1800   32.7590   50.6950 O   0  0  0  0  0  0  0  0  0  0  0  0
   64.6580   32.7150   49.3690 C   0  0  0  0  0  0  0  0  0  0  0  0
   63.5070   32.9190   48.3800 C   0  0  0  0  0  0  0  0  0  0  0  0
   59.0988   28.5873   50.5663 H   0  0  0  0  0  0  0  0  0  0  0  0
   58.9265   27.0099   48.6446 H   0  0  0  0  0  0  0  0  0  0  0  0
   60.0020   25.2681   46.2209 H   0  0  0  0  0  0  0  0  0  0  0  0
   58.7923   26.0374   47.3159 H   0  0  0  0  0  0  0  0  0  0  0  0
   58.5726   25.2887   44.4305 H   0  0  0  0  0  0  0  0  0  0  0  0
   57.2978   25.4515   45.7161 H   0  0  0  0  0  0  0  0  0  0  0  0
   56.4282   27.3917   46.3212 H   0  0  0  0  0  0  0  0  0  0  0  0
   57.7031   28.6637   46.2124 H   0  0  0  0  0  0  0  0  0  0  0  0
   55.4470   28.3837   44.1712 H   0  0  0  0  0  0  0  0  0  0  0  0
   55.3372   29.4234   45.6479 H   0  0  0  0  0  0  0  0  0  0  0  0
   55.6457   29.8327   42.3319 H   0  0  0  0  0  0  0  0  0  0  0  0
   56.9145   31.6207   41.1345 H   0  0  0  0  0  0  0  0  0  0  0  0
   58.7295   32.8664   42.3075 H   0  0  0  0  0  0  0  0  0  0  0  0
   59.2901   32.3229   44.6786 H   0  0  0  0  0  0  0  0  0  0  0  0
   58.0225   30.5445   45.8861 H   0  0  0  0  0  0  0  0  0  0  0  0
   59.0338   27.4962   43.0251 H   0  0  0  0  0  0  0  0  0  0  0  0
   58.5984   28.9946   43.9753 H   0  0  0  0  0  0  0  0  0  0  0  0
   60.8749   27.1376   44.3041 H   0  0  0  0  0  0  0  0  0  0  0  0
   60.6562   28.8401   44.8554 H   0  0  0  0  0  0  0  0  0  0  0  0
   61.4652   29.6138   46.2872 H   0  0  0  0  0  0  0  0  0  0  0  0
   61.6575   31.1683   48.2220 H   0  0  0  0  0  0  0  0  0  0  0  0
   58.0600   32.6550   49.0260 H   0  0  0  0  0  0  0  0  0  0  0  0
   56.4893   33.1752   47.2587 H   0  0  0  0  0  0  0  0  0  0  0  0
   56.0951   34.2211   45.0253 H   0  0  0  0  0  0  0  0  0  0  0  0
   57.9782   35.3134   43.8025 H   0  0  0  0  0  0  0  0  0  0  0  0
   60.2667   35.3574   44.8042 H   0  0  0  0  0  0  0  0  0  0  0  0
   62.8250   35.6486   49.9031 H   0  0  0  0  0  0  0  0  0  0  0  0
   61.7382   34.4487   50.7461 H   0  0  0  0  0  0  0  0  0  0  0  0
   64.7026   34.7384   50.8192 H   0  0  0  0  0  0  0  0  0  0  0  0
   63.5274   34.1279   52.0604 H   0  0  0  0  0  0  0  0  0  0  0  0
   65.4041   33.5106   49.2260 H   0  0  0  0  0  0  0  0  0  0  0  0
   65.1151   31.7312   49.1868 H   0  0  0  0  0  0  0  0  0  0  0  0
   63.9129   33.3334   47.4454 H   0  0  0  0  0  0  0  0  0  0  0  0
   63.0301   31.9420   48.2125 H   0  0  0  0  0  0  0  0  0  0  0  0
  1  2  2  0
  2  3  1  0
  3  4  1  0
  4  5  2  0
  5  6  1  0
  6  7  2  0
  7  8  1  0
  8  9  1  0
  9 10  1  0
 10 11  1  0
 11 12  1  0
 12 13  1  0
 13 14  1  0
 14 15  2  0
 15 16  1  0
 16 17  2  0
 17 18  1  0
 18 19  2  0
 11 20  1  0
 20 21  1  0
  7 22  1  0
 22 23  2  0
  2 24  1  0
 24 25  2  0
 25 26  1  0
 26 27  2  0
 27 28  1  0
 28 29  2  0
 29 30  1  0
 30 31  2  0
 31 32  1  0
 32 33  2  0
 33 34  1  0
 34 35  1  0
 35 36  1  0
 36 37  1  0
 37 38  1  0
 38 39  1  0
 23  4  1  0
 33 24  1  0
 39 34  1  0
 21  8  1  0
 31 26  1  0
 19 14  1  0
  5 40  1  0
  6 41  1  0
  9 42  1  0
  9 43  1  0
 10 44  1  0
 10 45  1  0
 12 46  1  0
 12 47  1  0
 13 48  1  0
 13 49  1  0
 15 50  1  0
 16 51  1  0
 17 52  1  0
 18 53  1  0
 19 54  1  0
 20 55  1  0
 20 56  1  0
 21 57  1  0
 21 58  1  0
 22 59  1  0
 23 60  1  0
 25 61  1  0
 27 62  1  0
 28 63  1  0
 29 64  1  0
 30 65  1  0
 35 66  1  0
 35 67  1  0
 36 68  1  0
 36 69  1  0
 38 70  1  0
 38 71  1  0
 39 72  1  0
 39 73  1  0
M  CHG  2   3  -1  25   1
M  END
>  <UniqueID>  (62) 
58

>  <SMILES>  (62) 
O=C([N-]c1ccc(N2CCN(CCc3ccccc3)CC2)cc1)c1[nH+]c2ccccc2nc1N1CCOCC1

>  <Energy>  (62) 
117.41448255720806

>  <Genealogy>  (62) 
O=C([N-]c1ccc(N2CCN(CCc3ccccc3)CC2)cc1)c1[nH+]c2ccccc2nc1N1CCOCC1 (protonated)
O=C([N-]c1ccc(N2CCN(CCc3ccccc3)CC2)cc1)c1[nH+]c2ccccc2nc1N1CCOCC1 (3D coordinates assigned)
O=C([N-]c1ccc(N2CCN(CCc3ccccc3)CC2)cc1)c1[nH+]c2ccccc2nc1N1CCOCC1 (nonaromatic ring conformer: 117.41448255720806 kcal/mol)

>  <smiles>  (62) 
O=C(Nc1ccc(N2CCN(CCc3ccccc3)CC2)cc1)c1nc2ccccc2nc1N1CCOCC1

>  <score_type>  (62) 
oracle

>  <origin>  (62) 
adg

>  <m_score__min__energy>  (62) 
-9.0399999999999991

>  <m_primary>  (62) 
energy

$$$$
62:0
     RDKit          3D

 66 70  0  0  0  0  0  0  0  0999 V2000
   55.1301   27.3235   53.1133 H   0  0  0  0  0  0  0  0  0  0  0  0
   54.3730   28.0910   52.8950 C   0  0  0  0  0  0  0  0  0  0  0  0
   53.3036   27.8379   52.9427 H   0  0  0  0  0  0  0  0  0  0  0  0
   54.7570   29.3460   52.5680 C   0  0  0  0  0  0  0  0  0  0  0  0
   53.9320   30.4460   52.2600 C   0  0  0  0  0  0  0  0  0  0  0  0
   52.5940   30.5600   52.1630 C   0  0  0  0  0  0  0  0  0  0  0  0
   52.0131   30.4045   53.0840 H   0  0  0  0  0  0  0  0  0  0  0  0
   51.8420   30.8700   50.9530 C   0  0  0  0  0  0  0  0  0  0  0  0
   51.7660   30.0970   49.8620 N   0  0  0  0  0  0  0  0  0  0  0  0
   51.0260   30.8460   49.0080 C   0  0  0  0  0  0  0  0  0  0  0  0
   50.7150   30.4500   47.8560 O   0  0  0  0  0  0  0  0  0  0  0  0
   50.6470   32.0490   49.4880 N   0  0  0  0  0  0  0  0  0  0  0  0
   51.1720   32.0450   50.7220 C   0  0  0  0  0  0  0  0  0  0  0  0
   51.0190   33.0820   51.6260 O   0  0  0  0  0  0  0  0  0  0  0  0
   54.7740   31.5400   52.1190 C   0  0  0  0  0  0  0  0  0  0  0  0
   54.4746   32.5737   51.8913 H   0  0  0  0  0  0  0  0  0  0  0  0
   56.0550   31.0820   52.3190 C   0  0  0  0  0  0  0  0  0  0  0  0
   57.2500   31.9720   52.3810 C   0  0  0  0  0  0  0  0  0  0  0  0
   57.5092   32.1651   53.4324 H   0  0  0  0  0  0  0  0  0  0  0  0
   58.0976   31.4834   51.8781 H   0  0  0  0  0  0  0  0  0  0  0  0
   57.0246   32.9240   51.8781 H   0  0  0  0  0  0  0  0  0  0  0  0
   56.0520   29.7520   52.5780 N   0  0  0  0  0  0  0  0  0  0  0  0
   57.1630   29.0130   53.1190 C   0  0  0  0  0  0  0  0  0  0  0  0
   56.9390   28.1910   54.2360 C   0  0  0  0  0  0  0  0  0  0  0  0
   55.9765   28.2369   54.7666 H   0  0  0  0  0  0  0  0  0  0  0  0
   57.9290   27.3210   54.6720 C   0  0  0  0  0  0  0  0  0  0  0  0
   57.7581   26.6879   55.5552 H   0  0  0  0  0  0  0  0  0  0  0  0
   59.1390   27.2530   53.9870 C   0  0  0  0  0  0  0  0  0  0  0  0
   59.9001   26.5212   54.2957 H   0  0  0  0  0  0  0  0  0  0  0  0
   59.3950   28.1070   52.9100 C   0  0  0  0  0  0  0  0  0  0  0  0
   60.3713   28.0758   52.4042 H   0  0  0  0  0  0  0  0  0  0  0  0
   58.4090   29.0030   52.4740 C   0  0  0  0  0  0  0  0  0  0  0  0
   58.6180   29.8860   51.4120 O   0  0  0  0  0  0  0  0  0  0  0  0
   58.6230   29.6240   50.0120 C   0  0  0  0  0  0  0  0  0  0  0  0
   58.3738   28.5648   49.8507 H   0  0  0  0  0  0  0  0  0  0  0  0
   57.8824   30.2900   49.5452 H   0  0  0  0  0  0  0  0  0  0  0  0
   59.9530   29.9070   49.3780 C   0  0  0  0  0  0  0  0  0  0  0  0
   60.6510   28.9600   48.9030 O   0  0  0  0  0  0  0  0  0  0  0  0
   60.3760   31.2660   49.2890 N   0  0  0  0  0  0  0  0  0  0  0  0
   59.9230   32.3010   48.4000 C   0  0  0  0  0  0  0  0  0  0  0  0
   60.4000   33.5960   48.6120 C   0  0  0  0  0  0  0  0  0  0  0  0
   61.0013   33.8189   49.5057 H   0  0  0  0  0  0  0  0  0  0  0  0
   60.1170   34.6080   47.6950 C   0  0  0  0  0  0  0  0  0  0  0  0
   60.5244   35.6174   47.8533 H   0  0  0  0  0  0  0  0  0  0  0  0
   59.3180   34.3490   46.5740 C   0  0  0  0  0  0  0  0  0  0  0  0
   59.0942   35.1560   45.8608 H   0  0  0  0  0  0  0  0  0  0  0  0
   58.8040   33.0650   46.3600 C   0  0  0  0  0  0  0  0  0  0  0  0
   57.7510   32.7500   44.9660 S   0  0  0  0  0  0  0  0  0  0  0  0
   58.5390   32.8330   43.6950 O   0  0  0  0  0  0  0  0  0  0  0  0
   56.6740   33.8040   44.9150 O   0  0  0  0  0  0  0  0  0  0  0  0
   57.0100   31.1820   45.0810 N   0  0  0  0  0  0  0  0  0  0  0  0
   56.2280   30.8760   43.8690 C   0  0  0  0  0  0  0  0  0  0  0  0
   55.3020   31.4696   43.8818 H   0  0  0  0  0  0  0  0  0  0  0  0
   56.8412   31.1257   42.9906 H   0  0  0  0  0  0  0  0  0  0  0  0
   55.8650   29.3880   43.7950 C   0  0  0  0  0  0  0  0  0  0  0  0
   54.8333   29.2883   43.4267 H   0  0  0  0  0  0  0  0  0  0  0  0
   56.5703   28.8910   43.1127 H   0  0  0  0  0  0  0  0  0  0  0  0
   55.9630   28.7720   45.0690 O   0  0  0  0  0  0  0  0  0  0  0  0
   57.3090   28.7920   45.5550 C   0  0  0  0  0  0  0  0  0  0  0  0
   57.2954   28.5755   46.6334 H   0  0  0  0  0  0  0  0  0  0  0  0
   57.8734   28.0349   44.9908 H   0  0  0  0  0  0  0  0  0  0  0  0
   58.0100   30.1480   45.3350 C   0  0  0  0  0  0  0  0  0  0  0  0
   58.5883   30.4109   46.2330 H   0  0  0  0  0  0  0  0  0  0  0  0
   58.6857   30.0735   44.4702 H   0  0  0  0  0  0  0  0  0  0  0  0
   59.1160   32.0350   47.2690 C   0  0  0  0  0  0  0  0  0  0  0  0
   58.7303   31.0191   47.0985 H   0  0  0  0  0  0  0  0  0  0  0  0
  1  2  1  0
  2  3  1  0
  2  4  2  0
  4  5  1  0
  5  6  2  0
  6  7  1  0
  6  8  1  0
  8  9  1  0
  9 10  1  0
 10 11  2  0
 10 12  1  0
 12 13  1  0
 13 14  1  0
  5 15  1  0
 15 16  1  0
 15 17  2  0
 17 18  1  0
 18 19  1  0
 18 20  1  0
 18 21  1  0
 17 22  1  0
 22 23  1  0
 23 24  2  0
 24 25  1  0
 24 26  1  0
 26 27  1  0
 26 28  2  0
 28 29  1  0
 28 30  1  0
 30 31  1  0
 30 32  2  0
 32 33  1  0
 33 34  1  0
 34 35  1  0
 34 36  1  0
 34 37  1  0
 37 38  2  0
 37 39  1  0
 39 40  1  0
 40 41  2  0
 41 42  1  0
 41 43  1  0
 43 44  1  0
 43 45  2  0
 45 46  1  0
 45 47  1  0
 47 48  1  0
 48 49  2  0
 48 50  2  0
 48 51  1  0
 51 52  1  0
 52 53  1  0
 52 54  1  0
 52 55  1  0
 55 56  1  0
 55 57  1  0
 55 58  1  0
 58 59  1  0
 59 60  1  0
 59 61  1  0
 59 62  1  0
 62 63  1  0
 62 64  1  0
 47 65  2  0
 65 66  1  0
 22  4  1  0
 32 23  1  0
 65 40  1  0
 13  8  2  0
 62 51  1  0
M  CHG  4   9  -1  12  -1  14  -1  39  -1
M  END
>  <UniqueID>  (63) 
59

>  <SMILES>  (63) 
C=c1/c(=C\c2[n-]c(=O)[n-]c2[O-])cc(C)n1-c1ccccc1OCC(=O)[N-]c1cccc(S(=O)(=O)N2CCOCC2)c1

>  <Energy>  (63) 
166.94187875920736

>  <Genealogy>  (63) 
C=c1c(=Cc2[n-]c(=O)[n-]c2[O-])cc(C)n1-c1ccccc1OCC(=O)[N-]c1cccc(S(=O)(=O)N2CCOCC2)c1 (protonated)
C=c1/c(=C\c2[n-]c(=O)[n-]c2[O-])cc(C)n1-c1ccccc1OCC(=O)[N-]c1cccc(S(=O)(=O)N2CCOCC2)c1 (cis-trans isomerization)
C=c1/c(=C\c2[n-]c(=O)[n-]c2[O-])cc(C)n1-c1ccccc1OCC(=O)[N-]c1cccc(S(=O)(=O)N2CCOCC2)c1 (3D coordinates assigned)
C=c1/c(=C\c2[n-]c(=O)[n-]c2[O-])cc(C)n1-c1ccccc1OCC(=O)[N-]c1cccc(S(=O)(=O)N2CCOCC2)c1 (nonaromatic ring conformer: 166.94187875920736 kcal/mol)

>  <smiles>  (63) 
C=c1c(=Cc2[nH]c(=O)[nH]c2O)cc(C)n1-c1ccccc1OCC(=O)Nc1cccc(S(=O)(=O)N2CCOCC2)c1

>  <score_type>  (63) 
oracle

>  <origin>  (63) 
adg

>  <m_score__min__energy>  (63) 
-21.359999999999999

>  <m_primary>  (63) 
energy

$$$$
63:0
     RDKit          3D

 48 50  0  0  0  0  0  0  0  0999 V2000
   64.8250   34.2140   51.8000 C   0  0  0  0  0  0  0  0  0  0  0  0
   64.0580   33.8240   50.5770 C   0  0  0  0  0  0  0  0  0  0  0  0
   64.6680   33.0780   49.5650 C   0  0  0  0  0  0  0  0  0  0  0  0
   63.9100   32.7260   48.4490 C   0  0  0  0  0  0  0  0  0  0  0  0
   62.6110   33.1120   48.3600 N   0  0  0  0  0  0  0  0  0  0  0  0
   62.0290   33.8460   49.3470 C   0  0  0  0  0  0  0  0  0  0  0  0
   60.6800   34.2060   49.2300 O   0  0  0  0  0  0  0  0  0  0  0  0
   59.8920   34.0740   48.0770 C   0  0  0  0  0  0  0  0  0  0  0  0
   58.8510   33.1340   47.9770 C   0  0  0  0  0  0  0  0  0  0  0  0
   58.0860   33.0500   46.8090 C   0  0  0  0  0  0  0  0  0  0  0  0
   58.3330   33.9160   45.7310 C   0  0  0  0  0  0  0  0  0  0  0  0
   57.4820   33.8310   44.4880 C   0  0  0  0  0  0  0  0  0  0  0  0
   57.7370   32.5360   43.7590 C   0  0  0  0  0  0  0  0  0  0  0  0
   58.3640   32.5970   42.6650 O   0  0  0  0  0  0  0  0  0  0  0  0
   57.2920   31.2050   44.2650 C   0  0  0  0  0  0  0  0  0  0  0  0
   58.1620   30.2950   44.8950 C   0  0  0  0  0  0  0  0  0  0  0  0
   57.7020   29.0920   45.3230 N   0  0  0  0  0  0  0  0  0  0  0  0
   56.4030   28.7350   45.1600 C   0  0  0  0  0  0  0  0  0  0  0  0
   55.9770   27.4810   45.6140 O   0  0  0  0  0  0  0  0  0  0  0  0
   56.8620   26.3920   45.8890 C   0  0  0  0  0  0  0  0  0  0  0  0
   56.1230   25.0460   45.8610 C   0  0  0  0  0  0  0  0  0  0  0  0
   56.4920   24.2290   44.6230 C   0  0  0  0  0  0  0  0  0  0  0  0
   54.7560   25.2540   45.8790 F   0  0  0  0  0  0  0  0  0  0  0  0
   56.4700   24.3240   46.9900 F   0  0  0  0  0  0  0  0  0  0  0  0
   55.5380   29.5980   44.5680 N   0  0  0  0  0  0  0  0  0  0  0  0
   55.9510   30.8130   44.1250 C   0  0  0  0  0  0  0  0  0  0  0  0
   59.3570   34.8770   45.8460 C   0  0  0  0  0  0  0  0  0  0  0  0
   59.6020   35.7590   44.8410 F   0  0  0  0  0  0  0  0  0  0  0  0
   60.1280   34.9490   47.0100 C   0  0  0  0  0  0  0  0  0  0  0  0
   62.7540   34.1850   50.4490 N   0  0  0  0  0  0  0  0  0  0  0  0
   64.2570   33.9252   52.6966 H   0  0  0  0  0  0  0  0  0  0  0  0
   65.7982   33.7013   51.8015 H   0  0  0  0  0  0  0  0  0  0  0  0
   64.9840   35.3024   51.8015 H   0  0  0  0  0  0  0  0  0  0  0  0
   65.7224   32.7753   49.6470 H   0  0  0  0  0  0  0  0  0  0  0  0
   64.3645   32.1352   47.6400 H   0  0  0  0  0  0  0  0  0  0  0  0
   62.0530   32.8390   47.5210 H   0  0  0  0  0  0  0  0  0  0  0  0
   58.6373   32.4617   48.8210 H   0  0  0  0  0  0  0  0  0  0  0  0
   57.2848   32.3000   46.7341 H   0  0  0  0  0  0  0  0  0  0  0  0
   56.4206   33.8832   44.7721 H   0  0  0  0  0  0  0  0  0  0  0  0
   57.7392   34.6691   43.8236 H   0  0  0  0  0  0  0  0  0  0  0  0
   59.2195   30.5602   45.0410 H   0  0  0  0  0  0  0  0  0  0  0  0
   57.6586   26.3784   45.1305 H   0  0  0  0  0  0  0  0  0  0  0  0
   57.2824   26.5343   46.8955 H   0  0  0  0  0  0  0  0  0  0  0  0
   56.9263   23.2675   44.9343 H   0  0  0  0  0  0  0  0  0  0  0  0
   55.5891   24.0461   44.0219 H   0  0  0  0  0  0  0  0  0  0  0  0
   57.2262   24.7855   44.0219 H   0  0  0  0  0  0  0  0  0  0  0  0
   55.2294   31.4958   43.6526 H   0  0  0  0  0  0  0  0  0  0  0  0
   60.9276   35.7003   47.0882 H   0  0  0  0  0  0  0  0  0  0  0  0
  1  2  1  0
  2  3  2  0
  3  4  1  0
  4  5  2  0
  5  6  1  0
  6  7  1  0
  7  8  1  0
  8  9  2  0
  9 10  1  0
 10 11  2  0
 11 12  1  0
 12 13  1  0
 13 14  2  0
 13 15  1  0
 15 16  2  0
 16 17  1  0
 17 18  2  0
 18 19  1  0
 19 20  1  0
 20 21  1  0
 21 22  1  0
 21 23  1  0
 21 24  1  0
 18 25  1  0
 25 26  2  0
 11 27  1  0
 27 28  1  0
 27 29  2  0
  6 30  2  0
 30  2  1  0
 29  8  1  0
 26 15  1  0
  1 31  1  0
  1 32  1  0
  1 33  1  0
  3 34  1  0
  4 35  1  0
  5 36  1  0
  9 37  1  0
 10 38  1  0
 12 39  1  0
 12 40  1  0
 16 41  1  0
 20 42  1  0
 20 43  1  0
 22 44  1  0
 22 45  1  0
 22 46  1  0
 26 47  1  0
 29 48  1  0
M  CHG  1   5   1
M  END
>  <UniqueID>  (64) 
60

>  <SMILES>  (64) 
Cc1cc[nH+]c(Oc2ccc(CC(=O)c3cnc(OCC(C)(F)F)nc3)c(F)c2)n1

>  <Energy>  (64) 
52.96127283331269

>  <Genealogy>  (64) 
Cc1cc[nH+]c(Oc2ccc(CC(=O)c3cnc(OCC(C)(F)F)nc3)c(F)c2)n1 (protonated)
Cc1cc[nH+]c(Oc2ccc(CC(=O)c3cnc(OCC(C)(F)F)nc3)c(F)c2)n1 (3D coordinates assigned)
Cc1cc[nH+]c(Oc2ccc(CC(=O)c3cnc(OCC(C)(F)F)nc3)c(F)c2)n1 (optimized conformer: 52.96127283331269 kcal/mol)

>  <smiles>  (64) 
Cc1ccnc(Oc2ccc(CC(=O)c3cnc(OCC(C)(F)F)nc3)c(F)c2)n1

>  <score_type>  (64) 
oracle

>  <origin>  (64) 
adg

>  <m_score__min__energy>  (64) 
-6.8600000000000003

>  <m_primary>  (64) 
energy

$$$$
64:0
     RDKit          3D

 33 34  0  0  0  0  0  0  0  0999 V2000
   58.6350   28.2590   47.0110 H   0  0  0  0  0  0  0  0  0  0  0  0
   57.8860   27.5480   47.1620 N   0  0  0  0  0  0  0  0  0  0  0  0
   57.1160   27.1200   46.2080 C   0  0  0  0  0  0  0  0  0  0  0  0
   56.0380   26.1460   46.4920 C   0  0  0  0  0  0  0  0  0  0  0  0
   56.2670   25.1210   47.1870 O   0  0  0  0  0  0  0  0  0  0  0  0
   54.7590   26.3450   45.9880 O   0  0  0  0  0  0  0  0  0  0  0  0
   57.3150   27.6650   44.8200 C   0  0  0  0  0  0  0  0  0  0  0  0
   58.3246   27.4036   44.4702 H   0  0  0  0  0  0  0  0  0  0  0  0
   56.5566   27.2267   44.1546 H   0  0  0  0  0  0  0  0  0  0  0  0
   57.1600   29.1710   44.8120 C   0  0  0  0  0  0  0  0  0  0  0  0
   55.9220   29.7670   44.5430 C   0  0  0  0  0  0  0  0  0  0  0  0
   54.8090   28.9880   44.2440 O   0  0  0  0  0  0  0  0  0  0  0  0
   55.8000   31.1160   44.5660 N   0  0  0  0  0  0  0  0  0  0  0  0
   54.8690   31.5450   44.3590 H   0  0  0  0  0  0  0  0  0  0  0  0
   56.8580   31.9210   44.8510 C   0  0  0  0  0  0  0  0  0  0  0  0
   56.6900   33.1710   44.8580 O   0  0  0  0  0  0  0  0  0  0  0  0
   58.0880   31.3770   45.1310 N   0  0  0  0  0  0  0  0  0  0  0  0
   59.2440   32.2550   45.4120 C   0  0  0  0  0  0  0  0  0  0  0  0
   60.1737   31.7145   45.1807 H   0  0  0  0  0  0  0  0  0  0  0  0
   59.1649   33.1577   44.7884 H   0  0  0  0  0  0  0  0  0  0  0  0
   59.2560   32.6640   46.8620 C   0  0  0  0  0  0  0  0  0  0  0  0
   59.6950   33.9470   47.2320 C   0  0  0  0  0  0  0  0  0  0  0  0
   60.0082   34.6634   46.4583 H   0  0  0  0  0  0  0  0  0  0  0  0
   59.7350   34.3160   48.5810 C   0  0  0  0  0  0  0  0  0  0  0  0
   60.0773   35.3221   48.8650 H   0  0  0  0  0  0  0  0  0  0  0  0
   59.3410   33.4090   49.5680 C   0  0  0  0  0  0  0  0  0  0  0  0
   59.3733   33.7010   50.6281 H   0  0  0  0  0  0  0  0  0  0  0  0
   58.9060   32.1310   49.2080 C   0  0  0  0  0  0  0  0  0  0  0  0
   58.5951   31.4177   49.9856 H   0  0  0  0  0  0  0  0  0  0  0  0
   58.8650   31.7570   47.8620 C   0  0  0  0  0  0  0  0  0  0  0  0
   58.5252   30.7484   47.5840 H   0  0  0  0  0  0  0  0  0  0  0  0
   58.2480   30.0130   45.1130 C   0  0  0  0  0  0  0  0  0  0  0  0
   59.3740   29.5030   45.3670 O   0  0  0  0  0  0  0  0  0  0  0  0
  1  2  1  0
  2  3  2  0
  3  4  1  0
  4  5  2  0
  4  6  1  0
  3  7  1  0
  7  8  1  0
  7  9  1  0
  7 10  1  0
 10 11  2  0
 11 12  1  0
 11 13  1  0
 13 14  1  0
 13 15  1  0
 15 16  2  0
 15 17  1  0
 17 18  1  0
 18 19  1  0
 18 20  1  0
 18 21  1  0
 21 22  2  0
 22 23  1  0
 22 24  1  0
 24 25  1  0
 24 26  2  0
 26 27  1  0
 26 28  1  0
 28 29  1  0
 28 30  2  0
 30 31  1  0
 17 32  1  0
 32 33  2  0
 32 10  1  0
 30 21  1  0
M  CHG  2   6  -1  12  -1
M  END
>  <UniqueID>  (65) 
61

>  <SMILES>  (65) 
[H]/N=C(/Cc1c([O-])[nH]c(=O)n(Cc2ccccc2)c1=O)C(=O)[O-]

>  <Energy>  (65) 
37.384233728700245

>  <Genealogy>  (65) 
N=C(Cc1c([O-])[nH]c(=O)n(Cc2ccccc2)c1=O)C(=O)[O-] (protonated)
[H]/N=C(/Cc1c([O-])[nH]c(=O)n(Cc2ccccc2)c1=O)C(=O)[O-] (cis-trans isomerization)
[H]/N=C(/Cc1c([O-])[nH]c(=O)n(Cc2ccccc2)c1=O)C(=O)[O-] (3D coordinates assigned)
[H]/N=C(/Cc1c([O-])[nH]c(=O)n(Cc2ccccc2)c1=O)C(=O)[O-] (optimized conformer: 37.384233728700245 kcal/mol)

>  <smiles>  (65) 
N=C(Cc1c(O)[nH]c(=O)n(Cc2ccccc2)c1=O)C(=O)O

>  <score_type>  (65) 
oracle

>  <origin>  (65) 
adg

>  <m_score__min__energy>  (65) 
-12.050000000000001

>  <m_primary>  (65) 
energy

$$$$
65:0
     RDKit          3D

 54 57  0  0  0  0  0  0  0  0999 V2000
   60.3700   30.5580   45.9580 O   0  0  0  0  0  0  0  0  0  0  0  0
   59.5660   29.8010   45.3520 C   0  0  0  0  0  0  0  0  0  0  0  0
   58.8690   30.2580   44.1940 N   0  0  0  0  0  0  0  0  0  0  0  0
   57.6260   31.0250   44.2310 C   0  0  2  0  0  0  0  0  0  0  0  0
   57.4410   31.6700   45.6210 C   0  0  0  0  0  0  0  0  0  0  0  0
   58.2530   32.9320   45.7920 C   0  0  0  0  0  0  0  0  0  0  0  0
   58.6820   33.3330   47.0690 C   0  0  0  0  0  0  0  0  0  0  0  0
   59.3910   34.5290   47.2320 C   0  0  0  0  0  0  0  0  0  0  0  0
   59.6820   35.3290   46.1250 C   0  0  0  0  0  0  0  0  0  0  0  0
   59.2590   34.9370   44.8510 C   0  0  0  0  0  0  0  0  0  0  0  0
   58.5490   33.7440   44.6840 C   0  0  0  0  0  0  0  0  0  0  0  0
   56.4520   30.1450   43.8810 C   0  0  0  0  0  0  0  0  0  0  0  0
   56.2220   29.8520   42.6800 O   0  0  0  0  0  0  0  0  0  0  0  0
   55.5810   29.6980   44.8720 O   0  0  0  0  0  0  0  0  0  0  0  0
   59.3290   28.4380   45.8350 C   0  0  0  0  0  0  0  0  0  0  0  0
   59.3250   28.0260   47.1540 C   0  0  0  0  0  0  0  0  0  0  0  0
   59.0650   26.6730   47.1210 C   0  0  0  0  0  0  0  0  0  0  0  0
   58.9290   26.3440   45.7800 C   0  0  0  0  0  0  0  0  0  0  0  0
   58.6620   25.0040   45.2150 C   0  0  0  0  0  0  0  0  0  0  0  0
   59.4270   23.9060   45.6460 C   0  0  0  0  0  0  0  0  0  0  0  0
   59.1860   22.6300   45.1330 C   0  0  0  0  0  0  0  0  0  0  0  0
   58.1820   22.4340   44.1830 C   0  0  0  0  0  0  0  0  0  0  0  0
   57.4070   23.5170   43.7370 C   0  0  0  0  0  0  0  0  0  0  0  0
   56.3560   23.3020   42.6830 C   0  0  0  0  0  0  0  0  0  0  0  0
   55.1440   22.7630   43.2840 N   0  0  0  0  0  0  0  0  0  0  0  0
   54.4400   23.4010   44.3540 C   0  0  0  0  0  0  0  0  0  0  0  0
   53.2030   23.6200   44.2600 O   0  0  0  0  0  0  0  0  0  0  0  0
   55.1650   23.7810   45.5770 C   0  0  0  0  0  0  0  0  0  0  0  0
   55.8650   22.9340   46.4090 C   0  0  0  0  0  0  0  0  0  0  0  0
   56.3240   23.7310   47.4450 C   0  0  0  0  0  0  0  0  0  0  0  0
   57.0720   23.2780   48.5250 O   0  0  0  0  0  0  0  0  0  0  0  0
   55.9550   25.0220   47.3010 N   0  0  0  0  0  0  0  0  0  0  0  0
   55.2450   25.0380   46.1550 C   0  0  0  0  0  0  0  0  0  0  0  0
   54.6610   26.1910   45.6470 O   0  0  0  0  0  0  0  0  0  0  0  0
   57.6580   24.8010   44.2490 C   0  0  0  0  0  0  0  0  0  0  0  0
   59.0890   27.4200   45.0440 O   0  0  0  0  0  0  0  0  0  0  0  0
   57.6812   31.8289   43.4822 H   0  0  0  0  0  0  0  0  0  0  0  0
   56.3772   31.9152   45.7561 H   0  0  0  0  0  0  0  0  0  0  0  0
   57.7908   30.9462   46.3718 H   0  0  0  0  0  0  0  0  0  0  0  0
   58.4597   32.7044   47.9439 H   0  0  0  0  0  0  0  0  0  0  0  0
   59.7198   34.8395   48.2348 H   0  0  0  0  0  0  0  0  0  0  0  0
   60.2431   36.2661   46.2549 H   0  0  0  0  0  0  0  0  0  0  0  0
   59.4852   35.5681   43.9789 H   0  0  0  0  0  0  0  0  0  0  0  0
   58.2203   33.4394   43.6794 H   0  0  0  0  0  0  0  0  0  0  0  0
   59.4942   28.6485   48.0450 H   0  0  0  0  0  0  0  0  0  0  0  0
   58.9822   25.9931   47.9817 H   0  0  0  0  0  0  0  0  0  0  0  0
   60.2211   24.0533   46.3928 H   0  0  0  0  0  0  0  0  0  0  0  0
   59.7887   21.7770   45.4782 H   0  0  0  0  0  0  0  0  0  0  0  0
   57.9970   21.4266   43.7819 H   0  0  0  0  0  0  0  0  0  0  0  0
   56.1253   24.2623   42.1986 H   0  0  0  0  0  0  0  0  0  0  0  0
   56.7357   22.5873   41.9380 H   0  0  0  0  0  0  0  0  0  0  0  0
   56.0253   21.8536   46.2781 H   0  0  0  0  0  0  0  0  0  0  0  0
   57.7680   22.5500   48.4020 H   0  0  0  0  0  0  0  0  0  0  0  0
   57.0646   25.6556   43.8919 H   0  0  0  0  0  0  0  0  0  0  0  0
  1  2  2  0
  2  3  1  0
  3  4  1  0
  4  5  1  0
  5  6  1  0
  6  7  2  0
  7  8  1  0
  8  9  2  0
  9 10  1  0
 10 11  2  0
  4 12  1  0
 12 13  2  0
 12 14  1  0
  2 15  1  0
 15 16  2  0
 16 17  1  0
 17 18  2  0
 18 19  1  0
 19 20  2  0
 20 21  1  0
 21 22  2  0
 22 23  1  0
 23 24  1  0
 24 25  1  0
 25 26  1  0
 26 27  2  0
 26 28  1  0
 28 29  1  0
 29 30  2  0
 30 31  1  0
 30 32  1  0
 32 33  1  0
 33 34  1  0
 23 35  2  0
 18 36  1  0
 11  6  1  0
 36 15  1  0
 35 19  1  0
 33 28  2  0
  4 37  1  6
  5 38  1  0
  5 39  1  0
  7 40  1  0
  8 41  1  0
  9 42  1  0
 10 43  1  0
 11 44  1  0
 16 45  1  0
 17 46  1  0
 20 47  1  0
 21 48  1  0
 22 49  1  0
 24 50  1  0
 24 51  1  0
 29 52  1  0
 31 53  1  0
 35 54  1  0
M  CHG  5   3  -1  14  -1  25  -1  32  -1  34  -1
M  END
>  <UniqueID>  (66) 
62

>  <SMILES>  (66) 
O=C([N-][C@H](Cc1ccccc1)C(=O)[O-])c1ccc(-c2cccc(C[N-]C(=O)c3cc(O)[n-]c3[O-])c2)o1

>  <Energy>  (66) 
103.33993681169046

>  <Genealogy>  (66) 
O=C([N-]C(Cc1ccccc1)C(=O)[O-])c1ccc(-c2cccc(C[N-]C(=O)c3cc(O)[n-]c3[O-])c2)o1 (protonated)
O=C([N-][C@H](Cc1ccccc1)C(=O)[O-])c1ccc(-c2cccc(C[N-]C(=O)c3cc(O)[n-]c3[O-])c2)o1 (chirality)
O=C([N-][C@H](Cc1ccccc1)C(=O)[O-])c1ccc(-c2cccc(C[N-]C(=O)c3cc(O)[n-]c3[O-])c2)o1 (3D coordinates assigned)
O=C([N-][C@H](Cc1ccccc1)C(=O)[O-])c1ccc(-c2cccc(C[N-]C(=O)c3cc(O)[n-]c3[O-])c2)o1 (optimized conformer: 103.33993681169046 kcal/mol)

>  <smiles>  (66) 
O=C(NC(Cc1ccccc1)C(=O)O)c1ccc(-c2cccc(CNC(=O)c3cc(O)[nH]c3O)c2)o1

>  <score_type>  (66) 
oracle

>  <origin>  (66) 
adg

>  <m_score__min__energy>  (66) 
-21.5

>  <m_primary>  (66) 
energy

$$$$
66:0
     RDKit          3D

 59 62  0  0  0  0  0  0  0  0999 V2000
   55.1480   29.3130   44.8810 O   0  0  0  0  0  0  0  0  0  0  0  0
   56.1430   29.9390   44.4230 C   0  0  0  0  0  0  0  0  0  0  0  0
   57.1830   29.2040   43.6350 C   0  0  0  0  0  0  0  0  0  0  0  0
   58.1550   28.5140   44.5560 C   0  0  0  0  0  0  0  0  0  0  0  0
   57.7340   27.4310   45.3510 C   0  0  0  0  0  0  0  0  0  0  0  0
   58.6480   26.7660   46.1780 C   0  0  0  0  0  0  0  0  0  0  0  0
   59.9870   27.1700   46.2110 C   0  0  0  0  0  0  0  0  0  0  0  0
   60.4180   28.2380   45.4130 C   0  0  0  0  0  0  0  0  0  0  0  0
   59.5070   28.9060   44.5870 C   0  0  0  0  0  0  0  0  0  0  0  0
   56.2530   31.3590   44.5860 N   0  0  0  0  0  0  0  0  0  0  0  0
   57.3990   32.0650   45.0830 C   0  0  0  0  0  0  0  0  0  0  0  0
   57.7480   33.3430   44.6110 C   0  0  0  0  0  0  0  0  0  0  0  0
   58.8690   34.0000   45.1250 C   0  0  0  0  0  0  0  0  0  0  0  0
   59.6440   33.3950   46.1190 C   0  0  0  0  0  0  0  0  0  0  0  0
   59.2850   32.1350   46.6240 C   0  0  0  0  0  0  0  0  0  0  0  0
   60.1490   31.4550   47.6460 C   0  0  0  0  0  0  0  0  0  0  0  0
   59.3070   30.7890   48.5860 O   0  0  0  0  0  0  0  0  0  0  0  0
   59.6930   29.8030   49.5130 C   0  0  0  0  0  0  0  0  0  0  0  0
   60.3160   28.6610   48.9940 C   0  0  0  0  0  0  0  0  0  0  0  0
   60.7250   27.6280   49.8360 C   0  0  0  0  0  0  0  0  0  0  0  0
   60.5100   27.7430   51.2060 C   0  0  0  0  0  0  0  0  0  0  0  0
   59.9130   28.8530   51.7080 N   0  0  0  0  0  0  0  0  0  0  0  0
   59.4920   29.8830   50.9160 C   0  0  0  0  0  0  0  0  0  0  0  0
   58.9610   30.9430   51.4550 N   0  0  0  0  0  0  0  0  0  0  0  0
   59.4130   32.2930   51.2770 C   0  0  0  0  0  0  0  0  0  0  0  0
   58.5580   33.2150   51.1670 O   0  0  0  0  0  0  0  0  0  0  0  0
   60.8140   32.6100   51.2850 N   0  0  0  0  0  0  0  0  0  0  0  0
   61.3440   33.8050   50.6360 C   0  0  0  0  0  0  0  0  0  0  0  0
   62.1370   33.4120   49.4210 C   0  0  0  0  0  0  0  0  0  0  0  0
   63.0180   32.3150   49.4610 C   0  0  0  0  0  0  0  0  0  0  0  0
   63.7770   31.9780   48.3340 C   0  0  0  0  0  0  0  0  0  0  0  0
   63.6680   32.7370   47.1650 C   0  0  0  0  0  0  0  0  0  0  0  0
   62.8050   33.8380   47.1220 C   0  0  0  0  0  0  0  0  0  0  0  0
   62.0430   34.1780   48.2470 C   0  0  0  0  0  0  0  0  0  0  0  0
   58.1620   31.4760   46.0990 C   0  0  0  0  0  0  0  0  0  0  0  0
   56.6914   28.4528   42.9994 H   0  0  0  0  0  0  0  0  0  0  0  0
   57.7336   29.9257   43.0137 H   0  0  0  0  0  0  0  0  0  0  0  0
   56.6835   27.1060   45.3225 H   0  0  0  0  0  0  0  0  0  0  0  0
   58.3126   25.9249   46.8025 H   0  0  0  0  0  0  0  0  0  0  0  0
   60.7022   26.6486   46.8641 H   0  0  0  0  0  0  0  0  0  0  0  0
   61.4722   28.5513   45.4358 H   0  0  0  0  0  0  0  0  0  0  0  0
   59.8489   29.7417   43.9587 H   0  0  0  0  0  0  0  0  0  0  0  0
   57.1367   33.8268   43.8349 H   0  0  0  0  0  0  0  0  0  0  0  0
   59.1425   34.9960   44.7465 H   0  0  0  0  0  0  0  0  0  0  0  0
   60.5371   33.9073   46.5063 H   0  0  0  0  0  0  0  0  0  0  0  0
   60.8023   30.7221   47.1499 H   0  0  0  0  0  0  0  0  0  0  0  0
   60.7739   32.1981   48.1630 H   0  0  0  0  0  0  0  0  0  0  0  0
   60.4844   28.5783   47.9101 H   0  0  0  0  0  0  0  0  0  0  0  0
   61.2119   26.7326   49.4223 H   0  0  0  0  0  0  0  0  0  0  0  0
   60.8241   26.9340   51.8819 H   0  0  0  0  0  0  0  0  0  0  0  0
   61.4910   31.9360   51.7110 H   0  0  0  0  0  0  0  0  0  0  0  0
   60.5111   34.4570   50.3339 H   0  0  0  0  0  0  0  0  0  0  0  0
   61.9972   34.3423   51.3393 H   0  0  0  0  0  0  0  0  0  0  0  0
   63.1105   31.7200   50.3816 H   0  0  0  0  0  0  0  0  0  0  0  0
   64.4593   31.1158   48.3682 H   0  0  0  0  0  0  0  0  0  0  0  0
   64.2610   32.4686   46.2783 H   0  0  0  0  0  0  0  0  0  0  0  0
   62.7250   34.4374   46.2031 H   0  0  0  0  0  0  0  0  0  0  0  0
   61.3693   35.0469   48.2112 H   0  0  0  0  0  0  0  0  0  0  0  0
   57.8787   30.4874   46.4895 H   0  0  0  0  0  0  0  0  0  0  0  0
  1  2  2  0
  2  3  1  0
  3  4  1  0
  4  5  2  0
  5  6  1  0
  6  7  2  0
  7  8  1  0
  8  9  2  0
  2 10  1  0
 10 11  1  0
 11 12  2  0
 12 13  1  0
 13 14  2  0
 14 15  1  0
 15 16  1  0
 16 17  1  0
 17 18  1  0
 18 19  2  0
 19 20  1  0
 20 21  2  0
 21 22  1  0
 22 23  1  0
 23 24  2  3
 24 25  1  0
 25 26  2  0
 25 27  1  0
 27 28  1  0
 28 29  1  0
 29 30  2  0
 30 31  1  0
 31 32  2  0
 32 33  1  0
 33 34  2  0
 15 35  2  0
  9  4  1  0
 35 11  1  0
 23 18  1  0
 34 29  1  0
  3 36  1  0
  3 37  1  0
  5 38  1  0
  6 39  1  0
  7 40  1  0
  8 41  1  0
  9 42  1  0
 12 43  1  0
 13 44  1  0
 14 45  1  0
 16 46  1  0
 16 47  1  0
 19 48  1  0
 20 49  1  0
 21 50  1  0
 27 51  1  0
 28 52  1  0
 28 53  1  0
 30 54  1  0
 31 55  1  0
 32 56  1  0
 33 57  1  0
 34 58  1  0
 35 59  1  0
M  CHG  2  10  -1  22  -1
M  END
>  <UniqueID>  (67) 
63

>  <SMILES>  (67) 
O=C(Cc1ccccc1)[N-]c1cccc(COc2ccc[n-]c2=NC(=O)NCc2ccccc2)c1

>  <Energy>  (67) 
70.6684770336361

>  <Genealogy>  (67) 
O=C(Cc1ccccc1)[N-]c1cccc(COc2ccc[n-]c2=NC(=O)NCc2ccccc2)c1 (protonated)
O=C(Cc1ccccc1)[N-]c1cccc(COc2ccc[n-]c2=NC(=O)NCc2ccccc2)c1 (3D coordinates assigned)
O=C(Cc1ccccc1)[N-]c1cccc(COc2ccc[n-]c2=NC(=O)NCc2ccccc2)c1 (optimized conformer: 70.6684770336361 kcal/mol)

>  <smiles>  (67) 
O=C(Cc1ccccc1)Nc1cccc(COc2ccc[nH]c2=NC(=O)NCc2ccccc2)c1

>  <score_type>  (67) 
oracle

>  <origin>  (67) 
adg

>  <m_score__min__energy>  (67) 
-12.56

>  <m_primary>  (67) 
energy

$$$$
67:0
     RDKit          3D

 39 40  0  0  0  0  0  0  0  0999 V2000
   55.1390   26.6620   45.9610 O   0  0  0  0  0  0  0  0  0  0  0  0
   56.3870   26.5050   46.0300 C   0  0  0  0  0  0  0  0  0  0  0  0
   57.2720   27.7180   46.1120 C   0  0  0  0  0  0  0  0  0  0  0  0
   57.6650   28.1770   44.7780 N   0  0  0  0  0  0  0  0  0  0  0  0
   56.7370   29.5630   44.2830 S   0  0  0  0  0  0  0  0  0  0  0  0
   55.3530   29.4830   44.8630 O   0  0  0  0  0  0  0  0  0  0  0  0
   56.6230   29.5620   42.7840 O   0  0  0  0  0  0  0  0  0  0  0  0
   57.5270   31.0550   44.7870 C   0  0  0  0  0  0  0  0  0  0  0  0
   58.2320   31.0940   45.9980 C   0  0  0  0  0  0  0  0  0  0  0  0
   58.8470   32.2780   46.4160 C   0  0  0  0  0  0  0  0  0  0  0  0
   58.7560   33.4300   45.6290 C   0  0  0  0  0  0  0  0  0  0  0  0
   59.5280   34.9160   46.1550 Cl  0  0  0  0  0  0  0  0  0  0  0  0
   58.0490   33.3990   44.4230 C   0  0  0  0  0  0  0  0  0  0  0  0
   57.4340   32.2150   44.0030 C   0  0  0  0  0  0  0  0  0  0  0  0
   56.9170   25.1720   46.0130 N   0  0  0  0  0  0  0  0  0  0  0  0
   58.2050   24.7670   46.5670 C   0  0  0  0  0  0  0  0  0  0  0  0
   58.8610   23.7410   45.6820 C   0  0  0  0  0  0  0  0  0  0  0  0
   60.1210   23.7020   45.6340 O   0  0  0  0  0  0  0  0  0  0  0  0
   58.0940   22.7930   44.9180 N   0  0  0  0  0  0  0  0  0  0  0  0
   58.7050   21.8570   43.9910 C   0  0  0  0  0  0  0  0  0  0  0  0
   57.5470   21.1520   43.2960 C   0  0  0  0  0  0  0  0  0  0  0  0
   56.3190   21.4110   44.1650 C   0  0  0  0  0  0  0  0  0  0  0  0
   56.6500   22.6460   44.9940 C   0  0  0  0  0  0  0  0  0  0  0  0
   56.7277   28.5255   46.6236 H   0  0  0  0  0  0  0  0  0  0  0  0
   58.1810   27.4493   46.6701 H   0  0  0  0  0  0  0  0  0  0  0  0
   58.3016   30.1903   46.6213 H   0  0  0  0  0  0  0  0  0  0  0  0
   59.4029   32.3032   47.3649 H   0  0  0  0  0  0  0  0  0  0  0  0
   57.9765   34.3058   43.8045 H   0  0  0  0  0  0  0  0  0  0  0  0
   56.8758   32.1932   43.0554 H   0  0  0  0  0  0  0  0  0  0  0  0
   58.8585   25.6483   46.6453 H   0  0  0  0  0  0  0  0  0  0  0  0
   58.0415   24.3263   47.5615 H   0  0  0  0  0  0  0  0  0  0  0  0
   59.3243   22.3931   43.2567 H   0  0  0  0  0  0  0  0  0  0  0  0
   59.3636   21.1438   44.5083 H   0  0  0  0  0  0  0  0  0  0  0  0
   57.3967   21.5655   42.2878 H   0  0  0  0  0  0  0  0  0  0  0  0
   57.7403   20.0754   43.1797 H   0  0  0  0  0  0  0  0  0  0  0  0
   55.4366   21.5976   43.5353 H   0  0  0  0  0  0  0  0  0  0  0  0
   56.0848   20.5460   44.8029 H   0  0  0  0  0  0  0  0  0  0  0  0
   56.1513   23.5333   44.5768 H   0  0  0  0  0  0  0  0  0  0  0  0
   56.3058   22.5423   46.0336 H   0  0  0  0  0  0  0  0  0  0  0  0
  1  2  2  0
  2  3  1  0
  3  4  1  0
  4  5  1  0
  5  6  2  0
  5  7  2  0
  5  8  1  0
  8  9  2  0
  9 10  1  0
 10 11  2  0
 11 12  1  0
 11 13  1  0
 13 14  2  0
  2 15  1  0
 15 16  1  0
 16 17  1  0
 17 18  2  0
 17 19  1  0
 19 20  1  0
 20 21  1  0
 21 22  1  0
 22 23  1  0
 14  8  1  0
 23 19  1  0
  3 24  1  0
  3 25  1  0
  9 26  1  0
 10 27  1  0
 13 28  1  0
 14 29  1  0
 16 30  1  0
 16 31  1  0
 20 32  1  0
 20 33  1  0
 21 34  1  0
 21 35  1  0
 22 36  1  0
 22 37  1  0
 23 38  1  0
 23 39  1  0
M  CHG  2   4  -1  15  -1
M  END
>  <UniqueID>  (68) 
64

>  <SMILES>  (68) 
O=C(C[N-]S(=O)(=O)c1ccc(Cl)cc1)[N-]CC(=O)N1CCCC1

>  <Energy>  (68) 
32.8560856893712

>  <Genealogy>  (68) 
O=C(C[N-]S(=O)(=O)c1ccc(Cl)cc1)[N-]CC(=O)N1CCCC1 (protonated)
O=C(C[N-]S(=O)(=O)c1ccc(Cl)cc1)[N-]CC(=O)N1CCCC1 (3D coordinates assigned)
O=C(C[N-]S(=O)(=O)c1ccc(Cl)cc1)[N-]CC(=O)N1CCCC1 (nonaromatic ring conformer: 32.8560856893712 kcal/mol)

>  <smiles>  (68) 
O=C(CNS(=O)(=O)c1ccc(Cl)cc1)NCC(=O)N1CCCC1

>  <score_type>  (68) 
oracle

>  <origin>  (68) 
adg

>  <m_score__min__energy>  (68) 
-12.34

>  <m_primary>  (68) 
energy

$$$$
68:0
     RDKit          3D

 46 48  0  0  0  0  0  0  0  0999 V2000
   59.9330   28.6470   50.8400 O   0  0  0  0  0  0  0  0  0  0  0  0
   60.5160   29.1780   49.8550 C   0  0  0  0  0  0  0  0  0  0  0  0
   61.8660   29.6400   49.9930 N   0  0  0  0  0  0  0  0  0  0  0  0
   62.2210   30.9530   50.5220 C   0  0  0  0  0  0  0  0  0  0  0  0
   62.5150   31.9080   49.3970 C   0  0  0  0  0  0  0  0  0  0  0  0
   62.3270   33.2900   49.5640 C   0  0  0  0  0  0  0  0  0  0  0  0
   62.6150   34.1700   48.5160 C   0  0  0  0  0  0  0  0  0  0  0  0
   63.0940   33.6790   47.2980 C   0  0  0  0  0  0  0  0  0  0  0  0
   63.3710   34.5350   46.2830 F   0  0  0  0  0  0  0  0  0  0  0  0
   63.2900   32.3040   47.1280 C   0  0  0  0  0  0  0  0  0  0  0  0
   63.0080   31.4210   48.1750 C   0  0  0  0  0  0  0  0  0  0  0  0
   59.8050   29.3320   48.5640 C   0  0  0  0  0  0  0  0  0  0  0  0
   59.7090   30.5940   47.9490 C   0  0  0  0  0  0  0  0  0  0  0  0
   59.0410   30.7390   46.7300 C   0  0  0  0  0  0  0  0  0  0  0  0
   58.4610   29.6280   46.1070 C   0  0  0  0  0  0  0  0  0  0  0  0
   57.6030   29.8410   44.5830 S   0  0  0  0  0  0  0  0  0  0  0  0
   56.2090   30.3530   44.8300 O   0  0  0  0  0  0  0  0  0  0  0  0
   57.5120   28.5120   43.8850 O   0  0  0  0  0  0  0  0  0  0  0  0
   58.4690   30.9610   43.5770 N   0  0  0  0  0  0  0  0  0  0  0  0
   57.7720   32.2490   43.5550 C   0  0  0  0  0  0  0  0  0  0  0  0
   58.1840   33.0620   44.7510 C   0  0  0  0  0  0  0  0  0  0  0  0
   59.3200   33.8850   44.6880 C   0  0  0  0  0  0  0  0  0  0  0  0
   59.6830   34.6720   45.7860 C   0  0  0  0  0  0  0  0  0  0  0  0
   58.9060   34.6510   46.9480 C   0  0  0  0  0  0  0  0  0  0  0  0
   57.7670   33.8430   47.0140 C   0  0  0  0  0  0  0  0  0  0  0  0
   57.4020   33.0550   45.9170 C   0  0  0  0  0  0  0  0  0  0  0  0
   58.5470   28.3700   46.7150 C   0  0  0  0  0  0  0  0  0  0  0  0
   59.2130   28.2220   47.9340 C   0  0  0  0  0  0  0  0  0  0  0  0
   61.3829   31.3424   51.1187 H   0  0  0  0  0  0  0  0  0  0  0  0
   63.1181   30.8544   51.1509 H   0  0  0  0  0  0  0  0  0  0  0  0
   61.9523   33.6810   50.5215 H   0  0  0  0  0  0  0  0  0  0  0  0
   62.4642   35.2513   48.6504 H   0  0  0  0  0  0  0  0  0  0  0  0
   63.6664   31.9172   46.1695 H   0  0  0  0  0  0  0  0  0  0  0  0
   63.1727   30.3416   48.0413 H   0  0  0  0  0  0  0  0  0  0  0  0
   60.1628   31.4725   48.4310 H   0  0  0  0  0  0  0  0  0  0  0  0
   58.9708   31.7303   46.2583 H   0  0  0  0  0  0  0  0  0  0  0  0
   58.4610   30.5690   42.6070 H   0  0  0  0  0  0  0  0  0  0  0  0
   58.0336   32.7919   42.6348 H   0  0  0  0  0  0  0  0  0  0  0  0
   56.6856   32.0787   43.5838 H   0  0  0  0  0  0  0  0  0  0  0  0
   59.9272   33.9109   43.7711 H   0  0  0  0  0  0  0  0  0  0  0  0
   60.5796   35.3072   45.7351 H   0  0  0  0  0  0  0  0  0  0  0  0
   59.1910   35.2707   47.8110 H   0  0  0  0  0  0  0  0  0  0  0  0
   57.1572   33.8268   47.9293 H   0  0  0  0  0  0  0  0  0  0  0  0
   56.4996   32.4281   45.9682 H   0  0  0  0  0  0  0  0  0  0  0  0
   58.0885   27.4949   46.2312 H   0  0  0  0  0  0  0  0  0  0  0  0
   59.2751   27.2299   48.4050 H   0  0  0  0  0  0  0  0  0  0  0  0
  1  2  2  0
  2  3  1  0
  3  4  1  0
  4  5  1  0
  5  6  2  0
  6  7  1  0
  7  8  2  0
  8  9  1  0
  8 10  1  0
 10 11  2  0
  2 12  1  0
 12 13  2  0
 13 14  1  0
 14 15  2  0
 15 16  1  0
 16 17  2  0
 16 18  2  0
 16 19  1  0
 19 20  1  0
 20 21  1  0
 21 22  2  0
 22 23  1  0
 23 24  2  0
 24 25  1  0
 25 26  2  0
 15 27  1  0
 27 28  2  0
 11  5  1  0
 28 12  1  0
 26 21  1  0
  4 29  1  0
  4 30  1  0
  6 31  1  0
  7 32  1  0
 10 33  1  0
 11 34  1  0
 13 35  1  0
 14 36  1  0
 19 37  1  0
 20 38  1  0
 20 39  1  0
 22 40  1  0
 23 41  1  0
 24 42  1  0
 25 43  1  0
 26 44  1  0
 27 45  1  0
 28 46  1  0
M  CHG  1   3  -1
M  END
>  <UniqueID>  (69) 
65

>  <SMILES>  (69) 
O=C([N-]Cc1ccc(F)cc1)c1ccc(S(=O)(=O)NCc2ccccc2)cc1

>  <Energy>  (69) 
44.10815517430164

>  <Genealogy>  (69) 
O=C([N-]Cc1ccc(F)cc1)c1ccc(S(=O)(=O)NCc2ccccc2)cc1 (protonated)
O=C([N-]Cc1ccc(F)cc1)c1ccc(S(=O)(=O)NCc2ccccc2)cc1 (3D coordinates assigned)
O=C([N-]Cc1ccc(F)cc1)c1ccc(S(=O)(=O)NCc2ccccc2)cc1 (optimized conformer: 44.10815517430164 kcal/mol)

>  <smiles>  (69) 
O=C(NCc1ccc(F)cc1)c1ccc(S(=O)(=O)NCc2ccccc2)cc1

>  <score_type>  (69) 
oracle

>  <origin>  (69) 
adg

>  <m_score__min__energy>  (69) 
-9.8900000000000006

>  <m_primary>  (69) 
energy

$$$$
69:0
     RDKit          3D

 36 38  0  0  1  0  0  0  0  0999 V2000
   55.5950   29.7960   43.9150 N   0  0  0  0  0  0  0  0  0  0  0  0
   56.6580   30.3090   44.4480 C   0  0  0  0  0  0  0  0  0  0  0  0
   56.6240   31.5790   44.8760 N   0  0  0  0  0  0  0  0  0  0  0  0
   57.6860   32.2100   45.4580 C   0  0  0  0  0  0  0  0  0  0  0  0
   57.4850   33.5900   45.8320 C   0  0  0  0  0  0  0  0  0  0  0  0
   58.3430   34.4890   46.0570 N   0  0  0  0  0  0  0  0  0  0  0  0
   59.5210   34.2300   46.7750 C   0  0  0  0  0  0  0  0  0  0  0  0
   59.6040   34.1110   48.1440 C   0  0  0  0  0  0  0  0  0  0  0  0
   60.8270   33.8650   48.7710 C   0  0  0  0  0  0  0  0  0  0  0  0
   61.9940   33.7330   48.0370 C   0  0  0  0  0  0  0  0  0  0  0  0
   63.5440   33.4260   48.8010 Cl  0  0  0  0  0  0  0  0  0  0  0  0
   61.9180   33.8490   46.6700 C   0  0  0  0  0  0  0  0  0  0  0  0
   60.7000   34.0960   46.0250 C   0  0  0  0  0  0  0  0  0  0  0  0
   58.8270   31.5230   45.6110 N   0  0  0  0  0  0  0  0  0  0  0  0
   58.8990   30.2340   45.1900 C   0  0  0  0  0  0  0  0  0  0  0  0
   60.1010   29.5430   45.3660 O   0  0  0  0  0  0  0  0  0  0  0  0
   57.8340   29.6110   44.6080 C   0  0  0  0  0  0  0  0  0  0  0  0
   57.8610   28.2340   44.1160 C   0  0  0  0  0  0  0  0  0  0  0  0
   57.4120   28.0700   42.9420 O   0  0  0  0  0  0  0  0  0  0  0  0
   58.3630   27.1910   44.9250 N   0  0  0  0  0  0  0  0  0  0  0  0
   58.1110   25.9780   44.7470 C   0  0  0  0  0  0  0  0  0  0  0  0
   57.3990   25.3010   43.8090 N   0  0  0  0  0  0  0  0  0  0  0  0
   57.2880   24.0240   43.8620 C   0  0  0  0  0  0  0  0  0  0  0  0
   57.8700   23.2760   44.8550 C   0  0  0  0  0  0  0  0  0  0  0  0
   58.7200   24.6260   45.8830 S   0  0  0  0  0  0  0  0  0  0  0  0
   55.7290   28.9000   43.3890 H   0  0  0  0  0  0  0  0  0  0  0  0
   56.4355   33.9028   45.9357 H   0  0  0  0  0  0  0  0  0  0  0  0
   58.6934   34.2112   48.7529 H   0  0  0  0  0  0  0  0  0  0  0  0
   60.8643   33.7745   49.8666 H   0  0  0  0  0  0  0  0  0  0  0  0
   62.8337   33.7456   46.0694 H   0  0  0  0  0  0  0  0  0  0  0  0
   60.6670   34.1852   44.9291 H   0  0  0  0  0  0  0  0  0  0  0  0
   59.6480   31.9860   46.0480 H   0  0  0  0  0  0  0  0  0  0  0  0
   60.1340   28.5260   45.2920 H   0  0  0  0  0  0  0  0  0  0  0  0
   56.9480   25.8970   43.0320 H   0  0  0  0  0  0  0  0  0  0  0  0
   56.7053   23.5098   43.0835 H   0  0  0  0  0  0  0  0  0  0  0  0
   57.8493   22.1875   45.0125 H   0  0  0  0  0  0  0  0  0  0  0  0
  1  2  2  3
  2  3  1  0
  3  4  2  0
  4  5  1  0
  5  6  2  0
  6  7  1  0
  7  8  2  0
  8  9  1  0
  9 10  2  0
 10 11  1  0
 10 12  1  0
 12 13  2  0
  4 14  1  0
 14 15  1  0
 15 16  1  0
 15 17  2  0
 17 18  1  0
 18 19  2  0
 18 20  1  0
 20 21  2  0
 21 22  1  0
 22 23  1  0
 23 24  2  0
 24 25  1  0
 17  2  1  0
 25 21  1  0
 13  7  1  0
  1 26  1  0
  5 27  1  0
  8 28  1  0
  9 29  1  0
 12 30  1  0
 13 31  1  0
 14 32  1  0
 16 33  1  0
 22 34  1  0
 23 35  1  0
 24 36  1  0
M  END
>  <smiles>  (70) 
N=c1nc(C=Nc2ccc(Cl)cc2)[nH]c(O)c1C(=O)N=c1[nH]ccs1

>  <score_type>  (70) 
oracle

>  <origin>  (70) 
adg

>  <m_score__min__energy>  (70) 
-8.4299999999999997

>  <m_primary>  (70) 
energy

$$$$
70:0
     RDKit          3D

 53 56  0  0  0  0  0  0  0  0999 V2000
   59.9710   28.9530   51.2100 C   0  0  0  0  0  0  0  0  0  0  0  0
   60.9920   28.9320   50.1140 C   0  0  0  0  0  0  0  0  0  0  0  0
   62.0760   29.5530   50.2780 O   0  0  0  0  0  0  0  0  0  0  0  0
   60.7600   28.2620   48.8680 N   0  0  0  0  0  0  0  0  0  0  0  0
   59.7790   28.6110   47.8800 C   0  0  0  0  0  0  0  0  0  0  0  0
   58.7380   27.7310   47.5350 C   0  0  0  0  0  0  0  0  0  0  0  0
   57.8110   28.0870   46.5500 C   0  0  0  0  0  0  0  0  0  0  0  0
   57.9270   29.3130   45.8840 C   0  0  0  0  0  0  0  0  0  0  0  0
   56.7440   29.7810   44.6670 S   0  0  0  0  0  0  0  0  0  0  0  0
   55.4910   28.9670   44.8340 O   0  0  0  0  0  0  0  0  0  0  0  0
   57.3160   29.5360   43.2980 O   0  0  0  0  0  0  0  0  0  0  0  0
   56.3840   31.4650   44.8670 N   0  0  0  0  0  0  0  0  0  0  0  0
   57.2830   32.3850   45.0320 C   0  0  0  0  0  0  0  0  0  0  0  0
   57.5250   32.8830   46.3170 C   0  0  0  0  0  0  0  0  0  0  0  0
   58.5200   33.8570   46.5100 C   0  0  0  0  0  0  0  0  0  0  0  0
   58.8110   34.3790   47.7800 O   0  0  0  0  0  0  0  0  0  0  0  0
   59.7310   33.8270   48.6840 C   0  0  0  0  0  0  0  0  0  0  0  0
   59.2750   32.9190   49.6420 C   0  0  0  0  0  0  0  0  0  0  0  0
   60.1710   32.3200   50.5280 C   0  0  0  0  0  0  0  0  0  0  0  0
   61.5360   32.6280   50.4800 C   0  0  0  0  0  0  0  0  0  0  0  0
   62.3910   31.9540   51.3550 O   0  0  0  0  0  0  0  0  0  0  0  0
   62.0030   33.5920   49.5540 C   0  0  0  0  0  0  0  0  0  0  0  0
   63.4610   33.9580   49.4360 C   0  0  0  0  0  0  0  0  0  0  0  0
   64.1350   33.0780   48.3750 C   0  0  0  0  0  0  0  0  0  0  0  0
   63.7460   33.3810   46.9360 C   0  0  0  0  0  0  0  0  0  0  0  0
   63.2050   32.1370   47.6230 C   0  0  0  0  0  0  0  0  0  0  0  0
   61.0890   34.1840   48.6650 C   0  0  0  0  0  0  0  0  0  0  0  0
   59.2160   34.3470   45.4010 C   0  0  0  0  0  0  0  0  0  0  0  0
   58.9400   33.8340   44.1310 C   0  0  0  0  0  0  0  0  0  0  0  0
   57.9940   32.8710   43.9760 N   0  0  0  0  0  0  0  0  0  0  0  0
   58.9770   30.1820   46.2110 C   0  0  0  0  0  0  0  0  0  0  0  0
   59.9050   29.8270   47.1950 C   0  0  0  0  0  0  0  0  0  0  0  0
   60.9190   30.6770   47.4970 F   0  0  0  0  0  0  0  0  0  0  0  0
   60.4797   28.9425   52.1852 H   0  0  0  0  0  0  0  0  0  0  0  0
   59.3603   29.8639   51.1248 H   0  0  0  0  0  0  0  0  0  0  0  0
   59.3233   28.0680   51.1248 H   0  0  0  0  0  0  0  0  0  0  0  0
   58.6523   26.7585   48.0419 H   0  0  0  0  0  0  0  0  0  0  0  0
   56.9884   27.4017   46.2979 H   0  0  0  0  0  0  0  0  0  0  0  0
   56.9395   32.5141   47.1720 H   0  0  0  0  0  0  0  0  0  0  0  0
   58.2039   32.6748   49.6984 H   0  0  0  0  0  0  0  0  0  0  0  0
   59.8014   31.5986   51.2716 H   0  0  0  0  0  0  0  0  0  0  0  0
   62.5800   30.9620   51.2970 H   0  0  0  0  0  0  0  0  0  0  0  0
   63.5495   35.0147   49.1435 H   0  0  0  0  0  0  0  0  0  0  0  0
   63.9545   33.7987   50.4061 H   0  0  0  0  0  0  0  0  0  0  0  0
   65.0844   32.9658   48.9192 H   0  0  0  0  0  0  0  0  0  0  0  0
   63.0737   34.2228   46.7137 H   0  0  0  0  0  0  0  0  0  0  0  0
   64.2993   33.5771   46.0057 H   0  0  0  0  0  0  0  0  0  0  0  0
   62.1415   32.0790   47.8978 H   0  0  0  0  0  0  0  0  0  0  0  0
   63.2050   31.0607   47.3957 H   0  0  0  0  0  0  0  0  0  0  0  0
   61.4422   34.9368   47.9450 H   0  0  0  0  0  0  0  0  0  0  0  0
   59.9764   35.1317   45.5275 H   0  0  0  0  0  0  0  0  0  0  0  0
   59.4893   34.2103   43.2554 H   0  0  0  0  0  0  0  0  0  0  0  0
   59.0714   31.1470   45.6916 H   0  0  0  0  0  0  0  0  0  0  0  0
  1  2  1  0
  2  3  2  0
  2  4  1  0
  4  5  1  0
  5  6  2  0
  6  7  1  0
  7  8  2  0
  8  9  1  0
  9 10  2  0
  9 11  2  0
  9 12  1  0
 12 13  2  3
 13 14  1  0
 14 15  2  0
 15 16  1  0
 16 17  1  0
 17 18  2  0
 18 19  1  0
 19 20  2  0
 20 21  1  0
 20 22  1  0
 22 23  1  0
 23 24  1  0
 24 25  1  0
 25 26  1  0
 22 27  2  0
 15 28  1  0
 28 29  2  0
 29 30  1  0
  8 31  1  0
 31 32  2  0
 32 33  1  0
 32  5  1  0
 30 13  1  0
 27 17  1  0
 26 24  1  0
  1 34  1  0
  1 35  1  0
  1 36  1  0
  6 37  1  0
  7 38  1  0
 14 39  1  0
 18 40  1  0
 19 41  1  0
 21 42  1  0
 23 43  1  0
 23 44  1  0
 24 45  1  0
 25 46  1  0
 25 47  1  0
 26 48  1  0
 26 49  1  0
 27 50  1  0
 28 51  1  0
 29 52  1  0
 31 53  1  0
M  CHG  2   4  -1  30  -1
M  END
>  <UniqueID>  (71) 
66

>  <SMILES>  (71) 
CC(=O)[N-]c1ccc(S(=O)(=O)N=c2cc(Oc3ccc(O)c(CC4CC4)c3)cc[n-]2)cc1F

>  <Energy>  (71) 
333.1994922327787

>  <Genealogy>  (71) 
CC(=O)[N-]c1ccc(S(=O)(=O)N=c2cc(Oc3ccc(O)c(CC4CC4)c3)cc[n-]2)cc1F (protonated)
CC(=O)[N-]c1ccc(S(=O)(=O)N=c2cc(Oc3ccc(O)c(CC4CC4)c3)cc[n-]2)cc1F (3D coordinates assigned)
CC(=O)[N-]c1ccc(S(=O)(=O)N=c2cc(Oc3ccc(O)c(CC4CC4)c3)cc[n-]2)cc1F (nonaromatic ring conformer: 333.1994922327787 kcal/mol)

>  <smiles>  (71) 
CC(=O)Nc1ccc(S(=O)(=O)N=c2cc(Oc3ccc(O)c(CC4CC4)c3)cc[nH]2)cc1F

>  <score_type>  (71) 
oracle

>  <origin>  (71) 
adg

>  <m_score__min__energy>  (71) 
-11.6

>  <m_primary>  (71) 
energy

$$$$
71:0
     RDKit          3D

 58 61  0  0  0  0  0  0  0  0999 V2000
   69.3090   34.4430   50.2870 N   0  0  0  0  0  0  0  0  0  0  0  0
   68.3540   33.8200   50.4790 C   0  0  0  0  0  0  0  0  0  0  0  0
   67.1640   33.0440   50.7180 C   0  0  0  0  0  0  0  0  0  0  0  0
   67.2610   31.6770   50.9930 C   0  0  0  0  0  0  0  0  0  0  0  0
   66.1050   30.9270   51.2240 C   0  0  0  0  0  0  0  0  0  0  0  0
   64.8490   31.5380   51.1820 C   0  0  0  0  0  0  0  0  0  0  0  0
   64.7390   32.9170   50.9030 C   0  0  0  0  0  0  0  0  0  0  0  0
   63.5090   33.5960   50.8440 O   0  0  0  0  0  0  0  0  0  0  0  0
   62.9240   34.2040   49.6880 C   0  0  0  0  0  0  0  0  0  0  0  0
   62.0750   33.1960   48.8890 C   0  0  0  0  0  0  0  0  0  0  0  0
   62.8810   31.8890   48.6400 C   0  0  0  0  0  0  0  0  0  0  0  0
   62.5730   31.2260   47.2870 C   0  0  0  0  0  0  0  0  0  0  0  0
   61.1640   31.4200   46.9270 N   0  0  0  0  0  0  0  0  0  0  0  0
   60.3050   30.2930   46.6600 C   0  0  0  0  0  0  0  0  0  0  0  0
   59.2780   29.9510   47.5560 C   0  0  0  0  0  0  0  0  0  0  0  0
   58.4380   28.8660   47.2910 C   0  0  0  0  0  0  0  0  0  0  0  0
   58.6000   28.1140   46.1180 C   0  0  0  0  0  0  0  0  0  0  0  0
   57.7180   26.9210   45.8510 C   0  0  0  0  0  0  0  0  0  0  0  0
   56.2640   27.3000   45.7050 C   0  0  0  0  0  0  0  0  0  0  0  0
   55.3560   26.4840   46.0230 O   0  0  0  0  0  0  0  0  0  0  0  0
   55.8850   28.5800   45.1880 N   0  0  0  0  0  0  0  0  0  0  0  0
   56.5140   29.2170   44.0390 C   0  0  0  0  0  0  0  0  0  0  0  0
   56.3670   30.7350   44.1640 C   0  0  0  0  0  0  0  0  0  0  0  0
   57.4010   31.5500   43.4020 C   0  0  0  0  0  0  0  0  0  0  0  0
   57.4860   31.4390   44.9170 C   0  0  0  0  0  0  0  0  0  0  0  0
   59.6260   28.4510   45.2210 C   0  0  0  0  0  0  0  0  0  0  0  0
   60.4660   29.5370   45.4870 C   0  0  0  0  0  0  0  0  0  0  0  0
   60.6230   32.7860   46.8600 C   0  0  0  0  0  0  0  0  0  0  0  0
   61.5400   33.7940   47.5730 C   0  0  0  0  0  0  0  0  0  0  0  0
   65.9050   33.6590   50.6740 C   0  0  0  0  0  0  0  0  0  0  0  0
   68.2475   31.1916   51.0276 H   0  0  0  0  0  0  0  0  0  0  0  0
   66.1839   29.8513   51.4398 H   0  0  0  0  0  0  0  0  0  0  0  0
   63.9431   30.9422   51.3670 H   0  0  0  0  0  0  0  0  0  0  0  0
   62.2817   35.0374   50.0087 H   0  0  0  0  0  0  0  0  0  0  0  0
   63.7358   34.5632   49.0385 H   0  0  0  0  0  0  0  0  0  0  0  0
   61.1912   32.9489   49.4955 H   0  0  0  0  0  0  0  0  0  0  0  0
   63.9538   32.1299   48.6733 H   0  0  0  0  0  0  0  0  0  0  0  0
   62.5889   31.1748   49.4239 H   0  0  0  0  0  0  0  0  0  0  0  0
   63.2098   31.6753   46.5107 H   0  0  0  0  0  0  0  0  0  0  0  0
   62.7741   30.1474   47.3661 H   0  0  0  0  0  0  0  0  0  0  0  0
   59.1342   30.5416   48.4728 H   0  0  0  0  0  0  0  0  0  0  0  0
   57.6455   28.6003   48.0061 H   0  0  0  0  0  0  0  0  0  0  0  0
   58.0515   26.4363   44.9216 H   0  0  0  0  0  0  0  0  0  0  0  0
   57.8023   26.2426   46.7128 H   0  0  0  0  0  0  0  0  0  0  0  0
   57.5811   28.9517   44.0094 H   0  0  0  0  0  0  0  0  0  0  0  0
   56.0289   28.8731   43.1136 H   0  0  0  0  0  0  0  0  0  0  0  0
   55.2689   30.7303   44.2277 H   0  0  0  0  0  0  0  0  0  0  0  0
   58.1451   31.0423   42.7707 H   0  0  0  0  0  0  0  0  0  0  0  0
   57.3601   32.3825   42.6842 H   0  0  0  0  0  0  0  0  0  0  0  0
   58.2915   30.8510   45.3811 H   0  0  0  0  0  0  0  0  0  0  0  0
   57.5320   32.1579   45.7483 H   0  0  0  0  0  0  0  0  0  0  0  0
   59.7698   27.8586   44.3054 H   0  0  0  0  0  0  0  0  0  0  0  0
   61.2591   29.8013   44.7720 H   0  0  0  0  0  0  0  0  0  0  0  0
   60.5231   33.0790   45.8044 H   0  0  0  0  0  0  0  0  0  0  0  0
   59.6454   32.7939   47.3643 H   0  0  0  0  0  0  0  0  0  0  0  0
   62.3872   34.0409   46.9162 H   0  0  0  0  0  0  0  0  0  0  0  0
   60.9625   34.7017   47.8023 H   0  0  0  0  0  0  0  0  0  0  0  0
   65.8319   34.7350   50.4575 H   0  0  0  0  0  0  0  0  0  0  0  0
  1  2  3  0
  2  3  1  0
  3  4  2  0
  4  5  1  0
  5  6  2  0
  6  7  1  0
  7  8  1  0
  8  9  1  0
  9 10  1  0
 10 11  1  0
 11 12  1  0
 12 13  1  0
 13 14  1  0
 14 15  2  0
 15 16  1  0
 16 17  2  0
 17 18  1  0
 18 19  1  0
 19 20  2  0
 19 21  1  0
 21 22  1  0
 22 23  1  0
 23 24  1  0
 24 25  1  0
 17 26  1  0
 26 27  2  0
 13 28  1  0
 28 29  1  0
  7 30  2  0
 30  3  1  0
 29 10  1  0
 27 14  1  0
 25 23  1  0
  4 31  1  0
  5 32  1  0
  6 33  1  0
  9 34  1  0
  9 35  1  0
 10 36  1  0
 11 37  1  0
 11 38  1  0
 12 39  1  0
 12 40  1  0
 15 41  1  0
 16 42  1  0
 18 43  1  0
 18 44  1  0
 22 45  1  0
 22 46  1  0
 23 47  1  0
 24 48  1  0
 24 49  1  0
 25 50  1  0
 25 51  1  0
 26 52  1  0
 27 53  1  0
 28 54  1  0
 28 55  1  0
 29 56  1  0
 29 57  1  0
 30 58  1  0
M  CHG  1  21  -1
M  END
>  <UniqueID>  (72) 
67

>  <SMILES>  (72) 
N#Cc1cccc(OCC2CCN(c3ccc(CC(=O)[N-]CC4CC4)cc3)CC2)c1

>  <Energy>  (72) 
326.887444888098

>  <Genealogy>  (72) 
N#Cc1cccc(OCC2CCN(c3ccc(CC(=O)[N-]CC4CC4)cc3)CC2)c1 (protonated)
N#Cc1cccc(OCC2CCN(c3ccc(CC(=O)[N-]CC4CC4)cc3)CC2)c1 (3D coordinates assigned)
N#Cc1cccc(OCC2CCN(c3ccc(CC(=O)[N-]CC4CC4)cc3)CC2)c1 (nonaromatic ring conformer: 326.887444888098 kcal/mol)

>  <smiles>  (72) 
N#Cc1cccc(OCC2CCN(c3ccc(CC(=O)NCC4CC4)cc3)CC2)c1

>  <score_type>  (72) 
oracle

>  <origin>  (72) 
adg

>  <m_score__min__energy>  (72) 
-10.48

>  <m_primary>  (72) 
energy

$$$$
72:0
     RDKit          3D

 44 47  0  0  0  0  0  0  0  0999 V2000
   57.5600   31.1220   43.1390 O   0  0  0  0  0  0  0  0  0  0  0  0
   57.3900   30.8920   44.3660 C   0  0  0  0  0  0  0  0  0  0  0  0
   57.2100   32.0040   45.2540 N   0  0  0  0  0  0  0  0  0  0  0  0
   58.2570   32.8060   45.8180 C   0  0  0  0  0  0  0  0  0  0  0  0
   58.2750   34.2050   45.6710 C   0  0  0  0  0  0  0  0  0  0  0  0
   59.3090   34.9570   46.2350 C   0  0  0  0  0  0  0  0  0  0  0  0
   60.3360   34.3210   46.9370 C   0  0  0  0  0  0  0  0  0  0  0  0
   60.3430   32.9270   47.0640 C   0  0  0  0  0  0  0  0  0  0  0  0
   61.6240   32.1370   47.9810 S   0  0  0  0  0  0  0  0  0  0  0  0
   62.4380   31.2610   47.0700 O   0  0  0  0  0  0  0  0  0  0  0  0
   62.5250   33.1920   48.5620 O   0  0  0  0  0  0  0  0  0  0  0  0
   60.9280   31.1810   49.2680 N   0  0  0  0  0  0  0  0  0  0  0  0
   59.7150   31.8460   49.7910 C   0  0  0  0  0  0  0  0  0  0  0  0
   58.7970   30.8320   50.4920 C   0  0  0  0  0  0  0  0  0  0  0  0
   58.3460   29.7770   49.6500 O   0  0  0  0  0  0  0  0  0  0  0  0
   59.1820   29.5440   48.5260 C   0  0  0  0  0  0  0  0  0  0  0  0
   60.6740   29.7890   48.8180 C   0  0  0  0  0  0  0  0  0  0  0  0
   59.3040   32.1730   46.5000 C   0  0  0  0  0  0  0  0  0  0  0  0
   57.4330   29.4950   44.8570 C   0  0  0  0  0  0  0  0  0  0  0  0
   58.6720   28.8110   44.9930 C   0  0  0  0  0  0  0  0  0  0  0  0
   58.7150   27.4840   45.4580 C   0  0  0  0  0  0  0  0  0  0  0  0
   57.5060   26.8670   45.7660 C   0  0  0  0  0  0  0  0  0  0  0  0
   57.3150   25.6190   46.2180 N   0  0  0  0  0  0  0  0  0  0  0  0
   55.9630   25.5650   46.3340 C   0  0  0  0  0  0  0  0  0  0  0  0
   55.3630   24.5360   46.7400 O   0  0  0  0  0  0  0  0  0  0  0  0
   55.3050   26.6990   45.9830 N   0  0  0  0  0  0  0  0  0  0  0  0
   56.3130   27.5080   45.6260 C   0  0  0  0  0  0  0  0  0  0  0  0
   56.2290   28.8210   45.1690 C   0  0  0  0  0  0  0  0  0  0  0  0
   57.4732   34.7082   45.1107 H   0  0  0  0  0  0  0  0  0  0  0  0
   59.3144   36.0516   46.1261 H   0  0  0  0  0  0  0  0  0  0  0  0
   61.1412   34.9173   47.3911 H   0  0  0  0  0  0  0  0  0  0  0  0
   61.6410   31.1500   50.0360 H   0  0  0  0  0  0  0  0  0  0  0  0
   60.0115   32.6225   50.5115 H   0  0  0  0  0  0  0  0  0  0  0  0
   59.1675   32.2945   48.9489 H   0  0  0  0  0  0  0  0  0  0  0  0
   59.3501   30.3897   51.3337 H   0  0  0  0  0  0  0  0  0  0  0  0
   57.9023   31.3846   50.8148 H   0  0  0  0  0  0  0  0  0  0  0  0
   59.0553   28.4990   48.2068 H   0  0  0  0  0  0  0  0  0  0  0  0
   58.8814   30.2550   47.7423 H   0  0  0  0  0  0  0  0  0  0  0  0
   61.0009   29.0950   49.6064 H   0  0  0  0  0  0  0  0  0  0  0  0
   61.2356   29.6236   47.8868 H   0  0  0  0  0  0  0  0  0  0  0  0
   59.3112   31.0770   46.5938 H   0  0  0  0  0  0  0  0  0  0  0  0
   59.6083   29.3257   44.7314 H   0  0  0  0  0  0  0  0  0  0  0  0
   59.6710   26.9524   45.5742 H   0  0  0  0  0  0  0  0  0  0  0  0
   55.2551   29.3193   45.0541 H   0  0  0  0  0  0  0  0  0  0  0  0
  1  2  2  0
  2  3  1  0
  3  4  1  0
  4  5  2  0
  5  6  1  0
  6  7  2  0
  7  8  1  0
  8  9  1  0
  9 10  2  0
  9 11  2  0
  9 12  1  0
 12 13  1  0
 13 14  1  0
 14 15  1  0
 15 16  1  0
 16 17  1  0
  8 18  2  0
  2 19  1  0
 19 20  2  0
 20 21  1  0
 21 22  2  0
 22 23  1  0
 23 24  1  0
 24 25  2  0
 24 26  1  0
 26 27  1  0
 27 28  2  0
 18  4  1  0
 28 19  1  0
 17 12  1  0
 27 22  1  0
  5 29  1  0
  6 30  1  0
  7 31  1  0
 12 32  1  0
 13 33  1  0
 13 34  1  0
 14 35  1  0
 14 36  1  0
 16 37  1  0
 16 38  1  0
 17 39  1  0
 17 40  1  0
 18 41  1  0
 20 42  1  0
 21 43  1  0
 28 44  1  0
M  CHG  4   3  -1  12   1  23  -1  26  -1
M  END
>  <UniqueID>  (73) 
68

>  <SMILES>  (73) 
O=C([N-]c1cccc(S(=O)(=O)[NH+]2CCOCC2)c1)c1ccc2[n-]c(=O)[n-]c2c1

>  <Energy>  (73) 
101.38460178547159

>  <Genealogy>  (73) 
O=C([N-]c1cccc(S(=O)(=O)[NH+]2CCOCC2)c1)c1ccc2[n-]c(=O)[n-]c2c1 (protonated)
O=C([N-]c1cccc(S(=O)(=O)[NH+]2CCOCC2)c1)c1ccc2[n-]c(=O)[n-]c2c1 (3D coordinates assigned)
O=C([N-]c1cccc(S(=O)(=O)[NH+]2CCOCC2)c1)c1ccc2[n-]c(=O)[n-]c2c1 (nonaromatic ring conformer: 101.38460178547159 kcal/mol)

>  <smiles>  (73) 
O=C(Nc1cccc(S(=O)(=O)N2CCOCC2)c1)c1ccc2[nH]c(=O)[nH]c2c1

>  <score_type>  (73) 
oracle

>  <origin>  (73) 
adg

>  <m_score__min__energy>  (73) 
-12.92

>  <m_primary>  (73) 
energy

$$$$
73:0
     RDKit          3D

 42 44  0  0  0  0  0  0  0  0999 V2000
   55.4670   29.3170   44.8690 N   0  0  0  0  0  0  0  0  0  0  0  0
   56.8310   29.7940   43.9200 S   0  0  0  0  0  0  0  0  0  0  0  0
   57.4530   28.5740   43.3030 O   0  0  0  0  0  0  0  0  0  0  0  0
   56.3620   30.7240   42.8360 O   0  0  0  0  0  0  0  0  0  0  0  0
   58.0250   30.6150   44.9220 C   0  0  0  0  0  0  0  0  0  0  0  0
   59.1420   29.9210   45.4060 C   0  0  0  0  0  0  0  0  0  0  0  0
   60.0890   30.5740   46.2000 C   0  0  0  0  0  0  0  0  0  0  0  0
   59.9270   31.9300   46.5300 C   0  0  0  0  0  0  0  0  0  0  0  0
   60.9290   32.6310   47.3690 C   0  0  0  0  0  0  0  0  0  0  0  0
   60.9380   32.6690   48.7010 C   0  0  0  0  0  0  0  0  0  0  0  0
   59.8570   32.1780   49.5900 C   0  0  0  0  0  0  0  0  0  0  0  0
   59.4570   30.8310   49.5610 C   0  0  0  0  0  0  0  0  0  0  0  0
   58.4360   30.3770   50.3990 C   0  0  0  0  0  0  0  0  0  0  0  0
   57.7880   31.2670   51.2660 C   0  0  0  0  0  0  0  0  0  0  0  0
   56.5160   30.6860   52.3360 S   0  0  0  0  0  0  0  0  0  0  0  0
   54.9840   31.2420   51.7610 N   0  0  0  0  0  0  0  0  0  0  0  0
   56.5240   29.1820   52.3680 O   0  0  0  0  0  0  0  0  0  0  0  0
   56.7510   31.1980   53.7300 O   0  0  0  0  0  0  0  0  0  0  0  0
   58.1740   32.6120   51.2900 C   0  0  0  0  0  0  0  0  0  0  0  0
   59.1950   33.0680   50.4520 C   0  0  0  0  0  0  0  0  0  0  0  0
   62.1680   33.3210   49.2290 C   0  0  0  0  0  0  0  0  0  0  0  0
   62.8890   33.8520   47.9900 C   0  0  0  0  0  0  0  0  0  0  0  0
   62.1250   33.2990   46.7850 C   0  0  0  0  0  0  0  0  0  0  0  0
   58.8190   32.6290   46.0250 C   0  0  0  0  0  0  0  0  0  0  0  0
   57.8710   31.9760   45.2300 C   0  0  0  0  0  0  0  0  0  0  0  0
   56.8070   32.6730   44.7600 F   0  0  0  0  0  0  0  0  0  0  0  0
   55.1510   28.3890   44.5070 H   0  0  0  0  0  0  0  0  0  0  0  0
   59.2742   28.8571   45.1599 H   0  0  0  0  0  0  0  0  0  0  0  0
   60.9666   30.0228   46.5688 H   0  0  0  0  0  0  0  0  0  0  0  0
   59.9516   30.1292   48.8734 H   0  0  0  0  0  0  0  0  0  0  0  0
   58.1397   29.3179   50.3783 H   0  0  0  0  0  0  0  0  0  0  0  0
   54.8890   32.2380   52.0630 H   0  0  0  0  0  0  0  0  0  0  0  0
   55.0330   31.2470   50.7180 H   0  0  0  0  0  0  0  0  0  0  0  0
   57.6712   33.3136   51.9719 H   0  0  0  0  0  0  0  0  0  0  0  0
   59.4820   34.1298   50.4674 H   0  0  0  0  0  0  0  0  0  0  0  0
   61.9083   34.1452   49.9096 H   0  0  0  0  0  0  0  0  0  0  0  0
   62.7927   32.6241   49.8070 H   0  0  0  0  0  0  0  0  0  0  0  0
   62.8724   34.9518   47.9806 H   0  0  0  0  0  0  0  0  0  0  0  0
   63.9439   33.5406   47.9745 H   0  0  0  0  0  0  0  0  0  0  0  0
   61.8234   34.1135   46.1100 H   0  0  0  0  0  0  0  0  0  0  0  0
   62.7365   32.6079   46.1863 H   0  0  0  0  0  0  0  0  0  0  0  0
   58.6955   33.6974   46.2560 H   0  0  0  0  0  0  0  0  0  0  0  0
  1  2  1  0
  2  3  2  0
  2  4  2  0
  2  5  1  0
  5  6  2  0
  6  7  1  0
  7  8  2  0
  8  9  1  0
  9 10  2  0
 10 11  1  0
 11 12  2  0
 12 13  1  0
 13 14  2  0
 14 15  1  0
 15 16  1  0
 15 17  2  0
 15 18  2  0
 14 19  1  0
 19 20  2  0
 10 21  1  0
 21 22  1  0
 22 23  1  0
  8 24  1  0
 24 25  2  0
 25 26  1  0
 25  5  1  0
 23  9  1  0
 20 11  1  0
  1 27  1  0
  6 28  1  0
  7 29  1  0
 12 30  1  0
 13 31  1  0
 16 32  1  0
 16 33  1  0
 19 34  1  0
 20 35  1  0
 21 36  1  0
 21 37  1  0
 22 38  1  0
 22 39  1  0
 23 40  1  0
 23 41  1  0
 24 42  1  0
M  CHG  1   1  -1
M  END
>  <UniqueID>  (74) 
69

>  <SMILES>  (74) 
[NH-]S(=O)(=O)c1ccc(C2=C(c3ccc(S(N)(=O)=O)cc3)CCC2)cc1F

>  <Energy>  (74) 
55.83771301077709

>  <Genealogy>  (74) 
[NH-]S(=O)(=O)c1ccc(C2=C(c3ccc(S(N)(=O)=O)cc3)CCC2)cc1F (protonated)
[NH-]S(=O)(=O)c1ccc(C2=C(c3ccc(S(N)(=O)=O)cc3)CCC2)cc1F (3D coordinates assigned)
[NH-]S(=O)(=O)c1ccc(C2=C(c3ccc(S(N)(=O)=O)cc3)CCC2)cc1F (nonaromatic ring conformer: 55.83771301077709 kcal/mol)

>  <smiles>  (74) 
NS(=O)(=O)c1ccc(C2=C(c3ccc(S(N)(=O)=O)c(F)c3)CCC2)cc1

>  <score_type>  (74) 
oracle

>  <origin>  (74) 
adg

>  <m_score__min__energy>  (74) 
-11.42

>  <m_primary>  (74) 
energy

$$$$
74:0
     RDKit          3D

 55 58  0  0  0  0  0  0  0  0999 V2000
   57.5220   31.8460   43.0570 O   0  0  0  0  0  0  0  0  0  0  0  0
   57.0460   31.8330   44.2220 C   0  0  0  0  0  0  0  0  0  0  0  0
   57.0200   33.1280   44.9940 C   0  0  0  0  0  0  0  0  0  0  0  0
   58.2750   33.3580   45.7380 N   0  0  0  0  0  0  0  0  0  0  0  0
   58.9870   34.5520   45.2260 C   0  0  0  0  0  0  0  0  0  0  0  0
   59.7310   35.3380   46.3240 C   0  0  0  0  0  0  0  0  0  0  0  0
   60.3430   34.4520   47.3390 N   0  0  0  0  0  0  0  0  0  0  0  0
   61.6210   33.8570   46.8940 C   0  0  0  0  0  0  0  0  0  0  0  0
   62.5220   33.5620   48.0710 C   0  0  0  0  0  0  0  0  0  0  0  0
   62.3450   34.2630   49.2720 C   0  0  0  0  0  0  0  0  0  0  0  0
   63.1940   34.0310   50.3590 C   0  0  0  0  0  0  0  0  0  0  0  0
   64.2300   33.0990   50.2530 C   0  0  0  0  0  0  0  0  0  0  0  0
   64.4080   32.3870   49.0650 C   0  0  0  0  0  0  0  0  0  0  0  0
   63.5620   32.6160   47.9720 C   0  0  0  0  0  0  0  0  0  0  0  0
   63.7620   31.9160   46.8290 F   0  0  0  0  0  0  0  0  0  0  0  0
   59.4110   33.4370   47.8930 C   0  0  0  0  0  0  0  0  0  0  0  0
   58.0520   33.4160   47.1920 C   0  0  0  0  0  0  0  0  0  0  0  0
   56.5270   30.5960   44.7380 N   0  0  0  0  0  0  0  0  0  0  0  0
   57.1330   29.2970   44.6760 C   0  0  0  0  0  0  0  0  0  0  0  0
   57.4230   28.7520   43.4210 C   0  0  0  0  0  0  0  0  0  0  0  0
   57.9720   27.4740   43.3170 C   0  0  0  0  0  0  0  0  0  0  0  0
   58.2380   26.7290   44.4670 C   0  0  0  0  0  0  0  0  0  0  0  0
   57.9710   27.2710   45.7340 C   0  0  0  0  0  0  0  0  0  0  0  0
   58.2640   26.4740   46.9730 C   0  0  0  0  0  0  0  0  0  0  0  0
   57.3560   25.2870   47.0620 C   0  0  0  0  0  0  0  0  0  0  0  0
   57.6900   24.1230   47.6470 N   0  0  0  0  0  0  0  0  0  0  0  0
   56.5700   23.3810   47.5210 C   0  0  0  0  0  0  0  0  0  0  0  0
   56.4880   22.1990   47.9500 O   0  0  0  0  0  0  0  0  0  0  0  0
   55.5410   24.0040   46.9030 N   0  0  0  0  0  0  0  0  0  0  0  0
   56.0580   25.2120   46.6240 C   0  0  0  0  0  0  0  0  0  0  0  0
   55.3570   26.2280   45.9810 O   0  0  0  0  0  0  0  0  0  0  0  0
   57.4570   28.5730   45.8350 C   0  0  0  0  0  0  0  0  0  0  0  0
   56.8689   33.9583   44.2885 H   0  0  0  0  0  0  0  0  0  0  0  0
   56.1996   33.0699   45.7245 H   0  0  0  0  0  0  0  0  0  0  0  0
   59.7199   34.2251   44.4736 H   0  0  0  0  0  0  0  0  0  0  0  0
   58.2282   35.2258   44.8015 H   0  0  0  0  0  0  0  0  0  0  0  0
   60.5250   35.9362   45.8531 H   0  0  0  0  0  0  0  0  0  0  0  0
   58.9948   35.9748   46.8364 H   0  0  0  0  0  0  0  0  0  0  0  0
   61.4133   32.9199   46.3566 H   0  0  0  0  0  0  0  0  0  0  0  0
   62.1305   34.5754   46.2350 H   0  0  0  0  0  0  0  0  0  0  0  0
   61.5333   35.0002   49.3601 H   0  0  0  0  0  0  0  0  0  0  0  0
   63.0460   34.5830   51.2989 H   0  0  0  0  0  0  0  0  0  0  0  0
   64.9046   32.9265   51.1046 H   0  0  0  0  0  0  0  0  0  0  0  0
   65.2152   31.6438   48.9871 H   0  0  0  0  0  0  0  0  0  0  0  0
   59.8733   32.4444   47.7878 H   0  0  0  0  0  0  0  0  0  0  0  0
   59.2303   33.7011   48.9454 H   0  0  0  0  0  0  0  0  0  0  0  0
   57.4819   32.5325   47.5151 H   0  0  0  0  0  0  0  0  0  0  0  0
   57.4822   34.3211   47.4492 H   0  0  0  0  0  0  0  0  0  0  0  0
   57.2170   29.3345   42.5109 H   0  0  0  0  0  0  0  0  0  0  0  0
   58.1959   27.0521   42.3261 H   0  0  0  0  0  0  0  0  0  0  0  0
   58.6574   25.7158   44.3803 H   0  0  0  0  0  0  0  0  0  0  0  0
   59.3081   26.1292   46.9427 H   0  0  0  0  0  0  0  0  0  0  0  0
   58.1001   27.1131   47.8532 H   0  0  0  0  0  0  0  0  0  0  0  0
   55.6180   26.5300   45.0460 H   0  0  0  0  0  0  0  0  0  0  0  0
   57.3074   29.0280   46.8253 H   0  0  0  0  0  0  0  0  0  0  0  0
  1  2  2  0
  2  3  1  0
  3  4  1  0
  4  5  1  0
  5  6  1  0
  6  7  1  0
  7  8  1  0
  8  9  1  0
  9 10  2  0
 10 11  1  0
 11 12  2  0
 12 13  1  0
 13 14  2  0
 14 15  1  0
  7 16  1  0
 16 17  1  0
  2 18  1  0
 18 19  1  0
 19 20  2  0
 20 21  1  0
 21 22  2  0
 22 23  1  0
 23 24  1  0
 24 25  1  0
 25 26  1  0
 26 27  1  0
 27 28  2  0
 27 29  1  0
 29 30  1  0
 30 31  1  0
 23 32  2  0
 17  4  1  0
 32 19  1  0
 14  9  1  0
 30 25  2  0
  3 33  1  0
  3 34  1  0
  5 35  1  0
  5 36  1  0
  6 37  1  0
  6 38  1  0
  8 39  1  0
  8 40  1  0
 10 41  1  0
 11 42  1  0
 12 43  1  0
 13 44  1  0
 16 45  1  0
 16 46  1  0
 17 47  1  0
 17 48  1  0
 20 49  1  0
 21 50  1  0
 22 51  1  0
 24 52  1  0
 24 53  1  0
 31 54  1  0
 32 55  1  0
M  CHG  3  18  -1  26  -1  29  -1
M  END
>  <UniqueID>  (75) 
70

>  <SMILES>  (75) 
O=C(CN1CCN(Cc2ccccc2F)CC1)[N-]c1cccc(Cc2[n-]c(=O)[n-]c2O)c1

>  <Energy>  (75) 
100.84216584830133

>  <Genealogy>  (75) 
O=C(CN1CCN(Cc2ccccc2F)CC1)[N-]c1cccc(Cc2[n-]c(=O)[n-]c2O)c1 (protonated)
O=C(CN1CCN(Cc2ccccc2F)CC1)[N-]c1cccc(Cc2[n-]c(=O)[n-]c2O)c1 (3D coordinates assigned)
O=C(CN1CCN(Cc2ccccc2F)CC1)[N-]c1cccc(Cc2[n-]c(=O)[n-]c2O)c1 (nonaromatic ring conformer: 100.84216584830133 kcal/mol)

>  <smiles>  (75) 
O=C(CN1CCN(Cc2ccccc2F)CC1)Nc1cccc(Cc2[nH]c(=O)[nH]c2O)c1

>  <score_type>  (75) 
oracle

>  <origin>  (75) 
adg

>  <m_score__min__energy>  (75) 
-15.82

>  <m_primary>  (75) 
energy

$$$$
75:0
     RDKit          3D

 39 43  0  0  0  0  0  0  0  0999 V2000
   54.7320   27.4460   46.3800 H   0  0  0  0  0  0  0  0  0  0  0  0
   55.1810   26.7300   45.8230 O   0  0  0  0  0  0  0  0  0  0  0  0
   56.1670   25.9030   46.3550 C   0  0  0  0  0  0  0  0  0  0  0  0
   55.8960   24.7930   47.0610 N   0  0  0  0  0  0  0  0  0  0  0  0
   57.1250   24.3190   47.3560 C   0  0  0  0  0  0  0  0  0  0  0  0
   57.3050   23.2650   48.0190 O   0  0  0  0  0  0  0  0  0  0  0  0
   58.1460   25.0600   46.8770 N   0  0  0  0  0  0  0  0  0  0  0  0
   57.5310   26.0830   46.2550 C   0  0  0  0  0  0  0  0  0  0  0  0
   58.2150   27.1270   45.4680 C   0  0  0  0  0  0  0  0  0  0  0  0
   59.0929   26.8244   44.8783 H   0  0  0  0  0  0  0  0  0  0  0  0
   57.8490   28.4170   45.4160 C   0  0  0  0  0  0  0  0  0  0  0  0
   56.7360   28.9150   44.7420 C   0  0  0  0  0  0  0  0  0  0  0  0
   56.0316   28.3082   44.1542 H   0  0  0  0  0  0  0  0  0  0  0  0
   56.6480   30.2540   44.9160 N   0  0  0  0  0  0  0  0  0  0  0  0
   57.6630   30.6160   45.6840 N   0  0  0  0  0  0  0  0  0  0  0  0
   57.9730   31.8540   46.1670 C   0  0  0  0  0  0  0  0  0  0  0  0
   57.2900   32.9260   45.8760 N   0  0  0  0  0  0  0  0  0  0  0  0
   57.7920   34.1220   45.2080 C   0  0  0  0  0  0  0  0  0  0  0  0
   56.8230   34.5328   44.8883 H   0  0  0  0  0  0  0  0  0  0  0  0
   59.1470   33.8990   44.5620 C   0  0  0  0  0  0  0  0  0  0  0  0
   59.6063   32.8996   44.5782 H   0  0  0  0  0  0  0  0  0  0  0  0
   59.5714   34.0778   43.5630 H   0  0  0  0  0  0  0  0  0  0  0  0
   59.0400   34.7080   45.8460 C   0  0  0  0  0  0  0  0  0  0  0  0
   59.4214   34.2937   46.7909 H   0  0  0  0  0  0  0  0  0  0  0  0
   59.3544   35.7140   46.1608 H   0  0  0  0  0  0  0  0  0  0  0  0
   59.0440   31.9630   47.0000 N   0  0  0  0  0  0  0  0  0  0  0  0
   59.7830   30.8650   47.3450 C   0  0  0  0  0  0  0  0  0  0  0  0
   60.9020   31.0000   48.2340 N   0  0  0  0  0  0  0  0  0  0  0  0
   61.0590   30.3770   49.4210 C   0  0  0  0  0  0  0  0  0  0  0  0
   60.3385   29.6748   49.8657 H   0  0  0  0  0  0  0  0  0  0  0  0
   62.2590   30.7520   49.9950 C   0  0  0  0  0  0  0  0  0  0  0  0
   62.6664   30.4148   50.9595 H   0  0  0  0  0  0  0  0  0  0  0  0
   62.8410   31.6360   49.1100 C   0  0  0  0  0  0  0  0  0  0  0  0
   64.1070   32.2960   49.2800 C   0  0  0  0  0  0  0  0  0  0  0  0
   65.1260   32.8270   49.4150 N   0  0  0  0  0  0  0  0  0  0  0  0
   61.9890   31.7730   48.0360 C   0  0  0  0  0  0  0  0  0  0  0  0
   62.1670   32.4108   47.1576 H   0  0  0  0  0  0  0  0  0  0  0  0
   59.4500   29.6380   46.8480 N   0  0  0  0  0  0  0  0  0  0  0  0
   58.3970   29.5430   46.0060 C   0  0  0  0  0  0  0  0  0  0  0  0
  1  2  1  0
  2  3  1  0
  3  4  1  0
  4  5  1  0
  5  6  2  0
  5  7  1  0
  7  8  1  0
  8  9  1  0
  9 10  1  0
  9 11  2  3
 11 12  1  0
 12 13  1  0
 12 14  2  0
 14 15  1  0
 15 16  1  0
 16 17  2  0
 17 18  1  0
 18 19  1  0
 18 20  1  0
 20 21  1  0
 20 22  1  0
 20 23  1  0
 23 24  1  0
 23 25  1  0
 16 26  1  0
 26 27  2  0
 27 28  1  0
 28 29  1  0
 29 30  1  0
 29 31  2  0
 31 32  1  0
 31 33  1  0
 33 34  1  0
 34 35  3  0
 33 36  2  0
 36 37  1  0
 27 38  1  0
 38 39  2  0
  8  3  2  0
 39 11  1  0
 39 15  1  0
 23 18  1  0
 36 28  1  0
M  CHG  2   4  -1   7  -1
M  END
>  <UniqueID>  (76) 
71

>  <SMILES>  (76) 
N#Cc1ccn(-c2n/c(=N/C3CC3)n3ncc(=Cc4[n-]c(=O)[n-]c4O)c3n2)c1

>  <Energy>  (76) 
409.03481483039747

>  <Genealogy>  (76) 
N#Cc1ccn(-c2nc(=NC3CC3)n3ncc(=Cc4[n-]c(=O)[n-]c4O)c3n2)c1 (protonated)
N#Cc1ccn(-c2n/c(=N/C3CC3)n3ncc(=Cc4[n-]c(=O)[n-]c4O)c3n2)c1 (cis-trans isomerization)
N#Cc1ccn(-c2n/c(=N/C3CC3)n3ncc(=Cc4[n-]c(=O)[n-]c4O)c3n2)c1 (3D coordinates assigned)
N#Cc1ccn(-c2n/c(=N/C3CC3)n3ncc(=Cc4[n-]c(=O)[n-]c4O)c3n2)c1 (nonaromatic ring conformer: 409.03481483039747 kcal/mol)

>  <smiles>  (76) 
N#Cc1ccn(-c2nc(=NC3CC3)n3ncc(=Cc4[nH]c(=O)[nH]c4O)c3n2)c1

>  <score_type>  (76) 
oracle

>  <origin>  (76) 
adg

>  <m_score__min__energy>  (76) 
-12.869999999999999

>  <m_primary>  (76) 
energy

$$$$
76:0
     RDKit          3D

 67 71  0  0  0  0  0  0  0  0999 V2000
   51.0160   33.7330   51.2420 H   0  0  0  0  0  0  0  0  0  0  0  0
   51.3030   32.7790   51.5490 N   0  0  0  0  0  0  0  0  0  0  0  0
   51.3760   31.7440   50.7680 C   0  0  0  0  0  0  0  0  0  0  0  0
   50.9510   31.8770   49.4370 C   0  0  0  0  0  0  0  0  0  0  0  0
   50.4620   33.0930   48.9670 O   0  0  0  0  0  0  0  0  0  0  0  0
   51.0190   30.7820   48.5750 C   0  0  0  0  0  0  0  0  0  0  0  0
   50.6859   30.8833   47.5316 H   0  0  0  0  0  0  0  0  0  0  0  0
   51.4950   29.5930   49.0210 N   0  0  0  0  0  0  0  0  0  0  0  0
   51.9160   29.4240   50.3010 C   0  0  0  0  0  0  0  0  0  0  0  0
   52.2989   28.4447   50.6239 H   0  0  0  0  0  0  0  0  0  0  0  0
   51.8670   30.4890   51.2170 C   0  0  0  0  0  0  0  0  0  0  0  0
   52.3800   30.2600   52.6250 C   0  0  0  0  0  0  0  0  0  0  0  0
   51.9657   31.0340   53.2878 H   0  0  0  0  0  0  0  0  0  0  0  0
   52.0635   29.2584   52.9516 H   0  0  0  0  0  0  0  0  0  0  0  0
   53.8870   30.3240   52.6760 C   0  0  0  0  0  0  0  0  0  0  0  0
   54.5860   29.7240   53.7350 C   0  0  0  0  0  0  0  0  0  0  0  0
   54.0313   29.2084   54.5328 H   0  0  0  0  0  0  0  0  0  0  0  0
   55.9810   29.7770   53.7830 C   0  0  0  0  0  0  0  0  0  0  0  0
   56.5170   29.2912   54.6117 H   0  0  0  0  0  0  0  0  0  0  0  0
   56.7060   30.4460   52.7810 C   0  0  0  0  0  0  0  0  0  0  0  0
   58.1880   30.4840   52.8090 C   0  0  0  0  0  0  0  0  0  0  0  0
   58.7770   31.5590   53.1050 O   0  0  0  0  0  0  0  0  0  0  0  0
   58.9600   29.3110   52.5060 N   0  0  0  0  0  0  0  0  0  0  0  0
   58.5280   28.3710   52.6430 H   0  0  0  0  0  0  0  0  0  0  0  0
   60.3610   29.3840   52.0830 C   0  0  2  0  0  0  0  0  0  0  0  0
   60.8977   30.1491   52.6631 H   0  0  0  0  0  0  0  0  0  0  0  0
   60.4170   29.7850   50.6230 C   0  0  0  0  0  0  0  0  0  0  0  0
   60.0730   31.1000   50.2750 C   0  0  0  0  0  0  0  0  0  0  0  0
   59.8286   31.8262   51.0642 H   0  0  0  0  0  0  0  0  0  0  0  0
   60.0380   31.4950   48.9380 C   0  0  0  0  0  0  0  0  0  0  0  0
   59.7607   32.5278   48.6804 H   0  0  0  0  0  0  0  0  0  0  0  0
   60.3540   30.5840   47.9200 C   0  0  0  0  0  0  0  0  0  0  0  0
   60.3220   31.0180   46.4690 C   0  0  0  0  0  0  0  0  0  0  0  0
   61.3268   31.3683   46.1904 H   0  0  0  0  0  0  0  0  0  0  0  0
   60.0004   30.1448   45.8824 H   0  0  0  0  0  0  0  0  0  0  0  0
   59.3560   32.1030   46.1870 N   0  0  0  0  0  0  0  0  0  0  0  0
   59.9940   33.4240   46.0160 C   0  0  0  0  0  0  0  0  0  0  0  0
   60.7213   33.5811   46.8262 H   0  0  0  0  0  0  0  0  0  0  0  0
   60.4990   33.4485   45.0391 H   0  0  0  0  0  0  0  0  0  0  0  0
   58.9400   34.5490   46.0570 C   0  0  0  0  0  0  0  0  0  0  0  0
   59.0121   35.0642   47.0262 H   0  0  0  0  0  0  0  0  0  0  0  0
   59.1473   35.2306   45.2189 H   0  0  0  0  0  0  0  0  0  0  0  0
   57.5060   34.0220   45.8850 C   0  0  0  0  0  0  0  0  0  0  0  0
   57.1617   33.6010   46.8411 H   0  0  0  0  0  0  0  0  0  0  0  0
   56.8630   34.8588   45.5747 H   0  0  0  0  0  0  0  0  0  0  0  0
   57.4390   32.9330   44.8060 C   0  0  0  0  0  0  0  0  0  0  0  0
   56.4249   32.5069   44.7959 H   0  0  0  0  0  0  0  0  0  0  0  0
   57.6883   33.3990   43.8413 H   0  0  0  0  0  0  0  0  0  0  0  0
   58.4540   31.7950   45.0580 C   0  0  0  0  0  0  0  0  0  0  0  0
   57.9029   30.8704   45.2848 H   0  0  0  0  0  0  0  0  0  0  0  0
   59.0677   31.6781   44.1526 H   0  0  0  0  0  0  0  0  0  0  0  0
   60.6850   29.2630   48.2600 C   0  0  0  0  0  0  0  0  0  0  0  0
   60.9318   28.5433   47.4656 H   0  0  0  0  0  0  0  0  0  0  0  0
   60.7050   28.8490   49.6010 C   0  0  0  0  0  0  0  0  0  0  0  0
   61.1290   27.4360   49.9210 C   0  0  0  0  0  0  0  0  0  0  0  0
   62.2259   27.3754   49.8641 H   0  0  0  0  0  0  0  0  0  0  0  0
   60.6486   26.7692   49.1899 H   0  0  0  0  0  0  0  0  0  0  0  0
   60.6850   26.9930   51.3160 C   0  0  0  0  0  0  0  0  0  0  0  0
   61.1745   26.0403   51.5665 H   0  0  0  0  0  0  0  0  0  0  0  0
   59.5920   26.8691   51.3197 H   0  0  0  0  0  0  0  0  0  0  0  0
   61.0680   28.0450   52.3570 C   0  0  0  0  0  0  0  0  0  0  0  0
   62.1564   28.2011   52.3254 H   0  0  0  0  0  0  0  0  0  0  0  0
   60.7561   27.6834   53.3479 H   0  0  0  0  0  0  0  0  0  0  0  0
   56.0030   31.0550   51.7270 C   0  0  0  0  0  0  0  0  0  0  0  0
   56.5561   31.5785   50.9333 H   0  0  0  0  0  0  0  0  0  0  0  0
   54.6070   31.0010   51.6790 C   0  0  0  0  0  0  0  0  0  0  0  0
   54.0692   31.4922   50.8547 H   0  0  0  0  0  0  0  0  0  0  0  0
  1  2  1  0
  2  3  2  0
  3  4  1  0
  4  5  1  0
  4  6  2  0
  6  7  1  0
  6  8  1  0
  8  9  1  0
  9 10  1  0
  9 11  2  0
 11 12  1  0
 12 13  1  0
 12 14  1  0
 12 15  1  0
 15 16  2  0
 16 17  1  0
 16 18  1  0
 18 19  1  0
 18 20  2  0
 20 21  1  0
 21 22  2  0
 21 23  1  0
 23 24  1  0
 23 25  1  0
 25 26  1  1
 25 27  1  0
 27 28  2  0
 28 29  1  0
 28 30  1  0
 30 31  1  0
 30 32  2  0
 32 33  1  0
 33 34  1  0
 33 35  1  0
 33 36  1  0
 36 37  1  0
 37 38  1  0
 37 39  1  0
 37 40  1  0
 40 41  1  0
 40 42  1  0
 40 43  1  0
 43 44  1  0
 43 45  1  0
 43 46  1  0
 46 47  1  0
 46 48  1  0
 46 49  1  0
 49 50  1  0
 49 51  1  0
 32 52  1  0
 52 53  1  0
 52 54  2  0
 54 55  1  0
 55 56  1  0
 55 57  1  0
 55 58  1  0
 58 59  1  0
 58 60  1  0
 58 61  1  0
 61 62  1  0
 61 63  1  0
 20 64  1  0
 64 65  1  0
 64 66  2  0
 66 67  1  0
 11  3  1  0
 66 15  1  0
 61 25  1  0
 54 27  1  0
 49 36  1  0
M  CHG  2   5  -1   8  -1
M  END
>  <UniqueID>  (77) 
72

>  <SMILES>  (77) 
[H]/N=c1/c([O-])c[n-]cc1Cc1ccc(C(=O)N[C@H]2CCCc3cc(CN4CCCCC4)ccc32)cc1

>  <Energy>  (77) 
83.37375640339727

>  <Genealogy>  (77) 
N=c1c([O-])c[n-]cc1Cc1ccc(C(=O)NC2CCCc3cc(CN4CCCCC4)ccc32)cc1 (protonated)
N=c1c([O-])c[n-]cc1Cc1ccc(C(=O)N[C@H]2CCCc3cc(CN4CCCCC4)ccc32)cc1 (chirality)
[H]/N=c1/c([O-])c[n-]cc1Cc1ccc(C(=O)N[C@H]2CCCc3cc(CN4CCCCC4)ccc32)cc1 (cis-trans isomerization)
[H]/N=c1/c([O-])c[n-]cc1Cc1ccc(C(=O)N[C@H]2CCCc3cc(CN4CCCCC4)ccc32)cc1 (3D coordinates assigned)
[H]/N=c1/c([O-])c[n-]cc1Cc1ccc(C(=O)N[C@H]2CCCc3cc(CN4CCCCC4)ccc32)cc1 (nonaromatic ring conformer: 83.37375640339727 kcal/mol)

>  <smiles>  (77) 
N=c1c(O)c[nH]cc1Cc1ccc(C(=O)NC2CCCc3cc(CN4CCCCC4)ccc32)cc1

>  <score_type>  (77) 
oracle

>  <origin>  (77) 
adg

>  <m_score__min__energy>  (77) 
-15.619999999999999

>  <m_primary>  (77) 
energy

$$$$
77:0
     RDKit          3D

 56 60  0  0  0  0  0  0  0  0999 V2000
   59.3860   26.7270   47.7030 C   0  0  0  0  0  0  0  0  0  0  0  0
   58.6970   27.1120   46.6160 C   0  0  0  0  0  0  0  0  0  0  0  0
   57.8290   26.3150   45.8650 C   0  0  0  0  0  0  0  0  0  0  0  0
   57.4310   25.0550   46.1350 C   0  0  0  0  0  0  0  0  0  0  0  0
   56.0530   24.5740   45.9340 C   0  0  0  0  0  0  0  0  0  0  0  0
   55.7450   23.2910   45.6880 N   0  0  0  0  0  0  0  0  0  0  0  0
   54.4050   23.3220   45.5070 C   0  0  0  0  0  0  0  0  0  0  0  0
   53.7330   22.2870   45.2690 O   0  0  0  0  0  0  0  0  0  0  0  0
   53.8450   24.5470   45.6020 N   0  0  0  0  0  0  0  0  0  0  0  0
   54.9020   25.3300   45.8660 C   0  0  0  0  0  0  0  0  0  0  0  0
   54.8200   26.7110   46.0030 O   0  0  0  0  0  0  0  0  0  0  0  0
   57.3910   27.1040   44.8100 C   0  0  0  0  0  0  0  0  0  0  0  0
   57.9880   28.3400   44.9640 C   0  0  0  0  0  0  0  0  0  0  0  0
   57.7310   29.5220   44.0760 C   0  0  0  0  0  0  0  0  0  0  0  0
   58.7860   28.3470   46.0570 N   0  0  0  0  0  0  0  0  0  0  0  0
   59.5040   29.4890   46.5640 C   0  0  0  0  0  0  0  0  0  0  0  0
   58.8510   30.4420   47.3590 C   0  0  0  0  0  0  0  0  0  0  0  0
   59.5610   31.5230   47.8910 C   0  0  0  0  0  0  0  0  0  0  0  0
   60.9350   31.6700   47.6390 C   0  0  0  0  0  0  0  0  0  0  0  0
   61.6780   32.7710   48.2010 N   0  0  0  0  0  0  0  0  0  0  0  0
   61.5810   33.2500   49.5760 C   0  0  0  0  0  0  0  0  0  0  0  0
   62.6280   34.3950   49.6870 C   0  0  1  0  0  0  0  0  0  0  0  0
   63.7010   34.0760   50.6920 C   0  0  0  0  0  0  0  0  0  0  0  0
   63.4580   34.1690   51.9280 O   0  0  0  0  0  0  0  0  0  0  0  0
   65.0080   33.7010   50.2390 N   0  0  0  0  0  0  0  0  0  0  0  0
   66.0690   33.3440   51.1880 C   0  0  0  0  0  0  0  0  0  0  0  0
   65.8740   31.9660   51.8190 C   0  0  0  0  0  0  0  0  0  0  0  0
   67.1320   31.4700   51.1170 C   0  0  0  0  0  0  0  0  0  0  0  0
   67.3260   32.8420   50.4850 C   0  0  0  0  0  0  0  0  0  0  0  0
   63.1850   34.5250   48.3830 O   0  0  0  0  0  0  0  0  0  0  0  0
   62.6250   33.5930   47.5440 C   0  0  0  0  0  0  0  0  0  0  0  0
   62.8990   33.5170   46.3180 O   0  0  0  0  0  0  0  0  0  0  0  0
   61.5750   30.7320   46.8130 C   0  0  0  0  0  0  0  0  0  0  0  0
   60.8690   29.6440   46.2910 C   0  0  0  0  0  0  0  0  0  0  0  0
   60.0439   27.4419   48.2188 H   0  0  0  0  0  0  0  0  0  0  0  0
   59.2923   25.6969   48.0773 H   0  0  0  0  0  0  0  0  0  0  0  0
   58.1764   24.3474   46.5269 H   0  0  0  0  0  0  0  0  0  0  0  0
   56.7020   26.8031   44.0070 H   0  0  0  0  0  0  0  0  0  0  0  0
   57.5378   30.4105   44.6950 H   0  0  0  0  0  0  0  0  0  0  0  0
   58.6110   29.7018   43.4410 H   0  0  0  0  0  0  0  0  0  0  0  0
   56.8558   29.3201   43.4410 H   0  0  0  0  0  0  0  0  0  0  0  0
   57.7754   30.3388   47.5651 H   0  0  0  0  0  0  0  0  0  0  0  0
   59.0386   32.2651   48.5126 H   0  0  0  0  0  0  0  0  0  0  0  0
   60.5698   33.6315   49.7806 H   0  0  0  0  0  0  0  0  0  0  0  0
   61.7720   32.4478   50.3040 H   0  0  0  0  0  0  0  0  0  0  0  0
   62.1587   35.3273   50.0342 H   0  0  0  0  0  0  0  0  0  0  0  0
   65.1750   33.6240   49.2110 H   0  0  0  0  0  0  0  0  0  0  0  0
   66.0931   34.2435   51.8207 H   0  0  0  0  0  0  0  0  0  0  0  0
   65.9403   31.9609   52.9170 H   0  0  0  0  0  0  0  0  0  0  0  0
   64.9213   31.4287   51.7020 H   0  0  0  0  0  0  0  0  0  0  0  0
   67.9402   31.1734   51.8017 H   0  0  0  0  0  0  0  0  0  0  0  0
   67.0977   30.5686   50.4875 H   0  0  0  0  0  0  0  0  0  0  0  0
   68.2490   33.3532   50.7961 H   0  0  0  0  0  0  0  0  0  0  0  0
   67.4318   32.9427   49.3947 H   0  0  0  0  0  0  0  0  0  0  0  0
   62.6418   30.8544   46.5744 H   0  0  0  0  0  0  0  0  0  0  0  0
   61.3884   28.9057   45.6624 H   0  0  0  0  0  0  0  0  0  0  0  0
  1  2  2  0
  2  3  1  0
  3  4  2  3
  4  5  1  0
  5  6  1  0
  6  7  1  0
  7  8  2  0
  7  9  1  0
  9 10  1  0
 10 11  1  0
  3 12  1  0
 12 13  2  0
 13 14  1  0
 13 15  1  0
 15 16  1  0
 16 17  2  0
 17 18  1  0
 18 19  2  0
 19 20  1  0
 20 21  1  0
 21 22  1  0
 22 23  1  0
 23 24  2  0
 23 25  1  0
 25 26  1  0
 26 27  1  0
 27 28  1  0
 28 29  1  0
 22 30  1  0
 30 31  1  0
 31 32  2  0
 19 33  1  0
 33 34  2  0
 15  2  1  0
 34 16  1  0
 10  5  2  0
 31 20  1  0
 29 26  1  0
  1 35  1  0
  1 36  1  0
  4 37  1  0
 12 38  1  0
 14 39  1  0
 14 40  1  0
 14 41  1  0
 17 42  1  0
 18 43  1  0
 21 44  1  0
 21 45  1  0
 22 46  1  1
 25 47  1  0
 26 48  1  0
 27 49  1  0
 27 50  1  0
 28 51  1  0
 28 52  1  0
 29 53  1  0
 29 54  1  0
 33 55  1  0
 34 56  1  0
M  CHG  3   6  -1   9  -1  11  -1
M  END
>  <UniqueID>  (78) 
73

>  <SMILES>  (78) 
C=c1c(=Cc2[n-]c(=O)[n-]c2[O-])cc(C)n1-c1ccc(N2C[C@@H](C(=O)NC3CCC3)OC2=O)cc1

>  <Energy>  (78) 
207.59028784869645

>  <Genealogy>  (78) 
C=c1c(=Cc2[n-]c(=O)[n-]c2[O-])cc(C)n1-c1ccc(N2CC(C(=O)NC3CCC3)OC2=O)cc1 (protonated)
C=c1c(=Cc2[n-]c(=O)[n-]c2[O-])cc(C)n1-c1ccc(N2C[C@@H](C(=O)NC3CCC3)OC2=O)cc1 (chirality)
C=c1c(=Cc2[n-]c(=O)[n-]c2[O-])cc(C)n1-c1ccc(N2C[C@@H](C(=O)NC3CCC3)OC2=O)cc1 (3D coordinates assigned)
C=c1c(=Cc2[n-]c(=O)[n-]c2[O-])cc(C)n1-c1ccc(N2C[C@@H](C(=O)NC3CCC3)OC2=O)cc1 (nonaromatic ring conformer: 207.59028784869645 kcal/mol)

>  <smiles>  (78) 
C=c1c(=Cc2[nH]c(=O)[nH]c2O)cc(C)n1-c1ccc(N2CC(C(=O)NC3CCC3)OC2=O)cc1

>  <score_type>  (78) 
oracle

>  <origin>  (78) 
adg

>  <m_score__min__energy>  (78) 
-15.449999999999999

>  <m_primary>  (78) 
energy

$$$$
78:0
     RDKit          3D

 38 41  0  0  0  0  0  0  0  0999 V2000
   57.7415   34.1646   47.2483 H   0  0  0  0  0  0  0  0  0  0  0  0
   57.8560   33.6460   46.2850 C   0  0  0  0  0  0  0  0  0  0  0  0
   57.0850   32.5630   46.0030 N   0  0  0  0  0  0  0  0  0  0  0  0
   57.1830   31.8850   44.8270 C   0  0  0  0  0  0  0  0  0  0  0  0
   56.3970   30.8610   44.6360 N   0  0  0  0  0  0  0  0  0  0  0  0
   56.5810   29.7660   43.7260 C   0  0  0  0  0  0  0  0  0  0  0  0
   55.8290   29.6820   42.7200 O   0  0  0  0  0  0  0  0  0  0  0  0
   57.5130   28.6310   44.0460 C   0  0  0  0  0  0  0  0  0  0  0  0
   57.2078   27.7435   43.4722 H   0  0  0  0  0  0  0  0  0  0  0  0
   58.5358   28.9339   43.7773 H   0  0  0  0  0  0  0  0  0  0  0  0
   57.4780   28.2290   45.8300 S   0  0  0  0  0  0  0  0  0  0  0  0
   58.8380   29.3080   46.2700 C   0  0  0  0  0  0  0  0  0  0  0  0
   60.0750   29.1180   45.7040 N   0  0  0  0  0  0  0  0  0  0  0  0
   61.1130   29.9110   46.0050 N   0  0  0  0  0  0  0  0  0  0  0  0
   60.9120   30.9120   46.8880 C   0  0  0  0  0  0  0  0  0  0  0  0
   61.7570   31.8680   47.3860 C   0  0  0  0  0  0  0  0  0  0  0  0
   63.1030   32.1400   47.1630 C   0  0  0  0  0  0  0  0  0  0  0  0
   63.7024   31.5301   46.4711 H   0  0  0  0  0  0  0  0  0  0  0  0
   63.6680   33.2270   47.8580 C   0  0  0  0  0  0  0  0  0  0  0  0
   64.7290   33.4765   47.7098 H   0  0  0  0  0  0  0  0  0  0  0  0
   62.8840   34.0000   48.7440 C   0  0  0  0  0  0  0  0  0  0  0  0
   63.3417   34.8441   49.2807 H   0  0  0  0  0  0  0  0  0  0  0  0
   61.5230   33.7010   48.9470 C   0  0  0  0  0  0  0  0  0  0  0  0
   60.9066   34.3002   49.6332 H   0  0  0  0  0  0  0  0  0  0  0  0
   60.9820   32.6220   48.2510 C   0  0  0  0  0  0  0  0  0  0  0  0
   59.7040   32.1690   48.3040 N   0  0  0  0  0  0  0  0  0  0  0  0
   58.9110   32.5460   48.8700 H   0  0  0  0  0  0  0  0  0  0  0  0
   59.6920   31.1190   47.4560 C   0  0  0  0  0  0  0  0  0  0  0  0
   58.6370   30.3270   47.1590 N   0  0  0  0  0  0  0  0  0  0  0  0
   58.0890   32.3400   43.8490 C   0  0  0  0  0  0  0  0  0  0  0  0
   58.1637   31.8245   42.8801 H   0  0  0  0  0  0  0  0  0  0  0  0
   58.8920   33.4510   44.1190 C   0  0  0  0  0  0  0  0  0  0  0  0
   59.6011   33.8132   43.3601 H   0  0  0  0  0  0  0  0  0  0  0  0
   58.7960   34.1040   45.3530 C   0  0  0  0  0  0  0  0  0  0  0  0
   59.6220   35.3230   45.6380 C   0  0  0  0  0  0  0  0  0  0  0  0
   59.7134   35.4579   46.7259 H   0  0  0  0  0  0  0  0  0  0  0  0
   60.6227   35.1988   45.1986 H   0  0  0  0  0  0  0  0  0  0  0  0
   59.1357   36.2064   45.1986 H   0  0  0  0  0  0  0  0  0  0  0  0
  1  2  1  0
  2  3  1  0
  3  4  1  0
  4  5  2  0
  5  6  1  0
  6  7  2  0
  6  8  1  0
  8  9  1  0
  8 10  1  0
  8 11  1  0
 11 12  1  0
 12 13  2  0
 13 14  1  0
 14 15  2  0
 15 16  1  0
 16 17  2  0
 17 18  1  0
 17 19  1  0
 19 20  1  0
 19 21  2  0
 21 22  1  0
 21 23  1  0
 23 24  1  0
 23 25  2  0
 25 26  1  0
 26 27  1  0
 26 28  1  0
 28 29  2  0
  4 30  1  0
 30 31  1  0
 30 32  2  0
 32 33  1  0
 32 34  1  0
 34 35  1  0
 35 36  1  0
 35 37  1  0
 35 38  1  0
 34  2  2  0
 29 12  1  0
 28 15  1  0
 25 16  1  0
M  CHG  1   3  -1
M  END
>  <UniqueID>  (79) 
74

>  <SMILES>  (79) 
Cc1cc/c(=N\C(=O)CSc2nnc3c(n2)[nH]c2ccccc23)[n-]c1

>  <Energy>  (79) 
95.57893199648159

>  <Genealogy>  (79) 
Cc1ccc(=NC(=O)CSc2nnc3c(n2)[nH]c2ccccc23)[n-]c1 (protonated)
Cc1cc/c(=N\C(=O)CSc2nnc3c(n2)[nH]c2ccccc23)[n-]c1 (cis-trans isomerization)
Cc1cc/c(=N\C(=O)CSc2nnc3c(n2)[nH]c2ccccc23)[n-]c1 (3D coordinates assigned)
Cc1cc/c(=N\C(=O)CSc2nnc3c(n2)[nH]c2ccccc23)[n-]c1 (optimized conformer: 95.57893199648159 kcal/mol)

>  <smiles>  (79) 
Cc1ccc(=NC(=O)CSc2nnc3c(n2)[nH]c2ccccc23)[nH]c1

>  <score_type>  (79) 
oracle

>  <origin>  (79) 
adg

>  <m_score__min__energy>  (79) 
-10.029999999999999

>  <m_primary>  (79) 
energy

$$$$
79:0
     RDKit          3D

 58 61  0  0  0  0  0  0  0  0999 V2000
   59.7510   31.3660   47.1400 O   0  0  0  0  0  0  0  0  0  0  0  0
   59.2390   32.0010   46.1770 C   0  0  0  0  0  0  0  0  0  0  0  0
   58.5440   31.2480   45.0930 C   0  0  0  0  0  0  0  0  0  0  0  0
   58.8830   29.9860   44.7500 C   0  0  0  0  0  0  0  0  0  0  0  0
   58.4280   28.7680   45.4500 C   0  0  0  0  0  0  0  0  0  0  0  0
   57.1120   28.2990   45.2990 C   0  0  0  0  0  0  0  0  0  0  0  0
   56.6860   27.1630   45.9930 C   0  0  0  0  0  0  0  0  0  0  0  0
   55.4180   26.7100   45.8350 F   0  0  0  0  0  0  0  0  0  0  0  0
   57.5640   26.4990   46.8560 C   0  0  0  0  0  0  0  0  0  0  0  0
   58.8650   26.9780   47.0340 C   0  0  0  0  0  0  0  0  0  0  0  0
   59.7110   26.3400   47.8770 F   0  0  0  0  0  0  0  0  0  0  0  0
   59.2930   28.1160   46.3420 C   0  0  0  0  0  0  0  0  0  0  0  0
   57.4300   31.9090   44.3180 C   0  0  0  0  0  0  0  0  0  0  0  0
   56.6490   33.2650   45.2580 S   0  0  0  0  0  0  0  0  0  0  0  0
   58.1910   34.2260   45.3860 C   0  0  0  0  0  0  0  0  0  0  0  0
   59.2270   33.4930   46.2020 C   0  0  0  0  0  0  0  0  0  0  0  0
   60.1140   34.2270   46.9090 C   0  0  0  0  0  0  0  0  0  0  0  0
   61.3860   33.7230   47.4630 C   0  0  0  0  0  0  0  0  0  0  0  0
   62.5780   33.8190   46.7330 C   0  0  0  0  0  0  0  0  0  0  0  0
   63.7750   33.3520   47.2790 C   0  0  0  0  0  0  0  0  0  0  0  0
   63.7970   32.8130   48.5670 C   0  0  0  0  0  0  0  0  0  0  0  0
   62.6150   32.7520   49.3280 C   0  0  0  0  0  0  0  0  0  0  0  0
   62.5840   32.2420   50.6350 O   0  0  0  0  0  0  0  0  0  0  0  0
   62.0770   32.9300   51.7790 C   0  0  0  0  0  0  0  0  0  0  0  0
   60.5930   32.7040   51.9280 C   0  0  0  0  0  0  0  0  0  0  0  0
   59.9640   33.4050   52.7100 O   0  0  0  0  0  0  0  0  0  0  0  0
   59.9020   31.7220   51.1120 N   0  0  0  0  0  0  0  0  0  0  0  0
   58.6360   32.2890   50.5680 C   0  0  0  0  0  0  0  0  0  0  0  0
   57.4060   31.8670   51.3910 C   0  0  0  0  0  0  0  0  0  0  0  0
   57.2510   30.4010   51.4610 N   0  0  0  0  0  0  0  0  0  0  0  0
   58.5200   29.6600   51.3230 C   0  0  0  0  0  0  0  0  0  0  0  0
   59.7020   30.4630   51.8790 C   0  0  0  0  0  0  0  0  0  0  0  0
   61.4170   33.2140   48.7680 C   0  0  0  0  0  0  0  0  0  0  0  0
   59.5483   29.8559   43.8837 H   0  0  0  0  0  0  0  0  0  0  0  0
   56.4148   28.8277   44.6324 H   0  0  0  0  0  0  0  0  0  0  0  0
   57.2306   25.5997   47.3947 H   0  0  0  0  0  0  0  0  0  0  0  0
   60.3115   28.5012   46.4977 H   0  0  0  0  0  0  0  0  0  0  0  0
   57.8420   32.3170   43.3832 H   0  0  0  0  0  0  0  0  0  0  0  0
   56.6603   31.1492   44.1173 H   0  0  0  0  0  0  0  0  0  0  0  0
   58.5889   34.4014   44.3756 H   0  0  0  0  0  0  0  0  0  0  0  0
   57.9657   35.1794   45.8862 H   0  0  0  0  0  0  0  0  0  0  0  0
   59.8687   35.2846   47.0859 H   0  0  0  0  0  0  0  0  0  0  0  0
   62.5707   34.2636   45.7269 H   0  0  0  0  0  0  0  0  0  0  0  0
   64.7039   33.4088   46.6926 H   0  0  0  0  0  0  0  0  0  0  0  0
   64.7406   32.4352   48.9877 H   0  0  0  0  0  0  0  0  0  0  0  0
   62.5900   32.5597   52.6788 H   0  0  0  0  0  0  0  0  0  0  0  0
   62.2576   34.0074   51.6503 H   0  0  0  0  0  0  0  0  0  0  0  0
   60.5080   31.4880   50.2880 H   0  0  0  0  0  0  0  0  0  0  0  0
   58.7076   33.3866   50.5764 H   0  0  0  0  0  0  0  0  0  0  0  0
   58.5060   31.9027   49.5463 H   0  0  0  0  0  0  0  0  0  0  0  0
   57.5131   32.2600   52.4128 H   0  0  0  0  0  0  0  0  0  0  0  0
   56.5138   32.2749   50.8933 H   0  0  0  0  0  0  0  0  0  0  0  0
   56.6110   30.0950   50.6910 H   0  0  0  0  0  0  0  0  0  0  0  0
   58.4417   28.7111   51.8738 H   0  0  0  0  0  0  0  0  0  0  0  0
   58.6990   29.4777   50.2531 H   0  0  0  0  0  0  0  0  0  0  0  0
   59.5039   30.7115   52.9321 H   0  0  0  0  0  0  0  0  0  0  0  0
   60.6122   29.8517   51.7907 H   0  0  0  0  0  0  0  0  0  0  0  0
   60.4903   33.1768   49.3594 H   0  0  0  0  0  0  0  0  0  0  0  0
  1  2  2  0
  2  3  1  0
  3  4  2  3
  4  5  1  0
  5  6  2  0
  6  7  1  0
  7  8  1  0
  7  9  2  0
  9 10  1  0
 10 11  1  0
 10 12  2  0
  3 13  1  0
 13 14  1  0
 14 15  1  0
 15 16  1  0
 16 17  2  3
 17 18  1  0
 18 19  2  0
 19 20  1  0
 20 21  2  0
 21 22  1  0
 22 23  1  0
 23 24  1  0
 24 25  1  0
 25 26  2  0
 25 27  1  0
 27 28  1  0
 28 29  1  0
 29 30  1  0
 30 31  1  0
 31 32  1  0
 22 33  2  0
 16  2  1  0
 33 18  1  0
 12  5  1  0
 32 27  1  0
  4 34  1  0
  6 35  1  0
  9 36  1  0
 12 37  1  0
 13 38  1  0
 13 39  1  0
 15 40  1  0
 15 41  1  0
 17 42  1  0
 19 43  1  0
 20 44  1  0
 21 45  1  0
 24 46  1  0
 24 47  1  0
 27 48  1  0
 28 49  1  0
 28 50  1  0
 29 51  1  0
 29 52  1  0
 30 53  1  0
 31 54  1  0
 31 55  1  0
 32 56  1  0
 32 57  1  0
 33 58  1  0
M  CHG  1  27   1
M  END
>  <UniqueID>  (80) 
75

>  <SMILES>  (80) 
O=C1C(=Cc2cc(F)cc(F)c2)CSCC1=Cc1cccc(OCC(=O)[NH+]2CCNCC2)c1

>  <Energy>  (80) 
87.9303938365004

>  <Genealogy>  (80) 
O=C1C(=Cc2cc(F)cc(F)c2)CSCC1=Cc1cccc(OCC(=O)[NH+]2CCNCC2)c1 (protonated)
O=C1C(=Cc2cc(F)cc(F)c2)CSCC1=Cc1cccc(OCC(=O)[NH+]2CCNCC2)c1 (3D coordinates assigned)
O=C1C(=Cc2cc(F)cc(F)c2)CSCC1=Cc1cccc(OCC(=O)[NH+]2CCNCC2)c1 (nonaromatic ring conformer: 87.9303938365004 kcal/mol)

>  <smiles>  (80) 
O=C1C(=Cc2cc(F)cc(F)c2)CSCC1=Cc1cccc(OCC(=O)N2CCNCC2)c1

>  <score_type>  (80) 
oracle

>  <origin>  (80) 
adg

>  <m_score__min__energy>  (80) 
-8.9000000000000004

>  <m_primary>  (80) 
energy

$$$$
