0:0
     RDKit          3D

 43 45  0  0  0  0  0  0  0  0999 V2000
   54.4830   26.1860   45.9900 N   0  0  0  0  0  0  0  0  0  0  0  0
   55.9010   25.2060   45.8900 S   0  0  0  0  0  0  0  0  0  0  0  0
   56.0340   24.3880   47.1440 O   0  0  0  0  0  0  0  0  0  0  0  0
   55.7880   24.2740   44.7150 O   0  0  0  0  0  0  0  0  0  0  0  0
   57.3140   26.2380   45.6970 C   0  0  0  0  0  0  0  0  0  0  0  0
   57.8250   26.5040   44.4190 C   0  0  0  0  0  0  0  0  0  0  0  0
   58.9590   27.3060   44.2700 C   0  0  0  0  0  0  0  0  0  0  0  0
   59.5990   27.8320   45.3950 C   0  0  0  0  0  0  0  0  0  0  0  0
   59.1130   27.5450   46.6830 C   0  0  0  0  0  0  0  0  0  0  0  0
   59.7640   28.0440   47.8580 N   0  0  0  0  0  0  0  0  0  0  0  0
   59.7930   29.4170   48.2740 C   0  0  0  0  0  0  0  0  0  0  0  0
   60.8260   29.8640   48.8330 O   0  0  0  0  0  0  0  0  0  0  0  0
   58.6760   30.2930   48.0710 N   0  0  0  0  0  0  0  0  0  0  0  0
   58.3760   31.0020   46.8600 C   0  0  0  0  0  0  0  0  0  0  0  0
   57.8210   30.3510   45.7450 C   0  0  0  0  0  0  0  0  0  0  0  0
   57.5110   31.0750   44.5920 C   0  0  0  0  0  0  0  0  0  0  0  0
   57.7780   32.4450   44.5320 C   0  0  0  0  0  0  0  0  0  0  0  0
   58.3770   33.0970   45.6160 C   0  0  0  0  0  0  0  0  0  0  0  0
   58.6320   34.5060   45.5230 N   0  0  0  0  0  0  0  0  0  0  0  0
   59.7920   35.1920   46.0160 C   0  0  0  0  0  0  0  0  0  0  0  0
   60.0000   36.3740   45.6330 O   0  0  0  0  0  0  0  0  0  0  0  0
   60.7720   34.5350   46.9140 C   0  0  0  0  0  0  0  0  0  0  0  0
   61.9050   33.8850   46.3930 C   0  0  0  0  0  0  0  0  0  0  0  0
   62.8230   33.2700   47.2500 C   0  0  0  0  0  0  0  0  0  0  0  0
   62.6250   33.3080   48.6330 C   0  0  0  0  0  0  0  0  0  0  0  0
   61.5120   33.9660   49.1610 C   0  0  0  0  0  0  0  0  0  0  0  0
   60.5910   34.5810   48.3080 C   0  0  0  0  0  0  0  0  0  0  0  0
   58.6650   32.3690   46.7850 C   0  0  0  0  0  0  0  0  0  0  0  0
   57.9580   26.7660   46.8240 C   0  0  0  0  0  0  0  0  0  0  0  0
   54.7590   27.0760   46.4640 H   0  0  0  0  0  0  0  0  0  0  0  0
   57.3320   26.0803   43.5316 H   0  0  0  0  0  0  0  0  0  0  0  0
   59.3489   27.5239   43.2648 H   0  0  0  0  0  0  0  0  0  0  0  0
   60.4852   28.4722   45.2730 H   0  0  0  0  0  0  0  0  0  0  0  0
   57.6303   29.2682   45.7807 H   0  0  0  0  0  0  0  0  0  0  0  0
   57.0559   30.5659   43.7296 H   0  0  0  0  0  0  0  0  0  0  0  0
   57.5161   33.0143   43.6280 H   0  0  0  0  0  0  0  0  0  0  0  0
   62.0699   33.8602   45.3057 H   0  0  0  0  0  0  0  0  0  0  0  0
   63.7023   32.7555   46.8350 H   0  0  0  0  0  0  0  0  0  0  0  0
   63.3457   32.8197   49.3055 H   0  0  0  0  0  0  0  0  0  0  0  0
   61.3599   34.0004   50.2499 H   0  0  0  0  0  0  0  0  0  0  0  0
   59.7198   35.1039   48.7294 H   0  0  0  0  0  0  0  0  0  0  0  0
   59.1209   32.8785   47.6467 H   0  0  0  0  0  0  0  0  0  0  0  0
   57.5531   26.5670   47.8272 H   0  0  0  0  0  0  0  0  0  0  0  0
  1  2  1  0
  2  3  2  0
  2  4  2  0
  2  5  1  0
  5  6  2  0
  6  7  1  0
  7  8  2  0
  8  9  1  0
  9 10  1  0
 10 11  1  0
 11 12  2  0
 11 13  1  0
 13 14  1  0
 14 15  2  0
 15 16  1  0
 16 17  2  0
 17 18  1  0
 18 19  1  0
 19 20  1  0
 20 21  2  0
 20 22  1  0
 22 23  2  0
 23 24  1  0
 24 25  2  0
 25 26  1  0
 26 27  2  0
 18 28  2  0
  9 29  2  0
 29  5  1  0
 28 14  1  0
 27 22  1  0
  1 30  1  0
  6 31  1  0
  7 32  1  0
  8 33  1  0
 15 34  1  0
 16 35  1  0
 17 36  1  0
 23 37  1  0
 24 38  1  0
 25 39  1  0
 26 40  1  0
 27 41  1  0
 28 42  1  0
 29 43  1  0
M  CHG  4   1  -1  10  -1  13  -1  19  -1
M  END
>  <UniqueID>  (1) 
1

>  <SMILES>  (1) 
[NH-]S(=O)(=O)c1cccc([N-]C(=O)[N-]c2cccc([N-]C(=O)c3ccccc3)c2)c1

>  <Energy>  (1) 
59.08333808318322

>  <Genealogy>  (1) 
[NH-]S(=O)(=O)c1cccc([N-]C(=O)[N-]c2cccc([N-]C(=O)c3ccccc3)c2)c1 (protonated)
[NH-]S(=O)(=O)c1cccc([N-]C(=O)[N-]c2cccc([N-]C(=O)c3ccccc3)c2)c1 (3D coordinates assigned)
[NH-]S(=O)(=O)c1cccc([N-]C(=O)[N-]c2cccc([N-]C(=O)c3ccccc3)c2)c1 (optimized conformer: 59.08333808318322 kcal/mol)

>  <smiles>  (1) 
NS(=O)(=O)c1cccc(NC(=O)Nc2cccc(NC(=O)c3ccccc3)c2)c1

>  <score_type>  (1) 
oracle

>  <origin>  (1) 
adg

>  <m_score__min__energy>  (1) 
-15.93

>  <m_primary>  (1) 
energy

$$$$
1:0
     RDKit          3D

 41 43  0  0  0  0  0  0  0  0999 V2000
   60.3410   26.1000   46.9420 O   0  0  0  0  0  0  0  0  0  0  0  0
   59.6440   27.0060   47.4750 C   0  0  0  0  0  0  0  0  0  0  0  0
   59.9510   27.4760   48.7870 N   0  0  0  0  0  0  0  0  0  0  0  0
   60.2760   28.8610   49.0970 C   0  0  0  0  0  0  0  0  0  0  0  0
   59.0810   29.5300   49.7880 C   0  0  0  0  0  0  0  0  0  0  0  0
   59.3810   30.9610   50.2750 C   0  0  0  0  0  0  0  0  0  0  0  0
   60.0110   31.8210   49.2060 C   0  0  0  0  0  0  0  0  0  0  0  0
   61.3830   31.7070   48.9170 C   0  0  0  0  0  0  0  0  0  0  0  0
   61.9800   32.5590   47.9820 C   0  0  0  0  0  0  0  0  0  0  0  0
   61.2160   33.5330   47.3330 C   0  0  0  0  0  0  0  0  0  0  0  0
   59.8510   33.6480   47.6110 C   0  0  0  0  0  0  0  0  0  0  0  0
   59.2480   32.7950   48.5400 C   0  0  0  0  0  0  0  0  0  0  0  0
   58.4880   27.5860   46.7540 C   0  0  0  0  0  0  0  0  0  0  0  0
   57.3300   26.8040   46.5740 C   0  0  0  0  0  0  0  0  0  0  0  0
   57.2780   25.6370   47.0520 O   0  0  0  0  0  0  0  0  0  0  0  0
   56.2540   27.2950   45.8970 N   0  0  0  0  0  0  0  0  0  0  0  0
   55.1420   26.4850   45.7550 O   0  0  0  0  0  0  0  0  0  0  0  0
   56.2600   28.5540   45.3690 C   0  0  0  0  0  0  0  0  0  0  0  0
   55.1380   29.0230   44.6890 O   0  0  0  0  0  0  0  0  0  0  0  0
   57.3930   29.3750   45.5000 C   0  0  0  0  0  0  0  0  0  0  0  0
   57.4200   30.6620   44.9330 C   0  0  0  0  0  0  0  0  0  0  0  0
   58.5630   31.4550   45.0330 C   0  0  0  0  0  0  0  0  0  0  0  0
   59.6920   30.9720   45.6900 C   0  0  0  0  0  0  0  0  0  0  0  0
   59.6830   29.6990   46.2630 C   0  0  0  0  0  0  0  0  0  0  0  0
   58.5290   28.8860   46.1940 C   0  0  0  0  0  0  0  0  0  0  0  0
   61.1489   28.8909   49.7657 H   0  0  0  0  0  0  0  0  0  0  0  0
   60.5060   29.3986   48.1653 H   0  0  0  0  0  0  0  0  0  0  0  0
   58.2442   29.5720   49.0752 H   0  0  0  0  0  0  0  0  0  0  0  0
   58.8392   28.9277   50.6761 H   0  0  0  0  0  0  0  0  0  0  0  0
   58.4378   31.4294   50.5928 H   0  0  0  0  0  0  0  0  0  0  0  0
   60.0982   30.8854   51.1056 H   0  0  0  0  0  0  0  0  0  0  0  0
   61.9889   30.9446   49.4285 H   0  0  0  0  0  0  0  0  0  0  0  0
   63.0524   32.4623   47.7571 H   0  0  0  0  0  0  0  0  0  0  0  0
   61.6884   34.2082   46.6043 H   0  0  0  0  0  0  0  0  0  0  0  0
   59.2493   34.4122   47.0971 H   0  0  0  0  0  0  0  0  0  0  0  0
   58.1722   32.8866   48.7504 H   0  0  0  0  0  0  0  0  0  0  0  0
   54.3870   26.7100   45.1180 H   0  0  0  0  0  0  0  0  0  0  0  0
   56.5334   31.0457   44.4070 H   0  0  0  0  0  0  0  0  0  0  0  0
   58.5727   32.4629   44.5925 H   0  0  0  0  0  0  0  0  0  0  0  0
   60.5950   31.5965   45.7577 H   0  0  0  0  0  0  0  0  0  0  0  0
   60.5829   29.3250   46.7732 H   0  0  0  0  0  0  0  0  0  0  0  0
  1  2  2  0
  2  3  1  0
  3  4  1  0
  4  5  1  0
  5  6  1  0
  6  7  1  0
  7  8  2  0
  8  9  1  0
  9 10  2  0
 10 11  1  0
 11 12  2  0
  2 13  1  0
 13 14  1  0
 14 15  2  0
 14 16  1  0
 16 17  1  0
 16 18  1  0
 18 19  1  0
 18 20  2  0
 20 21  1  0
 21 22  2  0
 22 23  1  0
 23 24  2  0
 24 25  1  0
 12  7  1  0
 25 13  2  0
 25 20  1  0
  4 26  1  0
  4 27  1  0
  5 28  1  0
  5 29  1  0
  6 30  1  0
  6 31  1  0
  8 32  1  0
  9 33  1  0
 10 34  1  0
 11 35  1  0
 12 36  1  0
 17 37  1  0
 21 38  1  0
 22 39  1  0
 23 40  1  0
 24 41  1  0
M  CHG  2   3  -1  19  -1
M  END
>  <UniqueID>  (2) 
2

>  <SMILES>  (2) 
O=C([N-]CCCc1ccccc1)c1c(=O)n(O)c([O-])c2ccccc12

>  <Energy>  (2) 
48.91747173139676

>  <Genealogy>  (2) 
O=C([N-]CCCc1ccccc1)c1c(=O)n(O)c([O-])c2ccccc12 (protonated)
O=C([N-]CCCc1ccccc1)c1c(=O)n(O)c([O-])c2ccccc12 (3D coordinates assigned)
O=C([N-]CCCc1ccccc1)c1c(=O)n(O)c([O-])c2ccccc12 (optimized conformer: 48.91747173139676 kcal/mol)

>  <smiles>  (2) 
O=C(NCCCc1ccccc1)c1c(=O)n(O)c(O)c2ccccc12

>  <score_type>  (2) 
oracle

>  <origin>  (2) 
adg

>  <m_score__min__energy>  (2) 
-13.17

>  <m_primary>  (2) 
energy

$$$$
2:0
     RDKit          3D

 39 40  0  0  0  0  0  0  0  0999 V2000
   55.0380   26.3980   46.0510 N   0  0  0  0  0  0  0  0  0  0  0  0
   56.6280   25.7210   46.0320 S   0  0  0  0  0  0  0  0  0  0  0  0
   56.9250   25.0970   47.3680 O   0  0  0  0  0  0  0  0  0  0  0  0
   56.7080   24.6570   44.9740 O   0  0  0  0  0  0  0  0  0  0  0  0
   57.7990   26.9910   45.6940 C   0  0  0  0  0  0  0  0  0  0  0  0
   58.3010   27.1580   44.3980 C   0  0  0  0  0  0  0  0  0  0  0  0
   59.2250   28.1700   44.1300 C   0  0  0  0  0  0  0  0  0  0  0  0
   59.6460   29.0260   45.1500 C   0  0  0  0  0  0  0  0  0  0  0  0
   59.1370   28.8860   46.4550 C   0  0  0  0  0  0  0  0  0  0  0  0
   59.5760   29.7840   47.5490 C   0  0  0  0  0  0  0  0  0  0  0  0
   59.3550   29.4530   48.7470 O   0  0  0  0  0  0  0  0  0  0  0  0
   60.2320   31.0310   47.2680 N   0  0  0  0  0  0  0  0  0  0  0  0
   60.8480   31.8420   48.3170 C   0  0  0  0  0  0  0  0  0  0  0  0
   61.4170   33.0940   47.7300 C   0  0  0  0  0  0  0  0  0  0  0  0
   62.4260   33.0280   46.9780 O   0  0  0  0  0  0  0  0  0  0  0  0
   60.8380   34.3600   48.0600 N   0  0  0  0  0  0  0  0  0  0  0  0
   59.4220   34.6680   47.8970 C   0  0  0  0  0  0  0  0  0  0  0  0
   58.8880   34.0260   46.6470 C   0  0  0  0  0  0  0  0  0  0  0  0
   57.8940   33.0360   46.7190 C   0  0  0  0  0  0  0  0  0  0  0  0
   57.3890   32.4590   45.5500 C   0  0  0  0  0  0  0  0  0  0  0  0
   57.8680   32.8680   44.3020 C   0  0  0  0  0  0  0  0  0  0  0  0
   57.3770   32.3080   43.1690 F   0  0  0  0  0  0  0  0  0  0  0  0
   58.8530   33.8570   44.2220 C   0  0  0  0  0  0  0  0  0  0  0  0
   59.3600   34.4370   45.3900 C   0  0  0  0  0  0  0  0  0  0  0  0
   58.2150   27.8540   46.7170 C   0  0  0  0  0  0  0  0  0  0  0  0
   55.1480   27.4360   46.0100 H   0  0  0  0  0  0  0  0  0  0  0  0
   57.9671   26.4910   43.5895 H   0  0  0  0  0  0  0  0  0  0  0  0
   59.6227   28.2934   43.1119 H   0  0  0  0  0  0  0  0  0  0  0  0
   60.3806   29.8153   44.9321 H   0  0  0  0  0  0  0  0  0  0  0  0
   60.2240   31.4160   46.2970 H   0  0  0  0  0  0  0  0  0  0  0  0
   60.0879   32.1046   49.0676 H   0  0  0  0  0  0  0  0  0  0  0  0
   61.6569   31.2657   48.7898 H   0  0  0  0  0  0  0  0  0  0  0  0
   58.8656   34.2875   48.7663 H   0  0  0  0  0  0  0  0  0  0  0  0
   59.3001   35.7584   47.8189 H   0  0  0  0  0  0  0  0  0  0  0  0
   57.5116   32.7136   47.6987 H   0  0  0  0  0  0  0  0  0  0  0  0
   56.6132   31.6816   45.6124 H   0  0  0  0  0  0  0  0  0  0  0  0
   59.2297   34.1794   43.2401 H   0  0  0  0  0  0  0  0  0  0  0  0
   60.1315   35.2182   45.3233 H   0  0  0  0  0  0  0  0  0  0  0  0
   57.8175   27.7241   47.7344 H   0  0  0  0  0  0  0  0  0  0  0  0
  1  2  1  0
  2  3  2  0
  2  4  2  0
  2  5  1  0
  5  6  2  0
  6  7  1  0
  7  8  2  0
  8  9  1  0
  9 10  1  0
 10 11  2  0
 10 12  1  0
 12 13  1  0
 13 14  1  0
 14 15  2  0
 14 16  1  0
 16 17  1  0
 17 18  1  0
 18 19  2  0
 19 20  1  0
 20 21  2  0
 21 22  1  0
 21 23  1  0
 23 24  2  0
  9 25  2  0
 25  5  1  0
 24 18  1  0
  1 26  1  0
  6 27  1  0
  7 28  1  0
  8 29  1  0
 12 30  1  0
 13 31  1  0
 13 32  1  0
 17 33  1  0
 17 34  1  0
 19 35  1  0
 20 36  1  0
 23 37  1  0
 24 38  1  0
 25 39  1  0
M  CHG  2   1  -1  16  -1
M  END
>  <UniqueID>  (3) 
3

>  <SMILES>  (3) 
[NH-]S(=O)(=O)c1cccc(C(=O)NCC(=O)[N-]Cc2ccc(F)cc2)c1

>  <Energy>  (3) 
36.227310617140056

>  <Genealogy>  (3) 
[NH-]S(=O)(=O)c1cccc(C(=O)NCC(=O)[N-]Cc2ccc(F)cc2)c1 (protonated)
[NH-]S(=O)(=O)c1cccc(C(=O)NCC(=O)[N-]Cc2ccc(F)cc2)c1 (3D coordinates assigned)
[NH-]S(=O)(=O)c1cccc(C(=O)NCC(=O)[N-]Cc2ccc(F)cc2)c1 (optimized conformer: 36.227310617140056 kcal/mol)

>  <smiles>  (3) 
NS(=O)(=O)c1cccc(C(=O)NCC(=O)NCc2ccc(F)cc2)c1

>  <score_type>  (3) 
oracle

>  <origin>  (3) 
adg

>  <m_score__min__energy>  (3) 
-12

>  <m_primary>  (3) 
energy

$$$$
3:0
     RDKit          3D

 34 35  0  0  0  0  0  0  0  0999 V2000
   57.5570   22.4630   45.7650 C   0  0  0  0  0  0  0  0  0  0  0  0
   57.4450   23.5440   46.6840 O   0  0  0  0  0  0  0  0  0  0  0  0
   57.1420   24.8660   46.3200 C   0  0  0  0  0  0  0  0  0  0  0  0
   55.8310   25.3740   46.3480 C   0  0  0  0  0  0  0  0  0  0  0  0
   55.5900   26.6640   45.9940 N   0  0  0  0  0  0  0  0  0  0  0  0
   56.5850   27.5090   45.6110 C   0  0  0  0  0  0  0  0  0  0  0  0
   56.2410   28.9000   45.2450 C   0  0  0  0  0  0  0  0  0  0  0  0
   55.2140   29.1080   44.5470 O   0  0  0  0  0  0  0  0  0  0  0  0
   57.0320   30.0250   45.6560 N   0  0  0  0  0  0  0  0  0  0  0  0
   57.4560   31.1120   44.8200 C   0  0  0  0  0  0  0  0  0  0  0  0
   57.3550   30.9440   43.4350 C   0  0  0  0  0  0  0  0  0  0  0  0
   57.8100   31.9310   42.5660 C   0  0  0  0  0  0  0  0  0  0  0  0
   58.3730   33.1010   43.0690 C   0  0  0  0  0  0  0  0  0  0  0  0
   58.4650   33.3120   44.4550 C   0  0  0  0  0  0  0  0  0  0  0  0
   59.0680   34.6000   44.9520 C   0  0  0  0  0  0  0  0  0  0  0  0
   57.9500   32.3350   45.3480 C   0  0  0  0  0  0  0  0  0  0  0  0
   57.9270   32.6020   46.8350 C   0  0  0  0  0  0  0  0  0  0  0  0
   57.9030   27.0340   45.5450 C   0  0  0  0  0  0  0  0  0  0  0  0
   58.1780   25.7130   45.9090 C   0  0  0  0  0  0  0  0  0  0  0  0
   59.3630   25.2860   45.8610 O   0  0  0  0  0  0  0  0  0  0  0  0
   57.6549   21.5184   46.3202 H   0  0  0  0  0  0  0  0  0  0  0  0
   56.6580   22.4250   45.1323 H   0  0  0  0  0  0  0  0  0  0  0  0
   58.4447   22.6101   45.1323 H   0  0  0  0  0  0  0  0  0  0  0  0
   54.9981   24.7255   46.6573 H   0  0  0  0  0  0  0  0  0  0  0  0
   56.9116   30.0228   43.0289 H   0  0  0  0  0  0  0  0  0  0  0  0
   57.7247   31.7866   41.4789 H   0  0  0  0  0  0  0  0  0  0  0  0
   58.7491   33.8670   42.3749 H   0  0  0  0  0  0  0  0  0  0  0  0
   59.0697   34.6036   46.0520 H   0  0  0  0  0  0  0  0  0  0  0  0
   60.1007   34.6876   44.5834 H   0  0  0  0  0  0  0  0  0  0  0  0
   58.4739   35.4492   44.5834 H   0  0  0  0  0  0  0  0  0  0  0  0
   58.0090   31.6499   47.3798 H   0  0  0  0  0  0  0  0  0  0  0  0
   58.7724   33.2523   47.1039 H   0  0  0  0  0  0  0  0  0  0  0  0
   56.9828   33.0981   47.1039 H   0  0  0  0  0  0  0  0  0  0  0  0
   58.7144   27.6964   45.2091 H   0  0  0  0  0  0  0  0  0  0  0  0
  1  2  1  0
  2  3  1  0
  3  4  2  0
  4  5  1  0
  5  6  1  0
  6  7  1  0
  7  8  2  0
  7  9  1  0
  9 10  1  0
 10 11  2  0
 11 12  1  0
 12 13  2  0
 13 14  1  0
 14 15  1  0
 14 16  2  0
 16 17  1  0
  6 18  2  0
 18 19  1  0
 19 20  2  0
 19  3  1  0
 16 10  1  0
  1 21  1  0
  1 22  1  0
  1 23  1  0
  4 24  1  0
 11 25  1  0
 12 26  1  0
 13 27  1  0
 15 28  1  0
 15 29  1  0
 15 30  1  0
 17 31  1  0
 17 32  1  0
 17 33  1  0
 18 34  1  0
M  CHG  2   5  -1   9  -1
M  END
>  <UniqueID>  (4) 
4

>  <SMILES>  (4) 
COc1c[n-]c(C(=O)[N-]c2cccc(C)c2C)cc1=O

>  <Energy>  (4) 
45.4578116554685

>  <Genealogy>  (4) 
COc1c[n-]c(C(=O)[N-]c2cccc(C)c2C)cc1=O (protonated)
COc1c[n-]c(C(=O)[N-]c2cccc(C)c2C)cc1=O (3D coordinates assigned)
COc1c[n-]c(C(=O)[N-]c2cccc(C)c2C)cc1=O (optimized conformer: 45.4578116554685 kcal/mol)

>  <smiles>  (4) 
COc1c[nH]c(C(=O)Nc2cccc(C)c2C)cc1=O

>  <score_type>  (4) 
oracle

>  <origin>  (4) 
adg

>  <m_score__min__energy>  (4) 
-10.44

>  <m_primary>  (4) 
energy

$$$$
4:0
     RDKit          3D

 54 56  0  0  0  0  0  0  0  0999 V2000
   51.2040   32.3280   51.4190 N   0  0  0  0  0  0  0  0  0  0  0  0
   51.6500   30.6710   51.6130 S   0  0  0  0  0  0  0  0  0  0  0  0
   51.6710   29.9970   50.2690 O   0  0  0  0  0  0  0  0  0  0  0  0
   50.6390   29.9770   52.4830 O   0  0  0  0  0  0  0  0  0  0  0  0
   53.2440   30.5720   52.3530 C   0  0  0  0  0  0  0  0  0  0  0  0
   53.4350   29.8160   53.5170 C   0  0  0  0  0  0  0  0  0  0  0  0
   54.6950   29.7570   54.1170 C   0  0  0  0  0  0  0  0  0  0  0  0
   55.7720   30.4510   53.5580 C   0  0  0  0  0  0  0  0  0  0  0  0
   55.5980   31.2030   52.3830 C   0  0  0  0  0  0  0  0  0  0  0  0
   56.6800   31.9520   51.8070 N   0  0  0  0  0  0  0  0  0  0  0  0
   57.9020   31.3620   51.3400 C   0  0  0  0  0  0  0  0  0  0  0  0
   57.9440   30.1410   51.0270 O   0  0  0  0  0  0  0  0  0  0  0  0
   59.1230   32.2110   51.1530 C   0  0  0  0  0  0  0  0  0  0  0  0
   59.9020   31.7410   50.0530 O   0  0  0  0  0  0  0  0  0  0  0  0
   59.4170   31.5110   48.7560 C   0  0  0  0  0  0  0  0  0  0  0  0
   58.7400   32.5500   48.1070 C   0  0  0  0  0  0  0  0  0  0  0  0
   58.2460   32.3770   46.8110 C   0  0  0  0  0  0  0  0  0  0  0  0
   58.4250   31.1570   46.1460 C   0  0  0  0  0  0  0  0  0  0  0  0
   57.7730   30.9190   44.5270 S   0  0  0  0  0  0  0  0  0  0  0  0
   58.0830   32.1270   43.6900 O   0  0  0  0  0  0  0  0  0  0  0  0
   56.2800   30.7580   44.5910 O   0  0  0  0  0  0  0  0  0  0  0  0
   58.4800   29.5150   43.7810 N   0  0  0  0  0  0  0  0  0  0  0  0
   57.5900   28.3510   43.8730 C   0  0  0  0  0  0  0  0  0  0  0  0
   58.3090   27.1290   43.2570 C   0  0  0  0  0  0  0  0  0  0  0  0
   57.7460   25.8140   43.8060 C   0  0  0  0  0  0  0  0  0  0  0  0
   57.9550   25.6980   45.3290 C   0  0  0  0  0  0  0  0  0  0  0  0
   58.0410   27.0620   46.0410 C   0  0  0  0  0  0  0  0  0  0  0  0
   57.1720   28.1170   45.3500 C   0  0  0  0  0  0  0  0  0  0  0  0
   59.0940   30.1110   46.7910 C   0  0  0  0  0  0  0  0  0  0  0  0
   59.5870   30.2820   48.0880 C   0  0  0  0  0  0  0  0  0  0  0  0
   54.3230   31.2740   51.7990 C   0  0  0  0  0  0  0  0  0  0  0  0
   50.3250   32.3420   50.8560 H   0  0  0  0  0  0  0  0  0  0  0  0
   52.5905   29.2675   53.9596 H   0  0  0  0  0  0  0  0  0  0  0  0
   54.8401   29.1631   55.0314 H   0  0  0  0  0  0  0  0  0  0  0  0
   56.7600   30.4085   54.0396 H   0  0  0  0  0  0  0  0  0  0  0  0
   56.5620   32.9850   51.6910 H   0  0  0  0  0  0  0  0  0  0  0  0
   58.8146   33.2490   50.9594 H   0  0  0  0  0  0  0  0  0  0  0  0
   59.7335   32.1577   52.0665 H   0  0  0  0  0  0  0  0  0  0  0  0
   58.5954   33.5114   48.6216 H   0  0  0  0  0  0  0  0  0  0  0  0
   57.7152   33.2010   46.3118 H   0  0  0  0  0  0  0  0  0  0  0  0
   56.6628   28.5225   43.3065 H   0  0  0  0  0  0  0  0  0  0  0  0
   58.1750   27.1477   42.1654 H   0  0  0  0  0  0  0  0  0  0  0  0
   59.3755   27.1858   43.5203 H   0  0  0  0  0  0  0  0  0  0  0  0
   56.6685   25.7691   43.5893 H   0  0  0  0  0  0  0  0  0  0  0  0
   58.2796   24.9829   43.3216 H   0  0  0  0  0  0  0  0  0  0  0  0
   57.1113   25.1351   45.7548 H   0  0  0  0  0  0  0  0  0  0  0  0
   58.9170   25.1884   45.4867 H   0  0  0  0  0  0  0  0  0  0  0  0
   57.6999   26.9440   47.0801 H   0  0  0  0  0  0  0  0  0  0  0  0
   59.0865   27.4021   46.0058 H   0  0  0  0  0  0  0  0  0  0  0  0
   56.1245   27.7819   45.3721 H   0  0  0  0  0  0  0  0  0  0  0  0
   57.3023   29.0661   45.8905 H   0  0  0  0  0  0  0  0  0  0  0  0
   59.2327   29.1495   46.2751 H   0  0  0  0  0  0  0  0  0  0  0  0
   60.1097   29.4539   48.5890 H   0  0  0  0  0  0  0  0  0  0  0  0
   54.1697   31.8864   50.8982 H   0  0  0  0  0  0  0  0  0  0  0  0
  1  2  1  0
  2  3  2  0
  2  4  2  0
  2  5  1  0
  5  6  2  0
  6  7  1  0
  7  8  2  0
  8  9  1  0
  9 10  1  0
 10 11  1  0
 11 12  2  0
 11 13  1  0
 13 14  1  0
 14 15  1  0
 15 16  2  0
 16 17  1  0
 17 18  2  0
 18 19  1  0
 19 20  2  0
 19 21  2  0
 19 22  1  0
 22 23  1  0
 23 24  1  0
 24 25  1  0
 25 26  1  0
 26 27  1  0
 27 28  1  0
 18 29  1  0
 29 30  2  0
  9 31  2  0
 31  5  1  0
 30 15  1  0
 28 23  1  0
  1 32  1  0
  6 33  1  0
  7 34  1  0
  8 35  1  0
 10 36  1  0
 13 37  1  0
 13 38  1  0
 16 39  1  0
 17 40  1  0
 23 41  1  0
 24 42  1  0
 24 43  1  0
 25 44  1  0
 25 45  1  0
 26 46  1  0
 26 47  1  0
 27 48  1  0
 27 49  1  0
 28 50  1  0
 28 51  1  0
 29 52  1  0
 30 53  1  0
 31 54  1  0
M  CHG  2   1  -1  22  -1
M  END
>  <UniqueID>  (5) 
5

>  <SMILES>  (5) 
[NH-]S(=O)(=O)c1cccc(NC(=O)COc2ccc(S(=O)(=O)[N-]C3CCCCC3)cc2)c1

>  <Energy>  (5) 
57.48995955657827

>  <Genealogy>  (5) 
[NH-]S(=O)(=O)c1cccc(NC(=O)COc2ccc(S(=O)(=O)[N-]C3CCCCC3)cc2)c1 (protonated)
[NH-]S(=O)(=O)c1cccc(NC(=O)COc2ccc(S(=O)(=O)[N-]C3CCCCC3)cc2)c1 (3D coordinates assigned)
[NH-]S(=O)(=O)c1cccc(NC(=O)COc2ccc(S(=O)(=O)[N-]C3CCCCC3)cc2)c1 (nonaromatic ring conformer: 57.48995955657827 kcal/mol)

>  <smiles>  (5) 
NS(=O)(=O)c1cccc(NC(=O)COc2ccc(S(=O)(=O)NC3CCCCC3)cc2)c1

>  <score_type>  (5) 
oracle

>  <origin>  (5) 
adg

>  <m_score__min__energy>  (5) 
-13.57

>  <m_primary>  (5) 
energy

$$$$
5:0
     RDKit          3D

 31 33  0  0  0  0  0  0  0  0999 V2000
   58.3790   25.8380   48.1150 O   0  0  0  0  0  0  0  0  0  0  0  0
   57.6200   26.0860   47.1420 C   0  0  0  0  0  0  0  0  0  0  0  0
   56.5150   25.2060   46.8910 N   0  0  0  0  0  0  0  0  0  0  0  0
   56.3940   24.2870   45.7960 C   0  0  0  0  0  0  0  0  0  0  0  0
   57.4230   23.3830   45.4720 C   0  0  0  0  0  0  0  0  0  0  0  0
   57.2650   22.4910   44.4080 C   0  0  0  0  0  0  0  0  0  0  0  0
   56.0770   22.4820   43.6700 C   0  0  0  0  0  0  0  0  0  0  0  0
   55.9250   21.5950   42.6110 O   0  0  0  0  0  0  0  0  0  0  0  0
   55.0410   23.3620   44.0030 C   0  0  0  0  0  0  0  0  0  0  0  0
   53.8840   23.3510   43.2970 F   0  0  0  0  0  0  0  0  0  0  0  0
   55.1980   24.2550   45.0670 C   0  0  0  0  0  0  0  0  0  0  0  0
   57.8440   27.3100   46.3340 C   0  0  0  0  0  0  0  0  0  0  0  0
   59.1220   27.8920   46.2920 C   0  0  0  0  0  0  0  0  0  0  0  0
   59.3580   29.0410   45.5370 C   0  0  0  0  0  0  0  0  0  0  0  0
   58.3220   29.6280   44.8000 C   0  0  0  0  0  0  0  0  0  0  0  0
   58.5580   30.7830   44.0390 C   0  0  0  0  0  0  0  0  0  0  0  0
   57.5220   31.3650   43.3040 C   0  0  0  0  0  0  0  0  0  0  0  0
   56.2450   30.8000   43.3230 C   0  0  0  0  0  0  0  0  0  0  0  0
   55.9960   29.6480   44.0760 C   0  0  0  0  0  0  0  0  0  0  0  0
   57.0280   29.0490   44.8220 C   0  0  0  0  0  0  0  0  0  0  0  0
   56.7950   27.8900   45.5900 C   0  0  0  0  0  0  0  0  0  0  0  0
   55.5210   27.3260   45.6290 O   0  0  0  0  0  0  0  0  0  0  0  0
   58.3540   23.3786   46.0579 H   0  0  0  0  0  0  0  0  0  0  0  0
   58.0766   21.7946   44.1504 H   0  0  0  0  0  0  0  0  0  0  0  0
   54.3772   24.9370   45.3336 H   0  0  0  0  0  0  0  0  0  0  0  0
   59.9459   27.4365   46.8609 H   0  0  0  0  0  0  0  0  0  0  0  0
   60.3629   29.4882   45.5205 H   0  0  0  0  0  0  0  0  0  0  0  0
   59.5621   31.2318   44.0210 H   0  0  0  0  0  0  0  0  0  0  0  0
   57.7127   32.2703   42.7090 H   0  0  0  0  0  0  0  0  0  0  0  0
   55.4323   31.2626   42.7438 H   0  0  0  0  0  0  0  0  0  0  0  0
   54.9880   29.2078   44.0852 H   0  0  0  0  0  0  0  0  0  0  0  0
  1  2  2  0
  2  3  1  0
  3  4  1  0
  4  5  2  0
  5  6  1  0
  6  7  2  0
  7  8  1  0
  7  9  1  0
  9 10  1  0
  9 11  2  0
  2 12  1  0
 12 13  2  0
 13 14  1  0
 14 15  2  0
 15 16  1  0
 16 17  2  0
 17 18  1  0
 18 19  2  0
 19 20  1  0
 20 21  2  0
 21 22  1  0
 11  4  1  0
 21 12  1  0
 20 15  1  0
  5 23  1  0
  6 24  1  0
 11 25  1  0
 13 26  1  0
 14 27  1  0
 16 28  1  0
 17 29  1  0
 18 30  1  0
 19 31  1  0
M  CHG  3   3  -1   8  -1  22  -1
M  END
>  <UniqueID>  (6) 
6

>  <SMILES>  (6) 
O=C([N-]c1ccc([O-])c(F)c1)c1ccc2ccccc2c1[O-]

>  <Energy>  (6) 
46.39494540346646

>  <Genealogy>  (6) 
O=C([N-]c1ccc([O-])c(F)c1)c1ccc2ccccc2c1[O-] (protonated)
O=C([N-]c1ccc([O-])c(F)c1)c1ccc2ccccc2c1[O-] (3D coordinates assigned)
O=C([N-]c1ccc([O-])c(F)c1)c1ccc2ccccc2c1[O-] (optimized conformer: 46.39494540346646 kcal/mol)

>  <smiles>  (6) 
O=C(Nc1ccc(O)c(F)c1)c1ccc2ccccc2c1O

>  <score_type>  (6) 
oracle

>  <origin>  (6) 
adg

>  <m_score__min__energy>  (6) 
-14.029999999999999

>  <m_primary>  (6) 
energy

$$$$
6:0
     RDKit          3D

 45 48  0  0  1  0  0  0  0  0999 V2000
   55.8840   23.6090   45.8840 C   0  0  0  0  0  0  0  0  0  0  0  0
   56.2510   25.0430   45.7460 C   0  0  0  0  0  0  0  0  0  0  0  0
   57.2720   25.5810   44.9700 C   0  0  0  0  0  0  0  0  0  0  0  0
   57.2570   26.9560   45.1420 C   0  0  0  0  0  0  0  0  0  0  0  0
   58.0620   27.8050   44.5780 N   0  0  0  0  0  0  0  0  0  0  0  0
   58.1290   29.1150   45.0740 C   0  0  0  0  0  0  0  0  0  0  0  0
   57.7800   29.2990   46.2840 O   0  0  0  0  0  0  0  0  0  0  0  0
   58.5480   30.2500   44.3530 N   0  0  0  0  0  0  0  0  0  0  0  0
   58.5600   31.5160   45.0020 C   0  0  0  0  0  0  0  0  0  0  0  0
   57.7240   32.4890   44.4450 C   0  0  0  0  0  0  0  0  0  0  0  0
   57.7010   33.7350   45.0400 C   0  0  0  0  0  0  0  0  0  0  0  0
   58.4880   33.9880   46.1490 C   0  0  0  0  0  0  0  0  0  0  0  0
   59.3090   33.0600   46.7090 C   0  0  0  0  0  0  0  0  0  0  0  0
   60.1540   33.2660   47.8650 C   0  0  0  0  0  0  0  0  0  0  0  0
   59.5740   33.5860   49.0870 C   0  0  0  0  0  0  0  0  0  0  0  0
   60.3410   33.7960   50.2260 C   0  0  0  0  0  0  0  0  0  0  0  0
   61.7180   33.6930   50.1760 C   0  0  0  0  0  0  0  0  0  0  0  0
   62.5570   33.9100   51.3600 C   0  0  0  0  0  0  0  0  0  0  0  0
   62.3080   33.3770   48.9680 C   0  0  0  0  0  0  0  0  0  0  0  0
   63.6330   33.2040   48.6020 C   0  0  0  0  0  0  0  0  0  0  0  0
   64.6950   33.3000   49.3290 N   0  0  0  0  0  0  0  0  0  0  0  0
   63.6380   32.9020   47.2880 N   0  0  0  0  0  0  0  0  0  0  0  0
   62.3820   32.8850   46.8510 N   0  0  0  0  0  0  0  0  0  0  0  0
   61.5290   33.1710   47.8460 C   0  0  0  0  0  0  0  0  0  0  0  0
   59.3320   31.7960   46.1070 C   0  0  0  0  0  0  0  0  0  0  0  0
   56.2470   27.1860   45.9980 N   0  0  0  0  0  0  0  0  0  0  0  0
   55.6730   26.0560   46.3400 O   0  0  0  0  0  0  0  0  0  0  0  0
   55.8174   23.3486   46.9506 H   0  0  0  0  0  0  0  0  0  0  0  0
   54.9114   23.4314   45.4017 H   0  0  0  0  0  0  0  0  0  0  0  0
   56.6516   22.9860   45.4017 H   0  0  0  0  0  0  0  0  0  0  0  0
   57.9679   25.0155   44.3328 H   0  0  0  0  0  0  0  0  0  0  0  0
   58.8360   30.1090   43.3560 H   0  0  0  0  0  0  0  0  0  0  0  0
   57.1054   32.2691   43.5624 H   0  0  0  0  0  0  0  0  0  0  0  0
   57.0562   34.5271   44.6316 H   0  0  0  0  0  0  0  0  0  0  0  0
   58.4477   34.9902   46.6006 H   0  0  0  0  0  0  0  0  0  0  0  0
   58.4797   33.6752   49.1538 H   0  0  0  0  0  0  0  0  0  0  0  0
   59.8475   34.0466   51.1766 H   0  0  0  0  0  0  0  0  0  0  0  0
   61.9564   33.7547   52.2684 H   0  0  0  0  0  0  0  0  0  0  0  0
   63.3967   33.1995   51.3496 H   0  0  0  0  0  0  0  0  0  0  0  0
   62.9469   34.9385   51.3496 H   0  0  0  0  0  0  0  0  0  0  0  0
   65.0770   32.5070   49.8530 H   0  0  0  0  0  0  0  0  0  0  0  0
   64.5160   32.7160   46.7330 H   0  0  0  0  0  0  0  0  0  0  0  0
   62.1370   32.6730   45.8590 H   0  0  0  0  0  0  0  0  0  0  0  0
   59.9796   31.0113   46.5252 H   0  0  0  0  0  0  0  0  0  0  0  0
   55.9510   28.1340   46.3510 H   0  0  0  0  0  0  0  0  0  0  0  0
  1  2  1  0
  2  3  2  0
  3  4  1  0
  4  5  2  0
  5  6  1  0
  6  7  2  0
  6  8  1  0
  8  9  1  0
  9 10  2  0
 10 11  1  0
 11 12  2  0
 12 13  1  0
 13 14  1  0
 14 15  2  0
 15 16  1  0
 16 17  2  0
 17 18  1  0
 17 19  1  0
 19 20  1  0
 20 21  2  3
 20 22  1  0
 22 23  1  0
 23 24  1  0
 13 25  2  0
  4 26  1  0
 26 27  1  0
 27  2  1  0
 25  9  1  0
 24 14  1  0
 24 19  2  0
  1 28  1  0
  1 29  1  0
  1 30  1  0
  3 31  1  0
  8 32  1  0
 10 33  1  0
 11 34  1  0
 12 35  1  0
 15 36  1  0
 16 37  1  0
 18 38  1  0
 18 39  1  0
 18 40  1  0
 21 41  1  0
 22 42  1  0
 23 43  1  0
 25 44  1  0
 26 45  1  0
M  END
>  <smiles>  (7) 
Cc1cc(=NC(=O)Nc2cccc(-c3ccc(C)c4c(=N)[nH][nH]c34)c2)[nH]o1

>  <score_type>  (7) 
oracle

>  <origin>  (7) 
adg

>  <m_score__min__energy>  (7) 
-9.8300000000000001

>  <m_primary>  (7) 
energy

$$$$
7:0
     RDKit          3D

 46 48  0  0  0  0  0  0  0  0999 V2000
   60.3060   29.3330   44.8870 O   0  0  0  0  0  0  0  0  0  0  0  0
   59.7460   29.6220   45.9800 C   0  0  0  0  0  0  0  0  0  0  0  0
   58.7330   28.7550   46.5170 N   0  0  0  0  0  0  0  0  0  0  0  0
   57.9880   27.8030   45.7380 C   0  0  0  0  0  0  0  0  0  0  0  0
   57.6760   28.1000   44.1480 S   0  0  0  0  0  0  0  0  0  0  0  0
   57.2740   26.7600   46.4220 N   0  0  0  0  0  0  0  0  0  0  0  0
   56.8240   25.5430   45.8010 C   0  0  0  0  0  0  0  0  0  0  0  0
   57.7390   24.5420   45.4380 C   0  0  0  0  0  0  0  0  0  0  0  0
   57.2950   23.3600   44.8490 C   0  0  0  0  0  0  0  0  0  0  0  0
   55.9320   23.1490   44.6330 C   0  0  0  0  0  0  0  0  0  0  0  0
   55.5210   21.9680   44.0230 O   0  0  0  0  0  0  0  0  0  0  0  0
   54.9930   24.1210   45.0260 C   0  0  0  0  0  0  0  0  0  0  0  0
   53.2670   23.8380   44.7360 S   0  0  0  0  0  0  0  0  0  0  0  0
   52.4870   25.0200   45.2400 O   0  0  0  0  0  0  0  0  0  0  0  0
   52.9920   23.6920   43.2650 O   0  0  0  0  0  0  0  0  0  0  0  0
   52.7610   22.4000   45.5880 N   0  0  0  0  0  0  0  0  0  0  0  0
   51.3390   22.5090   45.9620 C   0  0  0  0  0  0  0  0  0  0  0  0
   50.9450   21.3960   46.9550 C   0  0  0  0  0  0  0  0  0  0  0  0
   51.9430   20.3970   47.0200 O   0  0  0  0  0  0  0  0  0  0  0  0
   53.1370   20.9460   47.5500 C   0  0  0  0  0  0  0  0  0  0  0  0
   53.5910   22.2100   46.7870 C   0  0  0  0  0  0  0  0  0  0  0  0
   55.4480   25.3250   45.6020 C   0  0  0  0  0  0  0  0  0  0  0  0
   54.5450   26.3210   45.9620 O   0  0  0  0  0  0  0  0  0  0  0  0
   60.1890   30.8220   46.7270 C   0  0  0  0  0  0  0  0  0  0  0  0
   61.4870   30.8660   47.2690 C   0  0  0  0  0  0  0  0  0  0  0  0
   61.9230   31.9880   47.9800 C   0  0  0  0  0  0  0  0  0  0  0  0
   61.0730   33.0830   48.1490 C   0  0  0  0  0  0  0  0  0  0  0  0
   59.7890   33.0610   47.6010 C   0  0  0  0  0  0  0  0  0  0  0  0
   59.3440   31.9410   46.8900 C   0  0  0  0  0  0  0  0  0  0  0  0
   58.1090   31.9740   46.3280 F   0  0  0  0  0  0  0  0  0  0  0  0
   58.6010   28.7420   47.5520 H   0  0  0  0  0  0  0  0  0  0  0  0
   57.0690   26.8970   47.4380 H   0  0  0  0  0  0  0  0  0  0  0  0
   58.8135   24.6919   45.6198 H   0  0  0  0  0  0  0  0  0  0  0  0
   58.0219   22.5894   44.5528 H   0  0  0  0  0  0  0  0  0  0  0  0
   51.1638   23.4886   46.4307 H   0  0  0  0  0  0  0  0  0  0  0  0
   50.7273   22.4031   45.0540 H   0  0  0  0  0  0  0  0  0  0  0  0
   50.8115   21.8364   47.9541 H   0  0  0  0  0  0  0  0  0  0  0  0
   50.0089   20.9335   46.6089 H   0  0  0  0  0  0  0  0  0  0  0  0
   52.9669   21.2111   48.6039 H   0  0  0  0  0  0  0  0  0  0  0  0
   53.9290   20.1894   47.4485 H   0  0  0  0  0  0  0  0  0  0  0  0
   53.4896   23.0873   47.4428 H   0  0  0  0  0  0  0  0  0  0  0  0
   54.6414   22.0902   46.4833 H   0  0  0  0  0  0  0  0  0  0  0  0
   62.1644   30.0102   47.1320 H   0  0  0  0  0  0  0  0  0  0  0  0
   62.9366   32.0083   48.4067 H   0  0  0  0  0  0  0  0  0  0  0  0
   61.4150   33.9628   48.7138 H   0  0  0  0  0  0  0  0  0  0  0  0
   59.1242   33.9280   47.7288 H   0  0  0  0  0  0  0  0  0  0  0  0
  1  2  2  0
  2  3  1  0
  3  4  1  0
  4  5  2  0
  4  6  1  0
  6  7  1  0
  7  8  2  0
  8  9  1  0
  9 10  2  0
 10 11  1  0
 10 12  1  0
 12 13  1  0
 13 14  2  0
 13 15  2  0
 13 16  1  0
 16 17  1  0
 17 18  1  0
 18 19  1  0
 19 20  1  0
 20 21  1  0
 12 22  2  0
 22 23  1  0
  2 24  1  0
 24 25  2  0
 25 26  1  0
 26 27  2  0
 27 28  1  0
 28 29  2  0
 29 30  1  0
 22  7  1  0
 29 24  1  0
 21 16  1  0
  3 31  1  0
  6 32  1  0
  8 33  1  0
  9 34  1  0
 17 35  1  0
 17 36  1  0
 18 37  1  0
 18 38  1  0
 20 39  1  0
 20 40  1  0
 21 41  1  0
 21 42  1  0
 25 43  1  0
 26 44  1  0
 27 45  1  0
 28 46  1  0
M  CHG  2  11  -1  23  -1
M  END
>  <UniqueID>  (8) 
7

>  <SMILES>  (8) 
O=C(NC(=S)Nc1ccc([O-])c(S(=O)(=O)N2CCOCC2)c1[O-])c1ccccc1F

>  <Energy>  (8) 
68.75040075235073

>  <Genealogy>  (8) 
O=C(NC(=S)Nc1ccc([O-])c(S(=O)(=O)N2CCOCC2)c1[O-])c1ccccc1F (protonated)
O=C(NC(=S)Nc1ccc([O-])c(S(=O)(=O)N2CCOCC2)c1[O-])c1ccccc1F (3D coordinates assigned)
O=C(NC(=S)Nc1ccc([O-])c(S(=O)(=O)N2CCOCC2)c1[O-])c1ccccc1F (nonaromatic ring conformer: 68.75040075235073 kcal/mol)

>  <smiles>  (8) 
O=C(NC(=S)Nc1ccc(O)c(S(=O)(=O)N2CCOCC2)c1O)c1ccccc1F

>  <score_type>  (8) 
oracle

>  <origin>  (8) 
adg

>  <m_score__min__energy>  (8) 
-13.550000000000001

>  <m_primary>  (8) 
energy

$$$$
8:0
     RDKit          3D

 55 57  0  0  0  0  0  0  0  0999 V2000
   54.7610   26.0210   45.9650 O   0  0  0  0  0  0  0  0  0  0  0  0
   55.9690   25.8600   46.2820 C   0  0  0  0  0  0  0  0  0  0  0  0
   56.4740   24.4840   46.5950 C   0  0  0  0  0  0  0  0  0  0  0  0
   56.6750   23.6960   45.3290 C   0  0  0  0  0  0  0  0  0  0  0  0
   55.8310   23.9030   44.2220 C   0  0  0  0  0  0  0  0  0  0  0  0
   55.9950   23.1420   43.0590 C   0  0  0  0  0  0  0  0  0  0  0  0
   56.9940   22.1670   42.9950 C   0  0  0  0  0  0  0  0  0  0  0  0
   57.8300   21.9480   44.0940 C   0  0  0  0  0  0  0  0  0  0  0  0
   57.6690   22.7060   45.2600 C   0  0  0  0  0  0  0  0  0  0  0  0
   56.8930   26.9600   46.3260 N   0  0  0  0  0  0  0  0  0  0  0  0
   58.0230   27.1390   45.6900 C   0  0  0  0  0  0  0  0  0  0  0  0
   58.1260   27.9010   44.3840 C   0  0  0  0  0  0  0  0  0  0  0  0
   57.9840   29.4100   44.6260 C   0  0  0  0  0  0  0  0  0  0  0  0
   56.5530   29.8420   44.7640 C   0  0  0  0  0  0  0  0  0  0  0  0
   55.6320   28.9880   44.8620 O   0  0  0  0  0  0  0  0  0  0  0  0
   56.2530   31.2410   44.7590 N   0  0  0  0  0  0  0  0  0  0  0  0
   57.1570   32.3320   44.9900 C   0  0  0  0  0  0  0  0  0  0  0  0
   58.0460   32.6900   43.9670 C   0  0  0  0  0  0  0  0  0  0  0  0
   58.9160   33.7710   44.1270 C   0  0  0  0  0  0  0  0  0  0  0  0
   58.8970   34.5140   45.3100 C   0  0  0  0  0  0  0  0  0  0  0  0
   58.0010   34.1780   46.3310 C   0  0  0  0  0  0  0  0  0  0  0  0
   57.1290   33.0960   46.1730 C   0  0  0  0  0  0  0  0  0  0  0  0
   59.2560   26.7120   46.3820 C   0  0  0  0  0  0  0  0  0  0  0  0
   59.9260   25.7380   45.9490 O   0  0  0  0  0  0  0  0  0  0  0  0
   59.7030   27.4260   47.5380 N   0  0  0  0  0  0  0  0  0  0  0  0
   58.9050   28.4370   48.2200 C   0  0  0  0  0  0  0  0  0  0  0  0
   59.5110   29.7940   47.9940 C   0  0  0  0  0  0  0  0  0  0  0  0
   60.4630   29.9930   46.9780 C   0  0  0  0  0  0  0  0  0  0  0  0
   60.9960   31.2680   46.7490 C   0  0  0  0  0  0  0  0  0  0  0  0
   60.5810   32.3510   47.5320 C   0  0  0  0  0  0  0  0  0  0  0  0
   59.6230   32.1620   48.5340 C   0  0  0  0  0  0  0  0  0  0  0  0
   59.0850   30.8900   48.7630 C   0  0  0  0  0  0  0  0  0  0  0  0
   57.4328   24.5629   47.1284 H   0  0  0  0  0  0  0  0  0  0  0  0
   55.7327   23.9670   47.2221 H   0  0  0  0  0  0  0  0  0  0  0  0
   55.0397   24.6655   44.2710 H   0  0  0  0  0  0  0  0  0  0  0  0
   55.3367   23.3116   42.1942 H   0  0  0  0  0  0  0  0  0  0  0  0
   57.1227   21.5713   42.0792 H   0  0  0  0  0  0  0  0  0  0  0  0
   58.6151   21.1793   44.0425 H   0  0  0  0  0  0  0  0  0  0  0  0
   58.3235   22.5255   46.1255 H   0  0  0  0  0  0  0  0  0  0  0  0
   59.1046   27.6992   43.9240 H   0  0  0  0  0  0  0  0  0  0  0  0
   57.3163   27.5713   43.7164 H   0  0  0  0  0  0  0  0  0  0  0  0
   58.5210   29.6704   45.5501 H   0  0  0  0  0  0  0  0  0  0  0  0
   58.4048   29.9280   43.7516 H   0  0  0  0  0  0  0  0  0  0  0  0
   58.0586   32.1144   43.0297 H   0  0  0  0  0  0  0  0  0  0  0  0
   59.6162   34.0373   43.3215 H   0  0  0  0  0  0  0  0  0  0  0  0
   59.5856   35.3621   45.4387 H   0  0  0  0  0  0  0  0  0  0  0  0
   57.9824   34.7664   47.2602 H   0  0  0  0  0  0  0  0  0  0  0  0
   56.4198   32.8411   46.9743 H   0  0  0  0  0  0  0  0  0  0  0  0
   57.8793   28.4232   47.8228 H   0  0  0  0  0  0  0  0  0  0  0  0
   58.8849   28.2206   49.2983 H   0  0  0  0  0  0  0  0  0  0  0  0
   60.7905   29.1436   46.3605 H   0  0  0  0  0  0  0  0  0  0  0  0
   61.7409   31.4179   45.9536 H   0  0  0  0  0  0  0  0  0  0  0  0
   61.0077   33.3502   47.3598 H   0  0  0  0  0  0  0  0  0  0  0  0
   59.2915   33.0155   49.1437 H   0  0  0  0  0  0  0  0  0  0  0  0
   58.3267   30.7482   49.5471 H   0  0  0  0  0  0  0  0  0  0  0  0
  1  2  2  0
  2  3  1  0
  3  4  1  0
  4  5  2  0
  5  6  1  0
  6  7  2  0
  7  8  1  0
  8  9  2  0
  2 10  1  0
 10 11  2  3
 11 12  1  0
 12 13  1  0
 13 14  1  0
 14 15  2  0
 14 16  1  0
 16 17  1  0
 17 18  2  0
 18 19  1  0
 19 20  2  0
 20 21  1  0
 21 22  2  0
 11 23  1  0
 23 24  2  0
 23 25  1  0
 25 26  1  0
 26 27  1  0
 27 28  2  0
 28 29  1  0
 29 30  2  0
 30 31  1  0
 31 32  2  0
  9  4  1  0
 22 17  1  0
 32 27  1  0
  3 33  1  0
  3 34  1  0
  5 35  1  0
  6 36  1  0
  7 37  1  0
  8 38  1  0
  9 39  1  0
 12 40  1  0
 12 41  1  0
 13 42  1  0
 13 43  1  0
 18 44  1  0
 19 45  1  0
 20 46  1  0
 21 47  1  0
 22 48  1  0
 26 49  1  0
 26 50  1  0
 28 51  1  0
 29 52  1  0
 30 53  1  0
 31 54  1  0
 32 55  1  0
M  CHG  2  16  -1  25  -1
M  END
>  <UniqueID>  (9) 
8

>  <SMILES>  (9) 
O=C(Cc1ccccc1)N=C(CCC(=O)[N-]c1ccccc1)C(=O)[N-]Cc1ccccc1

>  <Energy>  (9) 
58.59772827065383

>  <Genealogy>  (9) 
O=C(Cc1ccccc1)N=C(CCC(=O)[N-]c1ccccc1)C(=O)[N-]Cc1ccccc1 (protonated)
O=C(Cc1ccccc1)N=C(CCC(=O)[N-]c1ccccc1)C(=O)[N-]Cc1ccccc1 (3D coordinates assigned)
O=C(Cc1ccccc1)N=C(CCC(=O)[N-]c1ccccc1)C(=O)[N-]Cc1ccccc1 (optimized conformer: 58.59772827065383 kcal/mol)

>  <smiles>  (9) 
O=C(Cc1ccccc1)N=C(CCC(=O)Nc1ccccc1)C(=O)NCc1ccccc1

>  <score_type>  (9) 
oracle

>  <origin>  (9) 
adg

>  <m_score__min__energy>  (9) 
-13.380000000000001

>  <m_primary>  (9) 
energy

$$$$
9:0
     RDKit          3D

 43 45  0  0  0  0  0  0  0  0999 V2000
   56.0280   29.4010   45.2350 O   0  0  0  0  0  0  0  0  0  0  0  0
   57.2490   29.3960   45.5480 C   0  0  0  0  0  0  0  0  0  0  0  0
   57.9880   28.2410   45.3210 O   0  0  0  0  0  0  0  0  0  0  0  0
   57.8760   30.6030   46.1450 C   0  0  0  0  0  0  0  0  0  0  0  0
   58.5670   30.4950   47.3670 C   0  0  0  0  0  0  0  0  0  0  0  0
   59.1730   31.6170   47.9560 C   0  0  0  0  0  0  0  0  0  0  0  0
   59.8770   31.4980   49.2820 C   0  0  0  0  0  0  0  0  0  0  0  0
   58.9730   31.8830   50.3780 N   0  0  0  0  0  0  0  0  0  0  0  0
   59.1370   33.1080   50.9690 C   0  0  0  0  0  0  0  0  0  0  0  0
   58.2780   33.5320   51.9830 C   0  0  0  0  0  0  0  0  0  0  0  0
   57.2460   32.6980   52.4010 C   0  0  0  0  0  0  0  0  0  0  0  0
   57.0820   31.4420   51.8120 C   0  0  0  0  0  0  0  0  0  0  0  0
   55.9820   30.5680   52.2630 C   0  0  0  0  0  0  0  0  0  0  0  0
   56.1650   29.3220   52.3030 O   0  0  0  0  0  0  0  0  0  0  0  0
   54.7010   31.0930   52.6270 N   0  0  0  0  0  0  0  0  0  0  0  0
   53.5720   31.2070   51.7100 C   0  0  0  0  0  0  0  0  0  0  0  0
   52.3160   31.4600   52.4970 C   0  0  0  0  0  0  0  0  0  0  0  0
   52.1840   30.9350   53.7940 C   0  0  0  0  0  0  0  0  0  0  0  0
   51.0320   31.1880   54.5440 C   0  0  0  0  0  0  0  0  0  0  0  0
   50.0080   31.9760   54.0110 C   0  0  0  0  0  0  0  0  0  0  0  0
   50.1360   32.5160   52.7290 C   0  0  0  0  0  0  0  0  0  0  0  0
   51.2870   32.2660   51.9720 C   0  0  0  0  0  0  0  0  0  0  0  0
   51.4010   32.8250   50.7030 O   0  0  0  0  0  0  0  0  0  0  0  0
   57.9490   31.0550   50.7710 C   0  0  0  0  0  0  0  0  0  0  0  0
   57.7680   29.9480   50.1900 O   0  0  0  0  0  0  0  0  0  0  0  0
   59.0750   32.8620   47.3230 C   0  0  0  0  0  0  0  0  0  0  0  0
   58.3940   32.9840   46.1110 C   0  0  0  0  0  0  0  0  0  0  0  0
   57.7950   31.8680   45.5190 C   0  0  0  0  0  0  0  0  0  0  0  0
   57.1250   32.0330   44.3110 O   0  0  0  0  0  0  0  0  0  0  0  0
   58.6332   29.5178   47.8677 H   0  0  0  0  0  0  0  0  0  0  0  0
   60.2015   30.4572   49.4282 H   0  0  0  0  0  0  0  0  0  0  0  0
   60.7486   32.1691   49.2853 H   0  0  0  0  0  0  0  0  0  0  0  0
   59.9557   33.7650   50.6401 H   0  0  0  0  0  0  0  0  0  0  0  0
   58.4157   34.5189   52.4488 H   0  0  0  0  0  0  0  0  0  0  0  0
   56.5595   33.0274   53.1949 H   0  0  0  0  0  0  0  0  0  0  0  0
   53.7453   32.0426   51.0159 H   0  0  0  0  0  0  0  0  0  0  0  0
   53.4665   30.2735   51.1377 H   0  0  0  0  0  0  0  0  0  0  0  0
   52.9913   30.3219   54.2210 H   0  0  0  0  0  0  0  0  0  0  0  0
   50.9311   30.7664   55.5550 H   0  0  0  0  0  0  0  0  0  0  0  0
   49.1006   32.1711   54.6015 H   0  0  0  0  0  0  0  0  0  0  0  0
   49.3305   33.1392   52.3132 H   0  0  0  0  0  0  0  0  0  0  0  0
   59.5369   33.7480   47.7831 H   0  0  0  0  0  0  0  0  0  0  0  0
   58.3280   33.9651   45.6180 H   0  0  0  0  0  0  0  0  0  0  0  0
  1  2  2  0
  2  3  1  0
  2  4  1  0
  4  5  2  0
  5  6  1  0
  6  7  1  0
  7  8  1  0
  8  9  1  0
  9 10  2  0
 10 11  1  0
 11 12  2  0
 12 13  1  0
 13 14  2  0
 13 15  1  0
 15 16  1  0
 16 17  1  0
 17 18  2  0
 18 19  1  0
 19 20  2  0
 20 21  1  0
 21 22  2  0
 22 23  1  0
 12 24  1  0
 24 25  2  0
  6 26  2  0
 26 27  1  0
 27 28  2  0
 28 29  1  0
 28  4  1  0
 24  8  1  0
 22 17  1  0
  5 30  1  0
  7 31  1  0
  7 32  1  0
  9 33  1  0
 10 34  1  0
 11 35  1  0
 16 36  1  0
 16 37  1  0
 18 38  1  0
 19 39  1  0
 20 40  1  0
 21 41  1  0
 26 42  1  0
 27 43  1  0
M  CHG  4   3  -1  15  -1  23  -1  29  -1
M  END
>  <UniqueID>  (10) 
9

>  <SMILES>  (10) 
O=C([O-])c1cc(Cn2cccc(C(=O)[N-]Cc3ccccc3[O-])c2=O)ccc1[O-]

>  <Energy>  (10) 
55.29197531057999

>  <Genealogy>  (10) 
O=C([O-])c1cc(Cn2cccc(C(=O)[N-]Cc3ccccc3[O-])c2=O)ccc1[O-] (protonated)
O=C([O-])c1cc(Cn2cccc(C(=O)[N-]Cc3ccccc3[O-])c2=O)ccc1[O-] (3D coordinates assigned)
O=C([O-])c1cc(Cn2cccc(C(=O)[N-]Cc3ccccc3[O-])c2=O)ccc1[O-] (optimized conformer: 55.29197531057999 kcal/mol)

>  <smiles>  (10) 
O=C(O)c1cc(Cn2cccc(C(=O)NCc3ccccc3O)c2=O)ccc1O

>  <score_type>  (10) 
oracle

>  <origin>  (10) 
adg

>  <m_score__min__energy>  (10) 
-17.850000000000001

>  <m_primary>  (10) 
energy

$$$$
10:0
     RDKit          3D

 40 43  0  0  0  0  0  0  0  0999 V2000
   57.9190   30.1150   52.1270 O   0  0  0  0  0  0  0  0  0  0  0  0
   58.2740   30.5850   51.0150 C   0  0  0  0  0  0  0  0  0  0  0  0
   57.9260   31.9620   50.5290 C   0  0  0  0  0  0  0  0  0  0  0  0
   58.5890   32.0050   49.2310 N   0  0  0  0  0  0  0  0  0  0  0  0
   58.4500   33.0230   48.1990 C   0  0  0  0  0  0  0  0  0  0  0  0
   59.5600   32.8370   47.1530 C   0  0  0  0  0  0  0  0  0  0  0  0
   59.6990   31.3570   46.7020 C   0  0  2  0  0  0  0  0  0  0  0  0
   58.6190   30.9890   45.7010 C   0  0  0  0  0  0  0  0  0  0  0  0
   58.3790   31.7680   44.5530 C   0  0  0  0  0  0  0  0  0  0  0  0
   57.3980   31.3890   43.6350 C   0  0  0  0  0  0  0  0  0  0  0  0
   56.6590   30.2220   43.8350 C   0  0  0  0  0  0  0  0  0  0  0  0
   56.9070   29.4100   44.9540 C   0  0  0  0  0  0  0  0  0  0  0  0
   56.1510   28.2090   45.1920 N   0  0  0  0  0  0  0  0  0  0  0  0
   56.6620   27.0730   45.9100 C   0  0  0  0  0  0  0  0  0  0  0  0
   57.6800   27.1900   46.6440 O   0  0  0  0  0  0  0  0  0  0  0  0
   55.9850   25.7670   45.8390 C   0  0  0  0  0  0  0  0  0  0  0  0
   56.5750   24.5220   45.9730 C   0  0  0  0  0  0  0  0  0  0  0  0
   55.5520   23.6070   45.8420 C   0  0  0  0  0  0  0  0  0  0  0  0
   54.4070   24.3490   45.6390 C   0  0  0  0  0  0  0  0  0  0  0  0
   52.6550   23.6420   45.3900 Br  0  0  0  0  0  0  0  0  0  0  0  0
   54.6930   25.6300   45.6440 O   0  0  0  0  0  0  0  0  0  0  0  0
   57.8800   29.8060   45.8860 C   0  0  0  0  0  0  0  0  0  0  0  0
   59.6990   30.4240   47.8420 N   0  0  0  0  0  0  0  0  0  0  0  0
   59.1730   30.7390   48.9850 C   0  0  0  0  0  0  0  0  0  0  0  0
   59.0410   29.8440   50.0710 N   0  0  0  0  0  0  0  0  0  0  0  0
   56.8379   32.0857   50.4257 H   0  0  0  0  0  0  0  0  0  0  0  0
   58.2394   32.7648   51.2126 H   0  0  0  0  0  0  0  0  0  0  0  0
   57.4675   32.9239   47.7144 H   0  0  0  0  0  0  0  0  0  0  0  0
   58.5327   34.0220   48.6519 H   0  0  0  0  0  0  0  0  0  0  0  0
   59.3253   33.4548   46.2736 H   0  0  0  0  0  0  0  0  0  0  0  0
   60.5119   33.1408   47.6130 H   0  0  0  0  0  0  0  0  0  0  0  0
   60.6772   31.2630   46.2078 H   0  0  0  0  0  0  0  0  0  0  0  0
   58.9679   32.6805   44.3785 H   0  0  0  0  0  0  0  0  0  0  0  0
   57.2065   32.0131   42.7497 H   0  0  0  0  0  0  0  0  0  0  0  0
   55.8792   29.9370   43.1134 H   0  0  0  0  0  0  0  0  0  0  0  0
   55.1450   28.2060   44.9140 H   0  0  0  0  0  0  0  0  0  0  0  0
   57.6396   24.3071   46.1478 H   0  0  0  0  0  0  0  0  0  0  0  0
   55.6323   22.5110   45.8896 H   0  0  0  0  0  0  0  0  0  0  0  0
   58.0670   29.1827   46.7729 H   0  0  0  0  0  0  0  0  0  0  0  0
   59.3450   28.8470   50.1270 H   0  0  0  0  0  0  0  0  0  0  0  0
  1  2  2  0
  2  3  1  0
  3  4  1  0
  4  5  1  0
  5  6  1  0
  6  7  1  0
  7  8  1  0
  8  9  2  0
  9 10  1  0
 10 11  2  0
 11 12  1  0
 12 13  1  0
 13 14  1  0
 14 15  2  0
 14 16  1  0
 16 17  2  0
 17 18  1  0
 18 19  2  0
 19 20  1  0
 19 21  1  0
 12 22  2  0
  7 23  1  0
 23 24  2  0
 24 25  1  0
 25  2  1  0
 24  4  1  0
 22  8  1  0
 21 16  1  0
  3 26  1  0
  3 27  1  0
  5 28  1  0
  5 29  1  0
  6 30  1  0
  6 31  1  0
  7 32  1  6
  9 33  1  0
 10 34  1  0
 11 35  1  0
 13 36  1  0
 17 37  1  0
 18 38  1  0
 22 39  1  0
 25 40  1  0
M  END
>  <UniqueID>  (11) 
10

>  <SMILES>  (11) 
O=C1CN2CC[C@H](c3cccc(NC(=O)c4ccc(Br)o4)c3)N=C2N1

>  <Energy>  (11) 
92.91380472662193

>  <Genealogy>  (11) 
O=C1CN2CC[C@H](c3cccc(NC(=O)c4ccc(Br)o4)c3)N=C2N1 (chirality)
O=C1CN2CC[C@H](c3cccc(NC(=O)c4ccc(Br)o4)c3)N=C2N1 (3D coordinates assigned)
O=C1CN2CC[C@H](c3cccc(NC(=O)c4ccc(Br)o4)c3)N=C2N1 (nonaromatic ring conformer: 92.91380472662193 kcal/mol)

>  <smiles>  (11) 
O=C1CN2CCC(c3cccc(NC(=O)c4ccc(Br)o4)c3)N=C2N1

>  <score_type>  (11) 
oracle

>  <origin>  (11) 
adg

>  <m_score__min__energy>  (11) 
-8.5399999999999991

>  <m_primary>  (11) 
energy

$$$$
11:0
     RDKit          3D

 47 49  0  0  0  0  0  0  0  0999 V2000
   54.7200   26.2920   45.9420 N   0  0  0  0  0  0  0  0  0  0  0  0
   56.2260   25.4500   46.0150 S   0  0  0  0  0  0  0  0  0  0  0  0
   56.5020   25.0510   47.4370 O   0  0  0  0  0  0  0  0  0  0  0  0
   56.1470   24.2050   45.1760 O   0  0  0  0  0  0  0  0  0  0  0  0
   57.5260   26.4810   45.4180 C   0  0  0  0  0  0  0  0  0  0  0  0
   57.7800   26.5780   44.0410 C   0  0  0  0  0  0  0  0  0  0  0  0
   58.7710   27.4450   43.5700 C   0  0  0  0  0  0  0  0  0  0  0  0
   59.5160   28.2130   44.4690 C   0  0  0  0  0  0  0  0  0  0  0  0
   59.3060   28.0830   45.8540 C   0  0  0  0  0  0  0  0  0  0  0  0
   60.0240   28.8870   46.7970 N   0  0  0  0  0  0  0  0  0  0  0  0
   59.9360   30.3110   46.9570 C   0  0  0  0  0  0  0  0  0  0  0  0
   60.9970   30.9900   46.9140 O   0  0  0  0  0  0  0  0  0  0  0  0
   58.6140   31.0280   47.0200 C   0  0  0  0  0  0  0  0  0  0  0  0
   58.4710   31.9140   45.8640 N   0  0  0  0  0  0  0  0  0  0  0  0
   57.8400   31.4400   44.6660 C   0  0  0  0  0  0  0  0  0  0  0  0
   58.0780   32.0890   43.4450 C   0  0  0  0  0  0  0  0  0  0  0  0
   57.4770   31.6250   42.2720 C   0  0  0  0  0  0  0  0  0  0  0  0
   56.6270   30.5180   42.3130 C   0  0  0  0  0  0  0  0  0  0  0  0
   56.3640   29.8810   43.5320 C   0  0  0  0  0  0  0  0  0  0  0  0
   56.9690   30.3390   44.7070 C   0  0  0  0  0  0  0  0  0  0  0  0
   56.6870   29.7120   45.9150 O   0  0  0  0  0  0  0  0  0  0  0  0
   58.9330   33.5840   45.9910 S   0  0  0  0  0  0  0  0  0  0  0  0
   59.3740   34.0940   44.6470 O   0  0  0  0  0  0  0  0  0  0  0  0
   57.7510   34.3970   46.4420 O   0  0  0  0  0  0  0  0  0  0  0  0
   60.2530   33.7490   47.1460 C   0  0  0  0  0  0  0  0  0  0  0  0
   59.9790   33.8530   48.5180 C   0  0  0  0  0  0  0  0  0  0  0  0
   61.0270   33.9500   49.4390 C   0  0  0  0  0  0  0  0  0  0  0  0
   62.3530   33.9480   48.9950 C   0  0  0  0  0  0  0  0  0  0  0  0
   62.6310   33.8500   47.6280 C   0  0  0  0  0  0  0  0  0  0  0  0
   61.5850   33.7500   46.7060 C   0  0  0  0  0  0  0  0  0  0  0  0
   58.3000   27.2250   46.3200 C   0  0  0  0  0  0  0  0  0  0  0  0
   54.7900   27.0910   46.6090 H   0  0  0  0  0  0  0  0  0  0  0  0
   57.1987   25.9711   43.3312 H   0  0  0  0  0  0  0  0  0  0  0  0
   58.9645   27.5226   42.4899 H   0  0  0  0  0  0  0  0  0  0  0  0
   60.2688   28.9212   44.0926 H   0  0  0  0  0  0  0  0  0  0  0  0
   57.7985   30.2898   47.0166 H   0  0  0  0  0  0  0  0  0  0  0  0
   58.5708   31.6265   47.9419 H   0  0  0  0  0  0  0  0  0  0  0  0
   58.7404   32.9666   43.4111 H   0  0  0  0  0  0  0  0  0  0  0  0
   57.6736   32.1320   41.3158 H   0  0  0  0  0  0  0  0  0  0  0  0
   56.1637   30.1461   41.3872 H   0  0  0  0  0  0  0  0  0  0  0  0
   55.6809   29.0195   43.5655 H   0  0  0  0  0  0  0  0  0  0  0  0
   58.9370   33.8583   48.8703 H   0  0  0  0  0  0  0  0  0  0  0  0
   60.8079   34.0280   50.5141 H   0  0  0  0  0  0  0  0  0  0  0  0
   63.1766   34.0234   49.7203 H   0  0  0  0  0  0  0  0  0  0  0  0
   63.6738   33.8516   47.2779 H   0  0  0  0  0  0  0  0  0  0  0  0
   61.8072   33.6718   45.6315 H   0  0  0  0  0  0  0  0  0  0  0  0
   58.1165   27.1348   47.4008 H   0  0  0  0  0  0  0  0  0  0  0  0
  1  2  1  0
  2  3  2  0
  2  4  2  0
  2  5  1  0
  5  6  2  0
  6  7  1  0
  7  8  2  0
  8  9  1  0
  9 10  1  0
 10 11  1  0
 11 12  2  0
 11 13  1  0
 13 14  1  0
 14 15  1  0
 15 16  2  0
 16 17  1  0
 17 18  2  0
 18 19  1  0
 19 20  2  0
 20 21  1  0
 14 22  1  0
 22 23  2  0
 22 24  2  0
 22 25  1  0
 25 26  2  0
 26 27  1  0
 27 28  2  0
 28 29  1  0
 29 30  2  0
  9 31  2  0
 31  5  1  0
 20 15  1  0
 30 25  1  0
  1 32  1  0
  6 33  1  0
  7 34  1  0
  8 35  1  0
 13 36  1  0
 13 37  1  0
 16 38  1  0
 17 39  1  0
 18 40  1  0
 19 41  1  0
 26 42  1  0
 27 43  1  0
 28 44  1  0
 29 45  1  0
 30 46  1  0
 31 47  1  0
M  CHG  3   1  -1  10  -1  21  -1
M  END
>  <UniqueID>  (12) 
11

>  <SMILES>  (12) 
[NH-]S(=O)(=O)c1cccc([N-]C(=O)CN(c2ccccc2[O-])S(=O)(=O)c2ccccc2)c1

>  <Energy>  (12) 
56.14654330460542

>  <Genealogy>  (12) 
[NH-]S(=O)(=O)c1cccc([N-]C(=O)CN(c2ccccc2[O-])S(=O)(=O)c2ccccc2)c1 (protonated)
[NH-]S(=O)(=O)c1cccc([N-]C(=O)CN(c2ccccc2[O-])S(=O)(=O)c2ccccc2)c1 (3D coordinates assigned)
[NH-]S(=O)(=O)c1cccc([N-]C(=O)CN(c2ccccc2[O-])S(=O)(=O)c2ccccc2)c1 (optimized conformer: 56.14654330460542 kcal/mol)

>  <smiles>  (12) 
NS(=O)(=O)c1cccc(NC(=O)CN(c2ccccc2O)S(=O)(=O)c2ccccc2)c1

>  <score_type>  (12) 
oracle

>  <origin>  (12) 
adg

>  <m_score__min__energy>  (12) 
-15.300000000000001

>  <m_primary>  (12) 
energy

$$$$
12:0
     RDKit          3D

 35 37  0  0  0  0  0  0  0  0999 V2000
   55.5070   24.2450   47.0240 O   0  0  0  0  0  0  0  0  0  0  0  0
   55.9090   25.3000   46.4720 C   0  0  0  0  0  0  0  0  0  0  0  0
   55.0900   26.3430   46.2160 N   0  0  0  0  0  0  0  0  0  0  0  0
   55.9160   27.2310   45.6390 C   0  0  0  0  0  0  0  0  0  0  0  0
   55.5210   28.4900   45.2070 O   0  0  0  0  0  0  0  0  0  0  0  0
   57.1860   26.7110   45.5500 C   0  0  0  0  0  0  0  0  0  0  0  0
   58.4060   27.4090   45.0340 C   0  0  0  0  0  0  0  0  0  0  0  0
   58.8140   28.5030   45.9830 C   0  0  0  0  0  0  0  0  0  0  0  0
   58.5270   28.3940   47.3520 C   0  0  0  0  0  0  0  0  0  0  0  0
   58.8710   29.4260   48.2300 C   0  0  0  0  0  0  0  0  0  0  0  0
   59.4980   30.5900   47.7470 C   0  0  0  0  0  0  0  0  0  0  0  0
   59.8560   31.6610   48.5830 O   0  0  0  0  0  0  0  0  0  0  0  0
   59.1110   32.8680   48.7410 C   0  0  0  0  0  0  0  0  0  0  0  0
   58.7700   33.4670   47.4020 C   0  0  0  0  0  0  0  0  0  0  0  0
   59.6720   34.3410   46.7700 C   0  0  0  0  0  0  0  0  0  0  0  0
   59.3540   34.9040   45.5300 C   0  0  0  0  0  0  0  0  0  0  0  0
   58.1350   34.6080   44.9180 C   0  0  0  0  0  0  0  0  0  0  0  0
   57.2270   33.7510   45.5450 C   0  0  0  0  0  0  0  0  0  0  0  0
   57.5400   33.1840   46.7850 C   0  0  0  0  0  0  0  0  0  0  0  0
   59.7770   30.6960   46.3800 C   0  0  0  0  0  0  0  0  0  0  0  0
   59.4340   29.6650   45.5020 C   0  0  0  0  0  0  0  0  0  0  0  0
   57.1930   25.4800   46.0920 N   0  0  0  0  0  0  0  0  0  0  0  0
   59.2277   26.6839   44.9393 H   0  0  0  0  0  0  0  0  0  0  0  0
   58.1813   27.8492   44.0513 H   0  0  0  0  0  0  0  0  0  0  0  0
   58.0287   27.4918   47.7365 H   0  0  0  0  0  0  0  0  0  0  0  0
   58.6507   29.3280   49.3032 H   0  0  0  0  0  0  0  0  0  0  0  0
   58.1805   32.6485   49.2851 H   0  0  0  0  0  0  0  0  0  0  0  0
   59.7233   33.5885   49.3031 H   0  0  0  0  0  0  0  0  0  0  0  0
   60.6306   34.5826   47.2523 H   0  0  0  0  0  0  0  0  0  0  0  0
   60.0660   35.5815   45.0360 H   0  0  0  0  0  0  0  0  0  0  0  0
   57.8890   35.0499   43.9412 H   0  0  0  0  0  0  0  0  0  0  0  0
   56.2651   33.5219   45.0632 H   0  0  0  0  0  0  0  0  0  0  0  0
   56.8205   32.5142   47.2787 H   0  0  0  0  0  0  0  0  0  0  0  0
   60.2710   31.5995   45.9931 H   0  0  0  0  0  0  0  0  0  0  0  0
   59.6513   29.7652   44.4283 H   0  0  0  0  0  0  0  0  0  0  0  0
  1  2  2  0
  2  3  1  0
  3  4  1  0
  4  5  1  0
  4  6  2  0
  6  7  1  0
  7  8  1  0
  8  9  2  0
  9 10  1  0
 10 11  2  0
 11 12  1  0
 12 13  1  0
 13 14  1  0
 14 15  2  0
 15 16  1  0
 16 17  2  0
 17 18  1  0
 18 19  2  0
 11 20  1  0
 20 21  2  0
  6 22  1  0
 22  2  1  0
 21  8  1  0
 19 14  1  0
  7 23  1  0
  7 24  1  0
  9 25  1  0
 10 26  1  0
 13 27  1  0
 13 28  1  0
 15 29  1  0
 16 30  1  0
 17 31  1  0
 18 32  1  0
 19 33  1  0
 20 34  1  0
 21 35  1  0
M  CHG  3   3  -1   5  -1  22  -1
M  END
>  <UniqueID>  (13) 
12

>  <SMILES>  (13) 
O=c1[n-]c([O-])c(Cc2ccc(OCc3ccccc3)cc2)[n-]1

>  <Energy>  (13) 
64.91493007823108

>  <Genealogy>  (13) 
O=c1[n-]c([O-])c(Cc2ccc(OCc3ccccc3)cc2)[n-]1 (protonated)
O=c1[n-]c([O-])c(Cc2ccc(OCc3ccccc3)cc2)[n-]1 (3D coordinates assigned)
O=c1[n-]c([O-])c(Cc2ccc(OCc3ccccc3)cc2)[n-]1 (optimized conformer: 64.91493007823108 kcal/mol)

>  <smiles>  (13) 
O=c1[nH]c(O)c(Cc2ccc(OCc3ccccc3)cc2)[nH]1

>  <score_type>  (13) 
oracle

>  <origin>  (13) 
adg

>  <m_score__min__energy>  (13) 
-15.56

>  <m_primary>  (13) 
energy

$$$$
13:0
     RDKit          3D

 62 65  0  0  0  0  0  0  0  0999 V2000
   63.1402   33.7334   46.1276 H   0  0  0  0  0  0  0  0  0  0  0  0
   63.0260   33.1760   47.0690 C   0  0  0  0  0  0  0  0  0  0  0  0
   61.8440   32.3070   47.2080 C   0  0  0  0  0  0  0  0  0  0  0  0
   61.9870   31.0580   47.1160 O   0  0  0  0  0  0  0  0  0  0  0  0
   60.5660   32.8610   47.5440 N   0  0  0  0  0  0  0  0  0  0  0  0
   59.5700   33.2670   46.5960 C   0  0  0  0  0  0  0  0  0  0  0  0
   59.7820   34.4280   45.8430 C   0  0  0  0  0  0  0  0  0  0  0  0
   60.6799   35.0386   46.0190 H   0  0  0  0  0  0  0  0  0  0  0  0
   58.8590   34.8140   44.8700 C   0  0  0  0  0  0  0  0  0  0  0  0
   59.0179   35.7416   44.3006 H   0  0  0  0  0  0  0  0  0  0  0  0
   57.7330   34.0250   44.6170 C   0  0  0  0  0  0  0  0  0  0  0  0
   57.0066   34.3357   43.8517 H   0  0  0  0  0  0  0  0  0  0  0  0
   57.5260   32.8350   45.3380 C   0  0  0  0  0  0  0  0  0  0  0  0
   56.4230   31.9610   45.0740 N   0  0  0  0  0  0  0  0  0  0  0  0
   56.5440   30.3520   44.4390 S   0  0  0  0  0  0  0  0  0  0  0  0
   55.3560   29.5410   44.8760 O   0  0  0  0  0  0  0  0  0  0  0  0
   56.5930   30.3900   42.9380 O   0  0  0  0  0  0  0  0  0  0  0  0
   58.0260   29.6200   45.0430 C   0  0  0  0  0  0  0  0  0  0  0  0
   58.9630   29.0880   44.1470 C   0  0  0  0  0  0  0  0  0  0  0  0
   58.7605   29.1061   43.0659 H   0  0  0  0  0  0  0  0  0  0  0  0
   60.1510   28.5360   44.6230 C   0  0  0  0  0  0  0  0  0  0  0  0
   60.8783   28.1084   43.9172 H   0  0  0  0  0  0  0  0  0  0  0  0
   60.4210   28.5240   45.9930 C   0  0  0  0  0  0  0  0  0  0  0  0
   61.3606   28.0856   46.3605 H   0  0  0  0  0  0  0  0  0  0  0  0
   59.5010   29.0680   46.9060 C   0  0  0  0  0  0  0  0  0  0  0  0
   59.7850   29.0700   48.3620 C   0  0  0  0  0  0  0  0  0  0  0  0
   59.4290   28.0860   49.0660 O   0  0  0  0  0  0  0  0  0  0  0  0
   60.4280   30.1930   48.9850 N   0  0  0  0  0  0  0  0  0  0  0  0
   60.3350   31.1280   48.5310 H   0  0  0  0  0  0  0  0  0  0  0  0
   60.9370   30.1520   50.3280 C   0  0  0  0  0  0  0  0  0  0  0  0
   62.3240   30.0770   50.5250 C   0  0  0  0  0  0  0  0  0  0  0  0
   62.9987   30.0559   49.6565 H   0  0  0  0  0  0  0  0  0  0  0  0
   62.8540   30.0290   51.8160 C   0  0  0  0  0  0  0  0  0  0  0  0
   63.9434   29.9809   51.9606 H   0  0  0  0  0  0  0  0  0  0  0  0
   62.0030   30.0420   52.9250 C   0  0  0  0  0  0  0  0  0  0  0  0
   62.4241   30.0136   53.9408 H   0  0  0  0  0  0  0  0  0  0  0  0
   60.6180   30.0910   52.7450 C   0  0  0  0  0  0  0  0  0  0  0  0
   59.9510   30.0903   53.6197 H   0  0  0  0  0  0  0  0  0  0  0  0
   60.0760   30.1410   51.4530 C   0  0  0  0  0  0  0  0  0  0  0  0
   58.6410   30.1170   51.3040 C   0  0  0  0  0  0  0  0  0  0  0  0
   57.4880   30.0980   51.1860 N   0  0  0  0  0  0  0  0  0  0  0  0
   58.2970   29.6100   46.4190 C   0  0  0  0  0  0  0  0  0  0  0  0
   57.5629   30.0290   47.1229 H   0  0  0  0  0  0  0  0  0  0  0  0
   58.4380   32.4750   46.3390 C   0  0  0  0  0  0  0  0  0  0  0  0
   58.2661   31.5631   46.9297 H   0  0  0  0  0  0  0  0  0  0  0  0
   63.9740   33.3380   48.0060 C   0  0  0  0  0  0  0  0  0  0  0  0
   65.0113   33.4604   47.6609 H   0  0  0  0  0  0  0  0  0  0  0  0
   63.7340   33.3650   49.4670 C   0  0  0  0  0  0  0  0  0  0  0  0
   62.4890   33.7730   49.9800 C   0  0  0  0  0  0  0  0  0  0  0  0
   61.6862   34.0704   49.2893 H   0  0  0  0  0  0  0  0  0  0  0  0
   62.2630   33.8040   51.3560 C   0  0  0  0  0  0  0  0  0  0  0  0
   61.2771   34.0985   51.7449 H   0  0  0  0  0  0  0  0  0  0  0  0
   63.2860   33.4620   52.2380 C   0  0  0  0  0  0  0  0  0  0  0  0
   63.1035   33.4747   53.3227 H   0  0  0  0  0  0  0  0  0  0  0  0
   64.5430   33.1030   51.7460 C   0  0  0  0  0  0  0  0  0  0  0  0
   65.3516   32.8502   52.4476 H   0  0  0  0  0  0  0  0  0  0  0  0
   64.7840   33.0620   50.3570 C   0  0  0  0  0  0  0  0  0  0  0  0
   66.0440   32.7280   49.8340 O   0  0  0  0  0  0  0  0  0  0  0  0
   67.2840   32.9840   50.4880 C   0  0  0  0  0  0  0  0  0  0  0  0
   67.1369   32.9536   51.5777 H   0  0  0  0  0  0  0  0  0  0  0  0
   68.0177   32.2184   50.1956 H   0  0  0  0  0  0  0  0  0  0  0  0
   67.6545   33.9776   50.1956 H   0  0  0  0  0  0  0  0  0  0  0  0
  1  2  1  0
  2  3  1  0
  3  4  2  0
  3  5  1  0
  5  6  1  0
  6  7  2  0
  7  8  1  0
  7  9  1  0
  9 10  1  0
  9 11  2  0
 11 12  1  0
 11 13  1  0
 13 14  1  0
 14 15  1  0
 15 16  2  0
 15 17  2  0
 15 18  1  0
 18 19  2  0
 19 20  1  0
 19 21  1  0
 21 22  1  0
 21 23  2  0
 23 24  1  0
 23 25  1  0
 25 26  1  0
 26 27  2  0
 26 28  1  0
 28 29  1  0
 28 30  1  0
 30 31  2  0
 31 32  1  0
 31 33  1  0
 33 34  1  0
 33 35  2  0
 35 36  1  0
 35 37  1  0
 37 38  1  0
 37 39  2  0
 39 40  1  0
 40 41  3  0
 25 42  2  0
 42 43  1  0
 13 44  2  0
 44 45  1  0
  2 46  2  0
 46 47  1  0
 46 48  1  0
 48 49  2  0
 49 50  1  0
 49 51  1  0
 51 52  1  0
 51 53  2  0
 53 54  1  0
 53 55  1  0
 55 56  1  0
 55 57  2  0
 57 58  1  0
 58 59  1  0
 59 60  1  0
 59 61  1  0
 59 62  1  0
 44  6  1  0
 57 48  1  0
 42 18  1  0
 39 30  1  0
M  CHG  2   5  -1  14  -1
M  END
>  <UniqueID>  (14) 
13

>  <SMILES>  (14) 
COc1ccccc1/C=C\C(=O)[N-]c1cccc([N-]S(=O)(=O)c2cccc(C(=O)Nc3ccccc3C#N)c2)c1

>  <Energy>  (14) 
89.107825077629

>  <Genealogy>  (14) 
COc1ccccc1C=CC(=O)[N-]c1cccc([N-]S(=O)(=O)c2cccc(C(=O)Nc3ccccc3C#N)c2)c1 (protonated)
COc1ccccc1/C=C\C(=O)[N-]c1cccc([N-]S(=O)(=O)c2cccc(C(=O)Nc3ccccc3C#N)c2)c1 (cis-trans isomerization)
COc1ccccc1/C=C\C(=O)[N-]c1cccc([N-]S(=O)(=O)c2cccc(C(=O)Nc3ccccc3C#N)c2)c1 (3D coordinates assigned)
COc1ccccc1/C=C\C(=O)[N-]c1cccc([N-]S(=O)(=O)c2cccc(C(=O)Nc3ccccc3C#N)c2)c1 (optimized conformer: 89.107825077629 kcal/mol)

>  <smiles>  (14) 
COc1ccccc1C=CC(=O)Nc1cccc(NS(=O)(=O)c2cccc(C(=O)Nc3ccccc3C#N)c2)c1

>  <score_type>  (14) 
oracle

>  <origin>  (14) 
adg

>  <m_score__min__energy>  (14) 
-12.17

>  <m_primary>  (14) 
energy

$$$$
14:0
     RDKit          3D

 34 35  0  0  0  0  0  0  0  0999 V2000
   60.6798   30.4403   45.8736 H   0  0  0  0  0  0  0  0  0  0  0  0
   59.8250   29.7630   45.7300 C   0  0  0  0  0  0  0  0  0  0  0  0
   59.9470   28.4180   46.0780 C   0  0  0  0  0  0  0  0  0  0  0  0
   60.8958   28.0459   46.4919 H   0  0  0  0  0  0  0  0  0  0  0  0
   58.8710   27.5360   45.9050 C   0  0  0  0  0  0  0  0  0  0  0  0
   59.0060   26.1060   46.2770 C   0  0  0  0  0  0  0  0  0  0  0  0
   60.0930   25.5070   46.0560 O   0  0  0  0  0  0  0  0  0  0  0  0
   57.8880   25.4140   46.8600 N   0  0  0  0  0  0  0  0  0  0  0  0
   56.6520   25.3640   46.4520 C   0  0  0  0  0  0  0  0  0  0  0  0
   56.0710   24.2410   45.9060 C   0  0  0  0  0  0  0  0  0  0  0  0
   56.5239   23.2521   45.7420 H   0  0  0  0  0  0  0  0  0  0  0  0
   54.7840   24.6510   45.6130 C   0  0  0  0  0  0  0  0  0  0  0  0
   53.7030   23.7910   45.0490 C   0  0  0  0  0  0  0  0  0  0  0  0
   53.1306   23.3356   45.8705 H   0  0  0  0  0  0  0  0  0  0  0  0
   53.0316   24.4045   44.4303 H   0  0  0  0  0  0  0  0  0  0  0  0
   54.1499   22.9988   44.4303 H   0  0  0  0  0  0  0  0  0  0  0  0
   54.6100   25.9390   45.9770 N   0  0  0  0  0  0  0  0  0  0  0  0
   55.7550   26.3730   46.4810 N   0  0  0  0  0  0  0  0  0  0  0  0
   55.8830   27.3490   46.8220 H   0  0  0  0  0  0  0  0  0  0  0  0
   57.6670   28.0310   45.3760 C   0  0  0  0  0  0  0  0  0  0  0  0
   56.8170   27.3464   45.2392 H   0  0  0  0  0  0  0  0  0  0  0  0
   57.5260   29.3870   45.0170 C   0  0  0  0  0  0  0  0  0  0  0  0
   56.2240   29.8490   44.4590 C   0  0  0  0  0  0  0  0  0  0  0  0
   55.1420   29.3630   44.8830 O   0  0  0  0  0  0  0  0  0  0  0  0
   56.1650   30.8180   43.4640 O   0  0  0  0  0  0  0  0  0  0  0  0
   58.6240   30.2650   45.1980 C   0  0  0  0  0  0  0  0  0  0  0  0
   58.4990   31.6520   44.8450 N   0  0  0  0  0  0  0  0  0  0  0  0
   58.1480   32.9650   45.9240 S   0  0  0  0  0  0  0  0  0  0  0  0
   57.8400   32.4360   47.2960 O   0  0  0  0  0  0  0  0  0  0  0  0
   56.9430   33.7010   45.4090 O   0  0  0  0  0  0  0  0  0  0  0  0
   59.5220   34.0940   45.9830 C   0  0  0  0  0  0  0  0  0  0  0  0
   59.7786   34.3048   47.0317 H   0  0  0  0  0  0  0  0  0  0  0  0
   60.3886   33.6436   45.4769 H   0  0  0  0  0  0  0  0  0  0  0  0
   59.2482   35.0315   45.4769 H   0  0  0  0  0  0  0  0  0  0  0  0
  1  2  1  0
  2  3  2  0
  3  4  1  0
  3  5  1  0
  5  6  1  0
  6  7  2  0
  6  8  1  0
  8  9  2  0
  9 10  1  0
 10 11  1  0
 10 12  2  0
 12 13  1  0
 13 14  1  0
 13 15  1  0
 13 16  1  0
 12 17  1  0
 17 18  1  0
 18 19  1  0
  5 20  2  0
 20 21  1  0
 20 22  1  0
 22 23  1  0
 23 24  2  0
 23 25  1  0
 22 26  2  0
 26 27  1  0
 27 28  1  0
 28 29  2  0
 28 30  2  0
 28 31  1  0
 31 32  1  0
 31 33  1  0
 31 34  1  0
 26  2  1  0
 18  9  1  0
M  CHG  3  17  -1  25  -1  27  -1
M  END
>  <UniqueID>  (15) 
14

>  <SMILES>  (15) 
Cc1c/c(=N/C(=O)c2ccc([N-]S(C)(=O)=O)c(C(=O)[O-])c2)[nH][n-]1

>  <Energy>  (15) 
71.61648544196433

>  <Genealogy>  (15) 
Cc1cc(=NC(=O)c2ccc([N-]S(C)(=O)=O)c(C(=O)[O-])c2)[nH][n-]1 (protonated)
Cc1c/c(=N/C(=O)c2ccc([N-]S(C)(=O)=O)c(C(=O)[O-])c2)[nH][n-]1 (cis-trans isomerization)
Cc1c/c(=N/C(=O)c2ccc([N-]S(C)(=O)=O)c(C(=O)[O-])c2)[nH][n-]1 (3D coordinates assigned)
Cc1c/c(=N/C(=O)c2ccc([N-]S(C)(=O)=O)c(C(=O)[O-])c2)[nH][n-]1 (optimized conformer: 71.61648544196433 kcal/mol)

>  <smiles>  (15) 
Cc1cc(=NC(=O)c2ccc(NS(C)(=O)=O)c(C(=O)O)c2)[nH][nH]1

>  <score_type>  (15) 
oracle

>  <origin>  (15) 
adg

>  <m_score__min__energy>  (15) 
-13.49

>  <m_primary>  (15) 
energy

$$$$
15:0
     RDKit          3D

 41 43  0  0  1  0  0  0  0  0999 V2000
   56.4290   27.0220   45.6170 N   0  0  0  0  0  0  0  0  0  0  0  0
   56.6460   28.2220   45.2300 C   0  0  0  0  0  0  0  0  0  0  0  0
   55.7140   28.9870   44.6510 N   0  0  0  0  0  0  0  0  0  0  0  0
   55.9610   30.2660   44.2430 C   0  0  0  0  0  0  0  0  0  0  0  0
   57.2300   30.8330   44.4220 C   0  0  0  0  0  0  0  0  0  0  0  0
   57.4330   32.1310   43.9610 N   0  0  0  0  0  0  0  0  0  0  0  0
   57.9480   33.0650   44.9720 C   0  0  0  0  0  0  0  0  0  0  0  0
   57.5170   33.0620   46.2500 C   0  0  0  0  0  0  0  0  0  0  0  0
   58.0880   33.9670   47.1340 C   0  0  0  0  0  0  0  0  0  0  0  0
   59.0590   34.8030   46.6310 C   0  0  0  0  0  0  0  0  0  0  0  0
   59.4870   34.7940   45.3280 C   0  0  0  0  0  0  0  0  0  0  0  0
   58.9290   33.9090   44.4620 C   0  0  0  0  0  0  0  0  0  0  0  0
   58.1480   30.0140   45.0210 C   0  0  0  0  0  0  0  0  0  0  0  0
   59.2900   30.4560   45.3030 N   0  0  0  0  0  0  0  0  0  0  0  0
   60.0930   30.0890   46.4040 C   0  0  0  0  0  0  0  0  0  0  0  0
   59.9030   30.8620   47.6820 C   0  0  0  0  0  0  0  0  0  0  0  0
   60.9910   31.8870   47.8660 C   0  0  0  0  0  0  0  0  0  0  0  0
   62.1910   31.7820   47.1900 C   0  0  0  0  0  0  0  0  0  0  0  0
   63.1930   32.7410   47.3710 C   0  0  0  0  0  0  0  0  0  0  0  0
   62.9780   33.7970   48.2280 C   0  0  0  0  0  0  0  0  0  0  0  0
   61.7940   33.9000   48.8940 N   0  0  0  0  0  0  0  0  0  0  0  0
   60.8370   32.9680   48.7100 C   0  0  0  0  0  0  0  0  0  0  0  0
   57.8670   28.7400   45.4140 N   0  0  0  0  0  0  0  0  0  0  0  0
   56.2260   26.2390   44.9640 H   0  0  0  0  0  0  0  0  0  0  0  0
   54.7630   28.5600   44.5180 H   0  0  0  0  0  0  0  0  0  0  0  0
   55.1601   30.8544   43.7715 H   0  0  0  0  0  0  0  0  0  0  0  0
   57.2840   32.6400   43.1020 H   0  0  0  0  0  0  0  0  0  0  0  0
   56.7356   32.3626   46.5821 H   0  0  0  0  0  0  0  0  0  0  0  0
   57.7787   34.0140   48.1886 H   0  0  0  0  0  0  0  0  0  0  0  0
   59.5220   35.5256   47.3191 H   0  0  0  0  0  0  0  0  0  0  0  0
   60.2682   35.4910   44.9904 H   0  0  0  0  0  0  0  0  0  0  0  0
   59.2382   33.8619   43.4074 H   0  0  0  0  0  0  0  0  0  0  0  0
   59.8893   29.0306   46.6240 H   0  0  0  0  0  0  0  0  0  0  0  0
   61.1237   30.3099   46.0895 H   0  0  0  0  0  0  0  0  0  0  0  0
   58.9298   31.3737   47.6504 H   0  0  0  0  0  0  0  0  0  0  0  0
   59.9434   30.1564   48.5249 H   0  0  0  0  0  0  0  0  0  0  0  0
   62.3598   30.9384   46.5046 H   0  0  0  0  0  0  0  0  0  0  0  0
   64.1475   32.6520   46.8316 H   0  0  0  0  0  0  0  0  0  0  0  0
   63.7606   34.5559   48.3746 H   0  0  0  0  0  0  0  0  0  0  0  0
   59.8893   33.0743   49.2582 H   0  0  0  0  0  0  0  0  0  0  0  0
   58.6050   28.1420   45.8720 H   0  0  0  0  0  0  0  0  0  0  0  0
  1  2  2  3
  2  3  1  0
  3  4  1  0
  4  5  2  0
  5  6  1  0
  6  7  1  0
  7  8  2  0
  8  9  1  0
  9 10  2  0
 10 11  1  0
 11 12  2  0
  5 13  1  0
 13 14  2  0
 14 15  1  0
 15 16  1  0
 16 17  1  0
 17 18  2  0
 18 19  1  0
 19 20  2  0
 20 21  1  0
 21 22  2  0
 13 23  1  0
 23  2  1  0
 12  7  1  0
 22 17  1  0
  1 24  1  0
  3 25  1  0
  4 26  1  0
  6 27  1  0
  8 28  1  0
  9 29  1  0
 10 30  1  0
 11 31  1  0
 12 32  1  0
 15 33  1  0
 15 34  1  0
 16 35  1  0
 16 36  1  0
 18 37  1  0
 19 38  1  0
 20 39  1  0
 22 40  1  0
 23 41  1  0
M  END
>  <smiles>  (16) 
N=c1[nH]cc(Nc2ccccc2)c(=NCCc2cccnc2)[nH]1

>  <score_type>  (16) 
oracle

>  <origin>  (16) 
adg

>  <m_score__min__energy>  (16) 
-7.1900000000000004

>  <m_primary>  (16) 
energy

$$$$
16:0
     RDKit          3D

 42 44  0  0  0  0  0  0  0  0999 V2000
   55.2410   29.5970   44.8680 O   0  0  0  0  0  0  0  0  0  0  0  0
   56.4850   29.5780   44.6740 C   0  0  0  0  0  0  0  0  0  0  0  0
   57.1350   28.3040   44.5590 N   0  0  0  0  0  0  0  0  0  0  0  0
   57.8210   27.3800   45.8600 S   0  0  0  0  0  0  0  0  0  0  0  0
   58.6470   26.2660   45.2840 O   0  0  0  0  0  0  0  0  0  0  0  0
   56.7160   26.7830   46.6850 O   0  0  0  0  0  0  0  0  0  0  0  0
   58.8650   28.3720   46.8720 C   0  0  0  0  0  0  0  0  0  0  0  0
   58.5540   28.6990   48.1990 C   0  0  0  0  0  0  0  0  0  0  0  0
   59.5170   29.4970   48.7980 C   0  0  0  0  0  0  0  0  0  0  0  0
   59.4520   30.1240   50.4320 Cl  0  0  0  0  0  0  0  0  0  0  0  0
   60.7530   29.7880   47.7010 S   0  0  0  0  0  0  0  0  0  0  0  0
   60.0740   28.9100   46.4420 C   0  0  0  0  0  0  0  0  0  0  0  0
   60.7910   28.7440   44.8500 Cl  0  0  0  0  0  0  0  0  0  0  0  0
   57.2100   30.8600   44.5670 C   0  0  0  0  0  0  0  0  0  0  0  0
   57.4280   31.4640   43.3190 C   0  0  0  0  0  0  0  0  0  0  0  0
   58.1140   32.6770   43.2320 C   0  0  0  0  0  0  0  0  0  0  0  0
   58.6220   33.2800   44.3850 C   0  0  0  0  0  0  0  0  0  0  0  0
   58.4570   32.6640   45.6330 C   0  0  0  0  0  0  0  0  0  0  0  0
   59.1840   33.3750   47.0780 S   0  0  0  0  0  0  0  0  0  0  0  0
   59.0440   34.8710   47.0090 O   0  0  0  0  0  0  0  0  0  0  0  0
   58.4330   32.8960   48.2890 O   0  0  0  0  0  0  0  0  0  0  0  0
   60.8700   32.9550   47.2480 N   0  0  0  0  0  0  0  0  0  0  0  0
   61.7130   33.8400   46.4240 C   0  0  0  0  0  0  0  0  0  0  0  0
   63.2120   33.5730   46.6820 C   0  0  0  0  0  0  0  0  0  0  0  0
   63.4080   32.4740   47.5510 O   0  0  0  0  0  0  0  0  0  0  0  0
   62.7980   32.7350   48.8010 C   0  0  0  0  0  0  0  0  0  0  0  0
   61.2840   33.0120   48.6600 C   0  0  0  0  0  0  0  0  0  0  0  0
   57.7490   31.4560   45.7200 C   0  0  0  0  0  0  0  0  0  0  0  0
   57.6421   28.3585   48.7113 H   0  0  0  0  0  0  0  0  0  0  0  0
   57.0563   30.9790   42.4043 H   0  0  0  0  0  0  0  0  0  0  0  0
   58.2547   33.1589   42.2532 H   0  0  0  0  0  0  0  0  0  0  0  0
   59.1529   34.2407   44.3133 H   0  0  0  0  0  0  0  0  0  0  0  0
   60.9750   31.9700   46.9040 H   0  0  0  0  0  0  0  0  0  0  0  0
   61.4930   33.6596   45.3614 H   0  0  0  0  0  0  0  0  0  0  0  0
   61.4916   34.8838   46.6912 H   0  0  0  0  0  0  0  0  0  0  0  0
   63.7061   33.3607   45.7224 H   0  0  0  0  0  0  0  0  0  0  0  0
   63.6413   34.4666   47.1587 H   0  0  0  0  0  0  0  0  0  0  0  0
   62.9399   31.8617   49.4546 H   0  0  0  0  0  0  0  0  0  0  0  0
   63.2692   33.6325   49.2281 H   0  0  0  0  0  0  0  0  0  0  0  0
   60.7246   32.2559   49.2304 H   0  0  0  0  0  0  0  0  0  0  0  0
   61.0727   34.0192   49.0484 H   0  0  0  0  0  0  0  0  0  0  0  0
   57.6147   30.9715   46.6984 H   0  0  0  0  0  0  0  0  0  0  0  0
  1  2  2  0
  2  3  1  0
  3  4  1  0
  4  5  2  0
  4  6  2  0
  4  7  1  0
  7  8  1  0
  8  9  2  0
  9 10  1  0
  9 11  1  0
 11 12  1  0
 12 13  1  0
  2 14  1  0
 14 15  2  0
 15 16  1  0
 16 17  2  0
 17 18  1  0
 18 19  1  0
 19 20  2  0
 19 21  2  0
 19 22  1  0
 22 23  1  0
 23 24  1  0
 24 25  1  0
 25 26  1  0
 26 27  1  0
 18 28  2  0
 12  7  2  0
 28 14  1  0
 27 22  1  0
  8 29  1  0
 15 30  1  0
 16 31  1  0
 17 32  1  0
 22 33  1  0
 23 34  1  0
 23 35  1  0
 24 36  1  0
 24 37  1  0
 26 38  1  0
 26 39  1  0
 27 40  1  0
 27 41  1  0
 28 42  1  0
M  CHG  2   3  -1  22   1
M  END
>  <UniqueID>  (17) 
15

>  <SMILES>  (17) 
O=C([N-]S(=O)(=O)c1cc(Cl)sc1Cl)c1cccc(S(=O)(=O)[NH+]2CCOCC2)c1

>  <Energy>  (17) 
79.12763296119338

>  <Genealogy>  (17) 
O=C([N-]S(=O)(=O)c1cc(Cl)sc1Cl)c1cccc(S(=O)(=O)[NH+]2CCOCC2)c1 (protonated)
O=C([N-]S(=O)(=O)c1cc(Cl)sc1Cl)c1cccc(S(=O)(=O)[NH+]2CCOCC2)c1 (3D coordinates assigned)
O=C([N-]S(=O)(=O)c1cc(Cl)sc1Cl)c1cccc(S(=O)(=O)[NH+]2CCOCC2)c1 (nonaromatic ring conformer: 79.12763296119338 kcal/mol)

>  <smiles>  (17) 
O=C(NS(=O)(=O)c1cc(Cl)sc1Cl)c1cccc(S(=O)(=O)N2CCOCC2)c1

>  <score_type>  (17) 
oracle

>  <origin>  (17) 
adg

>  <m_score__min__energy>  (17) 
-10.140000000000001

>  <m_primary>  (17) 
energy

$$$$
17:0
     RDKit          3D

 56 59  0  0  0  0  0  0  0  0999 V2000
   50.6350   33.1180   49.7440 H   0  0  0  0  0  0  0  0  0  0  0  0
   51.4170   32.4750   49.7910 O   0  0  0  0  0  0  0  0  0  0  0  0
   51.8560   31.9270   50.9970 C   0  0  0  0  0  0  0  0  0  0  0  0
   52.9570   31.0610   50.9940 C   0  0  0  0  0  0  0  0  0  0  0  0
   53.4697   30.8362   50.0471 H   0  0  0  0  0  0  0  0  0  0  0  0
   53.4140   30.4760   52.1880 C   0  0  0  0  0  0  0  0  0  0  0  0
   54.6000   29.5800   52.1710 C   0  0  0  0  0  0  0  0  0  0  0  0
   54.4560   28.3600   52.4500 O   0  0  0  0  0  0  0  0  0  0  0  0
   55.9040   30.0420   51.7950 N   0  0  0  0  0  0  0  0  0  0  0  0
   56.8810   30.6190   52.6760 C   0  0  0  0  0  0  0  0  0  0  0  0
   56.5000   31.0830   53.9490 C   0  0  0  0  0  0  0  0  0  0  0  0
   55.4465   31.0222   54.2596 H   0  0  0  0  0  0  0  0  0  0  0  0
   57.4480   31.6190   54.8190 C   0  0  0  0  0  0  0  0  0  0  0  0
   57.1391   31.9902   55.8073 H   0  0  0  0  0  0  0  0  0  0  0  0
   58.7860   31.6850   54.4380 C   0  0  0  0  0  0  0  0  0  0  0  0
   59.5318   32.1109   55.1253 H   0  0  0  0  0  0  0  0  0  0  0  0
   59.1830   31.2120   53.1860 C   0  0  0  0  0  0  0  0  0  0  0  0
   60.2422   31.2671   52.8945 H   0  0  0  0  0  0  0  0  0  0  0  0
   58.2420   30.6650   52.2920 C   0  0  0  0  0  0  0  0  0  0  0  0
   58.6640   30.2280   50.9780 N   0  0  0  0  0  0  0  0  0  0  0  0
   59.6260   29.1230   50.8260 C   0  0  0  0  0  0  0  0  0  0  0  0
   59.7563   28.6156   51.7932 H   0  0  0  0  0  0  0  0  0  0  0  0
   59.2452   28.4073   50.0826 H   0  0  0  0  0  0  0  0  0  0  0  0
   60.9800   29.6780   50.3530 C   0  0  0  0  0  0  0  0  0  0  0  0
   61.5571   30.0140   51.2271 H   0  0  0  0  0  0  0  0  0  0  0  0
   61.5202   28.8817   49.8200 H   0  0  0  0  0  0  0  0  0  0  0  0
   60.7890   30.8130   49.4360 N   0  0  0  0  0  0  0  0  0  0  0  0
   61.7680   31.8670   49.4110 C   0  0  0  0  0  0  0  0  0  0  0  0
   62.9970   31.5730   49.4680 O   0  0  0  0  0  0  0  0  0  0  0  0
   61.3440   33.2870   49.4210 C   0  0  0  0  0  0  0  0  0  0  0  0
   61.0546   33.7464   50.3776 H   0  0  0  0  0  0  0  0  0  0  0  0
   61.3000   34.0330   48.3070 C   0  0  0  0  0  0  0  0  0  0  0  0
   62.1574   34.6883   48.0938 H   0  0  0  0  0  0  0  0  0  0  0  0
   60.1680   34.0330   47.3400 C   0  0  0  0  0  0  0  0  0  0  0  0
   60.3430   34.2350   45.9500 C   0  0  0  0  0  0  0  0  0  0  0  0
   61.3507   34.4119   45.5459 H   0  0  0  0  0  0  0  0  0  0  0  0
   59.2420   34.2110   45.0870 C   0  0  0  0  0  0  0  0  0  0  0  0
   59.3866   34.3596   44.0067 H   0  0  0  0  0  0  0  0  0  0  0  0
   57.9570   33.9980   45.5980 C   0  0  0  0  0  0  0  0  0  0  0  0
   57.0915   33.9858   44.9192 H   0  0  0  0  0  0  0  0  0  0  0  0
   57.7710   33.8010   46.9670 C   0  0  0  0  0  0  0  0  0  0  0  0
   56.7599   33.6315   47.3657 H   0  0  0  0  0  0  0  0  0  0  0  0
   58.8680   33.8190   47.8310 C   0  0  0  0  0  0  0  0  0  0  0  0
   58.7131   33.6638   48.9089 H   0  0  0  0  0  0  0  0  0  0  0  0
   59.4960   30.9510   48.7520 C   0  0  0  0  0  0  0  0  0  0  0  0
   59.5073   31.8526   48.1220 H   0  0  0  0  0  0  0  0  0  0  0  0
   59.3159   30.0688   48.1201 H   0  0  0  0  0  0  0  0  0  0  0  0
   58.3820   31.0710   49.8000 C   0  0  0  0  0  0  0  0  0  0  0  0
   58.3025   32.1203   50.1205 H   0  0  0  0  0  0  0  0  0  0  0  0
   57.4392   30.7313   49.3464 H   0  0  0  0  0  0  0  0  0  0  0  0
   52.7640   30.7980   53.3940 C   0  0  0  0  0  0  0  0  0  0  0  0
   53.1216   30.3644   54.3396 H   0  0  0  0  0  0  0  0  0  0  0  0
   51.6670   31.6650   53.3990 C   0  0  0  0  0  0  0  0  0  0  0  0
   51.1614   31.9036   54.3463 H   0  0  0  0  0  0  0  0  0  0  0  0
   51.2110   32.2290   52.2060 C   0  0  0  0  0  0  0  0  0  0  0  0
   50.1200   33.0940   52.2270 O   0  0  0  0  0  0  0  0  0  0  0  0
  1  2  1  0
  2  3  1  0
  3  4  2  0
  4  5  1  0
  4  6  1  0
  6  7  1  0
  7  8  2  0
  7  9  1  0
  9 10  1  0
 10 11  2  0
 11 12  1  0
 11 13  1  0
 13 14  1  0
 13 15  2  0
 15 16  1  0
 15 17  1  0
 17 18  1  0
 17 19  2  0
 19 20  1  0
 20 21  1  0
 21 22  1  0
 21 23  1  0
 21 24  1  0
 24 25  1  0
 24 26  1  0
 24 27  1  0
 27 28  1  0
 28 29  2  0
 28 30  1  0
 30 31  1  0
 30 32  2  0
 32 33  1  0
 32 34  1  0
 34 35  2  0
 35 36  1  0
 35 37  1  0
 37 38  1  0
 37 39  2  0
 39 40  1  0
 39 41  1  0
 41 42  1  0
 41 43  2  0
 43 44  1  0
 27 45  1  0
 45 46  1  0
 45 47  1  0
 45 48  1  0
 48 49  1  0
 48 50  1  0
  6 51  2  0
 51 52  1  0
 51 53  1  0
 53 54  1  0
 53 55  2  0
 55 56  1  0
 55  3  1  0
 19 10  1  0
 48 20  1  0
 43 34  1  0
M  CHG  2   9  -1  56  -1
M  END
>  <UniqueID>  (18) 
16

>  <SMILES>  (18) 
O=C([N-]c1ccccc1N1CCN(C(=O)/C=C/c2ccccc2)CC1)c1ccc([O-])c(O)c1

>  <Energy>  (18) 
78.88658116580784

>  <Genealogy>  (18) 
O=C([N-]c1ccccc1N1CCN(C(=O)C=Cc2ccccc2)CC1)c1ccc([O-])c(O)c1 (protonated)
O=C([N-]c1ccccc1N1CCN(C(=O)/C=C/c2ccccc2)CC1)c1ccc([O-])c(O)c1 (cis-trans isomerization)
O=C([N-]c1ccccc1N1CCN(C(=O)/C=C/c2ccccc2)CC1)c1ccc([O-])c(O)c1 (3D coordinates assigned)
O=C([N-]c1ccccc1N1CCN(C(=O)/C=C/c2ccccc2)CC1)c1ccc([O-])c(O)c1 (nonaromatic ring conformer: 78.88658116580784 kcal/mol)

>  <smiles>  (18) 
O=C(Nc1ccccc1N1CCN(C(=O)C=Cc2ccccc2)CC1)c1ccc(O)c(O)c1

>  <score_type>  (18) 
oracle

>  <origin>  (18) 
adg

>  <m_score__min__energy>  (18) 
-14.07

>  <m_primary>  (18) 
energy

$$$$
18:0
     RDKit          3D

 34 35  0  0  0  0  0  0  0  0999 V2000
   57.3205   29.8613   42.6235 H   0  0  0  0  0  0  0  0  0  0  0  0
   57.3680   29.4740   43.6520 C   0  0  0  0  0  0  0  0  0  0  0  0
   57.7620   28.1810   43.9670 C   0  0  0  0  0  0  0  0  0  0  0  0
   58.0740   27.0760   43.0150 C   0  0  0  0  0  0  0  0  0  0  0  0
   58.3306   26.1673   43.5793 H   0  0  0  0  0  0  0  0  0  0  0  0
   57.1964   26.8788   42.3818 H   0  0  0  0  0  0  0  0  0  0  0  0
   58.9251   27.3669   42.3818 H   0  0  0  0  0  0  0  0  0  0  0  0
   57.6210   28.0560   45.6200 S   0  0  0  0  0  0  0  0  0  0  0  0
   57.1130   29.5940   45.9880 N   0  0  0  0  0  0  0  0  0  0  0  0
   57.0320   30.2460   44.7990 C   0  0  0  0  0  0  0  0  0  0  0  0
   56.6310   31.4850   44.7700 N   0  0  0  0  0  0  0  0  0  0  0  0
   57.3930   32.6740   44.5000 C   0  0  0  0  0  0  0  0  0  0  0  0
   58.0140   32.8220   43.4130 O   0  0  0  0  0  0  0  0  0  0  0  0
   57.5520   33.6940   45.5760 C   0  0  0  0  0  0  0  0  0  0  0  0
   57.2625   33.2561   46.5427 H   0  0  0  0  0  0  0  0  0  0  0  0
   56.9090   34.5599   45.3598 H   0  0  0  0  0  0  0  0  0  0  0  0
   59.2910   34.2300   45.6480 S   0  0  0  0  0  0  0  0  0  0  0  0
   59.7970   32.8270   46.6460 C   0  0  0  0  0  0  0  0  0  0  0  0
   60.8860   32.7900   47.4380 N   0  0  0  0  0  0  0  0  0  0  0  0
   61.9090   33.8220   47.6160 C   0  0  0  0  0  0  0  0  0  0  0  0
   62.2200   33.8459   48.6709 H   0  0  0  0  0  0  0  0  0  0  0  0
   61.4883   34.7955   47.3237 H   0  0  0  0  0  0  0  0  0  0  0  0
   63.1210   33.5250   46.7420 C   0  0  0  0  0  0  0  0  0  0  0  0
   63.9906   33.3119   47.3811 H   0  0  0  0  0  0  0  0  0  0  0  0
   62.9100   32.6520   46.1069 H   0  0  0  0  0  0  0  0  0  0  0  0
   63.3375   34.3967   46.1069 H   0  0  0  0  0  0  0  0  0  0  0  0
   60.8580   31.5360   47.9440 C   0  0  0  0  0  0  0  0  0  0  0  0
   61.8700   30.9730   48.8900 C   0  0  0  0  0  0  0  0  0  0  0  0
   61.5448   31.1539   49.9251 H   0  0  0  0  0  0  0  0  0  0  0  0
   61.9682   29.8906   48.7204 H   0  0  0  0  0  0  0  0  0  0  0  0
   62.8415   31.4603   48.7204 H   0  0  0  0  0  0  0  0  0  0  0  0
   59.7880   30.8440   47.4990 N   0  0  0  0  0  0  0  0  0  0  0  0
   59.1340   31.6600   46.6880 N   0  0  0  0  0  0  0  0  0  0  0  0
   58.2580   31.4140   46.1750 H   0  0  0  0  0  0  0  0  0  0  0  0
  1  2  1  0
  2  3  2  0
  3  4  1  0
  4  5  1  0
  4  6  1  0
  4  7  1  0
  3  8  1  0
  8  9  1  0
  9 10  1  0
 10 11  2  0
 11 12  1  0
 12 13  2  0
 12 14  1  0
 14 15  1  0
 14 16  1  0
 14 17  1  0
 17 18  1  0
 18 19  1  0
 19 20  1  0
 20 21  1  0
 20 22  1  0
 20 23  1  0
 23 24  1  0
 23 25  1  0
 23 26  1  0
 19 27  1  0
 27 28  1  0
 28 29  1  0
 28 30  1  0
 28 31  1  0
 27 32  2  0
 32 33  1  0
 33 34  1  0
 10  2  1  0
 33 18  2  0
M  CHG  2   9  -1  33   1
M  END
>  <UniqueID>  (19) 
17

>  <SMILES>  (19) 
CCn1c(C)n[nH+]c1SCC(=O)/N=c1\cc(C)s[n-]1

>  <Energy>  (19) 
94.94646653656025

>  <Genealogy>  (19) 
CCn1c(C)n[nH+]c1SCC(=O)N=c1cc(C)s[n-]1 (protonated)
CCn1c(C)n[nH+]c1SCC(=O)/N=c1\cc(C)s[n-]1 (cis-trans isomerization)
CCn1c(C)n[nH+]c1SCC(=O)/N=c1\cc(C)s[n-]1 (3D coordinates assigned)
CCn1c(C)n[nH+]c1SCC(=O)/N=c1\cc(C)s[n-]1 (optimized conformer: 94.94646653656025 kcal/mol)

>  <smiles>  (19) 
CCn1c(C)nnc1SCC(=O)N=c1cc(C)s[nH]1

>  <score_type>  (19) 
oracle

>  <origin>  (19) 
adg

>  <m_score__min__energy>  (19) 
-7.5999999999999996

>  <m_primary>  (19) 
energy

$$$$
19:0
     RDKit          3D

 54 57  0  0  0  0  0  0  0  0999 V2000
   62.1870   25.2350   51.7000 O   0  0  0  0  0  0  0  0  0  0  0  0
   62.6010   25.7670   52.7640 C   0  0  0  0  0  0  0  0  0  0  0  0
   63.0970   24.9280   53.8120 N   0  0  0  0  0  0  0  0  0  0  0  0
   64.1740   25.0900   54.5330 C   0  0  0  0  0  0  0  0  0  0  0  0
   65.1070   24.0980   54.5080 N   0  0  0  0  0  0  0  0  0  0  0  0
   66.2590   24.1580   55.2270 C   0  0  0  0  0  0  0  0  0  0  0  0
   66.5260   25.2670   56.0250 C   0  0  0  0  0  0  0  0  0  0  0  0
   65.6100   26.3170   56.0610 C   0  0  0  0  0  0  0  0  0  0  0  0
   64.4350   26.2520   55.3070 C   0  0  0  0  0  0  0  0  0  0  0  0
   63.5860   27.3520   55.3080 O   0  0  0  0  0  0  0  0  0  0  0  0
   62.5240   27.1910   52.9540 N   0  0  0  0  0  0  0  0  0  0  0  0
   62.0060   28.1090   51.9760 C   0  0  0  0  0  0  0  0  0  0  0  0
   62.6180   29.3500   51.7380 C   0  0  0  0  0  0  0  0  0  0  0  0
   62.1080   30.2170   50.7680 C   0  0  0  0  0  0  0  0  0  0  0  0
   60.9870   29.8520   50.0000 C   0  0  0  0  0  0  0  0  0  0  0  0
   60.4350   30.7840   48.9780 C   0  0  0  0  0  0  0  0  0  0  0  0
   60.9770   30.8430   47.7460 C   0  0  0  0  0  0  0  0  0  0  0  0
   60.3820   31.6820   46.6480 C   0  0  0  0  0  0  0  0  0  0  0  0
   59.6030   32.8090   47.1900 N   0  0  0  0  0  0  0  0  0  0  0  0
   58.8130   33.6690   45.8920 S   0  0  0  0  0  0  0  0  0  0  0  0
   59.8110   34.5490   45.1930 O   0  0  0  0  0  0  0  0  0  0  0  0
   57.7380   34.5510   46.4640 O   0  0  0  0  0  0  0  0  0  0  0  0
   58.0920   32.5600   44.7220 C   0  0  0  0  0  0  0  0  0  0  0  0
   58.2320   32.8000   43.3490 C   0  0  0  0  0  0  0  0  0  0  0  0
   57.6530   31.9310   42.4230 C   0  0  0  0  0  0  0  0  0  0  0  0
   56.9320   30.8170   42.8600 C   0  0  0  0  0  0  0  0  0  0  0  0
   56.7810   30.5620   44.2350 C   0  0  0  0  0  0  0  0  0  0  0  0
   56.0150   29.3860   44.7050 C   0  0  0  0  0  0  0  0  0  0  0  0
   54.7740   29.3050   44.4960 O   0  0  0  0  0  0  0  0  0  0  0  0
   56.6530   28.3550   45.3840 O   0  0  0  0  0  0  0  0  0  0  0  0
   57.3690   31.4420   45.1610 C   0  0  0  0  0  0  0  0  0  0  0  0
   58.6060   32.3130   48.1490 C   0  0  0  0  0  0  0  0  0  0  0  0
   59.3280   31.7400   49.3690 C   0  0  0  0  0  0  0  0  0  0  0  0
   60.3870   28.6000   50.2320 C   0  0  0  0  0  0  0  0  0  0  0  0
   60.9000   27.7350   51.2030 C   0  0  0  0  0  0  0  0  0  0  0  0
   66.9809   23.3295   55.1783 H   0  0  0  0  0  0  0  0  0  0  0  0
   67.4496   25.3141   56.6206 H   0  0  0  0  0  0  0  0  0  0  0  0
   65.8126   27.1999   56.6850 H   0  0  0  0  0  0  0  0  0  0  0  0
   62.9610   27.5910   53.8140 H   0  0  0  0  0  0  0  0  0  0  0  0
   63.5052   29.6418   52.3192 H   0  0  0  0  0  0  0  0  0  0  0  0
   62.5871   31.1934   50.6034 H   0  0  0  0  0  0  0  0  0  0  0  0
   61.8847   30.2583   47.5359 H   0  0  0  0  0  0  0  0  0  0  0  0
   61.1944   32.0781   46.0209 H   0  0  0  0  0  0  0  0  0  0  0  0
   59.7048   31.0472   46.0577 H   0  0  0  0  0  0  0  0  0  0  0  0
   58.7995   33.6753   42.9999 H   0  0  0  0  0  0  0  0  0  0  0  0
   57.7647   32.1238   41.3458 H   0  0  0  0  0  0  0  0  0  0  0  0
   56.4798   30.1354   42.1245 H   0  0  0  0  0  0  0  0  0  0  0  0
   57.2607   31.2515   46.2390 H   0  0  0  0  0  0  0  0  0  0  0  0
   57.9527   33.1406   48.4625 H   0  0  0  0  0  0  0  0  0  0  0  0
   57.9956   31.5289   47.6772 H   0  0  0  0  0  0  0  0  0  0  0  0
   59.7629   32.5695   49.9459 H   0  0  0  0  0  0  0  0  0  0  0  0
   58.5927   31.1811   49.9665 H   0  0  0  0  0  0  0  0  0  0  0  0
   59.5070   28.2997   49.6443 H   0  0  0  0  0  0  0  0  0  0  0  0
   60.4310   26.7526   51.3611 H   0  0  0  0  0  0  0  0  0  0  0  0
  1  2  2  0
  2  3  1  0
  3  4  2  3
  4  5  1  0
  5  6  1  0
  6  7  2  0
  7  8  1  0
  8  9  2  0
  9 10  1  0
  2 11  1  0
 11 12  1  0
 12 13  2  0
 13 14  1  0
 14 15  2  0
 15 16  1  0
 16 17  2  0
 17 18  1  0
 18 19  1  0
 19 20  1  0
 20 21  2  0
 20 22  2  0
 20 23  1  0
 23 24  2  0
 24 25  1  0
 25 26  2  0
 26 27  1  0
 27 28  1  0
 28 29  2  0
 28 30  1  0
 27 31  2  0
 19 32  1  0
 32 33  1  0
 15 34  1  0
 34 35  2  0
  9  4  1  0
 35 12  1  0
 33 16  1  0
 31 23  1  0
  6 36  1  0
  7 37  1  0
  8 38  1  0
 11 39  1  0
 13 40  1  0
 14 41  1  0
 17 42  1  0
 18 43  1  0
 18 44  1  0
 24 45  1  0
 25 46  1  0
 26 47  1  0
 31 48  1  0
 32 49  1  0
 32 50  1  0
 33 51  1  0
 33 52  1  0
 34 53  1  0
 35 54  1  0
M  CHG  3   5  -1  10  -1  30  -1
M  END
>  <UniqueID>  (20) 
18

>  <SMILES>  (20) 
O=C(N=c1[n-]cccc1[O-])Nc1ccc(C2=CCN(S(=O)(=O)c3cccc(C(=O)[O-])c3)CC2)cc1

>  <Energy>  (20) 
79.62044028152214

>  <Genealogy>  (20) 
O=C(N=c1[n-]cccc1[O-])Nc1ccc(C2=CCN(S(=O)(=O)c3cccc(C(=O)[O-])c3)CC2)cc1 (protonated)
O=C(N=c1[n-]cccc1[O-])Nc1ccc(C2=CCN(S(=O)(=O)c3cccc(C(=O)[O-])c3)CC2)cc1 (3D coordinates assigned)
O=C(N=c1[n-]cccc1[O-])Nc1ccc(C2=CCN(S(=O)(=O)c3cccc(C(=O)[O-])c3)CC2)cc1 (nonaromatic ring conformer: 79.62044028152214 kcal/mol)

>  <smiles>  (20) 
O=C(N=c1[nH]cccc1O)Nc1ccc(C2=CCN(S(=O)(=O)c3cccc(C(=O)O)c3)CC2)cc1

>  <score_type>  (20) 
oracle

>  <origin>  (20) 
adg

>  <m_score__min__energy>  (20) 
-14.44

>  <m_primary>  (20) 
energy

$$$$
20:0
     RDKit          3D

 52 56  0  0  0  0  0  0  0  0999 V2000
   60.4660   33.5990   50.3460 O   0  0  0  0  0  0  0  0  0  0  0  0
   60.0620   33.3760   51.5160 C   0  0  0  0  0  0  0  0  0  0  0  0
   58.7760   33.8740   51.8910 N   0  0  0  0  0  0  0  0  0  0  0  0
   58.5530   34.7850   53.0010 C   0  0  0  0  0  0  0  0  0  0  0  0
   58.8960   34.1090   54.2900 C   0  0  0  0  0  0  0  0  0  0  0  0
   60.1080   33.7490   54.5830 N   0  0  0  0  0  0  0  0  0  0  0  0
   60.9050   32.8110   53.8470 C   0  0  0  0  0  0  0  0  0  0  0  0
   61.9260   31.7100   54.5900 S   0  0  0  0  0  0  0  0  0  0  0  0
   62.4340   30.9580   53.1820 C   0  0  0  0  0  0  0  0  0  0  0  0
   61.7790   31.5360   52.0950 C   0  0  0  0  0  0  0  0  0  0  0  0
   62.0610   31.0740   50.7190 C   0  0  0  0  0  0  0  0  0  0  0  0
   62.7950   31.7630   49.9620 O   0  0  0  0  0  0  0  0  0  0  0  0
   61.4200   29.8430   50.1890 C   0  0  0  0  0  0  0  0  0  0  0  0
   61.6820   28.6070   50.8150 C   0  0  0  0  0  0  0  0  0  0  0  0
   62.5330   28.5450   51.9150 O   0  0  0  0  0  0  0  0  0  0  0  0
   61.1030   27.4290   50.3270 C   0  0  0  0  0  0  0  0  0  0  0  0
   61.3440   26.2030   50.9500 O   0  0  0  0  0  0  0  0  0  0  0  0
   60.2730   27.4670   49.2060 C   0  0  0  0  0  0  0  0  0  0  0  0
   59.6820   26.2850   48.7660 O   0  0  0  0  0  0  0  0  0  0  0  0
   60.0180   28.6820   48.5430 C   0  0  0  0  0  0  0  0  0  0  0  0
   59.1300   28.6870   47.3510 C   0  0  0  0  0  0  0  0  0  0  0  0
   58.3110   27.7440   47.1910 O   0  0  0  0  0  0  0  0  0  0  0  0
   59.2210   29.6950   46.3320 N   0  0  0  0  0  0  0  0  0  0  0  0
   58.2530   30.0000   45.3160 C   0  0  0  0  0  0  0  0  0  0  0  0
   58.5130   30.9270   44.2900 C   0  0  0  0  0  0  0  0  0  0  0  0
   57.5360   31.2040   43.3290 C   0  0  0  0  0  0  0  0  0  0  0  0
   56.2910   30.5740   43.3920 C   0  0  0  0  0  0  0  0  0  0  0  0
   56.0170   29.6700   44.4230 C   0  0  0  0  0  0  0  0  0  0  0  0
   54.7750   29.0510   44.4920 O   0  0  0  0  0  0  0  0  0  0  0  0
   56.9930   29.3900   45.3850 C   0  0  0  0  0  0  0  0  0  0  0  0
   60.5780   29.8850   49.0470 C   0  0  0  0  0  0  0  0  0  0  0  0
   60.2630   31.1850   48.4050 C   0  0  0  0  0  0  0  0  0  0  0  0
   61.2150   31.8140   47.5870 C   0  0  0  0  0  0  0  0  0  0  0  0
   60.9200   33.0360   46.9760 C   0  0  0  0  0  0  0  0  0  0  0  0
   59.6750   33.6390   47.1800 C   0  0  0  0  0  0  0  0  0  0  0  0
   58.7230   33.0190   47.9950 C   0  0  0  0  0  0  0  0  0  0  0  0
   59.0130   31.7960   48.6050 C   0  0  0  0  0  0  0  0  0  0  0  0
   60.9010   32.5930   52.4600 C   0  0  0  0  0  0  0  0  0  0  0  0
   59.1872   35.6750   52.8757 H   0  0  0  0  0  0  0  0  0  0  0  0
   57.4942   35.0828   53.0184 H   0  0  0  0  0  0  0  0  0  0  0  0
   58.0931   33.9099   55.0151 H   0  0  0  0  0  0  0  0  0  0  0  0
   63.1667   30.1396   53.1241 H   0  0  0  0  0  0  0  0  0  0  0  0
   61.9460   26.1170   51.7600 H   0  0  0  0  0  0  0  0  0  0  0  0
   59.4875   31.4351   44.2438 H   0  0  0  0  0  0  0  0  0  0  0  0
   57.7484   31.9199   42.5213 H   0  0  0  0  0  0  0  0  0  0  0  0
   55.5264   30.7889   42.6309 H   0  0  0  0  0  0  0  0  0  0  0  0
   56.7703   28.6866   46.2009 H   0  0  0  0  0  0  0  0  0  0  0  0
   62.1963   31.3436   47.4264 H   0  0  0  0  0  0  0  0  0  0  0  0
   61.6681   33.5239   46.3339 H   0  0  0  0  0  0  0  0  0  0  0  0
   59.4446   34.6012   46.6993 H   0  0  0  0  0  0  0  0  0  0  0  0
   57.7444   33.4948   48.1561 H   0  0  0  0  0  0  0  0  0  0  0  0
   58.2609   31.3098   49.2437 H   0  0  0  0  0  0  0  0  0  0  0  0
  1  2  2  0
  2  3  1  0
  3  4  1  0
  4  5  1  0
  5  6  2  0
  6  7  1  0
  7  8  1  0
  8  9  1  0
  9 10  2  0
 10 11  1  0
 11 12  2  0
 11 13  1  0
 13 14  2  0
 14 15  1  0
 14 16  1  0
 16 17  1  0
 16 18  2  0
 18 19  1  0
 18 20  1  0
 20 21  1  0
 21 22  2  0
 21 23  1  0
 23 24  1  0
 24 25  2  0
 25 26  1  0
 26 27  2  0
 27 28  1  0
 28 29  1  0
 28 30  2  0
 20 31  2  0
 31 32  1  0
 32 33  2  0
 33 34  1  0
 34 35  2  0
 35 36  1  0
 36 37  2  0
 10 38  1  0
 38  2  1  0
 38  7  2  0
 31 13  1  0
 37 32  1  0
 30 24  1  0
  4 39  1  0
  4 40  1  0
  5 41  1  0
  9 42  1  0
 17 43  1  0
 25 44  1  0
 26 45  1  0
 27 46  1  0
 30 47  1  0
 33 48  1  0
 34 49  1  0
 35 50  1  0
 36 51  1  0
 37 52  1  0
M  CHG  5   3  -1  15  -1  19  -1  23  -1  29  -1
M  END
>  <UniqueID>  (21) 
19

>  <SMILES>  (21) 
O=C1[N-]CC=Nc2scc(C(=O)c3c([O-])c(O)c([O-])c(C(=O)[N-]c4cccc([O-])c4)c3-c3ccccc3)c21

>  <Energy>  (21) 
122.01362416931555

>  <Genealogy>  (21) 
O=C1[N-]CC=Nc2scc(C(=O)c3c([O-])c(O)c([O-])c(C(=O)[N-]c4cccc([O-])c4)c3-c3ccccc3)c21 (protonated)
O=C1[N-]CC=Nc2scc(C(=O)c3c([O-])c(O)c([O-])c(C(=O)[N-]c4cccc([O-])c4)c3-c3ccccc3)c21 (3D coordinates assigned)
O=C1[N-]CC=Nc2scc(C(=O)c3c([O-])c(O)c([O-])c(C(=O)[N-]c4cccc([O-])c4)c3-c3ccccc3)c21 (nonaromatic ring conformer: 122.01362416931555 kcal/mol)

>  <smiles>  (21) 
O=C1NCC=Nc2scc(C(=O)c3c(O)c(O)c(O)c(C(=O)Nc4cccc(O)c4)c3-c3ccccc3)c21

>  <score_type>  (21) 
oracle

>  <origin>  (21) 
adg

>  <m_score__min__energy>  (21) 
-14.02

>  <m_primary>  (21) 
energy

$$$$
21:0
     RDKit          3D

 56 58  0  0  0  0  0  0  0  0999 V2000
   59.3090   33.8440   52.2990 C   0  0  0  0  0  0  0  0  0  0  0  0
   60.0810   33.9660   51.1080 O   0  0  0  0  0  0  0  0  0  0  0  0
   59.6740   33.5050   49.8460 C   0  0  0  0  0  0  0  0  0  0  0  0
   59.6450   34.4150   48.7880 C   0  0  0  0  0  0  0  0  0  0  0  0
   59.2520   34.0070   47.5120 C   0  0  0  0  0  0  0  0  0  0  0  0
   58.8650   32.6780   47.2740 C   0  0  0  0  0  0  0  0  0  0  0  0
   58.4970   32.2420   45.9520 N   0  0  0  0  0  0  0  0  0  0  0  0
   58.0010   33.1180   44.9260 C   0  0  0  0  0  0  0  0  0  0  0  0
   57.6600   34.3010   45.1970 O   0  0  0  0  0  0  0  0  0  0  0  0
   57.8210   32.6130   43.5250 C   0  0  0  0  0  0  0  0  0  0  0  0
   57.9250   31.1920   43.4920 O   0  0  0  0  0  0  0  0  0  0  0  0
   57.1320   30.3390   44.2720 C   0  0  0  0  0  0  0  0  0  0  0  0
   55.9220   30.6280   44.4850 O   0  0  0  0  0  0  0  0  0  0  0  0
   57.7130   29.1020   44.8500 C   0  0  0  0  0  0  0  0  0  0  0  0
   56.8820   27.9990   45.1330 C   0  0  0  0  0  0  0  0  0  0  0  0
   57.4160   26.8240   45.6830 C   0  0  0  0  0  0  0  0  0  0  0  0
   56.3860   25.4370   46.0280 S   0  0  0  0  0  0  0  0  0  0  0  0
   56.4170   25.1790   47.5090 O   0  0  0  0  0  0  0  0  0  0  0  0
   54.9690   25.7340   45.6200 O   0  0  0  0  0  0  0  0  0  0  0  0
   56.9960   24.0470   45.1570 N   0  0  0  0  0  0  0  0  0  0  0  0
   56.7600   24.1600   43.7010 C   0  0  0  0  0  0  0  0  0  0  0  0
   55.5400   23.3480   43.2300 C   0  0  0  0  0  0  0  0  0  0  0  0
   54.5530   23.3220   44.2360 O   0  0  0  0  0  0  0  0  0  0  0  0
   54.9940   22.5440   45.3350 C   0  0  0  0  0  0  0  0  0  0  0  0
   56.4750   22.7860   45.7130 C   0  0  0  0  0  0  0  0  0  0  0  0
   58.7860   26.7430   45.9470 C   0  0  0  0  0  0  0  0  0  0  0  0
   59.6200   27.8270   45.6700 C   0  0  0  0  0  0  0  0  0  0  0  0
   59.0930   29.0020   45.1250 C   0  0  0  0  0  0  0  0  0  0  0  0
   59.9390   30.0320   44.8720 F   0  0  0  0  0  0  0  0  0  0  0  0
   58.9050   31.7460   48.3290 C   0  0  0  0  0  0  0  0  0  0  0  0
   58.5350   30.4160   48.0680 O   0  0  0  0  0  0  0  0  0  0  0  0
   59.0890   29.2760   48.7190 C   0  0  0  0  0  0  0  0  0  0  0  0
   59.3040   32.1670   49.6140 C   0  0  0  0  0  0  0  0  0  0  0  0
   59.9667   33.9479   53.1746 H   0  0  0  0  0  0  0  0  0  0  0  0
   58.5419   34.6321   52.3211 H   0  0  0  0  0  0  0  0  0  0  0  0
   58.8223   32.8578   52.3211 H   0  0  0  0  0  0  0  0  0  0  0  0
   59.9341   35.4621   48.9610 H   0  0  0  0  0  0  0  0  0  0  0  0
   59.2454   34.7329   46.6856 H   0  0  0  0  0  0  0  0  0  0  0  0
   58.5340   31.2180   45.7420 H   0  0  0  0  0  0  0  0  0  0  0  0
   56.8288   32.9125   43.1564 H   0  0  0  0  0  0  0  0  0  0  0  0
   58.6069   33.0432   42.8868 H   0  0  0  0  0  0  0  0  0  0  0  0
   55.8044   28.0602   44.9205 H   0  0  0  0  0  0  0  0  0  0  0  0
   56.5946   25.2188   43.4528 H   0  0  0  0  0  0  0  0  0  0  0  0
   57.6454   23.7546   43.1894 H   0  0  0  0  0  0  0  0  0  0  0  0
   55.1229   23.8119   42.3240 H   0  0  0  0  0  0  0  0  0  0  0  0
   55.8576   22.3175   43.0129 H   0  0  0  0  0  0  0  0  0  0  0  0
   54.3687   22.7879   46.2065 H   0  0  0  0  0  0  0  0  0  0  0  0
   54.9060   21.4885   45.0380 H   0  0  0  0  0  0  0  0  0  0  0  0
   56.5588   22.8216   46.8092 H   0  0  0  0  0  0  0  0  0  0  0  0
   57.0687   21.9618   45.2908 H   0  0  0  0  0  0  0  0  0  0  0  0
   59.2083   25.8217   46.3746 H   0  0  0  0  0  0  0  0  0  0  0  0
   60.6972   27.7568   45.8814 H   0  0  0  0  0  0  0  0  0  0  0  0
   59.0245   29.4088   49.8090 H   0  0  0  0  0  0  0  0  0  0  0  0
   58.5273   28.3770   48.4253 H   0  0  0  0  0  0  0  0  0  0  0  0
   60.1429   29.1621   48.4253 H   0  0  0  0  0  0  0  0  0  0  0  0
   59.3263   31.4436   50.4424 H   0  0  0  0  0  0  0  0  0  0  0  0
  1  2  1  0
  2  3  1  0
  3  4  2  0
  4  5  1  0
  5  6  2  0
  6  7  1  0
  7  8  1  0
  8  9  2  0
  8 10  1  0
 10 11  1  0
 11 12  1  0
 12 13  2  0
 12 14  1  0
 14 15  2  0
 15 16  1  0
 16 17  1  0
 17 18  2  0
 17 19  2  0
 17 20  1  0
 20 21  1  0
 21 22  1  0
 22 23  1  0
 23 24  1  0
 24 25  1  0
 16 26  2  0
 26 27  1  0
 27 28  2  0
 28 29  1  0
  6 30  1  0
 30 31  1  0
 31 32  1  0
 30 33  2  0
 33  3  1  0
 28 14  1  0
 25 20  1  0
  1 34  1  0
  1 35  1  0
  1 36  1  0
  4 37  1  0
  5 38  1  0
  7 39  1  0
 10 40  1  0
 10 41  1  0
 15 42  1  0
 21 43  1  0
 21 44  1  0
 22 45  1  0
 22 46  1  0
 24 47  1  0
 24 48  1  0
 25 49  1  0
 25 50  1  0
 26 51  1  0
 27 52  1  0
 32 53  1  0
 32 54  1  0
 32 55  1  0
 33 56  1  0
M  END
>  <UniqueID>  (22) 
20

>  <SMILES>  (22) 
COc1ccc(NC(=O)COC(=O)c2cc(S(=O)(=O)N3CCOCC3)ccc2F)c(OC)c1

>  <Energy>  (22) 
69.78896012799363

>  <Genealogy>  (22) 
COc1ccc(NC(=O)COC(=O)c2cc(S(=O)(=O)N3CCOCC3)ccc2F)c(OC)c1 (3D coordinates assigned)
COc1ccc(NC(=O)COC(=O)c2cc(S(=O)(=O)N3CCOCC3)ccc2F)c(OC)c1 (nonaromatic ring conformer: 69.78896012799363 kcal/mol)

>  <smiles>  (22) 
COc1ccc(NC(=O)COC(=O)c2cc(S(=O)(=O)N3CCOCC3)ccc2F)c(OC)c1

>  <score_type>  (22) 
oracle

>  <origin>  (22) 
adg

>  <m_score__min__energy>  (22) 
-8.3300000000000001

>  <m_primary>  (22) 
energy

$$$$
22:0
     RDKit          3D

 52 55  0  0  0  0  0  0  0  0999 V2000
   60.7620   26.6890   46.5920 C   0  0  0  0  0  0  0  0  0  0  0  0
   59.7270   27.6060   46.0120 C   0  0  0  0  0  0  0  0  0  0  0  0
   58.3650   27.2670   46.0680 C   0  0  0  0  0  0  0  0  0  0  0  0
   57.4000   28.1390   45.5580 C   0  0  0  0  0  0  0  0  0  0  0  0
   57.7840   29.3650   44.9950 C   0  0  0  0  0  0  0  0  0  0  0  0
   56.5690   30.4810   44.3740 S   0  0  0  0  0  0  0  0  0  0  0  0
   55.1950   29.8860   44.5220 O   0  0  0  0  0  0  0  0  0  0  0  0
   56.8260   30.7240   42.9120 O   0  0  0  0  0  0  0  0  0  0  0  0
   56.6520   31.9930   45.2250 N   0  0  0  0  0  0  0  0  0  0  0  0
   57.4510   32.9490   44.4610 C   0  0  0  0  0  0  0  0  0  0  0  0
   57.6670   34.2240   45.2770 C   0  0  0  0  0  0  0  0  0  0  0  0
   58.9040   34.1280   46.1330 C   0  0  0  0  0  0  0  0  0  0  0  0
   58.8900   34.5950   47.4570 C   0  0  0  0  0  0  0  0  0  0  0  0
   60.0300   34.4800   48.2560 C   0  0  0  0  0  0  0  0  0  0  0  0
   61.1920   33.8870   47.7480 C   0  0  0  0  0  0  0  0  0  0  0  0
   62.6250   33.7740   48.7620 S   0  0  0  0  0  0  0  0  0  0  0  0
   62.6550   34.8900   49.7680 O   0  0  0  0  0  0  0  0  0  0  0  0
   63.8520   33.8830   47.9000 O   0  0  0  0  0  0  0  0  0  0  0  0
   62.6110   32.2490   49.5900 N   0  0  0  0  0  0  0  0  0  0  0  0
   63.5780   31.7220   50.3810 C   0  0  0  0  0  0  0  0  0  0  0  0
   64.6510   32.3160   50.6630 O   0  0  0  0  0  0  0  0  0  0  0  0
   63.2840   30.4770   50.8290 N   0  0  0  0  0  0  0  0  0  0  0  0
   62.0840   30.2160   50.2790 C   0  0  0  0  0  0  0  0  0  0  0  0
   61.3210   29.0570   50.3910 C   0  0  0  0  0  0  0  0  0  0  0  0
   60.0990   29.0100   49.6930 C   0  0  0  0  0  0  0  0  0  0  0  0
   59.6790   30.1090   48.9070 C   0  0  0  0  0  0  0  0  0  0  0  0
   60.4740   31.2670   48.8160 C   0  0  0  0  0  0  0  0  0  0  0  0
   61.6750   31.2840   49.5270 C   0  0  0  0  0  0  0  0  0  0  0  0
   61.2070   33.4130   46.4300 C   0  0  0  0  0  0  0  0  0  0  0  0
   60.0680   33.5300   45.6280 C   0  0  0  0  0  0  0  0  0  0  0  0
   59.1390   29.7160   44.9600 C   0  0  0  0  0  0  0  0  0  0  0  0
   60.1060   28.8430   45.4680 C   0  0  0  0  0  0  0  0  0  0  0  0
   60.7148   26.7308   47.6902 H   0  0  0  0  0  0  0  0  0  0  0  0
   60.5696   25.6595   46.2556 H   0  0  0  0  0  0  0  0  0  0  0  0
   61.7608   27.0040   46.2556 H   0  0  0  0  0  0  0  0  0  0  0  0
   58.0568   26.3105   46.5155 H   0  0  0  0  0  0  0  0  0  0  0  0
   56.3359   27.8633   45.5981 H   0  0  0  0  0  0  0  0  0  0  0  0
   58.4265   32.4997   44.2230 H   0  0  0  0  0  0  0  0  0  0  0  0
   56.9188   33.2019   43.5321 H   0  0  0  0  0  0  0  0  0  0  0  0
   57.7736   35.0754   44.5887 H   0  0  0  0  0  0  0  0  0  0  0  0
   56.7990   34.3621   45.9384 H   0  0  0  0  0  0  0  0  0  0  0  0
   57.9778   35.0532   47.8667 H   0  0  0  0  0  0  0  0  0  0  0  0
   60.0146   34.8571   49.2892 H   0  0  0  0  0  0  0  0  0  0  0  0
   63.8620   29.8590   51.4410 H   0  0  0  0  0  0  0  0  0  0  0  0
   61.6606   28.2083   51.0029 H   0  0  0  0  0  0  0  0  0  0  0  0
   59.4664   28.1125   49.7593 H   0  0  0  0  0  0  0  0  0  0  0  0
   58.7242   30.0581   48.3631 H   0  0  0  0  0  0  0  0  0  0  0  0
   60.1602   32.1274   48.2067 H   0  0  0  0  0  0  0  0  0  0  0  0
   62.1176   32.9474   46.0249 H   0  0  0  0  0  0  0  0  0  0  0  0
   60.0847   33.1511   44.5954 H   0  0  0  0  0  0  0  0  0  0  0  0
   59.4439   30.6820   44.5313 H   0  0  0  0  0  0  0  0  0  0  0  0
   61.1684   29.1270   45.4411 H   0  0  0  0  0  0  0  0  0  0  0  0
  1  2  1  0
  2  3  2  0
  3  4  1  0
  4  5  2  0
  5  6  1  0
  6  7  2  0
  6  8  2  0
  6  9  1  0
  9 10  1  0
 10 11  1  0
 11 12  1  0
 12 13  2  0
 13 14  1  0
 14 15  2  0
 15 16  1  0
 16 17  2  0
 16 18  2  0
 16 19  1  0
 19 20  1  0
 20 21  2  0
 20 22  1  0
 22 23  1  0
 23 24  2  0
 24 25  1  0
 25 26  2  0
 26 27  1  0
 27 28  2  0
 15 29  1  0
 29 30  2  0
  5 31  1  0
 31 32  2  0
 32  2  1  0
 30 12  1  0
 28 19  1  0
 28 23  1  0
  1 33  1  0
  1 34  1  0
  1 35  1  0
  3 36  1  0
  4 37  1  0
 10 38  1  0
 10 39  1  0
 11 40  1  0
 11 41  1  0
 13 42  1  0
 14 43  1  0
 22 44  1  0
 24 45  1  0
 25 46  1  0
 26 47  1  0
 27 48  1  0
 29 49  1  0
 30 50  1  0
 31 51  1  0
 32 52  1  0
M  CHG  1   9  -1
M  END
>  <UniqueID>  (23) 
21

>  <SMILES>  (23) 
Cc1ccc(S(=O)(=O)[N-]CCc2ccc(S(=O)(=O)n3c(=O)[nH]c4ccccc43)cc2)cc1

>  <Energy>  (23) 
93.49948082439879

>  <Genealogy>  (23) 
Cc1ccc(S(=O)(=O)[N-]CCc2ccc(S(=O)(=O)n3c(=O)[nH]c4ccccc43)cc2)cc1 (protonated)
Cc1ccc(S(=O)(=O)[N-]CCc2ccc(S(=O)(=O)n3c(=O)[nH]c4ccccc43)cc2)cc1 (3D coordinates assigned)
Cc1ccc(S(=O)(=O)[N-]CCc2ccc(S(=O)(=O)n3c(=O)[nH]c4ccccc43)cc2)cc1 (optimized conformer: 93.49948082439879 kcal/mol)

>  <smiles>  (23) 
Cc1ccc(S(=O)(=O)NCCc2ccc(S(=O)(=O)n3c(=O)[nH]c4ccccc43)cc2)cc1

>  <score_type>  (23) 
oracle

>  <origin>  (23) 
adg

>  <m_score__min__energy>  (23) 
-11.65

>  <m_primary>  (23) 
energy

$$$$
23:0
     RDKit          3D

 34 35  0  0  0  0  0  0  0  0999 V2000
   56.6460   20.9260   43.1050 C   0  0  0  0  0  0  0  0  0  0  0  0
   57.0110   22.2380   43.7120 C   0  0  0  0  0  0  0  0  0  0  0  0
   56.6480   23.4880   43.2230 C   0  0  0  0  0  0  0  0  0  0  0  0
   57.2030   24.5470   43.9490 C   0  0  0  0  0  0  0  0  0  0  0  0
   58.0150   24.1270   44.9980 C   0  0  0  0  0  0  0  0  0  0  0  0
   58.7510   24.9950   45.9230 C   0  0  0  0  0  0  0  0  0  0  0  0
   60.0090   24.9310   45.9870 O   0  0  0  0  0  0  0  0  0  0  0  0
   58.0430   25.8860   46.7340 O   0  0  0  0  0  0  0  0  0  0  0  0
   56.6890   25.6720   47.1170 C   0  0  0  0  0  0  0  0  0  0  0  0
   55.7870   26.3390   46.1250 C   0  0  0  0  0  0  0  0  0  0  0  0
   54.7400   25.7500   45.7490 O   0  0  0  0  0  0  0  0  0  0  0  0
   56.0640   27.6500   45.6200 N   0  0  0  0  0  0  0  0  0  0  0  0
   57.3150   28.0300   44.9720 C   0  0  0  0  0  0  0  0  0  0  0  0
   57.5700   29.4970   45.2000 C   0  0  0  0  0  0  0  0  0  0  0  0
   58.2840   29.9180   46.3390 C   0  0  0  0  0  0  0  0  0  0  0  0
   58.7320   29.0160   47.2500 F   0  0  0  0  0  0  0  0  0  0  0  0
   58.5480   31.2750   46.5450 C   0  0  0  0  0  0  0  0  0  0  0  0
   58.1150   32.2240   45.6180 C   0  0  0  0  0  0  0  0  0  0  0  0
   57.4240   31.8190   44.4760 C   0  0  0  0  0  0  0  0  0  0  0  0
   57.1540   30.4630   44.2550 C   0  0  0  0  0  0  0  0  0  0  0  0
   56.3030   30.0120   42.7790 Cl  0  0  0  0  0  0  0  0  0  0  0  0
   58.0480   22.4440   45.0200 S   0  0  0  0  0  0  0  0  0  0  0  0
   56.4431   20.1966   43.9030 H   0  0  0  0  0  0  0  0  0  0  0  0
   55.7475   21.0475   42.4821 H   0  0  0  0  0  0  0  0  0  0  0  0
   57.4781   20.5660   42.4821 H   0  0  0  0  0  0  0  0  0  0  0  0
   55.9904   23.6298   42.3527 H   0  0  0  0  0  0  0  0  0  0  0  0
   57.0163   25.6053   43.7143 H   0  0  0  0  0  0  0  0  0  0  0  0
   56.4786   24.5925   47.1383 H   0  0  0  0  0  0  0  0  0  0  0  0
   56.5160   26.0950   48.1176 H   0  0  0  0  0  0  0  0  0  0  0  0
   58.1421   27.4430   45.3978 H   0  0  0  0  0  0  0  0  0  0  0  0
   57.2448   27.8323   43.8922 H   0  0  0  0  0  0  0  0  0  0  0  0
   59.0991   31.5961   47.4412 H   0  0  0  0  0  0  0  0  0  0  0  0
   58.3186   33.2916   45.7879 H   0  0  0  0  0  0  0  0  0  0  0  0
   57.0892   32.5694   43.7447 H   0  0  0  0  0  0  0  0  0  0  0  0
  1  2  1  0
  2  3  2  0
  3  4  1  0
  4  5  2  0
  5  6  1  0
  6  7  2  0
  6  8  1  0
  8  9  1  0
  9 10  1  0
 10 11  2  0
 10 12  1  0
 12 13  1  0
 13 14  1  0
 14 15  2  0
 15 16  1  0
 15 17  1  0
 17 18  2  0
 18 19  1  0
 19 20  2  0
 20 21  1  0
  5 22  1  0
 22  2  1  0
 20 14  1  0
  1 23  1  0
  1 24  1  0
  1 25  1  0
  3 26  1  0
  4 27  1  0
  9 28  1  0
  9 29  1  0
 13 30  1  0
 13 31  1  0
 17 32  1  0
 18 33  1  0
 19 34  1  0
M  CHG  1  12  -1
M  END
>  <UniqueID>  (24) 
22

>  <SMILES>  (24) 
Cc1ccc(C(=O)OCC(=O)[N-]Cc2c(F)cccc2Cl)s1

>  <Energy>  (24) 
53.49541854272201

>  <Genealogy>  (24) 
Cc1ccc(C(=O)OCC(=O)[N-]Cc2c(F)cccc2Cl)s1 (protonated)
Cc1ccc(C(=O)OCC(=O)[N-]Cc2c(F)cccc2Cl)s1 (3D coordinates assigned)
Cc1ccc(C(=O)OCC(=O)[N-]Cc2c(F)cccc2Cl)s1 (optimized conformer: 53.49541854272201 kcal/mol)

>  <smiles>  (24) 
Cc1ccc(C(=O)OCC(=O)NCc2c(F)cccc2Cl)s1

>  <score_type>  (24) 
oracle

>  <origin>  (24) 
adg

>  <m_score__min__energy>  (24) 
-9.5999999999999996

>  <m_primary>  (24) 
energy

$$$$
24:0
     RDKit          3D

 41 43  0  0  0  0  0  0  0  0999 V2000
   62.2880   33.4680   47.8180 C   0  0  0  0  0  0  0  0  0  0  0  0
   60.9500   33.2740   48.2650 O   0  0  0  0  0  0  0  0  0  0  0  0
   59.9450   32.6560   47.5060 C   0  0  0  0  0  0  0  0  0  0  0  0
   59.4940   31.3490   47.7730 C   0  0  0  0  0  0  0  0  0  0  0  0
   58.4860   30.7820   46.9910 C   0  0  0  0  0  0  0  0  0  0  0  0
   57.8950   31.5130   45.9520 C   0  0  0  0  0  0  0  0  0  0  0  0
   56.8790   30.9260   45.1310 N   0  0  0  0  0  0  0  0  0  0  0  0
   56.7270   29.5250   44.8720 C   0  0  0  0  0  0  0  0  0  0  0  0
   55.6120   28.9860   45.1030 O   0  0  0  0  0  0  0  0  0  0  0  0
   57.9170   28.6560   44.5180 C   0  0  1  0  0  0  0  0  0  0  0  0
   59.1170   29.5380   44.1700 C   0  0  0  0  0  0  0  0  0  0  0  0
   60.6260   28.6920   44.7190 S   0  0  0  0  0  0  0  0  0  0  0  0
   59.7030   27.8680   46.0430 C   0  0  0  0  0  0  0  0  0  0  0  0
   58.3080   27.7970   45.6370 N   0  0  0  0  0  0  0  0  0  0  0  0
   57.4060   26.8800   46.2780 C   0  0  0  0  0  0  0  0  0  0  0  0
   57.0380   27.0960   47.4640 O   0  0  0  0  0  0  0  0  0  0  0  0
   56.9050   25.6830   45.5750 C   0  0  0  0  0  0  0  0  0  0  0  0
   57.8150   24.7910   44.9860 C   0  0  0  0  0  0  0  0  0  0  0  0
   57.3560   23.6470   44.3260 C   0  0  0  0  0  0  0  0  0  0  0  0
   55.9850   23.3920   44.2370 C   0  0  0  0  0  0  0  0  0  0  0  0
   55.5300   22.2500   43.5890 O   0  0  0  0  0  0  0  0  0  0  0  0
   55.0700   24.2870   44.7990 C   0  0  0  0  0  0  0  0  0  0  0  0
   55.5220   25.4350   45.4600 C   0  0  0  0  0  0  0  0  0  0  0  0
   54.5930   26.3280   45.9830 O   0  0  0  0  0  0  0  0  0  0  0  0
   58.3630   32.8010   45.6640 C   0  0  0  0  0  0  0  0  0  0  0  0
   57.8180   33.5260   44.6110 O   0  0  0  0  0  0  0  0  0  0  0  0
   59.3770   33.3700   46.4450 C   0  0  0  0  0  0  0  0  0  0  0  0
   62.9547   33.5647   48.6876 H   0  0  0  0  0  0  0  0  0  0  0  0
   62.6003   32.6057   47.2106 H   0  0  0  0  0  0  0  0  0  0  0  0
   62.3426   34.3834   47.2106 H   0  0  0  0  0  0  0  0  0  0  0  0
   59.9368   30.7736   48.5994 H   0  0  0  0  0  0  0  0  0  0  0  0
   58.1531   29.7531   47.1922 H   0  0  0  0  0  0  0  0  0  0  0  0
   57.6212   28.0307   43.6627 H   0  0  0  0  0  0  0  0  0  0  0  0
   59.1563   29.7001   43.0827 H   0  0  0  0  0  0  0  0  0  0  0  0
   59.0271   30.5139   44.6696 H   0  0  0  0  0  0  0  0  0  0  0  0
   60.0989   26.8537   46.1996 H   0  0  0  0  0  0  0  0  0  0  0  0
   59.8004   28.4283   46.9846 H   0  0  0  0  0  0  0  0  0  0  0  0
   58.8947   24.9931   45.0440 H   0  0  0  0  0  0  0  0  0  0  0  0
   58.0752   22.9467   43.8762 H   0  0  0  0  0  0  0  0  0  0  0  0
   53.9909   24.0884   44.7215 H   0  0  0  0  0  0  0  0  0  0  0  0
   59.7301   34.3877   46.2222 H   0  0  0  0  0  0  0  0  0  0  0  0
  1  2  1  0
  2  3  1  0
  3  4  2  0
  4  5  1  0
  5  6  2  0
  6  7  1  0
  7  8  1  0
  8  9  2  0
  8 10  1  0
 10 11  1  0
 11 12  1  0
 12 13  1  0
 13 14  1  0
 14 15  1  0
 15 16  2  0
 15 17  1  0
 17 18  2  0
 18 19  1  0
 19 20  2  0
 20 21  1  0
 20 22  1  0
 22 23  2  0
 23 24  1  0
  6 25  1  0
 25 26  1  0
 25 27  2  0
 27  3  1  0
 14 10  1  0
 23 17  1  0
  1 28  1  0
  1 29  1  0
  1 30  1  0
  4 31  1  0
  5 32  1  0
 10 33  1  6
 11 34  1  0
 11 35  1  0
 13 36  1  0
 13 37  1  0
 18 38  1  0
 19 39  1  0
 22 40  1  0
 27 41  1  0
M  CHG  4   7  -1  21  -1  24  -1  26  -1
M  END
>  <UniqueID>  (25) 
23

>  <SMILES>  (25) 
COc1ccc([N-]C(=O)[C@H]2CSCN2C(=O)c2ccc([O-])cc2[O-])c([O-])c1

>  <Energy>  (25) 
49.03745279366776

>  <Genealogy>  (25) 
COc1ccc([N-]C(=O)C2CSCN2C(=O)c2ccc([O-])cc2[O-])c([O-])c1 (protonated)
COc1ccc([N-]C(=O)[C@H]2CSCN2C(=O)c2ccc([O-])cc2[O-])c([O-])c1 (chirality)
COc1ccc([N-]C(=O)[C@H]2CSCN2C(=O)c2ccc([O-])cc2[O-])c([O-])c1 (3D coordinates assigned)
COc1ccc([N-]C(=O)[C@H]2CSCN2C(=O)c2ccc([O-])cc2[O-])c([O-])c1 (nonaromatic ring conformer: 49.03745279366776 kcal/mol)

>  <smiles>  (25) 
COc1ccc(NC(=O)C2CSCN2C(=O)c2ccc(O)cc2O)c(O)c1

>  <score_type>  (25) 
oracle

>  <origin>  (25) 
adg

>  <m_score__min__energy>  (25) 
-15.359999999999999

>  <m_primary>  (25) 
energy

$$$$
25:0
     RDKit          3D

 43 46  0  0  0  0  0  0  0  0999 V2000
   56.5215   25.0526   44.4252 H   0  0  0  0  0  0  0  0  0  0  0  0
   56.9040   25.6810   45.2430 C   0  0  0  0  0  0  0  0  0  0  0  0
   56.1740   26.5060   46.0690 C   0  0  0  0  0  0  0  0  0  0  0  0
   54.7980   26.6800   45.9960 O   0  0  0  0  0  0  0  0  0  0  0  0
   56.9510   27.1390   46.9680 N   0  0  0  0  0  0  0  0  0  0  0  0
   58.2010   26.7040   46.7070 C   0  0  0  0  0  0  0  0  0  0  0  0
   59.3830   27.1420   47.4620 C   0  0  0  0  0  0  0  0  0  0  0  0
   59.9320   26.3380   48.2610 O   0  0  0  0  0  0  0  0  0  0  0  0
   59.8930   28.4700   47.2580 N   0  0  0  0  0  0  0  0  0  0  0  0
   59.4980   29.5970   47.7830 C   0  0  0  0  0  0  0  0  0  0  0  0
   59.2300   29.8030   49.0940 N   0  0  0  0  0  0  0  0  0  0  0  0
   59.2960   29.1330   49.8880 H   0  0  0  0  0  0  0  0  0  0  0  0
   58.8870   31.1070   49.1810 C   0  0  0  0  0  0  0  0  0  0  0  0
   58.5240   31.8060   50.4390 C   0  0  0  0  0  0  0  0  0  0  0  0
   59.2110   32.9680   50.8380 C   0  0  0  0  0  0  0  0  0  0  0  0
   60.0251   33.3629   50.2125 H   0  0  0  0  0  0  0  0  0  0  0  0
   58.8660   33.6240   52.0240 C   0  0  0  0  0  0  0  0  0  0  0  0
   59.4083   34.5319   52.3269 H   0  0  0  0  0  0  0  0  0  0  0  0
   57.8350   33.1290   52.8240 C   0  0  0  0  0  0  0  0  0  0  0  0
   57.5645   33.6475   53.7557 H   0  0  0  0  0  0  0  0  0  0  0  0
   57.1470   31.9760   52.4420 C   0  0  0  0  0  0  0  0  0  0  0  0
   56.3352   31.5864   53.0739 H   0  0  0  0  0  0  0  0  0  0  0  0
   57.4880   31.3150   51.2570 C   0  0  0  0  0  0  0  0  0  0  0  0
   56.9434   30.4059   50.9623 H   0  0  0  0  0  0  0  0  0  0  0  0
   58.9510   31.6710   47.9170 C   0  0  0  0  0  0  0  0  0  0  0  0
   58.7369   32.7208   47.6679 H   0  0  0  0  0  0  0  0  0  0  0  0
   59.3200   30.7140   47.0470 N   0  0  0  0  0  0  0  0  0  0  0  0
   59.5870   30.8970   45.6200 C   0  0  0  0  0  0  0  0  0  0  0  0
   59.9256   31.9283   45.4415 H   0  0  0  0  0  0  0  0  0  0  0  0
   60.3678   30.1896   45.3037 H   0  0  0  0  0  0  0  0  0  0  0  0
   58.3340   30.6390   44.8280 C   0  0  0  0  0  0  0  0  0  0  0  0
   58.1460   31.2630   43.5840 C   0  0  0  0  0  0  0  0  0  0  0  0
   58.9010   31.9668   43.2037 H   0  0  0  0  0  0  0  0  0  0  0  0
   57.0010   30.9920   42.8270 C   0  0  0  0  0  0  0  0  0  0  0  0
   56.8532   31.4898   41.8573 H   0  0  0  0  0  0  0  0  0  0  0  0
   56.0450   30.0900   43.3010 C   0  0  0  0  0  0  0  0  0  0  0  0
   55.1440   29.8807   42.7057 H   0  0  0  0  0  0  0  0  0  0  0  0
   56.2330   29.4530   44.5320 C   0  0  0  0  0  0  0  0  0  0  0  0
   55.4822   28.7394   44.9022 H   0  0  0  0  0  0  0  0  0  0  0  0
   57.3750   29.7230   45.2920 C   0  0  0  0  0  0  0  0  0  0  0  0
   57.5233   29.2163   46.2570 H   0  0  0  0  0  0  0  0  0  0  0  0
   58.2110   25.8060   45.6530 C   0  0  0  0  0  0  0  0  0  0  0  0
   59.0880   25.2952   45.2288 H   0  0  0  0  0  0  0  0  0  0  0  0
  1  2  1  0
  2  3  2  0
  3  4  1  0
  3  5  1  0
  5  6  1  0
  6  7  1  0
  7  8  2  0
  7  9  1  0
  9 10  2  0
 10 11  1  0
 11 12  1  0
 11 13  1  0
 13 14  1  0
 14 15  2  0
 15 16  1  0
 15 17  1  0
 17 18  1  0
 17 19  2  0
 19 20  1  0
 19 21  1  0
 21 22  1  0
 21 23  2  0
 23 24  1  0
 13 25  2  0
 25 26  1  0
 25 27  1  0
 27 28  1  0
 28 29  1  0
 28 30  1  0
 28 31  1  0
 31 32  2  0
 32 33  1  0
 32 34  1  0
 34 35  1  0
 34 36  2  0
 36 37  1  0
 36 38  1  0
 38 39  1  0
 38 40  2  0
 40 41  1  0
  6 42  2  0
 42 43  1  0
 42  2  1  0
 27 10  1  0
 40 31  1  0
 23 14  1  0
M  CHG  2   4  -1   5  -1
M  END
>  <UniqueID>  (26) 
24

>  <SMILES>  (26) 
O=C(/N=c1\[nH]c(-c2ccccc2)cn1Cc1ccccc1)c1ccc([O-])[n-]1

>  <Energy>  (26) 
107.76045210911636

>  <Genealogy>  (26) 
O=C(N=c1[nH]c(-c2ccccc2)cn1Cc1ccccc1)c1ccc([O-])[n-]1 (protonated)
O=C(/N=c1\[nH]c(-c2ccccc2)cn1Cc1ccccc1)c1ccc([O-])[n-]1 (cis-trans isomerization)
O=C(/N=c1\[nH]c(-c2ccccc2)cn1Cc1ccccc1)c1ccc([O-])[n-]1 (3D coordinates assigned)
O=C(/N=c1\[nH]c(-c2ccccc2)cn1Cc1ccccc1)c1ccc([O-])[n-]1 (optimized conformer: 107.76045210911636 kcal/mol)

>  <smiles>  (26) 
O=C(N=c1[nH]c(-c2ccccc2)cn1Cc1ccccc1)c1ccc(O)[nH]1

>  <score_type>  (26) 
oracle

>  <origin>  (26) 
adg

>  <m_score__min__energy>  (26) 
-13.9

>  <m_primary>  (26) 
energy

$$$$
26:0
     RDKit          3D

 27 28  0  0  0  0  0  0  0  0999 V2000
   55.3710   28.0780   53.8200 C   0  0  0  0  0  0  0  0  0  0  0  0
   55.5230   29.1650   53.0470 C   0  0  0  0  0  0  0  0  0  0  0  0
   54.5060   29.9960   52.5480 C   0  0  0  0  0  0  0  0  0  0  0  0
   53.1700   29.8330   52.5090 C   0  0  0  0  0  0  0  0  0  0  0  0
   52.2140   30.7540   51.8700 C   0  0  0  0  0  0  0  0  0  0  0  0
   52.2560   31.1130   50.5740 N   0  0  0  0  0  0  0  0  0  0  0  0
   51.2940   32.0560   50.4800 C   0  0  0  0  0  0  0  0  0  0  0  0
   51.0150   32.6350   49.3970 O   0  0  0  0  0  0  0  0  0  0  0  0
   50.6630   32.3390   51.6390 N   0  0  0  0  0  0  0  0  0  0  0  0
   51.2650   31.5170   52.5130 C   0  0  0  0  0  0  0  0  0  0  0  0
   50.9470   31.4710   53.8680 O   0  0  0  0  0  0  0  0  0  0  0  0
   55.1400   31.1160   52.0360 C   0  0  0  0  0  0  0  0  0  0  0  0
   56.4960   30.9090   52.1760 C   0  0  0  0  0  0  0  0  0  0  0  0
   57.5520   31.8780   51.7400 C   0  0  0  0  0  0  0  0  0  0  0  0
   56.7340   29.7150   52.7660 N   0  0  0  0  0  0  0  0  0  0  0  0
   58.0480   29.1910   53.1530 C   0  0  0  0  0  0  0  0  0  0  0  0
   56.2531   27.5081   54.1472 H   0  0  0  0  0  0  0  0  0  0  0  0
   54.3643   27.7572   54.1262 H   0  0  0  0  0  0  0  0  0  0  0  0
   52.7576   28.9366   52.9952 H   0  0  0  0  0  0  0  0  0  0  0  0
   51.6340   31.2100   54.5630 H   0  0  0  0  0  0  0  0  0  0  0  0
   54.6543   32.0018   51.6007 H   0  0  0  0  0  0  0  0  0  0  0  0
   58.0329   32.3192   52.6255 H   0  0  0  0  0  0  0  0  0  0  0  0
   58.3065   31.3514   51.1372 H   0  0  0  0  0  0  0  0  0  0  0  0
   57.0920   32.6749   51.1372 H   0  0  0  0  0  0  0  0  0  0  0  0
   58.1223   29.1614   54.2501 H   0  0  0  0  0  0  0  0  0  0  0  0
   58.1709   28.1751   52.7496 H   0  0  0  0  0  0  0  0  0  0  0  0
   58.8363   29.8436   52.7496 H   0  0  0  0  0  0  0  0  0  0  0  0
  1  2  2  0
  2  3  1  0
  3  4  2  3
  4  5  1  0
  5  6  1  0
  6  7  1  0
  7  8  2  0
  7  9  1  0
  9 10  1  0
 10 11  1  0
  3 12  1  0
 12 13  2  0
 13 14  1  0
 13 15  1  0
 15 16  1  0
 15  2  1  0
 10  5  2  0
  1 17  1  0
  1 18  1  0
  4 19  1  0
 11 20  1  0
 12 21  1  0
 14 22  1  0
 14 23  1  0
 14 24  1  0
 16 25  1  0
 16 26  1  0
 16 27  1  0
M  CHG  2   6  -1   9  -1
M  END
>  <UniqueID>  (27) 
25

>  <SMILES>  (27) 
C=c1c(=Cc2[n-]c(=O)[n-]c2O)cc(C)n1C

>  <Energy>  (27) 
94.55633913823239

>  <Genealogy>  (27) 
C=c1c(=Cc2[n-]c(=O)[n-]c2O)cc(C)n1C (protonated)
C=c1c(=Cc2[n-]c(=O)[n-]c2O)cc(C)n1C (3D coordinates assigned)
C=c1c(=Cc2[n-]c(=O)[n-]c2O)cc(C)n1C (optimized conformer: 94.55633913823239 kcal/mol)

>  <smiles>  (27) 
C=c1c(=Cc2[nH]c(=O)[nH]c2O)cc(C)n1C

>  <score_type>  (27) 
oracle

>  <origin>  (27) 
adg

>  <m_score__min__energy>  (27) 
-11.19

>  <m_primary>  (27) 
energy

$$$$
27:0
     RDKit          3D

 36 37  0  0  0  0  0  0  0  0999 V2000
   58.9030   35.2170   48.6900 H   0  0  0  0  0  0  0  0  0  0  0  0
   59.6390   34.5640   49.0430 N   0  0  0  0  0  0  0  0  0  0  0  0
   59.2250   32.9860   48.4710 S   0  0  0  0  0  0  0  0  0  0  0  0
   58.1050   32.4270   49.3030 O   0  0  0  0  0  0  0  0  0  0  0  0
   60.4170   32.0800   48.5970 O   0  0  0  0  0  0  0  0  0  0  0  0
   58.7240   33.0840   46.7850 C   0  0  0  0  0  0  0  0  0  0  0  0
   59.2710   34.0620   45.9430 C   0  0  0  0  0  0  0  0  0  0  0  0
   60.0126   34.7727   46.3366 H   0  0  0  0  0  0  0  0  0  0  0  0
   58.8760   34.1360   44.6040 C   0  0  0  0  0  0  0  0  0  0  0  0
   59.3143   34.8994   43.9444 H   0  0  0  0  0  0  0  0  0  0  0  0
   57.9260   33.2430   44.1010 C   0  0  0  0  0  0  0  0  0  0  0  0
   57.6322   33.2931   43.0422 H   0  0  0  0  0  0  0  0  0  0  0  0
   57.3440   32.2790   44.9470 C   0  0  0  0  0  0  0  0  0  0  0  0
   56.3800   31.3290   44.4700 N   0  0  0  0  0  0  0  0  0  0  0  0
   56.3200   29.9340   44.7950 C   0  0  0  0  0  0  0  0  0  0  0  0
   55.2130   29.3320   44.8710 O   0  0  0  0  0  0  0  0  0  0  0  0
   57.5880   29.1910   45.0610 C   0  0  0  0  0  0  0  0  0  0  0  0
   57.8659   28.6119   44.1680 H   0  0  0  0  0  0  0  0  0  0  0  0
   58.3858   29.9093   45.3007 H   0  0  0  0  0  0  0  0  0  0  0  0
   57.4080   28.3070   46.1590 O   0  0  0  0  0  0  0  0  0  0  0  0
   58.0480   27.0870   46.1930 N   0  0  0  0  0  0  0  0  0  0  0  0
   57.5380   26.0500   46.7840 C   0  0  0  0  0  0  0  0  0  0  0  0
   57.7586   25.8887   47.8495 H   0  0  0  0  0  0  0  0  0  0  0  0
   56.6740   25.0780   46.0850 C   0  0  0  0  0  0  0  0  0  0  0  0
   57.2130   23.8380   45.7100 C   0  0  0  0  0  0  0  0  0  0  0  0
   58.2591   23.6007   45.9535 H   0  0  0  0  0  0  0  0  0  0  0  0
   56.4280   22.9010   45.0280 C   0  0  0  0  0  0  0  0  0  0  0  0
   56.8521   21.9240   44.7528 H   0  0  0  0  0  0  0  0  0  0  0  0
   55.1060   23.2070   44.6970 C   0  0  0  0  0  0  0  0  0  0  0  0
   54.4875   22.4678   44.1669 H   0  0  0  0  0  0  0  0  0  0  0  0
   54.5680   24.4500   45.0380 C   0  0  0  0  0  0  0  0  0  0  0  0
   53.5287   24.6898   44.7691 H   0  0  0  0  0  0  0  0  0  0  0  0
   55.3470   25.3920   45.7210 C   0  0  0  0  0  0  0  0  0  0  0  0
   54.8050   26.6410   46.0030 O   0  0  0  0  0  0  0  0  0  0  0  0
   57.7620   32.1960   46.2820 C   0  0  0  0  0  0  0  0  0  0  0  0
   57.3318   31.4276   46.9412 H   0  0  0  0  0  0  0  0  0  0  0  0
  1  2  1  0
  2  3  1  0
  3  4  2  0
  3  5  2  0
  3  6  1  0
  6  7  2  0
  7  8  1  0
  7  9  1  0
  9 10  1  0
  9 11  2  0
 11 12  1  0
 11 13  1  0
 13 14  1  0
 14 15  1  0
 15 16  2  0
 15 17  1  0
 17 18  1  0
 17 19  1  0
 17 20  1  0
 20 21  1  0
 21 22  2  0
 22 23  1  0
 22 24  1  0
 24 25  2  0
 25 26  1  0
 25 27  1  0
 27 28  1  0
 27 29  2  0
 29 30  1  0
 29 31  1  0
 31 32  1  0
 31 33  2  0
 33 34  1  0
 13 35  2  0
 35 36  1  0
 35  6  1  0
 33 24  1  0
M  CHG  3   2  -1  14  -1  34  -1
M  END
>  <UniqueID>  (28) 
26

>  <SMILES>  (28) 
[NH-]S(=O)(=O)c1cccc([N-]C(=O)CO/N=C\c2ccccc2[O-])c1

>  <Energy>  (28) 
41.59341461711137

>  <Genealogy>  (28) 
[NH-]S(=O)(=O)c1cccc([N-]C(=O)CON=Cc2ccccc2[O-])c1 (protonated)
[NH-]S(=O)(=O)c1cccc([N-]C(=O)CO/N=C\c2ccccc2[O-])c1 (cis-trans isomerization)
[NH-]S(=O)(=O)c1cccc([N-]C(=O)CO/N=C\c2ccccc2[O-])c1 (3D coordinates assigned)
[NH-]S(=O)(=O)c1cccc([N-]C(=O)CO/N=C\c2ccccc2[O-])c1 (optimized conformer: 41.59341461711137 kcal/mol)

>  <smiles>  (28) 
NS(=O)(=O)c1cccc(NC(=O)CON=Cc2ccccc2O)c1

>  <score_type>  (28) 
oracle

>  <origin>  (28) 
adg

>  <m_score__min__energy>  (28) 
-14.32

>  <m_primary>  (28) 
energy

$$$$
28:0
     RDKit          3D

 39 42  0  0  0  0  0  0  0  0999 V2000
   64.4420   32.6020   48.9930 O   0  0  0  0  0  0  0  0  0  0  0  0
   63.5030   32.7020   48.1590 C   0  0  0  0  0  0  0  0  0  0  0  0
   62.9420   31.4900   47.4860 C   0  0  0  0  0  0  0  0  0  0  0  0
   61.4970   31.6690   47.2620 N   0  0  0  0  0  0  0  0  0  0  0  0
   60.6380   30.5170   47.2270 C   0  0  0  0  0  0  0  0  0  0  0  0
   59.7310   30.3890   46.2230 N   0  0  0  0  0  0  0  0  0  0  0  0
   58.8810   29.3280   46.1260 C   0  0  0  0  0  0  0  0  0  0  0  0
   58.9190   28.3200   47.1140 C   0  0  0  0  0  0  0  0  0  0  0  0
   59.8420   28.4410   48.1680 C   0  0  0  0  0  0  0  0  0  0  0  0
   60.6990   29.5390   48.2290 C   0  0  0  0  0  0  0  0  0  0  0  0
   61.5470   29.6700   49.2800 F   0  0  0  0  0  0  0  0  0  0  0  0
   58.0250   27.2390   47.0320 C   0  0  0  0  0  0  0  0  0  0  0  0
   58.0570   26.3280   47.9050 O   0  0  0  0  0  0  0  0  0  0  0  0
   57.0910   27.1840   45.9760 C   0  0  0  0  0  0  0  0  0  0  0  0
   56.1040   26.0780   45.8470 C   0  0  0  0  0  0  0  0  0  0  0  0
   56.4780   24.8980   45.6120 O   0  0  0  0  0  0  0  0  0  0  0  0
   54.7440   26.3290   45.9870 O   0  0  0  0  0  0  0  0  0  0  0  0
   57.0930   28.2160   45.0230 C   0  0  0  0  0  0  0  0  0  0  0  0
   57.9970   29.2410   45.0830 N   0  0  0  0  0  0  0  0  0  0  0  0
   57.9230   30.3120   44.0750 C   0  0  0  0  0  0  0  0  0  0  0  0
   57.0270   31.4870   44.4540 C   0  0  0  0  0  0  0  0  0  0  0  0
   56.5500   30.4730   43.4320 C   0  0  0  0  0  0  0  0  0  0  0  0
   60.9200   32.9800   46.9030 C   0  0  0  0  0  0  0  0  0  0  0  0
   61.9880   34.0730   46.7470 C   0  0  0  0  0  0  0  0  0  0  0  0
   62.9660   33.9810   47.8250 N   0  0  0  0  0  0  0  0  0  0  0  0
   63.4461   31.3425   46.5195 H   0  0  0  0  0  0  0  0  0  0  0  0
   63.1046   30.6104   48.1262 H   0  0  0  0  0  0  0  0  0  0  0  0
   59.8880   27.6662   48.9475 H   0  0  0  0  0  0  0  0  0  0  0  0
   56.3514   28.1996   44.2107 H   0  0  0  0  0  0  0  0  0  0  0  0
   58.9545   30.2054   43.7082 H   0  0  0  0  0  0  0  0  0  0  0  0
   56.5614   31.5242   45.4499 H   0  0  0  0  0  0  0  0  0  0  0  0
   57.1441   32.5807   44.4672 H   0  0  0  0  0  0  0  0  0  0  0  0
   55.7386   29.7756   43.6873 H   0  0  0  0  0  0  0  0  0  0  0  0
   56.1783   30.5283   42.3982 H   0  0  0  0  0  0  0  0  0  0  0  0
   60.3788   32.8778   45.9508 H   0  0  0  0  0  0  0  0  0  0  0  0
   60.2494   33.2838   47.7203 H   0  0  0  0  0  0  0  0  0  0  0  0
   62.4991   33.9460   45.7813 H   0  0  0  0  0  0  0  0  0  0  0  0
   61.5009   35.0584   46.7882 H   0  0  0  0  0  0  0  0  0  0  0  0
   63.2530   34.8330   48.3550 H   0  0  0  0  0  0  0  0  0  0  0  0
  1  2  2  0
  2  3  1  0
  3  4  1  0
  4  5  1  0
  5  6  2  0
  6  7  1  0
  7  8  2  0
  8  9  1  0
  9 10  2  0
 10 11  1  0
  8 12  1  0
 12 13  2  0
 12 14  1  0
 14 15  1  0
 15 16  2  0
 15 17  1  0
 14 18  2  0
 18 19  1  0
 19 20  1  0
 20 21  1  0
 21 22  1  0
  4 23  1  0
 23 24  1  0
 24 25  1  0
 25  2  1  0
 10  5  1  0
 22 20  1  0
 19  7  1  0
  3 26  1  0
  3 27  1  0
  9 28  1  0
 18 29  1  0
 20 30  1  0
 21 31  1  0
 21 32  1  0
 22 33  1  0
 22 34  1  0
 23 35  1  0
 23 36  1  0
 24 37  1  0
 24 38  1  0
 25 39  1  0
M  CHG  1  17  -1
M  END
>  <UniqueID>  (29) 
27

>  <SMILES>  (29) 
O=C1CN(c2nc3c(cc2F)c(=O)c(C(=O)[O-])cn3C2CC2)CCN1

>  <Energy>  (29) 
319.97860357476327

>  <Genealogy>  (29) 
O=C1CN(c2nc3c(cc2F)c(=O)c(C(=O)[O-])cn3C2CC2)CCN1 (protonated)
O=C1CN(c2nc3c(cc2F)c(=O)c(C(=O)[O-])cn3C2CC2)CCN1 (3D coordinates assigned)
O=C1CN(c2nc3c(cc2F)c(=O)c(C(=O)[O-])cn3C2CC2)CCN1 (nonaromatic ring conformer: 319.97860357476327 kcal/mol)

>  <smiles>  (29) 
O=C1CN(c2nc3c(cc2F)c(=O)c(C(=O)O)cn3C2CC2)CCN1

>  <score_type>  (29) 
oracle

>  <origin>  (29) 
adg

>  <m_score__min__energy>  (29) 
-9.3800000000000008

>  <m_primary>  (29) 
energy

$$$$
29:0
     RDKit          3D

 44 47  0  0  0  0  0  0  0  0999 V2000
   56.5285   22.5029   46.3494 H   0  0  0  0  0  0  0  0  0  0  0  0
   56.7050   23.5770   46.1910 C   0  0  0  0  0  0  0  0  0  0  0  0
   58.0020   24.0460   45.9690 C   0  0  0  0  0  0  0  0  0  0  0  0
   58.8433   23.3383   45.9318 H   0  0  0  0  0  0  0  0  0  0  0  0
   58.2320   25.4140   45.7940 C   0  0  0  0  0  0  0  0  0  0  0  0
   59.2502   25.7775   45.5914 H   0  0  0  0  0  0  0  0  0  0  0  0
   57.1690   26.3230   45.8760 C   0  0  0  0  0  0  0  0  0  0  0  0
   57.4220   27.7170   45.6560 N   0  0  0  0  0  0  0  0  0  0  0  0
   58.1320   28.5470   46.3730 C   0  0  0  0  0  0  0  0  0  0  0  0
   58.6880   28.0620   47.5160 N   0  0  0  0  0  0  0  0  0  0  0  0
   59.5150   28.8050   48.2930 C   0  0  0  0  0  0  0  0  0  0  0  0
   60.0840   28.2670   49.4510 C   0  0  0  0  0  0  0  0  0  0  0  0
   59.8511   27.2347   49.7512 H   0  0  0  0  0  0  0  0  0  0  0  0
   60.9510   29.0450   50.2280 C   0  0  0  0  0  0  0  0  0  0  0  0
   61.4001   28.6230   51.1391 H   0  0  0  0  0  0  0  0  0  0  0  0
   61.2470   30.3590   49.8470 C   0  0  0  0  0  0  0  0  0  0  0  0
   61.9289   30.9674   50.4593 H   0  0  0  0  0  0  0  0  0  0  0  0
   60.6770   30.9010   48.6880 C   0  0  0  0  0  0  0  0  0  0  0  0
   60.9083   31.9345   48.3908 H   0  0  0  0  0  0  0  0  0  0  0  0
   59.8130   30.1240   47.9100 C   0  0  0  0  0  0  0  0  0  0  0  0
   59.2270   30.6380   46.8010 N   0  0  0  0  0  0  0  0  0  0  0  0
   58.3820   29.9070   46.0230 C   0  0  0  0  0  0  0  0  0  0  0  0
   57.6570   30.5960   44.9900 N   0  0  0  0  0  0  0  0  0  0  0  0
   57.5170   32.0560   45.0660 C   0  0  0  0  0  0  0  0  0  0  0  0
   58.0981   32.4368   45.9188 H   0  0  0  0  0  0  0  0  0  0  0  0
   56.4571   32.3177   45.2007 H   0  0  0  0  0  0  0  0  0  0  0  0
   58.0390   32.6830   43.7710 C   0  0  0  0  0  0  0  0  0  0  0  0
   59.1008   32.4215   43.6522 H   0  0  0  0  0  0  0  0  0  0  0  0
   57.9042   33.7724   43.8413 H   0  0  0  0  0  0  0  0  0  0  0  0
   57.2910   32.2030   42.5830 N   0  0  0  0  0  0  0  0  0  0  0  0
   58.1180   32.3190   41.3710 C   0  0  0  0  0  0  0  0  0  0  0  0
   59.1697   32.4665   41.6575 H   0  0  0  0  0  0  0  0  0  0  0  0
   58.0259   31.3991   40.7749 H   0  0  0  0  0  0  0  0  0  0  0  0
   57.7764   33.1780   40.7749 H   0  0  0  0  0  0  0  0  0  0  0  0
   56.7180   30.8380   42.7180 C   0  0  0  0  0  0  0  0  0  0  0  0
   56.7055   30.3626   41.7261 H   0  0  0  0  0  0  0  0  0  0  0  0
   55.7048   30.9441   43.1330 H   0  0  0  0  0  0  0  0  0  0  0  0
   57.5190   29.9480   43.6780 C   0  0  0  0  0  0  0  0  0  0  0  0
   58.5190   29.7693   43.2560 H   0  0  0  0  0  0  0  0  0  0  0  0
   56.9850   28.9951   43.8074 H   0  0  0  0  0  0  0  0  0  0  0  0
   55.8560   25.8410   46.0310 C   0  0  0  0  0  0  0  0  0  0  0  0
   54.7730   26.7130   45.9820 O   0  0  0  0  0  0  0  0  0  0  0  0
   55.6310   24.4720   46.2120 C   0  0  0  0  0  0  0  0  0  0  0  0
   54.6083   24.0995   46.3710 H   0  0  0  0  0  0  0  0  0  0  0  0
  1  2  1  0
  2  3  2  0
  3  4  1  0
  3  5  1  0
  5  6  1  0
  5  7  2  0
  7  8  1  0
  8  9  2  0
  9 10  1  0
 10 11  1  0
 11 12  2  0
 12 13  1  0
 12 14  1  0
 14 15  1  0
 14 16  2  0
 16 17  1  0
 16 18  1  0
 18 19  1  0
 18 20  2  0
 20 21  1  0
 21 22  2  0
 22 23  1  0
 23 24  1  0
 24 25  1  0
 24 26  1  0
 24 27  1  0
 27 28  1  0
 27 29  1  0
 27 30  1  0
 30 31  1  0
 31 32  1  0
 31 33  1  0
 31 34  1  0
 30 35  1  0
 35 36  1  0
 35 37  1  0
 35 38  1  0
 38 39  1  0
 38 40  1  0
  7 41  1  0
 41 42  1  0
 41 43  2  0
 43 44  1  0
 43  2  1  0
 22  9  1  0
 38 23  1  0
 20 11  1  0
M  CHG  2  10  -1  42  -1
M  END
>  <UniqueID>  (30) 
28

>  <SMILES>  (30) 
CN1CCN(c2nc3ccccc3[n-]/c2=N/c2ccccc2[O-])CC1

>  <Energy>  (30) 
76.93023486239353

>  <Genealogy>  (30) 
CN1CCN(c2nc3ccccc3[n-]c2=Nc2ccccc2[O-])CC1 (protonated)
CN1CCN(c2nc3ccccc3[n-]/c2=N/c2ccccc2[O-])CC1 (cis-trans isomerization)
CN1CCN(c2nc3ccccc3[n-]/c2=N/c2ccccc2[O-])CC1 (3D coordinates assigned)
CN1CCN(c2nc3ccccc3[n-]/c2=N/c2ccccc2[O-])CC1 (nonaromatic ring conformer: 76.93023486239353 kcal/mol)

>  <smiles>  (30) 
CN1CCN(c2nc3ccccc3[nH]c2=Nc2ccccc2O)CC1

>  <score_type>  (30) 
oracle

>  <origin>  (30) 
adg

>  <m_score__min__energy>  (30) 
-12.56

>  <m_primary>  (30) 
energy

$$$$
30:0
     RDKit          3D

 29 30  0  0  0  0  0  0  0  0999 V2000
   56.5210   26.1420   46.1070 C   0  0  0  0  0  0  0  0  0  0  0  0
   56.8720   27.5350   45.6870 C   0  0  0  0  0  0  0  0  0  0  0  0
   58.2010   27.9710   45.7240 C   0  0  0  0  0  0  0  0  0  0  0  0
   58.5170   29.2810   45.3220 C   0  0  0  0  0  0  0  0  0  0  0  0
   59.8340   29.7750   45.3470 O   0  0  0  0  0  0  0  0  0  0  0  0
   60.6940   29.7850   46.4870 C   0  0  0  0  0  0  0  0  0  0  0  0
   61.0840   31.1940   46.8500 C   0  0  0  0  0  0  0  0  0  0  0  0
   62.4130   31.5030   47.1860 C   0  0  0  0  0  0  0  0  0  0  0  0
   62.7680   32.8150   47.5160 C   0  0  0  0  0  0  0  0  0  0  0  0
   64.0500   33.1070   47.8480 F   0  0  0  0  0  0  0  0  0  0  0  0
   61.8030   33.8270   47.5020 C   0  0  0  0  0  0  0  0  0  0  0  0
   60.4830   33.5290   47.1550 C   0  0  0  0  0  0  0  0  0  0  0  0
   59.5490   34.5130   47.1370 F   0  0  0  0  0  0  0  0  0  0  0  0
   60.1230   32.2180   46.8260 C   0  0  0  0  0  0  0  0  0  0  0  0
   57.4850   30.1250   44.8790 C   0  0  0  0  0  0  0  0  0  0  0  0
   57.7830   31.4760   44.4610 C   0  0  0  0  0  0  0  0  0  0  0  0
   58.0220   32.5580   44.1270 N   0  0  0  0  0  0  0  0  0  0  0  0
   56.1650   29.6460   44.8530 C   0  0  0  0  0  0  0  0  0  0  0  0
   55.2210   30.3840   44.4610 O   0  0  0  0  0  0  0  0  0  0  0  0
   55.8960   28.3760   45.2540 N   0  0  0  0  0  0  0  0  0  0  0  0
   56.5061   26.0829   47.2053 H   0  0  0  0  0  0  0  0  0  0  0  0
   55.5285   25.8791   45.7122 H   0  0  0  0  0  0  0  0  0  0  0  0
   57.2704   25.4402   45.7122 H   0  0  0  0  0  0  0  0  0  0  0  0
   58.9956   27.2917   46.0662 H   0  0  0  0  0  0  0  0  0  0  0  0
   60.1703   29.3251   47.3380 H   0  0  0  0  0  0  0  0  0  0  0  0
   61.6052   29.2176   46.2465 H   0  0  0  0  0  0  0  0  0  0  0  0
   63.1762   30.7109   47.1895 H   0  0  0  0  0  0  0  0  0  0  0  0
   62.0833   34.8578   47.7643 H   0  0  0  0  0  0  0  0  0  0  0  0
   59.0839   31.9883   46.5476 H   0  0  0  0  0  0  0  0  0  0  0  0
  1  2  1  0
  2  3  2  0
  3  4  1  0
  4  5  1  0
  5  6  1  0
  6  7  1  0
  7  8  2  0
  8  9  1  0
  9 10  1  0
  9 11  2  0
 11 12  1  0
 12 13  1  0
 12 14  2  0
  4 15  2  0
 15 16  1  0
 16 17  3  0
 15 18  1  0
 18 19  2  0
 18 20  1  0
 20  2  1  0
 14  7  1  0
  1 21  1  0
  1 22  1  0
  1 23  1  0
  3 24  1  0
  6 25  1  0
  6 26  1  0
  8 27  1  0
 11 28  1  0
 14 29  1  0
M  CHG  1  20  -1
M  END
>  <UniqueID>  (31) 
29

>  <SMILES>  (31) 
Cc1cc(OCc2cc(F)cc(F)c2)c(C#N)c(=O)[n-]1

>  <Energy>  (31) 
29.38623736826925

>  <Genealogy>  (31) 
Cc1cc(OCc2cc(F)cc(F)c2)c(C#N)c(=O)[n-]1 (protonated)
Cc1cc(OCc2cc(F)cc(F)c2)c(C#N)c(=O)[n-]1 (3D coordinates assigned)
Cc1cc(OCc2cc(F)cc(F)c2)c(C#N)c(=O)[n-]1 (optimized conformer: 29.38623736826925 kcal/mol)

>  <smiles>  (31) 
Cc1cc(OCc2cc(F)cc(F)c2)c(C#N)c(=O)[nH]1

>  <score_type>  (31) 
oracle

>  <origin>  (31) 
adg

>  <m_score__min__energy>  (31) 
-8.25

>  <m_primary>  (31) 
energy

$$$$
31:0
     RDKit          3D

 47 50  0  0  0  0  0  0  0  0999 V2000
   62.6530   31.2550   49.3990 C   0  0  0  0  0  0  0  0  0  0  0  0
   61.4290   30.3960   49.5290 C   0  0  0  0  0  0  0  0  0  0  0  0
   61.0620   29.8350   50.7540 C   0  0  0  0  0  0  0  0  0  0  0  0
   59.6360   28.9730   50.5410 S   0  0  0  0  0  0  0  0  0  0  0  0
   59.5350   29.3470   48.9100 C   0  0  0  0  0  0  0  0  0  0  0  0
   58.5830   28.9800   48.1700 O   0  0  0  0  0  0  0  0  0  0  0  0
   60.5750   30.1140   48.4920 N   0  0  0  0  0  0  0  0  0  0  0  0
   60.7250   30.6010   47.1380 C   0  0  0  0  0  0  0  0  0  0  0  0
   61.0710   29.8080   46.2200 O   0  0  0  0  0  0  0  0  0  0  0  0
   60.5460   32.0340   46.8070 C   0  0  0  0  0  0  0  0  0  0  0  0
   61.6860   32.8500   46.7040 C   0  0  0  0  0  0  0  0  0  0  0  0
   61.5570   34.2220   46.4760 C   0  0  0  0  0  0  0  0  0  0  0  0
   60.2910   34.7960   46.3530 C   0  0  0  0  0  0  0  0  0  0  0  0
   59.1510   33.9950   46.4300 C   0  0  0  0  0  0  0  0  0  0  0  0
   59.2660   32.6120   46.6280 C   0  0  0  0  0  0  0  0  0  0  0  0
   57.7710   31.6100   46.5970 S   0  0  0  0  0  0  0  0  0  0  0  0
   57.6880   31.5910   44.7950 C   0  0  0  0  0  0  0  0  0  0  0  0
   58.2350   32.6720   44.0910 C   0  0  0  0  0  0  0  0  0  0  0  0
   58.1390   32.7350   42.7000 C   0  0  0  0  0  0  0  0  0  0  0  0
   57.4930   31.7160   41.9980 C   0  0  0  0  0  0  0  0  0  0  0  0
   56.9520   30.6280   42.6850 C   0  0  0  0  0  0  0  0  0  0  0  0
   57.0580   30.5410   44.0820 C   0  0  0  0  0  0  0  0  0  0  0  0
   56.4870   29.3570   44.7630 C   0  0  0  0  0  0  0  0  0  0  0  0
   55.2340   29.2750   44.8780 O   0  0  0  0  0  0  0  0  0  0  0  0
   57.3360   28.2560   45.2790 C   0  0  0  0  0  0  0  0  0  0  0  0
   58.7340   28.2810   45.1130 C   0  0  0  0  0  0  0  0  0  0  0  0
   59.5240   27.2380   45.6060 C   0  0  0  0  0  0  0  0  0  0  0  0
   58.9290   26.1570   46.2610 C   0  0  0  0  0  0  0  0  0  0  0  0
   57.5430   26.1160   46.4210 C   0  0  0  0  0  0  0  0  0  0  0  0
   56.7480   27.1570   45.9310 C   0  0  0  0  0  0  0  0  0  0  0  0
   63.0255   31.5164   50.4004 H   0  0  0  0  0  0  0  0  0  0  0  0
   63.4312   30.7039   48.8506 H   0  0  0  0  0  0  0  0  0  0  0  0
   62.3993   32.1742   48.8506 H   0  0  0  0  0  0  0  0  0  0  0  0
   61.6140   29.9399   51.6997 H   0  0  0  0  0  0  0  0  0  0  0  0
   62.6869   32.4048   46.8037 H   0  0  0  0  0  0  0  0  0  0  0  0
   62.4553   34.8514   46.3932 H   0  0  0  0  0  0  0  0  0  0  0  0
   60.1917   35.8801   46.1953 H   0  0  0  0  0  0  0  0  0  0  0  0
   58.1550   34.4520   46.3347 H   0  0  0  0  0  0  0  0  0  0  0  0
   58.7445   33.4780   44.6394 H   0  0  0  0  0  0  0  0  0  0  0  0
   58.5724   33.5877   42.1569 H   0  0  0  0  0  0  0  0  0  0  0  0
   57.4102   31.7704   40.9025 H   0  0  0  0  0  0  0  0  0  0  0  0
   56.4380   29.8317   42.1267 H   0  0  0  0  0  0  0  0  0  0  0  0
   59.2076   29.1263   44.5922 H   0  0  0  0  0  0  0  0  0  0  0  0
   60.6161   27.2687   45.4779 H   0  0  0  0  0  0  0  0  0  0  0  0
   59.5524   25.3386   46.6504 H   0  0  0  0  0  0  0  0  0  0  0  0
   57.0749   25.2628   46.9338 H   0  0  0  0  0  0  0  0  0  0  0  0
   55.6559   27.1161   46.0562 H   0  0  0  0  0  0  0  0  0  0  0  0
  1  2  1  0
  2  3  2  0
  3  4  1  0
  4  5  1  0
  5  6  2  0
  5  7  1  0
  7  8  1  0
  8  9  2  0
  8 10  1  0
 10 11  2  0
 11 12  1  0
 12 13  2  0
 13 14  1  0
 14 15  2  0
 15 16  1  0
 16 17  1  0
 17 18  2  0
 18 19  1  0
 19 20  2  0
 20 21  1  0
 21 22  2  0
 22 23  1  0
 23 24  2  0
 23 25  1  0
 25 26  2  0
 26 27  1  0
 27 28  2  0
 28 29  1  0
 29 30  2  0
  7  2  1  0
 15 10  1  0
 22 17  1  0
 30 25  1  0
  1 31  1  0
  1 32  1  0
  1 33  1  0
  3 34  1  0
 11 35  1  0
 12 36  1  0
 13 37  1  0
 14 38  1  0
 18 39  1  0
 19 40  1  0
 20 41  1  0
 21 42  1  0
 26 43  1  0
 27 44  1  0
 28 45  1  0
 29 46  1  0
 30 47  1  0
M  END
>  <UniqueID>  (32) 
30

>  <SMILES>  (32) 
Cc1csc(=O)n1C(=O)c1ccccc1Sc1ccccc1C(=O)c1ccccc1

>  <Energy>  (32) 
94.78513507194066

>  <Genealogy>  (32) 
Cc1csc(=O)n1C(=O)c1ccccc1Sc1ccccc1C(=O)c1ccccc1 (3D coordinates assigned)
Cc1csc(=O)n1C(=O)c1ccccc1Sc1ccccc1C(=O)c1ccccc1 (optimized conformer: 94.78513507194066 kcal/mol)

>  <smiles>  (32) 
Cc1csc(=O)n1C(=O)c1ccccc1Sc1ccccc1C(=O)c1ccccc1

>  <score_type>  (32) 
oracle

>  <origin>  (32) 
adg

>  <m_score__min__energy>  (32) 
-9.7799999999999994

>  <m_primary>  (32) 
energy

$$$$
32:0
     RDKit          3D

 42 45  0  0  0  0  0  0  0  0999 V2000
   54.7980   30.9979   43.8882 H   0  0  0  0  0  0  0  0  0  0  0  0
   55.6680   30.3770   44.1480 C   0  0  0  0  0  0  0  0  0  0  0  0
   55.5530   29.2020   44.8230 N   0  0  0  0  0  0  0  0  0  0  0  0
   56.7580   28.6330   45.0470 C   0  0  0  0  0  0  0  0  0  0  0  0
   56.8880   27.5310   45.7260 N   0  0  0  0  0  0  0  0  0  0  0  0
   57.7940   27.3180   46.8220 C   0  0  0  0  0  0  0  0  0  0  0  0
   57.6390   26.2980   47.5430 O   0  0  0  0  0  0  0  0  0  0  0  0
   58.8480   28.3080   47.1680 C   0  0  0  0  0  0  0  0  0  0  0  0
   58.5310   29.4330   47.9420 C   0  0  0  0  0  0  0  0  0  0  0  0
   57.5193   29.5476   48.3583 H   0  0  0  0  0  0  0  0  0  0  0  0
   59.5010   30.4080   48.1840 C   0  0  0  0  0  0  0  0  0  0  0  0
   59.2020   31.5750   48.9010 C   0  0  0  0  0  0  0  0  0  0  0  0
   58.1903   31.7282   49.3048 H   0  0  0  0  0  0  0  0  0  0  0  0
   60.1940   32.5490   49.1040 C   0  0  0  0  0  0  0  0  0  0  0  0
   59.8920   33.7960   49.8820 C   0  0  0  0  0  0  0  0  0  0  0  0
   59.9448   33.5781   50.9589 H   0  0  0  0  0  0  0  0  0  0  0  0
   60.6278   34.5734   49.6287 H   0  0  0  0  0  0  0  0  0  0  0  0
   58.8820   34.1506   49.6287 H   0  0  0  0  0  0  0  0  0  0  0  0
   61.4900   32.3310   48.6100 C   0  0  0  0  0  0  0  0  0  0  0  0
   62.2746   33.0820   48.7844 H   0  0  0  0  0  0  0  0  0  0  0  0
   61.7900   31.1660   47.8980 C   0  0  0  0  0  0  0  0  0  0  0  0
   62.8075   31.0049   47.5124 H   0  0  0  0  0  0  0  0  0  0  0  0
   60.7990   30.2050   47.6750 C   0  0  0  0  0  0  0  0  0  0  0  0
   61.0820   29.1060   46.9810 O   0  0  0  0  0  0  0  0  0  0  0  0
   60.1760   28.1700   46.7120 C   0  0  0  0  0  0  0  0  0  0  0  0
   60.5190   27.1700   46.0240 O   0  0  0  0  0  0  0  0  0  0  0  0
   58.0120   29.5440   44.3790 S   0  0  0  0  0  0  0  0  0  0  0  0
   56.9700   30.7340   43.8110 C   0  0  0  0  0  0  0  0  0  0  0  0
   57.4080   32.0490   43.2500 C   0  0  0  0  0  0  0  0  0  0  0  0
   58.2351   31.8887   42.5427 H   0  0  0  0  0  0  0  0  0  0  0  0
   56.5647   32.5235   42.7268 H   0  0  0  0  0  0  0  0  0  0  0  0
   57.8710   32.9430   44.3690 C   0  0  0  0  0  0  0  0  0  0  0  0
   58.9470   33.8260   44.1720 C   0  0  0  0  0  0  0  0  0  0  0  0
   59.4142   33.9065   43.1794 H   0  0  0  0  0  0  0  0  0  0  0  0
   59.4260   34.6020   45.2310 C   0  0  0  0  0  0  0  0  0  0  0  0
   60.2654   35.2943   45.0693 H   0  0  0  0  0  0  0  0  0  0  0  0
   58.8390   34.4990   46.4960 C   0  0  0  0  0  0  0  0  0  0  0  0
   59.2131   35.1138   47.3279 H   0  0  0  0  0  0  0  0  0  0  0  0
   57.7760   33.6140   46.7030 C   0  0  0  0  0  0  0  0  0  0  0  0
   57.3166   33.5313   47.6990 H   0  0  0  0  0  0  0  0  0  0  0  0
   57.2960   32.8340   45.6460 C   0  0  0  0  0  0  0  0  0  0  0  0
   56.4655   32.1329   45.8152 H   0  0  0  0  0  0  0  0  0  0  0  0
  1  2  1  0
  2  3  1  0
  3  4  1  0
  4  5  2  0
  5  6  1  0
  6  7  2  0
  6  8  1  0
  8  9  2  0
  9 10  1  0
  9 11  1  0
 11 12  2  0
 12 13  1  0
 12 14  1  0
 14 15  1  0
 15 16  1  0
 15 17  1  0
 15 18  1  0
 14 19  2  0
 19 20  1  0
 19 21  1  0
 21 22  1  0
 21 23  2  0
 23 24  1  0
 24 25  1  0
 25 26  2  0
  4 27  1  0
 27 28  1  0
 28 29  1  0
 29 30  1  0
 29 31  1  0
 29 32  1  0
 32 33  2  0
 33 34  1  0
 33 35  1  0
 35 36  1  0
 35 37  2  0
 37 38  1  0
 37 39  1  0
 39 40  1  0
 39 41  2  0
 41 42  1  0
 28  2  2  0
 41 32  1  0
 25  8  1  0
 23 11  1  0
M  CHG  1   3  -1
M  END
>  <UniqueID>  (33) 
31

>  <SMILES>  (33) 
Cc1ccc2oc(=O)c(C(=O)/N=c3/[n-]cc(Cc4ccccc4)s3)cc2c1

>  <Energy>  (33) 
85.33811567614501

>  <Genealogy>  (33) 
Cc1ccc2oc(=O)c(C(=O)N=c3[n-]cc(Cc4ccccc4)s3)cc2c1 (protonated)
Cc1ccc2oc(=O)c(C(=O)/N=c3/[n-]cc(Cc4ccccc4)s3)cc2c1 (cis-trans isomerization)
Cc1ccc2oc(=O)c(C(=O)/N=c3/[n-]cc(Cc4ccccc4)s3)cc2c1 (3D coordinates assigned)
Cc1ccc2oc(=O)c(C(=O)/N=c3/[n-]cc(Cc4ccccc4)s3)cc2c1 (optimized conformer: 85.33811567614501 kcal/mol)

>  <smiles>  (33) 
Cc1ccc2oc(=O)c(C(=O)N=c3[nH]cc(Cc4ccccc4)s3)cc2c1

>  <score_type>  (33) 
oracle

>  <origin>  (33) 
adg

>  <m_score__min__energy>  (33) 
-11.43

>  <m_primary>  (33) 
energy

$$$$
33:0
     RDKit          3D

 28 29  0  0  0  0  0  0  0  0999 V2000
   61.3710   31.2860   47.5870 N   0  0  0  0  0  0  0  0  0  0  0  0
   60.5080   31.7450   46.9670 C   0  0  0  0  0  0  0  0  0  0  0  0
   59.4360   32.3160   46.1950 C   0  0  0  0  0  0  0  0  0  0  0  0
   59.5380   33.6310   45.7230 C   0  0  0  0  0  0  0  0  0  0  0  0
   58.5080   34.1780   44.9540 C   0  0  0  0  0  0  0  0  0  0  0  0
   57.3710   33.4200   44.6630 C   0  0  0  0  0  0  0  0  0  0  0  0
   57.2440   32.1130   45.1530 C   0  0  0  0  0  0  0  0  0  0  0  0
   56.0710   31.3610   44.8160 N   0  0  0  0  0  0  0  0  0  0  0  0
   56.0450   30.0560   44.2250 C   0  0  0  0  0  0  0  0  0  0  0  0
   56.2940   29.9380   42.9970 O   0  0  0  0  0  0  0  0  0  0  0  0
   55.7330   28.9030   45.0160 N   0  0  0  0  0  0  0  0  0  0  0  0
   56.6720   27.9110   45.4510 C   0  0  0  0  0  0  0  0  0  0  0  0
   58.0390   28.2140   45.3910 C   0  0  0  0  0  0  0  0  0  0  0  0
   58.9920   27.2810   45.8100 C   0  0  0  0  0  0  0  0  0  0  0  0
   60.7010   27.6630   45.7080 Cl  0  0  0  0  0  0  0  0  0  0  0  0
   58.5830   26.0420   46.3120 C   0  0  0  0  0  0  0  0  0  0  0  0
   57.2210   25.7430   46.4090 C   0  0  0  0  0  0  0  0  0  0  0  0
   56.2580   26.6780   45.9970 C   0  0  0  0  0  0  0  0  0  0  0  0
   54.9030   26.3940   46.1590 O   0  0  0  0  0  0  0  0  0  0  0  0
   58.2960   31.5550   45.9040 C   0  0  0  0  0  0  0  0  0  0  0  0
   60.4286   34.2325   45.9578 H   0  0  0  0  0  0  0  0  0  0  0  0
   58.5923   35.2078   44.5767 H   0  0  0  0  0  0  0  0  0  0  0  0
   56.5700   33.8519   44.0451 H   0  0  0  0  0  0  0  0  0  0  0  0
   58.3646   29.1937   45.0112 H   0  0  0  0  0  0  0  0  0  0  0  0
   59.3327   25.3027   46.6305 H   0  0  0  0  0  0  0  0  0  0  0  0
   56.9019   24.7698   46.8103 H   0  0  0  0  0  0  0  0  0  0  0  0
   54.2310   27.1200   46.3730 H   0  0  0  0  0  0  0  0  0  0  0  0
   58.2228   30.5180   46.2636 H   0  0  0  0  0  0  0  0  0  0  0  0
  1  2  3  0
  2  3  1  0
  3  4  2  0
  4  5  1  0
  5  6  2  0
  6  7  1  0
  7  8  1  0
  8  9  1  0
  9 10  2  0
  9 11  1  0
 11 12  1  0
 12 13  2  0
 13 14  1  0
 14 15  1  0
 14 16  2  0
 16 17  1  0
 17 18  2  0
 18 19  1  0
  7 20  2  0
 20  3  1  0
 18 12  1  0
  4 21  1  0
  5 22  1  0
  6 23  1  0
 13 24  1  0
 16 25  1  0
 17 26  1  0
 19 27  1  0
 20 28  1  0
M  CHG  2   8  -1  11  -1
M  END
>  <UniqueID>  (34) 
32

>  <SMILES>  (34) 
N#Cc1cccc([N-]C(=O)[N-]c2cc(Cl)ccc2O)c1

>  <Energy>  (34) 
36.52999667510734

>  <Genealogy>  (34) 
N#Cc1cccc([N-]C(=O)[N-]c2cc(Cl)ccc2O)c1 (protonated)
N#Cc1cccc([N-]C(=O)[N-]c2cc(Cl)ccc2O)c1 (3D coordinates assigned)
N#Cc1cccc([N-]C(=O)[N-]c2cc(Cl)ccc2O)c1 (optimized conformer: 36.52999667510734 kcal/mol)

>  <smiles>  (34) 
N#Cc1cccc(NC(=O)Nc2cc(Cl)ccc2O)c1

>  <score_type>  (34) 
oracle

>  <origin>  (34) 
adg

>  <m_score__min__energy>  (34) 
-11.869999999999999

>  <m_primary>  (34) 
energy

$$$$
34:0
     RDKit          3D

 47 49  0  0  0  0  0  0  0  0999 V2000
   57.4350   31.3470   42.9720 C   0  0  0  0  0  0  0  0  0  0  0  0
   57.8790   32.1820   44.0960 N   0  0  0  0  0  0  0  0  0  0  0  0
   58.5000   33.3750   43.8430 C   0  0  0  0  0  0  0  0  0  0  0  0
   58.9260   34.1920   44.8890 C   0  0  0  0  0  0  0  0  0  0  0  0
   58.7230   33.7870   46.2100 C   0  0  0  0  0  0  0  0  0  0  0  0
   59.1830   34.6530   47.3120 C   0  0  0  0  0  0  0  0  0  0  0  0
   59.3450   35.8830   47.1000 O   0  0  0  0  0  0  0  0  0  0  0  0
   59.4800   34.1250   48.6100 N   0  0  0  0  0  0  0  0  0  0  0  0
   60.7220   33.4450   48.9520 C   0  0  0  0  0  0  0  0  0  0  0  0
   60.7050   32.0590   48.3770 C   0  0  0  0  0  0  0  0  0  0  0  0
   60.4180   30.9550   49.1950 C   0  0  0  0  0  0  0  0  0  0  0  0
   60.3710   29.6690   48.6510 C   0  0  0  0  0  0  0  0  0  0  0  0
   60.5860   29.4710   47.2750 C   0  0  0  0  0  0  0  0  0  0  0  0
   60.5630   28.1940   46.6950 O   0  0  0  0  0  0  0  0  0  0  0  0
   59.5670   27.7090   45.8350 C   0  0  0  0  0  0  0  0  0  0  0  0
   59.5900   27.9630   44.4520 C   0  0  0  0  0  0  0  0  0  0  0  0
   58.5850   27.4520   43.6260 C   0  0  0  0  0  0  0  0  0  0  0  0
   57.5610   26.6730   44.1690 C   0  0  0  0  0  0  0  0  0  0  0  0
   57.5420   26.3900   45.5410 C   0  0  0  0  0  0  0  0  0  0  0  0
   56.2530   25.4110   46.2310 S   0  0  0  0  0  0  0  0  0  0  0  0
   54.7360   26.2050   45.9950 N   0  0  0  0  0  0  0  0  0  0  0  0
   56.2200   24.0640   45.5650 O   0  0  0  0  0  0  0  0  0  0  0  0
   56.4950   25.2150   47.7020 O   0  0  0  0  0  0  0  0  0  0  0  0
   58.5470   26.9110   46.3690 C   0  0  0  0  0  0  0  0  0  0  0  0
   60.8770   30.5730   46.4630 C   0  0  0  0  0  0  0  0  0  0  0  0
   60.9260   31.8600   47.0050 C   0  0  0  0  0  0  0  0  0  0  0  0
   58.0530   32.5820   46.4670 C   0  0  0  0  0  0  0  0  0  0  0  0
   57.7860   32.2030   47.7850 O   0  0  0  0  0  0  0  0  0  0  0  0
   57.6390   31.7820   45.3860 C   0  0  0  0  0  0  0  0  0  0  0  0
   57.0420   30.6930   45.6120 O   0  0  0  0  0  0  0  0  0  0  0  0
   56.9516   30.4379   43.3591 H   0  0  0  0  0  0  0  0  0  0  0  0
   56.7175   31.9106   42.3576 H   0  0  0  0  0  0  0  0  0  0  0  0
   58.3035   31.0672   42.3576 H   0  0  0  0  0  0  0  0  0  0  0  0
   58.6648   33.6927   42.8028 H   0  0  0  0  0  0  0  0  0  0  0  0
   59.4198   35.1513   44.6749 H   0  0  0  0  0  0  0  0  0  0  0  0
   61.5732   34.0044   48.5367 H   0  0  0  0  0  0  0  0  0  0  0  0
   60.8210   33.3881   50.0461 H   0  0  0  0  0  0  0  0  0  0  0  0
   60.2294   31.1029   50.2686 H   0  0  0  0  0  0  0  0  0  0  0  0
   60.1648   28.8067   49.3021 H   0  0  0  0  0  0  0  0  0  0  0  0
   60.4017   28.5659   44.0189 H   0  0  0  0  0  0  0  0  0  0  0  0
   58.6006   27.6637   42.5467 H   0  0  0  0  0  0  0  0  0  0  0  0
   56.7666   26.2803   43.5173 H   0  0  0  0  0  0  0  0  0  0  0  0
   54.7590   27.0820   46.5620 H   0  0  0  0  0  0  0  0  0  0  0  0
   58.5342   26.6912   47.4467 H   0  0  0  0  0  0  0  0  0  0  0  0
   61.0686   30.4249   45.3900 H   0  0  0  0  0  0  0  0  0  0  0  0
   61.1386   32.7208   46.3539 H   0  0  0  0  0  0  0  0  0  0  0  0
   58.2400   32.6430   48.5770 H   0  0  0  0  0  0  0  0  0  0  0  0
  1  2  1  0
  2  3  1  0
  3  4  2  0
  4  5  1  0
  5  6  1  0
  6  7  2  0
  6  8  1  0
  8  9  1  0
  9 10  1  0
 10 11  2  0
 11 12  1  0
 12 13  2  0
 13 14  1  0
 14 15  1  0
 15 16  2  0
 16 17  1  0
 17 18  2  0
 18 19  1  0
 19 20  1  0
 20 21  1  0
 20 22  2  0
 20 23  2  0
 19 24  2  0
 13 25  1  0
 25 26  2  0
  5 27  2  0
 27 28  1  0
 27 29  1  0
 29 30  2  0
 29  2  1  0
 26 10  1  0
 24 15  1  0
  1 31  1  0
  1 32  1  0
  1 33  1  0
  3 34  1  0
  4 35  1  0
  9 36  1  0
  9 37  1  0
 11 38  1  0
 12 39  1  0
 16 40  1  0
 17 41  1  0
 18 42  1  0
 21 43  1  0
 24 44  1  0
 25 45  1  0
 26 46  1  0
 28 47  1  0
M  CHG  2   8  -1  21  -1
M  END
>  <UniqueID>  (35) 
33

>  <SMILES>  (35) 
Cn1ccc(C(=O)[N-]Cc2ccc(Oc3cccc(S([NH-])(=O)=O)c3)cc2)c(O)c1=O

>  <Energy>  (35) 
62.57474138952423

>  <Genealogy>  (35) 
Cn1ccc(C(=O)[N-]Cc2ccc(Oc3cccc(S([NH-])(=O)=O)c3)cc2)c(O)c1=O (protonated)
Cn1ccc(C(=O)[N-]Cc2ccc(Oc3cccc(S([NH-])(=O)=O)c3)cc2)c(O)c1=O (3D coordinates assigned)
Cn1ccc(C(=O)[N-]Cc2ccc(Oc3cccc(S([NH-])(=O)=O)c3)cc2)c(O)c1=O (optimized conformer: 62.57474138952423 kcal/mol)

>  <smiles>  (35) 
Cn1ccc(C(=O)NCc2ccc(Oc3cccc(S(N)(=O)=O)c3)cc2)c(O)c1=O

>  <score_type>  (35) 
oracle

>  <origin>  (35) 
adg

>  <m_score__min__energy>  (35) 
-11.73

>  <m_primary>  (35) 
energy

$$$$
35:0
     RDKit          3D

 31 33  0  0  0  0  0  0  0  0999 V2000
   56.2810   22.7300   48.3150 H   0  0  0  0  0  0  0  0  0  0  0  0
   57.0800   22.9750   47.6880 N   0  0  0  0  0  0  0  0  0  0  0  0
   57.2120   24.1560   47.1750 C   0  0  0  0  0  0  0  0  0  0  0  0
   58.4550   24.7140   47.0960 N   0  0  0  0  0  0  0  0  0  0  0  0
   58.5940   25.9500   46.5580 C   0  0  0  0  0  0  0  0  0  0  0  0
   57.5270   26.6510   46.0930 C   0  0  0  0  0  0  0  0  0  0  0  0
   56.2490   26.0910   46.1720 C   0  0  0  0  0  0  0  0  0  0  0  0
   55.2340   26.7120   45.7620 O   0  0  0  0  0  0  0  0  0  0  0  0
   56.1180   24.8450   46.7140 N   0  0  0  0  0  0  0  0  0  0  0  0
   55.1660   24.4160   46.7770 H   0  0  0  0  0  0  0  0  0  0  0  0
   57.9330   27.9080   45.5760 N   0  0  0  0  0  0  0  0  0  0  0  0
   56.9530   29.0320   44.6890 S   0  0  0  0  0  0  0  0  0  0  0  0
   55.5420   28.9900   45.2070 O   0  0  0  0  0  0  0  0  0  0  0  0
   56.9520   28.6410   43.2380 O   0  0  0  0  0  0  0  0  0  0  0  0
   57.5830   30.6640   44.8910 C   0  0  0  0  0  0  0  0  0  0  0  0
   57.4850   31.5960   43.8470 C   0  0  0  0  0  0  0  0  0  0  0  0
   57.0069   31.3098   42.8986 H   0  0  0  0  0  0  0  0  0  0  0  0
   57.9940   32.8880   44.0100 C   0  0  0  0  0  0  0  0  0  0  0  0
   57.9185   33.6155   43.1884 H   0  0  0  0  0  0  0  0  0  0  0  0
   58.5990   33.2570   45.2160 C   0  0  0  0  0  0  0  0  0  0  0  0
   59.2380   34.8770   45.4180 Cl  0  0  0  0  0  0  0  0  0  0  0  0
   58.6940   32.3310   46.2610 C   0  0  0  0  0  0  0  0  0  0  0  0
   59.1694   32.6202   47.2099 H   0  0  0  0  0  0  0  0  0  0  0  0
   58.1850   31.0380   46.1000 C   0  0  0  0  0  0  0  0  0  0  0  0
   58.2574   30.3132   46.9242 H   0  0  0  0  0  0  0  0  0  0  0  0
   59.3860   28.0160   45.6930 C   0  0  0  0  0  0  0  0  0  0  0  0
   59.8437   28.1069   44.6969 H   0  0  0  0  0  0  0  0  0  0  0  0
   59.6782   28.9062   46.2693 H   0  0  0  0  0  0  0  0  0  0  0  0
   59.8580   26.7130   46.3850 C   0  0  0  0  0  0  0  0  0  0  0  0
   60.5682   26.1630   45.7501 H   0  0  0  0  0  0  0  0  0  0  0  0
   60.3892   26.8925   47.3314 H   0  0  0  0  0  0  0  0  0  0  0  0
  1  2  1  0
  2  3  2  0
  3  4  1  0
  4  5  1  0
  5  6  2  0
  6  7  1  0
  7  8  2  0
  7  9  1  0
  9 10  1  0
  6 11  1  0
 11 12  1  0
 12 13  2  0
 12 14  2  0
 12 15  1  0
 15 16  2  0
 16 17  1  0
 16 18  1  0
 18 19  1  0
 18 20  2  0
 20 21  1  0
 20 22  1  0
 22 23  1  0
 22 24  2  0
 24 25  1  0
 11 26  1  0
 26 27  1  0
 26 28  1  0
 26 29  1  0
 29 30  1  0
 29 31  1  0
  9  3  1  0
 24 15  1  0
 29  5  1  0
M  CHG  1   4  -1
M  END
>  <UniqueID>  (36) 
34

>  <SMILES>  (36) 
[H]/N=c1/[n-]c2c(c(=O)[nH]1)N(S(=O)(=O)c1ccc(Cl)cc1)CC2

>  <Energy>  (36) 
52.158061973593654

>  <Genealogy>  (36) 
N=c1[n-]c2c(c(=O)[nH]1)N(S(=O)(=O)c1ccc(Cl)cc1)CC2 (protonated)
[H]/N=c1/[n-]c2c(c(=O)[nH]1)N(S(=O)(=O)c1ccc(Cl)cc1)CC2 (cis-trans isomerization)
[H]/N=c1/[n-]c2c(c(=O)[nH]1)N(S(=O)(=O)c1ccc(Cl)cc1)CC2 (3D coordinates assigned)
[H]/N=c1/[n-]c2c(c(=O)[nH]1)N(S(=O)(=O)c1ccc(Cl)cc1)CC2 (nonaromatic ring conformer: 52.158061973593654 kcal/mol)

>  <smiles>  (36) 
N=c1[nH]c2c(c(=O)[nH]1)N(S(=O)(=O)c1ccc(Cl)cc1)CC2

>  <score_type>  (36) 
oracle

>  <origin>  (36) 
adg

>  <m_score__min__energy>  (36) 
-9.6899999999999995

>  <m_primary>  (36) 
energy

$$$$
36:0
     RDKit          3D

 59 63  0  0  0  0  0  0  0  0999 V2000
   58.1690   34.2160   46.9400 O   0  0  0  0  0  0  0  0  0  0  0  0
   59.0670   33.3710   47.2090 C   0  0  0  0  0  0  0  0  0  0  0  0
   60.0480   33.6640   48.3050 C   0  0  0  0  0  0  0  0  0  0  0  0
   59.5650   33.1220   49.5780 N   0  0  0  0  0  0  0  0  0  0  0  0
   59.2760   33.8610   50.6710 C   0  0  0  0  0  0  0  0  0  0  0  0
   58.8520   33.0460   51.7010 C   0  0  0  0  0  0  0  0  0  0  0  0
   58.8600   31.7640   51.2010 C   0  0  0  0  0  0  0  0  0  0  0  0
   58.5040   30.6010   51.9620 N   0  0  0  0  0  0  0  0  0  0  0  0
   57.2940   30.2300   52.2580 C   0  0  0  0  0  0  0  0  0  0  0  0
   56.2290   31.1020   52.0020 C   0  0  0  0  0  0  0  0  0  0  0  0
   54.9120   30.7160   52.3260 C   0  0  0  0  0  0  0  0  0  0  0  0
   53.7680   31.5200   52.1320 O   0  0  0  0  0  0  0  0  0  0  0  0
   52.3870   31.1700   51.9280 C   0  0  0  0  0  0  0  0  0  0  0  0
   51.8810   31.2780   50.5130 C   0  0  0  0  0  0  0  0  0  0  0  0
   50.9690   32.2990   50.8570 O   0  0  0  0  0  0  0  0  0  0  0  0
   51.3790   32.2560   52.2070 C   0  0  0  0  0  0  0  0  0  0  0  0
   54.7070   29.4480   52.8780 C   0  0  0  0  0  0  0  0  0  0  0  0
   55.7900   28.5980   53.1050 C   0  0  0  0  0  0  0  0  0  0  0  0
   57.0480   29.0020   52.7930 N   0  0  0  0  0  0  0  0  0  0  0  0
   59.3300   31.8250   49.8920 C   0  0  0  0  0  0  0  0  0  0  0  0
   59.6260   30.6780   48.9980 C   0  0  0  0  0  0  0  0  0  0  0  0
   58.7180   29.8440   48.7470 O   0  0  0  0  0  0  0  0  0  0  0  0
   60.9330   30.4480   48.4530 N   0  0  0  0  0  0  0  0  0  0  0  0
   62.0170   31.3860   48.3920 C   0  0  0  0  0  0  0  0  0  0  0  0
   62.3780   32.0190   47.1890 C   0  0  0  0  0  0  0  0  0  0  0  0
   63.4300   32.9400   47.1690 C   0  0  0  0  0  0  0  0  0  0  0  0
   63.7680   33.5570   46.0100 F   0  0  0  0  0  0  0  0  0  0  0  0
   64.1380   33.2190   48.3410 C   0  0  0  0  0  0  0  0  0  0  0  0
   63.8040   32.5690   49.5310 C   0  0  0  0  0  0  0  0  0  0  0  0
   62.7520   31.6470   49.5560 C   0  0  0  0  0  0  0  0  0  0  0  0
   62.4350   31.0230   50.7170 F   0  0  0  0  0  0  0  0  0  0  0  0
   59.1110   32.1150   46.5170 N   0  0  0  0  0  0  0  0  0  0  0  0
   58.4720   31.8860   45.2490 C   0  0  0  0  0  0  0  0  0  0  0  0
   58.3840   32.9180   44.2960 C   0  0  0  0  0  0  0  0  0  0  0  0
   57.7930   32.6850   43.0520 C   0  0  0  0  0  0  0  0  0  0  0  0
   57.2930   31.4190   42.7410 C   0  0  0  0  0  0  0  0  0  0  0  0
   57.3870   30.3830   43.6710 C   0  0  0  0  0  0  0  0  0  0  0  0
   57.9790   30.6060   44.9210 C   0  0  0  0  0  0  0  0  0  0  0  0
   58.0590   29.2730   46.0650 Cl  0  0  0  0  0  0  0  0  0  0  0  0
   61.0160   33.2033   48.0584 H   0  0  0  0  0  0  0  0  0  0  0  0
   60.1629   34.7538   48.4006 H   0  0  0  0  0  0  0  0  0  0  0  0
   59.3657   34.9557   50.7316 H   0  0  0  0  0  0  0  0  0  0  0  0
   58.5656   33.3581   52.7162 H   0  0  0  0  0  0  0  0  0  0  0  0
   56.4192   32.0862   51.5490 H   0  0  0  0  0  0  0  0  0  0  0  0
   52.4280   30.2239   52.4877 H   0  0  0  0  0  0  0  0  0  0  0  0
   52.6495   31.5983   49.7941 H   0  0  0  0  0  0  0  0  0  0  0  0
   51.5091   30.3753   50.0062 H   0  0  0  0  0  0  0  0  0  0  0  0
   51.8300   33.1951   52.5602 H   0  0  0  0  0  0  0  0  0  0  0  0
   50.6247   32.0992   52.9921 H   0  0  0  0  0  0  0  0  0  0  0  0
   53.6889   29.1195   53.1341 H   0  0  0  0  0  0  0  0  0  0  0  0
   55.6244   27.6000   53.5370 H   0  0  0  0  0  0  0  0  0  0  0  0
   61.8318   31.7892   46.2623 H   0  0  0  0  0  0  0  0  0  0  0  0
   64.9589   33.9511   48.3262 H   0  0  0  0  0  0  0  0  0  0  0  0
   64.3691   32.7823   50.4504 H   0  0  0  0  0  0  0  0  0  0  0  0
   59.6300   31.3270   46.9660 H   0  0  0  0  0  0  0  0  0  0  0  0
   58.7835   33.9152   44.5325 H   0  0  0  0  0  0  0  0  0  0  0  0
   57.7214   33.4998   42.3165 H   0  0  0  0  0  0  0  0  0  0  0  0
   56.8247   31.2382   41.7622 H   0  0  0  0  0  0  0  0  0  0  0  0
   56.9943   29.3862   43.4214 H   0  0  0  0  0  0  0  0  0  0  0  0
  1  2  2  0
  2  3  1  0
  3  4  1  0
  4  5  1  0
  5  6  2  0
  6  7  1  0
  7  8  1  0
  8  9  2  3
  9 10  1  0
 10 11  2  0
 11 12  1  0
 12 13  1  0
 13 14  1  0
 14 15  1  0
 15 16  1  0
 11 17  1  0
 17 18  2  0
 18 19  1  0
  7 20  2  0
 20 21  1  0
 21 22  2  0
 21 23  1  0
 23 24  1  0
 24 25  2  0
 25 26  1  0
 26 27  1  0
 26 28  2  0
 28 29  1  0
 29 30  2  0
 30 31  1  0
  2 32  1  0
 32 33  1  0
 33 34  2  0
 34 35  1  0
 35 36  2  0
 36 37  1  0
 37 38  2  0
 38 39  1  0
 20  4  1  0
 30 24  1  0
 38 33  1  0
 19  9  1  0
 16 13  1  0
  3 40  1  0
  3 41  1  0
  5 42  1  0
  6 43  1  0
 10 44  1  0
 13 45  1  0
 14 46  1  0
 14 47  1  0
 16 48  1  0
 16 49  1  0
 17 50  1  0
 18 51  1  0
 25 52  1  0
 28 53  1  0
 29 54  1  0
 32 55  1  0
 34 56  1  0
 35 57  1  0
 36 58  1  0
 37 59  1  0
M  CHG  2  19  -1  23  -1
M  END
>  <UniqueID>  (37) 
35

>  <SMILES>  (37) 
O=C(Cn1ccc(N=c2cc(OC3COC3)cc[n-]2)c1C(=O)[N-]c1cc(F)ccc1F)Nc1ccccc1Cl

>  <Energy>  (37) 
177.96309697911843

>  <Genealogy>  (37) 
O=C(Cn1ccc(N=c2cc(OC3COC3)cc[n-]2)c1C(=O)[N-]c1cc(F)ccc1F)Nc1ccccc1Cl (protonated)
O=C(Cn1ccc(N=c2cc(OC3COC3)cc[n-]2)c1C(=O)[N-]c1cc(F)ccc1F)Nc1ccccc1Cl (3D coordinates assigned)
O=C(Cn1ccc(N=c2cc(OC3COC3)cc[n-]2)c1C(=O)[N-]c1cc(F)ccc1F)Nc1ccccc1Cl (nonaromatic ring conformer: 177.96309697911843 kcal/mol)

>  <smiles>  (37) 
O=C(Cn1ccc(N=c2cc(OC3COC3)cc[nH]2)c1C(=O)Nc1cc(F)ccc1F)Nc1ccccc1Cl

>  <score_type>  (37) 
oracle

>  <origin>  (37) 
adg

>  <m_score__min__energy>  (37) 
-13.83

>  <m_primary>  (37) 
energy

$$$$
37:0
     RDKit          3D

 50 53  0  0  0  0  0  0  0  0999 V2000
   65.6670   32.3340   50.2260 C   0  0  0  0  0  0  0  0  0  0  0  0
   64.3930   32.4680   49.4330 C   0  0  0  0  0  0  0  0  0  0  0  0
   64.3370   33.3890   48.3750 C   0  0  0  0  0  0  0  0  0  0  0  0
   63.1720   33.5350   47.6200 C   0  0  0  0  0  0  0  0  0  0  0  0
   62.0340   32.7620   47.9020 C   0  0  0  0  0  0  0  0  0  0  0  0
   60.8300   32.9160   47.1200 N   0  0  0  0  0  0  0  0  0  0  0  0
   60.2470   34.2130   46.7290 C   0  0  0  0  0  0  0  0  0  0  0  0
   58.8680   33.7920   46.2810 C   0  0  1  0  0  0  0  0  0  0  0  0
   57.9160   34.4680   45.3190 C   0  0  0  0  0  0  0  0  0  0  0  0
   57.0240   33.2580   44.9180 C   0  0  0  0  0  0  0  0  0  0  0  0
   57.8180   32.0560   45.2250 N   0  0  0  0  0  0  0  0  0  0  0  0
   57.4530   30.7310   44.8150 C   0  0  0  0  0  0  0  0  0  0  0  0
   56.2430   30.4700   44.5720 O   0  0  0  0  0  0  0  0  0  0  0  0
   58.4530   29.7170   44.6430 N   0  0  0  0  0  0  0  0  0  0  0  0
   58.1560   28.3130   44.6030 C   0  0  0  0  0  0  0  0  0  0  0  0
   58.0700   27.6630   43.3620 C   0  0  0  0  0  0  0  0  0  0  0  0
   57.7970   26.2930   43.2970 C   0  0  0  0  0  0  0  0  0  0  0  0
   57.6230   25.5580   44.4710 C   0  0  0  0  0  0  0  0  0  0  0  0
   57.7330   26.1880   45.7130 C   0  0  0  0  0  0  0  0  0  0  0  0
   58.0050   27.5590   45.7860 C   0  0  0  0  0  0  0  0  0  0  0  0
   58.1670   28.1340   47.0040 F   0  0  0  0  0  0  0  0  0  0  0  0
   59.1450   32.5020   45.5880 C   0  0  2  0  0  0  0  0  0  0  0  0
   60.0210   31.7960   46.6040 C   0  0  0  0  0  0  0  0  0  0  0  0
   62.0890   31.8360   48.9590 C   0  0  0  0  0  0  0  0  0  0  0  0
   63.2580   31.6780   49.7240 C   0  0  0  0  0  0  0  0  0  0  0  0
   63.2720   30.6780   50.8510 C   0  0  0  0  0  0  0  0  0  0  0  0
   65.4342   32.3585   51.3008 H   0  0  0  0  0  0  0  0  0  0  0  0
   66.1545   31.3796   49.9781 H   0  0  0  0  0  0  0  0  0  0  0  0
   66.3424   33.1661   49.9781 H   0  0  0  0  0  0  0  0  0  0  0  0
   65.2196   34.0015   48.1387 H   0  0  0  0  0  0  0  0  0  0  0  0
   63.1451   34.2630   46.7958 H   0  0  0  0  0  0  0  0  0  0  0  0
   60.1996   34.9069   47.5812 H   0  0  0  0  0  0  0  0  0  0  0  0
   60.8238   34.7552   45.9652 H   0  0  0  0  0  0  0  0  0  0  0  0
   58.3192   33.9554   47.2202 H   0  0  0  0  0  0  0  0  0  0  0  0
   57.3319   35.2589   45.8122 H   0  0  0  0  0  0  0  0  0  0  0  0
   58.4003   34.9833   44.4765 H   0  0  0  0  0  0  0  0  0  0  0  0
   56.0910   33.2600   45.5006 H   0  0  0  0  0  0  0  0  0  0  0  0
   56.7421   33.2969   43.8554 H   0  0  0  0  0  0  0  0  0  0  0  0
   59.4160   30.0210   44.3740 H   0  0  0  0  0  0  0  0  0  0  0  0
   58.2183   28.2351   42.4342 H   0  0  0  0  0  0  0  0  0  0  0  0
   57.7193   25.7940   42.3198 H   0  0  0  0  0  0  0  0  0  0  0  0
   57.3992   24.4823   44.4181 H   0  0  0  0  0  0  0  0  0  0  0  0
   57.6054   25.6046   46.6368 H   0  0  0  0  0  0  0  0  0  0  0  0
   59.7048   32.4046   44.6461 H   0  0  0  0  0  0  0  0  0  0  0  0
   59.4201   31.3333   47.4008 H   0  0  0  0  0  0  0  0  0  0  0  0
   60.6136   30.9678   46.1881 H   0  0  0  0  0  0  0  0  0  0  0  0
   61.2036   31.2258   49.1909 H   0  0  0  0  0  0  0  0  0  0  0  0
   63.2645   31.2103   51.8136 H   0  0  0  0  0  0  0  0  0  0  0  0
   62.3828   30.0343   50.7811 H   0  0  0  0  0  0  0  0  0  0  0  0
   64.1789   30.0594   50.7811 H   0  0  0  0  0  0  0  0  0  0  0  0
  1  2  1  0
  2  3  2  0
  3  4  1  0
  4  5  2  0
  5  6  1  0
  6  7  1  0
  7  8  1  0
  8  9  1  0
  9 10  1  0
 10 11  1  0
 11 12  1  0
 12 13  2  0
 12 14  1  0
 14 15  1  0
 15 16  2  0
 16 17  1  0
 17 18  2  0
 18 19  1  0
 19 20  2  0
 20 21  1  0
 11 22  1  0
 22 23  1  0
  5 24  1  0
 24 25  2  0
 25 26  1  0
 25  2  1  0
 23  6  1  0
 22  8  1  0
 20 15  1  0
  1 27  1  0
  1 28  1  0
  1 29  1  0
  3 30  1  0
  4 31  1  0
  7 32  1  0
  7 33  1  0
  8 34  1  1
  9 35  1  0
  9 36  1  0
 10 37  1  0
 10 38  1  0
 14 39  1  0
 16 40  1  0
 17 41  1  0
 18 42  1  0
 19 43  1  0
 22 44  1  6
 23 45  1  0
 23 46  1  0
 24 47  1  0
 26 48  1  0
 26 49  1  0
 26 50  1  0
M  END
>  <UniqueID>  (38) 
36

>  <SMILES>  (38) 
Cc1ccc(N2C[C@H]3CCN(C(=O)Nc4ccccc4F)[C@@H]3C2)cc1C

>  <Energy>  (38) 
97.34921210658354

>  <Genealogy>  (38) 
Cc1ccc(N2C[C@H]3CCN(C(=O)Nc4ccccc4F)[C@@H]3C2)cc1C (chirality)
Cc1ccc(N2C[C@H]3CCN(C(=O)Nc4ccccc4F)[C@@H]3C2)cc1C (3D coordinates assigned)
Cc1ccc(N2C[C@H]3CCN(C(=O)Nc4ccccc4F)[C@@H]3C2)cc1C (nonaromatic ring conformer: 97.34921210658354 kcal/mol)

>  <smiles>  (38) 
Cc1ccc(N2CC3CCN(C(=O)Nc4ccccc4F)C3C2)cc1C

>  <score_type>  (38) 
oracle

>  <origin>  (38) 
adg

>  <m_score__min__energy>  (38) 
-8.4800000000000004

>  <m_primary>  (38) 
energy

$$$$
38:0
     RDKit          3D

 48 49  0  0  0  0  0  0  0  0999 V2000
   64.1400   33.0920   48.8350 C   0  0  0  0  0  0  0  0  0  0  0  0
   62.6580   33.5070   48.7730 C   0  0  0  0  0  0  0  0  0  0  0  0
   61.8700   32.9410   47.6250 N   0  0  1  0  0  0  0  0  0  0  0  0
   62.1810   33.6940   46.3800 C   0  0  0  0  0  0  0  0  0  0  0  0
   62.2320   31.4930   47.4550 C   0  0  0  0  0  0  0  0  0  0  0  0
   61.0850   30.4820   47.6920 C   0  0  0  0  0  0  0  0  0  0  0  0
   60.6950   29.8800   46.4570 O   0  0  0  0  0  0  0  0  0  0  0  0
   59.6540   28.9530   46.2930 C   0  0  0  0  0  0  0  0  0  0  0  0
   59.2670   28.6190   44.9890 C   0  0  0  0  0  0  0  0  0  0  0  0
   58.2350   27.7040   44.7630 C   0  0  0  0  0  0  0  0  0  0  0  0
   57.5660   27.1090   45.8450 C   0  0  0  0  0  0  0  0  0  0  0  0
   56.4730   26.1420   45.6290 C   0  0  0  0  0  0  0  0  0  0  0  0
   55.2940   26.4000   45.9920 O   0  0  0  0  0  0  0  0  0  0  0  0
   57.9470   27.4430   47.1530 C   0  0  0  0  0  0  0  0  0  0  0  0
   58.9820   28.3570   47.3780 C   0  0  0  0  0  0  0  0  0  0  0  0
   60.4040   33.0530   47.9380 C   0  0  0  0  0  0  0  0  0  0  0  0
   59.5050   33.2700   46.7320 C   0  0  0  0  0  0  0  0  0  0  0  0
   59.3160   34.5610   46.2140 C   0  0  0  0  0  0  0  0  0  0  0  0
   58.4920   34.7630   45.1050 C   0  0  0  0  0  0  0  0  0  0  0  0
   57.8400   33.6830   44.5070 C   0  0  0  0  0  0  0  0  0  0  0  0
   57.9980   32.3840   45.0200 C   0  0  0  0  0  0  0  0  0  0  0  0
   57.3150   31.2730   44.4100 N   0  0  0  0  0  0  0  0  0  0  0  0
   56.6440   30.4790   45.1030 O   0  0  0  0  0  0  0  0  0  0  0  0
   57.3970   31.0630   43.0510 O   0  0  0  0  0  0  0  0  0  0  0  0
   58.8320   32.1880   46.1370 C   0  0  0  0  0  0  0  0  0  0  0  0
   64.4526   33.0045   49.8860 H   0  0  0  0  0  0  0  0  0  0  0  0
   64.2707   32.1227   48.3316 H   0  0  0  0  0  0  0  0  0  0  0  0
   64.7551   33.8525   48.3316 H   0  0  0  0  0  0  0  0  0  0  0  0
   62.1764   33.1810   49.7067 H   0  0  0  0  0  0  0  0  0  0  0  0
   62.6579   34.5974   48.6280 H   0  0  0  0  0  0  0  0  0  0  0  0
   62.5889   34.6817   46.6411 H   0  0  0  0  0  0  0  0  0  0  0  0
   62.9221   33.1357   45.7893 H   0  0  0  0  0  0  0  0  0  0  0  0
   61.2619   33.8214   45.7893 H   0  0  0  0  0  0  0  0  0  0  0  0
   62.5974   31.3545   46.4267 H   0  0  0  0  0  0  0  0  0  0  0  0
   62.9843   31.2794   48.2285 H   0  0  0  0  0  0  0  0  0  0  0  0
   61.4277   29.6997   48.3853 H   0  0  0  0  0  0  0  0  0  0  0  0
   60.2221   31.0124   48.1210 H   0  0  0  0  0  0  0  0  0  0  0  0
   59.7808   29.0818   44.1336 H   0  0  0  0  0  0  0  0  0  0  0  0
   57.9454   27.4487   43.7330 H   0  0  0  0  0  0  0  0  0  0  0  0
   56.6907   25.1795   45.1429 H   0  0  0  0  0  0  0  0  0  0  0  0
   57.4286   26.9833   48.0074 H   0  0  0  0  0  0  0  0  0  0  0  0
   59.2726   28.6116   48.4079 H   0  0  0  0  0  0  0  0  0  0  0  0
   60.0893   32.1238   48.4356 H   0  0  0  0  0  0  0  0  0  0  0  0
   60.2917   33.9462   48.5701 H   0  0  0  0  0  0  0  0  0  0  0  0
   59.8199   35.4182   46.6844 H   0  0  0  0  0  0  0  0  0  0  0  0
   58.3560   35.7770   44.7009 H   0  0  0  0  0  0  0  0  0  0  0  0
   57.1987   33.8497   43.6290 H   0  0  0  0  0  0  0  0  0  0  0  0
   58.9588   31.1762   46.5495 H   0  0  0  0  0  0  0  0  0  0  0  0
  1  2  1  0
  3  2  1  1
  3  4  1  0
  3  5  1  0
  5  6  1  0
  6  7  1  0
  7  8  1  0
  8  9  2  0
  9 10  1  0
 10 11  2  0
 11 12  1  0
 12 13  2  0
 11 14  1  0
 14 15  2  0
  3 16  1  0
 16 17  1  0
 17 18  2  0
 18 19  1  0
 19 20  2  0
 20 21  1  0
 21 22  1  0
 22 23  2  0
 22 24  1  0
 21 25  2  0
 15  8  1  0
 25 17  1  0
  1 26  1  0
  1 27  1  0
  1 28  1  0
  2 29  1  0
  2 30  1  0
  4 31  1  0
  4 32  1  0
  4 33  1  0
  5 34  1  0
  5 35  1  0
  6 36  1  0
  6 37  1  0
  9 38  1  0
 10 39  1  0
 12 40  1  0
 14 41  1  0
 15 42  1  0
 16 43  1  0
 16 44  1  0
 18 45  1  0
 19 46  1  0
 20 47  1  0
 25 48  1  0
M  CHG  3   3   1  22   1  24  -1
M  END
>  <UniqueID>  (39) 
37

>  <SMILES>  (39) 
CC[N@@+](C)(CCOc1ccc(C=O)cc1)Cc1cccc([N+](=O)[O-])c1

>  <Energy>  (39) 
62.917722269354144

>  <Genealogy>  (39) 
CC[N@@+](C)(CCOc1ccc(C=O)cc1)Cc1cccc([N+](=O)[O-])c1 (chirality)
CC[N@@+](C)(CCOc1ccc(C=O)cc1)Cc1cccc([N+](=O)[O-])c1 (3D coordinates assigned)
CC[N@@+](C)(CCOc1ccc(C=O)cc1)Cc1cccc([N+](=O)[O-])c1 (optimized conformer: 62.917722269354144 kcal/mol)

>  <smiles>  (39) 
CC[N+](C)(CCOc1ccc(C=O)cc1)Cc1cccc([N+](=O)[O-])c1

>  <score_type>  (39) 
oracle

>  <origin>  (39) 
adg

>  <m_score__min__energy>  (39) 
-6.4699999999999998

>  <m_primary>  (39) 
energy

$$$$
39:0
     RDKit          3D

 54 56  0  0  1  0  0  0  0  0999 V2000
   58.0350   27.0620   43.0840 C   0  0  0  0  0  0  0  0  0  0  0  0
   58.1040   26.1540   44.1840 N   0  0  0  0  0  0  0  0  0  0  0  0
   57.3540   24.9410   43.9060 C   0  0  0  0  0  0  0  0  0  0  0  0
   57.6040   26.8450   45.6670 S   0  0  0  0  0  0  0  0  0  0  0  0
   57.6380   25.7860   46.7440 O   0  0  0  0  0  0  0  0  0  0  0  0
   56.1620   27.3260   45.5940 O   0  0  0  0  0  0  0  0  0  0  0  0
   58.6150   28.1700   46.1520 C   0  0  0  0  0  0  0  0  0  0  0  0
   58.5350   28.7090   47.4230 C   0  0  0  0  0  0  0  0  0  0  0  0
   59.3230   29.7510   47.8540 C   0  0  0  0  0  0  0  0  0  0  0  0
   60.2410   30.2870   46.9730 C   0  0  0  0  0  0  0  0  0  0  0  0
   61.1120   31.3710   47.3680 N   0  0  0  0  0  0  0  0  0  0  0  0
   60.7320   31.9800   48.4660 C   0  0  0  0  0  0  0  0  0  0  0  0
   61.3510   31.7020   49.6410 N   0  0  0  0  0  0  0  0  0  0  0  0
   60.9790   32.3120   50.8010 C   0  0  0  0  0  0  0  0  0  0  0  0
   61.5850   32.0210   51.8690 O   0  0  0  0  0  0  0  0  0  0  0  0
   59.9890   33.2090   50.8230 N   0  0  0  0  0  0  0  0  0  0  0  0
   59.6070   33.8410   52.0490 C   0  0  0  0  0  0  0  0  0  0  0  0
   59.3620   33.4990   49.6810 C   0  0  0  0  0  0  0  0  0  0  0  0
   59.7220   32.8960   48.5010 C   0  0  0  0  0  0  0  0  0  0  0  0
   58.9960   33.2570   47.2920 C   0  0  0  0  0  0  0  0  0  0  0  0
   57.7900   33.6100   47.4510 O   0  0  0  0  0  0  0  0  0  0  0  0
   59.5860   33.2250   45.9920 N   0  0  0  0  0  0  0  0  0  0  0  0
   58.9080   33.5750   44.7850 C   0  0  0  0  0  0  0  0  0  0  0  0
   58.1440   32.5030   44.1450 C   0  0  0  0  0  0  0  0  0  0  0  0
   57.9910   32.3760   42.7800 C   0  0  0  0  0  0  0  0  0  0  0  0
   57.2500   31.3380   42.2110 C   0  0  0  0  0  0  0  0  0  0  0  0
   56.6540   30.4120   43.0500 C   0  0  0  0  0  0  0  0  0  0  0  0
   55.9320   29.4000   42.5110 F   0  0  0  0  0  0  0  0  0  0  0  0
   56.7930   30.5190   44.4160 C   0  0  0  0  0  0  0  0  0  0  0  0
   57.5370   31.5620   44.9790 C   0  0  0  0  0  0  0  0  0  0  0  0
   60.3580   29.7780   45.6800 C   0  0  0  0  0  0  0  0  0  0  0  0
   59.5420   28.7330   45.3020 C   0  0  0  0  0  0  0  0  0  0  0  0
   57.9568   28.0917   43.4629 H   0  0  0  0  0  0  0  0  0  0  0  0
   58.9431   26.9649   42.4709 H   0  0  0  0  0  0  0  0  0  0  0  0
   57.1520   26.8288   42.4709 H   0  0  0  0  0  0  0  0  0  0  0  0
   57.0604   24.4661   44.8538 H   0  0  0  0  0  0  0  0  0  0  0  0
   56.4530   25.1916   43.3269 H   0  0  0  0  0  0  0  0  0  0  0  0
   57.9808   24.2469   43.3269 H   0  0  0  0  0  0  0  0  0  0  0  0
   57.8037   28.2827   48.1255 H   0  0  0  0  0  0  0  0  0  0  0  0
   59.2241   30.1474   48.8753 H   0  0  0  0  0  0  0  0  0  0  0  0
   62.1420   31.0090   49.7090 H   0  0  0  0  0  0  0  0  0  0  0  0
   59.9687   33.2426   52.8982 H   0  0  0  0  0  0  0  0  0  0  0  0
   60.0480   34.8476   52.0955 H   0  0  0  0  0  0  0  0  0  0  0  0
   58.5107   33.9185   52.0955 H   0  0  0  0  0  0  0  0  0  0  0  0
   58.5431   34.2334   49.6851 H   0  0  0  0  0  0  0  0  0  0  0  0
   60.6000   32.9130   45.9730 H   0  0  0  0  0  0  0  0  0  0  0  0
   58.2107   34.3939   45.0158 H   0  0  0  0  0  0  0  0  0  0  0  0
   59.6977   33.8453   44.0685 H   0  0  0  0  0  0  0  0  0  0  0  0
   58.4674   33.1152   42.1192 H   0  0  0  0  0  0  0  0  0  0  0  0
   57.1422   31.2579   41.1192 H   0  0  0  0  0  0  0  0  0  0  0  0
   56.3141   29.7767   45.0715 H   0  0  0  0  0  0  0  0  0  0  0  0
   57.6429   31.6400   46.0711 H   0  0  0  0  0  0  0  0  0  0  0  0
   61.0878   30.2024   44.9748 H   0  0  0  0  0  0  0  0  0  0  0  0
   59.6346   28.3329   44.2816 H   0  0  0  0  0  0  0  0  0  0  0  0
  1  2  1  0
  2  3  1  0
  2  4  1  0
  4  5  2  0
  4  6  2  0
  4  7  1  0
  7  8  2  0
  8  9  1  0
  9 10  2  0
 10 11  1  0
 11 12  2  0
 12 13  1  0
 13 14  1  0
 14 15  2  0
 14 16  1  0
 16 17  1  0
 16 18  1  0
 18 19  2  0
 19 20  1  0
 20 21  2  0
 20 22  1  0
 22 23  1  0
 23 24  1  0
 24 25  2  0
 25 26  1  0
 26 27  2  0
 27 28  1  0
 27 29  1  0
 29 30  2  0
 10 31  1  0
 31 32  2  0
 32  7  1  0
 19 12  1  0
 30 24  1  0
  1 33  1  0
  1 34  1  0
  1 35  1  0
  3 36  1  0
  3 37  1  0
  3 38  1  0
  8 39  1  0
  9 40  1  0
 13 41  1  0
 17 42  1  0
 17 43  1  0
 17 44  1  0
 18 45  1  0
 22 46  1  0
 23 47  1  0
 23 48  1  0
 25 49  1  0
 26 50  1  0
 29 51  1  0
 30 52  1  0
 31 53  1  0
 32 54  1  0
M  END
>  <smiles>  (40) 
CN(C)S(=O)(=O)c1ccc(N=c2[nH]c(=O)n(C)cc2C(=O)NCc2ccc(F)cc2)cc1

>  <score_type>  (40) 
oracle

>  <origin>  (40) 
adg

>  <m_score__min__energy>  (40) 
-8.8200000000000003

>  <m_primary>  (40) 
energy

$$$$
40:0
     RDKit          3D

 43 45  0  0  0  0  0  0  0  0999 V2000
   59.4620   26.1350   45.6000 O   0  0  0  0  0  0  0  0  0  0  0  0
   58.5170   26.6270   46.2690 C   0  0  0  0  0  0  0  0  0  0  0  0
   57.2980   27.1290   45.5400 C   0  0  0  0  0  0  0  0  0  0  0  0
   57.5370   28.5340   45.0540 C   0  0  0  0  0  0  0  0  0  0  0  0
   58.8530   29.0140   44.9230 C   0  0  0  0  0  0  0  0  0  0  0  0
   59.0890   30.3240   44.4980 C   0  0  0  0  0  0  0  0  0  0  0  0
   58.0160   31.1680   44.2050 C   0  0  0  0  0  0  0  0  0  0  0  0
   56.7050   30.7040   44.3410 C   0  0  0  0  0  0  0  0  0  0  0  0
   56.4590   29.3960   44.7690 C   0  0  0  0  0  0  0  0  0  0  0  0
   55.1450   28.9620   44.9020 O   0  0  0  0  0  0  0  0  0  0  0  0
   58.7100   26.8450   47.6760 N   0  0  0  0  0  0  0  0  0  0  0  0
   59.1120   27.9510   48.2250 C   0  0  0  0  0  0  0  0  0  0  0  0
   58.6740   29.1780   47.8770 N   0  0  0  0  0  0  0  0  0  0  0  0
   59.2290   30.1500   48.6520 C   0  0  0  0  0  0  0  0  0  0  0  0
   58.8940   31.5650   48.4560 C   0  0  0  0  0  0  0  0  0  0  0  0
   59.0220   32.3850   49.4060 O   0  0  0  0  0  0  0  0  0  0  0  0
   58.4280   32.0000   47.1740 N   0  0  0  0  0  0  0  0  0  0  0  0
   57.8860   33.2900   46.8790 C   0  0  0  0  0  0  0  0  0  0  0  0
   56.6430   33.4570   46.7640 O   0  0  0  0  0  0  0  0  0  0  0  0
   58.8100   34.4490   46.7110 C   0  0  0  0  0  0  0  0  0  0  0  0
   60.2200   34.0090   45.6410 S   0  0  0  0  0  0  0  0  0  0  0  0
   61.3950   33.8150   46.9870 C   0  0  0  0  0  0  0  0  0  0  0  0
   61.0400   34.1900   48.2910 C   0  0  0  0  0  0  0  0  0  0  0  0
   61.9430   34.0030   49.3440 C   0  0  0  0  0  0  0  0  0  0  0  0
   63.1980   33.4330   49.0990 C   0  0  0  0  0  0  0  0  0  0  0  0
   63.5580   33.0660   47.7970 C   0  0  0  0  0  0  0  0  0  0  0  0
   62.6560   33.2520   46.7430 C   0  0  0  0  0  0  0  0  0  0  0  0
   60.1110   29.6890   49.6290 C   0  0  0  0  0  0  0  0  0  0  0  0
   60.1840   28.0100   49.5170 S   0  0  0  0  0  0  0  0  0  0  0  0
   57.0919   26.4751   44.6798 H   0  0  0  0  0  0  0  0  0  0  0  0
   56.4372   27.1230   46.2248 H   0  0  0  0  0  0  0  0  0  0  0  0
   59.7014   28.3539   45.1566 H   0  0  0  0  0  0  0  0  0  0  0  0
   60.1209   30.6906   44.3942 H   0  0  0  0  0  0  0  0  0  0  0  0
   58.2027   32.1981   43.8672 H   0  0  0  0  0  0  0  0  0  0  0  0
   55.8618   31.3716   44.1100 H   0  0  0  0  0  0  0  0  0  0  0  0
   58.2594   35.2852   46.2552 H   0  0  0  0  0  0  0  0  0  0  0  0
   59.1962   34.7363   47.7001 H   0  0  0  0  0  0  0  0  0  0  0  0
   60.0515   34.6313   48.4863 H   0  0  0  0  0  0  0  0  0  0  0  0
   61.6663   34.3042   50.3651 H   0  0  0  0  0  0  0  0  0  0  0  0
   63.9012   33.2735   49.9297 H   0  0  0  0  0  0  0  0  0  0  0  0
   64.5496   32.6315   47.6022 H   0  0  0  0  0  0  0  0  0  0  0  0
   62.9367   32.9560   45.7214 H   0  0  0  0  0  0  0  0  0  0  0  0
   60.6627   30.3131   50.3474 H   0  0  0  0  0  0  0  0  0  0  0  0
  1  2  2  0
  2  3  1  0
  3  4  1  0
  4  5  2  0
  5  6  1  0
  6  7  2  0
  7  8  1  0
  8  9  2  0
  9 10  1  0
  2 11  1  0
 11 12  2  3
 12 13  1  0
 13 14  1  0
 14 15  1  0
 15 16  2  0
 15 17  1  0
 17 18  1  0
 18 19  2  0
 18 20  1  0
 20 21  1  0
 21 22  1  0
 22 23  2  0
 23 24  1  0
 24 25  2  0
 25 26  1  0
 26 27  2  0
 14 28  2  0
 28 29  1  0
  9  4  1  0
 29 12  1  0
 27 22  1  0
  3 30  1  0
  3 31  1  0
  5 32  1  0
  6 33  1  0
  7 34  1  0
  8 35  1  0
 20 36  1  0
 20 37  1  0
 23 38  1  0
 24 39  1  0
 25 40  1  0
 26 41  1  0
 27 42  1  0
 28 43  1  0
M  CHG  3  10  -1  13  -1  17  -1
M  END
>  <UniqueID>  (41) 
38

>  <SMILES>  (41) 
O=C(Cc1ccccc1[O-])N=c1[n-]c(C(=O)[N-]C(=O)CSc2ccccc2)cs1

>  <Energy>  (41) 
70.5213071045677

>  <Genealogy>  (41) 
O=C(Cc1ccccc1[O-])N=c1[n-]c(C(=O)[N-]C(=O)CSc2ccccc2)cs1 (protonated)
O=C(Cc1ccccc1[O-])N=c1[n-]c(C(=O)[N-]C(=O)CSc2ccccc2)cs1 (3D coordinates assigned)
O=C(Cc1ccccc1[O-])N=c1[n-]c(C(=O)[N-]C(=O)CSc2ccccc2)cs1 (optimized conformer: 70.5213071045677 kcal/mol)

>  <smiles>  (41) 
O=C(Cc1ccccc1O)N=c1[nH]c(C(=O)NC(=O)CSc2ccccc2)cs1

>  <score_type>  (41) 
oracle

>  <origin>  (41) 
adg

>  <m_score__min__energy>  (41) 
-14.34

>  <m_primary>  (41) 
energy

$$$$
41:0
     RDKit          3D

 61 64  0  0  0  0  0  0  0  0999 V2000
   63.3160   31.8620   48.6260 C   0  0  0  0  0  0  0  0  0  0  0  0
   63.5050   33.2400   48.1460 N   0  0  0  0  0  0  0  0  0  0  0  0
   63.0240   34.2290   49.1420 C   0  0  0  0  0  0  0  0  0  0  0  0
   61.8120   33.7690   49.9820 C   0  0  0  0  0  0  0  0  0  0  0  0
   60.5180   33.5200   49.1730 C   0  0  0  0  0  0  0  0  0  0  0  0
   60.7720   32.8000   47.9150 N   0  0  0  0  0  0  0  0  0  0  0  0
   60.3570   31.4250   47.7780 C   0  0  0  0  0  0  0  0  0  0  0  0
   60.9510   30.5920   46.8160 C   0  0  0  0  0  0  0  0  0  0  0  0
   60.5470   29.2600   46.6850 C   0  0  0  0  0  0  0  0  0  0  0  0
   59.5310   28.7360   47.5040 C   0  0  0  0  0  0  0  0  0  0  0  0
   59.1050   27.3250   47.3700 C   0  0  0  0  0  0  0  0  0  0  0  0
   59.9060   26.4670   46.9100 O   0  0  0  0  0  0  0  0  0  0  0  0
   57.7630   26.9480   47.7070 N   0  0  0  0  0  0  0  0  0  0  0  0
   56.9990   25.8980   47.0920 C   0  0  0  0  0  0  0  0  0  0  0  0
   57.0720   24.5780   47.5660 C   0  0  0  0  0  0  0  0  0  0  0  0
   56.3050   23.5700   46.9800 C   0  0  0  0  0  0  0  0  0  0  0  0
   55.4440   23.8620   45.9110 C   0  0  0  0  0  0  0  0  0  0  0  0
   54.6450   22.7870   45.2830 C   0  0  0  0  0  0  0  0  0  0  0  0
   53.3940   22.7520   45.4270 O   0  0  0  0  0  0  0  0  0  0  0  0
   55.2660   21.8030   44.5220 O   0  0  0  0  0  0  0  0  0  0  0  0
   55.3550   25.1850   45.4480 C   0  0  0  0  0  0  0  0  0  0  0  0
   56.1100   26.2130   46.0440 C   0  0  0  0  0  0  0  0  0  0  0  0
   56.0410   27.5620   45.5400 N   0  0  0  0  0  0  0  0  0  0  0  0
   57.0390   28.1430   44.6830 C   0  0  0  0  0  0  0  0  0  0  0  0
   57.7760   27.3920   43.9860 O   0  0  0  0  0  0  0  0  0  0  0  0
   57.1870   29.6160   44.5700 C   0  0  0  0  0  0  0  0  0  0  0  0
   56.9360   30.2620   43.3440 C   0  0  0  0  0  0  0  0  0  0  0  0
   57.0770   31.6490   43.2300 C   0  0  0  0  0  0  0  0  0  0  0  0
   57.4740   32.4070   44.3330 C   0  0  0  0  0  0  0  0  0  0  0  0
   57.7370   31.7790   45.5500 C   0  0  0  0  0  0  0  0  0  0  0  0
   57.6000   30.3910   45.6700 C   0  0  0  0  0  0  0  0  0  0  0  0
   58.9280   29.5760   48.4570 C   0  0  0  0  0  0  0  0  0  0  0  0
   59.3380   30.9030   48.5950 C   0  0  0  0  0  0  0  0  0  0  0  0
   61.4070   33.4740   46.7680 C   0  0  0  0  0  0  0  0  0  0  0  0
   62.9450   33.3860   46.7830 C   0  0  0  0  0  0  0  0  0  0  0  0
   63.3149   31.8538   49.7260 H   0  0  0  0  0  0  0  0  0  0  0  0
   62.3561   31.4731   48.2554 H   0  0  0  0  0  0  0  0  0  0  0  0
   64.1357   31.2290   48.2554 H   0  0  0  0  0  0  0  0  0  0  0  0
   63.8525   34.4511   49.8306 H   0  0  0  0  0  0  0  0  0  0  0  0
   62.6874   35.1055   48.5689 H   0  0  0  0  0  0  0  0  0  0  0  0
   62.0837   32.8317   50.4896 H   0  0  0  0  0  0  0  0  0  0  0  0
   61.5882   34.5910   50.6778 H   0  0  0  0  0  0  0  0  0  0  0  0
   59.8266   32.9246   49.7873 H   0  0  0  0  0  0  0  0  0  0  0  0
   60.0887   34.5000   48.9174 H   0  0  0  0  0  0  0  0  0  0  0  0
   61.7398   30.9904   46.1609 H   0  0  0  0  0  0  0  0  0  0  0  0
   61.0283   28.6159   45.9344 H   0  0  0  0  0  0  0  0  0  0  0  0
   57.7394   24.3365   48.4064 H   0  0  0  0  0  0  0  0  0  0  0  0
   56.3758   22.5396   47.3586 H   0  0  0  0  0  0  0  0  0  0  0  0
   54.6858   25.4214   44.6076 H   0  0  0  0  0  0  0  0  0  0  0  0
   55.1850   28.1250   45.7420 H   0  0  0  0  0  0  0  0  0  0  0  0
   56.6266   29.6712   42.4692 H   0  0  0  0  0  0  0  0  0  0  0  0
   56.8745   32.1438   42.2686 H   0  0  0  0  0  0  0  0  0  0  0  0
   57.5792   33.4982   44.2423 H   0  0  0  0  0  0  0  0  0  0  0  0
   58.0530   32.3760   46.4182 H   0  0  0  0  0  0  0  0  0  0  0  0
   57.8168   29.9023   46.6313 H   0  0  0  0  0  0  0  0  0  0  0  0
   58.1259   29.1837   49.0995 H   0  0  0  0  0  0  0  0  0  0  0  0
   58.8603   31.5459   49.3489 H   0  0  0  0  0  0  0  0  0  0  0  0
   61.0398   33.0073   45.8421 H   0  0  0  0  0  0  0  0  0  0  0  0
   61.1416   34.5397   46.8293 H   0  0  0  0  0  0  0  0  0  0  0  0
   63.2518   32.5163   46.1834 H   0  0  0  0  0  0  0  0  0  0  0  0
   63.3316   34.3288   46.3687 H   0  0  0  0  0  0  0  0  0  0  0  0
  1  2  1  0
  2  3  1  0
  3  4  1  0
  4  5  1  0
  5  6  1  0
  6  7  1  0
  7  8  2  0
  8  9  1  0
  9 10  2  0
 10 11  1  0
 11 12  2  0
 11 13  1  0
 13 14  1  0
 14 15  2  0
 15 16  1  0
 16 17  2  0
 17 18  1  0
 18 19  2  0
 18 20  1  0
 17 21  1  0
 21 22  2  0
 22 23  1  0
 23 24  1  0
 24 25  2  0
 24 26  1  0
 26 27  2  0
 27 28  1  0
 28 29  2  0
 29 30  1  0
 30 31  2  0
 10 32  1  0
 32 33  2  0
  6 34  1  0
 34 35  1  0
 35  2  1  0
 33  7  1  0
 22 14  1  0
 31 26  1  0
  1 36  1  0
  1 37  1  0
  1 38  1  0
  3 39  1  0
  3 40  1  0
  4 41  1  0
  4 42  1  0
  5 43  1  0
  5 44  1  0
  8 45  1  0
  9 46  1  0
 15 47  1  0
 16 48  1  0
 21 49  1  0
 23 50  1  0
 27 51  1  0
 28 52  1  0
 29 53  1  0
 30 54  1  0
 31 55  1  0
 32 56  1  0
 33 57  1  0
 34 58  1  0
 34 59  1  0
 35 60  1  0
 35 61  1  0
M  CHG  2  13  -1  20  -1
M  END
>  <UniqueID>  (42) 
39

>  <SMILES>  (42) 
CN1CCCN(c2ccc(C(=O)[N-]c3ccc(C(=O)[O-])cc3NC(=O)c3ccccc3)cc2)CC1

>  <Energy>  (42) 
91.03758920858965

>  <Genealogy>  (42) 
CN1CCCN(c2ccc(C(=O)[N-]c3ccc(C(=O)[O-])cc3NC(=O)c3ccccc3)cc2)CC1 (protonated)
CN1CCCN(c2ccc(C(=O)[N-]c3ccc(C(=O)[O-])cc3NC(=O)c3ccccc3)cc2)CC1 (3D coordinates assigned)
CN1CCCN(c2ccc(C(=O)[N-]c3ccc(C(=O)[O-])cc3NC(=O)c3ccccc3)cc2)CC1 (nonaromatic ring conformer: 91.03758920858965 kcal/mol)

>  <smiles>  (42) 
CN1CCCN(c2ccc(C(=O)Nc3ccc(C(=O)O)cc3NC(=O)c3ccccc3)cc2)CC1

>  <score_type>  (42) 
oracle

>  <origin>  (42) 
adg

>  <m_score__min__energy>  (42) 
-10.33

>  <m_primary>  (42) 
energy

$$$$
42:0
     RDKit          3D

 43 45  0  0  0  0  0  0  0  0999 V2000
   58.2017   32.6898   42.5410 H   0  0  0  0  0  0  0  0  0  0  0  0
   57.7600   31.9520   43.2270 C   0  0  0  0  0  0  0  0  0  0  0  0
   56.9440   30.5510   42.7760 S   0  0  0  0  0  0  0  0  0  0  0  0
   56.6290   30.0900   44.3680 C   0  0  0  0  0  0  0  0  0  0  0  0
   56.0250   29.0040   44.7540 N   0  0  0  0  0  0  0  0  0  0  0  0
   56.6300   27.8320   45.3210 C   0  0  0  0  0  0  0  0  0  0  0  0
   55.9060   27.0380   45.9780 O   0  0  0  0  0  0  0  0  0  0  0  0
   58.0870   27.5080   45.1180 C   0  0  0  0  0  0  0  0  0  0  0  0
   58.3225   27.5713   44.0454 H   0  0  0  0  0  0  0  0  0  0  0  0
   58.2739   26.4924   45.4970 H   0  0  0  0  0  0  0  0  0  0  0  0
   58.9690   28.4680   45.8720 C   0  0  0  0  0  0  0  0  0  0  0  0
   58.6360   28.8650   47.1760 C   0  0  0  0  0  0  0  0  0  0  0  0
   57.7129   28.4914   47.6432 H   0  0  0  0  0  0  0  0  0  0  0  0
   59.4720   29.7330   47.8840 C   0  0  0  0  0  0  0  0  0  0  0  0
   59.1982   30.0439   48.9030 H   0  0  0  0  0  0  0  0  0  0  0  0
   60.6550   30.2100   47.3070 C   0  0  0  0  0  0  0  0  0  0  0  0
   61.4590   31.0790   48.0590 O   0  0  0  0  0  0  0  0  0  0  0  0
   62.3550   32.0340   47.4970 C   0  0  0  0  0  0  0  0  0  0  0  0
   62.8654   32.5780   48.3054 H   0  0  0  0  0  0  0  0  0  0  0  0
   63.1006   31.5161   46.8759 H   0  0  0  0  0  0  0  0  0  0  0  0
   61.7906   32.7451   46.8759 H   0  0  0  0  0  0  0  0  0  0  0  0
   60.9970   29.8020   46.0040 C   0  0  0  0  0  0  0  0  0  0  0  0
   61.9259   30.1671   45.5416 H   0  0  0  0  0  0  0  0  0  0  0  0
   60.1600   28.9340   45.2950 C   0  0  0  0  0  0  0  0  0  0  0  0
   60.4371   28.6150   44.2794 H   0  0  0  0  0  0  0  0  0  0  0  0
   57.1530   30.9740   45.2420 N   0  0  0  0  0  0  0  0  0  0  0  0
   57.0620   30.8710   46.2770 H   0  0  0  0  0  0  0  0  0  0  0  0
   57.7800   32.0170   44.6230 C   0  0  0  0  0  0  0  0  0  0  0  0
   58.4310   33.1180   45.3780 C   0  0  0  0  0  0  0  0  0  0  0  0
   58.9260   34.2460   44.7030 C   0  0  0  0  0  0  0  0  0  0  0  0
   58.8313   34.3135   43.6092 H   0  0  0  0  0  0  0  0  0  0  0  0
   59.5380   35.2830   45.4120 C   0  0  0  0  0  0  0  0  0  0  0  0
   59.9224   36.1625   44.8747 H   0  0  0  0  0  0  0  0  0  0  0  0
   59.6630   35.2060   46.8000 C   0  0  0  0  0  0  0  0  0  0  0  0
   60.1462   36.0262   47.3512 H   0  0  0  0  0  0  0  0  0  0  0  0
   59.1780   34.0930   47.4950 C   0  0  0  0  0  0  0  0  0  0  0  0
   59.3300   34.0630   48.8890 O   0  0  0  0  0  0  0  0  0  0  0  0
   59.3310   32.8750   49.6740 C   0  0  0  0  0  0  0  0  0  0  0  0
   59.3308   33.1408   50.7414 H   0  0  0  0  0  0  0  0  0  0  0  0
   58.4334   32.2825   49.4435 H   0  0  0  0  0  0  0  0  0  0  0  0
   60.2296   32.2840   49.4435 H   0  0  0  0  0  0  0  0  0  0  0  0
   58.5600   33.0490   46.7790 C   0  0  0  0  0  0  0  0  0  0  0  0
   58.1745   32.1716   47.3191 H   0  0  0  0  0  0  0  0  0  0  0  0
  1  2  1  0
  2  3  1  0
  3  4  1  0
  4  5  2  0
  5  6  1  0
  6  7  2  0
  6  8  1  0
  8  9  1  0
  8 10  1  0
  8 11  1  0
 11 12  2  0
 12 13  1  0
 12 14  1  0
 14 15  1  0
 14 16  2  0
 16 17  1  0
 17 18  1  0
 18 19  1  0
 18 20  1  0
 18 21  1  0
 16 22  1  0
 22 23  1  0
 22 24  2  0
 24 25  1  0
  4 26  1  0
 26 27  1  0
 26 28  1  0
 28 29  1  0
 29 30  2  0
 30 31  1  0
 30 32  1  0
 32 33  1  0
 32 34  2  0
 34 35  1  0
 34 36  1  0
 36 37  1  0
 37 38  1  0
 38 39  1  0
 38 40  1  0
 38 41  1  0
 36 42  2  0
 42 43  1  0
 28  2  2  0
 42 29  1  0
 24 11  1  0
M  END
>  <UniqueID>  (43) 
40

>  <SMILES>  (43) 
COc1ccc(CC(=O)/N=c2/[nH]c(-c3cccc(OC)c3)cs2)cc1

>  <Energy>  (43) 
82.95117976090131

>  <Genealogy>  (43) 
COc1ccc(CC(=O)/N=c2/[nH]c(-c3cccc(OC)c3)cs2)cc1 (cis-trans isomerization)
COc1ccc(CC(=O)/N=c2/[nH]c(-c3cccc(OC)c3)cs2)cc1 (3D coordinates assigned)
COc1ccc(CC(=O)/N=c2/[nH]c(-c3cccc(OC)c3)cs2)cc1 (optimized conformer: 82.95117976090131 kcal/mol)

>  <smiles>  (43) 
COc1ccc(CC(=O)N=c2[nH]c(-c3cccc(OC)c3)cs2)cc1

>  <score_type>  (43) 
oracle

>  <origin>  (43) 
adg

>  <m_score__min__energy>  (43) 
-8.1899999999999995

>  <m_primary>  (43) 
energy

$$$$
43:0
     RDKit          3D

 29 31  0  0  1  0  0  0  0  0999 V2000
   56.6010   25.7090   45.6360 Cl  0  0  0  0  0  0  0  0  0  0  0  0
   57.4220   27.2550   45.6040 C   0  0  0  0  0  0  0  0  0  0  0  0
   56.7210   28.3920   45.2460 C   0  0  0  0  0  0  0  0  0  0  0  0
   57.3650   29.6080   45.2200 C   0  0  0  0  0  0  0  0  0  0  0  0
   56.9380   30.8310   44.9210 N   0  0  0  0  0  0  0  0  0  0  0  0
   57.9170   31.7460   45.0290 C   0  0  0  0  0  0  0  0  0  0  0  0
   57.7290   33.1210   44.6420 C   0  0  0  0  0  0  0  0  0  0  0  0
   58.2950   34.1740   45.1420 C   0  0  0  0  0  0  0  0  0  0  0  0
   59.3050   34.2440   46.1580 C   0  0  0  0  0  0  0  0  0  0  0  0
   58.8880   34.5900   47.4350 C   0  0  0  0  0  0  0  0  0  0  0  0
   59.7690   34.5710   48.4880 C   0  0  0  0  0  0  0  0  0  0  0  0
   61.0860   34.2170   48.3580 C   0  0  0  0  0  0  0  0  0  0  0  0
   61.5210   33.8690   47.1040 C   0  0  0  0  0  0  0  0  0  0  0  0
   60.6260   33.8890   46.0390 C   0  0  0  0  0  0  0  0  0  0  0  0
   58.9930   31.0400   45.4130 N   0  0  0  0  0  0  0  0  0  0  0  0
   58.6850   29.7190   45.5400 C   0  0  0  0  0  0  0  0  0  0  0  0
   59.3990   28.5940   45.9000 C   0  0  0  0  0  0  0  0  0  0  0  0
   58.7760   27.3440   45.9370 C   0  0  0  0  0  0  0  0  0  0  0  0
   59.6920   25.9380   46.3920 Cl  0  0  0  0  0  0  0  0  0  0  0  0
   55.6549   28.3249   44.9835 H   0  0  0  0  0  0  0  0  0  0  0  0
   57.0180   33.2987   43.8217 H   0  0  0  0  0  0  0  0  0  0  0  0
   57.9574   35.1385   44.7348 H   0  0  0  0  0  0  0  0  0  0  0  0
   57.8414   34.8824   47.6057 H   0  0  0  0  0  0  0  0  0  0  0  0
   59.3992   34.8538   49.4846 H   0  0  0  0  0  0  0  0  0  0  0  0
   61.7662   34.2119   49.2225 H   0  0  0  0  0  0  0  0  0  0  0  0
   62.5690   33.5765   46.9421 H   0  0  0  0  0  0  0  0  0  0  0  0
   60.9983   33.6039   45.0440 H   0  0  0  0  0  0  0  0  0  0  0  0
   59.9620   31.3600   45.5790 H   0  0  0  0  0  0  0  0  0  0  0  0
   60.4644   28.6820   46.1592 H   0  0  0  0  0  0  0  0  0  0  0  0
  1  2  1  0
  2  3  2  0
  3  4  1  0
  4  5  1  0
  5  6  2  0
  6  7  1  0
  7  8  2  0
  8  9  1  0
  9 10  2  0
 10 11  1  0
 11 12  2  0
 12 13  1  0
 13 14  2  0
  6 15  1  0
 15 16  1  0
 16 17  1  0
 17 18  2  0
 18 19  1  0
 18  2  1  0
 16  4  2  0
 14  9  1  0
  3 20  1  0
  7 21  1  0
  8 22  1  0
 10 23  1  0
 11 24  1  0
 12 25  1  0
 13 26  1  0
 14 27  1  0
 15 28  1  0
 17 29  1  0
M  END
>  <smiles>  (44) 
Clc1cc2nc(C=Cc3ccccc3)[nH]c2cc1Cl

>  <score_type>  (44) 
oracle

>  <origin>  (44) 
adg

>  <m_score__min__energy>  (44) 
-7.4699999999999998

>  <m_primary>  (44) 
energy

$$$$
44:0
     RDKit          3D

 58 61  0  0  0  0  0  0  0  0999 V2000
   67.7870   33.4900   50.4990 C   0  0  0  0  0  0  0  0  0  0  0  0
   66.6830   32.4400   50.4270 C   0  0  0  0  0  0  0  0  0  0  0  0
   65.3330   33.0940   50.2920 C   0  0  0  0  0  0  0  0  0  0  0  0
   64.8220   33.8760   51.3380 C   0  0  0  0  0  0  0  0  0  0  0  0
   63.5960   34.5270   51.1940 C   0  0  0  0  0  0  0  0  0  0  0  0
   62.8700   34.4050   50.0060 C   0  0  0  0  0  0  0  0  0  0  0  0
   63.3620   33.6210   48.9460 C   0  0  0  0  0  0  0  0  0  0  0  0
   62.5850   33.4960   47.6890 C   0  0  0  0  0  0  0  0  0  0  0  0
   63.1810   33.1820   46.6220 O   0  0  0  0  0  0  0  0  0  0  0  0
   61.1760   33.7840   47.6610 N   0  0  0  0  0  0  0  0  0  0  0  0
   60.2930   33.3630   46.6060 C   0  0  0  0  0  0  0  0  0  0  0  0
   59.9740   34.2600   45.5780 C   0  0  0  0  0  0  0  0  0  0  0  0
   59.1140   33.8790   44.5460 C   0  0  0  0  0  0  0  0  0  0  0  0
   58.5490   32.5940   44.5220 C   0  0  0  0  0  0  0  0  0  0  0  0
   57.6480   32.2160   43.3740 C   0  0  0  0  0  0  0  0  0  0  0  0
   58.8210   31.6990   45.5850 C   0  0  0  0  0  0  0  0  0  0  0  0
   58.2210   30.3480   45.6450 C   0  0  0  0  0  0  0  0  0  0  0  0
   56.9780   30.0900   45.0470 C   0  0  0  0  0  0  0  0  0  0  0  0
   56.4090   28.8150   45.1200 C   0  0  0  0  0  0  0  0  0  0  0  0
   57.0790   27.7760   45.7870 C   0  0  0  0  0  0  0  0  0  0  0  0
   56.4570   26.4380   45.8900 C   0  0  0  0  0  0  0  0  0  0  0  0
   55.2040   26.3430   45.9620 O   0  0  0  0  0  0  0  0  0  0  0  0
   57.2410   25.2400   45.9610 N   0  0  0  0  0  0  0  0  0  0  0  0
   57.6870   24.4630   44.8090 C   0  0  0  0  0  0  0  0  0  0  0  0
   56.6430   23.3840   44.5010 C   0  0  0  0  0  0  0  0  0  0  0  0
   57.1210   22.2610   43.5930 C   0  0  0  0  0  0  0  0  0  0  0  0
   56.1670   23.3170   43.0560 C   0  0  0  0  0  0  0  0  0  0  0  0
   58.3060   28.0460   46.4150 C   0  0  0  0  0  0  0  0  0  0  0  0
   58.8730   29.3200   46.3410 C   0  0  0  0  0  0  0  0  0  0  0  0
   59.6950   32.0920   46.6130 C   0  0  0  0  0  0  0  0  0  0  0  0
   64.6070   32.9810   49.0940 C   0  0  0  0  0  0  0  0  0  0  0  0
   68.0169   33.7087   51.5522 H   0  0  0  0  0  0  0  0  0  0  0  0
   68.6891   33.1085   49.9983 H   0  0  0  0  0  0  0  0  0  0  0  0
   67.4512   34.4101   49.9983 H   0  0  0  0  0  0  0  0  0  0  0  0
   66.8583   31.7910   49.5563 H   0  0  0  0  0  0  0  0  0  0  0  0
   66.6976   31.8479   51.3540 H   0  0  0  0  0  0  0  0  0  0  0  0
   65.3894   33.9766   52.2750 H   0  0  0  0  0  0  0  0  0  0  0  0
   63.1997   35.1382   52.0183 H   0  0  0  0  0  0  0  0  0  0  0  0
   61.9070   34.9256   49.8988 H   0  0  0  0  0  0  0  0  0  0  0  0
   60.7950   34.4370   48.3820 H   0  0  0  0  0  0  0  0  0  0  0  0
   60.4044   35.2723   45.5840 H   0  0  0  0  0  0  0  0  0  0  0  0
   58.8768   34.5930   43.7436 H   0  0  0  0  0  0  0  0  0  0  0  0
   56.7006   31.8185   43.7670 H   0  0  0  0  0  0  0  0  0  0  0  0
   57.4455   33.1050   42.7587 H   0  0  0  0  0  0  0  0  0  0  0  0
   58.1404   31.4486   42.7587 H   0  0  0  0  0  0  0  0  0  0  0  0
   56.4482   30.8957   44.5177 H   0  0  0  0  0  0  0  0  0  0  0  0
   55.4316   28.6245   44.6527 H   0  0  0  0  0  0  0  0  0  0  0  0
   57.8003   25.1258   43.9385 H   0  0  0  0  0  0  0  0  0  0  0  0
   58.6553   23.9908   45.0314 H   0  0  0  0  0  0  0  0  0  0  0  0
   56.1457   23.4410   45.4805 H   0  0  0  0  0  0  0  0  0  0  0  0
   58.1658   22.2385   43.2498 H   0  0  0  0  0  0  0  0  0  0  0  0
   57.1144   21.1623   43.6460 H   0  0  0  0  0  0  0  0  0  0  0  0
   56.5220   24.0583   42.3250 H   0  0  0  0  0  0  0  0  0  0  0  0
   55.1852   23.2986   42.5604 H   0  0  0  0  0  0  0  0  0  0  0  0
   58.8236   27.2488   46.9687 H   0  0  0  0  0  0  0  0  0  0  0  0
   59.8372   29.5184   46.8318 H   0  0  0  0  0  0  0  0  0  0  0  0
   59.9139   31.3943   47.4348 H   0  0  0  0  0  0  0  0  0  0  0  0
   65.0157   32.3865   48.2636 H   0  0  0  0  0  0  0  0  0  0  0  0
  1  2  1  0
  2  3  1  0
  3  4  2  0
  4  5  1  0
  5  6  2  0
  6  7  1  0
  7  8  1  0
  8  9  2  0
  8 10  1  0
 10 11  1  0
 11 12  2  0
 12 13  1  0
 13 14  2  0
 14 15  1  0
 14 16  1  0
 16 17  1  0
 17 18  2  0
 18 19  1  0
 19 20  2  0
 20 21  1  0
 21 22  2  0
 21 23  1  0
 23 24  1  0
 24 25  1  0
 25 26  1  0
 26 27  1  0
 20 28  1  0
 28 29  2  0
 16 30  2  0
  7 31  2  0
 31  3  1  0
 30 11  1  0
 29 17  1  0
 27 25  1  0
  1 32  1  0
  1 33  1  0
  1 34  1  0
  2 35  1  0
  2 36  1  0
  4 37  1  0
  5 38  1  0
  6 39  1  0
 10 40  1  0
 12 41  1  0
 13 42  1  0
 15 43  1  0
 15 44  1  0
 15 45  1  0
 18 46  1  0
 19 47  1  0
 24 48  1  0
 24 49  1  0
 25 50  1  0
 26 51  1  0
 26 52  1  0
 27 53  1  0
 27 54  1  0
 28 55  1  0
 29 56  1  0
 30 57  1  0
 31 58  1  0
M  CHG  1  23  -1
M  END
>  <UniqueID>  (45) 
41

>  <SMILES>  (45) 
CCc1cccc(C(=O)Nc2ccc(C)c(-c3ccc(C(=O)[N-]CC4CC4)cc3)c2)c1

>  <Energy>  (45) 
338.5615724220678

>  <Genealogy>  (45) 
CCc1cccc(C(=O)Nc2ccc(C)c(-c3ccc(C(=O)[N-]CC4CC4)cc3)c2)c1 (protonated)
CCc1cccc(C(=O)Nc2ccc(C)c(-c3ccc(C(=O)[N-]CC4CC4)cc3)c2)c1 (3D coordinates assigned)
CCc1cccc(C(=O)Nc2ccc(C)c(-c3ccc(C(=O)[N-]CC4CC4)cc3)c2)c1 (nonaromatic ring conformer: 338.5615724220678 kcal/mol)

>  <smiles>  (45) 
CCc1cccc(C(=O)Nc2ccc(C)c(-c3ccc(C(=O)NCC4CC4)cc3)c2)c1

>  <score_type>  (45) 
oracle

>  <origin>  (45) 
adg

>  <m_score__min__energy>  (45) 
-11.220000000000001

>  <m_primary>  (45) 
energy

$$$$
45:0
     RDKit          3D

 42 46  0  0  0  0  0  0  0  0999 V2000
   53.0003   32.0680   53.1567 H   0  0  0  0  0  0  0  0  0  0  0  0
   53.0560   31.2170   52.4620 C   0  0  0  0  0  0  0  0  0  0  0  0
   52.1990   31.2460   51.2660 C   0  0  0  0  0  0  0  0  0  0  0  0
   52.2640   30.3320   50.2830 N   0  0  0  0  0  0  0  0  0  0  0  0
   51.3770   30.7890   49.3720 C   0  0  0  0  0  0  0  0  0  0  0  0
   51.1410   30.1840   48.2940 O   0  0  0  0  0  0  0  0  0  0  0  0
   50.7710   31.9500   49.7020 N   0  0  0  0  0  0  0  0  0  0  0  0
   51.3120   32.2330   50.8980 C   0  0  0  0  0  0  0  0  0  0  0  0
   51.0250   33.3860   51.6190 O   0  0  0  0  0  0  0  0  0  0  0  0
   53.9000   30.2190   52.7580 C   0  0  0  0  0  0  0  0  0  0  0  0
   53.5720   29.0310   53.4100 C   0  0  0  0  0  0  0  0  0  0  0  0
   52.5612   28.7523   53.7426 H   0  0  0  0  0  0  0  0  0  0  0  0
   54.6830   28.2690   53.5740 N   0  0  0  0  0  0  0  0  0  0  0  0
   55.6900   28.9500   53.0520 N   0  0  0  0  0  0  0  0  0  0  0  0
   56.9990   28.6040   53.0170 C   0  0  0  0  0  0  0  0  0  0  0  0
   57.3950   27.4620   53.4940 N   0  0  0  0  0  0  0  0  0  0  0  0
   58.6740   27.2790   54.1720 C   0  0  0  0  0  0  0  0  0  0  0  0
   58.4458   27.8602   55.0776 H   0  0  0  0  0  0  0  0  0  0  0  0
   59.3080   25.9330   53.8820 C   0  0  0  0  0  0  0  0  0  0  0  0
   59.8892   25.4192   54.6619 H   0  0  0  0  0  0  0  0  0  0  0  0
   58.9408   24.9626   53.5166 H   0  0  0  0  0  0  0  0  0  0  0  0
   59.8590   27.1910   53.2270 C   0  0  0  0  0  0  0  0  0  0  0  0
   60.8382   27.5875   53.5335 H   0  0  0  0  0  0  0  0  0  0  0  0
   60.0552   27.5083   52.1922 H   0  0  0  0  0  0  0  0  0  0  0  0
   57.8810   29.4890   52.4700 N   0  0  0  0  0  0  0  0  0  0  0  0
   57.4540   30.6960   51.9790 C   0  0  0  0  0  0  0  0  0  0  0  0
   58.4030   31.6180   51.4040 N   0  0  0  0  0  0  0  0  0  0  0  0
   59.3540   31.1820   50.3690 C   0  0  0  0  0  0  0  0  0  0  0  0
   60.3751   31.2128   50.7769 H   0  0  0  0  0  0  0  0  0  0  0  0
   59.1051   30.1559   50.0605 H   0  0  0  0  0  0  0  0  0  0  0  0
   59.2670   32.1040   49.1550 C   0  0  0  0  0  0  0  0  0  0  0  0
   59.9822   31.7486   48.3986 H   0  0  0  0  0  0  0  0  0  0  0  0
   58.2256   32.0689   48.8024 H   0  0  0  0  0  0  0  0  0  0  0  0
   59.6440   33.8630   49.5250 S   0  0  0  0  0  0  0  0  0  0  0  0
   59.6180   33.7970   51.3520 C   0  0  0  0  0  0  0  0  0  0  0  0
   60.5407   33.3120   51.7033 H   0  0  0  0  0  0  0  0  0  0  0  0
   59.5430   34.8277   51.7289 H   0  0  0  0  0  0  0  0  0  0  0  0
   58.4160   33.0120   51.8780 C   0  0  0  0  0  0  0  0  0  0  0  0
   58.4491   33.0106   52.9775 H   0  0  0  0  0  0  0  0  0  0  0  0
   57.5058   33.5019   51.5019 H   0  0  0  0  0  0  0  0  0  0  0  0
   56.1260   31.0140   52.0350 N   0  0  0  0  0  0  0  0  0  0  0  0
   55.2630   30.1140   52.5620 C   0  0  0  0  0  0  0  0  0  0  0  0
  1  2  1  0
  2  3  1  0
  3  4  1  0
  4  5  1  0
  5  6  2  0
  5  7  1  0
  7  8  1  0
  8  9  1  0
  2 10  2  0
 10 11  1  0
 11 12  1  0
 11 13  2  0
 13 14  1  0
 14 15  1  0
 15 16  2  0
 16 17  1  0
 17 18  1  0
 17 19  1  0
 19 20  1  0
 19 21  1  0
 19 22  1  0
 22 23  1  0
 22 24  1  0
 15 25  1  0
 25 26  2  0
 26 27  1  0
 27 28  1  0
 28 29  1  0
 28 30  1  0
 28 31  1  0
 31 32  1  0
 31 33  1  0
 31 34  1  0
 34 35  1  0
 35 36  1  0
 35 37  1  0
 35 38  1  0
 38 39  1  0
 38 40  1  0
 26 41  1  0
 41 42  2  0
  8  3  2  0
 42 10  1  0
 42 14  1  0
 22 17  1  0
 38 27  1  0
M  CHG  3   4  -1   7  -1   9  -1
M  END
>  <UniqueID>  (46) 
42

>  <SMILES>  (46) 
O=c1[n-]c([O-])c(/C=c2/cnn3/c(=N/C4CC4)nc(N4CCSCC4)nc23)[n-]1

>  <Energy>  (46) 
385.26984163738217

>  <Genealogy>  (46) 
O=c1[n-]c([O-])c(C=c2cnn3c(=NC4CC4)nc(N4CCSCC4)nc23)[n-]1 (protonated)
O=c1[n-]c([O-])c(/C=c2/cnn3/c(=N/C4CC4)nc(N4CCSCC4)nc23)[n-]1 (cis-trans isomerization)
O=c1[n-]c([O-])c(/C=c2/cnn3/c(=N/C4CC4)nc(N4CCSCC4)nc23)[n-]1 (3D coordinates assigned)
O=c1[n-]c([O-])c(/C=c2/cnn3/c(=N/C4CC4)nc(N4CCSCC4)nc23)[n-]1 (nonaromatic ring conformer: 385.26984163738217 kcal/mol)

>  <smiles>  (46) 
O=c1[nH]c(O)c(C=c2cnn3c(=NC4CC4)nc(N4CCSCC4)nc23)[nH]1

>  <score_type>  (46) 
oracle

>  <origin>  (46) 
adg

>  <m_score__min__energy>  (46) 
-15.99

>  <m_primary>  (46) 
energy

$$$$
46:0
     RDKit          3D

 39 40  0  0  0  0  0  0  0  0999 V2000
   56.8680   34.5780   44.9370 C   0  0  0  0  0  0  0  0  0  0  0  0
   58.1940   34.1220   44.6890 O   0  0  0  0  0  0  0  0  0  0  0  0
   58.9010   33.2270   45.5100 C   0  0  0  0  0  0  0  0  0  0  0  0
   59.9950   33.6490   46.2900 C   0  0  0  0  0  0  0  0  0  0  0  0
   60.6930   32.7400   47.1050 C   0  0  0  0  0  0  0  0  0  0  0  0
   61.7830   33.1350   47.8990 O   0  0  0  0  0  0  0  0  0  0  0  0
   63.1480   32.8760   47.5830 C   0  0  0  0  0  0  0  0  0  0  0  0
   60.3030   31.3960   47.1370 C   0  0  0  0  0  0  0  0  0  0  0  0
   61.0230   30.5130   47.9580 O   0  0  0  0  0  0  0  0  0  0  0  0
   60.5220   29.2710   48.4430 C   0  0  0  0  0  0  0  0  0  0  0  0
   59.2120   30.9700   46.3590 C   0  0  0  0  0  0  0  0  0  0  0  0
   58.5010   31.8770   45.5580 C   0  0  0  0  0  0  0  0  0  0  0  0
   57.3120   31.3770   44.7680 C   0  0  0  0  0  0  0  0  0  0  0  0
   57.4530   29.9550   44.4670 N   0  0  0  0  0  0  0  0  0  0  0  0
   56.6300   28.9130   45.0090 C   0  0  0  0  0  0  0  0  0  0  0  0
   55.3790   29.0040   44.9050 O   0  0  0  0  0  0  0  0  0  0  0  0
   57.2120   27.7210   45.6520 C   0  0  0  0  0  0  0  0  0  0  0  0
   58.6020   27.6210   45.7970 C   0  0  0  0  0  0  0  0  0  0  0  0
   59.1600   26.5040   46.4180 C   0  0  0  0  0  0  0  0  0  0  0  0
   58.3230   25.4850   46.8750 C   0  0  0  0  0  0  0  0  0  0  0  0
   56.9760   25.5870   46.7140 N   0  0  0  0  0  0  0  0  0  0  0  0
   56.4040   26.6670   46.1170 C   0  0  0  0  0  0  0  0  0  0  0  0
   55.1530   26.7060   45.9780 O   0  0  0  0  0  0  0  0  0  0  0  0
   56.6974   34.6367   46.0221 H   0  0  0  0  0  0  0  0  0  0  0  0
   56.7332   35.5741   44.4902 H   0  0  0  0  0  0  0  0  0  0  0  0
   56.1491   33.8755   44.4902 H   0  0  0  0  0  0  0  0  0  0  0  0
   60.3076   34.7033   46.2614 H   0  0  0  0  0  0  0  0  0  0  0  0
   63.7252   32.7665   48.5129 H   0  0  0  0  0  0  0  0  0  0  0  0
   63.2189   31.9484   46.9960 H   0  0  0  0  0  0  0  0  0  0  0  0
   63.5537   33.7132   46.9960 H   0  0  0  0  0  0  0  0  0  0  0  0
   60.5251   29.2788   49.5430 H   0  0  0  0  0  0  0  0  0  0  0  0
   59.4940   29.1235   48.0803 H   0  0  0  0  0  0  0  0  0  0  0  0
   61.1599   28.4515   48.0803 H   0  0  0  0  0  0  0  0  0  0  0  0
   58.9118   29.9119   46.3784 H   0  0  0  0  0  0  0  0  0  0  0  0
   56.3961   31.5323   45.3570 H   0  0  0  0  0  0  0  0  0  0  0  0
   57.2565   31.9349   43.8216 H   0  0  0  0  0  0  0  0  0  0  0  0
   59.2533   28.4238   45.4209 H   0  0  0  0  0  0  0  0  0  0  0  0
   60.2497   26.4268   46.5465 H   0  0  0  0  0  0  0  0  0  0  0  0
   58.7526   24.5991   47.3655 H   0  0  0  0  0  0  0  0  0  0  0  0
  1  2  1  0
  2  3  1  0
  3  4  2  0
  4  5  1  0
  5  6  1  0
  6  7  1  0
  5  8  2  0
  8  9  1  0
  9 10  1  0
  8 11  1  0
 11 12  2  0
 12 13  1  0
 13 14  1  0
 14 15  1  0
 15 16  2  0
 15 17  1  0
 17 18  2  0
 18 19  1  0
 19 20  2  0
 20 21  1  0
 21 22  1  0
 22 23  2  0
 12  3  1  0
 22 17  1  0
  1 24  1  0
  1 25  1  0
  1 26  1  0
  4 27  1  0
  7 28  1  0
  7 29  1  0
  7 30  1  0
 10 31  1  0
 10 32  1  0
 10 33  1  0
 11 34  1  0
 13 35  1  0
 13 36  1  0
 18 37  1  0
 19 38  1  0
 20 39  1  0
M  CHG  2  14  -1  21  -1
M  END
>  <UniqueID>  (47) 
43

>  <SMILES>  (47) 
COc1cc(OC)c(OC)cc1C[N-]C(=O)c1ccc[n-]c1=O

>  <Energy>  (47) 
41.97184239523633

>  <Genealogy>  (47) 
COc1cc(OC)c(OC)cc1C[N-]C(=O)c1ccc[n-]c1=O (protonated)
COc1cc(OC)c(OC)cc1C[N-]C(=O)c1ccc[n-]c1=O (3D coordinates assigned)
COc1cc(OC)c(OC)cc1C[N-]C(=O)c1ccc[n-]c1=O (optimized conformer: 41.97184239523633 kcal/mol)

>  <smiles>  (47) 
COc1cc(OC)c(OC)cc1CNC(=O)c1ccc[nH]c1=O

>  <score_type>  (47) 
oracle

>  <origin>  (47) 
adg

>  <m_score__min__energy>  (47) 
-9.6500000000000004

>  <m_primary>  (47) 
energy

$$$$
47:0
     RDKit          3D

 56 59  0  0  0  0  0  0  0  0999 V2000
   56.5280   30.2590   44.9270 O   0  0  0  0  0  0  0  0  0  0  0  0
   57.0250   30.9540   44.0000 C   0  0  0  0  0  0  0  0  0  0  0  0
   56.6960   30.7510   42.5760 C   0  0  0  0  0  0  0  0  0  0  0  0
   57.3550   31.9520   41.8870 C   0  0  0  0  0  0  0  0  0  0  0  0
   58.1970   32.6850   42.9480 C   0  0  0  0  0  0  0  0  0  0  0  0
   57.9220   32.0280   44.2200 N   0  0  0  0  0  0  0  0  0  0  0  0
   58.5230   32.3940   45.4800 C   0  0  0  0  0  0  0  0  0  0  0  0
   59.6500   33.2370   45.5140 C   0  0  0  0  0  0  0  0  0  0  0  0
   60.2270   33.6060   46.7330 C   0  0  0  0  0  0  0  0  0  0  0  0
   59.6840   33.1420   47.9390 C   0  0  0  0  0  0  0  0  0  0  0  0
   60.3840   33.6470   49.4800 S   0  0  0  0  0  0  0  0  0  0  0  0
   61.1010   34.9530   49.2750 O   0  0  0  0  0  0  0  0  0  0  0  0
   59.2740   33.8710   50.4660 O   0  0  0  0  0  0  0  0  0  0  0  0
   61.5140   32.4350   50.0630 N   0  0  1  0  0  0  0  0  0  0  0  0
   61.3990   32.2450   51.5250 C   0  0  0  0  0  0  0  0  0  0  0  0
   60.0960   31.5330   51.9380 C   0  0  0  0  0  0  0  0  0  0  0  0
   59.6730   30.4200   50.9670 C   0  0  0  0  0  0  0  0  0  0  0  0
   60.8370   29.9640   50.0750 C   0  0  1  0  0  0  0  0  0  0  0  0
   60.3790   28.8540   49.1140 C   0  0  0  0  0  0  0  0  0  0  0  0
   59.4190   29.3780   48.2000 O   0  0  0  0  0  0  0  0  0  0  0  0
   59.2320   28.9270   46.8850 C   0  0  0  0  0  0  0  0  0  0  0  0
   60.1140   29.2590   45.8350 C   0  0  0  0  0  0  0  0  0  0  0  0
   59.9190   28.7240   44.5560 C   0  0  0  0  0  0  0  0  0  0  0  0
   58.8260   27.8840   44.3060 C   0  0  0  0  0  0  0  0  0  0  0  0
   58.6490   27.3520   43.0700 F   0  0  0  0  0  0  0  0  0  0  0  0
   57.9260   27.5870   45.3330 C   0  0  0  0  0  0  0  0  0  0  0  0
   58.1330   28.0970   46.6190 C   0  0  0  0  0  0  0  0  0  0  0  0
   61.4310   31.1650   49.2890 C   0  0  0  0  0  0  0  0  0  0  0  0
   58.5700   32.2910   47.9120 C   0  0  0  0  0  0  0  0  0  0  0  0
   58.0040   31.9070   46.6940 C   0  0  0  0  0  0  0  0  0  0  0  0
   57.1166   29.8045   42.2054 H   0  0  0  0  0  0  0  0  0  0  0  0
   55.6139   30.6879   42.3890 H   0  0  0  0  0  0  0  0  0  0  0  0
   58.0012   31.6070   41.0664 H   0  0  0  0  0  0  0  0  0  0  0  0
   56.5936   32.6232   41.4630 H   0  0  0  0  0  0  0  0  0  0  0  0
   59.2668   32.6081   42.7039 H   0  0  0  0  0  0  0  0  0  0  0  0
   57.9424   33.7544   42.9891 H   0  0  0  0  0  0  0  0  0  0  0  0
   60.0807   33.6089   44.5726 H   0  0  0  0  0  0  0  0  0  0  0  0
   61.1096   34.2623   46.7456 H   0  0  0  0  0  0  0  0  0  0  0  0
   62.4630   32.8450   49.8920 H   0  0  0  0  0  0  0  0  0  0  0  0
   62.2523   31.6418   51.8685 H   0  0  0  0  0  0  0  0  0  0  0  0
   61.3899   33.2431   51.9873 H   0  0  0  0  0  0  0  0  0  0  0  0
   60.2419   31.0896   52.9340 H   0  0  0  0  0  0  0  0  0  0  0  0
   59.2974   32.2894   51.9317 H   0  0  0  0  0  0  0  0  0  0  0  0
   59.3125   29.5588   51.5487 H   0  0  0  0  0  0  0  0  0  0  0  0
   58.8811   30.8189   50.3160 H   0  0  0  0  0  0  0  0  0  0  0  0
   61.6278   29.5549   50.7210 H   0  0  0  0  0  0  0  0  0  0  0  0
   61.2464   28.4729   48.5551 H   0  0  0  0  0  0  0  0  0  0  0  0
   59.9243   28.0357   49.6917 H   0  0  0  0  0  0  0  0  0  0  0  0
   60.9573   29.9402   46.0218 H   0  0  0  0  0  0  0  0  0  0  0  0
   60.6245   28.9634   43.7467 H   0  0  0  0  0  0  0  0  0  0  0  0
   57.0523   26.9504   45.1295 H   0  0  0  0  0  0  0  0  0  0  0  0
   57.4297   27.8456   47.4265 H   0  0  0  0  0  0  0  0  0  0  0  0
   62.4467   30.8940   48.9652 H   0  0  0  0  0  0  0  0  0  0  0  0
   60.7461   31.3566   48.4498 H   0  0  0  0  0  0  0  0  0  0  0  0
   58.1393   31.9237   48.8552 H   0  0  0  0  0  0  0  0  0  0  0  0
   57.1460   31.2187   46.6837 H   0  0  0  0  0  0  0  0  0  0  0  0
  1  2  2  0
  2  3  1  0
  3  4  1  0
  4  5  1  0
  5  6  1  0
  6  7  1  0
  7  8  2  0
  8  9  1  0
  9 10  2  0
 10 11  1  0
 11 12  2  0
 11 13  2  0
 11 14  1  0
 14 15  1  0
 15 16  1  0
 16 17  1  0
 17 18  1  0
 18 19  1  0
 19 20  1  0
 20 21  1  0
 21 22  2  0
 22 23  1  0
 23 24  2  0
 24 25  1  0
 24 26  1  0
 26 27  2  0
 18 28  1  0
 10 29  1  0
 29 30  2  0
  6  2  1  0
 30  7  1  0
 28 14  1  0
 27 21  1  0
  3 31  1  0
  3 32  1  0
  4 33  1  0
  4 34  1  0
  5 35  1  0
  5 36  1  0
  8 37  1  0
  9 38  1  0
 14 39  1  1
 15 40  1  0
 15 41  1  0
 16 42  1  0
 16 43  1  0
 17 44  1  0
 17 45  1  0
 18 46  1  1
 19 47  1  0
 19 48  1  0
 22 49  1  0
 23 50  1  0
 26 51  1  0
 27 52  1  0
 28 53  1  0
 28 54  1  0
 29 55  1  0
 30 56  1  0
M  CHG  1  14   1
M  END
>  <UniqueID>  (48) 
44

>  <SMILES>  (48) 
O=C1CCCN1c1ccc(S(=O)(=O)[N@H+]2CCC[C@@H](COc3ccc(F)cc3)C2)cc1

>  <Energy>  (48) 
76.01697015290058

>  <Genealogy>  (48) 
O=C1CCCN1c1ccc(S(=O)(=O)[NH+]2CCCC(COc3ccc(F)cc3)C2)cc1 (protonated)
O=C1CCCN1c1ccc(S(=O)(=O)[N@H+]2CCC[C@@H](COc3ccc(F)cc3)C2)cc1 (chirality)
O=C1CCCN1c1ccc(S(=O)(=O)[N@H+]2CCC[C@@H](COc3ccc(F)cc3)C2)cc1 (3D coordinates assigned)
O=C1CCCN1c1ccc(S(=O)(=O)[N@H+]2CCC[C@@H](COc3ccc(F)cc3)C2)cc1 (nonaromatic ring conformer: 76.01697015290058 kcal/mol)

>  <smiles>  (48) 
O=C1CCCN1c1ccc(S(=O)(=O)N2CCCC(COc3ccc(F)cc3)C2)cc1

>  <score_type>  (48) 
oracle

>  <origin>  (48) 
adg

>  <m_score__min__energy>  (48) 
-6.9299999999999997

>  <m_primary>  (48) 
energy

$$$$
48:0
     RDKit          3D

 69 73  0  0  1  0  0  0  0  0999 V2000
   59.6200   34.5700   54.4550 C   0  0  0  0  0  0  0  0  0  0  0  0
   58.5230   34.5060   53.5720 O   0  0  0  0  0  0  0  0  0  0  0  0
   58.5020   33.7170   52.4300 C   0  0  0  0  0  0  0  0  0  0  0  0
   58.0970   32.4040   52.2800 C   0  0  0  0  0  0  0  0  0  0  0  0
   59.8010   28.2610   48.6290 C   0  0  0  0  0  0  0  0  0  0  0  0
   59.6600   27.0710   48.1790 N   0  0  0  0  0  0  0  0  0  0  0  0
   59.0250   30.1900   49.6990 C   0  0  0  0  0  0  0  0  0  0  0  0
   60.2670   30.7810   49.5300 C   0  0  0  0  0  0  0  0  0  0  0  0
   61.2800   30.0850   48.8980 C   0  0  0  0  0  0  0  0  0  0  0  0
   61.0240   28.8370   48.4610 N   0  0  0  0  0  0  0  0  0  0  0  0
   58.2710   32.0830   50.9460 C   0  0  0  0  0  0  0  0  0  0  0  0
   58.0210   30.9550   50.3560 N   0  0  0  0  0  0  0  0  0  0  0  0
   59.4960   26.8300   46.7570 C   0  0  0  0  0  0  0  0  0  0  0  0
   59.0620   28.1070   46.1390 C   0  0  0  0  0  0  0  0  0  0  0  0
   57.7370   28.4610   46.1670 C   0  0  0  0  0  0  0  0  0  0  0  0
   57.3900   29.6550   45.5810 C   0  0  0  0  0  0  0  0  0  0  0  0
   58.3490   30.4900   44.9700 C   0  0  0  0  0  0  0  0  0  0  0  0
   58.0310   31.5900   44.4290 O   0  0  0  0  0  0  0  0  0  0  0  0
   57.7400   32.7370   43.8630 C   0  0  0  0  0  0  0  0  0  0  0  0
   57.6530   33.8980   44.8770 C   0  0  0  0  0  0  0  0  0  0  0  0
   58.9680   34.6020   44.9610 C   0  0  0  0  0  0  0  0  0  0  0  0
   59.9910   33.8820   45.7730 C   0  0  0  0  0  0  0  0  0  0  0  0
   59.5680   33.5900   47.1270 N   0  0  0  0  0  0  0  0  0  0  0  0
   60.3180   34.4680   48.0010 C   0  0  0  0  0  0  0  0  0  0  0  0
   61.5990   33.9210   48.4630 C   0  0  0  0  0  0  0  0  0  0  0  0
   62.4770   33.4580   47.4780 C   0  0  0  0  0  0  0  0  0  0  0  0
   63.7020   32.9300   47.7650 C   0  0  0  0  0  0  0  0  0  0  0  0
   64.1050   32.8430   49.0930 C   0  0  0  0  0  0  0  0  0  0  0  0
   63.2550   33.2940   50.0970 C   0  0  0  0  0  0  0  0  0  0  0  0
   62.0080   33.8300   49.7640 C   0  0  0  0  0  0  0  0  0  0  0  0
   58.1600   33.8570   47.3260 C   0  0  0  0  0  0  0  0  0  0  0  0
   57.3180   33.2660   46.2110 C   0  0  0  0  0  0  0  0  0  0  0  0
   59.6480   30.0390   44.9980 N   0  0  0  0  0  0  0  0  0  0  0  0
   60.0260   28.8940   45.5550 C   0  0  0  0  0  0  0  0  0  0  0  0
   58.7980   28.9290   49.2460 N   0  0  0  0  0  0  0  0  0  0  0  0
   58.7680   33.1920   50.3370 N   0  0  0  0  0  0  0  0  0  0  0  0
   58.9020   34.1630   51.2270 N   0  0  0  0  0  0  0  0  0  0  0  0
   59.2568   34.5488   55.4931 H   0  0  0  0  0  0  0  0  0  0  0  0
   60.2819   33.7089   54.2805 H   0  0  0  0  0  0  0  0  0  0  0  0
   60.1773   35.5022   54.2805 H   0  0  0  0  0  0  0  0  0  0  0  0
   57.7109   31.7422   53.0692 H   0  0  0  0  0  0  0  0  0  0  0  0
   60.4462   31.8020   49.8981 H   0  0  0  0  0  0  0  0  0  0  0  0
   62.2715   30.5394   48.7553 H   0  0  0  0  0  0  0  0  0  0  0  0
   61.7760   28.3120   47.9890 H   0  0  0  0  0  0  0  0  0  0  0  0
   60.4508   26.5049   46.3180 H   0  0  0  0  0  0  0  0  0  0  0  0
   58.7519   26.0395   46.5798 H   0  0  0  0  0  0  0  0  0  0  0  0
   56.9823   27.8151   46.6395 H   0  0  0  0  0  0  0  0  0  0  0  0
   56.3355   29.9681   45.5887 H   0  0  0  0  0  0  0  0  0  0  0  0
   58.5204   32.9728   43.1245 H   0  0  0  0  0  0  0  0  0  0  0  0
   56.7514   32.6331   43.3919 H   0  0  0  0  0  0  0  0  0  0  0  0
   56.8952   34.6378   44.5795 H   0  0  0  0  0  0  0  0  0  0  0  0
   59.3602   34.7250   43.9407 H   0  0  0  0  0  0  0  0  0  0  0  0
   58.7827   35.5633   45.4625 H   0  0  0  0  0  0  0  0  0  0  0  0
   60.2252   32.9317   45.2710 H   0  0  0  0  0  0  0  0  0  0  0  0
   60.8640   34.5470   45.8482 H   0  0  0  0  0  0  0  0  0  0  0  0
   60.5201   35.4026   47.4573 H   0  0  0  0  0  0  0  0  0  0  0  0
   59.7002   34.6163   48.8989 H   0  0  0  0  0  0  0  0  0  0  0  0
   62.1662   33.5223   46.4248 H   0  0  0  0  0  0  0  0  0  0  0  0
   64.3611   32.5783   46.9576 H   0  0  0  0  0  0  0  0  0  0  0  0
   65.0884   32.4208   49.3474 H   0  0  0  0  0  0  0  0  0  0  0  0
   63.5634   33.2290   51.1509 H   0  0  0  0  0  0  0  0  0  0  0  0
   61.3427   34.1856   50.5646 H   0  0  0  0  0  0  0  0  0  0  0  0
   57.8447   33.4168   48.2835 H   0  0  0  0  0  0  0  0  0  0  0  0
   58.0128   34.9471   47.3283 H   0  0  0  0  0  0  0  0  0  0  0  0
   57.5080   32.1841   46.1531 H   0  0  0  0  0  0  0  0  0  0  0  0
   56.2588   33.4630   46.4331 H   0  0  0  0  0  0  0  0  0  0  0  0
   61.0814   28.5840   45.5491 H   0  0  0  0  0  0  0  0  0  0  0  0
   59.0060   33.2750   49.3320 H   0  0  0  0  0  0  0  0  0  0  0  0
   59.2690   35.1270   51.0040 H   0  0  0  0  0  0  0  0  0  0  0  0
  1  2  1  0
  2  3  1  0
  3  4  2  0
  4  5  1  0
  5  6  2  0
  6  7  1  0
  7  8  1  0
  8  9  2  0
  9 10  1  0
 10 11  1  0
 11 12  2  0
 12 13  1  0
 13 14  1  0
 14 15  2  0
 15 16  1  0
 16 17  2  0
 17 18  1  0
 18 19  1  0
 19 20  1  0
 20 21  1  0
 21 22  1  0
 22 23  1  0
 23 24  1  0
 24 25  1  0
 25 26  2  0
 26 27  1  0
 27 28  2  0
 28 29  1  0
 29 30  2  0
 23 31  1  0
 31 32  1  0
 17 33  1  0
 33 34  2  0
 11 35  1  0
  5 36  1  0
 36 37  1  0
 37  3  1  0
 35  7  2  0
 34 14  1  0
 32 20  1  0
 30 25  1  0
  1 38  1  0
  1 39  1  0
  1 40  1  0
  4 41  1  0
  8 42  1  0
  9 43  1  0
 10 44  1  0
 13 45  1  0
 13 46  1  0
 15 47  1  0
 16 48  1  0
 19 49  1  0
 19 50  1  0
 20 51  1  0
 21 52  1  0
 21 53  1  0
 22 54  1  0
 22 55  1  0
 24 56  1  0
 24 57  1  0
 26 58  1  0
 27 59  1  0
 28 60  1  0
 29 61  1  0
 30 62  1  0
 31 63  1  0
 31 64  1  0
 32 65  1  0
 32 66  1  0
 34 67  1  0
 36 68  1  0
 37 69  1  0
M  END
>  <smiles>  (49) 
COc1cc(=Nc2cc[nH]c(=NCc3ccc(OCC4CCN(Cc5ccccc5)CC4)nc3)n2)[nH][nH]1

>  <score_type>  (49) 
oracle

>  <origin>  (49) 
adg

>  <m_score__min__energy>  (49) 
-10.41

>  <m_primary>  (49) 
energy

$$$$
49:0
     RDKit          3D

 59 64  0  0  0  0  0  0  0  0999 V2000
   53.9326   31.6735   50.2146 H   0  0  0  0  0  0  0  0  0  0  0  0
   53.7050   31.2870   51.2190 C   0  0  0  0  0  0  0  0  0  0  0  0
   52.3970   31.6160   51.8100 C   0  0  0  0  0  0  0  0  0  0  0  0
   52.0480   31.2890   53.0680 N   0  0  0  0  0  0  0  0  0  0  0  0
   50.8260   31.8480   53.2140 C   0  0  0  0  0  0  0  0  0  0  0  0
   49.9510   31.7140   54.5870 S   0  0  0  0  0  0  0  0  0  0  0  0
   50.3880   32.5310   52.1320 N   0  0  0  0  0  0  0  0  0  0  0  0
   51.3950   32.3810   51.2560 C   0  0  0  0  0  0  0  0  0  0  0  0
   51.4110   32.9660   49.9960 O   0  0  0  0  0  0  0  0  0  0  0  0
   54.6330   30.5440   51.8350 C   0  0  0  0  0  0  0  0  0  0  0  0
   54.5280   29.2510   52.3550 C   0  0  0  0  0  0  0  0  0  0  0  0
   53.6325   28.6151   52.2934 H   0  0  0  0  0  0  0  0  0  0  0  0
   55.6960   28.8980   52.9470 N   0  0  0  0  0  0  0  0  0  0  0  0
   56.5200   29.9250   52.8100 N   0  0  0  0  0  0  0  0  0  0  0  0
   57.7960   30.0330   53.2520 C   0  0  0  0  0  0  0  0  0  0  0  0
   58.3460   29.0360   53.8950 N   0  0  0  0  0  0  0  0  0  0  0  0
   58.1730   28.5020   55.2590 C   0  0  0  0  0  0  0  0  0  0  0  0
   59.1023   28.9574   55.6319 H   0  0  0  0  0  0  0  0  0  0  0  0
   56.7640   28.3880   55.8210 C   0  0  0  0  0  0  0  0  0  0  0  0
   56.5848   28.5456   56.8948 H   0  0  0  0  0  0  0  0  0  0  0  0
   55.7934   28.8524   55.5922 H   0  0  0  0  0  0  0  0  0  0  0  0
   57.5090   27.1380   55.3430 C   0  0  0  0  0  0  0  0  0  0  0  0
   57.8651   26.3964   56.0732 H   0  0  0  0  0  0  0  0  0  0  0  0
   57.2958   26.3301   54.6276 H   0  0  0  0  0  0  0  0  0  0  0  0
   58.4580   31.1980   52.9930 N   0  0  0  0  0  0  0  0  0  0  0  0
   57.8500   32.2160   52.3020 C   0  0  0  0  0  0  0  0  0  0  0  0
   58.4930   33.3070   52.0100 N   0  0  0  0  0  0  0  0  0  0  0  0
   59.4130   33.4720   50.8860 C   0  0  0  0  0  0  0  0  0  0  0  0
   60.4126   33.7212   51.2716 H   0  0  0  0  0  0  0  0  0  0  0  0
   59.0396   34.2804   50.2401 H   0  0  0  0  0  0  0  0  0  0  0  0
   59.4980   32.2060   50.0750 C   0  0  0  0  0  0  0  0  0  0  0  0
   58.5110   31.9130   49.1200 C   0  0  0  0  0  0  0  0  0  0  0  0
   57.6850   32.6199   48.9528 H   0  0  0  0  0  0  0  0  0  0  0  0
   58.5720   30.7290   48.3810 C   0  0  0  0  0  0  0  0  0  0  0  0
   57.7907   30.5059   47.6395 H   0  0  0  0  0  0  0  0  0  0  0  0
   59.6260   29.8220   48.5800 C   0  0  0  0  0  0  0  0  0  0  0  0
   59.6850   28.5610   47.8110 C   0  0  0  0  0  0  0  0  0  0  0  0
   60.4580   27.6430   48.1970 O   0  0  0  0  0  0  0  0  0  0  0  0
   58.8780   28.3630   46.6340 N   0  0  0  0  0  0  0  0  0  0  0  0
   58.2700   27.0530   46.3680 C   0  0  0  0  0  0  0  0  0  0  0  0
   58.6784   26.3183   47.0775 H   0  0  0  0  0  0  0  0  0  0  0  0
   57.1804   27.1467   46.4867 H   0  0  0  0  0  0  0  0  0  0  0  0
   58.5630   26.5770   44.9270 C   0  0  0  0  0  0  0  0  0  0  0  0
   59.4266   25.8962   44.9557 H   0  0  0  0  0  0  0  0  0  0  0  0
   57.6501   26.0846   44.5608 H   0  0  0  0  0  0  0  0  0  0  0  0
   58.8660   27.6730   43.9870 N   0  0  0  0  0  0  0  0  0  0  0  0
   58.5600   27.3810   43.0300 H   0  0  0  0  0  0  0  0  0  0  0  0
   58.1640   28.9110   44.3370 C   0  0  0  0  0  0  0  0  0  0  0  0
   58.3090   29.6557   43.5405 H   0  0  0  0  0  0  0  0  0  0  0  0
   57.0884   28.7105   44.4502 H   0  0  0  0  0  0  0  0  0  0  0  0
   58.7320   29.4470   45.6500 C   0  0  0  0  0  0  0  0  0  0  0  0
   59.7174   29.8975   45.4601 H   0  0  0  0  0  0  0  0  0  0  0  0
   58.0396   30.2004   46.0537 H   0  0  0  0  0  0  0  0  0  0  0  0
   60.5960   30.1010   49.5580 C   0  0  0  0  0  0  0  0  0  0  0  0
   61.4122   29.3859   49.7380 H   0  0  0  0  0  0  0  0  0  0  0  0
   60.5300   31.2810   50.3030 C   0  0  0  0  0  0  0  0  0  0  0  0
   61.2896   31.4865   51.0716 H   0  0  0  0  0  0  0  0  0  0  0  0
   56.5590   32.0790   51.8820 N   0  0  0  0  0  0  0  0  0  0  0  0
   55.9170   30.9200   52.1580 C   0  0  0  0  0  0  0  0  0  0  0  0
  1  2  1  0
  2  3  1  0
  3  4  1  0
  4  5  1  0
  5  6  2  0
  5  7  1  0
  7  8  1  0
  8  9  1  0
  2 10  2  3
 10 11  1  0
 11 12  1  0
 11 13  2  0
 13 14  1  0
 14 15  1  0
 15 16  2  0
 16 17  1  0
 17 18  1  0
 17 19  1  0
 19 20  1  0
 19 21  1  0
 19 22  1  0
 22 23  1  0
 22 24  1  0
 15 25  1  0
 25 26  1  0
 26 27  2  3
 27 28  1  0
 28 29  1  0
 28 30  1  0
 28 31  1  0
 31 32  2  0
 32 33  1  0
 32 34  1  0
 34 35  1  0
 34 36  2  0
 36 37  1  0
 37 38  2  0
 37 39  1  0
 39 40  1  0
 40 41  1  0
 40 42  1  0
 40 43  1  0
 43 44  1  0
 43 45  1  0
 43 46  1  0
 46 47  1  0
 46 48  1  0
 48 49  1  0
 48 50  1  0
 48 51  1  0
 51 52  1  0
 51 53  1  0
 36 54  1  0
 54 55  1  0
 54 56  2  0
 56 57  1  0
 26 58  1  0
 58 59  2  0
  8  3  2  0
 59 10  1  0
 59 14  1  0
 22 17  1  0
 56 31  1  0
 51 39  1  0
M  CHG  4   4  -1   7  -1   9  -1  25  -1
M  END
>  <UniqueID>  (50) 
45

>  <SMILES>  (50) 
O=C(c1ccc(CN=c2nc3c(=Cc4[n-]c(=S)[n-]c4[O-])cnn3/c(=N/C3CC3)[n-]2)cc1)N1CCNCC1

>  <Energy>  (50) 
420.647609444552

>  <Genealogy>  (50) 
O=C(c1ccc(CN=c2nc3c(=Cc4[n-]c(=S)[n-]c4[O-])cnn3c(=NC3CC3)[n-]2)cc1)N1CCNCC1 (protonated)
O=C(c1ccc(CN=c2nc3c(=Cc4[n-]c(=S)[n-]c4[O-])cnn3/c(=N/C3CC3)[n-]2)cc1)N1CCNCC1 (cis-trans isomerization)
O=C(c1ccc(CN=c2nc3c(=Cc4[n-]c(=S)[n-]c4[O-])cnn3/c(=N/C3CC3)[n-]2)cc1)N1CCNCC1 (3D coordinates assigned)
O=C(c1ccc(CN=c2nc3c(=Cc4[n-]c(=S)[n-]c4[O-])cnn3/c(=N/C3CC3)[n-]2)cc1)N1CCNCC1 (nonaromatic ring conformer: 420.647609444552 kcal/mol)

>  <smiles>  (50) 
O=C(c1ccc(CN=c2nc3c(=Cc4[nH]c(=S)[nH]c4O)cnn3c(=NC3CC3)[nH]2)cc1)N1CCNCC1

>  <score_type>  (50) 
oracle

>  <origin>  (50) 
adg

>  <m_score__min__energy>  (50) 
-17.670000000000002

>  <m_primary>  (50) 
energy

$$$$
50:0
     RDKit          3D

 55 58  0  0  0  0  0  0  0  0999 V2000
   58.2940   34.6000   52.7310 N   0  0  0  0  0  0  0  0  0  0  0  0
   58.2850   33.3140   52.0990 C   0  0  0  0  0  0  0  0  0  0  0  0
   57.6440   32.2380   52.7310 C   0  0  0  0  0  0  0  0  0  0  0  0
   57.6210   30.9770   52.1320 C   0  0  0  0  0  0  0  0  0  0  0  0
   58.2500   30.7740   50.9030 C   0  0  0  0  0  0  0  0  0  0  0  0
   58.8950   31.8350   50.2640 C   0  0  0  0  0  0  0  0  0  0  0  0
   58.9050   33.1180   50.8460 C   0  0  0  0  0  0  0  0  0  0  0  0
   59.5830   34.2110   50.2060 N   0  0  0  0  0  0  0  0  0  0  0  0
   60.3870   34.1300   49.0220 C   0  0  0  0  0  0  0  0  0  0  0  0
   61.5990   34.4670   49.0930 O   0  0  0  0  0  0  0  0  0  0  0  0
   59.8220   33.7150   47.7170 C   0  0  0  0  0  0  0  0  0  0  0  0
   59.3310   34.6690   46.8100 C   0  0  0  0  0  0  0  0  0  0  0  0
   58.7980   34.2690   45.5820 C   0  0  0  0  0  0  0  0  0  0  0  0
   58.7520   32.9090   45.2360 C   0  0  0  0  0  0  0  0  0  0  0  0
   58.1470   32.4730   43.9310 C   0  0  0  0  0  0  0  0  0  0  0  0
   57.9770   31.0260   43.9160 N   0  0  0  0  0  0  0  0  0  0  0  0
   56.8170   30.3810   44.4500 C   0  0  0  0  0  0  0  0  0  0  0  0
   55.6890   30.9380   44.3610 O   0  0  0  0  0  0  0  0  0  0  0  0
   56.9480   29.0640   45.0980 C   0  0  0  0  0  0  0  0  0  0  0  0
   58.1930   28.5890   45.5310 C   0  0  0  0  0  0  0  0  0  0  0  0
   58.2820   27.3360   46.1440 C   0  0  0  0  0  0  0  0  0  0  0  0
   59.4090   26.9400   46.5460 O   0  0  0  0  0  0  0  0  0  0  0  0
   57.1250   26.5440   46.3180 C   0  0  0  0  0  0  0  0  0  0  0  0
   57.1910   25.1990   46.9580 C   0  0  0  0  0  0  0  0  0  0  0  0
   58.0250   24.9810   47.8780 O   0  0  0  0  0  0  0  0  0  0  0  0
   56.3440   24.1380   46.4980 N   0  0  0  0  0  0  0  0  0  0  0  0
   56.4950   23.3750   45.2910 C   0  0  0  0  0  0  0  0  0  0  0  0
   55.7900   23.6870   44.1140 C   0  0  0  0  0  0  0  0  0  0  0  0
   55.9830   22.9290   42.9550 C   0  0  0  0  0  0  0  0  0  0  0  0
   56.8940   21.8680   42.9560 C   0  0  0  0  0  0  0  0  0  0  0  0
   57.6140   21.5680   44.1140 C   0  0  0  0  0  0  0  0  0  0  0  0
   57.4210   22.3230   45.2750 C   0  0  0  0  0  0  0  0  0  0  0  0
   55.8930   27.0670   45.8610 C   0  0  0  0  0  0  0  0  0  0  0  0
   54.7140   26.3380   45.9820 O   0  0  0  0  0  0  0  0  0  0  0  0
   55.8430   28.2930   45.2760 N   0  0  0  0  0  0  0  0  0  0  0  0
   59.2490   31.9550   46.1380 C   0  0  0  0  0  0  0  0  0  0  0  0
   59.7900   32.3560   47.3630 C   0  0  0  0  0  0  0  0  0  0  0  0
   58.4920   35.4630   52.1790 H   0  0  0  0  0  0  0  0  0  0  0  0
   58.0930   34.7090   53.7500 H   0  0  0  0  0  0  0  0  0  0  0  0
   57.1561   32.3888   53.7053 H   0  0  0  0  0  0  0  0  0  0  0  0
   57.1061   30.1421   52.6298 H   0  0  0  0  0  0  0  0  0  0  0  0
   58.2377   29.7775   50.4372 H   0  0  0  0  0  0  0  0  0  0  0  0
   59.3984   31.6680   49.3003 H   0  0  0  0  0  0  0  0  0  0  0  0
   59.3664   35.7377   47.0683 H   0  0  0  0  0  0  0  0  0  0  0  0
   58.4119   35.0244   44.8818 H   0  0  0  0  0  0  0  0  0  0  0  0
   57.1666   32.9557   43.8053 H   0  0  0  0  0  0  0  0  0  0  0  0
   58.8165   32.7652   43.1086 H   0  0  0  0  0  0  0  0  0  0  0  0
   59.0968   29.1997   45.3891 H   0  0  0  0  0  0  0  0  0  0  0  0
   55.0842   24.5306   44.1056 H   0  0  0  0  0  0  0  0  0  0  0  0
   55.4179   23.1674   42.0419 H   0  0  0  0  0  0  0  0  0  0  0  0
   57.0433   21.2701   42.0449 H   0  0  0  0  0  0  0  0  0  0  0  0
   58.3341   20.7365   44.1130 H   0  0  0  0  0  0  0  0  0  0  0  0
   57.9994   22.0899   46.1812 H   0  0  0  0  0  0  0  0  0  0  0  0
   59.2125   30.8864   45.8795 H   0  0  0  0  0  0  0  0  0  0  0  0
   60.1936   31.6019   48.0547 H   0  0  0  0  0  0  0  0  0  0  0  0
  1  2  1  0
  2  3  2  0
  3  4  1  0
  4  5  2  0
  5  6  1  0
  6  7  2  0
  7  8  1  0
  8  9  1  0
  9 10  2  0
  9 11  1  0
 11 12  2  0
 12 13  1  0
 13 14  2  0
 14 15  1  0
 15 16  1  0
 16 17  1  0
 17 18  2  0
 17 19  1  0
 19 20  2  0
 20 21  1  0
 21 22  2  0
 21 23  1  0
 23 24  1  0
 24 25  2  0
 24 26  1  0
 26 27  1  0
 27 28  2  0
 28 29  1  0
 29 30  2  0
 30 31  1  0
 31 32  2  0
 23 33  2  0
 33 34  1  0
 33 35  1  0
 14 36  1  0
 36 37  2  0
  7  2  1  0
 37 11  1  0
 35 19  1  0
 32 27  1  0
  1 38  1  0
  1 39  1  0
  3 40  1  0
  4 41  1  0
  5 42  1  0
  6 43  1  0
 12 44  1  0
 13 45  1  0
 15 46  1  0
 15 47  1  0
 20 48  1  0
 28 49  1  0
 29 50  1  0
 30 51  1  0
 31 52  1  0
 32 53  1  0
 36 54  1  0
 37 55  1  0
M  CHG  5   8  -1  16  -1  26  -1  34  -1  35  -1
M  END
>  <UniqueID>  (51) 
46

>  <SMILES>  (51) 
Nc1ccccc1[N-]C(=O)c1ccc(C[N-]C(=O)c2cc(=O)c(C(=O)[N-]c3ccccc3)c([O-])[n-]2)cc1

>  <Energy>  (51) 
73.89234558887581

>  <Genealogy>  (51) 
Nc1ccccc1[N-]C(=O)c1ccc(C[N-]C(=O)c2cc(=O)c(C(=O)[N-]c3ccccc3)c([O-])[n-]2)cc1 (protonated)
Nc1ccccc1[N-]C(=O)c1ccc(C[N-]C(=O)c2cc(=O)c(C(=O)[N-]c3ccccc3)c([O-])[n-]2)cc1 (3D coordinates assigned)
Nc1ccccc1[N-]C(=O)c1ccc(C[N-]C(=O)c2cc(=O)c(C(=O)[N-]c3ccccc3)c([O-])[n-]2)cc1 (optimized conformer: 73.89234558887581 kcal/mol)

>  <smiles>  (51) 
Nc1ccccc1NC(=O)c1ccc(CNC(=O)c2cc(=O)c(C(=O)Nc3ccccc3)c(O)[nH]2)cc1

>  <score_type>  (51) 
oracle

>  <origin>  (51) 
adg

>  <m_score__min__energy>  (51) 
-19.829999999999998

>  <m_primary>  (51) 
energy

$$$$
51:0
     RDKit          3D

 39 41  0  0  0  0  0  0  0  0999 V2000
   56.2390   28.1560   55.1300 H   0  0  0  0  0  0  0  0  0  0  0  0
   56.5450   28.0350   54.1720 O   0  0  0  0  0  0  0  0  0  0  0  0
   57.1370   29.0840   53.4730 C   0  0  0  0  0  0  0  0  0  0  0  0
   58.4690   29.0560   53.2240 N   0  0  0  0  0  0  0  0  0  0  0  0
   59.0920   30.0630   52.5650 C   0  0  0  0  0  0  0  0  0  0  0  0
   60.3330   29.9740   52.3560 O   0  0  0  0  0  0  0  0  0  0  0  0
   58.3830   31.1600   52.1400 N   0  0  0  0  0  0  0  0  0  0  0  0
   59.0500   32.2280   51.3710 C   0  0  0  0  0  0  0  0  0  0  0  0
   58.5413   33.1844   51.5621 H   0  0  0  0  0  0  0  0  0  0  0  0
   60.1022   32.2909   51.6854 H   0  0  0  0  0  0  0  0  0  0  0  0
   58.9970   31.9230   49.8960 C   0  0  0  0  0  0  0  0  0  0  0  0
   58.9990   30.5910   49.4480 C   0  0  0  0  0  0  0  0  0  0  0  0
   59.0756   29.7689   50.1748 H   0  0  0  0  0  0  0  0  0  0  0  0
   58.9040   30.3060   48.0810 C   0  0  0  0  0  0  0  0  0  0  0  0
   58.9097   29.2615   47.7361 H   0  0  0  0  0  0  0  0  0  0  0  0
   58.8020   31.3460   47.1540 C   0  0  0  0  0  0  0  0  0  0  0  0
   58.7264   31.1201   46.0801 H   0  0  0  0  0  0  0  0  0  0  0  0
   58.7960   32.6740   47.5910 C   0  0  0  0  0  0  0  0  0  0  0  0
   58.6950   33.6830   46.6910 F   0  0  0  0  0  0  0  0  0  0  0  0
   58.8920   32.9640   48.9560 C   0  0  0  0  0  0  0  0  0  0  0  0
   58.8853   34.0102   49.2956 H   0  0  0  0  0  0  0  0  0  0  0  0
   57.0310   31.2260   52.3810 C   0  0  0  0  0  0  0  0  0  0  0  0
   56.3640   32.2280   52.0010 O   0  0  0  0  0  0  0  0  0  0  0  0
   56.3740   30.1720   53.0350 C   0  0  0  0  0  0  0  0  0  0  0  0
   54.9130   30.2330   53.2710 C   0  0  0  0  0  0  0  0  0  0  0  0
   54.5563   30.8175   54.1319 H   0  0  0  0  0  0  0  0  0  0  0  0
   53.9950   29.6230   52.5050 C   0  0  0  0  0  0  0  0  0  0  0  0
   53.9745   28.5232   52.5148 H   0  0  0  0  0  0  0  0  0  0  0  0
   53.0080   30.3180   51.6480 C   0  0  0  0  0  0  0  0  0  0  0  0
   52.6280   29.8060   50.3950 C   0  0  0  0  0  0  0  0  0  0  0  0
   53.0607   28.8602   50.0369 H   0  0  0  0  0  0  0  0  0  0  0  0
   51.7030   30.4920   49.6010 C   0  0  0  0  0  0  0  0  0  0  0  0
   51.3260   29.9670   48.3700 O   0  0  0  0  0  0  0  0  0  0  0  0
   51.1640   31.7060   50.0430 C   0  0  0  0  0  0  0  0  0  0  0  0
   50.2410   32.3850   49.2560 O   0  0  0  0  0  0  0  0  0  0  0  0
   51.5600   32.2370   51.2770 C   0  0  0  0  0  0  0  0  0  0  0  0
   51.0360   33.4460   51.7170 O   0  0  0  0  0  0  0  0  0  0  0  0
   52.4850   31.5500   52.0710 C   0  0  0  0  0  0  0  0  0  0  0  0
   52.8043   31.9781   53.0327 H   0  0  0  0  0  0  0  0  0  0  0  0
  1  2  1  0
  2  3  1  0
  3  4  1  0
  4  5  1  0
  5  6  2  0
  5  7  1  0
  7  8  1  0
  8  9  1  0
  8 10  1  0
  8 11  1  0
 11 12  2  0
 12 13  1  0
 12 14  1  0
 14 15  1  0
 14 16  2  0
 16 17  1  0
 16 18  1  0
 18 19  1  0
 18 20  2  0
 20 21  1  0
  7 22  1  0
 22 23  2  0
 22 24  1  0
 24 25  1  0
 25 26  1  0
 25 27  2  0
 27 28  1  0
 27 29  1  0
 29 30  2  0
 30 31  1  0
 30 32  1  0
 32 33  1  0
 32 34  2  0
 34 35  1  0
 34 36  1  0
 36 37  1  0
 36 38  2  0
 38 39  1  0
 24  3  2  0
 38 29  1  0
 20 11  1  0
M  CHG  4   4  -1  33  -1  35  -1  37  -1
M  END
>  <UniqueID>  (52) 
47

>  <SMILES>  (52) 
O=c1[n-]c(O)c(/C=C\c2cc([O-])c([O-])c([O-])c2)c(=O)n1Cc1cccc(F)c1

>  <Energy>  (52) 
56.99738320763863

>  <Genealogy>  (52) 
O=c1[n-]c(O)c(C=Cc2cc([O-])c([O-])c([O-])c2)c(=O)n1Cc1cccc(F)c1 (protonated)
O=c1[n-]c(O)c(/C=C\c2cc([O-])c([O-])c([O-])c2)c(=O)n1Cc1cccc(F)c1 (cis-trans isomerization)
O=c1[n-]c(O)c(/C=C\c2cc([O-])c([O-])c([O-])c2)c(=O)n1Cc1cccc(F)c1 (3D coordinates assigned)
O=c1[n-]c(O)c(/C=C\c2cc([O-])c([O-])c([O-])c2)c(=O)n1Cc1cccc(F)c1 (optimized conformer: 56.99738320763863 kcal/mol)

>  <smiles>  (52) 
O=c1[nH]c(O)c(C=Cc2cc(O)c(O)c(O)c2)c(=O)n1Cc1cccc(F)c1

>  <score_type>  (52) 
oracle

>  <origin>  (52) 
adg

>  <m_score__min__energy>  (52) 
-18.460000000000001

>  <m_primary>  (52) 
energy

$$$$
52:0
     RDKit          3D

 52 55  0  0  0  0  0  0  0  0999 V2000
   59.1550   35.0830   44.9870 C   0  0  0  0  0  0  0  0  0  0  0  0
   59.1300   34.3170   46.2770 C   0  0  0  0  0  0  0  0  0  0  0  0
   58.1460   33.3420   46.4910 C   0  0  0  0  0  0  0  0  0  0  0  0
   58.1290   32.6050   47.6790 C   0  0  0  0  0  0  0  0  0  0  0  0
   59.1020   32.8300   48.6680 C   0  0  0  0  0  0  0  0  0  0  0  0
   59.0610   32.0750   49.9710 C   0  0  0  0  0  0  0  0  0  0  0  0
   59.9870   30.8740   49.9110 C   0  0  0  0  0  0  0  0  0  0  0  0
   61.0130   30.7390   50.7070 N   0  0  0  0  0  0  0  0  0  0  0  0
   62.4050   30.9470   50.4220 C   0  0  0  0  0  0  0  0  0  0  0  0
   63.2830   30.2290   50.9720 O   0  0  0  0  0  0  0  0  0  0  0  0
   62.8070   31.9490   49.4080 C   0  0  0  0  0  0  0  0  0  0  0  0
   63.0090   31.5700   48.0680 C   0  0  0  0  0  0  0  0  0  0  0  0
   63.3930   32.5190   47.1150 C   0  0  0  0  0  0  0  0  0  0  0  0
   63.5780   33.8520   47.4850 C   0  0  0  0  0  0  0  0  0  0  0  0
   63.3850   34.2380   48.8120 C   0  0  0  0  0  0  0  0  0  0  0  0
   63.0030   33.2940   49.7710 C   0  0  0  0  0  0  0  0  0  0  0  0
   59.8320   29.8960   48.8060 C   0  0  0  0  0  0  0  0  0  0  0  0
   60.7970   29.6730   48.0270 O   0  0  0  0  0  0  0  0  0  0  0  0
   58.5890   29.1970   48.6130 N   0  0  0  0  0  0  0  0  0  0  0  0
   58.3880   28.2570   47.5140 C   0  0  0  0  0  0  0  0  0  0  0  0
   58.0950   28.9980   46.2500 C   0  0  0  0  0  0  0  0  0  0  0  0
   58.7910   30.1020   45.8660 N   0  0  0  0  0  0  0  0  0  0  0  0
   58.1820   30.4420   44.7220 C   0  0  0  0  0  0  0  0  0  0  0  0
   58.4830   31.5120   43.8830 C   0  0  0  0  0  0  0  0  0  0  0  0
   57.6980   31.6740   42.7250 C   0  0  0  0  0  0  0  0  0  0  0  0
   56.6450   30.7740   42.4430 C   0  0  0  0  0  0  0  0  0  0  0  0
   56.3700   29.7050   43.3170 C   0  0  0  0  0  0  0  0  0  0  0  0
   57.1680   29.5750   44.4510 C   0  0  0  0  0  0  0  0  0  0  0  0
   57.0860   28.6440   45.4110 N   0  0  0  0  0  0  0  0  0  0  0  0
   60.0900   33.8040   48.4480 C   0  0  0  0  0  0  0  0  0  0  0  0
   60.1100   34.5350   47.2580 C   0  0  0  0  0  0  0  0  0  0  0  0
   59.1902   36.1613   45.2015 H   0  0  0  0  0  0  0  0  0  0  0  0
   60.0442   34.7953   44.4069 H   0  0  0  0  0  0  0  0  0  0  0  0
   58.2489   34.8539   44.4069 H   0  0  0  0  0  0  0  0  0  0  0  0
   57.3834   33.1558   45.7205 H   0  0  0  0  0  0  0  0  0  0  0  0
   57.3502   31.8452   47.8405 H   0  0  0  0  0  0  0  0  0  0  0  0
   59.3812   32.7402   50.7865 H   0  0  0  0  0  0  0  0  0  0  0  0
   58.0333   31.7268   50.1516 H   0  0  0  0  0  0  0  0  0  0  0  0
   62.8641   30.5216   47.7683 H   0  0  0  0  0  0  0  0  0  0  0  0
   63.5498   32.2136   46.0699 H   0  0  0  0  0  0  0  0  0  0  0  0
   63.8753   34.5968   46.7321 H   0  0  0  0  0  0  0  0  0  0  0  0
   63.5337   35.2878   49.1048 H   0  0  0  0  0  0  0  0  0  0  0  0
   62.8549   33.6053   50.8156 H   0  0  0  0  0  0  0  0  0  0  0  0
   57.8030   29.3340   49.2880 H   0  0  0  0  0  0  0  0  0  0  0  0
   59.2986   27.6546   47.3796 H   0  0  0  0  0  0  0  0  0  0  0  0
   57.5370   27.6020   47.7523 H   0  0  0  0  0  0  0  0  0  0  0  0
   59.3043   32.2056   44.1163 H   0  0  0  0  0  0  0  0  0  0  0  0
   57.9055   32.5059   42.0358 H   0  0  0  0  0  0  0  0  0  0  0  0
   56.0374   30.9096   41.5361 H   0  0  0  0  0  0  0  0  0  0  0  0
   55.5534   28.9972   43.1114 H   0  0  0  0  0  0  0  0  0  0  0  0
   60.8528   33.9922   49.2179 H   0  0  0  0  0  0  0  0  0  0  0  0
   60.8970   35.2847   47.0889 H   0  0  0  0  0  0  0  0  0  0  0  0
  1  2  1  0
  2  3  2  0
  3  4  1  0
  4  5  2  0
  5  6  1  0
  6  7  1  0
  7  8  2  3
  8  9  1  0
  9 10  2  0
  9 11  1  0
 11 12  2  0
 12 13  1  0
 13 14  2  0
 14 15  1  0
 15 16  2  0
  7 17  1  0
 17 18  2  0
 17 19  1  0
 19 20  1  0
 20 21  1  0
 21 22  2  0
 22 23  1  0
 23 24  2  0
 24 25  1  0
 25 26  2  0
 26 27  1  0
 27 28  2  0
 28 29  1  0
  5 30  1  0
 30 31  2  0
 31  2  1  0
 16 11  1  0
 29 21  1  0
 28 23  1  0
  1 32  1  0
  1 33  1  0
  1 34  1  0
  3 35  1  0
  4 36  1  0
  6 37  1  0
  6 38  1  0
 12 39  1  0
 13 40  1  0
 14 41  1  0
 15 42  1  0
 16 43  1  0
 19 44  1  0
 20 45  1  0
 20 46  1  0
 24 47  1  0
 25 48  1  0
 26 49  1  0
 27 50  1  0
 30 51  1  0
 31 52  1  0
M  CHG  1  29  -1
M  END
>  <UniqueID>  (53) 
48

>  <SMILES>  (53) 
Cc1ccc(CC(=NC(=O)c2ccccc2)C(=O)NCc2nc3ccccc3[n-]2)cc1

>  <Energy>  (53) 
92.75871577592478

>  <Genealogy>  (53) 
Cc1ccc(CC(=NC(=O)c2ccccc2)C(=O)NCc2nc3ccccc3[n-]2)cc1 (protonated)
Cc1ccc(CC(=NC(=O)c2ccccc2)C(=O)NCc2nc3ccccc3[n-]2)cc1 (3D coordinates assigned)
Cc1ccc(CC(=NC(=O)c2ccccc2)C(=O)NCc2nc3ccccc3[n-]2)cc1 (optimized conformer: 92.75871577592478 kcal/mol)

>  <smiles>  (53) 
Cc1ccc(CC(=NC(=O)c2ccccc2)C(=O)NCc2nc3ccccc3[nH]2)cc1

>  <score_type>  (53) 
oracle

>  <origin>  (53) 
adg

>  <m_score__min__energy>  (53) 
-10.65

>  <m_primary>  (53) 
energy

$$$$
53:0
     RDKit          3D

 58 62  0  0  0  0  0  0  0  0999 V2000
   58.8620   33.6880   45.8150 O   0  0  0  0  0  0  0  0  0  0  0  0
   58.8570   32.4370   45.6440 C   0  0  0  0  0  0  0  0  0  0  0  0
   59.5370   31.5830   46.5810 N   0  0  0  0  0  0  0  0  0  0  0  0
   60.5210   32.0470   47.5210 C   0  0  0  0  0  0  0  0  0  0  0  0
   60.2150   33.1260   48.3620 C   0  0  0  0  0  0  0  0  0  0  0  0
   61.1510   33.5930   49.2890 C   0  0  0  0  0  0  0  0  0  0  0  0
   62.4130   32.9860   49.3920 C   0  0  0  0  0  0  0  0  0  0  0  0
   63.4090   33.4930   50.3630 C   0  0  0  0  0  0  0  0  0  0  0  0
   63.1300   34.4980   51.0710 O   0  0  0  0  0  0  0  0  0  0  0  0
   64.6740   32.8400   50.5480 N   0  0  0  0  0  0  0  0  0  0  0  0
   65.9610   33.4210   50.1610 C   0  0  0  0  0  0  0  0  0  0  0  0
   67.0370   32.3850   50.5670 C   0  0  0  0  0  0  0  0  0  0  0  0
   66.2350   31.2380   51.0790 C   0  0  0  0  0  0  0  0  0  0  0  0
   66.6990   29.9970   51.5170 C   0  0  0  0  0  0  0  0  0  0  0  0
   65.7570   29.0380   51.9270 C   0  0  0  0  0  0  0  0  0  0  0  0
   64.3810   29.3280   51.8750 C   0  0  0  0  0  0  0  0  0  0  0  0
   63.9400   30.5840   51.4250 C   0  0  0  0  0  0  0  0  0  0  0  0
   64.8990   31.5300   51.0510 C   0  0  0  0  0  0  0  0  0  0  0  0
   62.7040   31.8760   48.5820 C   0  0  0  0  0  0  0  0  0  0  0  0
   61.7670   31.4080   47.6570 C   0  0  0  0  0  0  0  0  0  0  0  0
   58.1170   31.8540   44.4980 C   0  0  0  0  0  0  0  0  0  0  0  0
   58.1510   32.5040   43.2490 C   0  0  0  0  0  0  0  0  0  0  0  0
   57.4380   31.9910   42.1620 C   0  0  0  0  0  0  0  0  0  0  0  0
   56.6800   30.8300   42.3050 C   0  0  0  0  0  0  0  0  0  0  0  0
   56.6350   30.1730   43.5350 C   0  0  0  0  0  0  0  0  0  0  0  0
   57.3490   30.6700   44.6310 C   0  0  0  0  0  0  0  0  0  0  0  0
   57.3310   29.9320   45.8530 N   0  0  0  0  0  0  0  0  0  0  0  0
   58.4910   28.6840   46.1490 S   0  0  0  0  0  0  0  0  0  0  0  0
   59.7440   28.9480   45.3620 O   0  0  0  0  0  0  0  0  0  0  0  0
   58.8350   28.6710   47.6120 O   0  0  0  0  0  0  0  0  0  0  0  0
   57.8120   27.1250   45.6890 C   0  0  0  0  0  0  0  0  0  0  0  0
   57.0060   26.4070   46.5830 C   0  0  0  0  0  0  0  0  0  0  0  0
   56.4540   25.1810   46.2010 C   0  0  0  0  0  0  0  0  0  0  0  0
   56.7000   24.6690   44.9240 C   0  0  0  0  0  0  0  0  0  0  0  0
   57.4960   25.3840   44.0260 C   0  0  0  0  0  0  0  0  0  0  0  0
   58.0500   26.6110   44.4060 C   0  0  0  0  0  0  0  0  0  0  0  0
   59.2190   30.5910   46.6560 H   0  0  0  0  0  0  0  0  0  0  0  0
   59.2294   33.6095   48.2917 H   0  0  0  0  0  0  0  0  0  0  0  0
   60.8975   34.4412   49.9419 H   0  0  0  0  0  0  0  0  0  0  0  0
   65.9900   33.5966   49.0755 H   0  0  0  0  0  0  0  0  0  0  0  0
   66.1294   34.3903   50.6531 H   0  0  0  0  0  0  0  0  0  0  0  0
   67.6427   32.0856   49.6990 H   0  0  0  0  0  0  0  0  0  0  0  0
   67.7511   32.7747   51.3074 H   0  0  0  0  0  0  0  0  0  0  0  0
   67.7760   29.7747   51.5408 H   0  0  0  0  0  0  0  0  0  0  0  0
   66.0967   28.0568   52.2900 H   0  0  0  0  0  0  0  0  0  0  0  0
   63.6485   28.5692   52.1875 H   0  0  0  0  0  0  0  0  0  0  0  0
   62.8665   30.8172   51.3684 H   0  0  0  0  0  0  0  0  0  0  0  0
   63.6768   31.3713   48.6765 H   0  0  0  0  0  0  0  0  0  0  0  0
   62.0050   30.5350   47.0316 H   0  0  0  0  0  0  0  0  0  0  0  0
   58.7435   33.4229   43.1281 H   0  0  0  0  0  0  0  0  0  0  0  0
   57.4751   32.5052   41.1903 H   0  0  0  0  0  0  0  0  0  0  0  0
   56.1172   30.4317   41.4479 H   0  0  0  0  0  0  0  0  0  0  0  0
   56.0341   29.2581   43.6439 H   0  0  0  0  0  0  0  0  0  0  0  0
   56.8074   26.8092   47.5874 H   0  0  0  0  0  0  0  0  0  0  0  0
   55.8250   24.6183   46.9065 H   0  0  0  0  0  0  0  0  0  0  0  0
   56.2667   23.7028   44.6260 H   0  0  0  0  0  0  0  0  0  0  0  0
   57.6872   24.9822   43.0200 H   0  0  0  0  0  0  0  0  0  0  0  0
   58.6740   27.1743   43.6966 H   0  0  0  0  0  0  0  0  0  0  0  0
  1  2  2  0
  2  3  1  0
  3  4  1  0
  4  5  2  0
  5  6  1  0
  6  7  2  0
  7  8  1  0
  8  9  2  0
  8 10  1  0
 10 11  1  0
 11 12  1  0
 12 13  1  0
 13 14  2  0
 14 15  1  0
 15 16  2  0
 16 17  1  0
 17 18  2  0
  7 19  1  0
 19 20  2  0
  2 21  1  0
 21 22  2  0
 22 23  1  0
 23 24  2  0
 24 25  1  0
 25 26  2  0
 26 27  1  0
 27 28  1  0
 28 29  2  0
 28 30  2  0
 28 31  1  0
 31 32  2  0
 32 33  1  0
 33 34  2  0
 34 35  1  0
 35 36  2  0
 20  4  1  0
 26 21  1  0
 36 31  1  0
 18 10  1  0
 18 13  1  0
  3 37  1  0
  5 38  1  0
  6 39  1  0
 11 40  1  0
 11 41  1  0
 12 42  1  0
 12 43  1  0
 14 44  1  0
 15 45  1  0
 16 46  1  0
 17 47  1  0
 19 48  1  0
 20 49  1  0
 22 50  1  0
 23 51  1  0
 24 52  1  0
 25 53  1  0
 32 54  1  0
 33 55  1  0
 34 56  1  0
 35 57  1  0
 36 58  1  0
M  CHG  1  27  -1
M  END
>  <UniqueID>  (54) 
49

>  <SMILES>  (54) 
O=C(Nc1ccc(C(=O)N2CCc3ccccc32)cc1)c1ccccc1[N-]S(=O)(=O)c1ccccc1

>  <Energy>  (54) 
100.5005511102641

>  <Genealogy>  (54) 
O=C(Nc1ccc(C(=O)N2CCc3ccccc32)cc1)c1ccccc1[N-]S(=O)(=O)c1ccccc1 (protonated)
O=C(Nc1ccc(C(=O)N2CCc3ccccc32)cc1)c1ccccc1[N-]S(=O)(=O)c1ccccc1 (3D coordinates assigned)
O=C(Nc1ccc(C(=O)N2CCc3ccccc32)cc1)c1ccccc1[N-]S(=O)(=O)c1ccccc1 (nonaromatic ring conformer: 100.5005511102641 kcal/mol)

>  <smiles>  (54) 
O=C(Nc1ccc(C(=O)N2CCc3ccccc32)cc1)c1ccccc1NS(=O)(=O)c1ccccc1

>  <score_type>  (54) 
oracle

>  <origin>  (54) 
adg

>  <m_score__min__energy>  (54) 
-10.43

>  <m_primary>  (54) 
energy

$$$$
54:0
     RDKit          3D

 31 33  0  0  0  0  0  0  0  0999 V2000
   58.0020   26.0780   47.0680 O   0  0  0  0  0  0  0  0  0  0  0  0
   57.4930   26.7690   46.1450 C   0  0  0  0  0  0  0  0  0  0  0  0
   56.7100   26.1330   45.1240 N   0  0  0  0  0  0  0  0  0  0  0  0
   55.9130   24.9480   45.2700 C   0  0  0  0  0  0  0  0  0  0  0  0
   56.4490   23.6620   45.0700 C   0  0  0  0  0  0  0  0  0  0  0  0
   55.6470   22.5290   45.2460 C   0  0  0  0  0  0  0  0  0  0  0  0
   54.3140   22.6680   45.6370 C   0  0  0  0  0  0  0  0  0  0  0  0
   53.7810   23.9400   45.8630 C   0  0  0  0  0  0  0  0  0  0  0  0
   54.5780   25.0770   45.6870 C   0  0  0  0  0  0  0  0  0  0  0  0
   54.0370   26.3360   45.9240 O   0  0  0  0  0  0  0  0  0  0  0  0
   57.7560   28.2330   46.0800 C   0  0  0  0  0  0  0  0  0  0  0  0
   56.7680   29.1210   45.6010 C   0  0  0  0  0  0  0  0  0  0  0  0
   55.5180   28.6530   45.2020 O   0  0  0  0  0  0  0  0  0  0  0  0
   57.0180   30.4560   45.5410 N   0  0  0  0  0  0  0  0  0  0  0  0
   58.2000   30.9960   45.9330 C   0  0  0  0  0  0  0  0  0  0  0  0
   58.4020   32.3830   45.8500 C   0  0  0  0  0  0  0  0  0  0  0  0
   57.1430   33.4480   45.2380 Cl  0  0  0  0  0  0  0  0  0  0  0  0
   59.6210   32.9350   46.2570 C   0  0  0  0  0  0  0  0  0  0  0  0
   60.6380   32.1120   46.7460 C   0  0  0  0  0  0  0  0  0  0  0  0
   60.4450   30.7310   46.8330 C   0  0  0  0  0  0  0  0  0  0  0  0
   59.2240   30.1590   46.4280 C   0  0  0  0  0  0  0  0  0  0  0  0
   58.9950   28.7700   46.4980 C   0  0  0  0  0  0  0  0  0  0  0  0
   59.9070   28.0070   46.9200 O   0  0  0  0  0  0  0  0  0  0  0  0
   57.5023   23.5472   44.7742 H   0  0  0  0  0  0  0  0  0  0  0  0
   56.0676   21.5269   45.0760 H   0  0  0  0  0  0  0  0  0  0  0  0
   53.6832   21.7763   45.7672 H   0  0  0  0  0  0  0  0  0  0  0  0
   52.7331   24.0478   46.1798 H   0  0  0  0  0  0  0  0  0  0  0  0
   55.2800   27.6710   45.2770 H   0  0  0  0  0  0  0  0  0  0  0  0
   59.7793   34.0216   46.1917 H   0  0  0  0  0  0  0  0  0  0  0  0
   61.5944   32.5527   47.0638 H   0  0  0  0  0  0  0  0  0  0  0  0
   61.2499   30.0884   47.2193 H   0  0  0  0  0  0  0  0  0  0  0  0
  1  2  2  0
  2  3  1  0
  3  4  1  0
  4  5  2  0
  5  6  1  0
  6  7  2  0
  7  8  1  0
  8  9  2  0
  9 10  1  0
  2 11  1  0
 11 12  2  0
 12 13  1  0
 12 14  1  0
 14 15  1  0
 15 16  2  0
 16 17  1  0
 16 18  1  0
 18 19  2  0
 19 20  1  0
 20 21  2  0
 21 22  1  0
 22 23  2  0
  9  4  1  0
 22 11  1  0
 21 15  1  0
  5 24  1  0
  6 25  1  0
  7 26  1  0
  8 27  1  0
 13 28  1  0
 18 29  1  0
 19 30  1  0
 20 31  1  0
M  CHG  3   3  -1  10  -1  14  -1
M  END
>  <UniqueID>  (55) 
50

>  <SMILES>  (55) 
O=C([N-]c1ccccc1[O-])c1c(O)[n-]c2c(Cl)cccc2c1=O

>  <Energy>  (55) 
47.48725597297737

>  <Genealogy>  (55) 
O=C([N-]c1ccccc1[O-])c1c(O)[n-]c2c(Cl)cccc2c1=O (protonated)
O=C([N-]c1ccccc1[O-])c1c(O)[n-]c2c(Cl)cccc2c1=O (3D coordinates assigned)
O=C([N-]c1ccccc1[O-])c1c(O)[n-]c2c(Cl)cccc2c1=O (optimized conformer: 47.48725597297737 kcal/mol)

>  <smiles>  (55) 
O=C(Nc1ccccc1O)c1c(O)[nH]c2c(Cl)cccc2c1=O

>  <score_type>  (55) 
oracle

>  <origin>  (55) 
adg

>  <m_score__min__energy>  (55) 
-14.74

>  <m_primary>  (55) 
energy

$$$$
55:0
     RDKit          3D

 37 39  0  0  0  0  0  0  0  0999 V2000
   57.1950   31.7250   42.2130 O   0  0  0  0  0  0  0  0  0  0  0  0
   57.0790   31.3780   43.4190 C   0  0  0  0  0  0  0  0  0  0  0  0
   56.4280   30.1330   43.7150 N   0  0  0  0  0  0  0  0  0  0  0  0
   56.9760   29.1000   44.2900 C   0  0  0  0  0  0  0  0  0  0  0  0
   57.7460   28.2170   43.5240 C   0  0  0  0  0  0  0  0  0  0  0  0
   58.3230   27.1000   44.1350 C   0  0  0  0  0  0  0  0  0  0  0  0
   58.1210   26.8720   45.4980 C   0  0  0  0  0  0  0  0  0  0  0  0
   58.8410   25.4770   46.2790 Cl  0  0  0  0  0  0  0  0  0  0  0  0
   57.3390   27.7680   46.2310 C   0  0  0  0  0  0  0  0  0  0  0  0
   56.7850   28.8470   45.6170 N   0  0  0  0  0  0  0  0  0  0  0  0
   57.6660   32.2370   44.4750 C   0  0  0  0  0  0  0  0  0  0  0  0
   58.2340   33.4720   44.1540 C   0  0  0  0  0  0  0  0  0  0  0  0
   58.7780   34.2530   45.1720 C   0  0  0  0  0  0  0  0  0  0  0  0
   59.2980   35.3620   44.8720 O   0  0  0  0  0  0  0  0  0  0  0  0
   58.7420   33.8200   46.4750 N   0  0  0  0  0  0  0  0  0  0  0  0
   59.3670   34.6230   47.5450 C   0  0  0  0  0  0  0  0  0  0  0  0
   60.8110   34.2310   47.7210 C   0  0  0  0  0  0  0  0  0  0  0  0
   61.5840   33.8510   46.6100 C   0  0  0  0  0  0  0  0  0  0  0  0
   62.9130   33.4500   46.7800 C   0  0  0  0  0  0  0  0  0  0  0  0
   63.4800   33.4240   48.0570 C   0  0  0  0  0  0  0  0  0  0  0  0
   62.7180   33.7960   49.1670 C   0  0  0  0  0  0  0  0  0  0  0  0
   61.3880   34.1960   49.0020 C   0  0  0  0  0  0  0  0  0  0  0  0
   58.1590   32.6110   46.7670 C   0  0  0  0  0  0  0  0  0  0  0  0
   58.1100   32.1940   47.9580 O   0  0  0  0  0  0  0  0  0  0  0  0
   57.6250   31.8440   45.7770 N   0  0  0  0  0  0  0  0  0  0  0  0
   57.8958   28.4006   42.4498 H   0  0  0  0  0  0  0  0  0  0  0  0
   58.9345   26.4024   43.5439 H   0  0  0  0  0  0  0  0  0  0  0  0
   57.1715   27.6004   47.3052 H   0  0  0  0  0  0  0  0  0  0  0  0
   58.2517   33.8234   43.1118 H   0  0  0  0  0  0  0  0  0  0  0  0
   59.3107   35.6887   47.2782 H   0  0  0  0  0  0  0  0  0  0  0  0
   58.8304   34.4403   48.4877 H   0  0  0  0  0  0  0  0  0  0  0  0
   61.1418   33.8691   45.6030 H   0  0  0  0  0  0  0  0  0  0  0  0
   63.5132   33.1545   45.9068 H   0  0  0  0  0  0  0  0  0  0  0  0
   64.5262   33.1106   48.1880 H   0  0  0  0  0  0  0  0  0  0  0  0
   63.1645   33.7743   50.1721 H   0  0  0  0  0  0  0  0  0  0  0  0
   60.7905   34.4847   49.8793 H   0  0  0  0  0  0  0  0  0  0  0  0
   57.1930   30.9260   46.0280 H   0  0  0  0  0  0  0  0  0  0  0  0
  1  2  2  0
  2  3  1  0
  3  4  2  3
  4  5  1  0
  5  6  2  0
  6  7  1  0
  7  8  1  0
  7  9  2  0
  9 10  1  0
  2 11  1  0
 11 12  2  0
 12 13  1  0
 13 14  2  0
 13 15  1  0
 15 16  1  0
 16 17  1  0
 17 18  2  0
 18 19  1  0
 19 20  2  0
 20 21  1  0
 21 22  2  0
 15 23  1  0
 23 24  2  0
 23 25  1  0
 10  4  1  0
 25 11  1  0
 22 17  1  0
  5 26  1  0
  6 27  1  0
  9 28  1  0
 12 29  1  0
 16 30  1  0
 16 31  1  0
 18 32  1  0
 19 33  1  0
 20 34  1  0
 21 35  1  0
 22 36  1  0
 25 37  1  0
M  CHG  1  10  -1
M  END
>  <UniqueID>  (56) 
51

>  <SMILES>  (56) 
O=C(N=c1ccc(Cl)c[n-]1)c1cc(=O)n(Cc2ccccc2)c(=O)[nH]1

>  <Energy>  (56) 
51.671374641015234

>  <Genealogy>  (56) 
O=C(N=c1ccc(Cl)c[n-]1)c1cc(=O)n(Cc2ccccc2)c(=O)[nH]1 (protonated)
O=C(N=c1ccc(Cl)c[n-]1)c1cc(=O)n(Cc2ccccc2)c(=O)[nH]1 (3D coordinates assigned)
O=C(N=c1ccc(Cl)c[n-]1)c1cc(=O)n(Cc2ccccc2)c(=O)[nH]1 (optimized conformer: 51.671374641015234 kcal/mol)

>  <smiles>  (56) 
O=C(N=c1ccc(Cl)c[nH]1)c1cc(=O)n(Cc2ccccc2)c(=O)[nH]1

>  <score_type>  (56) 
oracle

>  <origin>  (56) 
adg

>  <m_score__min__energy>  (56) 
-10.199999999999999

>  <m_primary>  (56) 
energy

$$$$
56:0
     RDKit          3D

 49 53  0  0  0  0  0  0  0  0999 V2000
   52.7918   32.0156   53.3323 H   0  0  0  0  0  0  0  0  0  0  0  0
   52.9000   31.1930   52.6100 C   0  0  0  0  0  0  0  0  0  0  0  0
   52.2100   31.3190   51.3140 C   0  0  0  0  0  0  0  0  0  0  0  0
   52.2100   30.3450   50.3870 N   0  0  0  0  0  0  0  0  0  0  0  0
   51.3930   30.8250   49.4250 C   0  0  0  0  0  0  0  0  0  0  0  0
   51.1430   30.1880   48.3700 O   0  0  0  0  0  0  0  0  0  0  0  0
   50.8530   32.0330   49.6930 N   0  0  0  0  0  0  0  0  0  0  0  0
   51.3680   32.3260   50.8980 C   0  0  0  0  0  0  0  0  0  0  0  0
   51.0280   33.4640   51.6200 O   0  0  0  0  0  0  0  0  0  0  0  0
   53.6510   30.1410   52.9660 C   0  0  0  0  0  0  0  0  0  0  0  0
   53.3090   29.0200   53.7300 C   0  0  0  0  0  0  0  0  0  0  0  0
   52.3108   28.8189   54.1460 H   0  0  0  0  0  0  0  0  0  0  0  0
   54.3930   28.2180   53.8810 N   0  0  0  0  0  0  0  0  0  0  0  0
   55.3930   28.8050   53.2430 N   0  0  0  0  0  0  0  0  0  0  0  0
   56.6720   28.3790   53.1210 C   0  0  0  0  0  0  0  0  0  0  0  0
   57.0520   27.2570   53.6560 N   0  0  0  0  0  0  0  0  0  0  0  0
   57.4780   27.1390   55.0470 C   0  0  0  0  0  0  0  0  0  0  0  0
   58.3844   26.5410   54.8715 H   0  0  0  0  0  0  0  0  0  0  0  0
   57.1340   28.3590   55.8830 C   0  0  0  0  0  0  0  0  0  0  0  0
   57.8092   28.6819   56.6891 H   0  0  0  0  0  0  0  0  0  0  0  0
   56.8933   29.4098   55.6643 H   0  0  0  0  0  0  0  0  0  0  0  0
   56.3250   27.0760   56.0340 C   0  0  0  0  0  0  0  0  0  0  0  0
   56.4161   26.4723   56.9490 H   0  0  0  0  0  0  0  0  0  0  0  0
   55.2581   26.8161   55.9695 H   0  0  0  0  0  0  0  0  0  0  0  0
   57.5440   29.1590   52.4170 N   0  0  0  0  0  0  0  0  0  0  0  0
   57.1320   30.3360   51.8470 C   0  0  0  0  0  0  0  0  0  0  0  0
   58.0620   31.1410   51.0920 N   0  0  0  0  0  0  0  0  0  0  0  0
   58.9720   30.4850   50.1300 C   0  0  0  0  0  0  0  0  0  0  0  0
   58.4251   29.6646   49.6423 H   0  0  0  0  0  0  0  0  0  0  0  0
   59.8413   30.1349   50.7059 H   0  0  0  0  0  0  0  0  0  0  0  0
   59.5190   31.4280   49.0270 C   0  0  0  0  0  0  0  0  0  0  0  0
   59.2230   31.0295   48.0454 H   0  0  0  0  0  0  0  0  0  0  0  0
   60.6126   31.4683   49.1381 H   0  0  0  0  0  0  0  0  0  0  0  0
   59.0100   32.8040   49.1490 N   0  0  0  0  0  0  0  0  0  0  0  0
   59.8450   33.8590   48.0330 S   0  0  0  0  0  0  0  0  0  0  0  0
   60.5120   34.9730   48.7950 O   0  0  0  0  0  0  0  0  0  0  0  0
   60.9010   33.0710   47.3090 O   0  0  0  0  0  0  0  0  0  0  0  0
   58.7410   34.5690   46.8210 C   0  0  0  0  0  0  0  0  0  0  0  0
   57.9227   35.0953   47.3342 H   0  0  0  0  0  0  0  0  0  0  0  0
   59.2961   35.2798   46.1913 H   0  0  0  0  0  0  0  0  0  0  0  0
   58.3245   33.7690   46.1913 H   0  0  0  0  0  0  0  0  0  0  0  0
   59.1790   33.2810   50.5230 C   0  0  0  0  0  0  0  0  0  0  0  0
   59.0194   34.3687   50.5617 H   0  0  0  0  0  0  0  0  0  0  0  0
   60.1966   33.0617   50.8785 H   0  0  0  0  0  0  0  0  0  0  0  0
   58.1540   32.5790   51.4000 C   0  0  0  0  0  0  0  0  0  0  0  0
   57.1695   33.0416   51.2367 H   0  0  0  0  0  0  0  0  0  0  0  0
   58.4719   32.6841   52.4478 H   0  0  0  0  0  0  0  0  0  0  0  0
   55.8330   30.7380   51.9910 N   0  0  0  0  0  0  0  0  0  0  0  0
   54.9870   29.9500   52.6960 C   0  0  0  0  0  0  0  0  0  0  0  0
  1  2  1  0
  2  3  1  0
  3  4  1  0
  4  5  1  0
  5  6  2  0
  5  7  1  0
  7  8  1  0
  8  9  1  0
  2 10  2  3
 10 11  1  0
 11 12  1  0
 11 13  2  0
 13 14  1  0
 14 15  1  0
 15 16  2  0
 16 17  1  0
 17 18  1  0
 17 19  1  0
 19 20  1  0
 19 21  1  0
 19 22  1  0
 22 23  1  0
 22 24  1  0
 15 25  1  0
 25 26  2  0
 26 27  1  0
 27 28  1  0
 28 29  1  0
 28 30  1  0
 28 31  1  0
 31 32  1  0
 31 33  1  0
 31 34  1  0
 34 35  1  0
 35 36  2  0
 35 37  2  0
 35 38  1  0
 38 39  1  0
 38 40  1  0
 38 41  1  0
 34 42  1  0
 42 43  1  0
 42 44  1  0
 42 45  1  0
 45 46  1  0
 45 47  1  0
 26 48  1  0
 48 49  2  0
  8  3  2  0
 49 10  1  0
 49 14  1  0
 22 17  1  0
 45 27  1  0
M  CHG  3   4  -1   7  -1   9  -1
M  END
>  <UniqueID>  (57) 
52

>  <SMILES>  (57) 
CS(=O)(=O)N1CCN(c2n/c(=N\C3CC3)n3ncc(=Cc4[n-]c(=O)[n-]c4[O-])c3n2)CC1

>  <Energy>  (57) 
390.36508270471666

>  <Genealogy>  (57) 
CS(=O)(=O)N1CCN(c2nc(=NC3CC3)n3ncc(=Cc4[n-]c(=O)[n-]c4[O-])c3n2)CC1 (protonated)
CS(=O)(=O)N1CCN(c2n/c(=N\C3CC3)n3ncc(=Cc4[n-]c(=O)[n-]c4[O-])c3n2)CC1 (cis-trans isomerization)
CS(=O)(=O)N1CCN(c2n/c(=N\C3CC3)n3ncc(=Cc4[n-]c(=O)[n-]c4[O-])c3n2)CC1 (3D coordinates assigned)
CS(=O)(=O)N1CCN(c2n/c(=N\C3CC3)n3ncc(=Cc4[n-]c(=O)[n-]c4[O-])c3n2)CC1 (nonaromatic ring conformer: 390.36508270471666 kcal/mol)

>  <smiles>  (57) 
CS(=O)(=O)N1CCN(c2nc(=NC3CC3)n3ncc(=Cc4[nH]c(=O)[nH]c4O)c3n2)CC1

>  <score_type>  (57) 
oracle

>  <origin>  (57) 
adg

>  <m_score__min__energy>  (57) 
-17.039999999999999

>  <m_primary>  (57) 
energy

$$$$
57:0
     RDKit          3D

 51 54  0  0  0  0  0  0  0  0999 V2000
   57.8950   26.4340   44.9110 C   0  0  0  0  0  0  0  0  0  0  0  0
   58.4970   27.5850   45.6700 C   0  0  0  0  0  0  0  0  0  0  0  0
   59.8390   27.5290   46.0760 C   0  0  0  0  0  0  0  0  0  0  0  0
   60.4190   28.5970   46.7620 C   0  0  0  0  0  0  0  0  0  0  0  0
   59.6680   29.7430   47.0470 C   0  0  0  0  0  0  0  0  0  0  0  0
   60.2680   30.8590   47.7340 N   0  0  0  0  0  0  0  0  0  0  0  0
   61.2360   30.5960   48.7700 C   0  0  0  0  0  0  0  0  0  0  0  0
   61.2160   29.4880   49.3700 O   0  0  0  0  0  0  0  0  0  0  0  0
   62.2470   31.6100   49.1510 C   0  0  0  0  0  0  0  0  0  0  0  0
   62.2120   32.2230   50.4120 C   0  0  0  0  0  0  0  0  0  0  0  0
   63.1880   33.1640   50.7510 C   0  0  0  0  0  0  0  0  0  0  0  0
   64.1720   33.4760   49.8670 N   0  0  0  0  0  0  0  0  0  0  0  0
   64.2330   32.8980   48.6380 C   0  0  0  0  0  0  0  0  0  0  0  0
   63.2780   31.9500   48.2600 C   0  0  0  0  0  0  0  0  0  0  0  0
   59.9480   32.2140   47.3460 C   0  0  0  0  0  0  0  0  0  0  0  0
   60.7900   32.9220   46.4680 C   0  0  0  0  0  0  0  0  0  0  0  0
   60.4750   34.2290   46.0840 C   0  0  0  0  0  0  0  0  0  0  0  0
   59.3210   34.8450   46.5690 C   0  0  0  0  0  0  0  0  0  0  0  0
   58.4780   34.1550   47.4440 C   0  0  0  0  0  0  0  0  0  0  0  0
   58.7890   32.8480   47.8350 C   0  0  0  0  0  0  0  0  0  0  0  0
   58.3280   29.8090   46.6370 C   0  0  0  0  0  0  0  0  0  0  0  0
   57.7280   28.7310   45.9610 C   0  0  0  0  0  0  0  0  0  0  0  0
   56.3710   28.8020   45.4930 N   0  0  0  0  0  0  0  0  0  0  0  0
   55.8630   29.6270   44.4350 C   0  0  0  0  0  0  0  0  0  0  0  0
   54.7660   29.3440   43.8810 O   0  0  0  0  0  0  0  0  0  0  0  0
   56.6500   30.7880   43.9580 C   0  0  0  0  0  0  0  0  0  0  0  0
   57.0440   30.8830   42.6070 C   0  0  0  0  0  0  0  0  0  0  0  0
   57.8020   31.9710   42.1640 C   0  0  0  0  0  0  0  0  0  0  0  0
   58.1780   32.9740   43.0610 C   0  0  0  0  0  0  0  0  0  0  0  0
   57.7880   32.8940   44.4000 C   0  0  0  0  0  0  0  0  0  0  0  0
   57.0300   31.8100   44.8490 C   0  0  0  0  0  0  0  0  0  0  0  0
   57.5058   25.6898   45.6214 H   0  0  0  0  0  0  0  0  0  0  0  0
   57.0737   26.8015   44.2783 H   0  0  0  0  0  0  0  0  0  0  0  0
   58.6654   25.9690   44.2783 H   0  0  0  0  0  0  0  0  0  0  0  0
   60.4394   26.6351   45.8515 H   0  0  0  0  0  0  0  0  0  0  0  0
   61.4704   28.5378   47.0799 H   0  0  0  0  0  0  0  0  0  0  0  0
   61.4203   31.9644   51.1305 H   0  0  0  0  0  0  0  0  0  0  0  0
   63.1597   33.6534   51.7357 H   0  0  0  0  0  0  0  0  0  0  0  0
   65.0357   33.1770   47.9396 H   0  0  0  0  0  0  0  0  0  0  0  0
   63.3336   31.4730   47.2704 H   0  0  0  0  0  0  0  0  0  0  0  0
   61.7020   32.4438   46.0813 H   0  0  0  0  0  0  0  0  0  0  0  0
   61.1395   34.7735   45.3970 H   0  0  0  0  0  0  0  0  0  0  0  0
   59.0751   35.8726   46.2630 H   0  0  0  0  0  0  0  0  0  0  0  0
   57.5679   34.6403   47.8263 H   0  0  0  0  0  0  0  0  0  0  0  0
   58.1243   32.3122   48.5286 H   0  0  0  0  0  0  0  0  0  0  0  0
   57.7395   30.7144   46.8466 H   0  0  0  0  0  0  0  0  0  0  0  0
   56.7527   30.0952   41.8967 H   0  0  0  0  0  0  0  0  0  0  0  0
   58.1027   32.0374   41.1080 H   0  0  0  0  0  0  0  0  0  0  0  0
   58.7806   33.8260   42.7131 H   0  0  0  0  0  0  0  0  0  0  0  0
   58.0790   33.6879   45.1037 H   0  0  0  0  0  0  0  0  0  0  0  0
   56.7280   31.7544   45.9053 H   0  0  0  0  0  0  0  0  0  0  0  0
  1  2  1  0
  2  3  2  0
  3  4  1  0
  4  5  2  0
  5  6  1  0
  6  7  1  0
  7  8  2  0
  7  9  1  0
  9 10  2  0
 10 11  1  0
 11 12  2  0
 12 13  1  0
 13 14  2  0
  6 15  1  0
 15 16  2  0
 16 17  1  0
 17 18  2  0
 18 19  1  0
 19 20  2  0
  5 21  1  0
 21 22  2  0
 22 23  1  0
 23 24  1  0
 24 25  2  0
 24 26  1  0
 26 27  2  0
 27 28  1  0
 28 29  2  0
 29 30  1  0
 30 31  2  0
 22  2  1  0
 31 26  1  0
 14  9  1  0
 20 15  1  0
  1 32  1  0
  1 33  1  0
  1 34  1  0
  3 35  1  0
  4 36  1  0
 10 37  1  0
 11 38  1  0
 13 39  1  0
 14 40  1  0
 16 41  1  0
 17 42  1  0
 18 43  1  0
 19 44  1  0
 20 45  1  0
 21 46  1  0
 27 47  1  0
 28 48  1  0
 29 49  1  0
 30 50  1  0
 31 51  1  0
M  CHG  1  23  -1
M  END
>  <UniqueID>  (58) 
53

>  <SMILES>  (58) 
Cc1ccc(N(C(=O)c2ccncc2)c2ccccc2)cc1[N-]C(=O)c1ccccc1

>  <Energy>  (58) 
74.3999456550252

>  <Genealogy>  (58) 
Cc1ccc(N(C(=O)c2ccncc2)c2ccccc2)cc1[N-]C(=O)c1ccccc1 (protonated)
Cc1ccc(N(C(=O)c2ccncc2)c2ccccc2)cc1[N-]C(=O)c1ccccc1 (3D coordinates assigned)
Cc1ccc(N(C(=O)c2ccncc2)c2ccccc2)cc1[N-]C(=O)c1ccccc1 (optimized conformer: 74.3999456550252 kcal/mol)

>  <smiles>  (58) 
Cc1ccc(N(C(=O)c2ccncc2)c2ccccc2)cc1NC(=O)c1ccccc1

>  <score_type>  (58) 
oracle

>  <origin>  (58) 
adg

>  <m_score__min__energy>  (58) 
-11.039999999999999

>  <m_primary>  (58) 
energy

$$$$
58:0
     RDKit          3D

 40 41  0  0  0  0  0  0  0  0999 V2000
   55.2190   25.4170   45.6730 C   0  0  0  0  0  0  0  0  0  0  0  0
   56.0380   26.5970   45.9430 N   0  0  0  0  0  0  0  0  0  0  0  0
   57.7090   26.1360   46.0600 S   0  0  0  0  0  0  0  0  0  0  0  0
   57.8460   24.9830   47.0170 O   0  0  0  0  0  0  0  0  0  0  0  0
   58.2000   25.7030   44.7070 O   0  0  0  0  0  0  0  0  0  0  0  0
   58.6770   27.5030   46.6040 C   0  0  0  0  0  0  0  0  0  0  0  0
   59.6670   28.0260   45.7650 C   0  0  0  0  0  0  0  0  0  0  0  0
   60.4490   29.1050   46.1860 C   0  0  0  0  0  0  0  0  0  0  0  0
   60.2590   29.6630   47.4600 C   0  0  0  0  0  0  0  0  0  0  0  0
   61.1410   30.7880   47.9410 C   0  0  0  0  0  0  0  0  0  0  0  0
   60.6300   32.0850   47.4990 N   0  0  0  0  0  0  0  0  0  0  0  0
   59.2510   32.4190   47.2800 C   0  0  0  0  0  0  0  0  0  0  0  0
   58.5790   32.8840   48.2380 O   0  0  0  0  0  0  0  0  0  0  0  0
   58.6150   32.2890   45.9560 C   0  0  0  0  0  0  0  0  0  0  0  0
   58.7170   33.3370   45.0290 C   0  0  0  0  0  0  0  0  0  0  0  0
   58.1580   33.2040   43.7550 C   0  0  0  0  0  0  0  0  0  0  0  0
   57.4890   32.0310   43.4010 C   0  0  0  0  0  0  0  0  0  0  0  0
   57.3690   30.9830   44.3240 C   0  0  0  0  0  0  0  0  0  0  0  0
   56.5260   29.5030   43.8850 S   0  0  0  0  0  0  0  0  0  0  0  0
   55.1370   29.3130   44.8940 N   0  0  0  0  0  0  0  0  0  0  0  0
   57.4440   28.3260   44.0610 O   0  0  0  0  0  0  0  0  0  0  0  0
   56.0970   29.5680   42.4450 O   0  0  0  0  0  0  0  0  0  0  0  0
   57.9190   31.1210   45.6060 C   0  0  0  0  0  0  0  0  0  0  0  0
   59.2530   29.1480   48.2930 C   0  0  0  0  0  0  0  0  0  0  0  0
   58.4690   28.0720   47.8690 C   0  0  0  0  0  0  0  0  0  0  0  0
   54.9043   24.9636   46.6245 H   0  0  0  0  0  0  0  0  0  0  0  0
   54.3303   25.7118   45.0956 H   0  0  0  0  0  0  0  0  0  0  0  0
   55.8060   24.6875   45.0956 H   0  0  0  0  0  0  0  0  0  0  0  0
   55.9530   27.2380   45.1210 H   0  0  0  0  0  0  0  0  0  0  0  0
   59.8305   27.5862   44.7701 H   0  0  0  0  0  0  0  0  0  0  0  0
   61.2169   29.5189   45.5160 H   0  0  0  0  0  0  0  0  0  0  0  0
   61.1763   30.7717   49.0403 H   0  0  0  0  0  0  0  0  0  0  0  0
   62.1471   30.6473   47.5192 H   0  0  0  0  0  0  0  0  0  0  0  0
   59.2381   34.2655   45.3055 H   0  0  0  0  0  0  0  0  0  0  0  0
   58.2454   34.0259   43.0292 H   0  0  0  0  0  0  0  0  0  0  0  0
   57.0550   31.9289   42.3954 H   0  0  0  0  0  0  0  0  0  0  0  0
   55.3780   28.5920   45.6110 H   0  0  0  0  0  0  0  0  0  0  0  0
   57.8048   30.3106   46.3410 H   0  0  0  0  0  0  0  0  0  0  0  0
   59.0813   29.5936   49.2839 H   0  0  0  0  0  0  0  0  0  0  0  0
   57.6864   27.6700   48.5292 H   0  0  0  0  0  0  0  0  0  0  0  0
  1  2  1  0
  2  3  1  0
  3  4  2  0
  3  5  2  0
  3  6  1  0
  6  7  2  0
  7  8  1  0
  8  9  2  0
  9 10  1  0
 10 11  1  0
 11 12  1  0
 12 13  2  0
 12 14  1  0
 14 15  2  0
 15 16  1  0
 16 17  2  0
 17 18  1  0
 18 19  1  0
 19 20  1  0
 19 21  2  0
 19 22  2  0
 18 23  2  0
  9 24  1  0
 24 25  2  0
 25  6  1  0
 23 14  1  0
  1 26  1  0
  1 27  1  0
  1 28  1  0
  2 29  1  0
  7 30  1  0
  8 31  1  0
 10 32  1  0
 10 33  1  0
 15 34  1  0
 16 35  1  0
 17 36  1  0
 20 37  1  0
 23 38  1  0
 24 39  1  0
 25 40  1  0
M  CHG  2  11  -1  20  -1
M  END
>  <UniqueID>  (59) 
54

>  <SMILES>  (59) 
CNS(=O)(=O)c1ccc(C[N-]C(=O)c2cccc(S([NH-])(=O)=O)c2)cc1

>  <Energy>  (59) 
38.7741088656221

>  <Genealogy>  (59) 
CNS(=O)(=O)c1ccc(C[N-]C(=O)c2cccc(S([NH-])(=O)=O)c2)cc1 (protonated)
CNS(=O)(=O)c1ccc(C[N-]C(=O)c2cccc(S([NH-])(=O)=O)c2)cc1 (3D coordinates assigned)
CNS(=O)(=O)c1ccc(C[N-]C(=O)c2cccc(S([NH-])(=O)=O)c2)cc1 (optimized conformer: 38.7741088656221 kcal/mol)

>  <smiles>  (59) 
CNS(=O)(=O)c1ccc(CNC(=O)c2cccc(S(N)(=O)=O)c2)cc1

>  <score_type>  (59) 
oracle

>  <origin>  (59) 
adg

>  <m_score__min__energy>  (59) 
-13.42

>  <m_primary>  (59) 
energy

$$$$
59:0
     RDKit          3D

 56 59  0  0  0  0  0  0  0  0999 V2000
   50.2780   32.7210   52.0140 O   0  0  0  0  0  0  0  0  0  0  0  0
   51.1100   32.1770   51.2410 C   0  0  0  0  0  0  0  0  0  0  0  0
   50.9620   32.3420   49.8680 O   0  0  0  0  0  0  0  0  0  0  0  0
   52.2280   31.3750   51.7840 C   0  0  0  0  0  0  0  0  0  0  0  0
   53.3550   31.0990   50.9910 C   0  0  0  0  0  0  0  0  0  0  0  0
   54.4130   30.3420   51.5020 C   0  0  0  0  0  0  0  0  0  0  0  0
   54.3630   29.8430   52.8120 C   0  0  0  0  0  0  0  0  0  0  0  0
   55.5100   29.0330   53.3720 C   0  0  0  0  0  0  0  0  0  0  0  0
   56.8130   29.4550   52.8100 N   0  0  2  0  0  0  0  0  0  0  0  0
   57.9160   28.5720   53.2610 C   0  0  0  0  0  0  0  0  0  0  0  0
   59.2510   29.0350   52.7170 C   0  0  0  0  0  0  0  0  0  0  0  0
   60.2020   29.6220   53.5690 C   0  0  0  0  0  0  0  0  0  0  0  0
   61.3990   30.1230   53.0490 C   0  0  0  0  0  0  0  0  0  0  0  0
   61.6550   30.0450   51.6770 C   0  0  0  0  0  0  0  0  0  0  0  0
   60.7130   29.4640   50.8230 C   0  0  0  0  0  0  0  0  0  0  0  0
   59.5130   28.9620   51.3390 C   0  0  0  0  0  0  0  0  0  0  0  0
   57.0890   30.8260   53.2020 C   0  0  0  0  0  0  0  0  0  0  0  0
   56.8040   31.2130   54.3710 O   0  0  0  0  0  0  0  0  0  0  0  0
   57.7990   31.7580   52.2970 C   0  0  0  0  0  0  0  0  0  0  0  0
   57.7820   31.5760   50.9030 C   0  0  0  0  0  0  0  0  0  0  0  0
   58.4920   32.4430   50.0680 C   0  0  0  0  0  0  0  0  0  0  0  0
   59.2280   33.5030   50.6070 C   0  0  0  0  0  0  0  0  0  0  0  0
   59.9300   34.3480   49.7350 O   0  0  0  0  0  0  0  0  0  0  0  0
   61.0080   33.9650   48.9230 C   0  0  0  0  0  0  0  0  0  0  0  0
   60.8190   33.9070   47.5360 C   0  0  0  0  0  0  0  0  0  0  0  0
   61.8700   33.5310   46.6920 C   0  0  0  0  0  0  0  0  0  0  0  0
   63.1150   33.1950   47.2340 C   0  0  0  0  0  0  0  0  0  0  0  0
   64.1340   32.8340   46.4150 F   0  0  0  0  0  0  0  0  0  0  0  0
   63.3060   33.2290   48.6190 C   0  0  0  0  0  0  0  0  0  0  0  0
   62.2560   33.6050   49.4650 C   0  0  0  0  0  0  0  0  0  0  0  0
   59.2050   33.7180   51.9970 C   0  0  0  0  0  0  0  0  0  0  0  0
   58.4970   32.8520   52.8320 C   0  0  0  0  0  0  0  0  0  0  0  0
   53.2390   30.1170   53.6070 C   0  0  0  0  0  0  0  0  0  0  0  0
   52.1810   30.8780   53.0990 C   0  0  0  0  0  0  0  0  0  0  0  0
   53.4048   31.4815   49.9608 H   0  0  0  0  0  0  0  0  0  0  0  0
   55.2911   30.1361   50.8724 H   0  0  0  0  0  0  0  0  0  0  0  0
   55.5358   29.1617   54.4641 H   0  0  0  0  0  0  0  0  0  0  0  0
   55.3473   27.9798   53.0993 H   0  0  0  0  0  0  0  0  0  0  0  0
   56.7570   29.3900   51.7680 H   0  0  0  0  0  0  0  0  0  0  0  0
   57.9549   28.5807   54.3603 H   0  0  0  0  0  0  0  0  0  0  0  0
   57.7223   27.5563   52.8856 H   0  0  0  0  0  0  0  0  0  0  0  0
   60.0038   29.6875   54.6490 H   0  0  0  0  0  0  0  0  0  0  0  0
   62.1409   30.5795   53.7208 H   0  0  0  0  0  0  0  0  0  0  0  0
   62.5971   30.4405   51.2696 H   0  0  0  0  0  0  0  0  0  0  0  0
   60.9154   29.4013   49.7436 H   0  0  0  0  0  0  0  0  0  0  0  0
   58.7726   28.5088   50.6634 H   0  0  0  0  0  0  0  0  0  0  0  0
   57.2064   30.7462   50.4670 H   0  0  0  0  0  0  0  0  0  0  0  0
   58.4718   32.2906   48.9788 H   0  0  0  0  0  0  0  0  0  0  0  0
   59.8377   34.1588   47.1075 H   0  0  0  0  0  0  0  0  0  0  0  0
   61.7172   33.4997   45.6031 H   0  0  0  0  0  0  0  0  0  0  0  0
   64.2839   32.9596   49.0447 H   0  0  0  0  0  0  0  0  0  0  0  0
   62.4065   33.6191   50.5546 H   0  0  0  0  0  0  0  0  0  0  0  0
   59.7474   34.5725   52.4279 H   0  0  0  0  0  0  0  0  0  0  0  0
   58.4860   33.0283   53.9177 H   0  0  0  0  0  0  0  0  0  0  0  0
   53.1899   29.7309   54.6358 H   0  0  0  0  0  0  0  0  0  0  0  0
   51.3065   31.0892   53.7320 H   0  0  0  0  0  0  0  0  0  0  0  0
  1  2  2  0
  2  3  1  0
  2  4  1  0
  4  5  2  0
  5  6  1  0
  6  7  2  0
  7  8  1  0
  8  9  1  0
  9 10  1  0
 10 11  1  0
 11 12  2  0
 12 13  1  0
 13 14  2  0
 14 15  1  0
 15 16  2  0
  9 17  1  0
 17 18  2  0
 17 19  1  0
 19 20  2  0
 20 21  1  0
 21 22  2  0
 22 23  1  0
 23 24  1  0
 24 25  2  0
 25 26  1  0
 26 27  2  0
 27 28  1  0
 27 29  1  0
 29 30  2  0
 22 31  1  0
 31 32  2  0
  7 33  1  0
 33 34  2  0
 34  4  1  0
 16 11  1  0
 32 19  1  0
 30 24  1  0
  5 35  1  0
  6 36  1  0
  8 37  1  0
  8 38  1  0
  9 39  1  6
 10 40  1  0
 10 41  1  0
 12 42  1  0
 13 43  1  0
 14 44  1  0
 15 45  1  0
 16 46  1  0
 20 47  1  0
 21 48  1  0
 25 49  1  0
 26 50  1  0
 29 51  1  0
 30 52  1  0
 31 53  1  0
 32 54  1  0
 33 55  1  0
 34 56  1  0
M  CHG  2   3  -1   9   1
M  END
>  <UniqueID>  (60) 
55

>  <SMILES>  (60) 
O=C([O-])c1ccc(C[N@H+](Cc2ccccc2)C(=O)c2ccc(Oc3ccc(F)cc3)cc2)cc1

>  <Energy>  (60) 
72.5639057557186

>  <Genealogy>  (60) 
O=C([O-])c1ccc(C[NH+](Cc2ccccc2)C(=O)c2ccc(Oc3ccc(F)cc3)cc2)cc1 (protonated)
O=C([O-])c1ccc(C[N@H+](Cc2ccccc2)C(=O)c2ccc(Oc3ccc(F)cc3)cc2)cc1 (chirality)
O=C([O-])c1ccc(C[N@H+](Cc2ccccc2)C(=O)c2ccc(Oc3ccc(F)cc3)cc2)cc1 (3D coordinates assigned)
O=C([O-])c1ccc(C[N@H+](Cc2ccccc2)C(=O)c2ccc(Oc3ccc(F)cc3)cc2)cc1 (optimized conformer: 72.5639057557186 kcal/mol)

>  <smiles>  (60) 
O=C(O)c1ccc(CN(Cc2ccccc2)C(=O)c2ccc(Oc3ccc(F)cc3)cc2)cc1

>  <score_type>  (60) 
oracle

>  <origin>  (60) 
adg

>  <m_score__min__energy>  (60) 
-10.5

>  <m_primary>  (60) 
energy

$$$$
60:0
     RDKit          3D

 42 44  0  0  0  0  0  0  0  0999 V2000
   56.6360   23.8360   42.9770 C   0  0  0  0  0  0  0  0  0  0  0  0
   55.5350   23.1380   44.1850 S   0  0  0  0  0  0  0  0  0  0  0  0
   55.8070   21.6640   44.2940 O   0  0  0  0  0  0  0  0  0  0  0  0
   54.1180   23.3750   43.7440 O   0  0  0  0  0  0  0  0  0  0  0  0
   55.8230   23.9120   45.7100 N   0  0  0  0  0  0  0  0  0  0  0  0
   56.6420   25.0620   45.9830 C   0  0  0  0  0  0  0  0  0  0  0  0
   58.0200   24.8520   46.1140 C   0  0  0  0  0  0  0  0  0  0  0  0
   58.8860   25.9140   46.3800 C   0  0  0  0  0  0  0  0  0  0  0  0
   58.3890   27.2180   46.5240 C   0  0  0  0  0  0  0  0  0  0  0  0
   59.3090   28.3490   46.8110 C   0  0  0  0  0  0  0  0  0  0  0  0
   59.3660   28.9160   48.0970 C   0  0  0  0  0  0  0  0  0  0  0  0
   60.2330   29.9770   48.3670 C   0  0  0  0  0  0  0  0  0  0  0  0
   61.0710   30.4880   47.3620 C   0  0  0  0  0  0  0  0  0  0  0  0
   61.9940   31.6130   47.6400 C   0  0  0  0  0  0  0  0  0  0  0  0
   63.1470   31.3710   48.0830 O   0  0  0  0  0  0  0  0  0  0  0  0
   61.6370   32.9750   47.3690 N   0  0  0  0  0  0  0  0  0  0  0  0
   60.3880   33.4310   46.8270 C   0  0  0  0  0  0  0  0  0  0  0  0
   60.3290   34.1890   45.6430 C   0  0  0  0  0  0  0  0  0  0  0  0
   59.0940   34.6050   45.1360 C   0  0  0  0  0  0  0  0  0  0  0  0
   57.9120   34.2560   45.7950 C   0  0  0  0  0  0  0  0  0  0  0  0
   57.9640   33.4840   46.9600 C   0  0  0  0  0  0  0  0  0  0  0  0
   56.8160   33.1370   47.5930 F   0  0  0  0  0  0  0  0  0  0  0  0
   59.1970   33.0660   47.4690 C   0  0  0  0  0  0  0  0  0  0  0  0
   61.0030   29.9340   46.0730 C   0  0  0  0  0  0  0  0  0  0  0  0
   60.1360   28.8720   45.8010 C   0  0  0  0  0  0  0  0  0  0  0  0
   57.0080   27.4360   46.3940 C   0  0  0  0  0  0  0  0  0  0  0  0
   56.1340   26.3740   46.1260 C   0  0  0  0  0  0  0  0  0  0  0  0
   54.7810   26.6530   46.0060 O   0  0  0  0  0  0  0  0  0  0  0  0
   57.4585   24.3574   43.4885 H   0  0  0  0  0  0  0  0  0  0  0  0
   57.0464   23.0327   42.3474 H   0  0  0  0  0  0  0  0  0  0  0  0
   56.0846   24.5498   42.3474 H   0  0  0  0  0  0  0  0  0  0  0  0
   58.4261   23.8355   46.0057 H   0  0  0  0  0  0  0  0  0  0  0  0
   59.9656   25.7271   46.4774 H   0  0  0  0  0  0  0  0  0  0  0  0
   58.7224   28.5205   48.8966 H   0  0  0  0  0  0  0  0  0  0  0  0
   60.2599   30.4163   49.3751 H   0  0  0  0  0  0  0  0  0  0  0  0
   61.2566   34.4550   45.1150 H   0  0  0  0  0  0  0  0  0  0  0  0
   59.0527   35.2080   44.2169 H   0  0  0  0  0  0  0  0  0  0  0  0
   56.9416   34.5882   45.3977 H   0  0  0  0  0  0  0  0  0  0  0  0
   59.2326   32.4475   48.3780 H   0  0  0  0  0  0  0  0  0  0  0  0
   61.6374   30.3393   45.2710 H   0  0  0  0  0  0  0  0  0  0  0  0
   60.1003   28.4420   44.7892 H   0  0  0  0  0  0  0  0  0  0  0  0
   56.6068   28.4543   46.5040 H   0  0  0  0  0  0  0  0  0  0  0  0
  1  2  1  0
  2  3  2  0
  2  4  2  0
  2  5  1  0
  5  6  1  0
  6  7  2  0
  7  8  1  0
  8  9  2  0
  9 10  1  0
 10 11  2  0
 11 12  1  0
 12 13  2  0
 13 14  1  0
 14 15  2  0
 14 16  1  0
 16 17  1  0
 17 18  2  0
 18 19  1  0
 19 20  2  0
 20 21  1  0
 21 22  1  0
 21 23  2  0
 13 24  1  0
 24 25  2  0
  9 26  1  0
 26 27  2  0
 27 28  1  0
 27  6  1  0
 25 10  1  0
 23 17  1  0
  1 29  1  0
  1 30  1  0
  1 31  1  0
  7 32  1  0
  8 33  1  0
 11 34  1  0
 12 35  1  0
 18 36  1  0
 19 37  1  0
 20 38  1  0
 23 39  1  0
 24 40  1  0
 25 41  1  0
 26 42  1  0
M  CHG  3   5  -1  16  -1  28  -1
M  END
>  <UniqueID>  (61) 
56

>  <SMILES>  (61) 
CS(=O)(=O)[N-]c1ccc(-c2ccc(C(=O)[N-]c3cccc(F)c3)cc2)cc1[O-]

>  <Energy>  (61) 
59.54152776118268

>  <Genealogy>  (61) 
CS(=O)(=O)[N-]c1ccc(-c2ccc(C(=O)[N-]c3cccc(F)c3)cc2)cc1[O-] (protonated)
CS(=O)(=O)[N-]c1ccc(-c2ccc(C(=O)[N-]c3cccc(F)c3)cc2)cc1[O-] (3D coordinates assigned)
CS(=O)(=O)[N-]c1ccc(-c2ccc(C(=O)[N-]c3cccc(F)c3)cc2)cc1[O-] (optimized conformer: 59.54152776118268 kcal/mol)

>  <smiles>  (61) 
CS(=O)(=O)Nc1ccc(-c2ccc(C(=O)Nc3cccc(F)c3)cc2)cc1O

>  <score_type>  (61) 
oracle

>  <origin>  (61) 
adg

>  <m_score__min__energy>  (61) 
-14.220000000000001

>  <m_primary>  (61) 
energy

$$$$
61:0
     RDKit          3D

 54 55  0  0  0  0  0  0  0  0999 V2000
   63.5060   32.7620   47.3440 C   0  0  0  0  0  0  0  0  0  0  0  0
   63.1160   33.8330   48.3580 C   0  0  0  0  0  0  0  0  0  0  0  0
   61.7360   33.7220   48.7060 O   0  0  0  0  0  0  0  0  0  0  0  0
   60.6570   33.7280   47.8040 C   0  0  0  0  0  0  0  0  0  0  0  0
   60.7760   34.2150   46.4880 C   0  0  0  0  0  0  0  0  0  0  0  0
   59.6810   34.1930   45.6250 C   0  0  0  0  0  0  0  0  0  0  0  0
   58.4480   33.6920   46.0580 C   0  0  0  0  0  0  0  0  0  0  0  0
   57.2880   33.6100   45.0980 C   0  0  0  0  0  0  0  0  0  0  0  0
   57.3890   32.3750   44.1940 C   0  0  0  0  0  0  0  0  0  0  0  0
   56.8910   31.1820   44.8800 N   0  0  0  0  0  0  0  0  0  0  0  0
   56.3590   30.0490   44.1840 C   0  0  0  0  0  0  0  0  0  0  0  0
   56.2110   30.0840   42.9310 O   0  0  0  0  0  0  0  0  0  0  0  0
   56.0220   28.9010   44.9070 O   0  0  0  0  0  0  0  0  0  0  0  0
   56.9770   27.9220   45.3100 C   0  0  0  0  0  0  0  0  0  0  0  0
   58.1710   28.5800   45.9450 C   0  0  0  0  0  0  0  0  0  0  0  0
   58.1730   28.8910   47.3140 C   0  0  0  0  0  0  0  0  0  0  0  0
   59.2810   29.5190   47.8920 C   0  0  0  0  0  0  0  0  0  0  0  0
   60.3980   29.8480   47.1150 C   0  0  0  0  0  0  0  0  0  0  0  0
   61.4830   30.4770   47.7420 O   0  0  0  0  0  0  0  0  0  0  0  0
   61.6070   30.6560   49.1490 C   0  0  0  0  0  0  0  0  0  0  0  0
   60.3940   29.5380   45.7410 C   0  0  0  0  0  0  0  0  0  0  0  0
   59.2870   28.9100   45.1640 C   0  0  0  0  0  0  0  0  0  0  0  0
   58.3230   33.2030   47.3660 C   0  0  0  0  0  0  0  0  0  0  0  0
   59.4260   33.2140   48.2430 C   0  0  0  0  0  0  0  0  0  0  0  0
   59.3450   32.7310   49.5620 O   0  0  0  0  0  0  0  0  0  0  0  0
   59.5660   33.4950   50.7470 C   0  0  0  0  0  0  0  0  0  0  0  0
   58.5740   33.1040   51.8380 C   0  0  0  0  0  0  0  0  0  0  0  0
   63.8356   31.8569   47.8751 H   0  0  0  0  0  0  0  0  0  0  0  0
   62.6379   32.5211   46.7129 H   0  0  0  0  0  0  0  0  0  0  0  0
   64.3257   33.1358   46.7129 H   0  0  0  0  0  0  0  0  0  0  0  0
   63.7275   33.7116   49.2643 H   0  0  0  0  0  0  0  0  0  0  0  0
   63.2885   34.8227   47.9100 H   0  0  0  0  0  0  0  0  0  0  0  0
   61.7391   34.6154   46.1386 H   0  0  0  0  0  0  0  0  0  0  0  0
   59.7869   34.5717   44.5977 H   0  0  0  0  0  0  0  0  0  0  0  0
   56.3519   33.5557   45.6731 H   0  0  0  0  0  0  0  0  0  0  0  0
   57.3058   34.5057   44.4598 H   0  0  0  0  0  0  0  0  0  0  0  0
   56.7915   32.5438   43.2860 H   0  0  0  0  0  0  0  0  0  0  0  0
   58.4461   32.2153   43.9350 H   0  0  0  0  0  0  0  0  0  0  0  0
   57.0380   31.1050   45.9110 H   0  0  0  0  0  0  0  0  0  0  0  0
   56.5112   27.2395   46.0361 H   0  0  0  0  0  0  0  0  0  0  0  0
   57.3092   27.3631   44.4227 H   0  0  0  0  0  0  0  0  0  0  0  0
   57.3000   28.6399   47.9343 H   0  0  0  0  0  0  0  0  0  0  0  0
   59.2747   29.7564   48.9661 H   0  0  0  0  0  0  0  0  0  0  0  0
   61.0553   29.8596   49.6700 H   0  0  0  0  0  0  0  0  0  0  0  0
   62.6690   30.6119   49.4320 H   0  0  0  0  0  0  0  0  0  0  0  0
   61.1924   31.6348   49.4320 H   0  0  0  0  0  0  0  0  0  0  0  0
   61.2657   29.7912   45.1197 H   0  0  0  0  0  0  0  0  0  0  0  0
   59.2915   28.6731   44.0898 H   0  0  0  0  0  0  0  0  0  0  0  0
   57.3561   32.8075   47.7105 H   0  0  0  0  0  0  0  0  0  0  0  0
   60.5890   33.3126   51.1079 H   0  0  0  0  0  0  0  0  0  0  0  0
   59.4271   34.5602   50.5102 H   0  0  0  0  0  0  0  0  0  0  0  0
   59.0256   33.2820   52.8251 H   0  0  0  0  0  0  0  0  0  0  0  0
   57.6612   33.7096   51.7378 H   0  0  0  0  0  0  0  0  0  0  0  0
   58.3199   32.0385   51.7378 H   0  0  0  0  0  0  0  0  0  0  0  0
  1  2  1  0
  2  3  1  0
  3  4  1  0
  4  5  2  0
  5  6  1  0
  6  7  2  0
  7  8  1  0
  8  9  1  0
  9 10  1  0
 10 11  1  0
 11 12  2  0
 11 13  1  0
 13 14  1  0
 14 15  1  0
 15 16  2  0
 16 17  1  0
 17 18  2  0
 18 19  1  0
 19 20  1  0
 18 21  1  0
 21 22  2  0
  7 23  1  0
 23 24  2  0
 24 25  1  0
 25 26  1  0
 26 27  1  0
 24  4  1  0
 22 15  1  0
  1 28  1  0
  1 29  1  0
  1 30  1  0
  2 31  1  0
  2 32  1  0
  5 33  1  0
  6 34  1  0
  8 35  1  0
  8 36  1  0
  9 37  1  0
  9 38  1  0
 10 39  1  0
 14 40  1  0
 14 41  1  0
 16 42  1  0
 17 43  1  0
 20 44  1  0
 20 45  1  0
 20 46  1  0
 21 47  1  0
 22 48  1  0
 23 49  1  0
 26 50  1  0
 26 51  1  0
 27 52  1  0
 27 53  1  0
 27 54  1  0
M  END
>  <UniqueID>  (62) 
57

>  <SMILES>  (62) 
CCOc1ccc(CCNC(=O)OCc2ccc(OC)cc2)cc1OCC

>  <Energy>  (62) 
40.23746381211243

>  <Genealogy>  (62) 
CCOc1ccc(CCNC(=O)OCc2ccc(OC)cc2)cc1OCC (3D coordinates assigned)
CCOc1ccc(CCNC(=O)OCc2ccc(OC)cc2)cc1OCC (optimized conformer: 40.23746381211243 kcal/mol)

>  <smiles>  (62) 
CCOc1ccc(CCNC(=O)OCc2ccc(OC)cc2)cc1OCC

>  <score_type>  (62) 
oracle

>  <origin>  (62) 
adg

>  <m_score__min__energy>  (62) 
-7.1100000000000003

>  <m_primary>  (62) 
energy

$$$$
62:0
     RDKit          3D

 80 84  0  0  0  0  0  0  0  0999 V2000
   57.0390   31.5600   42.7720 C   0  0  0  0  0  0  0  0  0  0  0  0
   56.9390   30.8690   44.1510 C   0  0  0  0  0  0  0  0  0  0  0  0
   55.6570   30.0220   44.1860 C   0  0  0  0  0  0  0  0  0  0  0  0
   56.8180   31.9070   45.1830 N   0  0  0  0  0  0  0  0  0  0  0  0
   57.4260   33.2060   45.1370 C   0  0  0  0  0  0  0  0  0  0  0  0
   56.9520   34.1110   44.3980 O   0  0  0  0  0  0  0  0  0  0  0  0
   58.6270   33.4800   45.9990 C   0  0  0  0  0  0  0  0  0  0  0  0
   59.0550   34.9520   45.9300 C   0  0  0  0  0  0  0  0  0  0  0  0
   60.3480   35.1880   46.7430 C   0  0  0  0  0  0  0  0  0  0  0  0
   60.4750   34.3340   47.9570 N   0  0  0  0  0  0  0  0  0  0  0  0
   61.4440   33.2260   47.7850 C   0  0  0  0  0  0  0  0  0  0  0  0
   61.1250   32.0760   48.7070 C   0  0  0  0  0  0  0  0  0  0  0  0
   61.5020   32.1200   50.0580 C   0  0  0  0  0  0  0  0  0  0  0  0
   61.2210   31.0430   50.9010 C   0  0  0  0  0  0  0  0  0  0  0  0
   60.5460   29.9220   50.4090 C   0  0  0  0  0  0  0  0  0  0  0  0
   60.1370   29.8740   49.0640 C   0  0  0  0  0  0  0  0  0  0  0  0
   59.4360   28.7350   48.5330 N   0  0  0  0  0  0  0  0  0  0  0  0
   60.0240   27.4280   48.3920 C   0  0  0  0  0  0  0  0  0  0  0  0
   61.0850   27.1490   49.0150 O   0  0  0  0  0  0  0  0  0  0  0  0
   59.3760   26.3860   47.5580 C   0  0  0  0  0  0  0  0  0  0  0  0
   58.1010   25.9010   47.8990 C   0  0  0  0  0  0  0  0  0  0  0  0
   57.4830   24.9140   47.1240 C   0  0  0  0  0  0  0  0  0  0  0  0
   58.1300   24.4000   45.9950 C   0  0  0  0  0  0  0  0  0  0  0  0
   57.4920   23.3420   45.1870 C   0  0  0  0  0  0  0  0  0  0  0  0
   58.3170   22.4230   44.5180 C   0  0  0  0  0  0  0  0  0  0  0  0
   57.7590   21.4010   43.7470 C   0  0  0  0  0  0  0  0  0  0  0  0
   56.3730   21.2860   43.6370 C   0  0  0  0  0  0  0  0  0  0  0  0
   55.5400   22.1950   44.2950 C   0  0  0  0  0  0  0  0  0  0  0  0
   56.0840   23.2330   45.0710 C   0  0  0  0  0  0  0  0  0  0  0  0
   54.9940   24.3890   45.8530 S   0  0  0  0  0  0  0  0  0  0  0  0
   55.5870   25.9980   45.6210 N   0  0  0  0  0  0  0  0  0  0  0  0
   54.8990   24.0880   47.3240 O   0  0  0  0  0  0  0  0  0  0  0  0
   53.6200   24.2950   45.2470 O   0  0  0  0  0  0  0  0  0  0  0  0
   59.4110   24.8590   45.6630 C   0  0  0  0  0  0  0  0  0  0  0  0
   60.0310   25.8460   46.4340 C   0  0  0  0  0  0  0  0  0  0  0  0
   60.4600   30.9430   48.2130 C   0  0  0  0  0  0  0  0  0  0  0  0
   59.1640   33.8890   48.4780 C   0  0  0  0  0  0  0  0  0  0  0  0
   58.3660   33.0510   47.4580 C   0  0  0  0  0  0  0  0  0  0  0  0
   58.1330   29.9510   44.4570 C   0  0  0  0  0  0  0  0  0  0  0  0
   58.1760   28.6490   43.9080 C   0  0  0  0  0  0  0  0  0  0  0  0
   59.2740   27.8140   44.1350 C   0  0  0  0  0  0  0  0  0  0  0  0
   60.3560   28.2680   44.8880 C   0  0  0  0  0  0  0  0  0  0  0  0
   60.3480   29.5630   45.4080 C   0  0  0  0  0  0  0  0  0  0  0  0
   59.2540   30.4050   45.1860 C   0  0  0  0  0  0  0  0  0  0  0  0
   57.1952   32.6396   42.9133 H   0  0  0  0  0  0  0  0  0  0  0  0
   57.8853   31.1374   42.2106 H   0  0  0  0  0  0  0  0  0  0  0  0
   56.1076   31.3947   42.2106 H   0  0  0  0  0  0  0  0  0  0  0  0
   55.3709   29.8330   45.2312 H   0  0  0  0  0  0  0  0  0  0  0  0
   54.8462   30.5628   43.6759 H   0  0  0  0  0  0  0  0  0  0  0  0
   55.8364   29.0641   43.6759 H   0  0  0  0  0  0  0  0  0  0  0  0
   59.4585   32.8778   45.6041 H   0  0  0  0  0  0  0  0  0  0  0  0
   59.2345   35.2262   44.8800 H   0  0  0  0  0  0  0  0  0  0  0  0
   58.2529   35.5721   46.3568 H   0  0  0  0  0  0  0  0  0  0  0  0
   61.2082   34.9853   46.0881 H   0  0  0  0  0  0  0  0  0  0  0  0
   60.3129   36.2299   47.0939 H   0  0  0  0  0  0  0  0  0  0  0  0
   61.4047   32.8730   46.7439 H   0  0  0  0  0  0  0  0  0  0  0  0
   62.4490   33.6005   48.0293 H   0  0  0  0  0  0  0  0  0  0  0  0
   62.0205   33.0056   50.4541 H   0  0  0  0  0  0  0  0  0  0  0  0
   61.5317   31.0767   51.9557 H   0  0  0  0  0  0  0  0  0  0  0  0
   60.3338   29.0738   51.0765 H   0  0  0  0  0  0  0  0  0  0  0  0
   58.4040   28.8250   48.3930 H   0  0  0  0  0  0  0  0  0  0  0  0
   57.5846   26.3016   48.7838 H   0  0  0  0  0  0  0  0  0  0  0  0
   56.4863   24.5412   47.4028 H   0  0  0  0  0  0  0  0  0  0  0  0
   59.4104   22.5089   44.6019 H   0  0  0  0  0  0  0  0  0  0  0  0
   58.4128   20.6861   43.2260 H   0  0  0  0  0  0  0  0  0  0  0  0
   55.9352   20.4787   43.0315 H   0  0  0  0  0  0  0  0  0  0  0  0
   54.4481   22.0972   44.2047 H   0  0  0  0  0  0  0  0  0  0  0  0
   54.7880   26.5620   45.2530 H   0  0  0  0  0  0  0  0  0  0  0  0
   59.9324   24.4399   44.7898 H   0  0  0  0  0  0  0  0  0  0  0  0
   61.0353   26.2029   46.1618 H   0  0  0  0  0  0  0  0  0  0  0  0
   60.1891   30.8920   47.1481 H   0  0  0  0  0  0  0  0  0  0  0  0
   59.3325   33.2793   49.3779 H   0  0  0  0  0  0  0  0  0  0  0  0
   58.5733   34.7903   48.6990 H   0  0  0  0  0  0  0  0  0  0  0  0
   58.6517   31.9947   47.5705 H   0  0  0  0  0  0  0  0  0  0  0  0
   57.2969   33.2080   47.6637 H   0  0  0  0  0  0  0  0  0  0  0  0
   57.3363   28.2889   43.2955 H   0  0  0  0  0  0  0  0  0  0  0  0
   59.2843   26.7960   43.7184 H   0  0  0  0  0  0  0  0  0  0  0  0
   61.2151   27.6061   45.0720 H   0  0  0  0  0  0  0  0  0  0  0  0
   61.2059   29.9228   45.9950 H   0  0  0  0  0  0  0  0  0  0  0  0
   59.2667   31.4308   45.5830 H   0  0  0  0  0  0  0  0  0  0  0  0
  1  2  1  0
  2  3  1  0
  2  4  1  0
  4  5  1  0
  5  6  2  0
  5  7  1  0
  7  8  1  0
  8  9  1  0
  9 10  1  0
 10 11  1  0
 11 12  1  0
 12 13  2  0
 13 14  1  0
 14 15  2  0
 15 16  1  0
 16 17  1  0
 17 18  1  0
 18 19  2  0
 18 20  1  0
 20 21  2  0
 21 22  1  0
 22 23  2  0
 23 24  1  0
 24 25  2  0
 25 26  1  0
 26 27  2  0
 27 28  1  0
 28 29  2  0
 29 30  1  0
 30 31  1  0
 30 32  2  0
 30 33  2  0
 23 34  1  0
 34 35  2  0
 16 36  2  0
 10 37  1  0
 37 38  1  0
  2 39  1  0
 39 40  2  0
 40 41  1  0
 41 42  2  0
 42 43  1  0
 43 44  2  0
 38  7  1  0
 44 39  1  0
 36 12  1  0
 35 20  1  0
 29 24  1  0
  1 45  1  0
  1 46  1  0
  1 47  1  0
  3 48  1  0
  3 49  1  0
  3 50  1  0
  7 51  1  0
  8 52  1  0
  8 53  1  0
  9 54  1  0
  9 55  1  0
 11 56  1  0
 11 57  1  0
 13 58  1  0
 14 59  1  0
 15 60  1  0
 17 61  1  0
 21 62  1  0
 22 63  1  0
 25 64  1  0
 26 65  1  0
 27 66  1  0
 28 67  1  0
 31 68  1  0
 34 69  1  0
 35 70  1  0
 36 71  1  0
 37 72  1  0
 37 73  1  0
 38 74  1  0
 38 75  1  0
 40 76  1  0
 41 77  1  0
 42 78  1  0
 43 79  1  0
 44 80  1  0
M  CHG  2   4  -1  31  -1
M  END
>  <UniqueID>  (63) 
58

>  <SMILES>  (63) 
CC(C)([N-]C(=O)C1CCN(Cc2cccc(NC(=O)c3ccc(-c4ccccc4S([NH-])(=O)=O)cc3)c2)CC1)c1ccccc1

>  <Energy>  (63) 
108.0372939379372

>  <Genealogy>  (63) 
CC(C)([N-]C(=O)C1CCN(Cc2cccc(NC(=O)c3ccc(-c4ccccc4S([NH-])(=O)=O)cc3)c2)CC1)c1ccccc1 (protonated)
CC(C)([N-]C(=O)C1CCN(Cc2cccc(NC(=O)c3ccc(-c4ccccc4S([NH-])(=O)=O)cc3)c2)CC1)c1ccccc1 (3D coordinates assigned)
CC(C)([N-]C(=O)C1CCN(Cc2cccc(NC(=O)c3ccc(-c4ccccc4S([NH-])(=O)=O)cc3)c2)CC1)c1ccccc1 (nonaromatic ring conformer: 108.0372939379372 kcal/mol)

>  <smiles>  (63) 
CC(C)(NC(=O)C1CCN(Cc2cccc(NC(=O)c3ccc(-c4ccccc4S(N)(=O)=O)cc3)c2)CC1)c1ccccc1

>  <score_type>  (63) 
oracle

>  <origin>  (63) 
adg

>  <m_score__min__energy>  (63) 
-14.83

>  <m_primary>  (63) 
energy

$$$$
63:0
     RDKit          3D

 37 39  0  0  0  0  0  0  0  0999 V2000
   60.6290   30.0510   49.7180 C   0  0  0  0  0  0  0  0  0  0  0  0
   60.3370   29.2910   48.5090 N   0  0  0  0  0  0  0  0  0  0  0  0
   60.4020   27.8610   48.4780 C   0  0  0  0  0  0  0  0  0  0  0  0
   60.7530   27.2230   49.5080 O   0  0  0  0  0  0  0  0  0  0  0  0
   60.1260   27.1930   47.2790 O   0  0  0  0  0  0  0  0  0  0  0  0
   58.8440   26.9000   46.7890 C   0  0  0  0  0  0  0  0  0  0  0  0
   58.4290   25.5630   46.7690 C   0  0  0  0  0  0  0  0  0  0  0  0
   57.1640   25.2220   46.2870 C   0  0  0  0  0  0  0  0  0  0  0  0
   56.3090   26.2130   45.8000 C   0  0  0  0  0  0  0  0  0  0  0  0
   56.7280   27.5540   45.7700 C   0  0  0  0  0  0  0  0  0  0  0  0
   55.8880   28.5910   45.2450 N   0  0  0  0  0  0  0  0  0  0  0  0
   56.3140   29.6700   44.4020 C   0  0  0  0  0  0  0  0  0  0  0  0
   56.7450   29.4100   43.2490 O   0  0  0  0  0  0  0  0  0  0  0  0
   56.2640   31.0370   44.8350 N   0  0  0  0  0  0  0  0  0  0  0  0
   57.3860   31.8290   45.2460 C   0  0  0  0  0  0  0  0  0  0  0  0
   57.4020   33.2080   44.9290 C   0  0  0  0  0  0  0  0  0  0  0  0
   58.4920   34.0160   45.3010 C   0  0  0  0  0  0  0  0  0  0  0  0
   59.5360   33.4160   45.9970 C   0  0  0  0  0  0  0  0  0  0  0  0
   59.5190   32.1000   46.3260 C   0  0  0  0  0  0  0  0  0  0  0  0
   58.4580   31.2680   45.9810 C   0  0  0  0  0  0  0  0  0  0  0  0
   60.6720   31.7810   47.0150 O   0  0  0  0  0  0  0  0  0  0  0  0
   61.4660   32.9710   47.1230 C   0  0  0  0  0  0  0  0  0  0  0  0
   60.7030   33.9910   46.4620 O   0  0  0  0  0  0  0  0  0  0  0  0
   57.9870   27.8940   46.2810 C   0  0  0  0  0  0  0  0  0  0  0  0
   60.3939   29.4392   50.6014 H   0  0  0  0  0  0  0  0  0  0  0  0
   61.6951   30.3216   49.7325 H   0  0  0  0  0  0  0  0  0  0  0  0
   60.0183   30.9658   49.7325 H   0  0  0  0  0  0  0  0  0  0  0  0
   60.0670   29.8020   47.6390 H   0  0  0  0  0  0  0  0  0  0  0  0
   59.1043   24.7759   47.1356 H   0  0  0  0  0  0  0  0  0  0  0  0
   56.8401   24.1708   46.2908 H   0  0  0  0  0  0  0  0  0  0  0  0
   55.3055   25.9433   45.4391 H   0  0  0  0  0  0  0  0  0  0  0  0
   56.5544   33.6523   44.3867 H   0  0  0  0  0  0  0  0  0  0  0  0
   58.5177   35.0866   45.0497 H   0  0  0  0  0  0  0  0  0  0  0  0
   58.4525   30.2068   46.2706 H   0  0  0  0  0  0  0  0  0  0  0  0
   61.6275   33.2329   48.1791 H   0  0  0  0  0  0  0  0  0  0  0  0
   62.4617   32.8443   46.6729 H   0  0  0  0  0  0  0  0  0  0  0  0
   58.3084   28.9460   46.2853 H   0  0  0  0  0  0  0  0  0  0  0  0
  1  2  1  0
  2  3  1  0
  3  4  2  0
  3  5  1  0
  5  6  1  0
  6  7  2  0
  7  8  1  0
  8  9  2  0
  9 10  1  0
 10 11  1  0
 11 12  1  0
 12 13  2  0
 12 14  1  0
 14 15  1  0
 15 16  2  0
 16 17  1  0
 17 18  2  0
 18 19  1  0
 19 20  2  0
 19 21  1  0
 21 22  1  0
 22 23  1  0
 10 24  2  0
 24  6  1  0
 20 15  1  0
 23 18  1  0
  1 25  1  0
  1 26  1  0
  1 27  1  0
  2 28  1  0
  7 29  1  0
  8 30  1  0
  9 31  1  0
 16 32  1  0
 17 33  1  0
 20 34  1  0
 22 35  1  0
 22 36  1  0
 24 37  1  0
M  CHG  2  11  -1  14  -1
M  END
>  <UniqueID>  (64) 
59

>  <SMILES>  (64) 
CNC(=O)Oc1cccc([N-]C(=O)[N-]c2ccc3c(c2)OCO3)c1

>  <Energy>  (64) 
74.70368115850525

>  <Genealogy>  (64) 
CNC(=O)Oc1cccc([N-]C(=O)[N-]c2ccc3c(c2)OCO3)c1 (protonated)
CNC(=O)Oc1cccc([N-]C(=O)[N-]c2ccc3c(c2)OCO3)c1 (3D coordinates assigned)
CNC(=O)Oc1cccc([N-]C(=O)[N-]c2ccc3c(c2)OCO3)c1 (nonaromatic ring conformer: 74.70368115850525 kcal/mol)

>  <smiles>  (64) 
CNC(=O)Oc1cccc(NC(=O)Nc2ccc3c(c2)OCO3)c1

>  <score_type>  (64) 
oracle

>  <origin>  (64) 
adg

>  <m_score__min__energy>  (64) 
-10.42

>  <m_primary>  (64) 
energy

$$$$
64:0
     RDKit          3D

 45 47  0  0  0  0  0  0  0  0999 V2000
   55.5310   28.8140   45.2050 N   0  0  0  0  0  0  0  0  0  0  0  0
   56.7190   29.8800   44.5440 S   0  0  0  0  0  0  0  0  0  0  0  0
   56.1870   31.2860   44.5400 O   0  0  0  0  0  0  0  0  0  0  0  0
   57.0200   29.4750   43.1290 O   0  0  0  0  0  0  0  0  0  0  0  0
   58.1860   29.8020   45.5150 C   0  0  0  0  0  0  0  0  0  0  0  0
   58.5760   28.5900   46.0990 C   0  0  0  0  0  0  0  0  0  0  0  0
   59.7370   28.5280   46.8720 C   0  0  0  0  0  0  0  0  0  0  0  0
   60.5210   29.6690   47.0570 C   0  0  0  0  0  0  0  0  0  0  0  0
   60.1570   30.8880   46.4530 C   0  0  0  0  0  0  0  0  0  0  0  0
   60.9160   32.0960   46.6530 N   0  0  0  0  0  0  0  0  0  0  0  0
   62.2780   32.1550   47.1070 C   0  0  0  0  0  0  0  0  0  0  0  0
   63.0010   31.1230   47.1200 O   0  0  0  0  0  0  0  0  0  0  0  0
   62.8620   33.4620   47.5510 C   0  0  0  0  0  0  0  0  0  0  0  0
   62.8260   33.6240   49.3720 S   0  0  0  0  0  0  0  0  0  0  0  0
   61.4160   32.5220   49.6050 C   0  0  0  0  0  0  0  0  0  0  0  0
   61.6880   31.2290   49.9220 N   0  0  0  0  0  0  0  0  0  0  0  0
   60.7030   30.3270   50.1330 C   0  0  0  0  0  0  0  0  0  0  0  0
   60.9930   29.1410   50.4370 O   0  0  0  0  0  0  0  0  0  0  0  0
   59.3780   30.7150   50.0110 C   0  0  0  0  0  0  0  0  0  0  0  0
   59.0850   32.0350   49.6540 C   0  0  0  0  0  0  0  0  0  0  0  0
   57.7050   32.3910   49.4630 N   0  0  0  0  0  0  0  0  0  0  0  0
   60.1080   32.9460   49.4750 N   0  0  0  0  0  0  0  0  0  0  0  0
   59.8070   34.3410   49.0960 C   0  0  0  0  0  0  0  0  0  0  0  0
   59.3740   34.4140   47.6640 C   0  0  0  0  0  0  0  0  0  0  0  0
   59.8880   35.2670   46.7100 C   0  0  0  0  0  0  0  0  0  0  0  0
   59.2140   34.9680   45.5450 C   0  0  0  0  0  0  0  0  0  0  0  0
   58.3350   33.9510   45.8610 C   0  0  0  0  0  0  0  0  0  0  0  0
   58.4570   33.6410   47.1310 O   0  0  0  0  0  0  0  0  0  0  0  0
   58.9770   30.9450   45.6940 C   0  0  0  0  0  0  0  0  0  0  0  0
   54.6370   29.3530   45.2640 H   0  0  0  0  0  0  0  0  0  0  0  0
   57.9671   27.6864   45.9485 H   0  0  0  0  0  0  0  0  0  0  0  0
   60.0354   27.5769   47.3371 H   0  0  0  0  0  0  0  0  0  0  0  0
   61.4275   29.6152   47.6777 H   0  0  0  0  0  0  0  0  0  0  0  0
   60.4520   33.0020   46.4140 H   0  0  0  0  0  0  0  0  0  0  0  0
   63.9049   33.5235   47.2067 H   0  0  0  0  0  0  0  0  0  0  0  0
   62.2600   34.2750   47.1190 H   0  0  0  0  0  0  0  0  0  0  0  0
   58.5674   29.9940   50.1926 H   0  0  0  0  0  0  0  0  0  0  0  0
   57.0150   32.4340   50.2410 H   0  0  0  0  0  0  0  0  0  0  0  0
   57.3710   32.7160   48.5280 H   0  0  0  0  0  0  0  0  0  0  0  0
   59.0003   34.7245   49.7381 H   0  0  0  0  0  0  0  0  0  0  0  0
   60.7151   34.9483   49.2244 H   0  0  0  0  0  0  0  0  0  0  0  0
   60.6714   36.0266   46.8493 H   0  0  0  0  0  0  0  0  0  0  0  0
   59.3492   35.4435   44.5623 H   0  0  0  0  0  0  0  0  0  0  0  0
   57.6386   33.4733   45.1561 H   0  0  0  0  0  0  0  0  0  0  0  0
   58.6703   31.8965   45.2352 H   0  0  0  0  0  0  0  0  0  0  0  0
  1  2  1  0
  2  3  2  0
  2  4  2  0
  2  5  1  0
  5  6  2  0
  6  7  1  0
  7  8  2  0
  8  9  1  0
  9 10  1  0
 10 11  1  0
 11 12  2  0
 11 13  1  0
 13 14  1  0
 14 15  1  0
 15 16  2  0
 16 17  1  0
 17 18  2  0
 17 19  1  0
 19 20  2  0
 20 21  1  0
 20 22  1  0
 22 23  1  0
 23 24  1  0
 24 25  2  0
 25 26  1  0
 26 27  2  0
 27 28  1  0
  9 29  2  0
 29  5  1  0
 22 15  1  0
 28 24  1  0
  1 30  1  0
  6 31  1  0
  7 32  1  0
  8 33  1  0
 10 34  1  0
 13 35  1  0
 13 36  1  0
 19 37  1  0
 21 38  1  0
 21 39  1  0
 23 40  1  0
 23 41  1  0
 25 42  1  0
 26 43  1  0
 27 44  1  0
 29 45  1  0
M  CHG  1   1  -1
M  END
>  <UniqueID>  (65) 
60

>  <SMILES>  (65) 
[NH-]S(=O)(=O)c1cccc(NC(=O)CSc2nc(=O)cc(N)n2Cc2ccco2)c1

>  <Energy>  (65) 
74.04624651442987

>  <Genealogy>  (65) 
[NH-]S(=O)(=O)c1cccc(NC(=O)CSc2nc(=O)cc(N)n2Cc2ccco2)c1 (protonated)
[NH-]S(=O)(=O)c1cccc(NC(=O)CSc2nc(=O)cc(N)n2Cc2ccco2)c1 (3D coordinates assigned)
[NH-]S(=O)(=O)c1cccc(NC(=O)CSc2nc(=O)cc(N)n2Cc2ccco2)c1 (optimized conformer: 74.04624651442987 kcal/mol)

>  <smiles>  (65) 
Nc1cc(=O)nc(SCC(=O)Nc2cccc(S(N)(=O)=O)c2)n1Cc1ccco1

>  <score_type>  (65) 
oracle

>  <origin>  (65) 
adg

>  <m_score__min__energy>  (65) 
-10.94

>  <m_primary>  (65) 
energy

$$$$
65:0
     RDKit          3D

 45 47  0  0  0  0  0  0  0  0999 V2000
   56.6530   30.5420   42.2260 C   0  0  0  0  0  0  0  0  0  0  0  0
   57.0230   30.2380   43.6450 C   0  0  0  0  0  0  0  0  0  0  0  0
   57.0430   28.9800   44.2100 C   0  0  0  0  0  0  0  0  0  0  0  0
   57.5300   29.1910   45.4860 C   0  0  0  0  0  0  0  0  0  0  0  0
   57.8520   28.1420   46.4640 C   0  0  0  0  0  0  0  0  0  0  0  0
   58.9550   28.1760   47.0700 O   0  0  0  0  0  0  0  0  0  0  0  0
   56.9260   27.0870   46.7420 N   0  0  0  0  0  0  0  0  0  0  0  0
   56.8350   25.8740   45.9800 C   0  0  0  0  0  0  0  0  0  0  0  0
   57.5110   25.7790   44.7570 C   0  0  0  0  0  0  0  0  0  0  0  0
   57.4400   24.6030   44.0010 C   0  0  0  0  0  0  0  0  0  0  0  0
   56.6710   23.5200   44.4500 C   0  0  0  0  0  0  0  0  0  0  0  0
   56.6070   22.0170   43.5370 S   0  0  0  0  0  0  0  0  0  0  0  0
   55.7560   20.8260   44.4570 N   0  0  0  0  0  0  0  0  0  0  0  0
   55.8940   22.2490   42.2350 O   0  0  0  0  0  0  0  0  0  0  0  0
   57.9970   21.5250   43.2470 O   0  0  0  0  0  0  0  0  0  0  0  0
   55.9690   23.6260   45.6580 C   0  0  0  0  0  0  0  0  0  0  0  0
   56.0470   24.7960   46.4170 C   0  0  0  0  0  0  0  0  0  0  0  0
   57.8060   30.4960   45.6690 N   0  0  0  0  0  0  0  0  0  0  0  0
   57.4950   31.1290   44.5480 N   0  0  0  0  0  0  0  0  0  0  0  0
   57.8800   32.5160   44.2930 C   0  0  0  0  0  0  0  0  0  0  0  0
   57.4350   33.3800   45.4340 C   0  0  0  0  0  0  0  0  0  0  0  0
   56.6620   34.3520   45.2210 O   0  0  0  0  0  0  0  0  0  0  0  0
   57.9600   33.1330   46.7450 N   0  0  0  0  0  0  0  0  0  0  0  0
   59.3290   33.2300   47.1600 C   0  0  0  0  0  0  0  0  0  0  0  0
   59.7840   32.6790   48.3710 C   0  0  0  0  0  0  0  0  0  0  0  0
   61.1400   32.7480   48.7090 C   0  0  0  0  0  0  0  0  0  0  0  0
   62.0520   33.3520   47.8380 C   0  0  0  0  0  0  0  0  0  0  0  0
   63.7530   33.4230   48.2560 Cl  0  0  0  0  0  0  0  0  0  0  0  0
   61.6060   33.8860   46.6240 C   0  0  0  0  0  0  0  0  0  0  0  0
   60.2520   33.8180   46.2850 C   0  0  0  0  0  0  0  0  0  0  0  0
   55.8032   31.2402   42.2102 H   0  0  0  0  0  0  0  0  0  0  0  0
   57.5122   30.9985   41.7128 H   0  0  0  0  0  0  0  0  0  0  0  0
   56.3719   29.6106   41.7128 H   0  0  0  0  0  0  0  0  0  0  0  0
   56.7407   28.0274   43.7505 H   0  0  0  0  0  0  0  0  0  0  0  0
   58.1001   26.6320   44.3891 H   0  0  0  0  0  0  0  0  0  0  0  0
   57.9896   24.5283   43.0511 H   0  0  0  0  0  0  0  0  0  0  0  0
   54.8080   21.2140   44.6580 H   0  0  0  0  0  0  0  0  0  0  0  0
   55.3541   22.7846   46.0100 H   0  0  0  0  0  0  0  0  0  0  0  0
   55.4887   24.8738   47.3616 H   0  0  0  0  0  0  0  0  0  0  0  0
   58.9734   32.5794   44.1907 H   0  0  0  0  0  0  0  0  0  0  0  0
   57.4023   32.8626   43.3648 H   0  0  0  0  0  0  0  0  0  0  0  0
   59.0722   32.1926   49.0542 H   0  0  0  0  0  0  0  0  0  0  0  0
   61.4896   32.3259   49.6627 H   0  0  0  0  0  0  0  0  0  0  0  0
   62.3217   34.3597   45.9360 H   0  0  0  0  0  0  0  0  0  0  0  0
   59.9083   34.2290   45.3243 H   0  0  0  0  0  0  0  0  0  0  0  0
  1  2  1  0
  2  3  2  0
  3  4  1  0
  4  5  1  0
  5  6  2  0
  5  7  1  0
  7  8  1  0
  8  9  2  0
  9 10  1  0
 10 11  2  0
 11 12  1  0
 12 13  1  0
 12 14  2  0
 12 15  2  0
 11 16  1  0
 16 17  2  0
  4 18  2  0
 18 19  1  0
 19 20  1  0
 20 21  1  0
 21 22  2  0
 21 23  1  0
 23 24  1  0
 24 25  2  0
 25 26  1  0
 26 27  2  0
 27 28  1  0
 27 29  1  0
 29 30  2  0
 19  2  1  0
 30 24  1  0
 17  8  1  0
  1 31  1  0
  1 32  1  0
  1 33  1  0
  3 34  1  0
  9 35  1  0
 10 36  1  0
 13 37  1  0
 16 38  1  0
 17 39  1  0
 20 40  1  0
 20 41  1  0
 25 42  1  0
 26 43  1  0
 29 44  1  0
 30 45  1  0
M  CHG  3   7  -1  13  -1  23  -1
M  END
>  <UniqueID>  (66) 
61

>  <SMILES>  (66) 
Cc1cc(C(=O)[N-]c2ccc(S([NH-])(=O)=O)cc2)nn1CC(=O)[N-]c1ccc(Cl)cc1

>  <Energy>  (66) 
80.43438455639884

>  <Genealogy>  (66) 
Cc1cc(C(=O)[N-]c2ccc(S([NH-])(=O)=O)cc2)nn1CC(=O)[N-]c1ccc(Cl)cc1 (protonated)
Cc1cc(C(=O)[N-]c2ccc(S([NH-])(=O)=O)cc2)nn1CC(=O)[N-]c1ccc(Cl)cc1 (3D coordinates assigned)
Cc1cc(C(=O)[N-]c2ccc(S([NH-])(=O)=O)cc2)nn1CC(=O)[N-]c1ccc(Cl)cc1 (optimized conformer: 80.43438455639884 kcal/mol)

>  <smiles>  (66) 
Cc1cc(C(=O)Nc2ccc(S(N)(=O)=O)cc2)nn1CC(=O)Nc1ccc(Cl)cc1

>  <score_type>  (66) 
oracle

>  <origin>  (66) 
adg

>  <m_score__min__energy>  (66) 
-13.199999999999999

>  <m_primary>  (66) 
energy

$$$$
66:0
     RDKit          3D

 51 54  0  0  1  0  0  0  0  0999 V2000
   59.7420   33.7960   50.0230 C   0  0  0  0  0  0  0  0  0  0  0  0
   59.7920   34.6430   48.8730 O   0  0  0  0  0  0  0  0  0  0  0  0
   59.2730   34.1940   47.6650 C   0  0  0  0  0  0  0  0  0  0  0  0
   58.4690   33.0800   47.5510 C   0  0  0  0  0  0  0  0  0  0  0  0
   57.9990   32.7100   46.3080 C   0  0  0  0  0  0  0  0  0  0  0  0
   58.2780   33.3850   45.1470 C   0  0  0  0  0  0  0  0  0  0  0  0
   57.8670   33.0950   43.8950 O   0  0  0  0  0  0  0  0  0  0  0  0
   57.7600   32.0040   43.1000 C   0  0  0  0  0  0  0  0  0  0  0  0
   57.2040   30.8450   43.8150 C   0  0  0  0  0  0  0  0  0  0  0  0
   57.7310   29.6140   44.1230 C   0  0  0  0  0  0  0  0  0  0  0  0
   56.7980   28.9190   44.7890 N   0  0  0  0  0  0  0  0  0  0  0  0
   57.0160   27.5680   45.2700 C   0  0  0  0  0  0  0  0  0  0  0  0
   58.1250   26.9040   44.5050 C   0  0  0  0  0  0  0  0  0  0  0  0
   57.8940   26.4940   43.3410 O   0  0  0  0  0  0  0  0  0  0  0  0
   59.3760   26.7820   45.1580 N   0  0  0  0  0  0  0  0  0  0  0  0
   59.9100   27.8730   45.7210 C   0  0  0  0  0  0  0  0  0  0  0  0
   60.7670   28.7840   45.2680 N   0  0  0  0  0  0  0  0  0  0  0  0
   61.0730   29.7210   46.0990 N   0  0  0  0  0  0  0  0  0  0  0  0
   60.7050   29.9090   47.2290 C   0  0  0  0  0  0  0  0  0  0  0  0
   60.8350   30.8120   48.3870 C   0  0  0  0  0  0  0  0  0  0  0  0
   61.9490   31.7480   48.1790 C   0  0  0  0  0  0  0  0  0  0  0  0
   62.9400   31.8240   49.1570 C   0  0  0  0  0  0  0  0  0  0  0  0
   64.0070   32.6870   49.0060 C   0  0  0  0  0  0  0  0  0  0  0  0
   64.1350   33.5000   47.8930 C   0  0  0  0  0  0  0  0  0  0  0  0
   63.1460   33.4240   46.9170 C   0  0  0  0  0  0  0  0  0  0  0  0
   62.0610   32.5570   47.0540 C   0  0  0  0  0  0  0  0  0  0  0  0
   59.5220   28.3920   47.4340 S   0  0  0  0  0  0  0  0  0  0  0  0
   55.7430   29.6990   44.8830 N   0  0  0  0  0  0  0  0  0  0  0  0
   55.9320   30.8630   44.3170 N   0  0  0  0  0  0  0  0  0  0  0  0
   59.1020   34.5180   45.2950 C   0  0  0  0  0  0  0  0  0  0  0  0
   59.5810   34.9050   46.5240 C   0  0  0  0  0  0  0  0  0  0  0  0
   59.7784   34.4118   50.9338 H   0  0  0  0  0  0  0  0  0  0  0  0
   58.8080   33.2151   50.0102 H   0  0  0  0  0  0  0  0  0  0  0  0
   60.6012   33.1092   50.0102 H   0  0  0  0  0  0  0  0  0  0  0  0
   58.2049   32.4920   48.4423 H   0  0  0  0  0  0  0  0  0  0  0  0
   57.3599   31.8170   46.2438 H   0  0  0  0  0  0  0  0  0  0  0  0
   57.1013   32.2466   42.2531 H   0  0  0  0  0  0  0  0  0  0  0  0
   58.7707   31.7358   42.7586 H   0  0  0  0  0  0  0  0  0  0  0  0
   58.7410   29.2608   43.8679 H   0  0  0  0  0  0  0  0  0  0  0  0
   57.2838   27.6033   46.3363 H   0  0  0  0  0  0  0  0  0  0  0  0
   56.0919   26.9886   45.1272 H   0  0  0  0  0  0  0  0  0  0  0  0
   61.1630   28.7220   44.2810 H   0  0  0  0  0  0  0  0  0  0  0  0
   59.9014   31.3803   48.5111 H   0  0  0  0  0  0  0  0  0  0  0  0
   61.0331   30.2133   49.2883 H   0  0  0  0  0  0  0  0  0  0  0  0
   62.8712   31.1922   50.0548 H   0  0  0  0  0  0  0  0  0  0  0  0
   64.7761   32.7297   49.7913 H   0  0  0  0  0  0  0  0  0  0  0  0
   64.9900   34.1834   47.7837 H   0  0  0  0  0  0  0  0  0  0  0  0
   63.2207   34.0586   46.0216 H   0  0  0  0  0  0  0  0  0  0  0  0
   61.2917   32.5136   46.2690 H   0  0  0  0  0  0  0  0  0  0  0  0
   59.3686   35.1074   44.4053 H   0  0  0  0  0  0  0  0  0  0  0  0
   60.2207   35.7967   46.5987 H   0  0  0  0  0  0  0  0  0  0  0  0
  1  2  1  0
  2  3  1  0
  3  4  2  0
  4  5  1  0
  5  6  2  0
  6  7  1  0
  7  8  1  0
  8  9  1  0
  9 10  2  0
 10 11  1  0
 11 12  1  0
 12 13  1  0
 13 14  2  0
 13 15  1  0
 15 16  2  0
 16 17  1  0
 17 18  1  0
 18 19  2  0
 19 20  1  0
 20 21  1  0
 21 22  2  0
 22 23  1  0
 23 24  2  0
 24 25  1  0
 25 26  2  0
 19 27  1  0
 11 28  1  0
 28 29  2  0
  6 30  1  0
 30 31  2  0
 31  3  1  0
 29  9  1  0
 27 16  1  0
 26 21  1  0
  1 32  1  0
  1 33  1  0
  1 34  1  0
  4 35  1  0
  5 36  1  0
  8 37  1  0
  8 38  1  0
 10 39  1  0
 12 40  1  0
 12 41  1  0
 17 42  1  0
 20 43  1  0
 20 44  1  0
 22 45  1  0
 23 46  1  0
 24 47  1  0
 25 48  1  0
 26 49  1  0
 30 50  1  0
 31 51  1  0
M  END
>  <smiles>  (67) 
COc1ccc(OCc2cn(CC(=O)N=c3[nH]nc(Cc4ccccc4)s3)nn2)cc1

>  <score_type>  (67) 
oracle

>  <origin>  (67) 
adg

>  <m_score__min__energy>  (67) 
-9.4800000000000004

>  <m_primary>  (67) 
energy

$$$$
67:0
     RDKit          3D

 40 42  0  0  0  0  0  0  0  0999 V2000
   57.6695   24.2851   46.7078 H   0  0  0  0  0  0  0  0  0  0  0  0
   57.1030   25.1760   46.3990 C   0  0  0  0  0  0  0  0  0  0  0  0
   55.7540   25.2710   46.4190 N   0  0  0  0  0  0  0  0  0  0  0  0
   55.2960   26.4490   45.9980 N   0  0  0  0  0  0  0  0  0  0  0  0
   56.2840   27.2990   45.6410 C   0  0  0  0  0  0  0  0  0  0  0  0
   56.0950   28.5060   45.1990 N   0  0  0  0  0  0  0  0  0  0  0  0
   56.8670   29.1720   44.1850 C   0  0  0  0  0  0  0  0  0  0  0  0
   57.0390   28.6330   43.0560 O   0  0  0  0  0  0  0  0  0  0  0  0
   57.4660   30.4990   44.4650 C   0  0  0  0  0  0  0  0  0  0  0  0
   57.1340   31.6120   43.6720 C   0  0  0  0  0  0  0  0  0  0  0  0
   56.4198   31.4987   42.8431 H   0  0  0  0  0  0  0  0  0  0  0  0
   57.7050   32.8600   43.9300 C   0  0  0  0  0  0  0  0  0  0  0  0
   57.4447   33.7224   43.2987 H   0  0  0  0  0  0  0  0  0  0  0  0
   58.6050   33.0180   44.9860 C   0  0  0  0  0  0  0  0  0  0  0  0
   59.0572   34.0021   45.1785 H   0  0  0  0  0  0  0  0  0  0  0  0
   58.9350   31.9230   45.8040 C   0  0  0  0  0  0  0  0  0  0  0  0
   59.8770   32.0550   46.8830 N   0  0  0  0  0  0  0  0  0  0  0  0
   60.0440   31.2210   47.4900 H   0  0  0  0  0  0  0  0  0  0  0  0
   60.4810   33.3010   47.2690 C   0  0  0  0  0  0  0  0  0  0  0  0
   59.9200   34.3880   46.9630 O   0  0  0  0  0  0  0  0  0  0  0  0
   61.7310   33.3250   48.0660 C   0  0  0  0  0  0  0  0  0  0  0  0
   62.9680   33.0930   47.4440 C   0  0  0  0  0  0  0  0  0  0  0  0
   63.0060   32.8992   46.3619 H   0  0  0  0  0  0  0  0  0  0  0  0
   64.1500   33.1060   48.1860 C   0  0  0  0  0  0  0  0  0  0  0  0
   65.1113   32.9294   47.6814 H   0  0  0  0  0  0  0  0  0  0  0  0
   64.1250   33.3420   49.5690 C   0  0  0  0  0  0  0  0  0  0  0  0
   65.4180   33.3510   50.3400 C   0  0  0  0  0  0  0  0  0  0  0  0
   65.2018   33.3495   51.4185 H   0  0  0  0  0  0  0  0  0  0  0  0
   66.0047   32.4569   50.0824 H   0  0  0  0  0  0  0  0  0  0  0  0
   65.9922   34.2532   50.0824 H   0  0  0  0  0  0  0  0  0  0  0  0
   62.8850   33.5760   50.2100 C   0  0  0  0  0  0  0  0  0  0  0  0
   62.8080   33.8210   51.6940 C   0  0  0  0  0  0  0  0  0  0  0  0
   63.0956   32.9058   52.2321 H   0  0  0  0  0  0  0  0  0  0  0  0
   63.4929   34.6374   51.9669 H   0  0  0  0  0  0  0  0  0  0  0  0
   61.7792   34.0988   51.9669 H   0  0  0  0  0  0  0  0  0  0  0  0
   61.7010   33.5550   49.4530 C   0  0  0  0  0  0  0  0  0  0  0  0
   60.7356   33.7211   49.9534 H   0  0  0  0  0  0  0  0  0  0  0  0
   58.3750   30.6670   45.5260 C   0  0  0  0  0  0  0  0  0  0  0  0
   58.6504   29.8013   46.1462 H   0  0  0  0  0  0  0  0  0  0  0  0
   57.8010   26.6040   45.8380 S   0  0  0  0  0  0  0  0  0  0  0  0
  1  2  1  0
  2  3  2  0
  3  4  1  0
  4  5  1  0
  5  6  2  0
  6  7  1  0
  7  8  2  0
  7  9  1  0
  9 10  2  0
 10 11  1  0
 10 12  1  0
 12 13  1  0
 12 14  2  0
 14 15  1  0
 14 16  1  0
 16 17  1  0
 17 18  1  0
 17 19  1  0
 19 20  2  0
 19 21  1  0
 21 22  2  0
 22 23  1  0
 22 24  1  0
 24 25  1  0
 24 26  2  0
 26 27  1  0
 27 28  1  0
 27 29  1  0
 27 30  1  0
 26 31  1  0
 31 32  1  0
 32 33  1  0
 32 34  1  0
 32 35  1  0
 31 36  2  0
 36 37  1  0
 16 38  2  0
 38 39  1  0
  5 40  1  0
 40  2  1  0
 38  9  1  0
 36 21  1  0
M  CHG  1   4  -1
M  END
>  <UniqueID>  (68) 
62

>  <SMILES>  (68) 
Cc1ccc(C(=O)Nc2cccc(C(=O)/N=c3\[n-]ncs3)c2)cc1C

>  <Energy>  (68) 
85.28461111388853

>  <Genealogy>  (68) 
Cc1ccc(C(=O)Nc2cccc(C(=O)N=c3[n-]ncs3)c2)cc1C (protonated)
Cc1ccc(C(=O)Nc2cccc(C(=O)/N=c3\[n-]ncs3)c2)cc1C (cis-trans isomerization)
Cc1ccc(C(=O)Nc2cccc(C(=O)/N=c3\[n-]ncs3)c2)cc1C (3D coordinates assigned)
Cc1ccc(C(=O)Nc2cccc(C(=O)/N=c3\[n-]ncs3)c2)cc1C (optimized conformer: 85.28461111388853 kcal/mol)

>  <smiles>  (68) 
Cc1ccc(C(=O)Nc2cccc(C(=O)N=c3[nH]ncs3)c2)cc1C

>  <score_type>  (68) 
oracle

>  <origin>  (68) 
adg

>  <m_score__min__energy>  (68) 
-10.83

>  <m_primary>  (68) 
energy

$$$$
68:0
     RDKit          3D

 54 57  0  0  0  0  0  0  0  0999 V2000
   55.2050   25.4210   46.3600 O   0  0  0  0  0  0  0  0  0  0  0  0
   56.0350   24.7590   47.0370 C   0  0  0  0  0  0  0  0  0  0  0  0
   57.2670   25.3560   47.4610 N   0  0  0  0  0  0  0  0  0  0  0  0
   58.0060   26.3400   46.7270 C   0  0  0  0  0  0  0  0  0  0  0  0
   59.3170   26.6320   47.1170 C   0  0  0  0  0  0  0  0  0  0  0  0
   60.0610   27.5940   46.4290 C   0  0  0  0  0  0  0  0  0  0  0  0
   59.5080   28.2520   45.3280 C   0  0  0  0  0  0  0  0  0  0  0  0
   58.2100   27.9370   44.8970 C   0  0  0  0  0  0  0  0  0  0  0  0
   57.6150   28.6380   43.7090 C   0  0  0  0  0  0  0  0  0  0  0  0
   56.4880   29.9180   44.2370 S   0  0  0  0  0  0  0  0  0  0  0  0
   55.1410   29.3410   44.5710 O   0  0  0  0  0  0  0  0  0  0  0  0
   56.3230   30.9140   43.1240 O   0  0  0  0  0  0  0  0  0  0  0  0
   57.1420   30.7340   45.6200 N   0  0  0  0  0  0  0  0  0  0  0  0
   57.8230   31.9950   45.6020 C   0  0  0  0  0  0  0  0  0  0  0  0
   57.2210   33.0700   44.9340 C   0  0  0  0  0  0  0  0  0  0  0  0
   57.8510   34.3160   44.8900 C   0  0  0  0  0  0  0  0  0  0  0  0
   59.0890   34.4990   45.5130 C   0  0  0  0  0  0  0  0  0  0  0  0
   59.6990   33.4350   46.1780 C   0  0  0  0  0  0  0  0  0  0  0  0
   59.0710   32.1870   46.2260 C   0  0  0  0  0  0  0  0  0  0  0  0
   57.4590   26.9850   45.6060 C   0  0  0  0  0  0  0  0  0  0  0  0
   55.7140   23.4130   47.4000 N   0  0  0  0  0  0  0  0  0  0  0  0
   54.3980   22.8970   47.6470 C   0  0  0  0  0  0  0  0  0  0  0  0
   54.0180   22.6800   48.9770 C   0  0  0  0  0  0  0  0  0  0  0  0
   52.7300   22.2340   49.2860 C   0  0  0  0  0  0  0  0  0  0  0  0
   52.2620   21.9870   50.9590 Cl  0  0  0  0  0  0  0  0  0  0  0  0
   51.8110   21.9950   48.2620 C   0  0  0  0  0  0  0  0  0  0  0  0
   52.1880   22.1750   46.9290 C   0  0  0  0  0  0  0  0  0  0  0  0
   53.4850   22.5910   46.6050 C   0  0  0  0  0  0  0  0  0  0  0  0
   53.8220   22.6900   45.2470 O   0  0  0  0  0  0  0  0  0  0  0  0
   55.1260   22.6600   44.7320 C   0  0  0  0  0  0  0  0  0  0  0  0
   55.6460   23.7070   43.9490 C   0  0  0  0  0  0  0  0  0  0  0  0
   56.9520   23.6320   43.4550 C   0  0  0  0  0  0  0  0  0  0  0  0
   57.7480   22.5210   43.7450 C   0  0  0  0  0  0  0  0  0  0  0  0
   57.2410   21.4850   44.5360 C   0  0  0  0  0  0  0  0  0  0  0  0
   55.9370   21.5600   45.0320 C   0  0  0  0  0  0  0  0  0  0  0  0
   59.7649   26.1014   47.9701 H   0  0  0  0  0  0  0  0  0  0  0  0
   61.0839   27.8335   46.7550 H   0  0  0  0  0  0  0  0  0  0  0  0
   60.0913   29.0190   44.7974 H   0  0  0  0  0  0  0  0  0  0  0  0
   58.4222   29.0896   43.1136 H   0  0  0  0  0  0  0  0  0  0  0  0
   57.0617   27.9047   43.1039 H   0  0  0  0  0  0  0  0  0  0  0  0
   56.2471   32.9318   44.4417 H   0  0  0  0  0  0  0  0  0  0  0  0
   57.3719   35.1550   44.3640 H   0  0  0  0  0  0  0  0  0  0  0  0
   59.5821   35.4817   45.4789 H   0  0  0  0  0  0  0  0  0  0  0  0
   60.6749   33.5782   46.6649 H   0  0  0  0  0  0  0  0  0  0  0  0
   59.5537   31.3511   46.7535 H   0  0  0  0  0  0  0  0  0  0  0  0
   56.4362   26.7433   45.2812 H   0  0  0  0  0  0  0  0  0  0  0  0
   54.7401   22.8623   49.7865 H   0  0  0  0  0  0  0  0  0  0  0  0
   50.7902   21.6650   48.5051 H   0  0  0  0  0  0  0  0  0  0  0  0
   51.4592   21.9882   46.1266 H   0  0  0  0  0  0  0  0  0  0  0  0
   55.0240   24.5862   43.7250 H   0  0  0  0  0  0  0  0  0  0  0  0
   57.3532   24.4489   42.8372 H   0  0  0  0  0  0  0  0  0  0  0  0
   58.7734   22.4611   43.3512 H   0  0  0  0  0  0  0  0  0  0  0  0
   57.8685   20.6117   44.7675 H   0  0  0  0  0  0  0  0  0  0  0  0
   55.5452   20.7485   45.6628 H   0  0  0  0  0  0  0  0  0  0  0  0
  1  2  2  0
  2  3  1  0
  3  4  1  0
  4  5  2  0
  5  6  1  0
  6  7  2  0
  7  8  1  0
  8  9  1  0
  9 10  1  0
 10 11  2  0
 10 12  2  0
 10 13  1  0
 13 14  1  0
 14 15  2  0
 15 16  1  0
 16 17  2  0
 17 18  1  0
 18 19  2  0
  8 20  2  0
  2 21  1  0
 21 22  1  0
 22 23  2  0
 23 24  1  0
 24 25  1  0
 24 26  2  0
 26 27  1  0
 27 28  2  0
 28 29  1  0
 29 30  1  0
 30 31  2  0
 31 32  1  0
 32 33  2  0
 33 34  1  0
 34 35  2  0
 20  4  1  0
 28 22  1  0
 35 30  1  0
 19 14  1  0
  5 36  1  0
  6 37  1  0
  7 38  1  0
  9 39  1  0
  9 40  1  0
 15 41  1  0
 16 42  1  0
 17 43  1  0
 18 44  1  0
 19 45  1  0
 20 46  1  0
 23 47  1  0
 26 48  1  0
 27 49  1  0
 31 50  1  0
 32 51  1  0
 33 52  1  0
 34 53  1  0
 35 54  1  0
M  CHG  3   3  -1  13  -1  21  -1
M  END
>  <UniqueID>  (69) 
63

>  <SMILES>  (69) 
O=C([N-]c1cccc(CS(=O)(=O)[N-]c2ccccc2)c1)[N-]c1cc(Cl)ccc1Oc1ccccc1

>  <Energy>  (69) 
72.20180250161528

>  <Genealogy>  (69) 
O=C([N-]c1cccc(CS(=O)(=O)[N-]c2ccccc2)c1)[N-]c1cc(Cl)ccc1Oc1ccccc1 (protonated)
O=C([N-]c1cccc(CS(=O)(=O)[N-]c2ccccc2)c1)[N-]c1cc(Cl)ccc1Oc1ccccc1 (3D coordinates assigned)
O=C([N-]c1cccc(CS(=O)(=O)[N-]c2ccccc2)c1)[N-]c1cc(Cl)ccc1Oc1ccccc1 (optimized conformer: 72.20180250161528 kcal/mol)

>  <smiles>  (69) 
O=C(Nc1cccc(CS(=O)(=O)Nc2ccccc2)c1)Nc1cc(Cl)ccc1Oc1ccccc1

>  <score_type>  (69) 
oracle

>  <origin>  (69) 
adg

>  <m_score__min__energy>  (69) 
-13.789999999999999

>  <m_primary>  (69) 
energy

$$$$
69:0
     RDKit          3D

 59 61  0  0  0  0  0  0  0  0999 V2000
   62.3400   30.4800   51.3190 C   0  0  0  0  0  0  0  0  0  0  0  0
   62.5500   30.4540   49.9140 O   0  0  0  0  0  0  0  0  0  0  0  0
   62.7460   31.5890   49.1110 C   0  0  0  0  0  0  0  0  0  0  0  0
   63.4020   32.7370   49.6020 C   0  0  0  0  0  0  0  0  0  0  0  0
   63.5710   33.8570   48.7880 C   0  0  0  0  0  0  0  0  0  0  0  0
   63.0940   33.8470   47.4750 C   0  0  0  0  0  0  0  0  0  0  0  0
   62.4450   32.7160   46.9710 C   0  0  0  0  0  0  0  0  0  0  0  0
   62.2740   31.5770   47.7780 C   0  0  0  0  0  0  0  0  0  0  0  0
   61.5090   30.3960   47.2350 C   0  0  0  0  0  0  0  0  0  0  0  0
   60.0800   30.6840   47.2570 N   0  0  0  0  0  0  0  0  0  0  0  0
   59.4500   31.2630   48.4050 C   0  0  0  0  0  0  0  0  0  0  0  0
   59.7540   30.8560   49.5570 O   0  0  0  0  0  0  0  0  0  0  0  0
   58.4690   32.3850   48.2430 C   0  0  0  0  0  0  0  0  0  0  0  0
   58.4380   32.8370   46.8340 N   0  0  0  0  0  0  0  0  0  0  0  0
   59.0040   34.0410   46.4620 C   0  0  0  0  0  0  0  0  0  0  0  0
   59.6030   34.9900   47.4710 C   0  0  0  0  0  0  0  0  0  0  0  0
   59.0320   34.4160   45.1110 C   0  0  0  0  0  0  0  0  0  0  0  0
   58.4840   33.5840   44.1470 C   0  0  0  0  0  0  0  0  0  0  0  0
   57.8930   32.3800   44.5170 C   0  0  0  0  0  0  0  0  0  0  0  0
   57.4250   31.5110   43.4750 N   0  0  0  0  0  0  0  0  0  0  0  0
   56.4470   30.4750   43.6050 C   0  0  0  0  0  0  0  0  0  0  0  0
   55.5340   30.5580   44.4700 O   0  0  0  0  0  0  0  0  0  0  0  0
   56.5310   29.2810   42.7190 C   0  0  0  0  0  0  0  0  0  0  0  0
   57.8040   28.1550   43.3800 S   0  0  0  0  0  0  0  0  0  0  0  0
   57.1980   28.1890   45.0950 C   0  0  0  0  0  0  0  0  0  0  0  0
   58.3090   27.8020   46.0280 C   0  0  0  0  0  0  0  0  0  0  0  0
   59.4580   27.1620   45.5330 C   0  0  0  0  0  0  0  0  0  0  0  0
   60.5040   26.8250   46.3950 C   0  0  0  0  0  0  0  0  0  0  0  0
   60.4160   27.1310   47.7530 C   0  0  0  0  0  0  0  0  0  0  0  0
   59.2840   27.7820   48.2480 C   0  0  0  0  0  0  0  0  0  0  0  0
   58.2360   28.1220   47.3890 C   0  0  0  0  0  0  0  0  0  0  0  0
   57.9000   32.0030   45.8770 C   0  0  0  0  0  0  0  0  0  0  0  0
   57.4370   30.8730   46.2080 O   0  0  0  0  0  0  0  0  0  0  0  0
   63.3036   30.3607   51.8360 H   0  0  0  0  0  0  0  0  0  0  0  0
   61.8873   31.4411   51.6044 H   0  0  0  0  0  0  0  0  0  0  0  0
   61.6666   29.6584   51.6044 H   0  0  0  0  0  0  0  0  0  0  0  0
   63.7829   32.7491   50.6339 H   0  0  0  0  0  0  0  0  0  0  0  0
   64.0806   34.7494   49.1805 H   0  0  0  0  0  0  0  0  0  0  0  0
   63.2295   34.7318   46.8357 H   0  0  0  0  0  0  0  0  0  0  0  0
   62.0663   32.7170   45.9383 H   0  0  0  0  0  0  0  0  0  0  0  0
   61.8264   30.1991   46.2004 H   0  0  0  0  0  0  0  0  0  0  0  0
   61.7122   29.5126   47.8582 H   0  0  0  0  0  0  0  0  0  0  0  0
   59.5800   30.7280   46.3370 H   0  0  0  0  0  0  0  0  0  0  0  0
   57.4673   32.0369   48.5351 H   0  0  0  0  0  0  0  0  0  0  0  0
   58.7758   33.2254   48.8830 H   0  0  0  0  0  0  0  0  0  0  0  0
   59.3784   34.6342   48.4874 H   0  0  0  0  0  0  0  0  0  0  0  0
   60.6931   35.0344   47.3305 H   0  0  0  0  0  0  0  0  0  0  0  0
   59.1741   35.9931   47.3305 H   0  0  0  0  0  0  0  0  0  0  0  0
   59.4895   35.3718   44.8157 H   0  0  0  0  0  0  0  0  0  0  0  0
   58.5165   33.8764   43.0871 H   0  0  0  0  0  0  0  0  0  0  0  0
   55.5583   28.7678   42.6954 H   0  0  0  0  0  0  0  0  0  0  0  0
   56.7959   29.5892   41.6968 H   0  0  0  0  0  0  0  0  0  0  0  0
   56.8500   29.2032   45.3405 H   0  0  0  0  0  0  0  0  0  0  0  0
   56.3652   27.4785   45.2030 H   0  0  0  0  0  0  0  0  0  0  0  0
   59.5340   26.9253   44.4615 H   0  0  0  0  0  0  0  0  0  0  0  0
   61.3978   26.3179   46.0027 H   0  0  0  0  0  0  0  0  0  0  0  0
   61.2370   26.8599   48.4330 H   0  0  0  0  0  0  0  0  0  0  0  0
   59.2173   28.0280   49.3181 H   0  0  0  0  0  0  0  0  0  0  0  0
   57.3508   28.6427   47.7832 H   0  0  0  0  0  0  0  0  0  0  0  0
  1  2  1  0
  2  3  1  0
  3  4  2  0
  4  5  1  0
  5  6  2  0
  6  7  1  0
  7  8  2  0
  8  9  1  0
  9 10  1  0
 10 11  1  0
 11 12  2  0
 11 13  1  0
 13 14  1  0
 14 15  1  0
 15 16  1  0
 15 17  2  0
 17 18  1  0
 18 19  2  0
 19 20  1  0
 20 21  1  0
 21 22  2  0
 21 23  1  0
 23 24  1  0
 24 25  1  0
 25 26  1  0
 26 27  2  0
 27 28  1  0
 28 29  2  0
 29 30  1  0
 30 31  2  0
 19 32  1  0
 32 33  2  0
  8  3  1  0
 32 14  1  0
 31 26  1  0
  1 34  1  0
  1 35  1  0
  1 36  1  0
  4 37  1  0
  5 38  1  0
  6 39  1  0
  7 40  1  0
  9 41  1  0
  9 42  1  0
 10 43  1  0
 13 44  1  0
 13 45  1  0
 16 46  1  0
 16 47  1  0
 16 48  1  0
 17 49  1  0
 18 50  1  0
 23 51  1  0
 23 52  1  0
 25 53  1  0
 25 54  1  0
 27 55  1  0
 28 56  1  0
 29 57  1  0
 30 58  1  0
 31 59  1  0
M  CHG  1  20  -1
M  END
>  <UniqueID>  (70) 
64

>  <SMILES>  (70) 
COc1ccccc1CNC(=O)Cn1c(C)ccc([N-]C(=O)CSCc2ccccc2)c1=O

>  <Energy>  (70) 
56.647758320675024

>  <Genealogy>  (70) 
COc1ccccc1CNC(=O)Cn1c(C)ccc([N-]C(=O)CSCc2ccccc2)c1=O (protonated)
COc1ccccc1CNC(=O)Cn1c(C)ccc([N-]C(=O)CSCc2ccccc2)c1=O (3D coordinates assigned)
COc1ccccc1CNC(=O)Cn1c(C)ccc([N-]C(=O)CSCc2ccccc2)c1=O (optimized conformer: 56.647758320675024 kcal/mol)

>  <smiles>  (70) 
COc1ccccc1CNC(=O)Cn1c(C)ccc(NC(=O)CSCc2ccccc2)c1=O

>  <score_type>  (70) 
oracle

>  <origin>  (70) 
adg

>  <m_score__min__energy>  (70) 
-10.99

>  <m_primary>  (70) 
energy

$$$$
70:0
     RDKit          3D

 32 32  0  0  0  0  0  0  0  0999 V2000
   63.4710   32.2500   47.4790 C   0  0  0  0  0  0  0  0  0  0  0  0
   62.1420   32.2990   48.0810 N   0  0  0  0  0  0  0  0  0  0  0  0
   61.2020   33.5530   47.3300 S   0  0  0  0  0  0  0  0  0  0  0  0
   60.8310   34.5950   48.3510 O   0  0  0  0  0  0  0  0  0  0  0  0
   62.0230   34.2110   46.2560 O   0  0  0  0  0  0  0  0  0  0  0  0
   59.7480   32.8710   46.6030 C   0  0  0  0  0  0  0  0  0  0  0  0
   58.8360   33.7100   45.9530 C   0  0  0  0  0  0  0  0  0  0  0  0
   57.6870   33.1780   45.3600 C   0  0  0  0  0  0  0  0  0  0  0  0
   57.4480   31.7920   45.3970 C   0  0  0  0  0  0  0  0  0  0  0  0
   56.2720   31.2060   44.8220 N   0  0  0  0  0  0  0  0  0  0  0  0
   56.1950   29.9560   44.1270 C   0  0  0  0  0  0  0  0  0  0  0  0
   56.3370   29.9080   42.8740 O   0  0  0  0  0  0  0  0  0  0  0  0
   56.0160   28.7830   44.8650 O   0  0  0  0  0  0  0  0  0  0  0  0
   57.0650   28.1430   45.5920 C   0  0  0  0  0  0  0  0  0  0  0  0
   58.0700   27.4730   44.6450 C   0  0  0  0  0  0  0  0  0  0  0  0
   57.7810   27.7760   43.2430 N   0  0  0  0  0  0  0  0  0  0  0  0
   58.3550   30.9590   46.0670 C   0  0  0  0  0  0  0  0  0  0  0  0
   59.5030   31.4930   46.6590 C   0  0  0  0  0  0  0  0  0  0  0  0
   64.2322   32.2219   48.2726 H   0  0  0  0  0  0  0  0  0  0  0  0
   63.5580   31.3480   46.8554 H   0  0  0  0  0  0  0  0  0  0  0  0
   63.6242   33.1431   46.8554 H   0  0  0  0  0  0  0  0  0  0  0  0
   61.6640   31.3930   47.8710 H   0  0  0  0  0  0  0  0  0  0  0  0
   59.0239   34.7929   45.9084 H   0  0  0  0  0  0  0  0  0  0  0  0
   56.9675   33.8453   44.8629 H   0  0  0  0  0  0  0  0  0  0  0  0
   57.5907   28.8946   46.1992 H   0  0  0  0  0  0  0  0  0  0  0  0
   56.6207   27.3672   46.2329 H   0  0  0  0  0  0  0  0  0  0  0  0
   59.0810   27.8333   44.8860 H   0  0  0  0  0  0  0  0  0  0  0  0
   57.9951   26.3841   44.7819 H   0  0  0  0  0  0  0  0  0  0  0  0
   56.7450   27.7830   43.1040 H   0  0  0  0  0  0  0  0  0  0  0  0
   58.1410   28.7330   43.0200 H   0  0  0  0  0  0  0  0  0  0  0  0
   58.1618   29.8778   46.1272 H   0  0  0  0  0  0  0  0  0  0  0  0
   60.2159   30.8294   47.1702 H   0  0  0  0  0  0  0  0  0  0  0  0
  1  2  1  0
  2  3  1  0
  3  4  2  0
  3  5  2  0
  3  6  1  0
  6  7  2  0
  7  8  1  0
  8  9  2  0
  9 10  1  0
 10 11  1  0
 11 12  2  0
 11 13  1  0
 13 14  1  0
 14 15  1  0
 15 16  1  0
  9 17  1  0
 17 18  2  0
 18  6  1  0
  1 19  1  0
  1 20  1  0
  1 21  1  0
  2 22  1  0
  7 23  1  0
  8 24  1  0
 14 25  1  0
 14 26  1  0
 15 27  1  0
 15 28  1  0
 16 29  1  0
 16 30  1  0
 17 31  1  0
 18 32  1  0
M  CHG  1  10  -1
M  END
>  <UniqueID>  (71) 
65

>  <SMILES>  (71) 
CNS(=O)(=O)c1ccc([N-]C(=O)OCCN)cc1

>  <Energy>  (71) 
26.493277827864382

>  <Genealogy>  (71) 
CNS(=O)(=O)c1ccc([N-]C(=O)OCCN)cc1 (protonated)
CNS(=O)(=O)c1ccc([N-]C(=O)OCCN)cc1 (3D coordinates assigned)
CNS(=O)(=O)c1ccc([N-]C(=O)OCCN)cc1 (optimized conformer: 26.493277827864382 kcal/mol)

>  <smiles>  (71) 
CNS(=O)(=O)c1ccc(NC(=O)OCCN)cc1

>  <score_type>  (71) 
oracle

>  <origin>  (71) 
adg

>  <m_score__min__energy>  (71) 
-7.5800000000000001

>  <m_primary>  (71) 
energy

$$$$
71:0
     RDKit          3D

 42 43  0  0  0  0  0  0  0  0999 V2000
   59.7170   28.6590   48.5700 C   0  0  0  0  0  0  0  0  0  0  0  0
   60.5910   29.5800   47.9260 O   0  0  0  0  0  0  0  0  0  0  0  0
   60.2670   30.9150   47.6420 C   0  0  0  0  0  0  0  0  0  0  0  0
   60.9570   31.9230   48.3190 C   0  0  0  0  0  0  0  0  0  0  0  0
   60.6720   33.2680   48.0730 C   0  0  0  0  0  0  0  0  0  0  0  0
   59.6810   33.6310   47.1410 C   0  0  0  0  0  0  0  0  0  0  0  0
   59.3790   34.9780   46.8830 O   0  0  0  0  0  0  0  0  0  0  0  0
   59.6320   35.6460   45.6520 C   0  0  0  0  0  0  0  0  0  0  0  0
   58.9800   32.6170   46.4550 C   0  0  0  0  0  0  0  0  0  0  0  0
   57.7070   32.9790   45.2770 S   0  0  0  0  0  0  0  0  0  0  0  0
   58.3570   33.5170   44.0340 O   0  0  0  0  0  0  0  0  0  0  0  0
   56.7520   34.0160   45.7960 O   0  0  0  0  0  0  0  0  0  0  0  0
   56.8140   31.5410   44.8640 N   0  0  0  0  0  0  0  0  0  0  0  0
   57.6680   30.5380   44.2220 C   0  0  0  0  0  0  0  0  0  0  0  0
   57.4580   29.1670   44.8190 C   0  0  0  0  0  0  0  0  0  0  0  0
   58.5600   28.3620   45.1380 C   0  0  0  0  0  0  0  0  0  0  0  0
   58.3780   27.0920   45.7040 C   0  0  0  0  0  0  0  0  0  0  0  0
   59.5760   26.2480   46.0490 C   0  0  0  0  0  0  0  0  0  0  0  0
   57.0630   26.6470   45.9590 C   0  0  0  0  0  0  0  0  0  0  0  0
   56.7880   25.3050   46.5710 C   0  0  0  0  0  0  0  0  0  0  0  0
   56.0090   27.4420   45.6280 N   0  0  0  0  0  0  0  0  0  0  0  0
   56.1670   28.6700   45.0710 C   0  0  0  0  0  0  0  0  0  0  0  0
   55.1480   29.3540   44.7870 O   0  0  0  0  0  0  0  0  0  0  0  0
   59.2790   31.2700   46.7070 C   0  0  0  0  0  0  0  0  0  0  0  0
   59.8148   28.7621   49.6608 H   0  0  0  0  0  0  0  0  0  0  0  0
   58.6789   28.8699   48.2734 H   0  0  0  0  0  0  0  0  0  0  0  0
   59.9819   27.6334   48.2734 H   0  0  0  0  0  0  0  0  0  0  0  0
   61.7318   31.6553   49.0525 H   0  0  0  0  0  0  0  0  0  0  0  0
   61.2265   34.0504   48.6120 H   0  0  0  0  0  0  0  0  0  0  0  0
   60.0149   36.6570   45.8554 H   0  0  0  0  0  0  0  0  0  0  0  0
   60.3782   35.0806   45.0746 H   0  0  0  0  0  0  0  0  0  0  0  0
   58.6984   35.7168   45.0746 H   0  0  0  0  0  0  0  0  0  0  0  0
   57.4301   30.5005   43.1487 H   0  0  0  0  0  0  0  0  0  0  0  0
   58.7176   30.8262   44.3812 H   0  0  0  0  0  0  0  0  0  0  0  0
   59.5780   28.7301   44.9424 H   0  0  0  0  0  0  0  0  0  0  0  0
   59.6735   26.1793   47.1425 H   0  0  0  0  0  0  0  0  0  0  0  0
   59.4476   25.2398   45.6283 H   0  0  0  0  0  0  0  0  0  0  0  0
   60.4822   26.7082   45.6283 H   0  0  0  0  0  0  0  0  0  0  0  0
   56.8057   25.3915   47.6675 H   0  0  0  0  0  0  0  0  0  0  0  0
   55.7985   24.9501   46.2471 H   0  0  0  0  0  0  0  0  0  0  0  0
   57.5582   24.5895   46.2471 H   0  0  0  0  0  0  0  0  0  0  0  0
   58.7340   30.4820   46.1666 H   0  0  0  0  0  0  0  0  0  0  0  0
  1  2  1  0
  2  3  1  0
  3  4  2  0
  4  5  1  0
  5  6  2  0
  6  7  1  0
  7  8  1  0
  6  9  1  0
  9 10  1  0
 10 11  2  0
 10 12  2  0
 10 13  1  0
 13 14  1  0
 14 15  1  0
 15 16  2  0
 16 17  1  0
 17 18  1  0
 17 19  2  0
 19 20  1  0
 19 21  1  0
 21 22  1  0
 22 23  2  0
  9 24  2  0
 24  3  1  0
 22 15  1  0
  1 25  1  0
  1 26  1  0
  1 27  1  0
  4 28  1  0
  5 29  1  0
  8 30  1  0
  8 31  1  0
  8 32  1  0
 14 33  1  0
 14 34  1  0
 16 35  1  0
 18 36  1  0
 18 37  1  0
 18 38  1  0
 20 39  1  0
 20 40  1  0
 20 41  1  0
 24 42  1  0
M  CHG  2  13  -1  21  -1
M  END
>  <UniqueID>  (72) 
66

>  <SMILES>  (72) 
COc1ccc(OC)c(S(=O)(=O)[N-]Cc2cc(C)c(C)[n-]c2=O)c1

>  <Energy>  (72) 
40.02123210787366

>  <Genealogy>  (72) 
COc1ccc(OC)c(S(=O)(=O)[N-]Cc2cc(C)c(C)[n-]c2=O)c1 (protonated)
COc1ccc(OC)c(S(=O)(=O)[N-]Cc2cc(C)c(C)[n-]c2=O)c1 (3D coordinates assigned)
COc1ccc(OC)c(S(=O)(=O)[N-]Cc2cc(C)c(C)[n-]c2=O)c1 (optimized conformer: 40.02123210787366 kcal/mol)

>  <smiles>  (72) 
COc1ccc(OC)c(S(=O)(=O)NCc2cc(C)c(C)[nH]c2=O)c1

>  <score_type>  (72) 
oracle

>  <origin>  (72) 
adg

>  <m_score__min__energy>  (72) 
-10.84

>  <m_primary>  (72) 
energy

$$$$
72:0
     RDKit          3D

 43 45  0  0  0  0  0  0  0  0999 V2000
   55.5140   28.9530   44.8800 N   0  0  0  0  0  0  0  0  0  0  0  0
   56.6800   29.6630   43.8240 S   0  0  0  0  0  0  0  0  0  0  0  0
   57.6710   28.6200   43.3840 O   0  0  0  0  0  0  0  0  0  0  0  0
   55.9730   30.2180   42.6200 O   0  0  0  0  0  0  0  0  0  0  0  0
   57.5250   30.9490   44.6780 C   0  0  0  0  0  0  0  0  0  0  0  0
   57.7470   32.1930   44.0730 C   0  0  0  0  0  0  0  0  0  0  0  0
   58.4080   33.2080   44.7770 C   0  0  0  0  0  0  0  0  0  0  0  0
   58.8370   32.9910   46.0860 C   0  0  0  0  0  0  0  0  0  0  0  0
   58.6130   31.7520   46.7100 C   0  0  0  0  0  0  0  0  0  0  0  0
   59.0630   31.5380   48.1100 C   0  0  0  0  0  0  0  0  0  0  0  0
   59.7110   32.4490   48.6960 O   0  0  0  0  0  0  0  0  0  0  0  0
   58.8300   30.3090   48.8110 N   0  0  0  0  0  0  0  0  0  0  0  0
   59.1400   28.9900   48.3390 C   0  0  0  0  0  0  0  0  0  0  0  0
   60.3490   28.3520   48.6720 C   0  0  0  0  0  0  0  0  0  0  0  0
   60.5900   27.0440   48.2450 C   0  0  0  0  0  0  0  0  0  0  0  0
   59.6330   26.3680   47.4790 C   0  0  0  0  0  0  0  0  0  0  0  0
   58.4360   27.0070   47.1200 C   0  0  0  0  0  0  0  0  0  0  0  0
   57.2150   26.1230   46.2110 S   0  0  0  0  0  0  0  0  0  0  0  0
   57.3820   26.4200   44.7480 O   0  0  0  0  0  0  0  0  0  0  0  0
   55.8330   26.5350   46.6280 O   0  0  0  0  0  0  0  0  0  0  0  0
   57.4080   24.4210   46.4770 N   0  0  0  0  0  0  0  0  0  0  0  0
   57.5620   23.4300   45.4470 C   0  0  0  0  0  0  0  0  0  0  0  0
   58.8030   22.8170   45.1900 C   0  0  0  0  0  0  0  0  0  0  0  0
   58.9190   21.8470   44.1900 C   0  0  0  0  0  0  0  0  0  0  0  0
   57.8010   21.4820   43.4380 C   0  0  0  0  0  0  0  0  0  0  0  0
   56.5670   22.0920   43.6760 C   0  0  0  0  0  0  0  0  0  0  0  0
   56.4430   23.0630   44.6760 C   0  0  0  0  0  0  0  0  0  0  0  0
   54.8750   23.8110   44.9500 Cl  0  0  0  0  0  0  0  0  0  0  0  0
   58.2050   28.3250   47.5350 C   0  0  0  0  0  0  0  0  0  0  0  0
   57.9840   30.7230   45.9810 C   0  0  0  0  0  0  0  0  0  0  0  0
   55.7580   27.9400   44.9730 H   0  0  0  0  0  0  0  0  0  0  0  0
   57.4019   32.3730   43.0441 H   0  0  0  0  0  0  0  0  0  0  0  0
   58.5893   34.1801   44.2952 H   0  0  0  0  0  0  0  0  0  0  0  0
   59.3533   33.7937   46.6328 H   0  0  0  0  0  0  0  0  0  0  0  0
   61.1048   28.8835   49.2689 H   0  0  0  0  0  0  0  0  0  0  0  0
   61.5332   26.5444   48.5111 H   0  0  0  0  0  0  0  0  0  0  0  0
   59.8197   25.3328   47.1574 H   0  0  0  0  0  0  0  0  0  0  0  0
   59.6866   23.1029   45.7795 H   0  0  0  0  0  0  0  0  0  0  0  0
   59.8916   21.3712   43.9957 H   0  0  0  0  0  0  0  0  0  0  0  0
   57.8918   20.7129   42.6568 H   0  0  0  0  0  0  0  0  0  0  0  0
   55.6901   21.8082   43.0755 H   0  0  0  0  0  0  0  0  0  0  0  0
   57.2835   28.8411   47.2276 H   0  0  0  0  0  0  0  0  0  0  0  0
   57.8524   29.7323   46.4405 H   0  0  0  0  0  0  0  0  0  0  0  0
  1  2  1  0
  2  3  2  0
  2  4  2  0
  2  5  1  0
  5  6  2  0
  6  7  1  0
  7  8  2  0
  8  9  1  0
  9 10  1  0
 10 11  2  0
 10 12  1  0
 12 13  1  0
 13 14  2  0
 14 15  1  0
 15 16  2  0
 16 17  1  0
 17 18  1  0
 18 19  2  0
 18 20  2  0
 18 21  1  0
 21 22  1  0
 22 23  2  0
 23 24  1  0
 24 25  2  0
 25 26  1  0
 26 27  2  0
 27 28  1  0
 17 29  2  0
  9 30  2  0
 30  5  1  0
 29 13  1  0
 27 22  1  0
  1 31  1  0
  6 32  1  0
  7 33  1  0
  8 34  1  0
 14 35  1  0
 15 36  1  0
 16 37  1  0
 23 38  1  0
 24 39  1  0
 25 40  1  0
 26 41  1  0
 29 42  1  0
 30 43  1  0
M  CHG  3   1  -1  12  -1  21  -1
M  END
>  <UniqueID>  (73) 
67

>  <SMILES>  (73) 
[NH-]S(=O)(=O)c1cccc(C(=O)[N-]c2cccc(S(=O)(=O)[N-]c3ccccc3Cl)c2)c1

>  <Energy>  (73) 
53.290668847823156

>  <Genealogy>  (73) 
[NH-]S(=O)(=O)c1cccc(C(=O)[N-]c2cccc(S(=O)(=O)[N-]c3ccccc3Cl)c2)c1 (protonated)
[NH-]S(=O)(=O)c1cccc(C(=O)[N-]c2cccc(S(=O)(=O)[N-]c3ccccc3Cl)c2)c1 (3D coordinates assigned)
[NH-]S(=O)(=O)c1cccc(C(=O)[N-]c2cccc(S(=O)(=O)[N-]c3ccccc3Cl)c2)c1 (optimized conformer: 53.290668847823156 kcal/mol)

>  <smiles>  (73) 
NS(=O)(=O)c1cccc(C(=O)Nc2cccc(S(=O)(=O)Nc3ccccc3Cl)c2)c1

>  <score_type>  (73) 
oracle

>  <origin>  (73) 
adg

>  <m_score__min__energy>  (73) 
-14.960000000000001

>  <m_primary>  (73) 
energy

$$$$
73:0
     RDKit          3D

 57 58  0  0  0  0  0  0  0  0999 V2000
   58.8680   34.3860   46.3710 C   0  0  0  0  0  0  0  0  0  0  0  0
   58.3160   34.7550   45.1280 O   0  0  0  0  0  0  0  0  0  0  0  0
   57.8220   33.6080   44.4680 C   0  0  0  0  0  0  0  0  0  0  0  0
   57.2740   32.6160   45.5010 C   0  0  0  0  0  0  0  0  0  0  0  0
   58.0250   31.3520   45.4700 N   0  0  0  0  0  0  0  0  0  0  0  0
   57.6800   30.3400   44.4600 C   0  0  0  0  0  0  0  0  0  0  0  0
   57.5520   28.9720   45.0890 C   0  0  0  0  0  0  0  0  0  0  0  0
   58.7110   28.3060   45.5140 C   0  0  0  0  0  0  0  0  0  0  0  0
   58.6280   27.0480   46.1100 C   0  0  0  0  0  0  0  0  0  0  0  0
   57.3890   26.4220   46.2530 C   0  0  0  0  0  0  0  0  0  0  0  0
   56.2180   27.0420   45.8020 C   0  0  0  0  0  0  0  0  0  0  0  0
   54.9950   26.2990   45.9200 N   0  0  0  0  0  0  0  0  0  0  0  0
   54.7470   24.5920   45.7100 S   0  0  0  0  0  0  0  0  0  0  0  0
   55.7060   24.0020   44.3290 C   0  0  0  0  0  0  0  0  0  0  0  0
   55.1130   23.8450   46.9650 O   0  0  0  0  0  0  0  0  0  0  0  0
   53.2880   24.3510   45.4270 O   0  0  0  0  0  0  0  0  0  0  0  0
   56.2950   28.3500   45.2600 C   0  0  0  0  0  0  0  0  0  0  0  0
   55.1420   29.0490   44.9280 O   0  0  0  0  0  0  0  0  0  0  0  0
   59.1680   31.1610   46.3330 C   0  0  0  0  0  0  0  0  0  0  0  0
   60.2520   30.7150   45.8630 O   0  0  0  0  0  0  0  0  0  0  0  0
   59.0690   31.4580   47.7300 N   0  0  0  0  0  0  0  0  0  0  0  0
   59.8570   30.7990   48.7680 C   0  0  0  0  0  0  0  0  0  0  0  0
   61.0570   31.6200   49.1600 C   0  0  0  0  0  0  0  0  0  0  0  0
   60.9270   32.6820   50.0670 C   0  0  0  0  0  0  0  0  0  0  0  0
   62.0520   33.4080   50.4690 C   0  0  0  0  0  0  0  0  0  0  0  0
   63.3200   33.0950   49.9610 C   0  0  0  0  0  0  0  0  0  0  0  0
   64.4520   33.8480   50.4140 N   0  0  0  0  0  0  0  0  0  0  0  0
   66.0270   33.1850   50.7330 S   0  0  0  0  0  0  0  0  0  0  0  0
   65.8720   31.7950   51.8270 C   0  0  0  0  0  0  0  0  0  0  0  0
   66.6590   32.7280   49.4520 O   0  0  0  0  0  0  0  0  0  0  0  0
   66.8940   34.2270   51.3870 O   0  0  0  0  0  0  0  0  0  0  0  0
   63.4460   32.0460   49.0340 C   0  0  0  0  0  0  0  0  0  0  0  0
   62.3240   31.3140   48.6410 C   0  0  0  0  0  0  0  0  0  0  0  0
   58.2511   34.7984   47.1831 H   0  0  0  0  0  0  0  0  0  0  0  0
   58.8927   33.2891   46.4501 H   0  0  0  0  0  0  0  0  0  0  0  0
   59.8910   34.7825   46.4501 H   0  0  0  0  0  0  0  0  0  0  0  0
   57.0165   33.9009   43.7785 H   0  0  0  0  0  0  0  0  0  0  0  0
   58.6368   33.1330   43.9019 H   0  0  0  0  0  0  0  0  0  0  0  0
   57.3574   33.0591   46.5043 H   0  0  0  0  0  0  0  0  0  0  0  0
   56.2222   32.4040   45.2587 H   0  0  0  0  0  0  0  0  0  0  0  0
   56.7230   30.6115   43.9905 H   0  0  0  0  0  0  0  0  0  0  0  0
   58.4816   30.3071   43.7074 H   0  0  0  0  0  0  0  0  0  0  0  0
   59.6939   28.7801   45.3760 H   0  0  0  0  0  0  0  0  0  0  0  0
   59.5404   26.5485   46.4679 H   0  0  0  0  0  0  0  0  0  0  0  0
   57.3320   25.4303   46.7254 H   0  0  0  0  0  0  0  0  0  0  0  0
   56.5879   23.4594   44.7002 H   0  0  0  0  0  0  0  0  0  0  0  0
   55.0904   23.3262   43.7171 H   0  0  0  0  0  0  0  0  0  0  0  0
   56.0317   24.8562   43.7171 H   0  0  0  0  0  0  0  0  0  0  0  0
   59.2236   30.6473   49.6544 H   0  0  0  0  0  0  0  0  0  0  0  0
   60.2137   29.8376   48.3700 H   0  0  0  0  0  0  0  0  0  0  0  0
   59.9353   32.9448   50.4638 H   0  0  0  0  0  0  0  0  0  0  0  0
   61.9410   34.2315   51.1898 H   0  0  0  0  0  0  0  0  0  0  0  0
   65.9108   32.1430   52.8698 H   0  0  0  0  0  0  0  0  0  0  0  0
   64.9120   31.2900   51.6445 H   0  0  0  0  0  0  0  0  0  0  0  0
   66.6972   31.0909   51.6445 H   0  0  0  0  0  0  0  0  0  0  0  0
   64.4335   31.8006   48.6161 H   0  0  0  0  0  0  0  0  0  0  0  0
   62.4342   30.4913   47.9192 H   0  0  0  0  0  0  0  0  0  0  0  0
  1  2  1  0
  2  3  1  0
  3  4  1  0
  4  5  1  0
  5  6  1  0
  6  7  1  0
  7  8  2  0
  8  9  1  0
  9 10  2  0
 10 11  1  0
 11 12  1  0
 12 13  1  0
 13 14  1  0
 13 15  2  0
 13 16  2  0
 11 17  2  0
 17 18  1  0
  5 19  1  0
 19 20  2  0
 19 21  1  0
 21 22  1  0
 22 23  1  0
 23 24  2  0
 24 25  1  0
 25 26  2  0
 26 27  1  0
 27 28  1  0
 28 29  1  0
 28 30  2  0
 28 31  2  0
 26 32  1  0
 32 33  2  0
 17  7  1  0
 33 23  1  0
  1 34  1  0
  1 35  1  0
  1 36  1  0
  3 37  1  0
  3 38  1  0
  4 39  1  0
  4 40  1  0
  6 41  1  0
  6 42  1  0
  8 43  1  0
  9 44  1  0
 10 45  1  0
 14 46  1  0
 14 47  1  0
 14 48  1  0
 22 49  1  0
 22 50  1  0
 24 51  1  0
 25 52  1  0
 29 53  1  0
 29 54  1  0
 29 55  1  0
 32 56  1  0
 33 57  1  0
M  CHG  4  12  -1  18  -1  21  -1  27  -1
M  END
>  <UniqueID>  (74) 
68

>  <SMILES>  (74) 
COCCN(Cc1cccc([N-]S(C)(=O)=O)c1[O-])C(=O)[N-]Cc1ccc([N-]S(C)(=O)=O)cc1

>  <Energy>  (74) 
55.11894427206634

>  <Genealogy>  (74) 
COCCN(Cc1cccc([N-]S(C)(=O)=O)c1[O-])C(=O)[N-]Cc1ccc([N-]S(C)(=O)=O)cc1 (protonated)
COCCN(Cc1cccc([N-]S(C)(=O)=O)c1[O-])C(=O)[N-]Cc1ccc([N-]S(C)(=O)=O)cc1 (3D coordinates assigned)
COCCN(Cc1cccc([N-]S(C)(=O)=O)c1[O-])C(=O)[N-]Cc1ccc([N-]S(C)(=O)=O)cc1 (optimized conformer: 55.11894427206634 kcal/mol)

>  <smiles>  (74) 
COCCN(Cc1cccc(NS(C)(=O)=O)c1O)C(=O)NCc1ccc(NS(C)(=O)=O)cc1

>  <score_type>  (74) 
oracle

>  <origin>  (74) 
adg

>  <m_score__min__energy>  (74) 
-16.02

>  <m_primary>  (74) 
energy

$$$$
74:0
     RDKit          3D

 16 16  0  0  0  0  0  0  0  0999 V2000
   55.3760   29.2170   44.7780 N   0  0  0  0  0  0  0  0  0  0  0  0
   56.7040   29.6920   45.0040 C   0  0  0  0  0  0  0  0  0  0  0  0
   56.9520   30.9180   44.8620 O   0  0  0  0  0  0  0  0  0  0  0  0
   57.7730   28.7640   45.4270 C   0  0  0  0  0  0  0  0  0  0  0  0
   58.7610   29.2100   46.0680 O   0  0  0  0  0  0  0  0  0  0  0  0
   57.7590   27.3790   45.0600 N   0  0  0  0  0  0  0  0  0  0  0  0
   57.3420   26.2970   45.9010 C   0  0  0  0  0  0  0  0  0  0  0  0
   58.1840   25.4210   46.5470 C   0  0  0  0  0  0  0  0  0  0  0  0
   57.3570   24.6190   47.3140 C   0  0  0  0  0  0  0  0  0  0  0  0
   56.1030   24.9900   47.1680 O   0  0  0  0  0  0  0  0  0  0  0  0
   56.0670   26.0020   46.3350 C   0  0  0  0  0  0  0  0  0  0  0  0
   54.9050   26.6840   45.9950 O   0  0  0  0  0  0  0  0  0  0  0  0
   55.1380   28.2050   44.8800 H   0  0  0  0  0  0  0  0  0  0  0  0
   54.6220   29.8820   44.4940 H   0  0  0  0  0  0  0  0  0  0  0  0
   59.2801   25.3693   46.4702 H   0  0  0  0  0  0  0  0  0  0  0  0
   57.6985   23.7914   47.9531 H   0  0  0  0  0  0  0  0  0  0  0  0
  1  2  1  0
  2  3  2  0
  2  4  1  0
  4  5  2  0
  4  6  1  0
  6  7  1  0
  7  8  1  0
  8  9  2  0
  9 10  1  0
 10 11  1  0
 11 12  1  0
 11  7  2  0
  1 13  1  0
  1 14  1  0
  8 15  1  0
  9 16  1  0
M  CHG  2   6  -1  12  -1
M  END
>  <UniqueID>  (75) 
69

>  <SMILES>  (75) 
NC(=O)C(=O)[N-]c1ccoc1[O-]

>  <Energy>  (75) 
46.6476443230519

>  <Genealogy>  (75) 
NC(=O)C(=O)[N-]c1ccoc1[O-] (protonated)
NC(=O)C(=O)[N-]c1ccoc1[O-] (3D coordinates assigned)
NC(=O)C(=O)[N-]c1ccoc1[O-] (optimized conformer: 46.6476443230519 kcal/mol)

>  <smiles>  (75) 
NC(=O)C(=O)Nc1ccoc1O

>  <score_type>  (75) 
oracle

>  <origin>  (75) 
adg

>  <m_score__min__energy>  (75) 
-9.5399999999999991

>  <m_primary>  (75) 
energy

$$$$
75:0
     RDKit          3D

 72 76  0  0  0  0  0  0  0  0999 V2000
   61.7350   26.3560   47.5260 O   0  0  0  0  0  0  0  0  0  0  0  0
   60.5040   26.3380   47.7910 C   0  0  0  0  0  0  0  0  0  0  0  0
   59.5410   25.8110   46.7580 C   0  0  0  0  0  0  0  0  0  0  0  0
   58.7340   26.9230   46.1300 C   0  0  0  0  0  0  0  0  0  0  0  0
   59.3410   27.8300   45.2470 C   0  0  0  0  0  0  0  0  0  0  0  0
   58.5690   28.7630   44.5500 C   0  0  0  0  0  0  0  0  0  0  0  0
   57.1780   28.7910   44.7160 C   0  0  0  0  0  0  0  0  0  0  0  0
   56.2070   29.9220   43.7810 S   0  0  0  0  0  0  0  0  0  0  0  0
   56.7360   29.9930   42.3780 O   0  0  0  0  0  0  0  0  0  0  0  0
   54.7800   29.4550   43.7240 O   0  0  0  0  0  0  0  0  0  0  0  0
   56.2570   31.4820   44.5260 N   0  0  0  0  0  0  0  0  0  0  0  0
   57.4000   32.3420   44.4850 C   0  0  0  0  0  0  0  0  0  0  0  0
   58.4660   31.9660   43.9230 O   0  0  0  0  0  0  0  0  0  0  0  0
   57.3200   33.7010   45.1010 C   0  0  0  0  0  0  0  0  0  0  0  0
   58.3740   33.8630   46.1640 C   0  0  0  0  0  0  0  0  0  0  0  0
   58.1440   33.3760   47.4640 C   0  0  0  0  0  0  0  0  0  0  0  0
   59.1360   33.4850   48.4440 C   0  0  0  0  0  0  0  0  0  0  0  0
   60.3630   34.0850   48.1360 C   0  0  0  0  0  0  0  0  0  0  0  0
   61.6100   34.2120   49.3620 Cl  0  0  0  0  0  0  0  0  0  0  0  0
   60.5930   34.5860   46.8460 C   0  0  0  0  0  0  0  0  0  0  0  0
   59.6070   34.4680   45.8640 C   0  0  0  0  0  0  0  0  0  0  0  0
   56.5710   27.9030   45.6140 C   0  0  0  0  0  0  0  0  0  0  0  0
   57.3430   26.9720   46.3150 C   0  0  0  0  0  0  0  0  0  0  0  0
   60.1020   26.8330   49.0800 N   0  0  0  0  0  0  0  0  0  0  0  0
   60.7900   27.2040   50.2880 C   0  0  0  0  0  0  0  0  0  0  0  0
   61.8680   26.4760   50.8340 C   0  0  0  0  0  0  0  0  0  0  0  0
   62.5520   26.9520   51.9680 C   0  0  0  0  0  0  0  0  0  0  0  0
   63.6740   26.1960   52.5490 C   0  0  0  0  0  0  0  0  0  0  0  0
   63.5030   24.9900   52.8730 O   0  0  0  0  0  0  0  0  0  0  0  0
   64.9030   26.8800   52.8330 N   0  0  0  0  0  0  0  0  0  0  0  0
   66.0660   27.1110   52.0160 C   0  0  0  0  0  0  0  0  0  0  0  0
   66.8180   28.2680   52.2910 C   0  0  0  0  0  0  0  0  0  0  0  0
   67.9430   28.5940   51.5290 C   0  0  0  0  0  0  0  0  0  0  0  0
   68.3360   27.7640   50.4810 C   0  0  0  0  0  0  0  0  0  0  0  0
   67.5870   26.6180   50.1780 C   0  0  0  0  0  0  0  0  0  0  0  0
   66.4320   26.3030   50.9130 C   0  0  0  0  0  0  0  0  0  0  0  0
   65.6510   25.2190   50.5160 O   0  0  0  0  0  0  0  0  0  0  0  0
   62.1650   28.1660   52.5500 C   0  0  0  0  0  0  0  0  0  0  0  0
   61.0890   28.8800   52.0330 C   0  0  0  0  0  0  0  0  0  0  0  0
   60.3950   28.4020   50.9180 C   0  0  0  0  0  0  0  0  0  0  0  0
   58.9980   29.3530   50.2990 S   0  0  0  0  0  0  0  0  0  0  0  0
   59.9460   30.0530   48.9490 C   0  0  0  0  0  0  0  0  0  0  0  0
   59.3780   30.1660   47.6760 C   0  0  0  0  0  0  0  0  0  0  0  0
   60.1220   30.7110   46.6260 C   0  0  0  0  0  0  0  0  0  0  0  0
   61.4330   31.1480   46.8460 C   0  0  0  0  0  0  0  0  0  0  0  0
   61.9980   31.0430   48.1170 C   0  0  0  0  0  0  0  0  0  0  0  0
   61.2590   30.4940   49.1680 C   0  0  0  0  0  0  0  0  0  0  0  0
   60.1097   25.2944   45.9708 H   0  0  0  0  0  0  0  0  0  0  0  0
   58.8449   25.1211   47.2575 H   0  0  0  0  0  0  0  0  0  0  0  0
   60.4313   27.8060   45.1029 H   0  0  0  0  0  0  0  0  0  0  0  0
   59.0546   29.4775   43.8691 H   0  0  0  0  0  0  0  0  0  0  0  0
   57.4732   34.4613   44.3209 H   0  0  0  0  0  0  0  0  0  0  0  0
   56.3289   33.8239   45.5621 H   0  0  0  0  0  0  0  0  0  0  0  0
   57.1798   32.9075   47.7106 H   0  0  0  0  0  0  0  0  0  0  0  0
   58.9520   33.0990   49.4575 H   0  0  0  0  0  0  0  0  0  0  0  0
   61.5506   35.0721   46.6078 H   0  0  0  0  0  0  0  0  0  0  0  0
   59.7962   34.8506   44.8502 H   0  0  0  0  0  0  0  0  0  0  0  0
   55.4824   27.9386   45.7680 H   0  0  0  0  0  0  0  0  0  0  0  0
   56.8587   26.2748   47.0145 H   0  0  0  0  0  0  0  0  0  0  0  0
   62.1766   25.5280   50.3693 H   0  0  0  0  0  0  0  0  0  0  0  0
   66.5155   28.9262   53.1188 H   0  0  0  0  0  0  0  0  0  0  0  0
   68.5174   29.5042   51.7561 H   0  0  0  0  0  0  0  0  0  0  0  0
   69.2326   28.0075   49.8922 H   0  0  0  0  0  0  0  0  0  0  0  0
   67.9068   25.9594   49.3570 H   0  0  0  0  0  0  0  0  0  0  0  0
   64.8610   24.9000   51.0640 H   0  0  0  0  0  0  0  0  0  0  0  0
   62.7143   28.5563   53.4195 H   0  0  0  0  0  0  0  0  0  0  0  0
   60.7828   29.8257   52.5041 H   0  0  0  0  0  0  0  0  0  0  0  0
   58.3465   29.8262   47.5013 H   0  0  0  0  0  0  0  0  0  0  0  0
   59.6760   30.7967   45.6242 H   0  0  0  0  0  0  0  0  0  0  0  0
   62.0176   31.5740   46.0173 H   0  0  0  0  0  0  0  0  0  0  0  0
   63.0262   31.3927   48.2920 H   0  0  0  0  0  0  0  0  0  0  0  0
   61.7077   30.4076   50.1686 H   0  0  0  0  0  0  0  0  0  0  0  0
  1  2  2  0
  2  3  1  0
  3  4  1  0
  4  5  2  0
  5  6  1  0
  6  7  2  0
  7  8  1  0
  8  9  2  0
  8 10  2  0
  8 11  1  0
 11 12  1  0
 12 13  2  0
 12 14  1  0
 14 15  1  0
 15 16  2  0
 16 17  1  0
 17 18  2  0
 18 19  1  0
 18 20  1  0
 20 21  2  0
  7 22  1  0
 22 23  2  0
  2 24  1  0
 24 25  1  0
 25 26  2  0
 26 27  1  0
 27 28  1  0
 28 29  2  0
 28 30  1  0
 30 31  1  0
 31 32  2  0
 32 33  1  0
 33 34  2  0
 34 35  1  0
 35 36  2  0
 36 37  1  0
 27 38  2  0
 38 39  1  0
 39 40  2  0
 40 41  1  0
 41 42  1  0
 42 43  2  0
 43 44  1  0
 44 45  2  0
 45 46  1  0
 46 47  2  0
 23  4  1  0
 40 25  1  0
 47 42  1  0
 21 15  1  0
 36 31  1  0
  3 48  1  0
  3 49  1  0
  5 50  1  0
  6 51  1  0
 14 52  1  0
 14 53  1  0
 16 54  1  0
 17 55  1  0
 20 56  1  0
 21 57  1  0
 22 58  1  0
 23 59  1  0
 26 60  1  0
 32 61  1  0
 33 62  1  0
 34 63  1  0
 35 64  1  0
 37 65  1  0
 38 66  1  0
 39 67  1  0
 43 68  1  0
 44 69  1  0
 45 70  1  0
 46 71  1  0
 47 72  1  0
M  CHG  3  11  -1  24  -1  30  -1
M  END
>  <UniqueID>  (76) 
70

>  <SMILES>  (76) 
O=C(Cc1ccc(S(=O)(=O)[N-]C(=O)Cc2ccc(Cl)cc2)cc1)[N-]c1cc(C(=O)[N-]c2ccccc2O)ccc1Sc1ccccc1

>  <Energy>  (76) 
95.17065491145175

>  <Genealogy>  (76) 
O=C(Cc1ccc(S(=O)(=O)[N-]C(=O)Cc2ccc(Cl)cc2)cc1)[N-]c1cc(C(=O)[N-]c2ccccc2O)ccc1Sc1ccccc1 (protonated)
O=C(Cc1ccc(S(=O)(=O)[N-]C(=O)Cc2ccc(Cl)cc2)cc1)[N-]c1cc(C(=O)[N-]c2ccccc2O)ccc1Sc1ccccc1 (3D coordinates assigned)
O=C(Cc1ccc(S(=O)(=O)[N-]C(=O)Cc2ccc(Cl)cc2)cc1)[N-]c1cc(C(=O)[N-]c2ccccc2O)ccc1Sc1ccccc1 (optimized conformer: 95.17065491145175 kcal/mol)

>  <smiles>  (76) 
O=C(Cc1ccc(S(=O)(=O)NC(=O)Cc2ccc(Cl)cc2)cc1)Nc1cc(C(=O)Nc2ccccc2O)ccc1Sc1ccccc1

>  <score_type>  (76) 
oracle

>  <origin>  (76) 
adg

>  <m_score__min__energy>  (76) 
-15.09

>  <m_primary>  (76) 
energy

$$$$
76:0
     RDKit          3D

 61 64  0  0  0  0  0  0  0  0999 V2000
   55.1330   29.3390   44.8520 O   0  0  0  0  0  0  0  0  0  0  0  0
   56.3620   29.2640   44.5780 C   0  0  0  0  0  0  0  0  0  0  0  0
   56.9340   30.1060   43.4860 C   0  0  0  0  0  0  0  0  0  0  0  0
   57.2700   31.4190   44.0250 N   0  0  0  0  0  0  0  0  0  0  0  0
   58.1330   32.2970   43.4810 C   0  0  0  0  0  0  0  0  0  0  0  0
   58.2830   33.3540   44.3530 C   0  0  0  0  0  0  0  0  0  0  0  0
   57.4750   33.0390   45.4290 C   0  0  0  0  0  0  0  0  0  0  0  0
   56.8760   31.8510   45.2120 N   0  0  0  0  0  0  0  0  0  0  0  0
   57.1940   28.3000   45.2290 N   0  0  0  0  0  0  0  0  0  0  0  0
   58.6450   28.4120   45.2770 C   0  0  0  0  0  0  0  0  0  0  0  0
   59.0700   28.8560   46.6510 C   0  0  0  0  0  0  0  0  0  0  0  0
   59.0510   30.2210   46.9820 C   0  0  0  0  0  0  0  0  0  0  0  0
   59.5080   30.6530   48.2290 C   0  0  0  0  0  0  0  0  0  0  0  0
   60.0010   29.7270   49.1610 C   0  0  0  0  0  0  0  0  0  0  0  0
   60.4650   30.1860   50.5180 C   0  0  0  0  0  0  0  0  0  0  0  0
   59.2670   30.3970   51.4550 C   0  0  0  0  0  0  0  0  0  0  0  0
   59.5640   31.3720   52.5330 N   0  0  0  0  0  0  0  0  0  0  0  0
   60.9980   31.7680   52.5320 C   0  0  0  0  0  0  0  0  0  0  0  0
   61.2830   33.0880   51.7820 C   0  0  0  0  0  0  0  0  0  0  0  0
   60.2310   33.3680   50.7990 N   0  0  0  0  0  0  0  0  0  0  0  0
   60.5460   33.6230   49.4170 C   0  0  0  0  0  0  0  0  0  0  0  0
   59.6060   34.2410   48.5750 C   0  0  0  0  0  0  0  0  0  0  0  0
   59.9160   34.4910   47.2360 C   0  0  0  0  0  0  0  0  0  0  0  0
   61.1680   34.1420   46.7280 C   0  0  0  0  0  0  0  0  0  0  0  0
   62.1360   33.5570   47.5610 C   0  0  0  0  0  0  0  0  0  0  0  0
   63.4740   33.1420   47.0020 C   0  0  0  0  0  0  0  0  0  0  0  0
   63.5080   31.7770   46.7770 F   0  0  0  0  0  0  0  0  0  0  0  0
   63.6930   33.8020   45.8060 F   0  0  0  0  0  0  0  0  0  0  0  0
   64.4930   33.4600   47.8840 F   0  0  0  0  0  0  0  0  0  0  0  0
   61.8090   33.2830   48.9010 C   0  0  0  0  0  0  0  0  0  0  0  0
   58.8370   33.3950   51.2550 C   0  0  0  0  0  0  0  0  0  0  0  0
   58.6750   32.5570   52.5350 C   0  0  0  0  0  0  0  0  0  0  0  0
   60.0060   28.3600   48.8370 C   0  0  0  0  0  0  0  0  0  0  0  0
   59.5510   27.9290   47.5880 C   0  0  0  0  0  0  0  0  0  0  0  0
   57.8411   29.6276   43.0881 H   0  0  0  0  0  0  0  0  0  0  0  0
   56.1978   30.2142   42.6759 H   0  0  0  0  0  0  0  0  0  0  0  0
   58.6331   32.1895   42.5071 H   0  0  0  0  0  0  0  0  0  0  0  0
   58.9076   34.2499   44.2215 H   0  0  0  0  0  0  0  0  0  0  0  0
   57.3411   33.6623   46.3254 H   0  0  0  0  0  0  0  0  0  0  0  0
   59.0957   27.4341   45.0522 H   0  0  0  0  0  0  0  0  0  0  0  0
   58.9800   29.1504   44.5337 H   0  0  0  0  0  0  0  0  0  0  0  0
   58.6737   30.9545   46.2542 H   0  0  0  0  0  0  0  0  0  0  0  0
   59.4814   31.7233   48.4816 H   0  0  0  0  0  0  0  0  0  0  0  0
   61.1315   29.4244   50.9490 H   0  0  0  0  0  0  0  0  0  0  0  0
   61.0005   31.1403   50.4060 H   0  0  0  0  0  0  0  0  0  0  0  0
   58.4168   30.7695   50.8647 H   0  0  0  0  0  0  0  0  0  0  0  0
   59.0336   29.4315   51.9276 H   0  0  0  0  0  0  0  0  0  0  0  0
   61.3256   31.8850   53.5755 H   0  0  0  0  0  0  0  0  0  0  0  0
   61.5474   30.9754   52.0029 H   0  0  0  0  0  0  0  0  0  0  0  0
   61.3263   33.9130   52.5083 H   0  0  0  0  0  0  0  0  0  0  0  0
   62.2425   32.9919   51.2528 H   0  0  0  0  0  0  0  0  0  0  0  0
   58.6215   34.5293   48.9721 H   0  0  0  0  0  0  0  0  0  0  0  0
   59.1708   34.9645   46.5799 H   0  0  0  0  0  0  0  0  0  0  0  0
   61.3984   34.3262   45.6683 H   0  0  0  0  0  0  0  0  0  0  0  0
   62.5498   32.7971   49.5530 H   0  0  0  0  0  0  0  0  0  0  0  0
   58.5438   34.4346   51.4629 H   0  0  0  0  0  0  0  0  0  0  0  0
   58.1959   32.9716   50.4678 H   0  0  0  0  0  0  0  0  0  0  0  0
   58.9199   33.1844   53.4047 H   0  0  0  0  0  0  0  0  0  0  0  0
   57.6344   32.2037   52.5829 H   0  0  0  0  0  0  0  0  0  0  0  0
   60.3699   27.6252   49.5702 H   0  0  0  0  0  0  0  0  0  0  0  0
   59.5700   26.8579   47.3382 H   0  0  0  0  0  0  0  0  0  0  0  0
  1  2  2  0
  2  3  1  0
  3  4  1  0
  4  5  1  0
  5  6  2  0
  6  7  1  0
  7  8  2  0
  2  9  1  0
  9 10  1  0
 10 11  1  0
 11 12  2  0
 12 13  1  0
 13 14  2  0
 14 15  1  0
 15 16  1  0
 16 17  1  0
 17 18  1  0
 18 19  1  0
 19 20  1  0
 20 21  1  0
 21 22  2  0
 22 23  1  0
 23 24  2  0
 24 25  1  0
 25 26  1  0
 26 27  1  0
 26 28  1  0
 26 29  1  0
 25 30  2  0
 20 31  1  0
 31 32  1  0
 14 33  1  0
 33 34  2  0
  8  4  1  0
 34 11  1  0
 32 17  1  0
 30 21  1  0
  3 35  1  0
  3 36  1  0
  5 37  1  0
  6 38  1  0
  7 39  1  0
 10 40  1  0
 10 41  1  0
 12 42  1  0
 13 43  1  0
 15 44  1  0
 15 45  1  0
 16 46  1  0
 16 47  1  0
 18 48  1  0
 18 49  1  0
 19 50  1  0
 19 51  1  0
 22 52  1  0
 23 53  1  0
 24 54  1  0
 30 55  1  0
 31 56  1  0
 31 57  1  0
 32 58  1  0
 32 59  1  0
 33 60  1  0
 34 61  1  0
M  CHG  1   9  -1
M  END
>  <UniqueID>  (77) 
71

>  <SMILES>  (77) 
O=C(Cn1cccn1)[N-]Cc1ccc(CCN2CCN(c3cccc(C(F)(F)F)c3)CC2)cc1

>  <Energy>  (77) 
99.55544722052353

>  <Genealogy>  (77) 
O=C(Cn1cccn1)[N-]Cc1ccc(CCN2CCN(c3cccc(C(F)(F)F)c3)CC2)cc1 (protonated)
O=C(Cn1cccn1)[N-]Cc1ccc(CCN2CCN(c3cccc(C(F)(F)F)c3)CC2)cc1 (3D coordinates assigned)
O=C(Cn1cccn1)[N-]Cc1ccc(CCN2CCN(c3cccc(C(F)(F)F)c3)CC2)cc1 (nonaromatic ring conformer: 99.55544722052353 kcal/mol)

>  <smiles>  (77) 
O=C(Cn1cccn1)NCc1ccc(CCN2CCN(c3cccc(C(F)(F)F)c3)CC2)cc1

>  <score_type>  (77) 
oracle

>  <origin>  (77) 
adg

>  <m_score__min__energy>  (77) 
-11.210000000000001

>  <m_primary>  (77) 
energy

$$$$
77:0
     RDKit          3D

 47 50  0  0  0  0  0  0  0  0999 V2000
   61.6220   34.0140   49.0600 C   0  0  0  0  0  0  0  0  0  0  0  0
   60.4210   34.6340   48.7040 O   0  0  0  0  0  0  0  0  0  0  0  0
   59.6340   34.2400   47.6340 C   0  0  0  0  0  0  0  0  0  0  0  0
   58.5060   33.4670   47.7520 C   0  0  0  0  0  0  0  0  0  0  0  0
   57.7580   33.1030   46.6350 C   0  0  0  0  0  0  0  0  0  0  0  0
   58.1330   33.5120   45.3790 C   0  0  0  0  0  0  0  0  0  0  0  0
   57.4710   33.2130   44.2110 O   0  0  0  0  0  0  0  0  0  0  0  0
   57.4120   31.9620   43.6090 C   0  0  0  0  0  0  0  0  0  0  0  0
   57.5680   30.7950   44.4810 C   0  0  0  0  0  0  0  0  0  0  0  0
   56.5090   30.2000   44.8570 O   0  0  0  0  0  0  0  0  0  0  0  0
   58.7890   30.2590   44.9470 N   0  0  0  0  0  0  0  0  0  0  0  0
   58.8650   29.1120   45.8060 C   0  0  0  0  0  0  0  0  0  0  0  0
   59.2460   29.2000   47.1270 C   0  0  0  0  0  0  0  0  0  0  0  0
   59.2870   28.0170   47.8730 C   0  0  0  0  0  0  0  0  0  0  0  0
   58.9520   26.7940   47.2990 C   0  0  0  0  0  0  0  0  0  0  0  0
   58.5710   26.7180   45.9720 C   0  0  0  0  0  0  0  0  0  0  0  0
   58.2110   25.4620   45.3210 C   0  0  0  0  0  0  0  0  0  0  0  0
   58.6750   24.2380   45.6030 N   0  0  0  0  0  0  0  0  0  0  0  0
   58.1140   23.3030   44.7900 C   0  0  0  0  0  0  0  0  0  0  0  0
   58.2490   21.9260   44.6730 C   0  0  0  0  0  0  0  0  0  0  0  0
   57.4880   21.3000   43.6950 C   0  0  0  0  0  0  0  0  0  0  0  0
   56.6310   21.9900   42.8680 C   0  0  0  0  0  0  0  0  0  0  0  0
   56.5050   23.3570   42.9940 C   0  0  0  0  0  0  0  0  0  0  0  0
   57.2480   24.0170   43.9580 C   0  0  0  0  0  0  0  0  0  0  0  0
   57.3220   25.3200   44.2960 N   0  0  0  0  0  0  0  0  0  0  0  0
   58.5370   27.8920   45.2500 C   0  0  0  0  0  0  0  0  0  0  0  0
   59.2790   34.2960   45.2660 C   0  0  0  0  0  0  0  0  0  0  0  0
   60.0270   34.6610   46.3740 C   0  0  0  0  0  0  0  0  0  0  0  0
   61.7023   33.9725   50.1563 H   0  0  0  0  0  0  0  0  0  0  0  0
   61.6424   32.9927   48.6520 H   0  0  0  0  0  0  0  0  0  0  0  0
   62.4664   34.5888   48.6520 H   0  0  0  0  0  0  0  0  0  0  0  0
   58.1864   33.1283   48.7486 H   0  0  0  0  0  0  0  0  0  0  0  0
   56.8586   32.4822   46.7601 H   0  0  0  0  0  0  0  0  0  0  0  0
   56.4331   31.8779   43.1144 H   0  0  0  0  0  0  0  0  0  0  0  0
   58.2786   31.9301   42.9322 H   0  0  0  0  0  0  0  0  0  0  0  0
   59.7010   30.6730   44.6700 H   0  0  0  0  0  0  0  0  0  0  0  0
   59.5090   30.1673   47.5798 H   0  0  0  0  0  0  0  0  0  0  0  0
   59.5888   28.0541   48.9301 H   0  0  0  0  0  0  0  0  0  0  0  0
   58.9908   25.8784   47.9074 H   0  0  0  0  0  0  0  0  0  0  0  0
   58.9279   21.3572   45.3254 H   0  0  0  0  0  0  0  0  0  0  0  0
   57.5733   20.2097   43.5764 H   0  0  0  0  0  0  0  0  0  0  0  0
   56.0472   21.4512   42.1072 H   0  0  0  0  0  0  0  0  0  0  0  0
   55.8228   23.9163   42.3370 H   0  0  0  0  0  0  0  0  0  0  0  0
   56.7740   26.0750   43.8290 H   0  0  0  0  0  0  0  0  0  0  0  0
   58.2375   27.8551   44.1922 H   0  0  0  0  0  0  0  0  0  0  0  0
   59.5990   34.6347   44.2696 H   0  0  0  0  0  0  0  0  0  0  0  0
   60.9274   35.2813   46.2538 H   0  0  0  0  0  0  0  0  0  0  0  0
  1  2  1  0
  2  3  1  0
  3  4  2  0
  4  5  1  0
  5  6  2  0
  6  7  1  0
  7  8  1  0
  8  9  1  0
  9 10  2  0
  9 11  1  0
 11 12  1  0
 12 13  2  0
 13 14  1  0
 14 15  2  0
 15 16  1  0
 16 17  1  0
 17 18  2  0
 18 19  1  0
 19 20  2  0
 20 21  1  0
 21 22  2  0
 22 23  1  0
 23 24  2  0
 24 25  1  0
 16 26  2  0
  6 27  1  0
 27 28  2  0
 28  3  1  0
 26 12  1  0
 25 17  1  0
 24 19  1  0
  1 29  1  0
  1 30  1  0
  1 31  1  0
  4 32  1  0
  5 33  1  0
  8 34  1  0
  8 35  1  0
 11 36  1  0
 13 37  1  0
 14 38  1  0
 15 39  1  0
 20 40  1  0
 21 41  1  0
 22 42  1  0
 23 43  1  0
 25 44  1  0
 26 45  1  0
 27 46  1  0
 28 47  1  0
M  END
>  <smiles>  (78) 
COc1ccc(OCC(=O)Nc2cccc(-c3nc4ccccc4[nH]3)c2)cc1

>  <score_type>  (78) 
oracle

>  <origin>  (78) 
adg

>  <m_score__min__energy>  (78) 
-8.5199999999999996

>  <m_primary>  (78) 
energy

$$$$
78:0
     RDKit          3D

 59 63  0  0  0  0  0  0  0  0999 V2000
   55.6960   25.4260   46.5050 O   0  0  0  0  0  0  0  0  0  0  0  0
   56.8090   25.9840   46.3260 C   0  0  0  0  0  0  0  0  0  0  0  0
   57.8210   25.8590   47.3330 N   0  0  0  0  0  0  0  0  0  0  0  0
   58.6520   26.9240   47.8180 C   0  0  0  0  0  0  0  0  0  0  0  0
   59.9720   26.6960   48.2520 C   0  0  0  0  0  0  0  0  0  0  0  0
   60.7560   27.7560   48.7260 C   0  0  0  0  0  0  0  0  0  0  0  0
   60.2360   29.0650   48.7530 C   0  0  0  0  0  0  0  0  0  0  0  0
   60.9670   30.1600   49.2430 O   0  0  0  0  0  0  0  0  0  0  0  0
   61.0160   30.5740   50.6090 C   0  0  0  0  0  0  0  0  0  0  0  0
   59.6680   31.0440   51.0760 C   0  0  0  0  0  0  0  0  0  0  0  0
   59.4170   32.4110   51.2770 C   0  0  0  0  0  0  0  0  0  0  0  0
   58.1450   32.8220   51.6810 C   0  0  0  0  0  0  0  0  0  0  0  0
   57.1340   31.8720   51.8680 C   0  0  0  0  0  0  0  0  0  0  0  0
   57.4200   30.5200   51.6570 C   0  0  0  0  0  0  0  0  0  0  0  0
   58.6690   30.1390   51.2680 N   0  0  0  0  0  0  0  0  0  0  0  0
   58.9360   29.2930   48.2760 C   0  0  0  0  0  0  0  0  0  0  0  0
   58.1510   28.2320   47.8090 C   0  0  0  0  0  0  0  0  0  0  0  0
   57.0980   26.6490   45.0920 N   0  0  0  0  0  0  0  0  0  0  0  0
   57.4090   28.0370   44.9020 C   0  0  0  0  0  0  0  0  0  0  0  0
   58.7280   28.4980   44.7270 C   0  0  0  0  0  0  0  0  0  0  0  0
   58.9710   29.8510   44.4720 C   0  0  0  0  0  0  0  0  0  0  0  0
   57.9020   30.7550   44.3500 C   0  0  0  0  0  0  0  0  0  0  0  0
   58.1060   32.1140   44.0670 O   0  0  0  0  0  0  0  0  0  0  0  0
   58.6340   33.0750   44.9460 C   0  0  0  0  0  0  0  0  0  0  0  0
   58.7380   34.3940   44.4980 C   0  0  0  0  0  0  0  0  0  0  0  0
   59.2860   35.3660   45.3330 C   0  0  0  0  0  0  0  0  0  0  0  0
   59.7100   35.0300   46.5790 N   0  0  0  0  0  0  0  0  0  0  0  0
   59.6250   33.7600   47.0640 C   0  0  0  0  0  0  0  0  0  0  0  0
   60.0570   33.5280   48.2740 N   0  0  0  0  0  0  0  0  0  0  0  0
   61.4160   33.4070   48.7260 C   0  0  0  0  0  0  0  0  0  0  0  0
   61.8110   34.0050   49.7620 O   0  0  0  0  0  0  0  0  0  0  0  0
   62.4030   32.6710   47.8740 C   0  0  0  0  0  0  0  0  0  0  0  0
   63.8310   33.1860   48.0140 C   0  0  0  0  0  0  0  0  0  0  0  0
   63.0390   33.4790   46.7500 C   0  0  0  0  0  0  0  0  0  0  0  0
   59.1060   32.7460   46.2320 C   0  0  0  0  0  0  0  0  0  0  0  0
   56.5930   30.2990   44.5520 C   0  0  0  0  0  0  0  0  0  0  0  0
   55.5520   31.1640   44.4720 F   0  0  0  0  0  0  0  0  0  0  0  0
   56.3490   28.9480   44.8130 C   0  0  0  0  0  0  0  0  0  0  0  0
   60.3903   25.6792   48.2187 H   0  0  0  0  0  0  0  0  0  0  0  0
   61.7806   27.5656   49.0781 H   0  0  0  0  0  0  0  0  0  0  0  0
   61.3368   29.7254   51.2311 H   0  0  0  0  0  0  0  0  0  0  0  0
   61.7286   31.4072   50.6981 H   0  0  0  0  0  0  0  0  0  0  0  0
   60.2150   33.1512   51.1177 H   0  0  0  0  0  0  0  0  0  0  0  0
   57.9382   33.8888   51.8517 H   0  0  0  0  0  0  0  0  0  0  0  0
   56.1261   32.1857   52.1774 H   0  0  0  0  0  0  0  0  0  0  0  0
   56.6359   29.7629   51.8052 H   0  0  0  0  0  0  0  0  0  0  0  0
   58.5299   30.3153   48.2690 H   0  0  0  0  0  0  0  0  0  0  0  0
   57.1357   28.4265   47.4331 H   0  0  0  0  0  0  0  0  0  0  0  0
   59.5691   27.7920   44.7911 H   0  0  0  0  0  0  0  0  0  0  0  0
   60.0053   30.2101   44.3662 H   0  0  0  0  0  0  0  0  0  0  0  0
   58.3889   34.6643   43.4905 H   0  0  0  0  0  0  0  0  0  0  0  0
   59.3752   36.4051   44.9831 H   0  0  0  0  0  0  0  0  0  0  0  0
   61.9030   31.6928   47.9294 H   0  0  0  0  0  0  0  0  0  0  0  0
   64.0561   33.9970   48.7222 H   0  0  0  0  0  0  0  0  0  0  0  0
   64.8059   32.7253   48.2314 H   0  0  0  0  0  0  0  0  0  0  0  0
   62.6915   34.5021   46.5438 H   0  0  0  0  0  0  0  0  0  0  0  0
   63.2043   33.3179   45.6745 H   0  0  0  0  0  0  0  0  0  0  0  0
   59.0700   31.7048   46.5851 H   0  0  0  0  0  0  0  0  0  0  0  0
   55.3155   28.5971   44.9497 H   0  0  0  0  0  0  0  0  0  0  0  0
  1  2  2  0
  2  3  1  0
  3  4  1  0
  4  5  2  0
  5  6  1  0
  6  7  2  0
  7  8  1  0
  8  9  1  0
  9 10  1  0
 10 11  2  0
 11 12  1  0
 12 13  2  0
 13 14  1  0
 14 15  2  0
  7 16  1  0
 16 17  2  0
  2 18  1  0
 18 19  1  0
 19 20  2  0
 20 21  1  0
 21 22  2  0
 22 23  1  0
 23 24  1  0
 24 25  1  0
 25 26  2  0
 26 27  1  0
 27 28  1  0
 28 29  2  3
 29 30  1  0
 30 31  2  0
 30 32  1  0
 32 33  1  0
 33 34  1  0
 28 35  1  0
 22 36  1  0
 36 37  1  0
 36 38  2  0
 17  4  1  0
 38 19  1  0
 15 10  1  0
 35 24  2  0
 34 32  1  0
  5 39  1  0
  6 40  1  0
  9 41  1  0
  9 42  1  0
 11 43  1  0
 12 44  1  0
 13 45  1  0
 14 46  1  0
 16 47  1  0
 17 48  1  0
 20 49  1  0
 21 50  1  0
 25 51  1  0
 26 52  1  0
 32 53  1  0
 33 54  1  0
 33 55  1  0
 34 56  1  0
 34 57  1  0
 35 58  1  0
 38 59  1  0
M  CHG  3   3  -1  18  -1  27  -1
M  END
>  <UniqueID>  (79) 
72

>  <SMILES>  (79) 
O=C([N-]c1ccc(OCc2ccccn2)cc1)[N-]c1ccc(Oc2cc[n-]c(=NC(=O)C3CC3)c2)c(F)c1

>  <Energy>  (79) 
349.7173643554291

>  <Genealogy>  (79) 
O=C([N-]c1ccc(OCc2ccccn2)cc1)[N-]c1ccc(Oc2cc[n-]c(=NC(=O)C3CC3)c2)c(F)c1 (protonated)
O=C([N-]c1ccc(OCc2ccccn2)cc1)[N-]c1ccc(Oc2cc[n-]c(=NC(=O)C3CC3)c2)c(F)c1 (3D coordinates assigned)
O=C([N-]c1ccc(OCc2ccccn2)cc1)[N-]c1ccc(Oc2cc[n-]c(=NC(=O)C3CC3)c2)c(F)c1 (nonaromatic ring conformer: 349.7173643554291 kcal/mol)

>  <smiles>  (79) 
O=C(Nc1ccc(OCc2ccccn2)cc1)Nc1ccc(Oc2cc[nH]c(=NC(=O)C3CC3)c2)c(F)c1

>  <score_type>  (79) 
oracle

>  <origin>  (79) 
adg

>  <m_score__min__energy>  (79) 
-12.32

>  <m_primary>  (79) 
energy

$$$$
79:0
     RDKit          3D

 52 55  0  0  0  0  0  0  0  0999 V2000
   58.5190   32.0340   42.1310 O   0  0  0  0  0  0  0  0  0  0  0  0
   57.8810   32.1060   43.2150 C   0  0  0  0  0  0  0  0  0  0  0  0
   57.7060   33.3950   43.8210 N   0  0  0  0  0  0  0  0  0  0  0  0
   58.2520   33.8220   45.0780 C   0  0  0  0  0  0  0  0  0  0  0  0
   59.4050   34.6270   45.1500 C   0  0  0  0  0  0  0  0  0  0  0  0
   59.9190   35.0080   46.3930 C   0  0  0  0  0  0  0  0  0  0  0  0
   59.2970   34.5790   47.5690 C   0  0  0  0  0  0  0  0  0  0  0  0
   58.1660   33.7610   47.5040 C   0  0  0  0  0  0  0  0  0  0  0  0
   57.6490   33.3790   46.2630 C   0  0  0  0  0  0  0  0  0  0  0  0
   57.3840   30.8630   43.8490 C   0  0  0  0  0  0  0  0  0  0  0  0
   55.9940   30.5670   43.8720 C   0  0  0  0  0  0  0  0  0  0  0  0
   55.5180   29.3950   44.4820 C   0  0  0  0  0  0  0  0  0  0  0  0
   56.4490   28.5410   45.0650 C   0  0  0  0  0  0  0  0  0  0  0  0
   56.2850   27.3570   45.7470 C   0  0  0  0  0  0  0  0  0  0  0  0
   55.0880   26.7030   46.0130 O   0  0  0  0  0  0  0  0  0  0  0  0
   57.5520   26.9570   46.1310 C   0  0  0  0  0  0  0  0  0  0  0  0
   57.8410   25.8140   46.8670 O   0  0  0  0  0  0  0  0  0  0  0  0
   58.4840   27.8410   45.7010 N   0  0  0  0  0  0  0  0  0  0  0  0
   59.9220   27.7950   45.9760 C   0  0  0  0  0  0  0  0  0  0  0  0
   60.1650   27.4600   47.4520 C   0  0  0  0  0  0  0  0  0  0  0  0
   60.7500   28.6500   48.2140 C   0  0  0  0  0  0  0  0  0  0  0  0
   59.7710   29.1560   49.1760 N   0  0  0  0  0  0  0  0  0  0  0  0
   59.2830   30.7620   48.7310 S   0  0  0  0  0  0  0  0  0  0  0  0
   58.4060   31.3390   49.8100 O   0  0  0  0  0  0  0  0  0  0  0  0
   58.5020   30.7060   47.4490 O   0  0  0  0  0  0  0  0  0  0  0  0
   60.7100   31.7670   48.4940 C   0  0  0  0  0  0  0  0  0  0  0  0
   61.3930   31.7670   47.2680 C   0  0  0  0  0  0  0  0  0  0  0  0
   62.5120   32.5880   47.0910 C   0  0  0  0  0  0  0  0  0  0  0  0
   62.9530   33.4100   48.1340 C   0  0  0  0  0  0  0  0  0  0  0  0
   64.0360   34.2050   47.9600 F   0  0  0  0  0  0  0  0  0  0  0  0
   62.2740   33.4110   49.3570 C   0  0  0  0  0  0  0  0  0  0  0  0
   61.1550   32.5920   49.5360 C   0  0  0  0  0  0  0  0  0  0  0  0
   57.7950   28.8150   45.0600 C   0  0  0  0  0  0  0  0  0  0  0  0
   58.2960   29.9770   44.4660 C   0  0  0  0  0  0  0  0  0  0  0  0
   59.9025   34.9569   44.2260 H   0  0  0  0  0  0  0  0  0  0  0  0
   60.8136   35.6459   46.4456 H   0  0  0  0  0  0  0  0  0  0  0  0
   59.6982   34.8856   48.5463 H   0  0  0  0  0  0  0  0  0  0  0  0
   57.6822   33.4175   48.4302 H   0  0  0  0  0  0  0  0  0  0  0  0
   56.7641   32.7272   46.2161 H   0  0  0  0  0  0  0  0  0  0  0  0
   55.2823   31.2645   43.4063 H   0  0  0  0  0  0  0  0  0  0  0  0
   54.4436   29.1597   44.4984 H   0  0  0  0  0  0  0  0  0  0  0  0
   60.3885   27.0233   45.3461 H   0  0  0  0  0  0  0  0  0  0  0  0
   60.3632   28.7775   45.7522 H   0  0  0  0  0  0  0  0  0  0  0  0
   59.2086   27.1757   47.9150 H   0  0  0  0  0  0  0  0  0  0  0  0
   60.8884   26.6328   47.5010 H   0  0  0  0  0  0  0  0  0  0  0  0
   61.6559   28.3302   48.7497 H   0  0  0  0  0  0  0  0  0  0  0  0
   61.0019   29.4482   47.5003 H   0  0  0  0  0  0  0  0  0  0  0  0
   61.0487   31.1217   46.4464 H   0  0  0  0  0  0  0  0  0  0  0  0
   63.0464   32.5873   46.1295 H   0  0  0  0  0  0  0  0  0  0  0  0
   62.6204   34.0561   50.1779 H   0  0  0  0  0  0  0  0  0  0  0  0
   60.6219   32.5952   50.4982 H   0  0  0  0  0  0  0  0  0  0  0  0
   59.3738   30.1964   44.4785 H   0  0  0  0  0  0  0  0  0  0  0  0
  1  2  2  0
  2  3  1  0
  3  4  1  0
  4  5  2  0
  5  6  1  0
  6  7  2  0
  7  8  1  0
  8  9  2  0
  2 10  1  0
 10 11  2  0
 11 12  1  0
 12 13  2  0
 13 14  1  0
 14 15  1  0
 14 16  2  0
 16 17  1  0
 16 18  1  0
 18 19  1  0
 19 20  1  0
 20 21  1  0
 21 22  1  0
 22 23  1  0
 23 24  2  0
 23 25  2  0
 23 26  1  0
 26 27  2  0
 27 28  1  0
 28 29  2  0
 29 30  1  0
 29 31  1  0
 31 32  2  0
 18 33  1  0
 33 34  2  0
  9  4  1  0
 34 10  1  0
 33 13  1  0
 32 26  1  0
  5 35  1  0
  6 36  1  0
  7 37  1  0
  8 38  1  0
  9 39  1  0
 11 40  1  0
 12 41  1  0
 19 42  1  0
 19 43  1  0
 20 44  1  0
 20 45  1  0
 21 46  1  0
 21 47  1  0
 27 48  1  0
 28 49  1  0
 31 50  1  0
 32 51  1  0
 34 52  1  0
M  CHG  4   3  -1  15  -1  17  -1  22  -1
M  END
>  <UniqueID>  (80) 
73

>  <SMILES>  (80) 
O=C([N-]c1ccccc1)c1ccc2c([O-])c([O-])n(CCC[N-]S(=O)(=O)c3ccc(F)cc3)c2c1

>  <Energy>  (80) 
93.45639423888598

>  <Genealogy>  (80) 
O=C([N-]c1ccccc1)c1ccc2c([O-])c([O-])n(CCC[N-]S(=O)(=O)c3ccc(F)cc3)c2c1 (protonated)
O=C([N-]c1ccccc1)c1ccc2c([O-])c([O-])n(CCC[N-]S(=O)(=O)c3ccc(F)cc3)c2c1 (3D coordinates assigned)
O=C([N-]c1ccccc1)c1ccc2c([O-])c([O-])n(CCC[N-]S(=O)(=O)c3ccc(F)cc3)c2c1 (optimized conformer: 93.45639423888598 kcal/mol)

>  <smiles>  (80) 
O=C(Nc1ccccc1)c1ccc2c(O)c(O)n(CCCNS(=O)(=O)c3ccc(F)cc3)c2c1

>  <score_type>  (80) 
oracle

>  <origin>  (80) 
adg

>  <m_score__min__energy>  (80) 
-16.02

>  <m_primary>  (80) 
energy

$$$$
80:0
     RDKit          3D

 63 67  0  0  0  0  0  0  0  0999 V2000
   62.3710   30.2183   47.3143 H   0  0  0  0  0  0  0  0  0  0  0  0
   61.4750   30.8420   47.4490 C   0  0  0  0  0  0  0  0  0  0  0  0
   60.7040   31.1620   46.3660 N   0  0  0  0  0  0  0  0  0  0  0  0
   59.6090   31.9410   46.5470 C   0  0  0  0  0  0  0  0  0  0  0  0
   59.2450   32.4140   47.7750 C   0  0  0  0  0  0  0  0  0  0  0  0
   58.0900   33.1450   47.6020 C   0  0  0  0  0  0  0  0  0  0  0  0
   57.5132   33.6764   48.3733 H   0  0  0  0  0  0  0  0  0  0  0  0
   57.8100   33.0660   46.2390 C   0  0  0  0  0  0  0  0  0  0  0  0
   56.9470   33.5420   45.7504 H   0  0  0  0  0  0  0  0  0  0  0  0
   58.7440   32.3240   45.5970 N   0  0  0  0  0  0  0  0  0  0  0  0
   58.7750   32.0920   44.5790 H   0  0  0  0  0  0  0  0  0  0  0  0
   59.9900   32.1220   48.9150 C   0  0  0  0  0  0  0  0  0  0  0  0
   59.5540   32.5840   50.1660 O   0  0  0  0  0  0  0  0  0  0  0  0
   58.5260   32.0320   50.9430 C   0  0  0  0  0  0  0  0  0  0  0  0
   58.1420   30.6830   50.8320 C   0  0  0  0  0  0  0  0  0  0  0  0
   58.6424   30.0294   50.1023 H   0  0  0  0  0  0  0  0  0  0  0  0
   57.1260   30.1690   51.6460 C   0  0  0  0  0  0  0  0  0  0  0  0
   56.8161   29.1191   51.5377 H   0  0  0  0  0  0  0  0  0  0  0  0
   56.5000   30.9880   52.6010 C   0  0  0  0  0  0  0  0  0  0  0  0
   55.4260   30.5040   53.4250 N   0  0  0  0  0  0  0  0  0  0  0  0
   54.6830   31.1810   53.7140 H   0  0  0  0  0  0  0  0  0  0  0  0
   55.3570   29.1780   53.9750 C   0  0  0  0  0  0  0  0  0  0  0  0
   56.3970   28.4760   54.0740 O   0  0  0  0  0  0  0  0  0  0  0  0
   54.1320   28.6850   54.5330 N   0  0  0  0  0  0  0  0  0  0  0  0
   53.2350   27.9850   53.9000 C   0  0  0  0  0  0  0  0  0  0  0  0
   53.2710   26.6210   53.6600 C   0  0  0  0  0  0  0  0  0  0  0  0
   54.0816   25.9135   53.8888 H   0  0  0  0  0  0  0  0  0  0  0  0
   52.0470   26.3550   53.0640 C   0  0  0  0  0  0  0  0  0  0  0  0
   51.5690   24.9970   52.5810 C   0  0  0  0  0  0  0  0  0  0  0  0
   50.6820   25.1850   51.3350 C   0  0  0  0  0  0  0  0  0  0  0  0
   49.6506   25.4036   51.6487 H   0  0  0  0  0  0  0  0  0  0  0  0
   51.0673   26.0214   50.7334 H   0  0  0  0  0  0  0  0  0  0  0  0
   50.6949   24.2642   50.7334 H   0  0  0  0  0  0  0  0  0  0  0  0
   50.7460   24.2890   53.6790 C   0  0  0  0  0  0  0  0  0  0  0  0
   51.1096   24.6018   54.6689 H   0  0  0  0  0  0  0  0  0  0  0  0
   49.6853   24.5613   53.5752 H   0  0  0  0  0  0  0  0  0  0  0  0
   50.8568   23.1995   53.5752 H   0  0  0  0  0  0  0  0  0  0  0  0
   52.7840   24.1190   52.2240 C   0  0  0  0  0  0  0  0  0  0  0  0
   53.2678   23.7694   53.1479 H   0  0  0  0  0  0  0  0  0  0  0  0
   52.4497   23.2525   51.6346 H   0  0  0  0  0  0  0  0  0  0  0  0
   53.5018   24.7084   51.6346 H   0  0  0  0  0  0  0  0  0  0  0  0
   51.3350   27.4990   52.9570 N   0  0  0  0  0  0  0  0  0  0  0  0
   52.0590   28.4850   53.4620 N   0  0  0  0  0  0  0  0  0  0  0  0
   51.5990   29.8510   53.5090 C   0  0  0  0  0  0  0  0  0  0  0  0
   51.1610   30.3990   54.7250 C   0  0  0  0  0  0  0  0  0  0  0  0
   51.1920   29.7892   55.6400 H   0  0  0  0  0  0  0  0  0  0  0  0
   50.6860   31.7120   54.7840 C   0  0  0  0  0  0  0  0  0  0  0  0
   50.3565   32.1317   55.7459 H   0  0  0  0  0  0  0  0  0  0  0  0
   50.6270   32.4980   53.6230 C   0  0  0  0  0  0  0  0  0  0  0  0
   50.1330   33.9150   53.6920 C   0  0  0  0  0  0  0  0  0  0  0  0
   50.0281   34.2159   54.7448 H   0  0  0  0  0  0  0  0  0  0  0  0
   50.8527   34.5790   53.1908 H   0  0  0  0  0  0  0  0  0  0  0  0
   49.1565   33.9877   53.1908 H   0  0  0  0  0  0  0  0  0  0  0  0
   51.0590   31.9550   52.4010 C   0  0  0  0  0  0  0  0  0  0  0  0
   51.0170   32.7150   51.2370 O   0  0  0  0  0  0  0  0  0  0  0  0
   51.5300   30.6380   52.3440 C   0  0  0  0  0  0  0  0  0  0  0  0
   51.8490   30.2144   51.3803 H   0  0  0  0  0  0  0  0  0  0  0  0
   56.8920   32.3300   52.7120 C   0  0  0  0  0  0  0  0  0  0  0  0
   56.3991   32.9832   53.4471 H   0  0  0  0  0  0  0  0  0  0  0  0
   57.9030   32.8440   51.8970 C   0  0  0  0  0  0  0  0  0  0  0  0
   58.2730   34.1430   52.0280 F   0  0  0  0  0  0  0  0  0  0  0  0
   61.1320   31.3050   48.7410 C   0  0  0  0  0  0  0  0  0  0  0  0
   61.7513   31.0307   49.6077 H   0  0  0  0  0  0  0  0  0  0  0  0
  1  2  1  0
  2  3  2  0
  3  4  1  0
  4  5  2  0
  5  6  1  0
  6  7  1  0
  6  8  2  0
  8  9  1  0
  8 10  1  0
 10 11  1  0
  5 12  1  0
 12 13  1  0
 13 14  1  0
 14 15  2  0
 15 16  1  0
 15 17  1  0
 17 18  1  0
 17 19  2  0
 19 20  1  0
 20 21  1  0
 20 22  1  0
 22 23  2  0
 22 24  1  0
 24 25  2  0
 25 26  1  0
 26 27  1  0
 26 28  2  0
 28 29  1  0
 29 30  1  0
 30 31  1  0
 30 32  1  0
 30 33  1  0
 29 34  1  0
 34 35  1  0
 34 36  1  0
 34 37  1  0
 29 38  1  0
 38 39  1  0
 38 40  1  0
 38 41  1  0
 28 42  1  0
 42 43  1  0
 43 44  1  0
 44 45  2  0
 45 46  1  0
 45 47  1  0
 47 48  1  0
 47 49  2  0
 49 50  1  0
 50 51  1  0
 50 52  1  0
 50 53  1  0
 49 54  1  0
 54 55  1  0
 54 56  2  0
 56 57  1  0
 19 58  1  0
 58 59  1  0
 58 60  2  0
 60 61  1  0
 12 62  2  0
 62 63  1  0
 62  2  1  0
 10  4  1  0
 60 14  1  0
 43 25  1  0
 56 44  1  0
M  CHG  2  42  -1  55  -1
M  END
>  <UniqueID>  (81) 
74

>  <SMILES>  (81) 
Cc1ccc(-n2[n-]c(C(C)(C)C)c/c2=N/C(=O)Nc2ccc(Oc3ccnc4[nH]ccc34)c(F)c2)cc1[O-]

>  <Energy>  (81) 
150.02939227291913

>  <Genealogy>  (81) 
Cc1ccc(-n2[n-]c(C(C)(C)C)cc2=NC(=O)Nc2ccc(Oc3ccnc4[nH]ccc34)c(F)c2)cc1[O-] (protonated)
Cc1ccc(-n2[n-]c(C(C)(C)C)c/c2=N/C(=O)Nc2ccc(Oc3ccnc4[nH]ccc34)c(F)c2)cc1[O-] (cis-trans isomerization)
Cc1ccc(-n2[n-]c(C(C)(C)C)c/c2=N/C(=O)Nc2ccc(Oc3ccnc4[nH]ccc34)c(F)c2)cc1[O-] (3D coordinates assigned)
Cc1ccc(-n2[n-]c(C(C)(C)C)c/c2=N/C(=O)Nc2ccc(Oc3ccnc4[nH]ccc34)c(F)c2)cc1[O-] (optimized conformer: 150.02939227291913 kcal/mol)

>  <smiles>  (81) 
Cc1ccc(-n2[nH]c(C(C)(C)C)cc2=NC(=O)Nc2ccc(Oc3ccnc4[nH]ccc34)c(F)c2)cc1O

>  <score_type>  (81) 
oracle

>  <origin>  (81) 
adg

>  <m_score__min__energy>  (81) 
-13.609999999999999

>  <m_primary>  (81) 
energy

$$$$
81:0
     RDKit          3D

 67 71  0  0  1  0  0  0  0  0999 V2000
   64.5870   32.6010   50.2030 C   0  0  0  0  0  0  0  0  0  0  0  0
   63.2790   32.0240   50.6810 C   0  0  0  0  0  0  0  0  0  0  0  0
   62.5500   31.4770   49.4990 C   0  0  0  0  0  0  0  0  0  0  0  0
   61.5900   30.4960   49.6010 C   0  0  0  0  0  0  0  0  0  0  0  0
   60.9270   30.0070   48.4760 C   0  0  0  0  0  0  0  0  0  0  0  0
   61.2450   30.5220   47.2250 C   0  0  0  0  0  0  0  0  0  0  0  0
   60.6420   30.1050   46.0290 N   0  0  0  0  0  0  0  0  0  0  0  0
   59.5310   29.4940   45.9230 C   0  0  0  0  0  0  0  0  0  0  0  0
   59.4440   28.2310   46.3390 N   0  0  0  0  0  0  0  0  0  0  0  0
   58.2880   27.5570   46.2430 C   0  0  0  0  0  0  0  0  0  0  0  0
   58.1810   26.2530   46.6680 C   0  0  0  0  0  0  0  0  0  0  0  0
   59.2440   25.7110   47.1620 N   0  0  0  0  0  0  0  0  0  0  0  0
   57.0080   25.5880   46.5630 N   0  0  0  0  0  0  0  0  0  0  0  0
   58.3960   30.0790   45.3930 C   0  0  0  0  0  0  0  0  0  0  0  0
   58.4580   31.2880   44.9890 N   0  0  0  0  0  0  0  0  0  0  0  0
   54.9760   24.0290   45.8530 C   0  0  0  0  0  0  0  0  0  0  0  0
   54.5450   23.6500   44.4360 C   0  0  0  0  0  0  0  0  0  0  0  0
   55.5470   22.8280   43.7920 N   0  0  0  0  0  0  0  0  0  0  0  0
   56.5530   23.6960   43.2350 C   0  0  0  0  0  0  0  0  0  0  0  0
   57.7340   23.7940   44.1730 C   0  0  0  0  0  0  0  0  0  0  0  0
   58.3760   22.5550   44.2670 O   0  0  0  0  0  0  0  0  0  0  0  0
   57.4950   21.5010   44.1710 C   0  0  0  0  0  0  0  0  0  0  0  0
   56.1530   21.9170   44.7380 C   0  0  0  0  0  0  0  0  0  0  0  0
   57.2350   29.4040   45.2960 N   0  0  0  0  0  0  0  0  0  0  0  0
   57.1470   28.1350   45.7140 C   0  0  0  0  0  0  0  0  0  0  0  0
   55.9920   27.4480   45.6230 N   0  0  0  0  0  0  0  0  0  0  0  0
   55.9040   26.1760   46.0420 C   0  0  0  0  0  0  0  0  0  0  0  0
   54.8350   25.4670   45.9830 N   0  0  0  0  0  0  0  0  0  0  0  0
   58.7300   32.3960   45.8410 C   0  0  0  0  0  0  0  0  0  0  0  0
   58.8840   33.6370   45.2430 C   0  0  0  0  0  0  0  0  0  0  0  0
   59.1500   34.7750   45.9750 C   0  0  0  0  0  0  0  0  0  0  0  0
   59.2650   34.6730   47.3350 C   0  0  0  0  0  0  0  0  0  0  0  0
   59.1100   33.4280   47.9360 C   0  0  0  0  0  0  0  0  0  0  0  0
   59.2670   33.3520   49.6740 Cl  0  0  0  0  0  0  0  0  0  0  0  0
   58.8450   32.2840   47.2110 C   0  0  0  0  0  0  0  0  0  0  0  0
   62.2190   31.5130   47.1410 C   0  0  0  0  0  0  0  0  0  0  0  0
   62.8720   31.9940   48.2590 C   0  0  0  0  0  0  0  0  0  0  0  0
   65.2060   32.8741   51.0703 H   0  0  0  0  0  0  0  0  0  0  0  0
   65.1172   31.8532   49.5949 H   0  0  0  0  0  0  0  0  0  0  0  0
   64.3922   33.4967   49.5949 H   0  0  0  0  0  0  0  0  0  0  0  0
   63.4701   31.2189   51.4058 H   0  0  0  0  0  0  0  0  0  0  0  0
   62.6769   32.8032   51.1711 H   0  0  0  0  0  0  0  0  0  0  0  0
   61.3403   30.0888   50.5919 H   0  0  0  0  0  0  0  0  0  0  0  0
   60.1618   29.2233   48.5774 H   0  0  0  0  0  0  0  0  0  0  0  0
   60.2860   27.7650   46.7430 H   0  0  0  0  0  0  0  0  0  0  0  0
   60.1200   25.8100   46.6330 H   0  0  0  0  0  0  0  0  0  0  0  0
   56.9890   24.5980   46.9040 H   0  0  0  0  0  0  0  0  0  0  0  0
   56.0241   23.7383   46.0169 H   0  0  0  0  0  0  0  0  0  0  0  0
   54.3548   23.5104   46.5981 H   0  0  0  0  0  0  0  0  0  0  0  0
   53.5986   23.0914   44.4851 H   0  0  0  0  0  0  0  0  0  0  0  0
   54.4181   24.5720   43.8497 H   0  0  0  0  0  0  0  0  0  0  0  0
   56.8886   23.2906   42.2691 H   0  0  0  0  0  0  0  0  0  0  0  0
   56.1235   24.6985   43.0921 H   0  0  0  0  0  0  0  0  0  0  0  0
   58.4425   24.5429   43.7893 H   0  0  0  0  0  0  0  0  0  0  0  0
   57.3785   24.0923   45.1703 H   0  0  0  0  0  0  0  0  0  0  0  0
   57.3756   21.2168   43.1151 H   0  0  0  0  0  0  0  0  0  0  0  0
   57.8844   20.6424   44.7378 H   0  0  0  0  0  0  0  0  0  0  0  0
   55.5117   21.0335   44.8728 H   0  0  0  0  0  0  0  0  0  0  0  0
   56.2787   22.4014   45.7176 H   0  0  0  0  0  0  0  0  0  0  0  0
   56.3950   29.8640   44.8940 H   0  0  0  0  0  0  0  0  0  0  0  0
   55.1480   27.9130   45.2180 H   0  0  0  0  0  0  0  0  0  0  0  0
   58.7911   33.7166   44.1498 H   0  0  0  0  0  0  0  0  0  0  0  0
   59.2677   35.7476   45.4747 H   0  0  0  0  0  0  0  0  0  0  0  0
   59.4772   35.5636   47.9447 H   0  0  0  0  0  0  0  0  0  0  0  0
   58.7289   31.3112   47.7111 H   0  0  0  0  0  0  0  0  0  0  0  0
   62.4764   31.9255   46.1543 H   0  0  0  0  0  0  0  0  0  0  0  0
   63.6378   32.7778   48.1634 H   0  0  0  0  0  0  0  0  0  0  0  0
  1  2  1  0
  2  3  1  0
  3  4  2  0
  4  5  1  0
  5  6  2  0
  6  7  1  0
  7  8  2  0
  8  9  1  0
  9 10  1  0
 10 11  1  0
 11 12  2  3
 11 13  1  0
 13 14  1  0
 14 15  2  0
 15 16  1  0
 16 17  1  0
 17 18  1  0
 18 19  1  0
 19 20  1  0
 20 21  1  0
 21 22  1  0
 22 23  1  0
 14 24  1  0
 24 25  1  0
 25 26  1  0
 26 27  1  0
 27 28  2  0
 28 29  1  0
 29 30  2  0
 30 31  1  0
 31 32  2  0
 32 33  1  0
 33 34  1  0
 33 35  2  0
  6 36  1  0
 36 37  2  0
 37  3  1  0
 27  8  1  0
 35 29  1  0
 25 10  2  0
 23 18  1  0
  1 38  1  0
  1 39  1  0
  1 40  1  0
  2 41  1  0
  2 42  1  0
  4 43  1  0
  5 44  1  0
  9 45  1  0
 12 46  1  0
 13 47  1  0
 16 48  1  0
 16 49  1  0
 17 50  1  0
 17 51  1  0
 19 52  1  0
 19 53  1  0
 20 54  1  0
 20 55  1  0
 22 56  1  0
 22 57  1  0
 23 58  1  0
 23 59  1  0
 24 60  1  0
 26 61  1  0
 30 62  1  0
 31 63  1  0
 32 64  1  0
 35 65  1  0
 36 66  1  0
 37 67  1  0
M  END
>  <smiles>  (82) 
CCc1ccc(N=c2[nH]c3c(=N)[nH]c(=NCCN4CCOCC4)[nH]c3[nH]c2=Nc2cccc(Cl)c2)cc1

>  <score_type>  (82) 
oracle

>  <origin>  (82) 
adg

>  <m_score__min__energy>  (82) 
-10.640000000000001

>  <m_primary>  (82) 
energy

$$$$
82:0
     RDKit          3D

 38 39  0  0  0  0  0  0  0  0999 V2000
   59.9670   35.4760   46.0760 C   0  0  0  0  0  0  0  0  0  0  0  0
   58.8540   34.6800   46.4710 O   0  0  0  0  0  0  0  0  0  0  0  0
   58.7660   33.2930   46.2810 C   0  0  0  0  0  0  0  0  0  0  0  0
   59.7410   32.4790   46.8700 C   0  0  0  0  0  0  0  0  0  0  0  0
   59.6970   31.0910   46.7120 C   0  0  0  0  0  0  0  0  0  0  0  0
   58.6680   30.4920   45.9760 C   0  0  0  0  0  0  0  0  0  0  0  0
   58.6700   29.0670   45.8190 N   0  0  0  0  0  0  0  0  0  0  0  0
   58.9440   28.1040   46.8440 C   0  0  0  0  0  0  0  0  0  0  0  0
   59.6540   28.4160   47.8380 O   0  0  0  0  0  0  0  0  0  0  0  0
   58.4470   26.7250   46.6960 C   0  0  0  0  0  0  0  0  0  0  0  0
   59.2670   25.7990   46.4600 O   0  0  0  0  0  0  0  0  0  0  0  0
   57.0610   26.3940   46.8660 N   0  0  0  0  0  0  0  0  0  0  0  0
   56.4290   25.1720   46.4580 C   0  0  0  0  0  0  0  0  0  0  0  0
   57.1760   23.9920   46.4870 C   0  0  0  0  0  0  0  0  0  0  0  0
   56.6100   22.7760   46.0860 C   0  0  0  0  0  0  0  0  0  0  0  0
   57.5700   21.2980   46.1390 S   0  0  0  0  0  0  0  0  0  0  0  0
   58.9420   21.5720   45.5910 O   0  0  0  0  0  0  0  0  0  0  0  0
   56.9010   20.2350   45.3150 O   0  0  0  0  0  0  0  0  0  0  0  0
   57.7160   20.7470   47.7200 O   0  0  0  0  0  0  0  0  0  0  0  0
   55.2780   22.7420   45.6420 C   0  0  0  0  0  0  0  0  0  0  0  0
   54.7170   21.5350   45.2340 O   0  0  0  0  0  0  0  0  0  0  0  0
   54.5140   23.9240   45.6000 C   0  0  0  0  0  0  0  0  0  0  0  0
   53.1010   23.8980   45.0770 C   0  0  0  0  0  0  0  0  0  0  0  0
   55.1070   25.1470   45.9720 C   0  0  0  0  0  0  0  0  0  0  0  0
   54.3940   26.3340   45.8330 O   0  0  0  0  0  0  0  0  0  0  0  0
   57.6990   31.3080   45.3630 C   0  0  0  0  0  0  0  0  0  0  0  0
   57.7440   32.6970   45.5200 C   0  0  0  0  0  0  0  0  0  0  0  0
   60.4875   35.8483   46.9707 H   0  0  0  0  0  0  0  0  0  0  0  0
   60.6590   34.8667   45.4761 H   0  0  0  0  0  0  0  0  0  0  0  0
   59.6141   36.3278   45.4761 H   0  0  0  0  0  0  0  0  0  0  0  0
   60.5481   32.9355   47.4618 H   0  0  0  0  0  0  0  0  0  0  0  0
   60.4769   30.4646   47.1695 H   0  0  0  0  0  0  0  0  0  0  0  0
   58.2212   24.0186   46.8289 H   0  0  0  0  0  0  0  0  0  0  0  0
   52.3973   23.8851   45.9224 H   0  0  0  0  0  0  0  0  0  0  0  0
   52.9206   24.7930   44.4634 H   0  0  0  0  0  0  0  0  0  0  0  0
   52.9536   22.9970   44.4634 H   0  0  0  0  0  0  0  0  0  0  0  0
   56.9024   30.8511   44.7575 H   0  0  0  0  0  0  0  0  0  0  0  0
   56.9765   33.3265   45.0461 H   0  0  0  0  0  0  0  0  0  0  0  0
  1  2  1  0
  2  3  1  0
  3  4  2  0
  4  5  1  0
  5  6  2  0
  6  7  1  0
  7  8  1  0
  8  9  2  0
  8 10  1  0
 10 11  2  0
 10 12  1  0
 12 13  1  0
 13 14  2  0
 14 15  1  0
 15 16  1  0
 16 17  2  0
 16 18  2  0
 16 19  1  0
 15 20  2  0
 20 21  1  0
 20 22  1  0
 22 23  1  0
 22 24  2  0
 24 25  1  0
  6 26  1  0
 26 27  2  0
 27  3  1  0
 24 13  1  0
  1 28  1  0
  1 29  1  0
  1 30  1  0
  4 31  1  0
  5 32  1  0
 14 33  1  0
 23 34  1  0
 23 35  1  0
 23 36  1  0
 26 37  1  0
 27 38  1  0
M  CHG  5   7  -1  12  -1  19  -1  21  -1  25  -1
M  END
>  <UniqueID>  (83) 
75

>  <SMILES>  (83) 
COc1ccc([N-]C(=O)C(=O)[N-]c2cc(S(=O)(=O)[O-])c([O-])c(C)c2[O-])cc1

>  <Energy>  (83) 
49.933383991640085

>  <Genealogy>  (83) 
COc1ccc([N-]C(=O)C(=O)[N-]c2cc(S(=O)(=O)[O-])c([O-])c(C)c2[O-])cc1 (protonated)
COc1ccc([N-]C(=O)C(=O)[N-]c2cc(S(=O)(=O)[O-])c([O-])c(C)c2[O-])cc1 (3D coordinates assigned)
COc1ccc([N-]C(=O)C(=O)[N-]c2cc(S(=O)(=O)[O-])c([O-])c(C)c2[O-])cc1 (optimized conformer: 49.933383991640085 kcal/mol)

>  <smiles>  (83) 
COc1ccc(NC(=O)C(=O)Nc2cc(S(=O)(=O)[O-])c(O)c(C)c2O)cc1

>  <score_type>  (83) 
oracle

>  <origin>  (83) 
adg

>  <m_score__min__energy>  (83) 
-16.710000000000001

>  <m_primary>  (83) 
energy

$$$$
83:0
     RDKit          3D

 53 55  0  0  0  0  0  0  0  0999 V2000
   58.4120   32.3030   50.6380 C   0  0  0  0  0  0  0  0  0  0  0  0
   59.6320   31.9290   49.8010 C   0  0  2  0  0  0  0  0  0  0  0  0
   60.2940   33.1270   49.3870 O   0  0  0  0  0  0  0  0  0  0  0  0
   61.4300   33.1840   48.5610 C   0  0  0  0  0  0  0  0  0  0  0  0
   61.4330   33.8470   47.3170 C   0  0  0  0  0  0  0  0  0  0  0  0
   62.5940   33.8710   46.5370 C   0  0  0  0  0  0  0  0  0  0  0  0
   63.7540   33.2370   46.9860 C   0  0  0  0  0  0  0  0  0  0  0  0
   63.7570   32.5760   48.2170 C   0  0  0  0  0  0  0  0  0  0  0  0
   62.5990   32.5500   49.0000 C   0  0  0  0  0  0  0  0  0  0  0  0
   59.1980   31.1250   48.5990 C   0  0  0  0  0  0  0  0  0  0  0  0
   58.8800   29.9160   48.7510 O   0  0  0  0  0  0  0  0  0  0  0  0
   59.1830   31.6790   47.2780 N   0  0  0  0  0  0  0  0  0  0  0  0
   58.0050   31.7610   46.4240 C   0  0  0  0  0  0  0  0  0  0  0  0
   57.7760   30.4380   45.7680 C   0  0  0  0  0  0  0  0  0  0  0  0
   56.9140   30.3390   44.8530 O   0  0  0  0  0  0  0  0  0  0  0  0
   58.5620   29.3010   46.1610 N   0  0  0  0  0  0  0  0  0  0  0  0
   58.2520   27.9450   45.8000 C   0  0  0  0  0  0  0  0  0  0  0  0
   58.0660   27.5670   44.4580 C   0  0  0  0  0  0  0  0  0  0  0  0
   57.7350   26.2470   44.1350 C   0  0  0  0  0  0  0  0  0  0  0  0
   57.5820   25.2890   45.1460 C   0  0  0  0  0  0  0  0  0  0  0  0
   57.2230   23.8990   44.8010 C   0  0  0  0  0  0  0  0  0  0  0  0
   58.1700   23.1120   44.1250 C   0  0  0  0  0  0  0  0  0  0  0  0
   57.8680   21.8020   43.7520 C   0  0  0  0  0  0  0  0  0  0  0  0
   56.6180   21.2610   44.0530 C   0  0  0  0  0  0  0  0  0  0  0  0
   55.6700   22.0260   44.7360 C   0  0  0  0  0  0  0  0  0  0  0  0
   55.9610   23.3430   45.1280 C   0  0  0  0  0  0  0  0  0  0  0  0
   54.7410   24.2460   46.0440 S   0  0  0  0  0  0  0  0  0  0  0  0
   54.8180   25.9220   45.6290 N   0  0  0  0  0  0  0  0  0  0  0  0
   54.9740   24.0800   47.5190 O   0  0  0  0  0  0  0  0  0  0  0  0
   53.3690   23.7250   45.7210 O   0  0  0  0  0  0  0  0  0  0  0  0
   57.7290   25.6720   46.4870 C   0  0  0  0  0  0  0  0  0  0  0  0
   58.0600   26.9910   46.8110 C   0  0  0  0  0  0  0  0  0  0  0  0
   58.6627   32.2261   51.7063 H   0  0  0  0  0  0  0  0  0  0  0  0
   58.1102   33.3349   50.4055 H   0  0  0  0  0  0  0  0  0  0  0  0
   57.5837   31.6175   50.4055 H   0  0  0  0  0  0  0  0  0  0  0  0
   60.3251   31.3177   50.3977 H   0  0  0  0  0  0  0  0  0  0  0  0
   60.5207   34.3464   46.9589 H   0  0  0  0  0  0  0  0  0  0  0  0
   62.5930   34.3907   45.5675 H   0  0  0  0  0  0  0  0  0  0  0  0
   64.6656   33.2579   46.3707 H   0  0  0  0  0  0  0  0  0  0  0  0
   64.6708   32.0759   48.5702 H   0  0  0  0  0  0  0  0  0  0  0  0
   62.6062   32.0277   49.9681 H   0  0  0  0  0  0  0  0  0  0  0  0
   57.1279   32.0258   47.0327 H   0  0  0  0  0  0  0  0  0  0  0  0
   58.1614   32.5312   45.6543 H   0  0  0  0  0  0  0  0  0  0  0  0
   59.4490   29.4810   46.6850 H   0  0  0  0  0  0  0  0  0  0  0  0
   58.1815   28.3134   43.6583 H   0  0  0  0  0  0  0  0  0  0  0  0
   57.5942   25.9597   43.0826 H   0  0  0  0  0  0  0  0  0  0  0  0
   59.1584   23.5323   43.8876 H   0  0  0  0  0  0  0  0  0  0  0  0
   58.6160   21.1955   43.2203 H   0  0  0  0  0  0  0  0  0  0  0  0
   56.3786   20.2304   43.7520 H   0  0  0  0  0  0  0  0  0  0  0  0
   54.6861   21.5930   44.9692 H   0  0  0  0  0  0  0  0  0  0  0  0
   53.8880   26.3360   45.8650 H   0  0  0  0  0  0  0  0  0  0  0  0
   57.5833   24.9315   47.2873 H   0  0  0  0  0  0  0  0  0  0  0  0
   58.1707   27.2830   47.8657 H   0  0  0  0  0  0  0  0  0  0  0  0
  1  2  1  0
  2  3  1  0
  3  4  1  0
  4  5  2  0
  5  6  1  0
  6  7  2  0
  7  8  1  0
  8  9  2  0
  2 10  1  0
 10 11  2  0
 10 12  1  0
 12 13  1  0
 13 14  1  0
 14 15  2  0
 14 16  1  0
 16 17  1  0
 17 18  2  0
 18 19  1  0
 19 20  2  0
 20 21  1  0
 21 22  2  0
 22 23  1  0
 23 24  2  0
 24 25  1  0
 25 26  2  0
 26 27  1  0
 27 28  1  0
 27 29  2  0
 27 30  2  0
 20 31  1  0
 31 32  2  0
  9  4  1  0
 32 17  1  0
 26 21  1  0
  1 33  1  0
  1 34  1  0
  1 35  1  0
  2 36  1  1
  5 37  1  0
  6 38  1  0
  7 39  1  0
  8 40  1  0
  9 41  1  0
 13 42  1  0
 13 43  1  0
 16 44  1  0
 18 45  1  0
 19 46  1  0
 22 47  1  0
 23 48  1  0
 24 49  1  0
 25 50  1  0
 28 51  1  0
 31 52  1  0
 32 53  1  0
M  CHG  2  12  -1  28  -1
M  END
>  <UniqueID>  (84) 
76

>  <SMILES>  (84) 
C[C@H](Oc1ccccc1)C(=O)[N-]CC(=O)Nc1ccc(-c2ccccc2S([NH-])(=O)=O)cc1

>  <Energy>  (84) 
60.819729139427686

>  <Genealogy>  (84) 
CC(Oc1ccccc1)C(=O)[N-]CC(=O)Nc1ccc(-c2ccccc2S([NH-])(=O)=O)cc1 (protonated)
C[C@H](Oc1ccccc1)C(=O)[N-]CC(=O)Nc1ccc(-c2ccccc2S([NH-])(=O)=O)cc1 (chirality)
C[C@H](Oc1ccccc1)C(=O)[N-]CC(=O)Nc1ccc(-c2ccccc2S([NH-])(=O)=O)cc1 (3D coordinates assigned)
C[C@H](Oc1ccccc1)C(=O)[N-]CC(=O)Nc1ccc(-c2ccccc2S([NH-])(=O)=O)cc1 (optimized conformer: 60.819729139427686 kcal/mol)

>  <smiles>  (84) 
CC(Oc1ccccc1)C(=O)NCC(=O)Nc1ccc(-c2ccccc2S(N)(=O)=O)cc1

>  <score_type>  (84) 
oracle

>  <origin>  (84) 
adg

>  <m_score__min__energy>  (84) 
-12.49

>  <m_primary>  (84) 
energy

$$$$
84:0
     RDKit          3D

 44 46  0  0  0  0  0  0  0  0999 V2000
   57.6348   33.9230   47.5517 H   0  0  0  0  0  0  0  0  0  0  0  0
   57.7670   33.5680   46.5190 C   0  0  0  0  0  0  0  0  0  0  0  0
   57.0180   32.5320   46.0560 N   0  0  0  0  0  0  0  0  0  0  0  0
   57.1390   32.0570   44.7860 C   0  0  0  0  0  0  0  0  0  0  0  0
   56.3850   31.0570   44.4250 N   0  0  0  0  0  0  0  0  0  0  0  0
   56.5000   29.6880   44.8440 C   0  0  0  0  0  0  0  0  0  0  0  0
   55.4570   28.9830   44.8910 O   0  0  0  0  0  0  0  0  0  0  0  0
   57.8160   29.0700   45.1450 C   0  0  0  0  0  0  0  0  0  0  0  0
   58.0030   27.6880   44.9730 C   0  0  0  0  0  0  0  0  0  0  0  0
   57.1698   27.0636   44.6181 H   0  0  0  0  0  0  0  0  0  0  0  0
   59.2410   27.1020   45.2500 C   0  0  0  0  0  0  0  0  0  0  0  0
   59.3789   26.0196   45.1106 H   0  0  0  0  0  0  0  0  0  0  0  0
   60.3030   27.8860   45.7030 C   0  0  0  0  0  0  0  0  0  0  0  0
   61.2768   27.4198   45.9138 H   0  0  0  0  0  0  0  0  0  0  0  0
   60.1340   29.2680   45.8910 C   0  0  0  0  0  0  0  0  0  0  0  0
   61.2210   30.1010   46.3320 N   0  0  0  0  0  0  0  0  0  0  0  0
   62.1510   29.9740   45.8740 H   0  0  0  0  0  0  0  0  0  0  0  0
   61.0620   31.2030   47.2430 C   0  0  0  0  0  0  0  0  0  0  0  0
   59.9270   31.7360   47.3860 O   0  0  0  0  0  0  0  0  0  0  0  0
   62.2250   31.7560   47.9770 C   0  0  0  0  0  0  0  0  0  0  0  0
   62.6130   31.2390   49.2240 C   0  0  0  0  0  0  0  0  0  0  0  0
   62.0523   30.4033   49.6682 H   0  0  0  0  0  0  0  0  0  0  0  0
   63.6780   31.7660   49.8850 N   0  0  0  0  0  0  0  0  0  0  0  0
   64.4090   32.7980   49.3880 C   0  0  0  0  0  0  0  0  0  0  0  0
   65.4160   33.2380   50.0890 N   0  0  0  0  0  0  0  0  0  0  0  0
   66.6340   32.5110   50.4540 C   0  0  0  0  0  0  0  0  0  0  0  0
   66.8287   31.7329   49.7013 H   0  0  0  0  0  0  0  0  0  0  0  0
   66.4898   32.0572   51.4456 H   0  0  0  0  0  0  0  0  0  0  0  0
   67.8310   33.4560   50.5180 C   0  0  0  0  0  0  0  0  0  0  0  0
   68.0844   33.6561   51.5696 H   0  0  0  0  0  0  0  0  0  0  0  0
   68.6921   32.9915   50.0153 H   0  0  0  0  0  0  0  0  0  0  0  0
   67.5791   34.4014   50.0153 H   0  0  0  0  0  0  0  0  0  0  0  0
   64.0470   33.3550   48.1470 C   0  0  0  0  0  0  0  0  0  0  0  0
   64.6198   34.1960   47.7290 H   0  0  0  0  0  0  0  0  0  0  0  0
   62.9550   32.8320   47.4500 C   0  0  0  0  0  0  0  0  0  0  0  0
   62.6657   33.2666   46.4818 H   0  0  0  0  0  0  0  0  0  0  0  0
   58.8960   29.8550   45.5880 C   0  0  0  0  0  0  0  0  0  0  0  0
   58.7685   30.9420   45.6982 H   0  0  0  0  0  0  0  0  0  0  0  0
   58.0910   32.6430   43.9250 C   0  0  0  0  0  0  0  0  0  0  0  0
   58.2213   32.2618   42.9014 H   0  0  0  0  0  0  0  0  0  0  0  0
   58.8660   33.7100   44.3820 C   0  0  0  0  0  0  0  0  0  0  0  0
   59.6045   34.1788   43.7150 H   0  0  0  0  0  0  0  0  0  0  0  0
   58.7040   34.1820   45.6850 C   0  0  0  0  0  0  0  0  0  0  0  0
   59.6730   35.5200   46.2720 Cl  0  0  0  0  0  0  0  0  0  0  0  0
  1  2  1  0
  2  3  1  0
  3  4  1  0
  4  5  2  0
  5  6  1  0
  6  7  2  0
  6  8  1  0
  8  9  2  0
  9 10  1  0
  9 11  1  0
 11 12  1  0
 11 13  2  0
 13 14  1  0
 13 15  1  0
 15 16  1  0
 16 17  1  0
 16 18  1  0
 18 19  2  0
 18 20  1  0
 20 21  2  0
 21 22  1  0
 21 23  1  0
 23 24  1  0
 24 25  2  3
 25 26  1  0
 26 27  1  0
 26 28  1  0
 26 29  1  0
 29 30  1  0
 29 31  1  0
 29 32  1  0
 24 33  1  0
 33 34  1  0
 33 35  2  0
 35 36  1  0
 15 37  2  0
 37 38  1  0
  4 39  1  0
 39 40  1  0
 39 41  2  0
 41 42  1  0
 41 43  1  0
 43 44  1  0
 43  2  2  0
 37  8  1  0
 35 20  1  0
M  CHG  2   3  -1  23  -1
M  END
>  <UniqueID>  (85) 
77

>  <SMILES>  (85) 
CCN=c1ccc(C(=O)Nc2cccc(C(=O)/N=c3\ccc(Cl)c[n-]3)c2)c[n-]1

>  <Energy>  (85) 
63.63239384667163

>  <Genealogy>  (85) 
CCN=c1ccc(C(=O)Nc2cccc(C(=O)N=c3ccc(Cl)c[n-]3)c2)c[n-]1 (protonated)
CCN=c1ccc(C(=O)Nc2cccc(C(=O)/N=c3\ccc(Cl)c[n-]3)c2)c[n-]1 (cis-trans isomerization)
CCN=c1ccc(C(=O)Nc2cccc(C(=O)/N=c3\ccc(Cl)c[n-]3)c2)c[n-]1 (3D coordinates assigned)
CCN=c1ccc(C(=O)Nc2cccc(C(=O)/N=c3\ccc(Cl)c[n-]3)c2)c[n-]1 (optimized conformer: 63.63239384667163 kcal/mol)

>  <smiles>  (85) 
CCN=c1ccc(C(=O)Nc2cccc(C(=O)N=c3ccc(Cl)c[nH]3)c2)c[nH]1

>  <score_type>  (85) 
oracle

>  <origin>  (85) 
adg

>  <m_score__min__energy>  (85) 
-11.130000000000001

>  <m_primary>  (85) 
energy

$$$$
85:0
     RDKit          3D

 39 41  0  0  0  0  0  0  0  0999 V2000
   65.6370   32.7820   50.1540 C   0  0  0  0  0  0  0  0  0  0  0  0
   64.4820   33.4900   49.7140 O   0  0  0  0  0  0  0  0  0  0  0  0
   63.3510   32.8860   49.1440 C   0  0  0  0  0  0  0  0  0  0  0  0
   63.3800   32.5760   47.7820 C   0  0  0  0  0  0  0  0  0  0  0  0
   62.2830   31.9690   47.1670 C   0  0  0  0  0  0  0  0  0  0  0  0
   61.1350   31.6590   47.9100 C   0  0  0  0  0  0  0  0  0  0  0  0
   60.0010   30.9940   47.2310 C   0  0  0  0  0  0  0  0  0  0  0  0
   59.5260   31.5240   46.0220 C   0  0  0  0  0  0  0  0  0  0  0  0
   58.4620   30.9160   45.3500 C   0  0  0  0  0  0  0  0  0  0  0  0
   57.8670   29.7660   45.8750 C   0  0  0  0  0  0  0  0  0  0  0  0
   56.5090   28.9810   45.0070 S   0  0  0  0  0  0  0  0  0  0  0  0
   57.0440   27.3280   45.4630 C   0  0  0  0  0  0  0  0  0  0  0  0
   58.4000   26.9890   45.3620 C   0  0  0  0  0  0  0  0  0  0  0  0
   58.8300   25.7040   45.7070 C   0  0  0  0  0  0  0  0  0  0  0  0
   57.9080   24.7550   46.1570 C   0  0  0  0  0  0  0  0  0  0  0  0
   56.5550   25.0910   46.2650 C   0  0  0  0  0  0  0  0  0  0  0  0
   56.1200   26.3750   45.9220 C   0  0  0  0  0  0  0  0  0  0  0  0
   54.7730   26.6990   46.0380 O   0  0  0  0  0  0  0  0  0  0  0  0
   58.3330   29.2260   47.0790 C   0  0  0  0  0  0  0  0  0  0  0  0
   59.4020   29.8280   47.7580 C   0  0  0  0  0  0  0  0  0  0  0  0
   59.8810   29.2230   48.9780 C   0  0  0  0  0  0  0  0  0  0  0  0
   60.2650   28.7400   49.9570 N   0  0  0  0  0  0  0  0  0  0  0  0
   61.0880   31.9870   49.2840 C   0  0  0  0  0  0  0  0  0  0  0  0
   59.9540   31.7420   50.0620 O   0  0  0  0  0  0  0  0  0  0  0  0
   62.1960   32.5890   49.8920 C   0  0  0  0  0  0  0  0  0  0  0  0
   65.6612   32.7672   51.2536 H   0  0  0  0  0  0  0  0  0  0  0  0
   65.6015   31.7503   49.7741 H   0  0  0  0  0  0  0  0  0  0  0  0
   66.5403   33.2818   49.7741 H   0  0  0  0  0  0  0  0  0  0  0  0
   64.2755   32.8123   47.1885 H   0  0  0  0  0  0  0  0  0  0  0  0
   62.3197   31.7327   46.0933 H   0  0  0  0  0  0  0  0  0  0  0  0
   59.9946   32.4251   45.5997 H   0  0  0  0  0  0  0  0  0  0  0  0
   58.0924   31.3435   44.4063 H   0  0  0  0  0  0  0  0  0  0  0  0
   59.1276   27.7354   45.0106 H   0  0  0  0  0  0  0  0  0  0  0  0
   59.8946   25.4399   45.6242 H   0  0  0  0  0  0  0  0  0  0  0  0
   58.2467   23.7437   46.4262 H   0  0  0  0  0  0  0  0  0  0  0  0
   55.8308   24.3433   46.6207 H   0  0  0  0  0  0  0  0  0  0  0  0
   57.8584   28.3249   47.4947 H   0  0  0  0  0  0  0  0  0  0  0  0
   59.7660   30.8430   50.4880 H   0  0  0  0  0  0  0  0  0  0  0  0
   62.1638   32.8322   50.9643 H   0  0  0  0  0  0  0  0  0  0  0  0
  1  2  1  0
  2  3  1  0
  3  4  2  0
  4  5  1  0
  5  6  2  0
  6  7  1  0
  7  8  2  0
  8  9  1  0
  9 10  2  0
 10 11  1  0
 11 12  1  0
 12 13  2  0
 13 14  1  0
 14 15  2  0
 15 16  1  0
 16 17  2  0
 17 18  1  0
 10 19  1  0
 19 20  2  0
 20 21  1  0
 21 22  3  0
  6 23  1  0
 23 24  1  0
 23 25  2  0
 25  3  1  0
 20  7  1  0
 17 12  1  0
  1 26  1  0
  1 27  1  0
  1 28  1  0
  4 29  1  0
  5 30  1  0
  8 31  1  0
  9 32  1  0
 13 33  1  0
 14 34  1  0
 15 35  1  0
 16 36  1  0
 19 37  1  0
 24 38  1  0
 25 39  1  0
M  CHG  1  18  -1
M  END
>  <UniqueID>  (86) 
78

>  <SMILES>  (86) 
COc1ccc(-c2ccc(Sc3ccccc3[O-])cc2C#N)c(O)c1

>  <Energy>  (86) 
45.215078100625796

>  <Genealogy>  (86) 
COc1ccc(-c2ccc(Sc3ccccc3[O-])cc2C#N)c(O)c1 (protonated)
COc1ccc(-c2ccc(Sc3ccccc3[O-])cc2C#N)c(O)c1 (3D coordinates assigned)
COc1ccc(-c2ccc(Sc3ccccc3[O-])cc2C#N)c(O)c1 (optimized conformer: 45.215078100625796 kcal/mol)

>  <smiles>  (86) 
COc1ccc(-c2ccc(Sc3ccccc3O)cc2C#N)c(O)c1

>  <score_type>  (86) 
oracle

>  <origin>  (86) 
adg

>  <m_score__min__energy>  (86) 
-10.73

>  <m_primary>  (86) 
energy

$$$$
86:0
     RDKit          3D

 37 38  0  0  0  0  0  0  0  0999 V2000
   57.0650   29.0130   43.0290 C   0  0  0  0  0  0  0  0  0  0  0  0
   56.2320   29.6970   44.4440 S   0  0  0  0  0  0  0  0  0  0  0  0
   54.7750   29.3390   44.3840 O   0  0  0  0  0  0  0  0  0  0  0  0
   56.3980   31.1920   44.4230 O   0  0  0  0  0  0  0  0  0  0  0  0
   56.9480   29.0410   45.8830 N   0  0  0  0  0  0  0  0  0  0  0  0
   57.4750   27.7160   46.0520 C   0  0  0  0  0  0  0  0  0  0  0  0
   58.8660   27.5700   46.0320 C   0  0  0  0  0  0  0  0  0  0  0  0
   59.4530   26.3180   46.1920 C   0  0  0  0  0  0  0  0  0  0  0  0
   58.6560   25.1930   46.3860 C   0  0  0  0  0  0  0  0  0  0  0  0
   57.2570   25.3030   46.4210 C   0  0  0  0  0  0  0  0  0  0  0  0
   56.4350   24.0590   46.6610 C   0  0  0  0  0  0  0  0  0  0  0  0
   55.0080   24.3700   46.7140 N   0  0  0  0  0  0  0  0  0  0  0  0
   53.9990   23.9200   45.7990 C   0  0  0  0  0  0  0  0  0  0  0  0
   53.1720   24.7570   45.3530 O   0  0  0  0  0  0  0  0  0  0  0  0
   53.8700   22.5490   45.4090 N   0  0  0  0  0  0  0  0  0  0  0  0
   54.8720   21.5260   45.4930 C   0  0  0  0  0  0  0  0  0  0  0  0
   54.6310   20.4380   46.3430 C   0  0  0  0  0  0  0  0  0  0  0  0
   55.5700   19.4130   46.4700 C   0  0  0  0  0  0  0  0  0  0  0  0
   56.7500   19.4500   45.7250 C   0  0  0  0  0  0  0  0  0  0  0  0
   56.9810   20.5030   44.8360 C   0  0  0  0  0  0  0  0  0  0  0  0
   56.0460   21.5370   44.7010 C   0  0  0  0  0  0  0  0  0  0  0  0
   56.3860   22.8600   43.3550 Br  0  0  0  0  0  0  0  0  0  0  0  0
   56.6560   26.5700   46.2000 C   0  0  0  0  0  0  0  0  0  0  0  0
   55.2700   26.6960   46.0870 O   0  0  0  0  0  0  0  0  0  0  0  0
   57.8743   28.3485   43.3657 H   0  0  0  0  0  0  0  0  0  0  0  0
   56.3479   28.4397   42.4231 H   0  0  0  0  0  0  0  0  0  0  0  0
   57.4879   29.8279   42.4231 H   0  0  0  0  0  0  0  0  0  0  0  0
   59.5034   28.4549   45.8882 H   0  0  0  0  0  0  0  0  0  0  0  0
   60.5481   26.2173   46.1651 H   0  0  0  0  0  0  0  0  0  0  0  0
   59.1276   24.2074   46.5132 H   0  0  0  0  0  0  0  0  0  0  0  0
   56.6166   23.3458   45.8435 H   0  0  0  0  0  0  0  0  0  0  0  0
   56.7330   23.6259   47.6272 H   0  0  0  0  0  0  0  0  0  0  0  0
   53.6929   20.3914   46.9155 H   0  0  0  0  0  0  0  0  0  0  0  0
   55.3800   18.5756   47.1575 H   0  0  0  0  0  0  0  0  0  0  0  0
   57.4974   18.6508   45.8377 H   0  0  0  0  0  0  0  0  0  0  0  0
   57.9040   20.5200   44.2378 H   0  0  0  0  0  0  0  0  0  0  0  0
   54.6150   25.9870   46.3900 H   0  0  0  0  0  0  0  0  0  0  0  0
  1  2  1  0
  2  3  2  0
  2  4  2  0
  2  5  1  0
  5  6  1  0
  6  7  2  0
  7  8  1  0
  8  9  2  0
  9 10  1  0
 10 11  1  0
 11 12  1  0
 12 13  1  0
 13 14  2  0
 13 15  1  0
 15 16  1  0
 16 17  2  0
 17 18  1  0
 18 19  2  0
 19 20  1  0
 20 21  2  0
 21 22  1  0
 10 23  2  0
 23 24  1  0
 23  6  1  0
 21 16  1  0
  1 25  1  0
  1 26  1  0
  1 27  1  0
  7 28  1  0
  8 29  1  0
  9 30  1  0
 11 31  1  0
 11 32  1  0
 17 33  1  0
 18 34  1  0
 19 35  1  0
 20 36  1  0
 24 37  1  0
M  CHG  3   5  -1  12  -1  15  -1
M  END
>  <UniqueID>  (87) 
79

>  <SMILES>  (87) 
CS(=O)(=O)[N-]c1cccc(C[N-]C(=O)[N-]c2ccccc2Br)c1O

>  <Energy>  (87) 
48.999277821509345

>  <Genealogy>  (87) 
CS(=O)(=O)[N-]c1cccc(C[N-]C(=O)[N-]c2ccccc2Br)c1O (protonated)
CS(=O)(=O)[N-]c1cccc(C[N-]C(=O)[N-]c2ccccc2Br)c1O (3D coordinates assigned)
CS(=O)(=O)[N-]c1cccc(C[N-]C(=O)[N-]c2ccccc2Br)c1O (optimized conformer: 48.999277821509345 kcal/mol)

>  <smiles>  (87) 
CS(=O)(=O)Nc1cccc(CNC(=O)Nc2ccccc2Br)c1O

>  <score_type>  (87) 
oracle

>  <origin>  (87) 
adg

>  <m_score__min__energy>  (87) 
-13.619999999999999

>  <m_primary>  (87) 
energy

$$$$
87:0
     RDKit          3D

 36 38  0  0  0  0  0  0  0  0999 V2000
   54.5990   24.0030   46.5140 O   0  0  0  0  0  0  0  0  0  0  0  0
   55.4630   24.8780   46.2490 C   0  0  0  0  0  0  0  0  0  0  0  0
   55.0770   26.1330   45.9100 N   0  0  0  0  0  0  0  0  0  0  0  0
   55.9880   27.0980   45.6250 C   0  0  0  0  0  0  0  0  0  0  0  0
   55.5380   28.3590   45.2560 O   0  0  0  0  0  0  0  0  0  0  0  0
   57.3650   26.8120   45.6950 C   0  0  0  0  0  0  0  0  0  0  0  0
   58.4040   27.8680   45.3680 C   0  0  0  0  0  0  0  0  0  0  0  0
   59.0480   28.4550   46.6070 C   0  0  0  0  0  0  0  0  0  0  0  0
   59.9820   27.6840   47.3240 C   0  0  0  0  0  0  0  0  0  0  0  0
   60.5680   28.1760   48.4920 C   0  0  0  0  0  0  0  0  0  0  0  0
   60.2280   29.4420   48.9680 C   0  0  0  0  0  0  0  0  0  0  0  0
   60.8230   29.9220   50.1330 O   0  0  0  0  0  0  0  0  0  0  0  0
   59.2920   30.2180   48.2740 C   0  0  0  0  0  0  0  0  0  0  0  0
   58.6900   29.7330   47.0990 C   0  0  0  0  0  0  0  0  0  0  0  0
   57.7400   30.5530   46.4010 N   0  0  0  0  0  0  0  0  0  0  0  0
   58.0210   31.8880   45.9490 C   0  0  0  0  0  0  0  0  0  0  0  0
   58.1360   32.1340   44.5710 C   0  0  0  0  0  0  0  0  0  0  0  0
   58.4060   33.4210   44.1000 C   0  0  0  0  0  0  0  0  0  0  0  0
   58.5500   34.4790   44.9990 C   0  0  0  0  0  0  0  0  0  0  0  0
   58.4150   34.2540   46.3720 C   0  0  0  0  0  0  0  0  0  0  0  0
   58.1400   32.9680   46.8510 C   0  0  0  0  0  0  0  0  0  0  0  0
   57.9640   32.7800   48.2180 O   0  0  0  0  0  0  0  0  0  0  0  0
   57.7360   25.4900   46.0200 C   0  0  0  0  0  0  0  0  0  0  0  0
   58.9480   25.1490   46.0600 O   0  0  0  0  0  0  0  0  0  0  0  0
   56.7820   24.5640   46.2960 N   0  0  0  0  0  0  0  0  0  0  0  0
   59.1879   27.4104   44.7466 H   0  0  0  0  0  0  0  0  0  0  0  0
   57.8927   28.6858   44.8390 H   0  0  0  0  0  0  0  0  0  0  0  0
   60.2535   26.6821   46.9600 H   0  0  0  0  0  0  0  0  0  0  0  0
   61.3001   27.5632   49.0384 H   0  0  0  0  0  0  0  0  0  0  0  0
   60.3720   30.6230   50.7080 H   0  0  0  0  0  0  0  0  0  0  0  0
   59.0249   31.2162   48.6511 H   0  0  0  0  0  0  0  0  0  0  0  0
   56.8640   30.0960   46.0620 H   0  0  0  0  0  0  0  0  0  0  0  0
   58.0125   31.3065   43.8569 H   0  0  0  0  0  0  0  0  0  0  0  0
   58.5053   33.6009   43.0194 H   0  0  0  0  0  0  0  0  0  0  0  0
   58.7699   35.4905   44.6268 H   0  0  0  0  0  0  0  0  0  0  0  0
   58.5252   35.0902   47.0781 H   0  0  0  0  0  0  0  0  0  0  0  0
  1  2  2  0
  2  3  1  0
  3  4  1  0
  4  5  1  0
  4  6  2  0
  6  7  1  0
  7  8  1  0
  8  9  2  0
  9 10  1  0
 10 11  2  0
 11 12  1  0
 11 13  1  0
 13 14  2  0
 14 15  1  0
 15 16  1  0
 16 17  2  0
 17 18  1  0
 18 19  2  0
 19 20  1  0
 20 21  2  0
 21 22  1  0
  6 23  1  0
 23 24  2  0
 23 25  1  0
 25  2  1  0
 14  8  1  0
 21 16  1  0
  7 26  1  0
  7 27  1  0
  9 28  1  0
 10 29  1  0
 12 30  1  0
 13 31  1  0
 15 32  1  0
 17 33  1  0
 18 34  1  0
 19 35  1  0
 20 36  1  0
M  CHG  4   3  -1   5  -1  22  -1  25  -1
M  END
>  <UniqueID>  (88) 
80

>  <SMILES>  (88) 
O=c1[n-]c([O-])c(Cc2ccc(O)cc2Nc2ccccc2[O-])c(=O)[n-]1

>  <Energy>  (88) 
50.351881053176676

>  <Genealogy>  (88) 
O=c1[n-]c([O-])c(Cc2ccc(O)cc2Nc2ccccc2[O-])c(=O)[n-]1 (protonated)
O=c1[n-]c([O-])c(Cc2ccc(O)cc2Nc2ccccc2[O-])c(=O)[n-]1 (3D coordinates assigned)
O=c1[n-]c([O-])c(Cc2ccc(O)cc2Nc2ccccc2[O-])c(=O)[n-]1 (optimized conformer: 50.351881053176676 kcal/mol)

>  <smiles>  (88) 
O=c1[nH]c(O)c(Cc2ccc(O)cc2Nc2ccccc2O)c(=O)[nH]1

>  <score_type>  (88) 
oracle

>  <origin>  (88) 
adg

>  <m_score__min__energy>  (88) 
-16.620000000000001

>  <m_primary>  (88) 
energy

$$$$
